0:0
     RDKit          3D

 28 29  0  0  0  0  0  0  0  0999 V2000
   56.9470   32.6700   45.2380 C   0  0  0  0  0  0  0  0  0  0  0  0
   57.8550   31.4800   45.4040 C   0  0  0  0  0  0  0  0  0  0  0  0
   57.5130   30.1770   44.9820 C   0  0  0  0  0  0  0  0  0  0  0  0
   56.3330   29.7580   44.1980 C   0  0  0  0  0  0  0  0  0  0  0  0
   55.1450   29.3500   44.8720 N   0  0  0  0  0  0  0  0  0  0  0  0
   56.3730   29.7160   42.9400 O   0  0  0  0  0  0  0  0  0  0  0  0
   58.7120   29.0920   45.4730 S   0  0  0  0  0  0  0  0  0  0  0  0
   59.6830   30.2540   46.1750 C   0  0  0  0  0  0  0  0  0  0  0  0
   60.8720   30.0340   46.7870 N   0  0  0  0  0  0  0  0  0  0  0  0
   61.5700   31.0820   47.3020 C   0  0  0  0  0  0  0  0  0  0  0  0
   61.0770   32.3900   47.1820 C   0  0  0  0  0  0  0  0  0  0  0  0
   59.8460   32.6260   46.5390 C   0  0  0  0  0  0  0  0  0  0  0  0
   59.4110   33.9770   46.3280 N   0  0  0  0  0  0  0  0  0  0  0  0
   59.5700   34.5610   44.9980 C   0  0  0  0  0  0  0  0  0  0  0  0
   59.3050   34.8760   47.4760 C   0  0  0  0  0  0  0  0  0  0  0  0
   59.1230   31.5170   46.0450 C   0  0  0  0  0  0  0  0  0  0  0  0
   56.6566   33.0506   46.2284 H   0  0  0  0  0  0  0  0  0  0  0  0
   57.4746   33.4591   44.6822 H   0  0  0  0  0  0  0  0  0  0  0  0
   56.0466   32.3695   44.6822 H   0  0  0  0  0  0  0  0  0  0  0  0
   55.1790   28.6460   45.6410 H   0  0  0  0  0  0  0  0  0  0  0  0
   62.5262   30.9029   47.8153 H   0  0  0  0  0  0  0  0  0  0  0  0
   61.6530   33.2332   47.5909 H   0  0  0  0  0  0  0  0  0  0  0  0
   59.8579   35.6183   45.0938 H   0  0  0  0  0  0  0  0  0  0  0  0
   60.3525   34.0162   44.4495 H   0  0  0  0  0  0  0  0  0  0  0  0
   58.6193   34.4881   44.4495 H   0  0  0  0  0  0  0  0  0  0  0  0
   59.3738   34.2927   48.4061 H   0  0  0  0  0  0  0  0  0  0  0  0
   60.1227   35.6110   47.4429 H   0  0  0  0  0  0  0  0  0  0  0  0
   58.3388   35.4007   47.4429 H   0  0  0  0  0  0  0  0  0  0  0  0
  1  2  1  0
  2  3  2  0
  3  4  1  0
  4  5  1  0
  4  6  2  0
  3  7  1  0
  7  8  1  0
  8  9  2  0
  9 10  1  0
 10 11  2  0
 11 12  1  0
 12 13  1  0
 13 14  1  0
 13 15  1  0
 12 16  2  0
 16  2  1  0
 16  8  1  0
  1 17  1  0
  1 18  1  0
  1 19  1  0
  5 20  1  0
 10 21  1  0
 11 22  1  0
 14 23  1  0
 14 24  1  0
 14 25  1  0
 15 26  1  0
 15 27  1  0
 15 28  1  0
M  CHG  1   5  -1
M  END
>  <UniqueID>  (1) 
1

>  <SMILES>  (1) 
Cc1c(C([NH-])=O)sc2nccc(N(C)C)c12

>  <Energy>  (1) 
68.0870047536071

>  <Genealogy>  (1) 
Cc1c(C([NH-])=O)sc2nccc(N(C)C)c12 (protonated)
Cc1c(C([NH-])=O)sc2nccc(N(C)C)c12 (3D coordinates assigned)
Cc1c(C([NH-])=O)sc2nccc(N(C)C)c12 (optimized conformer: 68.0870047536071 kcal/mol)

>  <smiles>  (1) 
Cc1c(C(N)=O)sc2nccc(N(C)C)c12

>  <score_type>  (1) 
oracle

>  <origin>  (1) 
adg

>  <m_score__min__energy>  (1) 
-8.9900000000000002

>  <m_primary>  (1) 
energy

$$$$
1:0
     RDKit          3D

 40 42  0  0  0  0  0  0  0  0999 V2000
   56.4800   30.1020   42.8710 C   0  0  0  0  0  0  0  0  0  0  0  0
   55.4950   30.0300   44.0330 C   0  0  0  0  0  0  0  0  0  0  0  0
   55.8670   28.9540   44.9630 N   0  0  0  0  0  0  0  0  0  0  0  0
   57.1650   28.3620   44.6060 C   0  0  0  0  0  0  0  0  0  0  0  0
   58.2900   28.9840   45.4380 C   0  0  0  0  0  0  0  0  0  0  0  0
   57.8150   30.1580   46.1700 N   0  0  0  0  0  0  0  0  0  0  0  0
   58.7300   31.0790   46.7860 C   0  0  0  0  0  0  0  0  0  0  0  0
   58.8850   32.4050   46.3140 C   0  0  0  0  0  0  0  0  0  0  0  0
   58.0600   32.9090   45.2890 C   0  0  0  0  0  0  0  0  0  0  0  0
   58.2210   34.2120   44.8220 C   0  0  0  0  0  0  0  0  0  0  0  0
   59.1920   35.0390   45.3760 C   0  0  0  0  0  0  0  0  0  0  0  0
   60.0020   34.5780   46.4130 C   0  0  0  0  0  0  0  0  0  0  0  0
   59.8650   33.2610   46.9150 C   0  0  0  0  0  0  0  0  0  0  0  0
   60.6400   32.8050   47.9680 N   0  0  0  0  0  0  0  0  0  0  0  0
   61.6640   33.6640   48.5910 C   0  0  0  0  0  0  0  0  0  0  0  0
   60.4230   31.5370   48.4390 C   0  0  0  0  0  0  0  0  0  0  0  0
   61.1910   30.7530   49.7200 S   0  0  0  0  0  0  0  0  0  0  0  0
   60.3390   29.3060   49.5730 C   0  0  0  0  0  0  0  0  0  0  0  0
   59.4450   29.4210   48.5140 C   0  0  0  0  0  0  0  0  0  0  0  0
   59.4920   30.6750   47.8820 C   0  0  0  0  0  0  0  0  0  0  0  0
   57.5049   30.1769   43.2633 H   0  0  0  0  0  0  0  0  0  0  0  0
   56.3882   29.1948   42.2558 H   0  0  0  0  0  0  0  0  0  0  0  0
   56.2573   30.9863   42.2558 H   0  0  0  0  0  0  0  0  0  0  0  0
   55.4998   30.9897   44.5705 H   0  0  0  0  0  0  0  0  0  0  0  0
   54.4914   29.8214   43.6338 H   0  0  0  0  0  0  0  0  0  0  0  0
   55.1430   28.2010   44.8790 H   0  0  0  0  0  0  0  0  0  0  0  0
   57.1323   27.2789   44.7952 H   0  0  0  0  0  0  0  0  0  0  0  0
   57.3624   28.5574   43.5416 H   0  0  0  0  0  0  0  0  0  0  0  0
   58.6603   28.2380   46.1565 H   0  0  0  0  0  0  0  0  0  0  0  0
   59.0955   29.2981   44.7579 H   0  0  0  0  0  0  0  0  0  0  0  0
   56.8280   30.1380   46.5130 H   0  0  0  0  0  0  0  0  0  0  0  0
   57.2805   32.2671   44.8528 H   0  0  0  0  0  0  0  0  0  0  0  0
   57.5779   34.5876   44.0125 H   0  0  0  0  0  0  0  0  0  0  0  0
   59.3218   36.0624   44.9941 H   0  0  0  0  0  0  0  0  0  0  0  0
   60.7589   35.2474   46.8477 H   0  0  0  0  0  0  0  0  0  0  0  0
   61.5829   33.5960   49.6859 H   0  0  0  0  0  0  0  0  0  0  0  0
   62.6637   33.3303   48.2759 H   0  0  0  0  0  0  0  0  0  0  0  0
   61.5092   34.7065   48.2759 H   0  0  0  0  0  0  0  0  0  0  0  0
   60.4686   28.4181   50.2092 H   0  0  0  0  0  0  0  0  0  0  0  0
   58.7688   28.6113   48.2023 H   0  0  0  0  0  0  0  0  0  0  0  0
  1  2  1  0
  2  3  1  0
  3  4  1  0
  4  5  1  0
  5  6  1  0
  6  7  1  0
  7  8  2  0
  8  9  1  0
  9 10  2  0
 10 11  1  0
 11 12  2  0
 12 13  1  0
 13 14  2  0
 14 15  1  0
 14 16  1  0
 16 17  1  0
 17 18  1  0
 18 19  2  0
 19 20  1  0
 20  7  1  0
 13  8  1  0
 20 16  2  0
  1 21  1  0
  1 22  1  0
  1 23  1  0
  2 24  1  0
  2 25  1  0
  3 26  1  0
  4 27  1  0
  4 28  1  0
  5 29  1  0
  5 30  1  0
  6 31  1  0
  9 32  1  0
 10 33  1  0
 11 34  1  0
 12 35  1  0
 15 36  1  0
 15 37  1  0
 15 38  1  0
 18 39  1  0
 19 40  1  0
M  CHG  1  14   1
M  END
>  <UniqueID>  (2) 
2

>  <SMILES>  (2) 
CCNCCNc1c2ccccc2[n+](C)c2sccc12

>  <Energy>  (2) 
80.7912350848767

>  <Genealogy>  (2) 
CCNCCNc1c2ccccc2[n+](C)c2sccc12 (3D coordinates assigned)
CCNCCNc1c2ccccc2[n+](C)c2sccc12 (optimized conformer: 80.7912350848767 kcal/mol)

>  <smiles>  (2) 
CCNCCNc1c2ccccc2[n+](C)c2sccc12

>  <score_type>  (2) 
oracle

>  <origin>  (2) 
adg

>  <m_score__min__energy>  (2) 
-5.5999999999999996

>  <m_primary>  (2) 
energy

$$$$
2:0
     RDKit          3D

 47 50  0  0  0  0  0  0  0  0999 V2000
   60.7680   27.0790   49.2860 C   0  0  0  0  0  0  0  0  0  0  0  0
   60.2080   28.1180   48.4060 N   0  0  0  0  0  0  0  0  0  0  0  0
   59.7390   27.4940   47.1560 C   0  0  0  0  0  0  0  0  0  0  0  0
   59.1140   28.8310   49.1030 C   0  0  0  0  0  0  0  0  0  0  0  0
   59.6250   29.9750   50.0030 C   0  0  0  0  0  0  0  0  0  0  0  0
   60.9560   30.4830   49.6160 N   0  0  0  0  0  0  0  0  0  0  0  0
   60.9050   31.8480   49.1240 C   0  0  0  0  0  0  0  0  0  0  0  0
   61.5200   32.8440   49.8990 C   0  0  0  0  0  0  0  0  0  0  0  0
   61.5150   34.1720   49.5000 C   0  0  0  0  0  0  0  0  0  0  0  0
   60.8990   34.5490   48.3150 C   0  0  0  0  0  0  0  0  0  0  0  0
   60.2620   33.5980   47.4860 C   0  0  0  0  0  0  0  0  0  0  0  0
   60.2630   32.2200   47.9000 C   0  0  0  0  0  0  0  0  0  0  0  0
   59.5990   31.2740   47.0880 C   0  0  0  0  0  0  0  0  0  0  0  0
   58.9580   31.6930   45.9290 C   0  0  0  0  0  0  0  0  0  0  0  0
   58.2220   30.8940   45.0330 C   0  0  0  0  0  0  0  0  0  0  0  0
   57.9810   29.5160   45.1120 C   0  0  0  0  0  0  0  0  0  0  0  0
   57.2090   28.9020   44.1110 C   0  0  0  0  0  0  0  0  0  0  0  0
   56.6870   29.6600   43.0460 C   0  0  0  0  0  0  0  0  0  0  0  0
   56.9290   31.0390   42.9720 C   0  0  0  0  0  0  0  0  0  0  0  0
   57.6960   31.6280   43.9740 C   0  0  0  0  0  0  0  0  0  0  0  0
   58.1200   33.2480   44.1260 S   0  0  0  0  0  0  0  0  0  0  0  0
   58.9950   33.0300   45.5640 C   0  0  0  0  0  0  0  0  0  0  0  0
   59.6400   33.9810   46.3080 N   0  0  0  0  0  0  0  0  0  0  0  0
   59.6490   35.3870   45.8630 C   0  0  0  0  0  0  0  0  0  0  0  0
   60.6134   27.3659   50.3366 H   0  0  0  0  0  0  0  0  0  0  0  0
   60.2639   26.1213   49.0894 H   0  0  0  0  0  0  0  0  0  0  0  0
   61.8451   26.9735   49.0894 H   0  0  0  0  0  0  0  0  0  0  0  0
   59.0938   26.6356   47.3943 H   0  0  0  0  0  0  0  0  0  0  0  0
   59.1686   28.2300   46.5703 H   0  0  0  0  0  0  0  0  0  0  0  0
   60.6045   27.1507   46.5703 H   0  0  0  0  0  0  0  0  0  0  0  0
   58.4336   29.2539   48.3492 H   0  0  0  0  0  0  0  0  0  0  0  0
   58.6034   28.1028   49.7503 H   0  0  0  0  0  0  0  0  0  0  0  0
   58.9067   30.8064   49.9498 H   0  0  0  0  0  0  0  0  0  0  0  0
   59.7191   29.5672   51.0203 H   0  0  0  0  0  0  0  0  0  0  0  0
   61.4350   29.8200   48.9730 H   0  0  0  0  0  0  0  0  0  0  0  0
   61.5520   30.4780   50.4770 H   0  0  0  0  0  0  0  0  0  0  0  0
   62.0154   32.5656   50.8409 H   0  0  0  0  0  0  0  0  0  0  0  0
   62.0030   34.9323   50.1275 H   0  0  0  0  0  0  0  0  0  0  0  0
   60.9066   35.6074   48.0154 H   0  0  0  0  0  0  0  0  0  0  0  0
   59.5895   30.2113   47.3719 H   0  0  0  0  0  0  0  0  0  0  0  0
   58.3896   28.9242   45.9443 H   0  0  0  0  0  0  0  0  0  0  0  0
   57.0112   27.8210   44.1601 H   0  0  0  0  0  0  0  0  0  0  0  0
   56.0858   29.1677   42.2674 H   0  0  0  0  0  0  0  0  0  0  0  0
   56.5238   31.6397   42.1444 H   0  0  0  0  0  0  0  0  0  0  0  0
   59.6532   36.0495   46.7411 H   0  0  0  0  0  0  0  0  0  0  0  0
   60.5484   35.5744   45.2580 H   0  0  0  0  0  0  0  0  0  0  0  0
   58.7521   35.5859   45.2580 H   0  0  0  0  0  0  0  0  0  0  0  0
  1  2  1  0
  2  3  1  0
  2  4  1  0
  4  5  1  0
  5  6  1  0
  6  7  1  0
  7  8  2  0
  8  9  1  0
  9 10  2  0
 10 11  1  0
 11 12  2  0
 12 13  1  0
 13 14  2  0
 14 15  1  0
 15 16  2  0
 16 17  1  0
 17 18  2  0
 18 19  1  0
 19 20  2  0
 20 21  1  0
 21 22  1  0
 22 23  2  0
 23 24  1  0
 12  7  1  0
 22 14  1  0
 23 11  1  0
 20 15  1  0
  1 25  1  0
  1 26  1  0
  1 27  1  0
  3 28  1  0
  3 29  1  0
  3 30  1  0
  4 31  1  0
  4 32  1  0
  5 33  1  0
  5 34  1  0
  6 35  1  0
  6 36  1  0
  8 37  1  0
  9 38  1  0
 10 39  1  0
 13 40  1  0
 16 41  1  0
 17 42  1  0
 18 43  1  0
 19 44  1  0
 24 45  1  0
 24 46  1  0
 24 47  1  0
M  CHG  2   6   1  23   1
M  END
>  <UniqueID>  (3) 
3

>  <SMILES>  (3) 
CN(C)CC[NH2+]c1cccc2c1cc1c3ccccc3sc1[n+]2C

>  <Energy>  (3) 
100.47756703692164

>  <Genealogy>  (3) 
CN(C)CC[NH2+]c1cccc2c1cc1c3ccccc3sc1[n+]2C (protonated)
CN(C)CC[NH2+]c1cccc2c1cc1c3ccccc3sc1[n+]2C (3D coordinates assigned)
CN(C)CC[NH2+]c1cccc2c1cc1c3ccccc3sc1[n+]2C (optimized conformer: 100.47756703692164 kcal/mol)

>  <smiles>  (3) 
CN(C)CCNc1cccc2c1cc1c3ccccc3sc1[n+]2C

>  <score_type>  (3) 
oracle

>  <origin>  (3) 
adg

>  <m_score__min__energy>  (3) 
-5.0099999999999998

>  <m_primary>  (3) 
energy

$$$$
3:0
     RDKit          3D

 51 55  0  0  0  0  0  0  0  0999 V2000
   56.1720   29.5140   45.0840 O   0  0  0  0  0  0  0  0  0  0  0  0
   57.3130   29.8230   44.6390 C   0  0  0  0  0  0  0  0  0  0  0  0
   57.7660   31.2210   44.7710 C   0  0  0  0  0  0  0  0  0  0  0  0
   57.7850   32.0570   43.6400 C   0  0  0  0  0  0  0  0  0  0  0  0
   58.2180   33.3810   43.7510 C   0  0  0  0  0  0  0  0  0  0  0  0
   58.6640   33.8680   44.9830 C   0  0  0  0  0  0  0  0  0  0  0  0
   58.6330   33.0450   46.1190 C   0  0  0  0  0  0  0  0  0  0  0  0
   58.1990   31.7230   46.0120 C   0  0  0  0  0  0  0  0  0  0  0  0
   59.0560   33.5650   47.3480 O   0  0  0  0  0  0  0  0  0  0  0  0
   59.2580   34.9700   47.5260 C   0  0  0  0  0  0  0  0  0  0  0  0
   59.8900   35.5740   46.2640 C   0  0  0  0  0  0  0  0  0  0  0  0
   59.1530   35.1720   45.1060 O   0  0  0  0  0  0  0  0  0  0  0  0
   58.1890   28.8050   44.0840 N   0  0  1  0  0  0  0  0  0  0  0  0
   59.6070   29.0780   44.4390 C   0  0  0  0  0  0  0  0  0  0  0  0
   59.8990   28.9270   45.9500 C   0  0  0  0  0  0  0  0  0  0  0  0
   59.2580   27.6800   46.4720 C   0  0  0  0  0  0  0  0  0  0  0  0
   58.2370   27.0440   45.8170 C   0  0  0  0  0  0  0  0  0  0  0  0
   57.8140   26.0050   46.6210 C   0  0  0  0  0  0  0  0  0  0  0  0
   58.5930   26.0730   47.7640 C   0  0  0  0  0  0  0  0  0  0  0  0
   59.4680   27.1010   47.6700 N   0  0  0  0  0  0  0  0  0  0  0  0
   60.4170   27.5180   48.7050 C   0  0  0  0  0  0  0  0  0  0  0  0
   60.1480   28.9350   49.1380 C   0  0  0  0  0  0  0  0  0  0  0  0
   58.8880   29.2970   49.6520 C   0  0  0  0  0  0  0  0  0  0  0  0
   58.6350   30.6190   50.0330 C   0  0  0  0  0  0  0  0  0  0  0  0
   59.6370   31.5910   49.9040 C   0  0  0  0  0  0  0  0  0  0  0  0
   59.3200   33.2460   50.3910 Cl  0  0  0  0  0  0  0  0  0  0  0  0
   60.8910   31.2390   49.3890 C   0  0  0  0  0  0  0  0  0  0  0  0
   61.1430   29.9200   48.9980 C   0  0  0  0  0  0  0  0  0  0  0  0
   57.7570   27.4290   44.4500 C   0  0  0  0  0  0  0  0  0  0  0  0
   57.4579   31.6672   42.6648 H   0  0  0  0  0  0  0  0  0  0  0  0
   58.2079   34.0393   42.8698 H   0  0  0  0  0  0  0  0  0  0  0  0
   58.1954   31.0726   46.8991 H   0  0  0  0  0  0  0  0  0  0  0  0
   58.2897   35.4559   47.7167 H   0  0  0  0  0  0  0  0  0  0  0  0
   59.9318   35.1324   48.3802 H   0  0  0  0  0  0  0  0  0  0  0  0
   59.8781   36.6713   46.3403 H   0  0  0  0  0  0  0  0  0  0  0  0
   60.9265   35.2170   46.1736 H   0  0  0  0  0  0  0  0  0  0  0  0
   58.1400   28.8660   43.0380 H   0  0  0  0  0  0  0  0  0  0  0  0
   60.2469   28.3734   43.8876 H   0  0  0  0  0  0  0  0  0  0  0  0
   59.8147   30.1241   44.1699 H   0  0  0  0  0  0  0  0  0  0  0  0
   60.9863   28.8712   46.1073 H   0  0  0  0  0  0  0  0  0  0  0  0
   59.4891   29.7957   46.4860 H   0  0  0  0  0  0  0  0  0  0  0  0
   57.0221   25.2743   46.3997 H   0  0  0  0  0  0  0  0  0  0  0  0
   58.5123   25.3908   48.6231 H   0  0  0  0  0  0  0  0  0  0  0  0
   60.3191   26.8507   49.5740 H   0  0  0  0  0  0  0  0  0  0  0  0
   61.4352   27.4628   48.2925 H   0  0  0  0  0  0  0  0  0  0  0  0
   58.0993   28.5370   49.7544 H   0  0  0  0  0  0  0  0  0  0  0  0
   57.6490   30.8961   50.4342 H   0  0  0  0  0  0  0  0  0  0  0  0
   61.6786   32.0008   49.2919 H   0  0  0  0  0  0  0  0  0  0  0  0
   62.1239   29.6513   48.5790 H   0  0  0  0  0  0  0  0  0  0  0  0
   58.1657   26.7195   43.7154 H   0  0  0  0  0  0  0  0  0  0  0  0
   56.6573   27.4033   44.4521 H   0  0  0  0  0  0  0  0  0  0  0  0
  1  2  2  0
  2  3  1  0
  3  4  2  0
  4  5  1  0
  5  6  2  0
  6  7  1  0
  7  8  2  0
  7  9  1  0
  9 10  1  0
 10 11  1  0
 11 12  1  0
  2 13  1  0
 13 14  1  0
 14 15  1  0
 15 16  1  0
 16 17  2  0
 17 18  1  0
 18 19  2  0
 19 20  1  0
 20 21  1  0
 21 22  1  0
 22 23  2  0
 23 24  1  0
 24 25  2  0
 25 26  1  0
 25 27  1  0
 27 28  2  0
 17 29  1  0
  8  3  1  0
 29 13  1  0
 12  6  1  0
 20 16  1  0
 28 22  1  0
  4 30  1  0
  5 31  1  0
  8 32  1  0
 10 33  1  0
 10 34  1  0
 11 35  1  0
 11 36  1  0
 13 37  1  6
 14 38  1  0
 14 39  1  0
 15 40  1  0
 15 41  1  0
 18 42  1  0
 19 43  1  0
 21 44  1  0
 21 45  1  0
 23 46  1  0
 24 47  1  0
 27 48  1  0
 28 49  1  0
 29 50  1  0
 29 51  1  0
M  CHG  1  13   1
M  END
>  <UniqueID>  (4) 
4

>  <SMILES>  (4) 
O=C(c1ccc2c(c1)OCCO2)[N@H+]1CCc2c(ccn2Cc2ccc(Cl)cc2)C1

>  <Energy>  (4) 
94.29386050616914

>  <Genealogy>  (4) 
O=C(c1ccc2c(c1)OCCO2)[NH+]1CCc2c(ccn2Cc2ccc(Cl)cc2)C1 (protonated)
O=C(c1ccc2c(c1)OCCO2)[N@H+]1CCc2c(ccn2Cc2ccc(Cl)cc2)C1 (chirality)
O=C(c1ccc2c(c1)OCCO2)[N@H+]1CCc2c(ccn2Cc2ccc(Cl)cc2)C1 (3D coordinates assigned)
O=C(c1ccc2c(c1)OCCO2)[N@H+]1CCc2c(ccn2Cc2ccc(Cl)cc2)C1 (nonaromatic ring conformer: 94.29386050616914 kcal/mol)

>  <smiles>  (4) 
O=C(c1ccc2c(c1)OCCO2)N1CCc2c(ccn2Cc2ccc(Cl)cc2)C1

>  <score_type>  (4) 
oracle

>  <origin>  (4) 
adg

>  <m_score__min__energy>  (4) 
-7.3200000000000003

>  <m_primary>  (4) 
energy

$$$$
4:0
     RDKit          3D

 42 44  0  0  0  0  0  0  0  0999 V2000
   56.3380   29.7530   43.1080 C   0  0  0  0  0  0  0  0  0  0  0  0
   56.2600   30.2970   44.4220 O   0  0  0  0  0  0  0  0  0  0  0  0
   57.2520   31.0960   45.0120 C   0  0  0  0  0  0  0  0  0  0  0  0
   57.4570   32.4360   44.6310 C   0  0  0  0  0  0  0  0  0  0  0  0
   58.4550   33.2010   45.2390 C   0  0  0  0  0  0  0  0  0  0  0  0
   58.6330   34.4960   44.8720 N   0  0  0  0  0  0  0  0  0  0  0  0
   59.5900   35.2630   45.4510 C   0  0  0  0  0  0  0  0  0  0  0  0
   60.3980   34.7410   46.4120 N   0  0  0  0  0  0  0  0  0  0  0  0
   60.2710   33.4460   46.8120 C   0  0  0  0  0  0  0  0  0  0  0  0
   61.1650   32.9300   47.8100 N   0  0  0  0  0  0  0  0  0  0  0  0
   61.2480   33.6040   49.1100 C   0  0  0  0  0  0  0  0  0  0  0  0
   62.3360   32.9800   49.9900 C   0  0  0  0  0  0  0  0  0  0  0  0
   63.6420   32.8370   49.1980 C   0  0  0  0  0  0  0  0  0  0  0  0
   63.4700   32.0330   47.8740 C   0  0  2  0  0  0  0  0  0  0  0  0
   64.1300   32.7150   46.7560 N   0  0  0  0  0  0  0  0  0  0  0  0
   61.9960   31.7570   47.5170 C   0  0  0  0  0  0  0  0  0  0  0  0
   59.2740   32.6330   46.2350 C   0  0  0  0  0  0  0  0  0  0  0  0
   59.0620   31.3010   46.6250 C   0  0  0  0  0  0  0  0  0  0  0  0
   58.0550   30.5280   46.0130 C   0  0  0  0  0  0  0  0  0  0  0  0
   57.8220   29.1910   46.3730 O   0  0  0  0  0  0  0  0  0  0  0  0
   58.3270   28.0630   45.6680 C   0  0  0  0  0  0  0  0  0  0  0  0
   56.4939   28.6659   43.1699 H   0  0  0  0  0  0  0  0  0  0  0  0
   55.4011   29.9590   42.5696 H   0  0  0  0  0  0  0  0  0  0  0  0
   57.1792   30.2140   42.5696 H   0  0  0  0  0  0  0  0  0  0  0  0
   56.8265   32.8837   43.8487 H   0  0  0  0  0  0  0  0  0  0  0  0
   59.7130   36.3115   45.1420 H   0  0  0  0  0  0  0  0  0  0  0  0
   61.1340   35.3470   46.8390 H   0  0  0  0  0  0  0  0  0  0  0  0
   61.4827   34.6665   48.9488 H   0  0  0  0  0  0  0  0  0  0  0  0
   60.2806   33.4934   49.6217 H   0  0  0  0  0  0  0  0  0  0  0  0
   62.5101   33.6246   50.8642 H   0  0  0  0  0  0  0  0  0  0  0  0
   62.0045   31.9836   50.3176 H   0  0  0  0  0  0  0  0  0  0  0  0
   64.0134   33.8425   48.9511 H   0  0  0  0  0  0  0  0  0  0  0  0
   64.3493   32.2800   49.8301 H   0  0  0  0  0  0  0  0  0  0  0  0
   63.9506   31.0592   48.0494 H   0  0  0  0  0  0  0  0  0  0  0  0
   64.5390   31.9930   46.1190 H   0  0  0  0  0  0  0  0  0  0  0  0
   64.9180   33.2970   47.1230 H   0  0  0  0  0  0  0  0  0  0  0  0
   61.9219   31.5201   46.4454 H   0  0  0  0  0  0  0  0  0  0  0  0
   61.6380   30.9094   48.1199 H   0  0  0  0  0  0  0  0  0  0  0  0
   59.6867   30.8574   47.4143 H   0  0  0  0  0  0  0  0  0  0  0  0
   58.6671   27.3033   46.3871 H   0  0  0  0  0  0  0  0  0  0  0  0
   57.5324   27.6398   45.0359 H   0  0  0  0  0  0  0  0  0  0  0  0
   59.1719   28.3738   45.0359 H   0  0  0  0  0  0  0  0  0  0  0  0
  1  2  1  0
  2  3  1  0
  3  4  2  0
  4  5  1  0
  5  6  2  0
  6  7  1  0
  7  8  2  0
  8  9  1  0
  9 10  1  0
 10 11  1  0
 11 12  1  0
 12 13  1  0
 13 14  1  0
 14 15  1  0
 14 16  1  0
  9 17  2  0
 17 18  1  0
 18 19  2  0
 19 20  1  0
 20 21  1  0
 19  3  1  0
 17  5  1  0
 16 10  1  0
  1 22  1  0
  1 23  1  0
  1 24  1  0
  4 25  1  0
  7 26  1  0
  8 27  1  0
 11 28  1  0
 11 29  1  0
 12 30  1  0
 12 31  1  0
 13 32  1  0
 13 33  1  0
 14 34  1  1
 15 35  1  0
 15 36  1  0
 16 37  1  0
 16 38  1  0
 18 39  1  0
 21 40  1  0
 21 41  1  0
 21 42  1  0
M  CHG  1   8   1
M  END
>  <UniqueID>  (5) 
5

>  <SMILES>  (5) 
COc1cc2nc[nH+]c(N3CCC[C@H](N)C3)c2cc1OC

>  <Energy>  (5) 
52.11459995220794

>  <Genealogy>  (5) 
COc1cc2nc[nH+]c(N3CCCC(N)C3)c2cc1OC (protonated)
COc1cc2nc[nH+]c(N3CCC[C@H](N)C3)c2cc1OC (chirality)
COc1cc2nc[nH+]c(N3CCC[C@H](N)C3)c2cc1OC (3D coordinates assigned)
COc1cc2nc[nH+]c(N3CCC[C@H](N)C3)c2cc1OC (nonaromatic ring conformer: 52.11459995220794 kcal/mol)

>  <smiles>  (5) 
COc1cc2ncnc(N3CCCC(N)C3)c2cc1OC

>  <score_type>  (5) 
oracle

>  <origin>  (5) 
adg

>  <m_score__min__energy>  (5) 
-6.2800000000000002

>  <m_primary>  (5) 
energy

$$$$
5:0
     RDKit          3D

 50 53  0  0  0  0  0  0  0  0999 V2000
   60.5280   31.0380   48.8850 C   0  0  0  0  0  0  0  0  0  0  0  0
   61.6270   31.9060   48.3330 C   0  0  0  0  0  0  0  0  0  0  0  0
   62.8780   31.8240   48.8780 N   0  0  0  0  0  0  0  0  0  0  0  0
   63.9100   32.5880   48.4270 C   0  0  0  0  0  0  0  0  0  0  0  0
   63.7150   33.4780   47.3740 C   0  0  0  0  0  0  0  0  0  0  0  0
   62.4560   33.5770   46.7860 C   0  0  0  0  0  0  0  0  0  0  0  0
   61.3930   32.7950   47.2560 C   0  0  0  0  0  0  0  0  0  0  0  0
   60.0720   32.8910   46.5940 C   0  0  0  0  0  0  0  0  0  0  0  0
   59.4930   31.8440   45.9670 N   0  0  0  0  0  0  0  0  0  0  0  0
   58.3340   32.3430   45.4890 C   0  0  0  0  0  0  0  0  0  0  0  0
   57.3450   31.5340   44.6930 C   0  0  1  0  0  0  0  0  0  0  0  0
   57.7170   31.5110   43.2060 C   0  0  0  0  0  0  0  0  0  0  0  0
   56.6640   30.7570   42.3780 C   0  0  0  0  0  0  0  0  0  0  0  0
   55.8490   29.7500   43.2160 C   0  0  0  0  0  0  0  0  0  0  0  0
   56.6510   29.1130   44.2860 N   0  0  0  0  0  0  0  0  0  0  0  0
   57.6660   28.1680   43.7660 C   0  0  0  0  0  0  0  0  0  0  0  0
   58.8990   28.1860   44.6160 C   0  0  0  0  0  0  0  0  0  0  0  0
   59.2030   27.2820   45.6140 C   0  0  0  0  0  0  0  0  0  0  0  0
   60.4290   27.6750   46.1050 C   0  0  0  0  0  0  0  0  0  0  0  0
   60.7960   28.7900   45.3790 C   0  0  0  0  0  0  0  0  0  0  0  0
   59.8630   29.0690   44.4970 O   0  0  0  0  0  0  0  0  0  0  0  0
   57.2200   30.0930   45.2520 C   0  0  0  0  0  0  0  0  0  0  0  0
   58.2260   33.6770   45.8250 C   0  0  0  0  0  0  0  0  0  0  0  0
   59.3180   34.0130   46.5310 N   0  0  0  0  0  0  0  0  0  0  0  0
   59.6040   35.3340   47.0840 C   0  0  0  0  0  0  0  0  0  0  0  0
   60.5588   31.0623   49.9843 H   0  0  0  0  0  0  0  0  0  0  0  0
   59.5544   31.4135   48.5370 H   0  0  0  0  0  0  0  0  0  0  0  0
   60.6678   30.0039   48.5370 H   0  0  0  0  0  0  0  0  0  0  0  0
   63.0620   31.1630   49.6660 H   0  0  0  0  0  0  0  0  0  0  0  0
   64.9014   32.5022   48.8958 H   0  0  0  0  0  0  0  0  0  0  0  0
   64.5478   34.0975   47.0097 H   0  0  0  0  0  0  0  0  0  0  0  0
   62.2958   34.2724   45.9489 H   0  0  0  0  0  0  0  0  0  0  0  0
   56.3637   32.0215   44.7897 H   0  0  0  0  0  0  0  0  0  0  0  0
   57.7883   32.5453   42.8385 H   0  0  0  0  0  0  0  0  0  0  0  0
   58.6807   30.9919   43.0974 H   0  0  0  0  0  0  0  0  0  0  0  0
   55.9713   31.4905   41.9396 H   0  0  0  0  0  0  0  0  0  0  0  0
   57.1991   30.1860   41.6049 H   0  0  0  0  0  0  0  0  0  0  0  0
   55.0037   30.2805   43.6787 H   0  0  0  0  0  0  0  0  0  0  0  0
   55.5086   28.9534   42.5381 H   0  0  0  0  0  0  0  0  0  0  0  0
   57.2446   27.1519   43.7645 H   0  0  0  0  0  0  0  0  0  0  0  0
   57.9389   28.4726   42.7449 H   0  0  0  0  0  0  0  0  0  0  0  0
   58.5948   26.4281   45.9470 H   0  0  0  0  0  0  0  0  0  0  0  0
   61.0007   27.1961   46.9136 H   0  0  0  0  0  0  0  0  0  0  0  0
   61.7275   29.3584   45.5177 H   0  0  0  0  0  0  0  0  0  0  0  0
   56.5694   30.1217   46.1385 H   0  0  0  0  0  0  0  0  0  0  0  0
   58.2402   29.7534   45.4843 H   0  0  0  0  0  0  0  0  0  0  0  0
   57.3936   34.3461   45.5615 H   0  0  0  0  0  0  0  0  0  0  0  0
   59.5927   35.2818   48.1827 H   0  0  0  0  0  0  0  0  0  0  0  0
   60.5952   35.6675   46.7429 H   0  0  0  0  0  0  0  0  0  0  0  0
   58.8396   36.0476   46.7429 H   0  0  0  0  0  0  0  0  0  0  0  0
  1  2  1  0
  2  3  2  0
  3  4  1  0
  4  5  2  0
  5  6  1  0
  6  7  2  0
  7  8  1  0
  8  9  2  0
  9 10  1  0
 10 11  1  0
 11 12  1  0
 12 13  1  0
 13 14  1  0
 14 15  1  0
 15 16  1  0
 16 17  1  0
 17 18  2  0
 18 19  1  0
 19 20  2  0
 20 21  1  0
 15 22  1  0
 10 23  2  0
 23 24  1  0
 24 25  1  0
  7  2  1  0
 24  8  1  0
 22 11  1  0
 21 17  1  0
  1 26  1  0
  1 27  1  0
  1 28  1  0
  3 29  1  0
  4 30  1  0
  5 31  1  0
  6 32  1  0
 11 33  1  6
 12 34  1  0
 12 35  1  0
 13 36  1  0
 13 37  1  0
 14 38  1  0
 14 39  1  0
 16 40  1  0
 16 41  1  0
 18 42  1  0
 19 43  1  0
 20 44  1  0
 22 45  1  0
 22 46  1  0
 23 47  1  0
 25 48  1  0
 25 49  1  0
 25 50  1  0
M  CHG  1   3   1
M  END
>  <UniqueID>  (6) 
6

>  <SMILES>  (6) 
Cc1[nH+]cccc1-c1nc([C@H]2CCCN(Cc3ccco3)C2)cn1C

>  <Energy>  (6) 
121.68824029585429

>  <Genealogy>  (6) 
Cc1[nH+]cccc1-c1nc(C2CCCN(Cc3ccco3)C2)cn1C (protonated)
Cc1[nH+]cccc1-c1nc([C@H]2CCCN(Cc3ccco3)C2)cn1C (chirality)
Cc1[nH+]cccc1-c1nc([C@H]2CCCN(Cc3ccco3)C2)cn1C (3D coordinates assigned)
Cc1[nH+]cccc1-c1nc([C@H]2CCCN(Cc3ccco3)C2)cn1C (nonaromatic ring conformer: 121.68824029585429 kcal/mol)

>  <smiles>  (6) 
Cc1ncccc1-c1nc(C2CCCN(Cc3ccco3)C2)cn1C

>  <score_type>  (6) 
oracle

>  <origin>  (6) 
adg

>  <m_score__min__energy>  (6) 
-7.7999999999999998

>  <m_primary>  (6) 
energy

$$$$
6:0
     RDKit          3D

 39 42  0  0  0  0  0  0  0  0999 V2000
   55.3860   29.5430   45.2000 N   0  0  0  0  0  0  0  0  0  0  0  0
   57.0710   29.5120   44.8190 S   0  0  0  0  0  0  0  0  0  0  0  0
   57.5050   28.0930   44.5820 O   0  0  0  0  0  0  0  0  0  0  0  0
   57.3190   30.3070   43.5670 O   0  0  0  0  0  0  0  0  0  0  0  0
   57.9880   30.2020   46.1550 C   0  0  0  0  0  0  0  0  0  0  0  0
   58.1570   31.5900   46.2480 C   0  0  0  0  0  0  0  0  0  0  0  0
   58.8710   32.1410   47.3160 C   0  0  0  0  0  0  0  0  0  0  0  0
   59.4230   31.3090   48.3010 C   0  0  0  0  0  0  0  0  0  0  0  0
   60.1300   31.8770   49.4160 N   0  0  0  0  0  0  0  0  0  0  0  0
   61.2740   32.5960   49.4100 C   0  0  0  0  0  0  0  0  0  0  0  0
   62.0630   32.9510   48.2150 C   0  0  0  0  0  0  0  0  0  0  0  0
   63.3550   32.5360   47.9570 C   0  0  0  0  0  0  0  0  0  0  0  0
   63.6970   33.1080   46.7510 C   0  0  0  0  0  0  0  0  0  0  0  0
   62.5970   33.8380   46.3490 C   0  0  0  0  0  0  0  0  0  0  0  0
   61.6410   33.7250   47.2420 O   0  0  0  0  0  0  0  0  0  0  0  0
   61.5740   33.0480   50.6430 N   0  0  0  0  0  0  0  0  0  0  0  0
   60.6170   32.6270   51.4570 N   0  0  0  0  0  0  0  0  0  0  0  0
   59.7470   31.9190   50.7130 C   0  0  0  0  0  0  0  0  0  0  0  0
   58.5290   31.2960   51.2720 C   0  0  0  0  0  0  0  0  0  0  0  0
   57.3890   32.0870   51.4890 C   0  0  0  0  0  0  0  0  0  0  0  0
   56.2220   31.5180   52.0070 C   0  0  0  0  0  0  0  0  0  0  0  0
   56.1880   30.1570   52.3240 C   0  0  0  0  0  0  0  0  0  0  0  0
   54.7230   29.4450   52.9730 Cl  0  0  0  0  0  0  0  0  0  0  0  0
   57.3250   29.3670   52.1340 C   0  0  0  0  0  0  0  0  0  0  0  0
   58.4960   29.9320   51.6170 C   0  0  0  0  0  0  0  0  0  0  0  0
   59.6040   29.1570   51.5000 F   0  0  0  0  0  0  0  0  0  0  0  0
   59.2410   29.9210   48.2130 C   0  0  0  0  0  0  0  0  0  0  0  0
   58.5280   29.3710   47.1440 C   0  0  0  0  0  0  0  0  0  0  0  0
   55.1550   28.6200   45.6300 H   0  0  0  0  0  0  0  0  0  0  0  0
   57.7266   32.2477   45.4785 H   0  0  0  0  0  0  0  0  0  0  0  0
   59.0004   33.2312   47.3842 H   0  0  0  0  0  0  0  0  0  0  0  0
   63.9809   31.8842   48.5842 H   0  0  0  0  0  0  0  0  0  0  0  0
   64.6530   33.0039   46.2169 H   0  0  0  0  0  0  0  0  0  0  0  0
   62.5311   34.4254   45.4213 H   0  0  0  0  0  0  0  0  0  0  0  0
   57.4146   33.1604   51.2500 H   0  0  0  0  0  0  0  0  0  0  0  0
   55.3298   32.1417   52.1653 H   0  0  0  0  0  0  0  0  0  0  0  0
   57.2993   28.2979   52.3916 H   0  0  0  0  0  0  0  0  0  0  0  0
   59.6609   29.2630   48.9881 H   0  0  0  0  0  0  0  0  0  0  0  0
   58.3907   28.2815   47.0795 H   0  0  0  0  0  0  0  0  0  0  0  0
  1  2  1  0
  2  3  2  0
  2  4  2  0
  2  5  1  0
  5  6  2  0
  6  7  1  0
  7  8  2  0
  8  9  1  0
  9 10  1  0
 10 11  1  0
 11 12  2  0
 12 13  1  0
 13 14  2  0
 14 15  1  0
 10 16  2  0
 16 17  1  0
 17 18  2  0
 18 19  1  0
 19 20  2  0
 20 21  1  0
 21 22  2  0
 22 23  1  0
 22 24  1  0
 24 25  2  0
 25 26  1  0
  8 27  1  0
 27 28  2  0
 28  5  1  0
 18  9  1  0
 25 19  1  0
 15 11  1  0
  1 29  1  0
  6 30  1  0
  7 31  1  0
 12 32  1  0
 13 33  1  0
 14 34  1  0
 20 35  1  0
 21 36  1  0
 24 37  1  0
 27 38  1  0
 28 39  1  0
M  CHG  1   1  -1
M  END
>  <UniqueID>  (7) 
7

>  <SMILES>  (7) 
[NH-]S(=O)(=O)c1ccc(-n2c(-c3ccco3)nnc2-c2ccc(Cl)cc2F)cc1

>  <Energy>  (7) 
114.94597225445287

>  <Genealogy>  (7) 
[NH-]S(=O)(=O)c1ccc(-n2c(-c3ccco3)nnc2-c2ccc(Cl)cc2F)cc1 (protonated)
[NH-]S(=O)(=O)c1ccc(-n2c(-c3ccco3)nnc2-c2ccc(Cl)cc2F)cc1 (3D coordinates assigned)
[NH-]S(=O)(=O)c1ccc(-n2c(-c3ccco3)nnc2-c2ccc(Cl)cc2F)cc1 (optimized conformer: 114.94597225445287 kcal/mol)

>  <smiles>  (7) 
NS(=O)(=O)c1ccc(-n2c(-c3ccco3)nnc2-c2ccc(Cl)cc2F)cc1

>  <score_type>  (7) 
oracle

>  <origin>  (7) 
adg

>  <m_score__min__energy>  (7) 
-9.8800000000000008

>  <m_primary>  (7) 
energy

$$$$
7:0
     RDKit          3D

 37 40  0  0  0  0  0  0  0  0999 V2000
   57.4370   28.5570   43.8070 C   0  0  0  0  0  0  0  0  0  0  0  0
   58.4650   28.8690   44.6990 C   0  0  0  0  0  0  0  0  0  0  0  0
   58.7010   30.1980   45.0650 C   0  0  0  0  0  0  0  0  0  0  0  0
   57.9050   31.2340   44.5390 C   0  0  0  0  0  0  0  0  0  0  0  0
   58.1360   32.6510   44.9120 C   0  0  0  0  0  0  0  0  0  0  0  0
   59.0610   33.0430   45.8150 N   0  0  0  0  0  0  0  0  0  0  0  0
   58.8920   34.3820   45.8220 C   0  0  0  0  0  0  0  0  0  0  0  0
   59.6670   35.3190   46.6900 C   0  0  0  0  0  0  0  0  0  0  0  0
   60.2740   34.5840   47.7970 N   0  0  0  0  0  0  0  0  0  0  0  0
   59.6490   34.3820   49.1030 C   0  0  0  0  0  0  0  0  0  0  0  0
   60.6250   33.4890   49.9090 C   0  0  0  0  0  0  0  0  0  0  0  0
   61.7460   33.2540   48.9560 C   0  0  0  0  0  0  0  0  0  0  0  0
   62.9070   32.5060   49.1590 C   0  0  0  0  0  0  0  0  0  0  0  0
   63.8400   32.4200   48.1130 C   0  0  0  0  0  0  0  0  0  0  0  0
   63.6000   33.0810   46.8920 C   0  0  0  0  0  0  0  0  0  0  0  0
   62.4250   33.8280   46.7130 C   0  0  0  0  0  0  0  0  0  0  0  0
   61.5110   33.8920   47.7690 C   0  0  0  0  0  0  0  0  0  0  0  0
   57.9440   34.7570   44.9980 O   0  0  0  0  0  0  0  0  0  0  0  0
   57.4570   33.7060   44.4170 N   0  0  0  0  0  0  0  0  0  0  0  0
   56.8700   30.9060   43.6430 C   0  0  0  0  0  0  0  0  0  0  0  0
   56.6400   29.5760   43.2800 C   0  0  0  0  0  0  0  0  0  0  0  0
   57.2551   27.5108   43.5199 H   0  0  0  0  0  0  0  0  0  0  0  0
   59.0916   28.0665   45.1154 H   0  0  0  0  0  0  0  0  0  0  0  0
   59.5131   30.4356   45.7679 H   0  0  0  0  0  0  0  0  0  0  0  0
   60.4572   35.7990   46.0941 H   0  0  0  0  0  0  0  0  0  0  0  0
   58.9880   36.0849   47.0929 H   0  0  0  0  0  0  0  0  0  0  0  0
   59.5051   35.3468   49.6114 H   0  0  0  0  0  0  0  0  0  0  0  0
   58.6585   33.9130   49.0078 H   0  0  0  0  0  0  0  0  0  0  0  0
   60.9786   34.0080   50.8122 H   0  0  0  0  0  0  0  0  0  0  0  0
   60.1606   32.5570   50.2636 H   0  0  0  0  0  0  0  0  0  0  0  0
   63.0870   31.9955   50.1166 H   0  0  0  0  0  0  0  0  0  0  0  0
   64.7615   31.8345   48.2473 H   0  0  0  0  0  0  0  0  0  0  0  0
   64.3353   33.0115   46.0769 H   0  0  0  0  0  0  0  0  0  0  0  0
   62.2282   34.3502   45.7651 H   0  0  0  0  0  0  0  0  0  0  0  0
   56.6830   33.7210   43.7170 H   0  0  0  0  0  0  0  0  0  0  0  0
   56.2372   31.7028   43.2252 H   0  0  0  0  0  0  0  0  0  0  0  0
   55.8295   29.3312   42.5777 H   0  0  0  0  0  0  0  0  0  0  0  0
  1  2  2  0
  2  3  1  0
  3  4  2  0
  4  5  1  0
  5  6  1  0
  6  7  2  0
  7  8  1  0
  8  9  1  0
  9 10  1  0
 10 11  1  0
 11 12  1  0
 12 13  2  0
 13 14  1  0
 14 15  2  0
 15 16  1  0
 16 17  2  0
  7 18  1  0
 18 19  1  0
  4 20  1  0
 20 21  2  0
 21  1  1  0
 19  5  2  0
 17  9  1  0
 17 12  1  0
  1 22  1  0
  2 23  1  0
  3 24  1  0
  8 25  1  0
  8 26  1  0
 10 27  1  0
 10 28  1  0
 11 29  1  0
 11 30  1  0
 13 31  1  0
 14 32  1  0
 15 33  1  0
 16 34  1  0
 19 35  1  0
 20 36  1  0
 21 37  1  0
M  CHG  1  19   1
M  END
>  <UniqueID>  (8) 
8

>  <SMILES>  (8) 
c1ccc(-c2nc(CN3CCc4ccccc43)o[nH+]2)cc1

>  <Energy>  (8) 
87.62109800624194

>  <Genealogy>  (8) 
c1ccc(-c2nc(CN3CCc4ccccc43)o[nH+]2)cc1 (protonated)
c1ccc(-c2nc(CN3CCc4ccccc43)o[nH+]2)cc1 (3D coordinates assigned)
c1ccc(-c2nc(CN3CCc4ccccc43)o[nH+]2)cc1 (nonaromatic ring conformer: 87.62109800624194 kcal/mol)

>  <smiles>  (8) 
c1ccc(-c2noc(CN3CCc4ccccc43)n2)cc1

>  <score_type>  (8) 
oracle

>  <origin>  (8) 
adg

>  <m_score__min__energy>  (8) 
-6.46

>  <m_primary>  (8) 
energy

$$$$
8:0
     RDKit          3D

 54 56  0  0  0  0  0  0  0  0999 V2000
   67.5040   28.4900   50.8160 C   0  0  0  0  0  0  0  0  0  0  0  0
   67.4860   29.7380   51.6990 C   0  0  0  0  0  0  0  0  0  0  0  0
   66.4550   30.6920   51.2510 N   0  0  0  0  0  0  0  0  0  0  0  0
   66.7740   32.0810   51.6490 C   0  0  0  0  0  0  0  0  0  0  0  0
   66.1860   33.1370   50.6930 C   0  0  0  0  0  0  0  0  0  0  0  0
   65.4720   32.5350   49.6110 O   0  0  0  0  0  0  0  0  0  0  0  0
   64.2270   32.9490   49.1100 C   0  0  0  0  0  0  0  0  0  0  0  0
   64.1360   33.2460   47.7470 C   0  0  0  0  0  0  0  0  0  0  0  0
   62.9060   33.5670   47.1680 C   0  0  0  0  0  0  0  0  0  0  0  0
   61.7400   33.6000   47.9530 C   0  0  0  0  0  0  0  0  0  0  0  0
   61.8420   33.3930   49.3410 C   0  0  0  0  0  0  0  0  0  0  0  0
   63.0790   33.0690   49.9150 C   0  0  0  0  0  0  0  0  0  0  0  0
   60.6720   33.5190   50.1640 N   0  0  0  0  0  0  0  0  0  0  0  0
   59.3590   33.8150   49.5890 C   0  0  0  0  0  0  0  0  0  0  0  0
   59.5110   34.5800   48.2700 C   0  0  0  0  0  0  0  0  0  0  0  0
   60.4340   33.8470   47.3820 N   0  0  0  0  0  0  0  0  0  0  0  0
   60.1040   33.3630   46.0090 C   0  0  0  0  0  0  0  0  0  0  0  0
   59.0030   34.1550   45.2650 C   0  0  0  0  0  0  0  0  0  0  0  0
   57.5780   33.8430   45.7740 C   0  0  0  0  0  0  0  0  0  0  0  0
   57.2820   32.3970   45.8270 N   0  0  0  0  0  0  0  0  0  0  0  0
   56.9970   31.8270   44.4980 C   0  0  0  0  0  0  0  0  0  0  0  0
   58.3110   31.6420   46.5690 C   0  0  0  0  0  0  0  0  0  0  0  0
   59.7210   31.8650   46.0110 C   0  0  0  0  0  0  0  0  0  0  0  0
   67.5170   27.5918   51.4509 H   0  0  0  0  0  0  0  0  0  0  0  0
   66.6059   28.4772   50.1809 H   0  0  0  0  0  0  0  0  0  0  0  0
   68.4020   28.5031   50.1809 H   0  0  0  0  0  0  0  0  0  0  0  0
   67.2734   29.4407   52.7365 H   0  0  0  0  0  0  0  0  0  0  0  0
   68.4683   30.2282   51.6301 H   0  0  0  0  0  0  0  0  0  0  0  0
   65.5500   30.4170   51.7000 H   0  0  0  0  0  0  0  0  0  0  0  0
   66.3120   30.6240   50.2180 H   0  0  0  0  0  0  0  0  0  0  0  0
   66.3693   32.2576   52.6565 H   0  0  0  0  0  0  0  0  0  0  0  0
   67.8685   32.1863   51.6189 H   0  0  0  0  0  0  0  0  0  0  0  0
   65.4982   33.7842   51.2570 H   0  0  0  0  0  0  0  0  0  0  0  0
   67.0194   33.7180   50.2712 H   0  0  0  0  0  0  0  0  0  0  0  0
   65.0424   33.2267   47.1240 H   0  0  0  0  0  0  0  0  0  0  0  0
   62.8494   33.7949   46.0934 H   0  0  0  0  0  0  0  0  0  0  0  0
   63.1528   32.9077   51.0006 H   0  0  0  0  0  0  0  0  0  0  0  0
   60.7280   33.2970   51.1840 H   0  0  0  0  0  0  0  0  0  0  0  0
   58.8251   32.8718   49.4010 H   0  0  0  0  0  0  0  0  0  0  0  0
   58.7922   34.4367   50.2976 H   0  0  0  0  0  0  0  0  0  0  0  0
   58.5287   34.6715   47.7834 H   0  0  0  0  0  0  0  0  0  0  0  0
   59.9141   35.5834   48.4715 H   0  0  0  0  0  0  0  0  0  0  0  0
   61.0378   33.5307   45.4524 H   0  0  0  0  0  0  0  0  0  0  0  0
   59.1945   35.2298   45.3993 H   0  0  0  0  0  0  0  0  0  0  0  0
   59.0444   33.8564   44.2071 H   0  0  0  0  0  0  0  0  0  0  0  0
   57.4696   34.2593   46.7864 H   0  0  0  0  0  0  0  0  0  0  0  0
   56.8709   34.2952   45.0630 H   0  0  0  0  0  0  0  0  0  0  0  0
   56.5079   30.8488   44.6158 H   0  0  0  0  0  0  0  0  0  0  0  0
   56.3319   32.5051   43.9432 H   0  0  0  0  0  0  0  0  0  0  0  0
   57.9385   31.7017   43.9432 H   0  0  0  0  0  0  0  0  0  0  0  0
   58.2934   31.9627   47.6211 H   0  0  0  0  0  0  0  0  0  0  0  0
   58.0775   30.5718   46.4677 H   0  0  0  0  0  0  0  0  0  0  0  0
   60.4418   31.3134   46.6324 H   0  0  0  0  0  0  0  0  0  0  0  0
   59.7400   31.5044   44.9719 H   0  0  0  0  0  0  0  0  0  0  0  0
  1  2  1  0
  2  3  1  0
  3  4  1  0
  4  5  1  0
  5  6  1  0
  6  7  1  0
  7  8  2  0
  8  9  1  0
  9 10  2  0
 10 11  1  0
 11 12  2  0
 11 13  1  0
 13 14  1  0
 14 15  1  0
 15 16  1  0
 16 17  1  0
 17 18  1  0
 18 19  1  0
 19 20  1  0
 20 21  1  0
 20 22  1  0
 22 23  1  0
 12  7  1  0
 23 17  1  0
 16 10  1  0
  1 24  1  0
  1 25  1  0
  1 26  1  0
  2 27  1  0
  2 28  1  0
  3 29  1  0
  3 30  1  0
  4 31  1  0
  4 32  1  0
  5 33  1  0
  5 34  1  0
  8 35  1  0
  9 36  1  0
 12 37  1  0
 13 38  1  0
 14 39  1  0
 14 40  1  0
 15 41  1  0
 15 42  1  0
 17 43  1  0
 18 44  1  0
 18 45  1  0
 19 46  1  0
 19 47  1  0
 21 48  1  0
 21 49  1  0
 21 50  1  0
 22 51  1  0
 22 52  1  0
 23 53  1  0
 23 54  1  0
M  CHG  1   3   1
M  END
>  <UniqueID>  (9) 
9

>  <SMILES>  (9) 
CC[NH2+]CCOc1ccc2c(c1)NCCN2C1CCN(C)CC1

>  <Energy>  (9) 
62.5505793200294

>  <Genealogy>  (9) 
CC[NH2+]CCOc1ccc2c(c1)NCCN2C1CCN(C)CC1 (protonated)
CC[NH2+]CCOc1ccc2c(c1)NCCN2C1CCN(C)CC1 (3D coordinates assigned)
CC[NH2+]CCOc1ccc2c(c1)NCCN2C1CCN(C)CC1 (nonaromatic ring conformer: 62.5505793200294 kcal/mol)

>  <smiles>  (9) 
CCNCCOc1ccc2c(c1)NCCN2C1CCN(C)CC1

>  <score_type>  (9) 
oracle

>  <origin>  (9) 
adg

>  <m_score__min__energy>  (9) 
-5.54

>  <m_primary>  (9) 
energy

$$$$
9:0
     RDKit          3D

 41 42  0  0  0  0  0  0  0  0999 V2000
   61.6270   31.6770   49.0590 C   0  0  0  0  0  0  0  0  0  0  0  0
   61.3380   32.4090   47.7990 N   0  0  0  0  0  0  0  0  0  0  0  0
   62.5970   33.0370   47.3180 C   0  0  0  0  0  0  0  0  0  0  0  0
   60.7710   31.4810   46.7660 C   0  0  0  0  0  0  0  0  0  0  0  0
   59.7630   30.4240   47.2810 C   0  0  0  0  0  0  0  0  0  0  0  0
   59.3260   29.5540   46.2360 O   0  0  0  0  0  0  0  0  0  0  0  0
   58.2830   29.8170   45.3330 C   0  0  0  0  0  0  0  0  0  0  0  0
   57.0350   29.1650   45.3960 C   0  0  0  0  0  0  0  0  0  0  0  0
   56.0350   29.4700   44.4670 C   0  0  0  0  0  0  0  0  0  0  0  0
   56.2670   30.4230   43.4720 C   0  0  0  0  0  0  0  0  0  0  0  0
   57.5000   31.0770   43.4060 C   0  0  0  0  0  0  0  0  0  0  0  0
   57.7920   32.2750   42.1580 Cl  0  0  0  0  0  0  0  0  0  0  0  0
   58.5030   30.7750   44.3340 C   0  0  0  0  0  0  0  0  0  0  0  0
   60.3330   33.4720   48.1270 C   0  0  0  0  0  0  0  0  0  0  0  0
   59.3100   33.7360   47.0350 C   0  0  0  0  0  0  0  0  0  0  0  0
   59.6750   34.4430   45.8750 C   0  0  0  0  0  0  0  0  0  0  0  0
   58.7340   34.6800   44.8680 C   0  0  0  0  0  0  0  0  0  0  0  0
   57.4270   34.2050   45.0030 C   0  0  0  0  0  0  0  0  0  0  0  0
   57.0590   33.4890   46.1450 C   0  0  0  0  0  0  0  0  0  0  0  0
   57.9970   33.2490   47.1550 C   0  0  0  0  0  0  0  0  0  0  0  0
   61.3753   32.3145   49.9194 H   0  0  0  0  0  0  0  0  0  0  0  0
   61.0244   30.7574   49.0953 H   0  0  0  0  0  0  0  0  0  0  0  0
   62.6952   31.4171   49.0953 H   0  0  0  0  0  0  0  0  0  0  0  0
   63.2077   33.3416   48.1807 H   0  0  0  0  0  0  0  0  0  0  0  0
   63.1583   32.3133   46.7087 H   0  0  0  0  0  0  0  0  0  0  0  0
   62.3565   33.9207   46.7087 H   0  0  0  0  0  0  0  0  0  0  0  0
   60.2590   32.0931   46.0089 H   0  0  0  0  0  0  0  0  0  0  0  0
   61.6277   30.9093   46.3796 H   0  0  0  0  0  0  0  0  0  0  0  0
   60.2467   29.8233   48.0654 H   0  0  0  0  0  0  0  0  0  0  0  0
   58.8832   30.9541   47.6747 H   0  0  0  0  0  0  0  0  0  0  0  0
   56.8470   28.4144   46.1778 H   0  0  0  0  0  0  0  0  0  0  0  0
   55.0629   28.9580   44.5199 H   0  0  0  0  0  0  0  0  0  0  0  0
   55.4794   30.6583   42.7410 H   0  0  0  0  0  0  0  0  0  0  0  0
   59.4715   31.2935   44.2789 H   0  0  0  0  0  0  0  0  0  0  0  0
   59.7935   33.1652   49.0352 H   0  0  0  0  0  0  0  0  0  0  0  0
   60.8991   34.4064   48.2553 H   0  0  0  0  0  0  0  0  0  0  0  0
   60.7051   34.8111   45.7595 H   0  0  0  0  0  0  0  0  0  0  0  0
   59.0235   35.2417   43.9676 H   0  0  0  0  0  0  0  0  0  0  0  0
   56.6880   34.3946   44.2106 H   0  0  0  0  0  0  0  0  0  0  0  0
   56.0304   33.1135   46.2501 H   0  0  0  0  0  0  0  0  0  0  0  0
   57.7054   32.6762   48.0476 H   0  0  0  0  0  0  0  0  0  0  0  0
  1  2  1  0
  2  3  1  0
  2  4  1  0
  4  5  1  0
  5  6  1  0
  6  7  1  0
  7  8  2  0
  8  9  1  0
  9 10  2  0
 10 11  1  0
 11 12  1  0
 11 13  2  0
  2 14  1  0
 14 15  1  0
 15 16  2  0
 16 17  1  0
 17 18  2  0
 18 19  1  0
 19 20  2  0
 13  7  1  0
 20 15  1  0
  1 21  1  0
  1 22  1  0
  1 23  1  0
  3 24  1  0
  3 25  1  0
  3 26  1  0
  4 27  1  0
  4 28  1  0
  5 29  1  0
  5 30  1  0
  8 31  1  0
  9 32  1  0
 10 33  1  0
 13 34  1  0
 14 35  1  0
 14 36  1  0
 16 37  1  0
 17 38  1  0
 18 39  1  0
 19 40  1  0
 20 41  1  0
M  CHG  1   2   1
M  END
>  <UniqueID>  (10) 
10

>  <SMILES>  (10) 
C[N+](C)(CCOc1cccc(Cl)c1)Cc1ccccc1

>  <Energy>  (10) 
51.88511562421781

>  <Genealogy>  (10) 
C[N+](C)(CCOc1cccc(Cl)c1)Cc1ccccc1 (3D coordinates assigned)
C[N+](C)(CCOc1cccc(Cl)c1)Cc1ccccc1 (optimized conformer: 51.88511562421781 kcal/mol)

>  <smiles>  (10) 
C[N+](C)(CCOc1cccc(Cl)c1)Cc1ccccc1

>  <score_type>  (10) 
oracle

>  <origin>  (10) 
adg

>  <m_score__min__energy>  (10) 
-5.2000000000000002

>  <m_primary>  (10) 
energy

$$$$
10:0
     RDKit          3D

 30 31  0  0  0  0  0  0  0  0999 V2000
   59.6460   34.9570   46.0080 C   0  0  0  0  0  0  0  0  0  0  0  0
   58.6540   34.2760   46.0770 C   0  0  0  0  0  0  0  0  0  0  0  0
   57.4470   33.4450   46.1620 C   0  0  0  0  0  0  0  0  0  0  0  0
   57.2680   32.5700   44.9080 C   0  0  0  0  0  0  0  0  0  0  0  0
   58.4700   31.7870   44.5650 N   0  0  0  0  0  0  0  0  0  0  0  0
   58.4100   30.4480   45.1040 C   0  0  0  0  0  0  0  0  0  0  0  0
   59.5550   29.8510   45.6610 C   0  0  0  0  0  0  0  0  0  0  0  0
   59.4920   28.5630   46.2000 C   0  0  0  0  0  0  0  0  0  0  0  0
   58.2890   27.8440   46.1740 C   0  0  0  0  0  0  0  0  0  0  0  0
   57.1370   28.4400   45.6260 C   0  0  0  0  0  0  0  0  0  0  0  0
   57.2000   29.7330   45.0960 C   0  0  0  0  0  0  0  0  0  0  0  0
   55.9010   27.7200   45.6000 N   0  0  0  0  0  0  0  0  0  0  0  0
   55.8610   26.3350   45.9480 C   0  0  0  0  0  0  0  0  0  0  0  0
   54.7570   25.7300   45.9910 O   0  0  0  0  0  0  0  0  0  0  0  0
   57.1440   25.5900   46.1790 C   0  0  0  0  0  0  0  0  0  0  0  0
   58.1910   26.4940   46.8450 C   0  0  0  0  0  0  0  0  0  0  0  0
   60.5514   35.5785   45.9450 H   0  0  0  0  0  0  0  0  0  0  0  0
   57.5251   32.7922   47.0439 H   0  0  0  0  0  0  0  0  0  0  0  0
   56.5763   34.1125   46.2412 H   0  0  0  0  0  0  0  0  0  0  0  0
   56.4360   31.8725   45.0851 H   0  0  0  0  0  0  0  0  0  0  0  0
   57.0694   33.2474   44.0644 H   0  0  0  0  0  0  0  0  0  0  0  0
   58.5370   31.7250   43.5230 H   0  0  0  0  0  0  0  0  0  0  0  0
   59.3330   32.2810   44.8930 H   0  0  0  0  0  0  0  0  0  0  0  0
   60.5071   30.4017   45.6726 H   0  0  0  0  0  0  0  0  0  0  0  0
   60.3903   28.1116   46.6465 H   0  0  0  0  0  0  0  0  0  0  0  0
   56.2963   30.1934   44.6700 H   0  0  0  0  0  0  0  0  0  0  0  0
   56.9465   24.7267   46.8314 H   0  0  0  0  0  0  0  0  0  0  0  0
   57.5359   25.2559   45.2070 H   0  0  0  0  0  0  0  0  0  0  0  0
   57.9126   26.6416   47.8989 H   0  0  0  0  0  0  0  0  0  0  0  0
   59.1698   26.0002   46.7549 H   0  0  0  0  0  0  0  0  0  0  0  0
  1  2  3  0
  2  3  1  0
  3  4  1  0
  4  5  1  0
  5  6  1  0
  6  7  2  0
  7  8  1  0
  8  9  2  0
  9 10  1  0
 10 11  2  0
 10 12  1  0
 12 13  1  0
 13 14  2  0
 13 15  1  0
 15 16  1  0
 11  6  1  0
 16  9  1  0
  1 17  1  0
  3 18  1  0
  3 19  1  0
  4 20  1  0
  4 21  1  0
  5 22  1  0
  5 23  1  0
  7 24  1  0
  8 25  1  0
 11 26  1  0
 15 27  1  0
 15 28  1  0
 16 29  1  0
 16 30  1  0
M  CHG  2   5   1  12  -1
M  END
>  <UniqueID>  (11) 
11

>  <SMILES>  (11) 
C#CCC[NH2+]c1ccc2c(c1)[N-]C(=O)CC2

>  <Energy>  (11) 
27.317513524203253

>  <Genealogy>  (11) 
C#CCC[NH2+]c1ccc2c(c1)[N-]C(=O)CC2 (protonated)
C#CCC[NH2+]c1ccc2c(c1)[N-]C(=O)CC2 (3D coordinates assigned)
C#CCC[NH2+]c1ccc2c(c1)[N-]C(=O)CC2 (nonaromatic ring conformer: 27.317513524203253 kcal/mol)

>  <smiles>  (11) 
C#CCCNc1ccc2c(c1)NC(=O)CC2

>  <score_type>  (11) 
oracle

>  <origin>  (11) 
adg

>  <m_score__min__energy>  (11) 
-6.6600000000000001

>  <m_primary>  (11) 
energy

$$$$
11:0
     RDKit          3D

 44 47  0  0  0  0  0  0  0  0999 V2000
   56.9510   30.8710   43.6840 C   0  0  0  0  0  0  0  0  0  0  0  0
   56.8380   31.6320   44.8830 O   0  0  0  0  0  0  0  0  0  0  0  0
   57.8550   32.4460   45.4070 C   0  0  0  0  0  0  0  0  0  0  0  0
   57.7870   33.8520   45.3580 C   0  0  0  0  0  0  0  0  0  0  0  0
   58.8080   34.6290   45.9130 C   0  0  0  0  0  0  0  0  0  0  0  0
   59.9030   34.0150   46.5210 C   0  0  0  0  0  0  0  0  0  0  0  0
   59.9850   32.6230   46.5720 C   0  0  0  0  0  0  0  0  0  0  0  0
   58.9710   31.8340   46.0110 C   0  0  0  0  0  0  0  0  0  0  0  0
   59.0770   30.4030   46.0640 N   0  0  0  0  0  0  0  0  0  0  0  0
   58.1510   29.6410   46.9100 C   0  0  0  0  0  0  0  0  0  0  0  0
   58.4280   28.1340   46.8360 C   0  0  0  0  0  0  0  0  0  0  0  0
   58.5990   27.7030   45.4380 N   0  0  0  0  0  0  0  0  0  0  0  0
   58.1480   26.3890   45.0350 C   0  0  0  0  0  0  0  0  0  0  0  0
   57.7750   26.1130   43.7100 C   0  0  0  0  0  0  0  0  0  0  0  0
   57.3490   24.8310   43.3700 C   0  0  0  0  0  0  0  0  0  0  0  0
   57.2990   23.8400   44.3560 C   0  0  0  0  0  0  0  0  0  0  0  0
   56.8540   22.4700   44.0420 C   0  0  0  0  0  0  0  0  0  0  0  0
   57.0450   21.3530   44.8280 C   0  0  0  0  0  0  0  0  0  0  0  0
   56.4560   20.3370   44.1080 C   0  0  0  0  0  0  0  0  0  0  0  0
   55.9690   20.8410   42.9980 O   0  0  0  0  0  0  0  0  0  0  0  0
   56.1890   22.1220   42.9220 N   0  0  0  0  0  0  0  0  0  0  0  0
   57.6680   24.1570   45.6260 N   0  0  0  0  0  0  0  0  0  0  0  0
   58.0760   25.3840   45.9520 N   0  0  0  0  0  0  0  0  0  0  0  0
   59.3780   28.5370   44.5040 C   0  0  0  0  0  0  0  0  0  0  0  0
   60.0520   29.7120   45.2180 C   0  0  0  0  0  0  0  0  0  0  0  0
   57.1083   29.8117   43.9355 H   0  0  0  0  0  0  0  0  0  0  0  0
   56.0276   30.9749   43.0954 H   0  0  0  0  0  0  0  0  0  0  0  0
   57.8044   31.2387   43.0954 H   0  0  0  0  0  0  0  0  0  0  0  0
   56.9255   34.3415   44.8803 H   0  0  0  0  0  0  0  0  0  0  0  0
   58.7478   35.7265   45.8702 H   0  0  0  0  0  0  0  0  0  0  0  0
   60.7028   34.6289   46.9608 H   0  0  0  0  0  0  0  0  0  0  0  0
   60.8490   32.1426   47.0545 H   0  0  0  0  0  0  0  0  0  0  0  0
   58.2637   29.9739   47.9524 H   0  0  0  0  0  0  0  0  0  0  0  0
   57.1278   29.8208   46.5485 H   0  0  0  0  0  0  0  0  0  0  0  0
   59.3460   27.9078   47.3982 H   0  0  0  0  0  0  0  0  0  0  0  0
   57.5720   27.5959   47.2693 H   0  0  0  0  0  0  0  0  0  0  0  0
   57.8188   26.9032   42.9460 H   0  0  0  0  0  0  0  0  0  0  0  0
   57.0546   24.6001   42.3356 H   0  0  0  0  0  0  0  0  0  0  0  0
   57.5501   21.2884   45.8030 H   0  0  0  0  0  0  0  0  0  0  0  0
   56.4027   19.2812   44.4120 H   0  0  0  0  0  0  0  0  0  0  0  0
   60.1530   27.9148   44.0326 H   0  0  0  0  0  0  0  0  0  0  0  0
   58.6869   28.9449   43.7517 H   0  0  0  0  0  0  0  0  0  0  0  0
   60.8758   29.3360   45.8424 H   0  0  0  0  0  0  0  0  0  0  0  0
   60.4458   30.4148   44.4690 H   0  0  0  0  0  0  0  0  0  0  0  0
  1  2  1  0
  2  3  1  0
  3  4  2  0
  4  5  1  0
  5  6  2  0
  6  7  1  0
  7  8  2  0
  8  9  1  0
  9 10  1  0
 10 11  1  0
 11 12  1  0
 12 13  1  0
 13 14  2  0
 14 15  1  0
 15 16  2  0
 16 17  1  0
 17 18  1  0
 18 19  2  0
 19 20  1  0
 20 21  1  0
 16 22  1  0
 22 23  2  0
 12 24  1  0
 24 25  1  0
  8  3  1  0
 25  9  1  0
 23 13  1  0
 21 17  2  0
  1 26  1  0
  1 27  1  0
  1 28  1  0
  4 29  1  0
  5 30  1  0
  6 31  1  0
  7 32  1  0
 10 33  1  0
 10 34  1  0
 11 35  1  0
 11 36  1  0
 14 37  1  0
 15 38  1  0
 18 39  1  0
 19 40  1  0
 24 41  1  0
 24 42  1  0
 25 43  1  0
 25 44  1  0
M  END
>  <UniqueID>  (12) 
12

>  <SMILES>  (12) 
COc1ccccc1N1CCN(c2ccc(-c3ccon3)nn2)CC1

>  <Energy>  (12) 
85.55235751333355

>  <Genealogy>  (12) 
COc1ccccc1N1CCN(c2ccc(-c3ccon3)nn2)CC1 (3D coordinates assigned)
COc1ccccc1N1CCN(c2ccc(-c3ccon3)nn2)CC1 (nonaromatic ring conformer: 85.55235751333355 kcal/mol)

>  <smiles>  (12) 
COc1ccccc1N1CCN(c2ccc(-c3ccon3)nn2)CC1

>  <score_type>  (12) 
oracle

>  <origin>  (12) 
adg

>  <m_score__min__energy>  (12) 
-8.2599999999999998

>  <m_primary>  (12) 
energy

$$$$
12:0
     RDKit          3D

 40 42  0  0  0  0  0  0  0  0999 V2000
   56.4410   30.2130   52.7510 C   0  0  0  0  0  0  0  0  0  0  0  0
   57.2580   29.7740   51.6710 O   0  0  0  0  0  0  0  0  0  0  0  0
   58.0880   30.6130   50.9150 C   0  0  0  0  0  0  0  0  0  0  0  0
   58.0840   31.9820   51.1980 C   0  0  0  0  0  0  0  0  0  0  0  0
   58.8970   32.8610   50.4770 C   0  0  0  0  0  0  0  0  0  0  0  0
   59.7390   32.3830   49.4590 C   0  0  0  0  0  0  0  0  0  0  0  0
   60.6180   33.3000   48.6870 C   0  0  0  0  0  0  0  0  0  0  0  0
   61.0800   34.3290   49.2490 O   0  0  0  0  0  0  0  0  0  0  0  0
   60.9830   33.0520   47.2450 C   0  0  0  0  0  0  0  0  0  0  0  0
   59.8220   33.1900   46.3560 N   0  0  0  0  0  0  0  0  0  0  0  0
   59.2110   34.3440   45.9610 C   0  0  0  0  0  0  0  0  0  0  0  0
   59.6460   35.7190   46.3710 C   0  0  0  0  0  0  0  0  0  0  0  0
   58.1120   34.1190   45.1990 N   0  0  0  0  0  0  0  0  0  0  0  0
   58.0190   32.7810   45.1350 C   0  0  0  0  0  0  0  0  0  0  0  0
   57.0380   32.0220   44.5040 C   0  0  0  0  0  0  0  0  0  0  0  0
   57.1140   30.6130   44.6120 C   0  0  0  0  0  0  0  0  0  0  0  0
   56.1290   29.7780   43.9750 N   0  0  0  0  0  0  0  0  0  0  0  0
   55.1530   29.3410   44.6180 O   0  0  0  0  0  0  0  0  0  0  0  0
   56.2420   29.4570   42.6420 O   0  0  0  0  0  0  0  0  0  0  0  0
   58.1690   30.0290   45.3630 C   0  0  0  0  0  0  0  0  0  0  0  0
   59.1380   30.8300   45.9950 C   0  0  0  0  0  0  0  0  0  0  0  0
   59.0380   32.2140   45.8450 C   0  0  0  0  0  0  0  0  0  0  0  0
   59.7360   31.0070   49.1700 C   0  0  0  0  0  0  0  0  0  0  0  0
   58.9200   30.1290   49.8890 C   0  0  0  0  0  0  0  0  0  0  0  0
   56.9236   29.9537   53.7048 H   0  0  0  0  0  0  0  0  0  0  0  0
   56.3092   31.3034   52.6913 H   0  0  0  0  0  0  0  0  0  0  0  0
   55.4589   29.7211   52.6913 H   0  0  0  0  0  0  0  0  0  0  0  0
   57.4346   32.3712   51.9960 H   0  0  0  0  0  0  0  0  0  0  0  0
   58.8774   33.9362   50.7086 H   0  0  0  0  0  0  0  0  0  0  0  0
   61.7513   33.7787   46.9423 H   0  0  0  0  0  0  0  0  0  0  0  0
   61.3576   32.0213   47.1600 H   0  0  0  0  0  0  0  0  0  0  0  0
   59.6668   35.7849   47.4688 H   0  0  0  0  0  0  0  0  0  0  0  0
   60.6515   35.9196   45.9725 H   0  0  0  0  0  0  0  0  0  0  0  0
   58.9388   36.4614   45.9725 H   0  0  0  0  0  0  0  0  0  0  0  0
   57.4610   34.8240   44.7830 H   0  0  0  0  0  0  0  0  0  0  0  0
   56.2270   32.5033   43.9377 H   0  0  0  0  0  0  0  0  0  0  0  0
   58.2293   28.9342   45.4518 H   0  0  0  0  0  0  0  0  0  0  0  0
   59.9479   30.3801   46.5879 H   0  0  0  0  0  0  0  0  0  0  0  0
   60.3825   30.6174   48.3698 H   0  0  0  0  0  0  0  0  0  0  0  0
   58.9284   29.0550   49.6516 H   0  0  0  0  0  0  0  0  0  0  0  0
  1  2  1  0
  2  3  1  0
  3  4  2  0
  4  5  1  0
  5  6  2  0
  6  7  1  0
  7  8  2  0
  7  9  1  0
  9 10  1  0
 10 11  1  0
 11 12  1  0
 11 13  2  0
 13 14  1  0
 14 15  2  0
 15 16  1  0
 16 17  1  0
 17 18  2  0
 17 19  1  0
 16 20  2  0
 20 21  1  0
 21 22  2  0
  6 23  1  0
 23 24  2  0
 24  3  1  0
 22 10  1  0
 22 14  1  0
  1 25  1  0
  1 26  1  0
  1 27  1  0
  4 28  1  0
  5 29  1  0
  9 30  1  0
  9 31  1  0
 12 32  1  0
 12 33  1  0
 12 34  1  0
 13 35  1  0
 15 36  1  0
 20 37  1  0
 21 38  1  0
 23 39  1  0
 24 40  1  0
M  CHG  3  13   1  17   1  19  -1
M  END
>  <UniqueID>  (13) 
13

>  <SMILES>  (13) 
COc1ccc(C(=O)Cn2c(C)[nH+]c3cc([N+](=O)[O-])ccc32)cc1

>  <Energy>  (13) 
81.87542593419602

>  <Genealogy>  (13) 
COc1ccc(C(=O)Cn2c(C)[nH+]c3cc([N+](=O)[O-])ccc32)cc1 (protonated)
COc1ccc(C(=O)Cn2c(C)[nH+]c3cc([N+](=O)[O-])ccc32)cc1 (3D coordinates assigned)
COc1ccc(C(=O)Cn2c(C)[nH+]c3cc([N+](=O)[O-])ccc32)cc1 (optimized conformer: 81.87542593419602 kcal/mol)

>  <smiles>  (13) 
COc1ccc(C(=O)Cn2c(C)nc3cc([N+](=O)[O-])ccc32)cc1

>  <score_type>  (13) 
oracle

>  <origin>  (13) 
adg

>  <m_score__min__energy>  (13) 
-6.0599999999999996

>  <m_primary>  (13) 
energy

$$$$
13:0
     RDKit          3D

 49 52  0  0  0  0  0  0  0  0999 V2000
   59.3460   30.2380   48.2730 C   0  0  0  0  0  0  0  0  0  0  0  0
   59.8260   31.0010   47.1720 O   0  0  0  0  0  0  0  0  0  0  0  0
   61.0070   31.7590   47.1800 C   0  0  0  0  0  0  0  0  0  0  0  0
   62.2520   31.1970   47.5250 C   0  0  0  0  0  0  0  0  0  0  0  0
   63.4120   31.9730   47.4920 C   0  0  0  0  0  0  0  0  0  0  0  0
   63.3460   33.3150   47.1130 C   0  0  0  0  0  0  0  0  0  0  0  0
   62.1190   33.8860   46.7730 C   0  0  0  0  0  0  0  0  0  0  0  0
   60.9430   33.1190   46.8140 C   0  0  0  0  0  0  0  0  0  0  0  0
   59.6860   33.7170   46.4540 N   0  0  0  0  0  0  0  0  0  0  0  0
   59.6290   34.7100   45.3780 C   0  0  0  0  0  0  0  0  0  0  0  0
   58.1940   34.8390   44.8420 C   0  0  0  0  0  0  0  0  0  0  0  0
   57.4680   33.5500   44.8880 N   0  0  0  0  0  0  0  0  0  0  0  0
   58.0510   32.5010   44.0160 C   0  0  0  0  0  0  0  0  0  0  0  0
   57.1210   31.2880   43.8790 C   0  0  0  0  0  0  0  0  0  0  0  0
   57.7470   30.0990   44.4830 N   0  0  0  0  0  0  0  0  0  0  0  0
   59.1190   30.0140   44.5060 C   0  0  0  0  0  0  0  0  0  0  0  0
   59.7450   28.9510   45.0840 N   0  0  0  0  0  0  0  0  0  0  0  0
   59.0120   27.9650   45.6560 C   0  0  0  0  0  0  0  0  0  0  0  0
   59.5430   26.8430   46.2750 C   0  0  0  0  0  0  0  0  0  0  0  0
   58.2380   25.9320   46.8310 S   0  0  0  0  0  0  0  0  0  0  0  0
   57.0060   26.9480   46.2940 C   0  0  0  0  0  0  0  0  0  0  0  0
   57.6180   28.0270   45.6630 C   0  0  0  0  0  0  0  0  0  0  0  0
   56.9840   29.1180   45.0690 C   0  0  0  0  0  0  0  0  0  0  0  0
   55.7240   29.1980   45.0820 O   0  0  0  0  0  0  0  0  0  0  0  0
   57.2940   33.0750   46.2860 C   0  0  0  0  0  0  0  0  0  0  0  0
   58.4730   33.4260   47.2220 C   0  0  0  0  0  0  0  0  0  0  0  0
   59.6496   30.7206   49.2137 H   0  0  0  0  0  0  0  0  0  0  0  0
   58.2484   30.1800   48.2282 H   0  0  0  0  0  0  0  0  0  0  0  0
   59.7689   29.2235   48.2282 H   0  0  0  0  0  0  0  0  0  0  0  0
   62.3104   30.1396   47.8224 H   0  0  0  0  0  0  0  0  0  0  0  0
   64.3795   31.5264   47.7650 H   0  0  0  0  0  0  0  0  0  0  0  0
   64.2622   33.9229   47.0824 H   0  0  0  0  0  0  0  0  0  0  0  0
   62.0725   34.9428   46.4712 H   0  0  0  0  0  0  0  0  0  0  0  0
   59.9596   35.6846   45.7665 H   0  0  0  0  0  0  0  0  0  0  0  0
   60.2877   34.3860   44.5588 H   0  0  0  0  0  0  0  0  0  0  0  0
   57.6510   35.5746   45.4536 H   0  0  0  0  0  0  0  0  0  0  0  0
   58.2508   35.1601   43.7915 H   0  0  0  0  0  0  0  0  0  0  0  0
   58.2290   32.9271   43.0176 H   0  0  0  0  0  0  0  0  0  0  0  0
   58.9906   32.1598   44.4751 H   0  0  0  0  0  0  0  0  0  0  0  0
   56.1706   31.4986   44.3913 H   0  0  0  0  0  0  0  0  0  0  0  0
   56.9364   31.0947   42.8120 H   0  0  0  0  0  0  0  0  0  0  0  0
   59.7197   30.8155   44.0513 H   0  0  0  0  0  0  0  0  0  0  0  0
   60.7900   28.9050   45.0880 H   0  0  0  0  0  0  0  0  0  0  0  0
   60.6094   26.5955   46.3823 H   0  0  0  0  0  0  0  0  0  0  0  0
   55.9247   26.7890   46.4183 H   0  0  0  0  0  0  0  0  0  0  0  0
   56.3804   33.5312   46.6949 H   0  0  0  0  0  0  0  0  0  0  0  0
   57.2378   31.9772   46.2438 H   0  0  0  0  0  0  0  0  0  0  0  0
   58.2060   34.3093   47.8207 H   0  0  0  0  0  0  0  0  0  0  0  0
   58.6707   32.5628   47.8745 H   0  0  0  0  0  0  0  0  0  0  0  0
  1  2  1  0
  2  3  1  0
  3  4  2  0
  4  5  1  0
  5  6  2  0
  6  7  1  0
  7  8  2  0
  8  9  1  0
  9 10  1  0
 10 11  1  0
 11 12  1  0
 12 13  1  0
 13 14  1  0
 14 15  1  0
 15 16  1  0
 16 17  2  0
 17 18  1  0
 18 19  2  0
 19 20  1  0
 20 21  1  0
 21 22  2  0
 22 23  1  0
 23 24  2  0
 12 25  1  0
 25 26  1  0
  8  3  1  0
 26  9  1  0
 23 15  1  0
 22 18  1  0
  1 27  1  0
  1 28  1  0
  1 29  1  0
  4 30  1  0
  5 31  1  0
  6 32  1  0
  7 33  1  0
 10 34  1  0
 10 35  1  0
 11 36  1  0
 11 37  1  0
 13 38  1  0
 13 39  1  0
 14 40  1  0
 14 41  1  0
 16 42  1  0
 17 43  1  0
 19 44  1  0
 21 45  1  0
 25 46  1  0
 25 47  1  0
 26 48  1  0
 26 49  1  0
M  CHG  1  17   1
M  END
>  <UniqueID>  (14) 
14

>  <SMILES>  (14) 
COc1ccccc1N1CCN(CCn2c[nH+]c3cscc3c2=O)CC1

>  <Energy>  (14) 
95.81303432591724

>  <Genealogy>  (14) 
COc1ccccc1N1CCN(CCn2c[nH+]c3cscc3c2=O)CC1 (protonated)
COc1ccccc1N1CCN(CCn2c[nH+]c3cscc3c2=O)CC1 (3D coordinates assigned)
COc1ccccc1N1CCN(CCn2c[nH+]c3cscc3c2=O)CC1 (nonaromatic ring conformer: 95.81303432591724 kcal/mol)

>  <smiles>  (14) 
COc1ccccc1N1CCN(CCn2cnc3cscc3c2=O)CC1

>  <score_type>  (14) 
oracle

>  <origin>  (14) 
adg

>  <m_score__min__energy>  (14) 
-7.1900000000000004

>  <m_primary>  (14) 
energy

$$$$
14:0
     RDKit          3D

 50 52  0  0  0  0  0  0  0  0999 V2000
   63.3860   33.8730   46.0540 C   0  0  0  0  0  0  0  0  0  0  0  0
   63.3610   32.8820   47.0760 O   0  0  0  0  0  0  0  0  0  0  0  0
   63.1790   33.1480   48.4420 C   0  0  0  0  0  0  0  0  0  0  0  0
   64.2580   33.1410   49.3500 C   0  0  0  0  0  0  0  0  0  0  0  0
   64.0390   33.3770   50.7090 C   0  0  0  0  0  0  0  0  0  0  0  0
   62.7490   33.6210   51.1790 C   0  0  0  0  0  0  0  0  0  0  0  0
   61.6720   33.6360   50.2910 C   0  0  0  0  0  0  0  0  0  0  0  0
   61.8780   33.4080   48.9190 C   0  0  0  0  0  0  0  0  0  0  0  0
   60.7570   33.4430   48.0160 N   0  0  0  0  0  0  0  0  0  0  0  0
   59.9640   32.2280   47.8010 C   0  0  0  0  0  0  0  0  0  0  0  0
   59.3860   32.2180   46.3830 C   0  0  0  0  0  0  0  0  0  0  0  0
   58.7160   33.4900   46.0590 N   0  0  0  0  0  0  0  0  0  0  0  0
   57.7890   33.5640   44.9530 C   0  0  0  0  0  0  0  0  0  0  0  0
   56.8930   34.4520   44.9500 O   0  0  0  0  0  0  0  0  0  0  0  0
   57.8160   32.5630   43.8250 C   0  0  0  0  0  0  0  0  0  0  0  0
   56.9530   31.4130   44.1090 N   0  0  0  0  0  0  0  0  0  0  0  0
   57.4620   30.1220   44.5040 C   0  0  0  0  0  0  0  0  0  0  0  0
   58.8450   29.8500   44.5260 C   0  0  0  0  0  0  0  0  0  0  0  0
   59.3190   28.5840   44.9030 C   0  0  0  0  0  0  0  0  0  0  0  0
   60.7940   28.3170   44.9600 C   0  0  0  0  0  0  0  0  0  0  0  0
   58.4080   27.5920   45.2900 C   0  0  0  0  0  0  0  0  0  0  0  0
   57.0370   27.8520   45.2710 C   0  0  0  0  0  0  0  0  0  0  0  0
   56.5620   29.1060   44.8780 C   0  0  0  0  0  0  0  0  0  0  0  0
   55.2240   29.3310   44.8710 F   0  0  0  0  0  0  0  0  0  0  0  0
   58.8520   34.6400   46.9660 C   0  0  0  0  0  0  0  0  0  0  0  0
   60.2820   34.7370   47.5050 C   0  0  0  0  0  0  0  0  0  0  0  0
   63.4112   34.8724   46.5129 H   0  0  0  0  0  0  0  0  0  0  0  0
   64.2809   33.7335   45.4298 H   0  0  0  0  0  0  0  0  0  0  0  0
   62.4852   33.7788   45.4298 H   0  0  0  0  0  0  0  0  0  0  0  0
   65.2780   32.9486   48.9858 H   0  0  0  0  0  0  0  0  0  0  0  0
   64.8863   33.3704   51.4104 H   0  0  0  0  0  0  0  0  0  0  0  0
   62.5799   33.8019   52.2508 H   0  0  0  0  0  0  0  0  0  0  0  0
   60.6561   33.8273   50.6669 H   0  0  0  0  0  0  0  0  0  0  0  0
   60.6066   31.3457   47.9377 H   0  0  0  0  0  0  0  0  0  0  0  0
   59.1370   32.2061   48.5260 H   0  0  0  0  0  0  0  0  0  0  0  0
   60.2036   32.0528   45.6658 H   0  0  0  0  0  0  0  0  0  0  0  0
   58.6399   31.4120   46.3223 H   0  0  0  0  0  0  0  0  0  0  0  0
   57.4678   33.0527   42.9036 H   0  0  0  0  0  0  0  0  0  0  0  0
   58.8481   32.2006   43.7087 H   0  0  0  0  0  0  0  0  0  0  0  0
   55.9200   31.5220   43.9920 H   0  0  0  0  0  0  0  0  0  0  0  0
   59.5596   30.6377   44.2450 H   0  0  0  0  0  0  0  0  0  0  0  0
   61.1158   28.2588   46.0103 H   0  0  0  0  0  0  0  0  0  0  0  0
   61.0140   27.3644   44.4558 H   0  0  0  0  0  0  0  0  0  0  0  0
   61.3339   29.1320   44.4558 H   0  0  0  0  0  0  0  0  0  0  0  0
   58.7746   26.6054   45.6097 H   0  0  0  0  0  0  0  0  0  0  0  0
   56.3267   27.0659   45.5669 H   0  0  0  0  0  0  0  0  0  0  0  0
   58.6089   35.5626   46.4185 H   0  0  0  0  0  0  0  0  0  0  0  0
   58.1628   34.5064   47.8128 H   0  0  0  0  0  0  0  0  0  0  0  0
   60.9477   35.0664   46.6936 H   0  0  0  0  0  0  0  0  0  0  0  0
   60.2883   35.4580   48.3357 H   0  0  0  0  0  0  0  0  0  0  0  0
  1  2  1  0
  2  3  1  0
  3  4  2  0
  4  5  1  0
  5  6  2  0
  6  7  1  0
  7  8  2  0
  8  9  1  0
  9 10  1  0
 10 11  1  0
 11 12  1  0
 12 13  1  0
 13 14  2  0
 13 15  1  0
 15 16  1  0
 16 17  1  0
 17 18  2  0
 18 19  1  0
 19 20  1  0
 19 21  2  0
 21 22  1  0
 22 23  2  0
 23 24  1  0
 12 25  1  0
 25 26  1  0
  8  3  1  0
 26  9  1  0
 23 17  1  0
  1 27  1  0
  1 28  1  0
  1 29  1  0
  4 30  1  0
  5 31  1  0
  6 32  1  0
  7 33  1  0
 10 34  1  0
 10 35  1  0
 11 36  1  0
 11 37  1  0
 15 38  1  0
 15 39  1  0
 16 40  1  0
 18 41  1  0
 20 42  1  0
 20 43  1  0
 20 44  1  0
 21 45  1  0
 22 46  1  0
 25 47  1  0
 25 48  1  0
 26 49  1  0
 26 50  1  0
M  END
>  <UniqueID>  (15) 
15

>  <SMILES>  (15) 
COc1ccccc1N1CCN(C(=O)CNc2cc(C)ccc2F)CC1

>  <Energy>  (15) 
56.04211376977961

>  <Genealogy>  (15) 
COc1ccccc1N1CCN(C(=O)CNc2cc(C)ccc2F)CC1 (3D coordinates assigned)
COc1ccccc1N1CCN(C(=O)CNc2cc(C)ccc2F)CC1 (nonaromatic ring conformer: 56.04211376977961 kcal/mol)

>  <smiles>  (15) 
COc1ccccc1N1CCN(C(=O)CNc2cc(C)ccc2F)CC1

>  <score_type>  (15) 
oracle

>  <origin>  (15) 
adg

>  <m_score__min__energy>  (15) 
-7.5999999999999996

>  <m_primary>  (15) 
energy

$$$$
15:0
     RDKit          3D

 39 41  0  0  0  0  0  0  0  0999 V2000
   59.6510   35.6610   45.6840 C   0  0  0  0  0  0  0  0  0  0  0  0
   59.0870   34.5960   46.4400 O   0  0  0  0  0  0  0  0  0  0  0  0
   58.5740   33.4100   45.8890 C   0  0  0  0  0  0  0  0  0  0  0  0
   57.9840   33.3810   44.6100 C   0  0  0  0  0  0  0  0  0  0  0  0
   57.4340   32.1980   44.1110 C   0  0  0  0  0  0  0  0  0  0  0  0
   57.4520   31.0310   44.8810 C   0  0  0  0  0  0  0  0  0  0  0  0
   56.7590   29.5410   44.2520 S   0  0  0  0  0  0  0  0  0  0  0  0
   55.1540   29.3470   44.8610 N   0  0  0  0  0  0  0  0  0  0  0  0
   56.7250   29.5900   42.7500 O   0  0  0  0  0  0  0  0  0  0  0  0
   57.5980   28.3680   44.6760 O   0  0  0  0  0  0  0  0  0  0  0  0
   58.0500   31.0480   46.1470 C   0  0  0  0  0  0  0  0  0  0  0  0
   58.6290   32.2230   46.6480 C   0  0  0  0  0  0  0  0  0  0  0  0
   59.2310   32.2030   47.9500 N   0  0  0  0  0  0  0  0  0  0  0  0
   59.5370   33.4310   48.6830 C   0  0  0  0  0  0  0  0  0  0  0  0
   60.9790   33.4280   49.1100 C   0  0  0  0  0  0  0  0  0  0  0  0
   61.3330   33.3690   50.4770 C   0  0  0  0  0  0  0  0  0  0  0  0
   62.6880   33.3330   50.8690 C   0  0  0  0  0  0  0  0  0  0  0  0
   63.7110   33.3470   49.9050 C   0  0  0  0  0  0  0  0  0  0  0  0
   63.3410   33.3970   48.5630 C   0  0  0  0  0  0  0  0  0  0  0  0
   64.1560   33.4070   47.4960 N   0  0  0  0  0  0  0  0  0  0  0  0
   63.3490   33.4500   46.4130 C   0  0  0  0  0  0  0  0  0  0  0  0
   62.0120   33.4670   46.7950 C   0  0  0  0  0  0  0  0  0  0  0  0
   62.0250   33.4330   48.1760 C   0  0  0  0  0  0  0  0  0  0  0  0
   60.0543   36.4225   46.3677 H   0  0  0  0  0  0  0  0  0  0  0  0
   60.4611   35.2716   45.0499 H   0  0  0  0  0  0  0  0  0  0  0  0
   58.8737   36.1123   45.0499 H   0  0  0  0  0  0  0  0  0  0  0  0
   57.9563   34.2961   44.0003 H   0  0  0  0  0  0  0  0  0  0  0  0
   56.9844   32.1844   43.1072 H   0  0  0  0  0  0  0  0  0  0  0  0
   55.2030   28.6410   45.6300 H   0  0  0  0  0  0  0  0  0  0  0  0
   58.0658   30.1310   46.7544 H   0  0  0  0  0  0  0  0  0  0  0  0
   59.7560   31.3420   48.2270 H   0  0  0  0  0  0  0  0  0  0  0  0
   59.3510   34.2991   48.0335 H   0  0  0  0  0  0  0  0  0  0  0  0
   58.8959   33.4889   49.5750 H   0  0  0  0  0  0  0  0  0  0  0  0
   60.5440   33.3510   51.2433 H   0  0  0  0  0  0  0  0  0  0  0  0
   62.9459   33.2937   51.9376 H   0  0  0  0  0  0  0  0  0  0  0  0
   64.7701   33.3194   50.2010 H   0  0  0  0  0  0  0  0  0  0  0  0
   65.2000   33.3850   47.4980 H   0  0  0  0  0  0  0  0  0  0  0  0
   63.7016   33.4690   45.3712 H   0  0  0  0  0  0  0  0  0  0  0  0
   61.1310   33.5004   46.1372 H   0  0  0  0  0  0  0  0  0  0  0  0
  1  2  1  0
  2  3  1  0
  3  4  2  0
  4  5  1  0
  5  6  2  0
  6  7  1  0
  7  8  1  0
  7  9  2  0
  7 10  2  0
  6 11  1  0
 11 12  2  0
 12 13  1  0
 13 14  1  0
 14 15  1  0
 15 16  2  0
 16 17  1  0
 17 18  2  0
 18 19  1  0
 19 20  1  0
 20 21  1  0
 21 22  2  0
 22 23  1  0
 12  3  1  0
 23 15  1  0
 23 19  2  0
  1 24  1  0
  1 25  1  0
  1 26  1  0
  4 27  1  0
  5 28  1  0
  8 29  1  0
 11 30  1  0
 13 31  1  0
 14 32  1  0
 14 33  1  0
 16 34  1  0
 17 35  1  0
 18 36  1  0
 20 37  1  0
 21 38  1  0
 22 39  1  0
M  CHG  1   8  -1
M  END
>  <UniqueID>  (16) 
16

>  <SMILES>  (16) 
COc1ccc(S([NH-])(=O)=O)cc1NCc1cccc2[nH]ccc12

>  <Energy>  (16) 
75.60571939828323

>  <Genealogy>  (16) 
COc1ccc(S([NH-])(=O)=O)cc1NCc1cccc2[nH]ccc12 (protonated)
COc1ccc(S([NH-])(=O)=O)cc1NCc1cccc2[nH]ccc12 (3D coordinates assigned)
COc1ccc(S([NH-])(=O)=O)cc1NCc1cccc2[nH]ccc12 (optimized conformer: 75.60571939828323 kcal/mol)

>  <smiles>  (16) 
COc1ccc(S(N)(=O)=O)cc1NCc1cccc2[nH]ccc12

>  <score_type>  (16) 
oracle

>  <origin>  (16) 
adg

>  <m_score__min__energy>  (16) 
-10.58

>  <m_primary>  (16) 
energy

$$$$
16:0
     RDKit          3D

 69 73  0  0  1  0  0  0  0  0999 V2000
   59.9720   28.9100   45.5080 C   0  0  0  0  0  0  0  0  0  0  0  0
   59.5450   27.7280   46.2260 N   0  0  0  0  0  0  0  0  0  0  0  0
   60.5730   26.7320   46.0310 C   0  0  0  0  0  0  0  0  0  0  0  0
   59.2160   27.9900   47.5780 C   0  0  0  0  0  0  0  0  0  0  0  0
   60.3270   27.8230   48.5570 C   0  0  0  0  0  0  0  0  0  0  0  0
   60.2740   28.9890   49.5220 C   0  0  0  0  0  0  0  0  0  0  0  0
   60.0000   30.2530   49.0380 N   0  0  0  0  0  0  0  0  0  0  0  0
   60.4840   31.3420   49.3980 C   0  0  0  0  0  0  0  0  0  0  0  0
   61.5620   31.9390   48.8210 C   0  0  0  0  0  0  0  0  0  0  0  0
   62.3020   31.2370   47.9230 C   0  0  0  0  0  0  0  0  0  0  0  0
   63.4170   31.8880   47.3530 C   0  0  0  0  0  0  0  0  0  0  0  0
   63.6810   33.1700   47.7390 C   0  0  0  0  0  0  0  0  0  0  0  0
   62.9400   33.8870   48.6510 C   0  0  0  0  0  0  0  0  0  0  0  0
   61.8500   33.2300   49.1970 C   0  0  0  0  0  0  0  0  0  0  0  0
   61.1380   33.9250   50.1040 N   0  0  0  0  0  0  0  0  0  0  0  0
   60.0760   33.3610   50.6940 C   0  0  0  0  0  0  0  0  0  0  0  0
   59.3660   34.0550   51.6030 N   0  0  0  0  0  0  0  0  0  0  0  0
   58.2830   33.5130   52.2220 C   0  0  0  0  0  0  0  0  0  0  0  0
   57.9100   32.2230   51.9070 C   0  0  0  0  0  0  0  0  0  0  0  0
   58.6450   31.5240   50.9750 C   0  0  0  0  0  0  0  0  0  0  0  0
   59.7470   32.0710   50.3440 C   0  0  0  0  0  0  0  0  0  0  0  0
   58.3550   27.2160   45.5120 C   0  0  0  0  0  0  0  0  0  0  0  0
   58.3220   27.6740   44.1020 C   0  0  0  0  0  0  0  0  0  0  0  0
   57.3510   28.5220   43.7980 O   0  0  0  0  0  0  0  0  0  0  0  0
   57.3580   29.7770   43.4290 C   0  0  0  0  0  0  0  0  0  0  0  0
   56.4110   30.7900   43.9910 C   0  0  0  0  0  0  0  0  0  0  0  0
   57.2690   31.7980   44.6750 N   0  0  0  0  0  0  0  0  0  0  0  0
   57.5290   32.9890   44.1300 N   0  0  0  0  0  0  0  0  0  0  0  0
   58.3190   33.6830   44.9590 C   0  0  0  0  0  0  0  0  0  0  0  0
   58.8680   34.9510   44.8690 C   0  0  0  0  0  0  0  0  0  0  0  0
   59.6660   35.4140   45.9080 C   0  0  0  0  0  0  0  0  0  0  0  0
   59.8870   34.5960   47.0020 C   0  0  0  0  0  0  0  0  0  0  0  0
   59.3470   33.3270   47.1090 C   0  0  0  0  0  0  0  0  0  0  0  0
   58.5500   32.8700   46.0660 C   0  0  0  0  0  0  0  0  0  0  0  0
   57.8720   31.6770   45.8620 C   0  0  0  0  0  0  0  0  0  0  0  0
   57.8260   30.6790   46.6270 O   0  0  0  0  0  0  0  0  0  0  0  0
   60.2550   29.6933   46.2266 H   0  0  0  0  0  0  0  0  0  0  0  0
   60.8375   28.6623   44.8759 H   0  0  0  0  0  0  0  0  0  0  0  0
   59.1481   29.2727   44.8759 H   0  0  0  0  0  0  0  0  0  0  0  0
   60.9345   26.3818   47.0091 H   0  0  0  0  0  0  0  0  0  0  0  0
   60.1587   25.8829   45.4677 H   0  0  0  0  0  0  0  0  0  0  0  0
   61.4086   27.1729   45.4677 H   0  0  0  0  0  0  0  0  0  0  0  0
   58.8604   29.0288   47.6442 H   0  0  0  0  0  0  0  0  0  0  0  0
   58.4586   27.2412   47.8530 H   0  0  0  0  0  0  0  0  0  0  0  0
   60.2032   26.8776   49.1055 H   0  0  0  0  0  0  0  0  0  0  0  0
   61.2962   27.7986   48.0373 H   0  0  0  0  0  0  0  0  0  0  0  0
   59.4986   28.7550   50.2663 H   0  0  0  0  0  0  0  0  0  0  0  0
   61.3068   29.0691   49.8919 H   0  0  0  0  0  0  0  0  0  0  0  0
   62.0424   30.2032   47.6514 H   0  0  0  0  0  0  0  0  0  0  0  0
   64.0555   31.3762   46.6180 H   0  0  0  0  0  0  0  0  0  0  0  0
   64.5516   33.6680   47.2873 H   0  0  0  0  0  0  0  0  0  0  0  0
   63.1981   34.9195   48.9293 H   0  0  0  0  0  0  0  0  0  0  0  0
   61.3950   34.9150   50.3660 H   0  0  0  0  0  0  0  0  0  0  0  0
   57.7135   34.0943   52.9622 H   0  0  0  0  0  0  0  0  0  0  0  0
   57.0387   31.7594   52.3927 H   0  0  0  0  0  0  0  0  0  0  0  0
   58.3451   30.4958   50.7242 H   0  0  0  0  0  0  0  0  0  0  0  0
   58.3747   26.1163   45.5292 H   0  0  0  0  0  0  0  0  0  0  0  0
   57.4585   27.6022   46.0190 H   0  0  0  0  0  0  0  0  0  0  0  0
   59.2814   28.1657   43.8834 H   0  0  0  0  0  0  0  0  0  0  0  0
   58.1354   26.7740   43.4977 H   0  0  0  0  0  0  0  0  0  0  0  0
   58.3691   30.1524   43.6453 H   0  0  0  0  0  0  0  0  0  0  0  0
   57.0152   29.7051   42.3863 H   0  0  0  0  0  0  0  0  0  0  0  0
   55.8302   31.2625   43.1851 H   0  0  0  0  0  0  0  0  0  0  0  0
   55.6867   30.3336   44.6817 H   0  0  0  0  0  0  0  0  0  0  0  0
   57.1870   33.3510   43.2070 H   0  0  0  0  0  0  0  0  0  0  0  0
   58.6754   35.5819   43.9887 H   0  0  0  0  0  0  0  0  0  0  0  0
   60.1158   36.4168   45.8615 H   0  0  0  0  0  0  0  0  0  0  0  0
   60.5186   34.9706   47.8210 H   0  0  0  0  0  0  0  0  0  0  0  0
   59.5421   32.6996   47.9913 H   0  0  0  0  0  0  0  0  0  0  0  0
  1  2  1  0
  2  3  1  0
  2  4  1  0
  4  5  1  0
  5  6  1  0
  6  7  1  0
  7  8  2  0
  8  9  1  0
  9 10  2  0
 10 11  1  0
 11 12  2  0
 12 13  1  0
 13 14  2  0
 14 15  1  0
 15 16  1  0
 16 17  2  0
 17 18  1  0
 18 19  2  0
 19 20  1  0
 20 21  2  0
  2 22  1  0
 22 23  1  0
 23 24  1  0
 24 25  1  0
 25 26  1  0
 26 27  1  0
 27 28  1  0
 28 29  1  0
 29 30  2  0
 30 31  1  0
 31 32  2  0
 32 33  1  0
 33 34  2  0
 34 35  1  0
 35 36  2  0
 21  8  1  0
 35 27  1  0
 14  9  1  0
 21 16  1  0
 34 29  1  0
  1 37  1  0
  1 38  1  0
  1 39  1  0
  3 40  1  0
  3 41  1  0
  3 42  1  0
  4 43  1  0
  4 44  1  0
  5 45  1  0
  5 46  1  0
  6 47  1  0
  6 48  1  0
 10 49  1  0
 11 50  1  0
 12 51  1  0
 13 52  1  0
 15 53  1  0
 18 54  1  0
 19 55  1  0
 20 56  1  0
 22 57  1  0
 22 58  1  0
 23 59  1  0
 23 60  1  0
 25 61  1  0
 25 62  1  0
 26 63  1  0
 26 64  1  0
 28 65  1  0
 30 66  1  0
 31 67  1  0
 32 68  1  0
 33 69  1  0
M  CHG  1   2   1
M  END
>  <smiles>  (17) 
C[N+](C)(CCCN=c1c2ccccc2[nH]c2ncccc12)CCOCCn1[nH]c2ccccc2c1=O

>  <score_type>  (17) 
oracle

>  <origin>  (17) 
adg

>  <m_score__min__energy>  (17) 
-7.7400000000000002

>  <m_primary>  (17) 
energy

$$$$
17:0
     RDKit          3D

 70 75  0  0  0  0  0  0  0  0999 V2000
   69.0650   30.5320   52.7670 C   0  0  0  0  0  0  0  0  0  0  0  0
   68.8170   31.7660   52.1020 O   0  0  0  0  0  0  0  0  0  0  0  0
   67.5380   32.2390   51.7720 C   0  0  0  0  0  0  0  0  0  0  0  0
   66.4390   32.1050   52.6420 C   0  0  0  0  0  0  0  0  0  0  0  0
   65.1860   32.6090   52.2820 C   0  0  0  0  0  0  0  0  0  0  0  0
   65.0110   33.2560   51.0490 C   0  0  0  0  0  0  0  0  0  0  0  0
   63.6770   33.8650   50.6820 C   0  0  0  0  0  0  0  0  0  0  0  0
   62.7910   32.8850   50.0060 N   0  0  0  0  0  0  0  0  0  0  0  0
   62.2820   31.8700   50.9680 C   0  0  0  0  0  0  0  0  0  0  0  0
   61.8040   30.5700   50.2900 C   0  0  0  0  0  0  0  0  0  0  0  0
   61.5000   30.7990   48.8750 N   0  0  0  0  0  0  0  0  0  0  0  0
   60.1990   30.5620   48.3120 C   0  0  0  0  0  0  0  0  0  0  0  0
   59.6730   31.3860   47.4120 C   0  0  0  0  0  0  0  0  0  0  0  0
   58.8990   32.4970   48.0130 C   0  0  0  0  0  0  0  0  0  0  0  0
   58.3140   33.3320   47.2720 O   0  0  0  0  0  0  0  0  0  0  0  0
   58.8970   32.6920   49.5100 C   0  0  0  0  0  0  0  0  0  0  0  0
   58.0120   31.6410   50.2170 C   0  0  0  0  0  0  0  0  0  0  0  0
   58.6030   30.2070   50.2940 C   0  0  0  0  0  0  0  0  0  0  0  0
   59.2000   29.7260   48.9990 C   0  0  0  0  0  0  0  0  0  0  0  0
   58.5800   28.7910   48.3430 N   0  0  0  0  0  0  0  0  0  0  0  0
   58.8350   28.4110   46.9820 C   0  0  0  0  0  0  0  0  0  0  0  0
   58.6930   27.0530   46.6640 C   0  0  0  0  0  0  0  0  0  0  0  0
   58.9090   26.5980   45.3650 C   0  0  0  0  0  0  0  0  0  0  0  0
   59.2720   27.4970   44.3660 C   0  0  0  0  0  0  0  0  0  0  0  0
   59.3900   28.8560   44.6550 C   0  0  0  0  0  0  0  0  0  0  0  0
   59.1540   29.3550   45.9570 C   0  0  0  0  0  0  0  0  0  0  0  0
   59.1430   30.7970   46.1930 N   0  0  0  0  0  0  0  0  0  0  0  0
   58.6890   31.7040   45.1220 C   0  0  0  0  0  0  0  0  0  0  0  0
   57.6360   31.0440   44.2810 C   0  0  0  0  0  0  0  0  0  0  0  0
   57.6810   30.8540   42.9120 C   0  0  0  0  0  0  0  0  0  0  0  0
   56.5010   30.2170   42.5920 C   0  0  0  0  0  0  0  0  0  0  0  0
   55.8140   30.0580   43.7800 C   0  0  0  0  0  0  0  0  0  0  0  0
   56.5130   30.5630   44.7670 O   0  0  0  0  0  0  0  0  0  0  0  0
   62.5240   31.4190   48.0290 C   0  0  0  0  0  0  0  0  0  0  0  0
   63.5080   32.2410   48.8810 C   0  0  0  0  0  0  0  0  0  0  0  0
   66.1050   33.3810   50.1770 C   0  0  0  0  0  0  0  0  0  0  0  0
   67.3570   32.8730   50.5370 C   0  0  0  0  0  0  0  0  0  0  0  0
   69.0334   30.6891   53.8553 H   0  0  0  0  0  0  0  0  0  0  0  0
   68.2961   29.7997   52.4798 H   0  0  0  0  0  0  0  0  0  0  0  0
   70.0571   30.1536   52.4798 H   0  0  0  0  0  0  0  0  0  0  0  0
   66.5674   31.6005   53.6110 H   0  0  0  0  0  0  0  0  0  0  0  0
   64.3334   32.4980   52.9681 H   0  0  0  0  0  0  0  0  0  0  0  0
   63.1827   34.2186   51.5989 H   0  0  0  0  0  0  0  0  0  0  0  0
   63.8608   34.6967   49.9860 H   0  0  0  0  0  0  0  0  0  0  0  0
   61.9730   33.4120   49.6080 H   0  0  0  0  0  0  0  0  0  0  0  0
   63.0900   31.6199   51.6712 H   0  0  0  0  0  0  0  0  0  0  0  0
   61.4113   32.3110   51.4754 H   0  0  0  0  0  0  0  0  0  0  0  0
   62.5954   29.8102   50.3699 H   0  0  0  0  0  0  0  0  0  0  0  0
   60.8890   30.2265   50.7947 H   0  0  0  0  0  0  0  0  0  0  0  0
   59.9276   32.6010   49.8836 H   0  0  0  0  0  0  0  0  0  0  0  0
   58.4882   33.6898   49.7274 H   0  0  0  0  0  0  0  0  0  0  0  0
   57.8309   31.9878   51.2451 H   0  0  0  0  0  0  0  0  0  0  0  0
   57.0998   31.5577   49.6079 H   0  0  0  0  0  0  0  0  0  0  0  0
   59.3892   30.1967   51.0633 H   0  0  0  0  0  0  0  0  0  0  0  0
   57.7702   29.5296   50.5341 H   0  0  0  0  0  0  0  0  0  0  0  0
   58.4076   26.3380   47.4497 H   0  0  0  0  0  0  0  0  0  0  0  0
   58.7929   25.5299   45.1291 H   0  0  0  0  0  0  0  0  0  0  0  0
   59.4663   27.1343   43.3459 H   0  0  0  0  0  0  0  0  0  0  0  0
   59.6725   29.5545   43.8536 H   0  0  0  0  0  0  0  0  0  0  0  0
   58.2716   32.6160   45.5736 H   0  0  0  0  0  0  0  0  0  0  0  0
   59.5479   31.9545   44.4821 H   0  0  0  0  0  0  0  0  0  0  0  0
   58.4873   31.1486   42.2242 H   0  0  0  0  0  0  0  0  0  0  0  0
   56.1724   29.8991   41.5915 H   0  0  0  0  0  0  0  0  0  0  0  0
   54.8287   29.5796   43.8822 H   0  0  0  0  0  0  0  0  0  0  0  0
   63.0777   30.6318   47.4964 H   0  0  0  0  0  0  0  0  0  0  0  0
   62.0308   32.0907   47.3110 H   0  0  0  0  0  0  0  0  0  0  0  0
   64.2880   31.5757   49.2797 H   0  0  0  0  0  0  0  0  0  0  0  0
   63.9658   33.0192   48.2527 H   0  0  0  0  0  0  0  0  0  0  0  0
   65.9762   33.8812   49.2058 H   0  0  0  0  0  0  0  0  0  0  0  0
   68.2060   32.9723   49.8447 H   0  0  0  0  0  0  0  0  0  0  0  0
  1  2  1  0
  2  3  1  0
  3  4  2  0
  4  5  1  0
  5  6  2  0
  6  7  1  0
  7  8  1  0
  8  9  1  0
  9 10  1  0
 10 11  1  0
 11 12  1  0
 12 13  2  0
 13 14  1  0
 14 15  2  0
 14 16  1  0
 16 17  1  0
 17 18  1  0
 18 19  1  0
 19 20  2  0
 20 21  1  0
 21 22  2  0
 22 23  1  0
 23 24  2  0
 24 25  1  0
 25 26  2  0
 26 27  1  0
 27 28  1  0
 28 29  1  0
 29 30  2  0
 30 31  1  0
 31 32  2  0
 32 33  1  0
 11 34  1  0
 34 35  1  0
  6 36  1  0
 36 37  2  0
 37  3  1  0
 35  8  1  0
 19 12  1  0
 26 21  1  0
 33 29  1  0
 27 13  1  0
  1 38  1  0
  1 39  1  0
  1 40  1  0
  4 41  1  0
  5 42  1  0
  7 43  1  0
  7 44  1  0
  8 45  1  0
  9 46  1  0
  9 47  1  0
 10 48  1  0
 10 49  1  0
 16 50  1  0
 16 51  1  0
 17 52  1  0
 17 53  1  0
 18 54  1  0
 18 55  1  0
 22 56  1  0
 23 57  1  0
 24 58  1  0
 25 59  1  0
 28 60  1  0
 28 61  1  0
 30 62  1  0
 31 63  1  0
 32 64  1  0
 34 65  1  0
 34 66  1  0
 35 67  1  0
 35 68  1  0
 36 69  1  0
 37 70  1  0
M  CHG  1   8   1
M  END
>  <UniqueID>  (18) 
17

>  <SMILES>  (18) 
COc1ccc(C[NH+]2CCN(C3=C4C(=O)CCCC3=Nc3ccccc3N4Cc3ccco3)CC2)cc1

>  <Energy>  (18) 
181.78370628120592

>  <Genealogy>  (18) 
COc1ccc(C[NH+]2CCN(C3=C4C(=O)CCCC3=Nc3ccccc3N4Cc3ccco3)CC2)cc1 (protonated)
COc1ccc(C[NH+]2CCN(C3=C4C(=O)CCCC3=Nc3ccccc3N4Cc3ccco3)CC2)cc1 (3D coordinates assigned)
COc1ccc(C[NH+]2CCN(C3=C4C(=O)CCCC3=Nc3ccccc3N4Cc3ccco3)CC2)cc1 (nonaromatic ring conformer: 181.78370628120592 kcal/mol)

>  <smiles>  (18) 
COc1ccc(CN2CCN(C3=C4C(=O)CCCC3=Nc3ccccc3N4Cc3ccco3)CC2)cc1

>  <score_type>  (18) 
oracle

>  <origin>  (18) 
adg

>  <m_score__min__energy>  (18) 
-1.98

>  <m_primary>  (18) 
energy

$$$$
18:0
     RDKit          3D

 47 49  0  0  0  0  0  0  0  0999 V2000
   56.6170   29.4330   42.7530 C   0  0  0  0  0  0  0  0  0  0  0  0
   55.8060   29.7550   44.0040 C   0  0  0  0  0  0  0  0  0  0  0  0
   56.5140   30.6560   44.8350 O   0  0  0  0  0  0  0  0  0  0  0  0
   57.0780   31.7210   44.0910 C   0  0  0  0  0  0  0  0  0  0  0  0
   57.0940   32.9980   44.9270 C   0  0  0  0  0  0  0  0  0  0  0  0
   57.4920   32.6930   46.2590 O   0  0  0  0  0  0  0  0  0  0  0  0
   58.5990   31.9170   46.6580 C   0  0  0  0  0  0  0  0  0  0  0  0
   58.4840   30.5670   46.5030 N   0  0  0  0  0  0  0  0  0  0  0  0
   59.4820   29.6990   46.8300 C   0  0  0  0  0  0  0  0  0  0  0  0
   59.3020   28.2390   46.6230 C   0  0  0  0  0  0  0  0  0  0  0  0
   58.0170   27.6920   46.4420 C   0  0  0  0  0  0  0  0  0  0  0  0
   57.8550   26.3170   46.2450 C   0  0  0  0  0  0  0  0  0  0  0  0
   58.9690   25.4760   46.2270 C   0  0  0  0  0  0  0  0  0  0  0  0
   60.2490   26.0070   46.4050 C   0  0  0  0  0  0  0  0  0  0  0  0
   60.4160   27.3810   46.6010 C   0  0  0  0  0  0  0  0  0  0  0  0
   60.6820   30.1970   47.3470 C   0  0  0  0  0  0  0  0  0  0  0  0
   60.8490   31.5710   47.5380 C   0  0  0  0  0  0  0  0  0  0  0  0
   62.1410   32.0570   48.0870 C   0  0  0  0  0  0  0  0  0  0  0  0
   62.5670   31.6620   49.3670 C   0  0  0  0  0  0  0  0  0  0  0  0
   63.7770   32.1350   49.8850 C   0  0  0  0  0  0  0  0  0  0  0  0
   64.5660   33.0110   49.1330 C   0  0  0  0  0  0  0  0  0  0  0  0
   64.1440   33.4180   47.8660 C   0  0  0  0  0  0  0  0  0  0  0  0
   62.9350   32.9480   47.3430 C   0  0  0  0  0  0  0  0  0  0  0  0
   59.7920   32.4520   47.2110 C   0  0  0  0  0  0  0  0  0  0  0  0
   59.9170   33.8540   47.5450 C   0  0  0  0  0  0  0  0  0  0  0  0
   60.0280   34.9760   47.8060 N   0  0  0  0  0  0  0  0  0  0  0  0
   57.6025   29.0417   43.0456 H   0  0  0  0  0  0  0  0  0  0  0  0
   56.0852   28.6778   42.1556 H   0  0  0  0  0  0  0  0  0  0  0  0
   56.7481   30.3473   42.1556 H   0  0  0  0  0  0  0  0  0  0  0  0
   54.8495   30.2107   43.7081 H   0  0  0  0  0  0  0  0  0  0  0  0
   55.6259   28.8237   44.5609 H   0  0  0  0  0  0  0  0  0  0  0  0
   58.1081   31.4600   43.8067 H   0  0  0  0  0  0  0  0  0  0  0  0
   56.4707   31.8899   43.1895 H   0  0  0  0  0  0  0  0  0  0  0  0
   57.8043   33.7140   44.4878 H   0  0  0  0  0  0  0  0  0  0  0  0
   56.0862   33.4387   44.9392 H   0  0  0  0  0  0  0  0  0  0  0  0
   57.5830   30.1960   46.1260 H   0  0  0  0  0  0  0  0  0  0  0  0
   57.1357   28.3501   46.4557 H   0  0  0  0  0  0  0  0  0  0  0  0
   56.8480   25.8974   46.1040 H   0  0  0  0  0  0  0  0  0  0  0  0
   58.8390   24.3947   46.0726 H   0  0  0  0  0  0  0  0  0  0  0  0
   61.1261   25.3433   46.3909 H   0  0  0  0  0  0  0  0  0  0  0  0
   61.4261   27.7940   46.7390 H   0  0  0  0  0  0  0  0  0  0  0  0
   61.4972   29.5047   47.6042 H   0  0  0  0  0  0  0  0  0  0  0  0
   61.9460   30.9779   49.9639 H   0  0  0  0  0  0  0  0  0  0  0  0
   64.1083   31.8176   50.8848 H   0  0  0  0  0  0  0  0  0  0  0  0
   65.5193   33.3795   49.5398 H   0  0  0  0  0  0  0  0  0  0  0  0
   64.7640   34.1102   47.2774 H   0  0  0  0  0  0  0  0  0  0  0  0
   62.6041   33.2763   46.3466 H   0  0  0  0  0  0  0  0  0  0  0  0
  1  2  1  0
  2  3  1  0
  3  4  1  0
  4  5  1  0
  5  6  1  0
  6  7  1  0
  7  8  2  0
  8  9  1  0
  9 10  1  0
 10 11  2  0
 11 12  1  0
 12 13  2  0
 13 14  1  0
 14 15  2  0
  9 16  2  0
 16 17  1  0
 17 18  1  0
 18 19  2  0
 19 20  1  0
 20 21  2  0
 21 22  1  0
 22 23  2  0
 17 24  2  0
 24 25  1  0
 25 26  3  0
 24  7  1  0
 15 10  1  0
 23 18  1  0
  1 27  1  0
  1 28  1  0
  1 29  1  0
  2 30  1  0
  2 31  1  0
  4 32  1  0
  4 33  1  0
  5 34  1  0
  5 35  1  0
  8 36  1  0
 11 37  1  0
 12 38  1  0
 13 39  1  0
 14 40  1  0
 15 41  1  0
 16 42  1  0
 19 43  1  0
 20 44  1  0
 21 45  1  0
 22 46  1  0
 23 47  1  0
M  CHG  1   8   1
M  END
>  <UniqueID>  (19) 
18

>  <SMILES>  (19) 
CCOCCOc1[nH+]c(-c2ccccc2)cc(-c2ccccc2)c1C#N

>  <Energy>  (19) 
65.71698950008295

>  <Genealogy>  (19) 
CCOCCOc1[nH+]c(-c2ccccc2)cc(-c2ccccc2)c1C#N (protonated)
CCOCCOc1[nH+]c(-c2ccccc2)cc(-c2ccccc2)c1C#N (3D coordinates assigned)
CCOCCOc1[nH+]c(-c2ccccc2)cc(-c2ccccc2)c1C#N (optimized conformer: 65.71698950008295 kcal/mol)

>  <smiles>  (19) 
CCOCCOc1nc(-c2ccccc2)cc(-c2ccccc2)c1C#N

>  <score_type>  (19) 
oracle

>  <origin>  (19) 
adg

>  <m_score__min__energy>  (19) 
-5.5599999999999996

>  <m_primary>  (19) 
energy

$$$$
19:0
     RDKit          3D

 52 54  0  0  0  0  0  0  0  0999 V2000
   65.2570   33.3830   50.0230 C   0  0  0  0  0  0  0  0  0  0  0  0
   64.1630   32.5570   49.4180 C   0  0  0  0  0  0  0  0  0  0  0  0
   63.7660   32.7630   48.0920 C   0  0  0  0  0  0  0  0  0  0  0  0
   62.7180   32.0190   47.5480 C   0  0  0  0  0  0  0  0  0  0  0  0
   62.0520   31.0680   48.3440 C   0  0  0  0  0  0  0  0  0  0  0  0
   60.9570   30.2770   47.8210 N   0  0  0  0  0  0  0  0  0  0  0  0
   59.7670   30.0190   48.6500 C   0  0  0  0  0  0  0  0  0  0  0  0
   58.6340   29.3780   47.8400 C   0  0  0  0  0  0  0  0  0  0  0  0
   59.1590   28.1480   47.0840 C   0  0  0  0  0  0  0  0  0  0  0  0
   58.0660   27.5430   46.2490 C   0  0  0  0  0  0  0  0  0  0  0  0
   57.3370   26.6360   46.7370 O   0  0  0  0  0  0  0  0  0  0  0  0
   57.8820   27.9740   44.9280 O   0  0  0  0  0  0  0  0  0  0  0  0
   56.7450   28.7180   44.4980 C   0  0  0  0  0  0  0  0  0  0  0  0
   56.9840   30.1830   44.6980 C   0  0  0  0  0  0  0  0  0  0  0  0
   56.0040   30.9760   44.6600 O   0  0  0  0  0  0  0  0  0  0  0  0
   58.3000   30.6690   44.9930 N   0  0  0  0  0  0  0  0  0  0  0  0
   58.5620   32.0530   45.2690 C   0  0  0  0  0  0  0  0  0  0  0  0
   58.9380   32.4200   46.5690 C   0  0  0  0  0  0  0  0  0  0  0  0
   59.1860   33.7600   46.8830 C   0  0  0  0  0  0  0  0  0  0  0  0
   59.6380   34.2090   48.5180 Cl  0  0  0  0  0  0  0  0  0  0  0  0
   59.0690   34.7410   45.8960 C   0  0  0  0  0  0  0  0  0  0  0  0
   58.7190   34.3840   44.5910 C   0  0  0  0  0  0  0  0  0  0  0  0
   58.4850   33.0400   44.2570 C   0  0  0  0  0  0  0  0  0  0  0  0
   58.1440   32.6930   42.8330 C   0  0  0  0  0  0  0  0  0  0  0  0
   60.4090   28.4630   46.2170 C   0  0  0  0  0  0  0  0  0  0  0  0
   60.9450   29.8920   46.3990 C   0  0  0  0  0  0  0  0  0  0  0  0
   62.4490   30.9030   49.6390 N   0  0  0  0  0  0  0  0  0  0  0  0
   63.4680   31.6170   50.1870 C   0  0  0  0  0  0  0  0  0  0  0  0
   65.1905   33.3328   51.1198 H   0  0  0  0  0  0  0  0  0  0  0  0
   66.2330   32.9945   49.6967 H   0  0  0  0  0  0  0  0  0  0  0  0
   65.1506   34.4281   49.6967 H   0  0  0  0  0  0  0  0  0  0  0  0
   64.2820   33.5143   47.4761 H   0  0  0  0  0  0  0  0  0  0  0  0
   62.4139   32.1750   46.5024 H   0  0  0  0  0  0  0  0  0  0  0  0
   60.0453   29.3411   49.4704 H   0  0  0  0  0  0  0  0  0  0  0  0
   59.4059   30.9831   49.0374 H   0  0  0  0  0  0  0  0  0  0  0  0
   57.8280   29.0696   48.5221 H   0  0  0  0  0  0  0  0  0  0  0  0
   58.2495   30.1104   47.1149 H   0  0  0  0  0  0  0  0  0  0  0  0
   59.4808   27.4170   47.8404 H   0  0  0  0  0  0  0  0  0  0  0  0
   56.5634   28.5211   43.4311 H   0  0  0  0  0  0  0  0  0  0  0  0
   55.8693   28.4117   45.0890 H   0  0  0  0  0  0  0  0  0  0  0  0
   59.0490   29.9770   45.2180 H   0  0  0  0  0  0  0  0  0  0  0  0
   59.0386   31.6488   47.3470 H   0  0  0  0  0  0  0  0  0  0  0  0
   59.2526   35.7963   46.1461 H   0  0  0  0  0  0  0  0  0  0  0  0
   58.6260   35.1620   43.8190 H   0  0  0  0  0  0  0  0  0  0  0  0
   57.3730   31.9085   42.8213 H   0  0  0  0  0  0  0  0  0  0  0  0
   57.7642   33.5880   42.3184 H   0  0  0  0  0  0  0  0  0  0  0  0
   59.0454   32.3289   42.3184 H   0  0  0  0  0  0  0  0  0  0  0  0
   61.2067   27.7560   46.4886 H   0  0  0  0  0  0  0  0  0  0  0  0
   60.1022   28.3671   45.1650 H   0  0  0  0  0  0  0  0  0  0  0  0
   61.9703   29.9441   46.0041 H   0  0  0  0  0  0  0  0  0  0  0  0
   60.2855   30.5844   45.8552 H   0  0  0  0  0  0  0  0  0  0  0  0
   63.7471   31.4552   51.2386 H   0  0  0  0  0  0  0  0  0  0  0  0
  1  2  1  0
  2  3  2  0
  3  4  1  0
  4  5  2  0
  5  6  1  0
  6  7  1  0
  7  8  1  0
  8  9  1  0
  9 10  1  0
 10 11  2  0
 10 12  1  0
 12 13  1  0
 13 14  1  0
 14 15  2  0
 14 16  1  0
 16 17  1  0
 17 18  2  0
 18 19  1  0
 19 20  1  0
 19 21  2  0
 21 22  1  0
 22 23  2  0
 23 24  1  0
  9 25  1  0
 25 26  1  0
  5 27  1  0
 27 28  2  0
 28  2  1  0
 26  6  1  0
 23 17  1  0
  1 29  1  0
  1 30  1  0
  1 31  1  0
  3 32  1  0
  4 33  1  0
  7 34  1  0
  7 35  1  0
  8 36  1  0
  8 37  1  0
  9 38  1  0
 13 39  1  0
 13 40  1  0
 16 41  1  0
 18 42  1  0
 21 43  1  0
 22 44  1  0
 24 45  1  0
 24 46  1  0
 24 47  1  0
 25 48  1  0
 25 49  1  0
 26 50  1  0
 26 51  1  0
 28 52  1  0
M  END
>  <UniqueID>  (20) 
19

>  <SMILES>  (20) 
Cc1ccc(N2CCC(C(=O)OCC(=O)Nc3cc(Cl)ccc3C)CC2)nc1

>  <Energy>  (20) 
59.24063892785426

>  <Genealogy>  (20) 
Cc1ccc(N2CCC(C(=O)OCC(=O)Nc3cc(Cl)ccc3C)CC2)nc1 (3D coordinates assigned)
Cc1ccc(N2CCC(C(=O)OCC(=O)Nc3cc(Cl)ccc3C)CC2)nc1 (nonaromatic ring conformer: 59.24063892785426 kcal/mol)

>  <smiles>  (20) 
Cc1ccc(N2CCC(C(=O)OCC(=O)Nc3cc(Cl)ccc3C)CC2)nc1

>  <score_type>  (20) 
oracle

>  <origin>  (20) 
adg

>  <m_score__min__energy>  (20) 
-8.8499999999999996

>  <m_primary>  (20) 
energy

$$$$
20:0
     RDKit          3D

 50 52  0  0  0  0  0  0  0  0999 V2000
   60.1510   28.6370   44.8670 C   0  0  0  0  0  0  0  0  0  0  0  0
   58.6330   28.5290   44.7890 C   0  0  0  0  0  0  0  0  0  0  0  0
   58.0830   29.6540   44.1070 O   0  0  0  0  0  0  0  0  0  0  0  0
   57.3200   30.6450   44.7370 C   0  0  0  0  0  0  0  0  0  0  0  0
   56.0680   30.5130   44.8360 O   0  0  0  0  0  0  0  0  0  0  0  0
   57.9860   31.8450   45.2930 C   0  0  0  0  0  0  0  0  0  0  0  0
   57.3590   33.0990   45.2170 C   0  0  0  0  0  0  0  0  0  0  0  0
   57.9800   34.2320   45.7470 C   0  0  0  0  0  0  0  0  0  0  0  0
   59.2330   34.1290   46.3530 C   0  0  0  0  0  0  0  0  0  0  0  0
   59.8830   32.8860   46.4380 C   0  0  0  0  0  0  0  0  0  0  0  0
   61.1770   32.7790   47.0700 N   0  0  0  0  0  0  0  0  0  0  0  0
   61.8240   31.4610   47.1750 C   0  0  0  0  0  0  0  0  0  0  0  0
   63.3110   31.5910   47.5130 C   0  0  0  0  0  0  0  0  0  0  0  0
   63.4800   32.4830   48.6640 N   0  0  0  0  0  0  0  0  0  0  0  0
   64.2410   32.0460   49.8040 C   0  0  0  0  0  0  0  0  0  0  0  0
   64.0570   30.8860   50.2630 O   0  0  0  0  0  0  0  0  0  0  0  0
   65.2350   32.9330   50.4500 C   0  0  0  0  0  0  0  0  0  0  0  0
   66.5960   32.8310   50.1160 C   0  0  0  0  0  0  0  0  0  0  0  0
   67.5360   33.6760   50.7130 C   0  0  0  0  0  0  0  0  0  0  0  0
   67.1280   34.6510   51.6340 C   0  0  0  0  0  0  0  0  0  0  0  0
   68.1420   35.5310   52.3030 C   0  0  0  0  0  0  0  0  0  0  0  0
   65.7700   34.7550   51.9710 C   0  0  0  0  0  0  0  0  0  0  0  0
   64.8300   33.9100   51.3750 C   0  0  0  0  0  0  0  0  0  0  0  0
   62.7330   33.7480   48.7330 C   0  0  0  0  0  0  0  0  0  0  0  0
   61.9130   33.9940   47.4600 C   0  0  0  0  0  0  0  0  0  0  0  0
   59.2490   31.7470   45.9060 C   0  0  0  0  0  0  0  0  0  0  0  0
   60.4633   28.6592   45.9215 H   0  0  0  0  0  0  0  0  0  0  0  0
   60.6065   27.7690   44.3679 H   0  0  0  0  0  0  0  0  0  0  0  0
   60.4790   29.5608   44.3679 H   0  0  0  0  0  0  0  0  0  0  0  0
   58.3635   27.6106   44.2468 H   0  0  0  0  0  0  0  0  0  0  0  0
   58.2270   28.5013   45.8110 H   0  0  0  0  0  0  0  0  0  0  0  0
   56.3732   33.1895   44.7374 H   0  0  0  0  0  0  0  0  0  0  0  0
   57.4795   35.2097   45.6866 H   0  0  0  0  0  0  0  0  0  0  0  0
   59.7151   35.0269   46.7669 H   0  0  0  0  0  0  0  0  0  0  0  0
   61.3270   30.8810   47.9665 H   0  0  0  0  0  0  0  0  0  0  0  0
   61.7343   30.9542   46.2028 H   0  0  0  0  0  0  0  0  0  0  0  0
   63.7187   30.5988   47.7564 H   0  0  0  0  0  0  0  0  0  0  0  0
   63.8462   32.0081   46.6472 H   0  0  0  0  0  0  0  0  0  0  0  0
   66.9237   32.0817   49.3803 H   0  0  0  0  0  0  0  0  0  0  0  0
   68.6015   33.5754   50.4588 H   0  0  0  0  0  0  0  0  0  0  0  0
   68.0405   35.4429   53.3948 H   0  0  0  0  0  0  0  0  0  0  0  0
   69.1532   35.2194   52.0024 H   0  0  0  0  0  0  0  0  0  0  0  0
   67.9758   36.5760   52.0024 H   0  0  0  0  0  0  0  0  0  0  0  0
   65.4440   35.5045   52.7072 H   0  0  0  0  0  0  0  0  0  0  0  0
   63.7652   34.0105   51.6319 H   0  0  0  0  0  0  0  0  0  0  0  0
   62.0506   33.7123   49.5950 H   0  0  0  0  0  0  0  0  0  0  0  0
   63.4580   34.5686   48.8373 H   0  0  0  0  0  0  0  0  0  0  0  0
   61.1953   34.8069   47.6446 H   0  0  0  0  0  0  0  0  0  0  0  0
   62.5995   34.2676   46.6453 H   0  0  0  0  0  0  0  0  0  0  0  0
   59.7471   30.7683   45.9703 H   0  0  0  0  0  0  0  0  0  0  0  0
  1  2  1  0
  2  3  1  0
  3  4  1  0
  4  5  2  0
  4  6  1  0
  6  7  2  0
  7  8  1  0
  8  9  2  0
  9 10  1  0
 10 11  1  0
 11 12  1  0
 12 13  1  0
 13 14  1  0
 14 15  1  0
 15 16  2  0
 15 17  1  0
 17 18  2  0
 18 19  1  0
 19 20  2  0
 20 21  1  0
 20 22  1  0
 22 23  2  0
 14 24  1  0
 24 25  1  0
 10 26  2  0
 26  6  1  0
 25 11  1  0
 23 17  1  0
  1 27  1  0
  1 28  1  0
  1 29  1  0
  2 30  1  0
  2 31  1  0
  7 32  1  0
  8 33  1  0
  9 34  1  0
 12 35  1  0
 12 36  1  0
 13 37  1  0
 13 38  1  0
 18 39  1  0
 19 40  1  0
 21 41  1  0
 21 42  1  0
 21 43  1  0
 22 44  1  0
 23 45  1  0
 24 46  1  0
 24 47  1  0
 25 48  1  0
 25 49  1  0
 26 50  1  0
M  END
>  <UniqueID>  (21) 
20

>  <SMILES>  (21) 
CCOC(=O)c1cccc(N2CCN(C(=O)c3ccc(C)cc3)CC2)c1

>  <Energy>  (21) 
56.30416506748924

>  <Genealogy>  (21) 
CCOC(=O)c1cccc(N2CCN(C(=O)c3ccc(C)cc3)CC2)c1 (3D coordinates assigned)
CCOC(=O)c1cccc(N2CCN(C(=O)c3ccc(C)cc3)CC2)c1 (nonaromatic ring conformer: 56.30416506748924 kcal/mol)

>  <smiles>  (21) 
CCOC(=O)c1cccc(N2CCN(C(=O)c3ccc(C)cc3)CC2)c1

>  <score_type>  (21) 
oracle

>  <origin>  (21) 
adg

>  <m_score__min__energy>  (21) 
-7.8300000000000001

>  <m_primary>  (21) 
energy

$$$$
21:0
     RDKit          3D

 54 56  0  0  0  0  0  0  0  0999 V2000
   56.3020   29.8330   43.2410 C   0  0  0  0  0  0  0  0  0  0  0  0
   56.2630   30.5170   44.4900 O   0  0  0  0  0  0  0  0  0  0  0  0
   57.3900   31.0220   45.1540 C   0  0  0  0  0  0  0  0  0  0  0  0
   58.2860   30.1110   45.7230 C   0  0  0  0  0  0  0  0  0  0  0  0
   59.4270   30.5570   46.3940 C   0  0  0  0  0  0  0  0  0  0  0  0
   59.6990   31.9320   46.5020 C   0  0  0  0  0  0  0  0  0  0  0  0
   60.8520   32.4030   47.1690 C   0  0  0  0  0  0  0  0  0  0  0  0
   61.7920   31.5120   47.7000 O   0  0  0  0  0  0  0  0  0  0  0  0
   61.4280   30.4820   48.6170 C   0  0  0  0  0  0  0  0  0  0  0  0
   60.8660   31.0840   49.9090 C   0  0  0  0  0  0  0  0  0  0  0  0
   59.3850   30.7190   50.0980 C   0  0  0  0  0  0  0  0  0  0  0  0
   58.5690   31.9130   50.4080 N   0  0  0  0  0  0  0  0  0  0  0  0
   59.2890   33.1670   50.0620 C   0  0  0  0  0  0  0  0  0  0  0  0
   59.9380   33.8180   51.2920 C   0  0  0  0  0  0  0  0  0  0  0  0
   58.9200   34.2050   52.3010 N   0  0  0  0  0  0  0  0  0  0  0  0
   59.5370   34.2940   53.6360 C   0  0  0  0  0  0  0  0  0  0  0  0
   57.7380   33.3020   52.3170 C   0  0  0  0  0  0  0  0  0  0  0  0
   58.0790   31.8920   51.8110 C   0  0  0  0  0  0  0  0  0  0  0  0
   61.0680   33.7830   47.3150 C   0  0  0  0  0  0  0  0  0  0  0  0
   62.2110   34.2080   48.0120 O   0  0  0  0  0  0  0  0  0  0  0  0
   63.5430   33.8210   47.6900 C   0  0  0  0  0  0  0  0  0  0  0  0
   60.1510   34.6920   46.7600 C   0  0  0  0  0  0  0  0  0  0  0  0
   59.0260   34.2330   46.0740 C   0  0  0  0  0  0  0  0  0  0  0  0
   58.7870   32.8600   45.9440 C   0  0  0  0  0  0  0  0  0  0  0  0
   57.6440   32.4010   45.2690 C   0  0  0  0  0  0  0  0  0  0  0  0
   56.3638   28.7491   43.4183 H   0  0  0  0  0  0  0  0  0  0  0  0
   55.3895   30.0597   42.6701 H   0  0  0  0  0  0  0  0  0  0  0  0
   57.1828   30.1620   42.6701 H   0  0  0  0  0  0  0  0  0  0  0  0
   58.0900   29.0317   45.6412 H   0  0  0  0  0  0  0  0  0  0  0  0
   60.1178   29.8270   46.8412 H   0  0  0  0  0  0  0  0  0  0  0  0
   60.6635   29.8401   48.1548 H   0  0  0  0  0  0  0  0  0  0  0  0
   62.3236   29.8918   48.8611 H   0  0  0  0  0  0  0  0  0  0  0  0
   61.4417   30.6989   50.7636 H   0  0  0  0  0  0  0  0  0  0  0  0
   60.9480   32.1791   49.8458 H   0  0  0  0  0  0  0  0  0  0  0  0
   59.0089   30.2593   49.1721 H   0  0  0  0  0  0  0  0  0  0  0  0
   59.3067   30.0181   50.9422 H   0  0  0  0  0  0  0  0  0  0  0  0
   60.0744   32.9341   49.3279 H   0  0  0  0  0  0  0  0  0  0  0  0
   58.5559   33.8762   49.6503 H   0  0  0  0  0  0  0  0  0  0  0  0
   60.6392   33.1030   51.7472 H   0  0  0  0  0  0  0  0  0  0  0  0
   60.4643   34.7270   50.9652 H   0  0  0  0  0  0  0  0  0  0  0  0
   58.5800   35.1660   52.0580 H   0  0  0  0  0  0  0  0  0  0  0  0
   58.7605   34.1820   54.4070 H   0  0  0  0  0  0  0  0  0  0  0  0
   60.2838   33.4943   53.7488 H   0  0  0  0  0  0  0  0  0  0  0  0
   60.0274   35.2722   53.7488 H   0  0  0  0  0  0  0  0  0  0  0  0
   57.3630   33.2273   53.3484 H   0  0  0  0  0  0  0  0  0  0  0  0
   56.9782   33.7277   51.6451 H   0  0  0  0  0  0  0  0  0  0  0  0
   58.8604   31.4619   52.4547 H   0  0  0  0  0  0  0  0  0  0  0  0
   57.1618   31.2856   51.8440 H   0  0  0  0  0  0  0  0  0  0  0  0
   64.1112   33.6559   48.6173 H   0  0  0  0  0  0  0  0  0  0  0  0
   63.5228   32.8916   47.1020 H   0  0  0  0  0  0  0  0  0  0  0  0
   64.0240   34.6165   47.1020 H   0  0  0  0  0  0  0  0  0  0  0  0
   60.3215   35.7734   46.8672 H   0  0  0  0  0  0  0  0  0  0  0  0
   58.3227   34.9545   45.6327 H   0  0  0  0  0  0  0  0  0  0  0  0
   56.9428   33.1244   44.8274 H   0  0  0  0  0  0  0  0  0  0  0  0
  1  2  1  0
  2  3  1  0
  3  4  2  0
  4  5  1  0
  5  6  2  0
  6  7  1  0
  7  8  1  0
  8  9  1  0
  9 10  1  0
 10 11  1  0
 11 12  1  0
 12 13  1  0
 13 14  1  0
 14 15  1  0
 15 16  1  0
 15 17  1  0
 17 18  1  0
  7 19  2  0
 19 20  1  0
 20 21  1  0
 19 22  1  0
 22 23  2  0
 23 24  1  0
 24 25  2  0
 25  3  1  0
 24  6  1  0
 18 12  1  0
  1 26  1  0
  1 27  1  0
  1 28  1  0
  4 29  1  0
  5 30  1  0
  9 31  1  0
  9 32  1  0
 10 33  1  0
 10 34  1  0
 11 35  1  0
 11 36  1  0
 13 37  1  0
 13 38  1  0
 14 39  1  0
 14 40  1  0
 15 41  1  0
 16 42  1  0
 16 43  1  0
 16 44  1  0
 17 45  1  0
 17 46  1  0
 18 47  1  0
 18 48  1  0
 21 49  1  0
 21 50  1  0
 21 51  1  0
 22 52  1  0
 23 53  1  0
 25 54  1  0
M  CHG  1  15   1
M  END
>  <UniqueID>  (22) 
21

>  <SMILES>  (22) 
COc1ccc2c(OCCCN3CC[NH+](C)CC3)c(OC)ccc2c1

>  <Energy>  (22) 
72.66624835649623

>  <Genealogy>  (22) 
COc1ccc2c(OCCCN3CC[NH+](C)CC3)c(OC)ccc2c1 (protonated)
COc1ccc2c(OCCCN3CC[NH+](C)CC3)c(OC)ccc2c1 (3D coordinates assigned)
COc1ccc2c(OCCCN3CC[NH+](C)CC3)c(OC)ccc2c1 (nonaromatic ring conformer: 72.66624835649623 kcal/mol)

>  <smiles>  (22) 
COc1ccc2c(OCCCN3CCN(C)CC3)c(OC)ccc2c1

>  <score_type>  (22) 
oracle

>  <origin>  (22) 
adg

>  <m_score__min__energy>  (22) 
-5.3300000000000001

>  <m_primary>  (22) 
energy

$$$$
22:0
     RDKit          3D

 52 55  0  0  0  0  0  0  0  0999 V2000
   55.4240   29.7080   43.7590 C   0  0  0  0  0  0  0  0  0  0  0  0
   56.0590   29.0670   44.8610 O   0  0  0  0  0  0  0  0  0  0  0  0
   57.3630   29.3060   45.3420 C   0  0  0  0  0  0  0  0  0  0  0  0
   57.9020   30.6100   45.5170 C   0  0  0  0  0  0  0  0  0  0  0  0
   57.1270   31.7360   45.1880 O   0  0  0  0  0  0  0  0  0  0  0  0
   57.4530   32.7310   44.2160 C   0  0  0  0  0  0  0  0  0  0  0  0
   57.4650   34.1220   44.8520 C   0  0  0  0  0  0  0  0  0  0  0  0
   58.4050   34.1560   45.9700 N   0  0  0  0  0  0  0  0  0  0  0  0
   59.6180   34.7300   45.9860 C   0  0  0  0  0  0  0  0  0  0  0  0
   60.1320   34.5910   47.2550 C   0  0  0  0  0  0  0  0  0  0  0  0
   59.2420   33.9440   48.0370 N   0  0  0  0  0  0  0  0  0  0  0  0
   58.1960   33.6980   47.2190 C   0  0  0  0  0  0  0  0  0  0  0  0
   59.2150   30.7530   46.0110 C   0  0  0  0  0  0  0  0  0  0  0  0
   59.9850   29.6370   46.3290 C   0  0  0  0  0  0  0  0  0  0  0  0
   59.4670   28.3560   46.1600 C   0  0  0  0  0  0  0  0  0  0  0  0
   60.2300   27.2770   46.4720 N   0  0  0  0  0  0  0  0  0  0  0  0
   59.7730   26.0060   46.3270 C   0  0  0  0  0  0  0  0  0  0  0  0
   58.4790   25.7640   45.8460 C   0  0  0  0  0  0  0  0  0  0  0  0
   58.0260   24.4020   45.7010 N   0  0  0  0  0  0  0  0  0  0  0  0
   57.3520   23.8690   44.5080 C   0  0  0  0  0  0  0  0  0  0  0  0
   55.8280   23.8870   44.6960 C   0  0  0  0  0  0  0  0  0  0  0  0
   55.1000   23.3860   43.4280 C   0  0  0  0  0  0  0  0  0  0  0  0
   55.9330   22.5180   42.5740 N   0  0  0  0  0  0  0  0  0  0  0  0
   56.7970   21.6320   43.3660 C   0  0  0  0  0  0  0  0  0  0  0  0
   57.8220   22.4260   44.2050 C   0  0  0  0  0  0  0  0  0  0  0  0
   57.6730   26.8690   45.5100 C   0  0  0  0  0  0  0  0  0  0  0  0
   58.1570   28.1800   45.6660 C   0  0  0  0  0  0  0  0  0  0  0  0
   54.6958   30.4431   44.1323 H   0  0  0  0  0  0  0  0  0  0  0  0
   56.1810   30.2201   43.1468 H   0  0  0  0  0  0  0  0  0  0  0  0
   54.9048   28.9559   43.1468 H   0  0  0  0  0  0  0  0  0  0  0  0
   58.4476   32.5160   43.7983 H   0  0  0  0  0  0  0  0  0  0  0  0
   56.6936   32.7116   43.4204 H   0  0  0  0  0  0  0  0  0  0  0  0
   57.7690   34.8637   44.0987 H   0  0  0  0  0  0  0  0  0  0  0  0
   56.4564   34.3564   45.2231 H   0  0  0  0  0  0  0  0  0  0  0  0
   60.1129   35.2234   45.1366 H   0  0  0  0  0  0  0  0  0  0  0  0
   61.1181   34.9522   47.5823 H   0  0  0  0  0  0  0  0  0  0  0  0
   57.2778   33.1822   47.5368 H   0  0  0  0  0  0  0  0  0  0  0  0
   59.6368   31.7598   46.1470 H   0  0  0  0  0  0  0  0  0  0  0  0
   61.0066   29.7683   46.7152 H   0  0  0  0  0  0  0  0  0  0  0  0
   60.4243   25.1593   46.5894 H   0  0  0  0  0  0  0  0  0  0  0  0
   58.2020   23.7550   46.5030 H   0  0  0  0  0  0  0  0  0  0  0  0
   57.6176   24.5129   43.6566 H   0  0  0  0  0  0  0  0  0  0  0  0
   55.5636   23.2356   45.5420 H   0  0  0  0  0  0  0  0  0  0  0  0
   55.5142   24.9233   44.8900 H   0  0  0  0  0  0  0  0  0  0  0  0
   54.2107   22.8181   43.7388 H   0  0  0  0  0  0  0  0  0  0  0  0
   54.8416   24.2736   42.8319 H   0  0  0  0  0  0  0  0  0  0  0  0
   56.5330   23.1130   41.9550 H   0  0  0  0  0  0  0  0  0  0  0  0
   56.1687   21.0354   44.0437 H   0  0  0  0  0  0  0  0  0  0  0  0
   57.3531   20.9869   42.6699 H   0  0  0  0  0  0  0  0  0  0  0  0
   57.9807   21.8997   45.1578 H   0  0  0  0  0  0  0  0  0  0  0  0
   58.7509   22.4939   43.6197 H   0  0  0  0  0  0  0  0  0  0  0  0
   56.6567   26.7052   45.1224 H   0  0  0  0  0  0  0  0  0  0  0  0
  1  2  1  0
  2  3  1  0
  3  4  2  0
  4  5  1  0
  5  6  1  0
  6  7  1  0
  7  8  1  0
  8  9  1  0
  9 10  2  0
 10 11  1  0
 11 12  2  0
  4 13  1  0
 13 14  2  0
 14 15  1  0
 15 16  2  0
 16 17  1  0
 17 18  2  0
 18 19  1  0
 19 20  1  0
 20 21  1  0
 21 22  1  0
 22 23  1  0
 23 24  1  0
 24 25  1  0
 18 26  1  0
 26 27  2  0
 27  3  1  0
 12  8  1  0
 27 15  1  0
 25 20  1  0
  1 28  1  0
  1 29  1  0
  1 30  1  0
  6 31  1  0
  6 32  1  0
  7 33  1  0
  7 34  1  0
  9 35  1  0
 10 36  1  0
 12 37  1  0
 13 38  1  0
 14 39  1  0
 17 40  1  0
 19 41  1  0
 20 42  1  0
 21 43  1  0
 21 44  1  0
 22 45  1  0
 22 46  1  0
 23 47  1  0
 24 48  1  0
 24 49  1  0
 25 50  1  0
 25 51  1  0
 26 52  1  0
M  END
>  <UniqueID>  (23) 
22

>  <SMILES>  (23) 
COc1c(OCCn2ccnc2)ccc2ncc(NC3CCNCC3)cc12

>  <Energy>  (23) 
93.50371229852685

>  <Genealogy>  (23) 
COc1c(OCCn2ccnc2)ccc2ncc(NC3CCNCC3)cc12 (3D coordinates assigned)
COc1c(OCCn2ccnc2)ccc2ncc(NC3CCNCC3)cc12 (nonaromatic ring conformer: 93.50371229852685 kcal/mol)

>  <smiles>  (23) 
COc1c(OCCn2ccnc2)ccc2ncc(NC3CCNCC3)cc12

>  <score_type>  (23) 
oracle

>  <origin>  (23) 
adg

>  <m_score__min__energy>  (23) 
-8.2400000000000002

>  <m_primary>  (23) 
energy

$$$$
23:0
     RDKit          3D

 45 46  0  0  0  0  0  0  0  0999 V2000
   58.6450   28.2790   46.8010 C   0  0  0  0  0  0  0  0  0  0  0  0
   57.4010   27.7480   46.0960 C   0  0  0  0  0  0  0  0  0  0  0  0
   57.3620   28.2050   44.7020 N   0  0  0  0  0  0  0  0  0  0  0  0
   58.1560   27.4910   43.6960 C   0  0  0  0  0  0  0  0  0  0  0  0
   56.4450   29.2510   44.3140 C   0  0  0  0  0  0  0  0  0  0  0  0
   55.3160   29.3240   44.8740 O   0  0  0  0  0  0  0  0  0  0  0  0
   56.7700   30.2240   43.2040 C   0  0  0  0  0  0  0  0  0  0  0  0
   57.5680   31.4490   43.6890 C   0  0  0  0  0  0  0  0  0  0  0  0
   57.7730   31.5000   45.2140 C   0  0  0  0  0  0  0  0  0  0  0  0
   58.7200   32.5500   45.6150 N   0  0  0  0  0  0  0  0  0  0  0  0
   58.5840   33.8970   45.4570 C   0  0  0  0  0  0  0  0  0  0  0  0
   57.3700   34.5760   44.8890 C   0  0  0  0  0  0  0  0  0  0  0  0
   59.6890   34.5630   45.9890 C   0  0  0  0  0  0  0  0  0  0  0  0
   59.9330   36.0420   46.0050 C   0  0  0  0  0  0  0  0  0  0  0  0
   60.5370   33.5720   46.4470 C   0  0  0  0  0  0  0  0  0  0  0  0
   61.7950   33.6500   47.0460 C   0  0  0  0  0  0  0  0  0  0  0  0
   62.4220   32.4510   47.4320 C   0  0  0  0  0  0  0  0  0  0  0  0
   63.6790   32.4980   48.0300 O   0  0  0  0  0  0  0  0  0  0  0  0
   61.7760   31.2120   47.2150 C   0  0  0  0  0  0  0  0  0  0  0  0
   60.5100   31.1620   46.6070 C   0  0  0  0  0  0  0  0  0  0  0  0
   59.9150   32.3680   46.2210 C   0  0  0  0  0  0  0  0  0  0  0  0
   58.5032   28.2185   47.8901 H   0  0  0  0  0  0  0  0  0  0  0  0
   59.5171   27.6747   46.5106 H   0  0  0  0  0  0  0  0  0  0  0  0
   58.8119   29.3268   46.5106 H   0  0  0  0  0  0  0  0  0  0  0  0
   57.4162   26.6483   46.1155 H   0  0  0  0  0  0  0  0  0  0  0  0
   56.5094   28.1258   46.6179 H   0  0  0  0  0  0  0  0  0  0  0  0
   58.8832   26.8370   44.1994 H   0  0  0  0  0  0  0  0  0  0  0  0
   57.4895   26.8825   43.0671 H   0  0  0  0  0  0  0  0  0  0  0  0
   58.6906   28.2181   43.0671 H   0  0  0  0  0  0  0  0  0  0  0  0
   57.3636   29.6992   42.4410 H   0  0  0  0  0  0  0  0  0  0  0  0
   55.8152   30.5929   42.8011 H   0  0  0  0  0  0  0  0  0  0  0  0
   58.5569   31.4301   43.2076 H   0  0  0  0  0  0  0  0  0  0  0  0
   56.9811   32.3387   43.4172 H   0  0  0  0  0  0  0  0  0  0  0  0
   56.8033   31.6959   45.6949 H   0  0  0  0  0  0  0  0  0  0  0  0
   58.1900   30.5324   45.5299 H   0  0  0  0  0  0  0  0  0  0  0  0
   56.7316   34.9331   45.7105 H   0  0  0  0  0  0  0  0  0  0  0  0
   57.6832   35.4299   44.2703 H   0  0  0  0  0  0  0  0  0  0  0  0
   56.8064   33.8621   44.2703 H   0  0  0  0  0  0  0  0  0  0  0  0
   59.9909   36.3928   47.0459 H   0  0  0  0  0  0  0  0  0  0  0  0
   60.8797   36.2630   45.4904 H   0  0  0  0  0  0  0  0  0  0  0  0
   59.1074   36.5554   45.4904 H   0  0  0  0  0  0  0  0  0  0  0  0
   62.2829   34.6219   47.2118 H   0  0  0  0  0  0  0  0  0  0  0  0
   64.5260   32.3790   47.4870 H   0  0  0  0  0  0  0  0  0  0  0  0
   62.2689   30.2788   47.5249 H   0  0  0  0  0  0  0  0  0  0  0  0
   60.0010   30.2014   46.4392 H   0  0  0  0  0  0  0  0  0  0  0  0
  1  2  1  0
  2  3  1  0
  3  4  1  0
  3  5  1  0
  5  6  2  0
  5  7  1  0
  7  8  1  0
  8  9  1  0
  9 10  1  0
 10 11  1  0
 11 12  1  0
 11 13  2  0
 13 14  1  0
 13 15  1  0
 15 16  2  0
 16 17  1  0
 17 18  1  0
 17 19  2  0
 19 20  1  0
 20 21  2  0
 21 10  1  0
 21 15  1  0
  1 22  1  0
  1 23  1  0
  1 24  1  0
  2 25  1  0
  2 26  1  0
  4 27  1  0
  4 28  1  0
  4 29  1  0
  7 30  1  0
  7 31  1  0
  8 32  1  0
  8 33  1  0
  9 34  1  0
  9 35  1  0
 12 36  1  0
 12 37  1  0
 12 38  1  0
 14 39  1  0
 14 40  1  0
 14 41  1  0
 16 42  1  0
 18 43  1  0
 19 44  1  0
 20 45  1  0
M  END
>  <UniqueID>  (24) 
23

>  <SMILES>  (24) 
CCN(C)C(=O)CCCn1c(C)c(C)c2cc(O)ccc21

>  <Energy>  (24) 
66.54491470077528

>  <Genealogy>  (24) 
CCN(C)C(=O)CCCn1c(C)c(C)c2cc(O)ccc21 (3D coordinates assigned)
CCN(C)C(=O)CCCn1c(C)c(C)c2cc(O)ccc21 (optimized conformer: 66.54491470077528 kcal/mol)

>  <smiles>  (24) 
CCN(C)C(=O)CCCn1c(C)c(C)c2cc(O)ccc21

>  <score_type>  (24) 
oracle

>  <origin>  (24) 
adg

>  <m_score__min__energy>  (24) 
-7.1299999999999999

>  <m_primary>  (24) 
energy

$$$$
24:0
     RDKit          3D

 47 49  0  0  0  0  0  0  0  0999 V2000
   64.7600   32.9930   49.7010 C   0  0  0  0  0  0  0  0  0  0  0  0
   63.8140   32.4320   48.7970 O   0  0  0  0  0  0  0  0  0  0  0  0
   62.6870   33.1110   48.3100 C   0  0  0  0  0  0  0  0  0  0  0  0
   61.6120   33.4810   49.1380 C   0  0  0  0  0  0  0  0  0  0  0  0
   60.5140   34.1630   48.6060 C   0  0  0  0  0  0  0  0  0  0  0  0
   60.4830   34.5160   47.2460 C   0  0  0  0  0  0  0  0  0  0  0  0
   59.2860   35.2520   46.6630 C   0  0  0  0  0  0  0  0  0  0  0  0
   58.2900   34.4180   45.9390 N   0  0  0  0  0  0  0  0  0  0  0  0
   58.8250   33.5060   44.9170 C   0  0  0  0  0  0  0  0  0  0  0  0
   58.2810   32.2630   45.6360 C   0  0  0  0  0  0  0  0  0  0  0  0
   57.1620   31.5140   44.8700 C   0  0  0  0  0  0  0  0  0  0  0  0
   57.7420   30.2940   44.1410 C   0  0  0  0  0  0  0  0  0  0  0  0
   58.4070   29.3290   45.0560 N   0  0  0  0  0  0  0  0  0  0  0  0
   57.3930   27.9370   45.3540 S   0  0  0  0  0  0  0  0  0  0  0  0
   57.7750   26.6470   44.1880 C   0  0  0  0  0  0  0  0  0  0  0  0
   57.6450   27.4100   46.7400 O   0  0  0  0  0  0  0  0  0  0  0  0
   55.9430   28.3140   45.2260 O   0  0  0  0  0  0  0  0  0  0  0  0
   58.8560   29.9050   46.3440 C   0  0  0  0  0  0  0  0  0  0  0  0
   59.3970   31.3260   46.1670 C   0  0  0  0  0  0  0  0  0  0  0  0
   57.7360   33.2640   46.6650 C   0  0  0  0  0  0  0  0  0  0  0  0
   61.5370   34.1010   46.4140 C   0  0  0  0  0  0  0  0  0  0  0  0
   62.6340   33.4180   46.9470 C   0  0  0  0  0  0  0  0  0  0  0  0
   64.4372   32.8016   50.7350 H   0  0  0  0  0  0  0  0  0  0  0  0
   65.7450   32.5329   49.5332 H   0  0  0  0  0  0  0  0  0  0  0  0
   64.8287   34.0780   49.5332 H   0  0  0  0  0  0  0  0  0  0  0  0
   61.6354   33.2325   50.2093 H   0  0  0  0  0  0  0  0  0  0  0  0
   59.6672   34.4256   49.2571 H   0  0  0  0  0  0  0  0  0  0  0  0
   58.7645   35.7535   47.4916 H   0  0  0  0  0  0  0  0  0  0  0  0
   59.7008   35.9361   45.9080 H   0  0  0  0  0  0  0  0  0  0  0  0
   57.5250   35.0130   45.5420 H   0  0  0  0  0  0  0  0  0  0  0  0
   58.3885   33.6613   43.9193 H   0  0  0  0  0  0  0  0  0  0  0  0
   59.8961   33.5522   44.6708 H   0  0  0  0  0  0  0  0  0  0  0  0
   56.3946   31.1796   45.5836 H   0  0  0  0  0  0  0  0  0  0  0  0
   56.7164   32.1952   44.1301 H   0  0  0  0  0  0  0  0  0  0  0  0
   56.9234   29.7755   43.6204 H   0  0  0  0  0  0  0  0  0  0  0  0
   58.5067   30.6630   43.4417 H   0  0  0  0  0  0  0  0  0  0  0  0
   58.0465   25.7300   44.7316 H   0  0  0  0  0  0  0  0  0  0  0  0
   56.8961   26.4519   43.5560 H   0  0  0  0  0  0  0  0  0  0  0  0
   58.6184   26.9620   43.5560 H   0  0  0  0  0  0  0  0  0  0  0  0
   58.0043   29.9312   47.0397 H   0  0  0  0  0  0  0  0  0  0  0  0
   59.6664   29.2748   46.7392 H   0  0  0  0  0  0  0  0  0  0  0  0
   59.7555   31.7015   47.1368 H   0  0  0  0  0  0  0  0  0  0  0  0
   60.2241   31.3069   45.4420 H   0  0  0  0  0  0  0  0  0  0  0  0
   56.6379   33.2725   46.7293 H   0  0  0  0  0  0  0  0  0  0  0  0
   57.9923   33.1295   47.7262 H   0  0  0  0  0  0  0  0  0  0  0  0
   61.4984   34.3152   45.3357 H   0  0  0  0  0  0  0  0  0  0  0  0
   63.4628   33.1194   46.2883 H   0  0  0  0  0  0  0  0  0  0  0  0
  1  2  1  0
  2  3  1  0
  3  4  2  0
  4  5  1  0
  5  6  2  0
  6  7  1  0
  7  8  1  0
  8  9  1  0
  9 10  1  0
 10 11  1  0
 11 12  1  0
 12 13  1  0
 13 14  1  0
 14 15  1  0
 14 16  2  0
 14 17  2  0
 13 18  1  0
 18 19  1  0
 10 20  1  0
  6 21  1  0
 21 22  2  0
 22  3  1  0
 20  8  1  0
 19 10  1  0
  1 23  1  0
  1 24  1  0
  1 25  1  0
  4 26  1  0
  5 27  1  0
  7 28  1  0
  7 29  1  0
  8 30  1  0
  9 31  1  0
  9 32  1  0
 11 33  1  0
 11 34  1  0
 12 35  1  0
 12 36  1  0
 15 37  1  0
 15 38  1  0
 15 39  1  0
 18 40  1  0
 18 41  1  0
 19 42  1  0
 19 43  1  0
 20 44  1  0
 20 45  1  0
 21 46  1  0
 22 47  1  0
M  CHG  1   8   1
M  END
>  <UniqueID>  (25) 
24

>  <SMILES>  (25) 
COc1ccc(C[NH+]2CC3(CCN(S(C)(=O)=O)CC3)C2)cc1

>  <Energy>  (25) 
127.70008553179449

>  <Genealogy>  (25) 
COc1ccc(C[NH+]2CC3(CCN(S(C)(=O)=O)CC3)C2)cc1 (protonated)
COc1ccc(C[NH+]2CC3(CCN(S(C)(=O)=O)CC3)C2)cc1 (3D coordinates assigned)
COc1ccc(C[NH+]2CC3(CCN(S(C)(=O)=O)CC3)C2)cc1 (nonaromatic ring conformer: 127.70008553179449 kcal/mol)

>  <smiles>  (25) 
COc1ccc(CN2CC3(CCN(S(C)(=O)=O)CC3)C2)cc1

>  <score_type>  (25) 
oracle

>  <origin>  (25) 
adg

>  <m_score__min__energy>  (25) 
-6.1399999999999997

>  <m_primary>  (25) 
energy

$$$$
25:0
     RDKit          3D

 30 32  0  0  0  0  0  0  0  0999 V2000
   58.7460   28.3310   44.5200 C   0  0  0  0  0  0  0  0  0  0  0  0
   58.1320   29.0370   45.7230 C   0  0  0  0  0  0  0  0  0  0  0  0
   58.3360   30.4870   45.6240 N   0  0  0  0  0  0  0  0  0  0  0  0
   57.3950   31.3320   44.9280 C   0  0  0  0  0  0  0  0  0  0  0  0
   56.3040   30.8610   44.5060 O   0  0  0  0  0  0  0  0  0  0  0  0
   57.7400   32.7710   44.6230 C   0  0  0  0  0  0  0  0  0  0  0  0
   58.6140   33.4020   45.7220 C   0  0  0  0  0  0  0  0  0  0  0  0
   59.6510   32.4630   46.1410 N   0  0  0  0  0  0  0  0  0  0  0  0
   59.5150   31.1190   46.1470 C   0  0  0  0  0  0  0  0  0  0  0  0
   60.5710   30.4760   46.7080 N   0  0  0  0  0  0  0  0  0  0  0  0
   61.3860   31.4800   47.0850 C   0  0  0  0  0  0  0  0  0  0  0  0
   62.6080   31.3930   47.7470 C   0  0  0  0  0  0  0  0  0  0  0  0
   63.2610   32.5970   48.0720 C   0  0  0  0  0  0  0  0  0  0  0  0
   62.6800   33.8430   47.7360 C   0  0  0  0  0  0  0  0  0  0  0  0
   61.4410   33.8980   47.0700 C   0  0  0  0  0  0  0  0  0  0  0  0
   60.8260   32.6860   46.7550 C   0  0  0  0  0  0  0  0  0  0  0  0
   59.4309   27.5434   44.8673 H   0  0  0  0  0  0  0  0  0  0  0  0
   57.9474   27.8806   43.9122 H   0  0  0  0  0  0  0  0  0  0  0  0
   59.3028   29.0594   43.9122 H   0  0  0  0  0  0  0  0  0  0  0  0
   57.0533   28.8242   45.7566 H   0  0  0  0  0  0  0  0  0  0  0  0
   58.6183   28.6699   46.6388 H   0  0  0  0  0  0  0  0  0  0  0  0
   58.2863   32.8103   43.6690 H   0  0  0  0  0  0  0  0  0  0  0  0
   56.8005   33.3405   44.5685 H   0  0  0  0  0  0  0  0  0  0  0  0
   59.0867   34.3151   45.3311 H   0  0  0  0  0  0  0  0  0  0  0  0
   57.9812   33.6484   46.5874 H   0  0  0  0  0  0  0  0  0  0  0  0
   60.7230   29.4510   46.8380 H   0  0  0  0  0  0  0  0  0  0  0  0
   63.0472   30.4185   48.0066 H   0  0  0  0  0  0  0  0  0  0  0  0
   64.2304   32.5692   48.5911 H   0  0  0  0  0  0  0  0  0  0  0  0
   63.2008   34.7760   47.9974 H   0  0  0  0  0  0  0  0  0  0  0  0
   60.9756   34.8597   46.8080 H   0  0  0  0  0  0  0  0  0  0  0  0
  1  2  1  0
  2  3  1  0
  3  4  1  0
  4  5  2  0
  4  6  1  0
  6  7  1  0
  7  8  1  0
  8  9  1  0
  9 10  2  0
 10 11  1  0
 11 12  2  0
 12 13  1  0
 13 14  2  0
 14 15  1  0
 15 16  2  0
  9  3  1  0
 16 11  1  0
 16  8  1  0
  1 17  1  0
  1 18  1  0
  1 19  1  0
  2 20  1  0
  2 21  1  0
  6 22  1  0
  6 23  1  0
  7 24  1  0
  7 25  1  0
 10 26  1  0
 12 27  1  0
 13 28  1  0
 14 29  1  0
 15 30  1  0
M  CHG  1  10   1
M  END
>  <UniqueID>  (26) 
25

>  <SMILES>  (26) 
CCN1C(=O)CCn2c1[nH+]c1ccccc12

>  <Energy>  (26) 
69.39869819846858

>  <Genealogy>  (26) 
CCN1C(=O)CCn2c1[nH+]c1ccccc12 (protonated)
CCN1C(=O)CCn2c1[nH+]c1ccccc12 (3D coordinates assigned)
CCN1C(=O)CCn2c1[nH+]c1ccccc12 (nonaromatic ring conformer: 69.39869819846858 kcal/mol)

>  <smiles>  (26) 
CCN1C(=O)CCn2c1nc1ccccc12

>  <score_type>  (26) 
oracle

>  <origin>  (26) 
adg

>  <m_score__min__energy>  (26) 
-4.46

>  <m_primary>  (26) 
energy

$$$$
26:0
     RDKit          3D

 21 21  0  0  0  0  0  0  0  0999 V2000
   58.8119   34.1468   43.8735 H   0  0  0  0  0  0  0  0  0  0  0  0
   58.2930   33.2480   44.2380 C   0  0  0  0  0  0  0  0  0  0  0  0
   58.0390   32.9100   45.5480 C   0  0  0  0  0  0  0  0  0  0  0  0
   58.5400   33.9340   47.0770 Br  0  0  0  0  0  0  0  0  0  0  0  0
   57.3990   31.7660   45.6030 O   0  0  0  0  0  0  0  0  0  0  0  0
   57.2100   31.3300   44.3770 C   0  0  0  0  0  0  0  0  0  0  0  0
   56.5350   30.0450   44.0770 C   0  0  0  0  0  0  0  0  0  0  0  0
   56.2770   29.1550   44.9880 N   0  0  0  0  0  0  0  0  0  0  0  0
   56.7300   27.8560   44.9250 O   0  0  0  0  0  0  0  0  0  0  0  0
   57.0050   27.1320   46.1110 C   0  0  0  0  0  0  0  0  0  0  0  0
   57.9551   26.5893   45.9979 H   0  0  0  0  0  0  0  0  0  0  0  0
   57.0811   27.8293   46.9583 H   0  0  0  0  0  0  0  0  0  0  0  0
   55.9040   26.1600   46.3630 C   0  0  0  0  0  0  0  0  0  0  0  0
   54.7660   26.3470   45.8560 O   0  0  0  0  0  0  0  0  0  0  0  0
   56.1450   25.0120   47.1080 O   0  0  0  0  0  0  0  0  0  0  0  0
   56.2350   29.7100   42.6490 C   0  0  0  0  0  0  0  0  0  0  0  0
   55.5016   28.8910   42.6108 H   0  0  0  0  0  0  0  0  0  0  0  0
   55.8224   30.5956   42.1435 H   0  0  0  0  0  0  0  0  0  0  0  0
   57.1606   29.3972   42.1435 H   0  0  0  0  0  0  0  0  0  0  0  0
   57.7630   32.2280   43.4770 C   0  0  0  0  0  0  0  0  0  0  0  0
   57.7762   32.1438   42.3803 H   0  0  0  0  0  0  0  0  0  0  0  0
  1  2  1  0
  2  3  2  0
  3  4  1  0
  3  5  1  0
  5  6  1  0
  6  7  1  0
  7  8  2  0
  8  9  1  0
  9 10  1  0
 10 11  1  0
 10 12  1  0
 10 13  1  0
 13 14  2  0
 13 15  1  0
  7 16  1  0
 16 17  1  0
 16 18  1  0
 16 19  1  0
  6 20  2  0
 20 21  1  0
 20  2  1  0
M  CHG  1  15  -1
M  END
>  <UniqueID>  (27) 
26

>  <SMILES>  (27) 
C/C(=N/OCC(=O)[O-])c1ccc(Br)o1

>  <Energy>  (27) 
41.39359873080634

>  <Genealogy>  (27) 
CC(=NOCC(=O)[O-])c1ccc(Br)o1 (protonated)
C/C(=N/OCC(=O)[O-])c1ccc(Br)o1 (cis-trans isomerization)
C/C(=N/OCC(=O)[O-])c1ccc(Br)o1 (3D coordinates assigned)
C/C(=N/OCC(=O)[O-])c1ccc(Br)o1 (optimized conformer: 41.39359873080634 kcal/mol)

>  <smiles>  (27) 
CC(=NOCC(=O)O)c1ccc(Br)o1

>  <score_type>  (27) 
oracle

>  <origin>  (27) 
adg

>  <m_score__min__energy>  (27) 
-9.3499999999999996

>  <m_primary>  (27) 
energy

$$$$
27:0
     RDKit          3D

 48 50  0  0  0  0  0  0  0  0999 V2000
   56.7620   25.9410   46.3670 C   0  0  0  0  0  0  0  0  0  0  0  0
   58.0890   26.1490   47.1140 C   0  0  0  0  0  0  0  0  0  0  0  0
   58.8390   27.3470   46.6730 N   0  0  0  0  0  0  0  0  0  0  0  0
   59.2800   27.2640   45.2600 C   0  0  0  0  0  0  0  0  0  0  0  0
   60.3910   28.2790   45.0170 C   0  0  0  0  0  0  0  0  0  0  0  0
   59.9220   27.7190   47.6090 C   0  0  0  0  0  0  0  0  0  0  0  0
   59.7610   29.1700   48.0780 C   0  0  0  0  0  0  0  0  0  0  0  0
   58.5700   29.7770   47.4840 N   0  0  0  0  0  0  0  0  0  0  0  0
   58.6120   31.0750   46.8690 C   0  0  0  0  0  0  0  0  0  0  0  0
   58.2120   31.2350   45.5320 C   0  0  0  0  0  0  0  0  0  0  0  0
   57.6910   30.1480   44.7990 C   0  0  0  0  0  0  0  0  0  0  0  0
   57.2630   30.3160   43.4850 C   0  0  0  0  0  0  0  0  0  0  0  0
   57.3340   31.5680   42.8840 C   0  0  0  0  0  0  0  0  0  0  0  0
   57.8570   32.6550   43.5850 C   0  0  0  0  0  0  0  0  0  0  0  0
   58.3390   32.5070   44.9120 C   0  0  0  0  0  0  0  0  0  0  0  0
   58.9080   33.5610   45.6020 N   0  0  0  0  0  0  0  0  0  0  0  0
   59.3040   34.7930   44.8820 C   0  0  0  0  0  0  0  0  0  0  0  0
   59.1210   33.4570   46.9640 C   0  0  0  0  0  0  0  0  0  0  0  0
   59.4420   34.5830   47.7640 C   0  0  0  0  0  0  0  0  0  0  0  0
   59.6650   34.4480   49.0960 N   0  0  0  0  0  0  0  0  0  0  0  0
   59.5850   33.2480   49.7180 C   0  0  0  0  0  0  0  0  0  0  0  0
   59.2410   32.1100   48.9970 C   0  0  0  0  0  0  0  0  0  0  0  0
   59.0010   32.2030   47.6120 C   0  0  0  0  0  0  0  0  0  0  0  0
   55.9474   25.8133   47.0952 H   0  0  0  0  0  0  0  0  0  0  0  0
   56.5553   26.8177   45.7356 H   0  0  0  0  0  0  0  0  0  0  0  0
   56.8335   25.0431   45.7356 H   0  0  0  0  0  0  0  0  0  0  0  0
   57.8709   26.2514   48.1873 H   0  0  0  0  0  0  0  0  0  0  0  0
   58.7211   25.2757   46.8955 H   0  0  0  0  0  0  0  0  0  0  0  0
   59.6557   26.2514   45.0515 H   0  0  0  0  0  0  0  0  0  0  0  0
   58.4306   27.4824   44.5961 H   0  0  0  0  0  0  0  0  0  0  0  0
   60.7803   28.6347   45.9824 H   0  0  0  0  0  0  0  0  0  0  0  0
   61.2030   27.8043   44.4466 H   0  0  0  0  0  0  0  0  0  0  0  0
   59.9914   29.1305   44.4466 H   0  0  0  0  0  0  0  0  0  0  0  0
   59.8887   27.0516   48.4828 H   0  0  0  0  0  0  0  0  0  0  0  0
   60.8866   27.6211   47.0894 H   0  0  0  0  0  0  0  0  0  0  0  0
   59.6664   29.1868   49.1738 H   0  0  0  0  0  0  0  0  0  0  0  0
   60.6449   29.7436   47.7621 H   0  0  0  0  0  0  0  0  0  0  0  0
   57.6800   29.2320   47.4550 H   0  0  0  0  0  0  0  0  0  0  0  0
   57.6222   29.1568   45.2709 H   0  0  0  0  0  0  0  0  0  0  0  0
   56.8683   29.4576   42.9216 H   0  0  0  0  0  0  0  0  0  0  0  0
   56.9766   31.7018   41.8523 H   0  0  0  0  0  0  0  0  0  0  0  0
   57.8965   33.6424   43.1018 H   0  0  0  0  0  0  0  0  0  0  0  0
   59.5563   35.5781   45.6100 H   0  0  0  0  0  0  0  0  0  0  0  0
   60.1800   34.5832   44.2506 H   0  0  0  0  0  0  0  0  0  0  0  0
   58.4698   35.1329   44.2506 H   0  0  0  0  0  0  0  0  0  0  0  0
   59.5111   35.5777   47.2995 H   0  0  0  0  0  0  0  0  0  0  0  0
   59.7925   33.1733   50.7957 H   0  0  0  0  0  0  0  0  0  0  0  0
   59.1564   31.1391   49.5070 H   0  0  0  0  0  0  0  0  0  0  0  0
  1  2  1  0
  2  3  1  0
  3  4  1  0
  4  5  1  0
  3  6  1  0
  6  7  1  0
  7  8  1  0
  8  9  1  0
  9 10  2  0
 10 11  1  0
 11 12  2  0
 12 13  1  0
 13 14  2  0
 14 15  1  0
 15 16  2  0
 16 17  1  0
 16 18  1  0
 18 19  2  0
 19 20  1  0
 20 21  2  0
 21 22  1  0
 22 23  2  0
 23  9  1  0
 15 10  1  0
 23 18  1  0
  1 24  1  0
  1 25  1  0
  1 26  1  0
  2 27  1  0
  2 28  1  0
  4 29  1  0
  4 30  1  0
  5 31  1  0
  5 32  1  0
  5 33  1  0
  6 34  1  0
  6 35  1  0
  7 36  1  0
  7 37  1  0
  8 38  1  0
 11 39  1  0
 12 40  1  0
 13 41  1  0
 14 42  1  0
 17 43  1  0
 17 44  1  0
 17 45  1  0
 19 46  1  0
 21 47  1  0
 22 48  1  0
M  CHG  1  16   1
M  END
>  <UniqueID>  (28) 
27

>  <SMILES>  (28) 
CCN(CC)CCNc1c2ccccc2[n+](C)c2cnccc12

>  <Energy>  (28) 
75.41653768020134

>  <Genealogy>  (28) 
CCN(CC)CCNc1c2ccccc2[n+](C)c2cnccc12 (3D coordinates assigned)
CCN(CC)CCNc1c2ccccc2[n+](C)c2cnccc12 (optimized conformer: 75.41653768020134 kcal/mol)

>  <smiles>  (28) 
CCN(CC)CCNc1c2ccccc2[n+](C)c2cnccc12

>  <score_type>  (28) 
oracle

>  <origin>  (28) 
adg

>  <m_score__min__energy>  (28) 
-5.0800000000000001

>  <m_primary>  (28) 
energy

$$$$
28:0
     RDKit          3D

 77 81  0  0  0  0  0  0  0  0999 V2000
   58.1993   25.4105   41.9062 H   0  0  0  0  0  0  0  0  0  0  0  0
   57.7680   25.5730   42.9050 C   0  0  0  0  0  0  0  0  0  0  0  0
   57.9810   26.7870   43.5640 C   0  0  0  0  0  0  0  0  0  0  0  0
   58.5616   27.5815   43.0724 H   0  0  0  0  0  0  0  0  0  0  0  0
   57.4590   26.9980   44.8480 C   0  0  0  0  0  0  0  0  0  0  0  0
   57.6990   28.2850   45.5330 C   0  0  0  0  0  0  0  0  0  0  0  0
   57.2450   29.4200   44.9350 N   0  0  0  0  0  0  0  0  0  0  0  0
   57.4060   30.6410   45.5050 C   0  0  0  0  0  0  0  0  0  0  0  0
   56.9220   31.6920   44.9140 N   0  0  0  0  0  0  0  0  0  0  0  0
   57.4090   33.0590   45.1240 C   0  0  0  0  0  0  0  0  0  0  0  0
   56.7686   33.7034   44.5038 H   0  0  0  0  0  0  0  0  0  0  0  0
   58.8790   33.1970   44.7450 C   0  0  0  0  0  0  0  0  0  0  0  0
   59.4172   32.2587   44.9450 H   0  0  0  0  0  0  0  0  0  0  0  0
   59.0053   33.4173   43.6747 H   0  0  0  0  0  0  0  0  0  0  0  0
   59.4210   34.3170   45.6190 C   0  0  0  0  0  0  0  0  0  0  0  0
   60.4477   34.0856   45.9389 H   0  0  0  0  0  0  0  0  0  0  0  0
   59.4498   35.2697   45.0700 H   0  0  0  0  0  0  0  0  0  0  0  0
   58.4990   34.4090   46.8330 C   0  0  0  0  0  0  0  0  0  0  0  0
   59.0488   34.1385   47.7465 H   0  0  0  0  0  0  0  0  0  0  0  0
   58.1175   35.4329   46.9599 H   0  0  0  0  0  0  0  0  0  0  0  0
   57.3550   33.4260   46.5990 C   0  0  0  0  0  0  0  0  0  0  0  0
   57.4896   32.5286   47.2208 H   0  0  0  0  0  0  0  0  0  0  0  0
   56.3842   33.8679   46.8678 H   0  0  0  0  0  0  0  0  0  0  0  0
   58.0550   30.7450   46.6940 N   0  0  0  0  0  0  0  0  0  0  0  0
   58.5500   29.6560   47.3350 C   0  0  0  0  0  0  0  0  0  0  0  0
   58.3910   28.3780   46.7650 C   0  0  0  0  0  0  0  0  0  0  0  0
   58.8770   27.1590   47.5240 C   0  0  0  0  0  0  0  0  0  0  0  0
   58.0693   26.8073   48.1827 H   0  0  0  0  0  0  0  0  0  0  0  0
   59.1563   26.3926   46.7860 H   0  0  0  0  0  0  0  0  0  0  0  0
   60.1150   27.4600   48.3790 C   0  0  0  0  0  0  0  0  0  0  0  0
   60.2809   26.6213   49.0711 H   0  0  0  0  0  0  0  0  0  0  0  0
   60.9713   27.5926   47.7014 H   0  0  0  0  0  0  0  0  0  0  0  0
   59.9550   28.7260   49.1790 C   0  0  0  0  0  0  0  0  0  0  0  0
   60.6190   28.8710   50.4040 C   0  0  0  0  0  0  0  0  0  0  0  0
   61.1828   28.0251   50.8242 H   0  0  0  0  0  0  0  0  0  0  0  0
   60.5690   30.0830   51.0940 C   0  0  0  0  0  0  0  0  0  0  0  0
   61.0809   30.1794   52.0628 H   0  0  0  0  0  0  0  0  0  0  0  0
   59.8730   31.1790   50.5650 C   0  0  0  0  0  0  0  0  0  0  0  0
   59.8960   32.4300   51.2780 N   0  0  0  0  0  0  0  0  0  0  0  0
   60.8310   32.8270   51.5210 H   0  0  0  0  0  0  0  0  0  0  0  0
   58.7400   33.1090   51.8000 C   0  0  0  0  0  0  0  0  0  0  0  0
   57.5990   32.5800   51.7460 O   0  0  0  0  0  0  0  0  0  0  0  0
   58.8930   34.4610   52.4530 C   0  0  0  0  0  0  0  0  0  0  0  0
   59.4625   35.1128   51.7742 H   0  0  0  0  0  0  0  0  0  0  0  0
   57.8797   34.8428   52.6466 H   0  0  0  0  0  0  0  0  0  0  0  0
   59.5950   34.4130   53.7540 N   0  0  0  0  0  0  0  0  0  0  0  0
   59.2670   35.5590   54.6160 C   0  0  0  0  0  0  0  0  0  0  0  0
   59.3525   35.2604   55.6712 H   0  0  0  0  0  0  0  0  0  0  0  0
   59.9651   36.3839   54.4107 H   0  0  0  0  0  0  0  0  0  0  0  0
   58.2382   35.8896   54.4107 H   0  0  0  0  0  0  0  0  0  0  0  0
   59.3770   33.1430   54.4630 C   0  0  0  0  0  0  0  0  0  0  0  0
   59.4072   33.3191   55.5484 H   0  0  0  0  0  0  0  0  0  0  0  0
   58.3952   32.7320   54.1854 H   0  0  0  0  0  0  0  0  0  0  0  0
   60.1656   32.4281   54.1854 H   0  0  0  0  0  0  0  0  0  0  0  0
   59.2360   31.0450   49.3180 C   0  0  0  0  0  0  0  0  0  0  0  0
   58.7180   31.9090   48.8762 H   0  0  0  0  0  0  0  0  0  0  0  0
   59.2540   29.8190   48.6300 C   0  0  0  0  0  0  0  0  0  0  0  0
   56.6860   25.9930   45.4490 C   0  0  0  0  0  0  0  0  0  0  0  0
   56.2448   26.1618   46.4424 H   0  0  0  0  0  0  0  0  0  0  0  0
   56.4740   24.7770   44.7900 C   0  0  0  0  0  0  0  0  0  0  0  0
   55.8859   23.9855   45.2775 H   0  0  0  0  0  0  0  0  0  0  0  0
   57.0090   24.5620   43.5080 C   0  0  0  0  0  0  0  0  0  0  0  0
   56.8620   23.3110   42.8220 N   0  0  0  0  0  0  0  0  0  0  0  0
   57.0000   22.0080   43.4020 C   0  0  0  0  0  0  0  0  0  0  0  0
   55.9940   21.2560   43.5230 O   0  0  0  0  0  0  0  0  0  0  0  0
   58.3700   21.5120   43.7620 C   0  0  0  0  0  0  0  0  0  0  0  0
   59.1100   21.9808   43.0967 H   0  0  0  0  0  0  0  0  0  0  0  0
   58.3915   20.4183   43.6467 H   0  0  0  0  0  0  0  0  0  0  0  0
   58.6970   21.8490   45.1670 N   0  0  0  0  0  0  0  0  0  0  0  0
   59.4140   23.1340   45.2460 C   0  0  0  0  0  0  0  0  0  0  0  0
   59.5653   23.4052   46.3013 H   0  0  0  0  0  0  0  0  0  0  0  0
   60.3903   23.0404   44.7479 H   0  0  0  0  0  0  0  0  0  0  0  0
   58.8216   23.9156   44.7479 H   0  0  0  0  0  0  0  0  0  0  0  0
   57.4780   21.9170   45.9870 C   0  0  0  0  0  0  0  0  0  0  0  0
   57.7514   21.9017   47.0524 H   0  0  0  0  0  0  0  0  0  0  0  0
   56.9354   22.8468   45.7610 H   0  0  0  0  0  0  0  0  0  0  0  0
   56.8354   21.0533   45.7610 H   0  0  0  0  0  0  0  0  0  0  0  0
  1  2  1  0
  2  3  2  0
  3  4  1  0
  3  5  1  0
  5  6  1  0
  6  7  2  0
  7  8  1  0
  8  9  2  0
  9 10  1  0
 10 11  1  0
 10 12  1  0
 12 13  1  0
 12 14  1  0
 12 15  1  0
 15 16  1  0
 15 17  1  0
 15 18  1  0
 18 19  1  0
 18 20  1  0
 18 21  1  0
 21 22  1  0
 21 23  1  0
  8 24  1  0
 24 25  1  0
 25 26  2  0
 26 27  1  0
 27 28  1  0
 27 29  1  0
 27 30  1  0
 30 31  1  0
 30 32  1  0
 30 33  1  0
 33 34  2  0
 34 35  1  0
 34 36  1  0
 36 37  1  0
 36 38  2  0
 38 39  1  0
 39 40  1  0
 39 41  1  0
 41 42  2  0
 41 43  1  0
 43 44  1  0
 43 45  1  0
 43 46  1  0
 46 47  1  0
 47 48  1  0
 47 49  1  0
 47 50  1  0
 46 51  1  0
 51 52  1  0
 51 53  1  0
 51 54  1  0
 38 55  1  0
 55 56  1  0
 55 57  2  0
  5 58  2  0
 58 59  1  0
 58 60  1  0
 60 61  1  0
 60 62  2  0
 62 63  1  0
 63 64  1  0
 64 65  2  0
 64 66  1  0
 66 67  1  0
 66 68  1  0
 66 69  1  0
 69 70  1  0
 70 71  1  0
 70 72  1  0
 70 73  1  0
 69 74  1  0
 74 75  1  0
 74 76  1  0
 74 77  1  0
 62  2  1  0
 26  6  1  0
 57 33  1  0
 21 10  1  0
 57 25  1  0
M  CHG  2  24  -1  63  -1
M  END
>  <UniqueID>  (29) 
28

>  <SMILES>  (29) 
CN(C)CC(=O)[N-]c1ccc(-c2n/c(=N/C3CCCC3)[n-]c3c2CCc2ccc(NC(=O)CN(C)C)cc2-3)cc1

>  <Energy>  (29) 
100.16895872823294

>  <Genealogy>  (29) 
CN(C)CC(=O)[N-]c1ccc(-c2nc(=NC3CCCC3)[n-]c3c2CCc2ccc(NC(=O)CN(C)C)cc2-3)cc1 (protonated)
CN(C)CC(=O)[N-]c1ccc(-c2n/c(=N/C3CCCC3)[n-]c3c2CCc2ccc(NC(=O)CN(C)C)cc2-3)cc1 (cis-trans isomerization)
CN(C)CC(=O)[N-]c1ccc(-c2n/c(=N/C3CCCC3)[n-]c3c2CCc2ccc(NC(=O)CN(C)C)cc2-3)cc1 (3D coordinates assigned)
CN(C)CC(=O)[N-]c1ccc(-c2n/c(=N/C3CCCC3)[n-]c3c2CCc2ccc(NC(=O)CN(C)C)cc2-3)cc1 (nonaromatic ring conformer: 100.16895872823294 kcal/mol)

>  <smiles>  (29) 
CN(C)CC(=O)Nc1ccc(-c2nc(=NC3CCCC3)[nH]c3c2CCc2ccc(NC(=O)CN(C)C)cc2-3)cc1

>  <score_type>  (29) 
oracle

>  <origin>  (29) 
adg

>  <m_score__min__energy>  (29) 
-11.74

>  <m_primary>  (29) 
energy

$$$$
29:0
     RDKit          3D

 37 38  0  0  0  0  0  0  0  0999 V2000
   56.9180   30.3640   43.3170 C   0  0  0  0  0  0  0  0  0  0  0  0
   56.5680   31.0870   44.4920 O   0  0  0  0  0  0  0  0  0  0  0  0
   57.4030   32.0180   45.1260 C   0  0  0  0  0  0  0  0  0  0  0  0
   58.1070   31.7190   46.3090 C   0  0  0  0  0  0  0  0  0  0  0  0
   58.9250   32.6820   46.9050 C   0  0  0  0  0  0  0  0  0  0  0  0
   59.0630   33.9540   46.3240 C   0  0  0  0  0  0  0  0  0  0  0  0
   59.9120   35.0060   46.9900 C   0  0  0  0  0  0  0  0  0  0  0  0
   60.4120   34.5180   48.2910 N   0  0  0  0  0  0  0  0  0  0  0  0
   61.4670   33.4820   48.2040 C   0  0  0  0  0  0  0  0  0  0  0  0
   62.3630   33.6370   46.9550 C   0  0  0  0  0  0  0  0  0  0  0  0
   63.5670   32.6910   47.0580 C   0  0  0  0  0  0  0  0  0  0  0  0
   64.4050   32.9410   48.2500 N   0  0  0  0  0  0  0  0  0  0  0  0
   63.7620   33.7430   49.3080 C   0  0  0  0  0  0  0  0  0  0  0  0
   62.2950   33.3460   49.5130 C   0  0  0  0  0  0  0  0  0  0  0  0
   58.3500   34.2550   45.1550 C   0  0  0  0  0  0  0  0  0  0  0  0
   57.5320   33.2910   44.5590 C   0  0  0  0  0  0  0  0  0  0  0  0
   57.3812   29.4071   43.5996 H   0  0  0  0  0  0  0  0  0  0  0  0
   56.0132   30.1717   42.7217 H   0  0  0  0  0  0  0  0  0  0  0  0
   57.6300   30.9544   42.7217 H   0  0  0  0  0  0  0  0  0  0  0  0
   58.0122   30.7227   46.7655 H   0  0  0  0  0  0  0  0  0  0  0  0
   59.4638   32.4433   47.8338 H   0  0  0  0  0  0  0  0  0  0  0  0
   60.7667   35.2463   46.3405 H   0  0  0  0  0  0  0  0  0  0  0  0
   59.2997   35.9043   47.1578 H   0  0  0  0  0  0  0  0  0  0  0  0
   60.7930   35.3230   48.8420 H   0  0  0  0  0  0  0  0  0  0  0  0
   59.6040   34.1280   48.8330 H   0  0  0  0  0  0  0  0  0  0  0  0
   60.9316   32.5290   48.0807 H   0  0  0  0  0  0  0  0  0  0  0  0
   61.7807   33.3902   46.0550 H   0  0  0  0  0  0  0  0  0  0  0  0
   62.7213   34.6751   46.8917 H   0  0  0  0  0  0  0  0  0  0  0  0
   63.1957   31.6565   47.1026 H   0  0  0  0  0  0  0  0  0  0  0  0
   64.1969   32.8667   46.1735 H   0  0  0  0  0  0  0  0  0  0  0  0
   65.2690   33.4510   47.9490 H   0  0  0  0  0  0  0  0  0  0  0  0
   64.3071   33.5903   50.2512 H   0  0  0  0  0  0  0  0  0  0  0  0
   63.7902   34.7989   49.0008 H   0  0  0  0  0  0  0  0  0  0  0  0
   62.2540   32.3004   49.8523 H   0  0  0  0  0  0  0  0  0  0  0  0
   61.8607   34.0244   50.2621 H   0  0  0  0  0  0  0  0  0  0  0  0
   58.4348   35.2549   44.7045 H   0  0  0  0  0  0  0  0  0  0  0  0
   56.9849   33.5350   43.6364 H   0  0  0  0  0  0  0  0  0  0  0  0
  1  2  1  0
  2  3  1  0
  3  4  2  0
  4  5  1  0
  5  6  2  0
  6  7  1  0
  7  8  1  0
  8  9  1  0
  9 10  1  0
 10 11  1  0
 11 12  1  0
 12 13  1  0
 13 14  1  0
  6 15  1  0
 15 16  2  0
 16  3  1  0
 14  9  1  0
  1 17  1  0
  1 18  1  0
  1 19  1  0
  4 20  1  0
  5 21  1  0
  7 22  1  0
  7 23  1  0
  8 24  1  0
  8 25  1  0
  9 26  1  0
 10 27  1  0
 10 28  1  0
 11 29  1  0
 11 30  1  0
 12 31  1  0
 13 32  1  0
 13 33  1  0
 14 34  1  0
 14 35  1  0
 15 36  1  0
 16 37  1  0
M  CHG  1   8   1
M  END
>  <UniqueID>  (30) 
29

>  <SMILES>  (30) 
COc1ccc(C[NH2+]C2CCNCC2)cc1

>  <Energy>  (30) 
44.65231432150679

>  <Genealogy>  (30) 
COc1ccc(C[NH2+]C2CCNCC2)cc1 (protonated)
COc1ccc(C[NH2+]C2CCNCC2)cc1 (3D coordinates assigned)
COc1ccc(C[NH2+]C2CCNCC2)cc1 (nonaromatic ring conformer: 44.65231432150679 kcal/mol)

>  <smiles>  (30) 
COc1ccc(CNC2CCNCC2)cc1

>  <score_type>  (30) 
oracle

>  <origin>  (30) 
adg

>  <m_score__min__energy>  (30) 
-4.6500000000000004

>  <m_primary>  (30) 
energy

$$$$
30:0
     RDKit          3D

 42 44  0  0  0  0  0  0  0  0999 V2000
   57.7370   32.9820   45.9470 C   0  0  0  0  0  0  0  0  0  0  0  0
   58.6240   33.2540   47.1580 C   0  0  0  0  0  0  0  0  0  0  0  0
   59.6520   34.2670   46.8250 N   0  0  0  0  0  0  0  0  0  0  0  0
   59.3210   34.9500   45.5620 C   0  0  0  0  0  0  0  0  0  0  0  0
   61.0010   33.6620   46.7390 C   0  0  0  0  0  0  0  0  0  0  0  0
   61.3350   32.9050   48.0300 C   0  0  0  0  0  0  0  0  0  0  0  0
   61.7830   31.5790   47.7450 O   0  0  0  0  0  0  0  0  0  0  0  0
   60.9610   30.4940   47.3970 C   0  0  0  0  0  0  0  0  0  0  0  0
   60.3220   29.7960   48.4260 C   0  0  0  0  0  0  0  0  0  0  0  0
   59.4950   28.7060   48.1430 C   0  0  0  0  0  0  0  0  0  0  0  0
   59.2880   28.2950   46.8140 C   0  0  0  0  0  0  0  0  0  0  0  0
   58.4110   27.1360   46.5100 C   0  0  0  0  0  0  0  0  0  0  0  0
   58.9640   25.8340   46.3630 C   0  0  0  0  0  0  0  0  0  0  0  0
   58.1380   24.7310   46.0760 C   0  0  0  0  0  0  0  0  0  0  0  0
   58.6590   23.4870   45.9300 F   0  0  0  0  0  0  0  0  0  0  0  0
   56.7720   24.9580   45.9420 C   0  0  0  0  0  0  0  0  0  0  0  0
   55.8110   24.0630   45.6750 N   0  0  0  0  0  0  0  0  0  0  0  0
   54.6890   24.8290   45.6630 C   0  0  0  0  0  0  0  0  0  0  0  0
   54.9060   26.1470   45.9080 N   0  0  0  0  0  0  0  0  0  0  0  0
   56.2340   26.1980   46.0800 C   0  0  0  0  0  0  0  0  0  0  0  0
   57.0140   27.3160   46.3640 C   0  0  0  0  0  0  0  0  0  0  0  0
   59.9230   29.0020   45.7790 C   0  0  0  0  0  0  0  0  0  0  0  0
   60.7510   30.0920   46.0650 C   0  0  0  0  0  0  0  0  0  0  0  0
   56.7367   32.6753   46.2866 H   0  0  0  0  0  0  0  0  0  0  0  0
   57.6540   33.8960   45.3406 H   0  0  0  0  0  0  0  0  0  0  0  0
   58.1807   32.1786   45.3406 H   0  0  0  0  0  0  0  0  0  0  0  0
   58.0031   33.6258   47.9864 H   0  0  0  0  0  0  0  0  0  0  0  0
   59.1244   32.3196   47.4521 H   0  0  0  0  0  0  0  0  0  0  0  0
   58.8510   35.9199   45.7819 H   0  0  0  0  0  0  0  0  0  0  0  0
   60.2407   35.1117   44.9806 H   0  0  0  0  0  0  0  0  0  0  0  0
   58.6242   34.3283   44.9806 H   0  0  0  0  0  0  0  0  0  0  0  0
   61.0300   32.9617   45.8912 H   0  0  0  0  0  0  0  0  0  0  0  0
   61.7410   34.4631   46.5955 H   0  0  0  0  0  0  0  0  0  0  0  0
   62.1280   33.4446   48.5684 H   0  0  0  0  0  0  0  0  0  0  0  0
   60.4251   32.8427   48.6449 H   0  0  0  0  0  0  0  0  0  0  0  0
   60.4720   30.1084   49.4700 H   0  0  0  0  0  0  0  0  0  0  0  0
   59.0026   28.1658   48.9650 H   0  0  0  0  0  0  0  0  0  0  0  0
   60.0484   25.6874   46.4747 H   0  0  0  0  0  0  0  0  0  0  0  0
   53.6878   24.4159   45.4708 H   0  0  0  0  0  0  0  0  0  0  0  0
   56.5578   28.3111   46.4719 H   0  0  0  0  0  0  0  0  0  0  0  0
   59.7674   28.6952   44.7342 H   0  0  0  0  0  0  0  0  0  0  0  0
   61.2404   30.6377   45.2448 H   0  0  0  0  0  0  0  0  0  0  0  0
  1  2  1  0
  2  3  1  0
  3  4  1  0
  3  5  1  0
  5  6  1  0
  6  7  1  0
  7  8  1  0
  8  9  2  0
  9 10  1  0
 10 11  2  0
 11 12  1  0
 12 13  2  0
 13 14  1  0
 14 15  1  0
 14 16  2  0
 16 17  1  0
 17 18  1  0
 18 19  2  0
 19 20  1  0
 20 21  2  0
 11 22  1  0
 22 23  2  0
 23  8  1  0
 21 12  1  0
 20 16  1  0
  1 24  1  0
  1 25  1  0
  1 26  1  0
  2 27  1  0
  2 28  1  0
  4 29  1  0
  4 30  1  0
  4 31  1  0
  5 32  1  0
  5 33  1  0
  6 34  1  0
  6 35  1  0
  9 36  1  0
 10 37  1  0
 13 38  1  0
 18 39  1  0
 21 40  1  0
 22 41  1  0
 23 42  1  0
M  CHG  1  17  -1
M  END
>  <UniqueID>  (31) 
30

>  <SMILES>  (31) 
CCN(C)CCOc1ccc(-c2cc(F)c3[n-]cnc3c2)cc1

>  <Energy>  (31) 
82.74105183241981

>  <Genealogy>  (31) 
CCN(C)CCOc1ccc(-c2cc(F)c3[n-]cnc3c2)cc1 (protonated)
CCN(C)CCOc1ccc(-c2cc(F)c3[n-]cnc3c2)cc1 (3D coordinates assigned)
CCN(C)CCOc1ccc(-c2cc(F)c3[n-]cnc3c2)cc1 (optimized conformer: 82.74105183241981 kcal/mol)

>  <smiles>  (31) 
CCN(C)CCOc1ccc(-c2cc(F)c3[nH]cnc3c2)cc1

>  <score_type>  (31) 
oracle

>  <origin>  (31) 
adg

>  <m_score__min__energy>  (31) 
-8.2200000000000006

>  <m_primary>  (31) 
energy

$$$$
31:0
     RDKit          3D

 44 46  0  0  0  0  0  0  0  0999 V2000
   56.6630   30.7170   43.3270 C   0  0  0  0  0  0  0  0  0  0  0  0
   58.1390   30.9100   43.6700 C   0  0  0  0  0  0  0  0  0  0  0  0
   58.3030   31.6980   44.9150 N   0  0  0  0  0  0  0  0  0  0  0  0
   57.0670   32.4250   45.2870 C   0  0  0  0  0  0  0  0  0  0  0  0
   57.3140   33.9350   45.3050 C   0  0  0  0  0  0  0  0  0  0  0  0
   58.6020   34.2320   44.8430 O   0  0  0  0  0  0  0  0  0  0  0  0
   58.8810   30.9240   46.0450 C   0  0  0  0  0  0  0  0  0  0  0  0
   58.6250   29.4310   45.9690 C   0  0  0  0  0  0  0  0  0  0  0  0
   59.7000   28.5320   45.9090 C   0  0  0  0  0  0  0  0  0  0  0  0
   59.4790   27.1550   45.8340 C   0  0  0  0  0  0  0  0  0  0  0  0
   58.1660   26.6370   45.8240 C   0  0  0  0  0  0  0  0  0  0  0  0
   57.8800   25.2480   45.7350 C   0  0  0  0  0  0  0  0  0  0  0  0
   56.5370   24.8140   45.8330 C   0  0  0  0  0  0  0  0  0  0  0  0
   55.5090   25.7690   45.9300 C   0  0  0  0  0  0  0  0  0  0  0  0
   54.3030   25.4110   45.9720 O   0  0  0  0  0  0  0  0  0  0  0  0
   55.8080   27.0890   45.9760 N   0  0  0  0  0  0  0  0  0  0  0  0
   57.0850   27.5460   45.9320 C   0  0  0  0  0  0  0  0  0  0  0  0
   57.3180   28.9240   46.0020 C   0  0  0  0  0  0  0  0  0  0  0  0
   56.2030   23.3420   45.7470 C   0  0  0  0  0  0  0  0  0  0  0  0
   57.3690   22.4760   46.2240 C   0  0  0  0  0  0  0  0  0  0  0  0
   58.6360   22.8320   45.4520 C   0  0  0  0  0  0  0  0  0  0  0  0
   58.9210   24.2640   45.5470 N   0  0  0  0  0  0  0  0  0  0  0  0
   56.0778   30.6405   44.2553 H   0  0  0  0  0  0  0  0  0  0  0  0
   56.3077   31.5763   42.7394 H   0  0  0  0  0  0  0  0  0  0  0  0
   56.5406   29.7952   42.7394 H   0  0  0  0  0  0  0  0  0  0  0  0
   58.6075   29.9240   43.8054 H   0  0  0  0  0  0  0  0  0  0  0  0
   58.6187   31.4583   42.8458 H   0  0  0  0  0  0  0  0  0  0  0  0
   56.2790   32.1965   44.5543 H   0  0  0  0  0  0  0  0  0  0  0  0
   56.7567   32.1048   46.2926 H   0  0  0  0  0  0  0  0  0  0  0  0
   56.5752   34.4294   44.6571 H   0  0  0  0  0  0  0  0  0  0  0  0
   57.2175   34.2965   46.3394 H   0  0  0  0  0  0  0  0  0  0  0  0
   59.0610   33.3600   44.7270 H   0  0  0  0  0  0  0  0  0  0  0  0
   59.9687   31.0878   46.0551 H   0  0  0  0  0  0  0  0  0  0  0  0
   58.3883   31.2838   46.9603 H   0  0  0  0  0  0  0  0  0  0  0  0
   60.7305   28.9165   45.9212 H   0  0  0  0  0  0  0  0  0  0  0  0
   60.3363   26.4677   45.7822 H   0  0  0  0  0  0  0  0  0  0  0  0
   56.4673   29.6165   46.0837 H   0  0  0  0  0  0  0  0  0  0  0  0
   55.3243   23.1371   46.3763 H   0  0  0  0  0  0  0  0  0  0  0  0
   55.9964   23.0951   44.6952 H   0  0  0  0  0  0  0  0  0  0  0  0
   57.5360   22.6496   47.2973 H   0  0  0  0  0  0  0  0  0  0  0  0
   57.1264   21.4174   46.0496 H   0  0  0  0  0  0  0  0  0  0  0  0
   59.4828   22.2679   45.8700 H   0  0  0  0  0  0  0  0  0  0  0  0
   58.4866   22.5731   44.3934 H   0  0  0  0  0  0  0  0  0  0  0  0
   59.8750   24.5470   45.2380 H   0  0  0  0  0  0  0  0  0  0  0  0
  1  2  1  0
  2  3  1  0
  3  4  1  0
  4  5  1  0
  5  6  1  0
  3  7  1  0
  7  8  1  0
  8  9  2  0
  9 10  1  0
 10 11  2  0
 11 12  1  0
 12 13  2  0
 13 14  1  0
 14 15  2  0
 14 16  1  0
 16 17  1  0
 17 18  2  0
 13 19  1  0
 19 20  1  0
 20 21  1  0
 21 22  1  0
 18  8  1  0
 17 11  1  0
 22 12  1  0
  1 23  1  0
  1 24  1  0
  1 25  1  0
  2 26  1  0
  2 27  1  0
  4 28  1  0
  4 29  1  0
  5 30  1  0
  5 31  1  0
  6 32  1  0
  7 33  1  0
  7 34  1  0
  9 35  1  0
 10 36  1  0
 18 37  1  0
 19 38  1  0
 19 39  1  0
 20 40  1  0
 20 41  1  0
 21 42  1  0
 21 43  1  0
 22 44  1  0
M  CHG  1  16  -1
M  END
>  <UniqueID>  (32) 
31

>  <SMILES>  (32) 
CCN(CCO)Cc1ccc2c3c(c(=O)[n-]c2c1)CCCN3

>  <Energy>  (32) 
54.28602247635884

>  <Genealogy>  (32) 
CCN(CCO)Cc1ccc2c3c(c(=O)[n-]c2c1)CCCN3 (protonated)
CCN(CCO)Cc1ccc2c3c(c(=O)[n-]c2c1)CCCN3 (3D coordinates assigned)
CCN(CCO)Cc1ccc2c3c(c(=O)[n-]c2c1)CCCN3 (nonaromatic ring conformer: 54.28602247635884 kcal/mol)

>  <smiles>  (32) 
CCN(CCO)Cc1ccc2c3c(c(=O)[nH]c2c1)CCCN3

>  <score_type>  (32) 
oracle

>  <origin>  (32) 
adg

>  <m_score__min__energy>  (32) 
-10.029999999999999

>  <m_primary>  (32) 
energy

$$$$
32:0
     RDKit          3D

 44 46  0  0  0  0  0  0  0  0999 V2000
   63.3940   32.5490   47.1310 C   0  0  0  0  0  0  0  0  0  0  0  0
   63.3250   33.7390   47.7360 C   0  0  0  0  0  0  0  0  0  0  0  0
   62.9710   33.8580   49.1890 C   0  0  0  0  0  0  0  0  0  0  0  0
   61.6700   34.5250   49.3360 N   0  0  0  0  0  0  0  0  0  0  0  0
   60.6100   33.5630   49.6600 C   0  0  0  0  0  0  0  0  0  0  0  0
   60.0350   32.9620   48.3990 C   0  0  0  0  0  0  0  0  0  0  0  0
   60.0350   31.5740   48.2240 C   0  0  0  0  0  0  0  0  0  0  0  0
   59.5010   31.0010   47.1060 N   0  0  0  0  0  0  0  0  0  0  0  0
   59.5710   29.5660   47.0050 C   0  0  0  0  0  0  0  0  0  0  0  0
   58.8860   28.7620   47.9250 C   0  0  0  0  0  0  0  0  0  0  0  0
   58.9610   27.3680   47.8360 C   0  0  0  0  0  0  0  0  0  0  0  0
   59.7300   26.7630   46.8220 C   0  0  0  0  0  0  0  0  0  0  0  0
   59.8370   25.3710   46.6890 O   0  0  0  0  0  0  0  0  0  0  0  0
   58.9330   24.5640   45.9420 C   0  0  0  0  0  0  0  0  0  0  0  0
   60.4190   27.5730   45.9100 C   0  0  0  0  0  0  0  0  0  0  0  0
   60.3440   28.9660   46.0020 C   0  0  0  0  0  0  0  0  0  0  0  0
   58.9270   31.7750   46.1200 C   0  0  0  0  0  0  0  0  0  0  0  0
   58.3340   31.1970   44.9730 C   0  0  0  0  0  0  0  0  0  0  0  0
   57.7590   32.0000   43.9850 C   0  0  0  0  0  0  0  0  0  0  0  0
   57.0330   31.2600   42.5690 Cl  0  0  0  0  0  0  0  0  0  0  0  0
   57.7570   33.3870   44.1220 C   0  0  0  0  0  0  0  0  0  0  0  0
   58.3240   33.9800   45.2500 C   0  0  0  0  0  0  0  0  0  0  0  0
   58.9080   33.1880   46.2580 C   0  0  0  0  0  0  0  0  0  0  0  0
   59.4650   33.7740   47.4070 C   0  0  0  0  0  0  0  0  0  0  0  0
   59.4530   35.0290   47.5550 O   0  0  0  0  0  0  0  0  0  0  0  0
   63.6557   32.4887   46.0643 H   0  0  0  0  0  0  0  0  0  0  0  0
   63.1890   31.6301   47.6998 H   0  0  0  0  0  0  0  0  0  0  0  0
   63.5322   34.6505   47.1561 H   0  0  0  0  0  0  0  0  0  0  0  0
   62.9179   32.8537   49.6345 H   0  0  0  0  0  0  0  0  0  0  0  0
   63.7417   34.4528   49.7010 H   0  0  0  0  0  0  0  0  0  0  0  0
   61.4310   34.9610   48.4140 H   0  0  0  0  0  0  0  0  0  0  0  0
   61.0287   32.7604   50.2849 H   0  0  0  0  0  0  0  0  0  0  0  0
   59.8083   34.0870   50.2011 H   0  0  0  0  0  0  0  0  0  0  0  0
   60.4737   30.9321   49.0022 H   0  0  0  0  0  0  0  0  0  0  0  0
   58.2867   29.2287   48.7206 H   0  0  0  0  0  0  0  0  0  0  0  0
   58.4181   26.7423   48.5597 H   0  0  0  0  0  0  0  0  0  0  0  0
   58.2942   23.9937   46.6324 H   0  0  0  0  0  0  0  0  0  0  0  0
   58.3050   25.2074   45.3082 H   0  0  0  0  0  0  0  0  0  0  0  0
   59.5013   23.8673   45.3082 H   0  0  0  0  0  0  0  0  0  0  0  0
   61.0232   27.1098   45.1160 H   0  0  0  0  0  0  0  0  0  0  0  0
   60.8936   29.5931   45.2846 H   0  0  0  0  0  0  0  0  0  0  0  0
   58.3256   30.1031   44.8578 H   0  0  0  0  0  0  0  0  0  0  0  0
   57.3074   34.0153   43.3390 H   0  0  0  0  0  0  0  0  0  0  0  0
   58.3151   35.0751   45.3533 H   0  0  0  0  0  0  0  0  0  0  0  0
  1  2  2  0
  2  3  1  0
  3  4  1  0
  4  5  1  0
  5  6  1  0
  6  7  2  0
  7  8  1  0
  8  9  1  0
  9 10  2  0
 10 11  1  0
 11 12  2  0
 12 13  1  0
 13 14  1  0
 12 15  1  0
 15 16  2  0
  8 17  1  0
 17 18  2  0
 18 19  1  0
 19 20  1  0
 19 21  2  0
 21 22  1  0
 22 23  2  0
 23 24  1  0
 24 25  2  0
 24  6  1  0
 16  9  1  0
 23 17  1  0
  1 26  1  0
  1 27  1  0
  2 28  1  0
  3 29  1  0
  3 30  1  0
  4 31  1  0
  5 32  1  0
  5 33  1  0
  7 34  1  0
 10 35  1  0
 11 36  1  0
 14 37  1  0
 14 38  1  0
 14 39  1  0
 15 40  1  0
 16 41  1  0
 18 42  1  0
 21 43  1  0
 22 44  1  0
M  END
>  <UniqueID>  (33) 
32

>  <SMILES>  (33) 
C=CCNCc1cn(-c2ccc(OC)cc2)c2cc(Cl)ccc2c1=O

>  <Energy>  (33) 
56.450338285444346

>  <Genealogy>  (33) 
C=CCNCc1cn(-c2ccc(OC)cc2)c2cc(Cl)ccc2c1=O (3D coordinates assigned)
C=CCNCc1cn(-c2ccc(OC)cc2)c2cc(Cl)ccc2c1=O (optimized conformer: 56.450338285444346 kcal/mol)

>  <smiles>  (33) 
C=CCNCc1cn(-c2ccc(OC)cc2)c2cc(Cl)ccc2c1=O

>  <score_type>  (33) 
oracle

>  <origin>  (33) 
adg

>  <m_score__min__energy>  (33) 
-7.3300000000000001

>  <m_primary>  (33) 
energy

$$$$
33:0
     RDKit          3D

 43 45  0  0  0  0  0  0  0  0999 V2000
   63.3560   33.5290   46.7230 C   0  0  0  0  0  0  0  0  0  0  0  0
   62.0670   32.9520   47.1340 N   0  0  0  0  0  0  0  0  0  0  0  0
   62.2560   31.8330   48.0800 C   0  0  0  0  0  0  0  0  0  0  0  0
   61.3300   30.6970   47.7560 C   0  0  0  0  0  0  0  0  0  0  0  0
   61.2800   29.7050   48.5320 O   0  0  0  0  0  0  0  0  0  0  0  0
   60.5990   30.6870   46.5210 N   0  0  0  0  0  0  0  0  0  0  0  0
   59.4670   29.8370   46.2640 C   0  0  0  0  0  0  0  0  0  0  0  0
   58.3330   30.3720   45.6310 C   0  0  0  0  0  0  0  0  0  0  0  0
   57.2070   29.5760   45.3960 C   0  0  0  0  0  0  0  0  0  0  0  0
   57.2010   28.2430   45.8090 C   0  0  0  0  0  0  0  0  0  0  0  0
   58.3290   27.6950   46.4340 C   0  0  0  0  0  0  0  0  0  0  0  0
   59.4500   28.4920   46.6820 C   0  0  0  0  0  0  0  0  0  0  0  0
   58.3110   26.3480   46.8090 O   0  0  0  0  0  0  0  0  0  0  0  0
   57.3010   25.4600   46.3240 C   0  0  0  0  0  0  0  0  0  0  0  0
   55.9450   26.1750   46.2720 C   0  0  0  0  0  0  0  0  0  0  0  0
   56.0740   27.4370   45.6110 O   0  0  0  0  0  0  0  0  0  0  0  0
   61.0910   33.9720   47.5930 C   0  0  0  0  0  0  0  0  0  0  0  0
   59.7480   33.9300   46.8760 C   0  0  0  0  0  0  0  0  0  0  0  0
   59.6390   34.5070   45.5970 C   0  0  0  0  0  0  0  0  0  0  0  0
   58.4230   34.4980   44.9100 C   0  0  0  0  0  0  0  0  0  0  0  0
   57.3020   33.8960   45.4800 C   0  0  0  0  0  0  0  0  0  0  0  0
   57.3990   33.2860   46.7300 C   0  0  0  0  0  0  0  0  0  0  0  0
   58.6130   33.2860   47.4300 C   0  0  0  0  0  0  0  0  0  0  0  0
   58.6580   32.3350   49.0960 Br  0  0  0  0  0  0  0  0  0  0  0  0
   63.9418   33.7912   47.6163 H   0  0  0  0  0  0  0  0  0  0  0  0
   63.9120   32.7939   46.1227 H   0  0  0  0  0  0  0  0  0  0  0  0
   63.1781   34.4334   46.1227 H   0  0  0  0  0  0  0  0  0  0  0  0
   63.2958   31.4796   48.0170 H   0  0  0  0  0  0  0  0  0  0  0  0
   62.0330   32.1899   49.0963 H   0  0  0  0  0  0  0  0  0  0  0  0
   60.9430   31.2950   45.7430 H   0  0  0  0  0  0  0  0  0  0  0  0
   58.3303   31.4263   45.3173 H   0  0  0  0  0  0  0  0  0  0  0  0
   56.3286   29.9996   44.8870 H   0  0  0  0  0  0  0  0  0  0  0  0
   60.3204   28.0683   47.2044 H   0  0  0  0  0  0  0  0  0  0  0  0
   57.5712   25.1202   45.3133 H   0  0  0  0  0  0  0  0  0  0  0  0
   57.2256   24.5981   47.0033 H   0  0  0  0  0  0  0  0  0  0  0  0
   55.2259   25.5496   45.7228 H   0  0  0  0  0  0  0  0  0  0  0  0
   55.5900   26.3439   47.2994 H   0  0  0  0  0  0  0  0  0  0  0  0
   60.9118   33.8169   48.6672 H   0  0  0  0  0  0  0  0  0  0  0  0
   61.5349   34.9529   47.3677 H   0  0  0  0  0  0  0  0  0  0  0  0
   60.5220   34.9706   45.1329 H   0  0  0  0  0  0  0  0  0  0  0  0
   58.3496   34.9667   43.9175 H   0  0  0  0  0  0  0  0  0  0  0  0
   56.3416   33.9023   44.9438 H   0  0  0  0  0  0  0  0  0  0  0  0
   56.5154   32.8008   47.1703 H   0  0  0  0  0  0  0  0  0  0  0  0
  1  2  1  0
  2  3  1  0
  3  4  1  0
  4  5  2  0
  4  6  1  0
  6  7  1  0
  7  8  2  0
  8  9  1  0
  9 10  2  0
 10 11  1  0
 11 12  2  0
 11 13  1  0
 13 14  1  0
 14 15  1  0
 15 16  1  0
  2 17  1  0
 17 18  1  0
 18 19  2  0
 19 20  1  0
 20 21  2  0
 21 22  1  0
 22 23  2  0
 23 24  1  0
 12  7  1  0
 23 18  1  0
 16 10  1  0
  1 25  1  0
  1 26  1  0
  1 27  1  0
  3 28  1  0
  3 29  1  0
  6 30  1  0
  8 31  1  0
  9 32  1  0
 12 33  1  0
 14 34  1  0
 14 35  1  0
 15 36  1  0
 15 37  1  0
 17 38  1  0
 17 39  1  0
 19 40  1  0
 20 41  1  0
 21 42  1  0
 22 43  1  0
M  END
>  <UniqueID>  (34) 
33

>  <SMILES>  (34) 
CN(CC(=O)Nc1ccc2c(c1)OCCO2)Cc1ccccc1Br

>  <Energy>  (34) 
53.94398157758482

>  <Genealogy>  (34) 
CN(CC(=O)Nc1ccc2c(c1)OCCO2)Cc1ccccc1Br (3D coordinates assigned)
CN(CC(=O)Nc1ccc2c(c1)OCCO2)Cc1ccccc1Br (nonaromatic ring conformer: 53.94398157758482 kcal/mol)

>  <smiles>  (34) 
CN(CC(=O)Nc1ccc2c(c1)OCCO2)Cc1ccccc1Br

>  <score_type>  (34) 
oracle

>  <origin>  (34) 
adg

>  <m_score__min__energy>  (34) 
-8.1199999999999992

>  <m_primary>  (34) 
energy

$$$$
34:0
     RDKit          3D

 25 26  0  0  0  0  0  0  0  0999 V2000
   56.5030   30.3620   43.7260 C   0  0  0  0  0  0  0  0  0  0  0  0
   56.5160   31.2120   44.8680 O   0  0  0  0  0  0  0  0  0  0  0  0
   57.6430   31.9120   45.3230 C   0  0  0  0  0  0  0  0  0  0  0  0
   57.7740   33.3070   45.1750 C   0  0  0  0  0  0  0  0  0  0  0  0
   58.9170   33.9630   45.6440 C   0  0  0  0  0  0  0  0  0  0  0  0
   59.9390   33.2370   46.2680 C   0  0  0  0  0  0  0  0  0  0  0  0
   61.0930   33.8760   46.7460 C   0  0  0  0  0  0  0  0  0  0  0  0
   62.0790   33.1570   47.3630 N   0  0  0  0  0  0  0  0  0  0  0  0
   63.2920   33.8400   47.8200 C   0  0  0  0  0  0  0  0  0  0  0  0
   61.9760   31.8010   47.4960 C   0  0  0  0  0  0  0  0  0  0  0  0
   60.8450   31.1230   47.0360 C   0  0  0  0  0  0  0  0  0  0  0  0
   59.8160   31.8400   46.4190 C   0  0  0  0  0  0  0  0  0  0  0  0
   58.6660   31.1880   45.9450 C   0  0  0  0  0  0  0  0  0  0  0  0
   56.4869   29.3113   44.0511 H   0  0  0  0  0  0  0  0  0  0  0  0
   55.6080   30.5727   43.1222 H   0  0  0  0  0  0  0  0  0  0  0  0
   57.4041   30.5452   43.1222 H   0  0  0  0  0  0  0  0  0  0  0  0
   56.9734   33.8832   44.6882 H   0  0  0  0  0  0  0  0  0  0  0  0
   59.0133   35.0520   45.5223 H   0  0  0  0  0  0  0  0  0  0  0  0
   61.2054   34.9634   46.6235 H   0  0  0  0  0  0  0  0  0  0  0  0
   63.3137   33.8522   48.9197 H   0  0  0  0  0  0  0  0  0  0  0  0
   64.1772   33.3077   47.4417 H   0  0  0  0  0  0  0  0  0  0  0  0
   63.2958   34.8729   47.4417 H   0  0  0  0  0  0  0  0  0  0  0  0
   62.7927   31.2373   47.9705 H   0  0  0  0  0  0  0  0  0  0  0  0
   60.7646   30.0328   47.1584 H   0  0  0  0  0  0  0  0  0  0  0  0
   58.5687   30.0988   46.0638 H   0  0  0  0  0  0  0  0  0  0  0  0
  1  2  1  0
  2  3  1  0
  3  4  2  0
  4  5  1  0
  5  6  2  0
  6  7  1  0
  7  8  2  0
  8  9  1  0
  8 10  1  0
 10 11  2  0
 11 12  1  0
 12 13  2  0
 13  3  1  0
 12  6  1  0
  1 14  1  0
  1 15  1  0
  1 16  1  0
  4 17  1  0
  5 18  1  0
  7 19  1  0
  9 20  1  0
  9 21  1  0
  9 22  1  0
 10 23  1  0
 11 24  1  0
 13 25  1  0
M  CHG  1   8   1
M  END
>  <UniqueID>  (35) 
34

>  <SMILES>  (35) 
COc1ccc2c[n+](C)ccc2c1

>  <Energy>  (35) 
28.016053956216545

>  <Genealogy>  (35) 
COc1ccc2c[n+](C)ccc2c1 (3D coordinates assigned)
COc1ccc2c[n+](C)ccc2c1 (optimized conformer: 28.016053956216545 kcal/mol)

>  <smiles>  (35) 
COc1ccc2c[n+](C)ccc2c1

>  <score_type>  (35) 
oracle

>  <origin>  (35) 
adg

>  <m_score__min__energy>  (35) 
-3.8300000000000001

>  <m_primary>  (35) 
energy

$$$$
35:0
     RDKit          3D

 45 46  0  0  0  0  0  0  0  0999 V2000
   57.3730   32.3490   41.1180 C   0  0  0  0  0  0  0  0  0  0  0  0
   58.5140   32.4080   42.1300 C   0  0  0  0  0  0  0  0  0  0  0  0
   58.0010   32.3220   43.5150 N   0  0  0  0  0  0  0  0  0  0  0  0
   58.1290   33.5280   44.3560 C   0  0  0  0  0  0  0  0  0  0  0  0
   57.0730   33.5350   45.4620 C   0  0  0  0  0  0  0  0  0  0  0  0
   57.7070   33.6970   46.7750 N   0  0  0  0  0  0  0  0  0  0  0  0
   58.9630   34.4530   46.7000 C   0  0  0  0  0  0  0  0  0  0  0  0
   60.1080   33.5290   47.0080 C   0  0  0  0  0  0  0  0  0  0  0  0
   61.4310   33.9670   46.8640 C   0  0  0  0  0  0  0  0  0  0  0  0
   62.4750   33.0720   47.0870 C   0  0  0  0  0  0  0  0  0  0  0  0
   62.2000   31.7560   47.4530 C   0  0  0  0  0  0  0  0  0  0  0  0
   60.8730   31.3500   47.5820 C   0  0  0  0  0  0  0  0  0  0  0  0
   59.8620   32.2290   47.3460 N   0  0  0  0  0  0  0  0  0  0  0  0
   57.4520   31.0770   44.0370 C   0  0  0  0  0  0  0  0  0  0  0  0
   56.1510   30.6410   43.6880 C   0  0  0  0  0  0  0  0  0  0  0  0
   55.6250   29.4550   44.2070 C   0  0  0  0  0  0  0  0  0  0  0  0
   56.3870   28.6550   45.0830 C   0  0  0  0  0  0  0  0  0  0  0  0
   55.8980   27.4610   45.6380 O   0  0  0  0  0  0  0  0  0  0  0  0
   56.7190   26.3490   45.9910 C   0  0  0  0  0  0  0  0  0  0  0  0
   57.6800   29.0630   45.4200 C   0  0  0  0  0  0  0  0  0  0  0  0
   58.2060   30.2580   44.9080 C   0  0  0  0  0  0  0  0  0  0  0  0
   56.4122   32.2993   41.6512 H   0  0  0  0  0  0  0  0  0  0  0  0
   57.3959   33.2495   40.4867 H   0  0  0  0  0  0  0  0  0  0  0  0
   57.4886   31.4556   40.4867 H   0  0  0  0  0  0  0  0  0  0  0  0
   59.1999   31.5675   41.9479 H   0  0  0  0  0  0  0  0  0  0  0  0
   59.0387   33.3674   42.0102 H   0  0  0  0  0  0  0  0  0  0  0  0
   59.1295   33.5442   44.8129 H   0  0  0  0  0  0  0  0  0  0  0  0
   57.9819   34.4157   43.7232 H   0  0  0  0  0  0  0  0  0  0  0  0
   56.3753   34.3681   45.2914 H   0  0  0  0  0  0  0  0  0  0  0  0
   56.5314   32.5778   45.4435 H   0  0  0  0  0  0  0  0  0  0  0  0
   57.0410   34.1970   47.4150 H   0  0  0  0  0  0  0  0  0  0  0  0
   59.0847   34.8669   45.6881 H   0  0  0  0  0  0  0  0  0  0  0  0
   58.9447   35.2782   47.4271 H   0  0  0  0  0  0  0  0  0  0  0  0
   61.6433   35.0076   46.5776 H   0  0  0  0  0  0  0  0  0  0  0  0
   63.5174   33.4045   46.9740 H   0  0  0  0  0  0  0  0  0  0  0  0
   63.0200   31.0464   47.6378 H   0  0  0  0  0  0  0  0  0  0  0  0
   60.6424   30.3153   47.8756 H   0  0  0  0  0  0  0  0  0  0  0  0
   58.8790   31.8890   47.4250 H   0  0  0  0  0  0  0  0  0  0  0  0
   55.5447   31.2454   42.9974 H   0  0  0  0  0  0  0  0  0  0  0  0
   54.6074   29.1427   43.9297 H   0  0  0  0  0  0  0  0  0  0  0  0
   56.7776   26.2696   47.0866 H   0  0  0  0  0  0  0  0  0  0  0  0
   56.2837   25.4265   45.5793 H   0  0  0  0  0  0  0  0  0  0  0  0
   57.7288   26.4934   45.5793 H   0  0  0  0  0  0  0  0  0  0  0  0
   58.2903   28.4420   46.0922 H   0  0  0  0  0  0  0  0  0  0  0  0
   59.2245   30.5637   45.1895 H   0  0  0  0  0  0  0  0  0  0  0  0
  1  2  1  0
  2  3  1  0
  3  4  1  0
  4  5  1  0
  5  6  1  0
  6  7  1  0
  7  8  1  0
  8  9  2  0
  9 10  1  0
 10 11  2  0
 11 12  1  0
 12 13  2  0
  3 14  1  0
 14 15  2  0
 15 16  1  0
 16 17  2  0
 17 18  1  0
 18 19  1  0
 17 20  1  0
 20 21  2  0
 13  8  1  0
 21 14  1  0
  1 22  1  0
  1 23  1  0
  1 24  1  0
  2 25  1  0
  2 26  1  0
  4 27  1  0
  4 28  1  0
  5 29  1  0
  5 30  1  0
  6 31  1  0
  7 32  1  0
  7 33  1  0
  9 34  1  0
 10 35  1  0
 11 36  1  0
 12 37  1  0
 13 38  1  0
 15 39  1  0
 16 40  1  0
 19 41  1  0
 19 42  1  0
 19 43  1  0
 20 44  1  0
 21 45  1  0
M  CHG  1  13   1
M  END
>  <UniqueID>  (36) 
35

>  <SMILES>  (36) 
CCN(CCNCc1cccc[nH+]1)c1ccc(OC)cc1

>  <Energy>  (36) 
39.64599196743279

>  <Genealogy>  (36) 
CCN(CCNCc1cccc[nH+]1)c1ccc(OC)cc1 (protonated)
CCN(CCNCc1cccc[nH+]1)c1ccc(OC)cc1 (3D coordinates assigned)
CCN(CCNCc1cccc[nH+]1)c1ccc(OC)cc1 (optimized conformer: 39.64599196743279 kcal/mol)

>  <smiles>  (36) 
CCN(CCNCc1ccccn1)c1ccc(OC)cc1

>  <score_type>  (36) 
oracle

>  <origin>  (36) 
adg

>  <m_score__min__energy>  (36) 
-4.9900000000000002

>  <m_primary>  (36) 
energy

$$$$
36:0
     RDKit          3D

 43 45  0  0  0  0  0  0  0  0999 V2000
   63.1510   34.0040   46.3410 C   0  0  0  0  0  0  0  0  0  0  0  0
   63.7490   33.8910   47.7470 C   0  0  0  0  0  0  0  0  0  0  0  0
   63.8240   32.4900   48.2290 N   0  0  2  0  0  0  0  0  0  0  0  0
   63.2060   31.5800   47.2470 C   0  0  0  0  0  0  0  0  0  0  0  0
   63.2680   32.2780   49.5930 C   0  0  0  0  0  0  0  0  0  0  0  0
   62.7370   33.5550   50.2770 C   0  0  0  0  0  0  0  0  0  0  0  0
   61.2830   33.6420   50.1330 N   0  0  0  0  0  0  0  0  0  0  0  0
   60.5720   33.4890   48.8870 C   0  0  0  0  0  0  0  0  0  0  0  0
   60.2800   34.5830   48.0550 C   0  0  0  0  0  0  0  0  0  0  0  0
   59.5870   34.4000   46.8550 C   0  0  0  0  0  0  0  0  0  0  0  0
   59.1570   33.1180   46.4450 C   0  0  0  0  0  0  0  0  0  0  0  0
   58.4490   32.9650   45.2100 C   0  0  0  0  0  0  0  0  0  0  0  0
   58.2360   34.0070   44.5250 O   0  0  0  0  0  0  0  0  0  0  0  0
   57.9660   31.7210   44.6940 C   0  0  0  0  0  0  0  0  0  0  0  0
   57.2780   31.6930   43.4570 C   0  0  0  0  0  0  0  0  0  0  0  0
   56.7940   30.4920   42.9280 C   0  0  0  0  0  0  0  0  0  0  0  0
   56.9850   29.2930   43.6160 C   0  0  0  0  0  0  0  0  0  0  0  0
   57.6580   29.2910   44.8360 C   0  0  0  0  0  0  0  0  0  0  0  0
   58.1440   30.4910   45.3690 C   0  0  0  0  0  0  0  0  0  0  0  0
   58.9580   30.4890   46.8410 S   0  0  0  0  0  0  0  0  0  0  0  0
   59.4550   32.0300   47.2960 C   0  0  0  0  0  0  0  0  0  0  0  0
   60.1490   32.2130   48.4970 C   0  0  0  0  0  0  0  0  0  0  0  0
   62.0727   34.2078   46.4165 H   0  0  0  0  0  0  0  0  0  0  0  0
   63.6423   34.8252   45.7985 H   0  0  0  0  0  0  0  0  0  0  0  0
   63.3087   33.0602   45.7985 H   0  0  0  0  0  0  0  0  0  0  0  0
   64.7650   34.3122   47.7317 H   0  0  0  0  0  0  0  0  0  0  0  0
   63.0890   34.4423   48.4329 H   0  0  0  0  0  0  0  0  0  0  0  0
   64.8380   32.2260   48.2730 H   0  0  0  0  0  0  0  0  0  0  0  0
   62.6643   30.7824   47.7765 H   0  0  0  0  0  0  0  0  0  0  0  0
   62.5033   32.1440   46.6160 H   0  0  0  0  0  0  0  0  0  0  0  0
   63.9893   31.1348   46.6160 H   0  0  0  0  0  0  0  0  0  0  0  0
   62.4386   31.5594   49.5173 H   0  0  0  0  0  0  0  0  0  0  0  0
   64.0993   31.9145   50.2149 H   0  0  0  0  0  0  0  0  0  0  0  0
   62.9947   33.5278   51.3460 H   0  0  0  0  0  0  0  0  0  0  0  0
   63.1967   34.4334   49.8005 H   0  0  0  0  0  0  0  0  0  0  0  0
   60.7320   33.8540   50.9960 H   0  0  0  0  0  0  0  0  0  0  0  0
   60.5998   35.5931   48.3508 H   0  0  0  0  0  0  0  0  0  0  0  0
   59.3723   35.2705   46.2177 H   0  0  0  0  0  0  0  0  0  0  0  0
   57.1216   32.6305   42.9032 H   0  0  0  0  0  0  0  0  0  0  0  0
   56.2607   30.4926   41.9659 H   0  0  0  0  0  0  0  0  0  0  0  0
   56.6046   28.3504   43.1956 H   0  0  0  0  0  0  0  0  0  0  0  0
   57.8075   28.3469   45.3803 H   0  0  0  0  0  0  0  0  0  0  0  0
   60.3640   31.3469   49.1401 H   0  0  0  0  0  0  0  0  0  0  0  0
  1  2  1  0
  2  3  1  0
  3  4  1  0
  3  5  1  0
  5  6  1  0
  6  7  1  0
  7  8  1  0
  8  9  2  0
  9 10  1  0
 10 11  2  0
 11 12  1  0
 12 13  2  0
 12 14  1  0
 14 15  2  0
 15 16  1  0
 16 17  2  0
 17 18  1  0
 18 19  2  0
 19 20  1  0
 20 21  1  0
 21 22  2  0
 22  8  1  0
 21 11  1  0
 19 14  1  0
  1 23  1  0
  1 24  1  0
  1 25  1  0
  2 26  1  0
  2 27  1  0
  3 28  1  1
  4 29  1  0
  4 30  1  0
  4 31  1  0
  5 32  1  0
  5 33  1  0
  6 34  1  0
  6 35  1  0
  7 36  1  0
  9 37  1  0
 10 38  1  0
 15 39  1  0
 16 40  1  0
 17 41  1  0
 18 42  1  0
 22 43  1  0
M  CHG  1   3   1
M  END
>  <UniqueID>  (37) 
36

>  <SMILES>  (37) 
CC[N@H+](C)CCNc1ccc2c(=O)c3ccccc3sc2c1

>  <Energy>  (37) 
58.03159642106692

>  <Genealogy>  (37) 
CC[NH+](C)CCNc1ccc2c(=O)c3ccccc3sc2c1 (protonated)
CC[N@H+](C)CCNc1ccc2c(=O)c3ccccc3sc2c1 (chirality)
CC[N@H+](C)CCNc1ccc2c(=O)c3ccccc3sc2c1 (3D coordinates assigned)
CC[N@H+](C)CCNc1ccc2c(=O)c3ccccc3sc2c1 (optimized conformer: 58.03159642106692 kcal/mol)

>  <smiles>  (37) 
CCN(C)CCNc1ccc2c(=O)c3ccccc3sc2c1

>  <score_type>  (37) 
oracle

>  <origin>  (37) 
adg

>  <m_score__min__energy>  (37) 
-6.0800000000000001

>  <m_primary>  (37) 
energy

$$$$
37:0
     RDKit          3D

 54 57  0  0  0  0  0  0  0  0999 V2000
   63.4140   33.8040   46.3940 C   0  0  0  0  0  0  0  0  0  0  0  0
   63.0310   32.9750   47.5530 N   0  0  0  0  0  0  0  0  0  0  0  0
   62.9260   31.5690   47.1330 C   0  0  0  0  0  0  0  0  0  0  0  0
   64.0010   33.0990   48.6700 C   0  0  0  0  0  0  0  0  0  0  0  0
   63.4030   33.8100   49.8950 C   0  0  0  0  0  0  0  0  0  0  0  0
   62.2260   34.5930   49.4810 N   0  0  0  0  0  0  0  0  0  0  0  0
   60.9800   34.1190   50.0970 C   0  0  0  0  0  0  0  0  0  0  0  0
   60.1770   33.3460   49.0830 C   0  0  0  0  0  0  0  0  0  0  0  0
   60.1250   31.9450   49.1270 C   0  0  0  0  0  0  0  0  0  0  0  0
   59.4550   31.2300   48.1300 C   0  0  0  0  0  0  0  0  0  0  0  0
   58.8100   31.9040   47.0810 C   0  0  0  0  0  0  0  0  0  0  0  0
   58.1270   31.1460   46.0060 C   0  0  0  0  0  0  0  0  0  0  0  0
   57.6920   31.8050   44.8460 C   0  0  0  0  0  0  0  0  0  0  0  0
   57.0210   31.0990   43.8460 C   0  0  0  0  0  0  0  0  0  0  0  0
   56.7860   29.7310   43.9890 C   0  0  0  0  0  0  0  0  0  0  0  0
   57.2260   29.0480   45.1340 C   0  0  0  0  0  0  0  0  0  0  0  0
   57.0040   27.5900   45.2680 C   0  0  0  0  0  0  0  0  0  0  0  0
   57.9640   26.6660   44.9880 N   0  0  0  0  0  0  0  0  0  0  0  0
   57.3410   25.5080   45.2380 C   0  0  0  0  0  0  0  0  0  0  0  0
   57.8580   24.2180   45.1230 C   0  0  0  0  0  0  0  0  0  0  0  0
   57.0090   23.1420   45.4550 C   0  0  0  0  0  0  0  0  0  0  0  0
   55.6880   23.3870   45.8850 C   0  0  0  0  0  0  0  0  0  0  0  0
   55.2020   24.7050   45.9880 C   0  0  0  0  0  0  0  0  0  0  0  0
   56.0690   25.7420   45.6510 C   0  0  0  0  0  0  0  0  0  0  0  0
   55.8250   27.0600   45.6850 N   0  0  0  0  0  0  0  0  0  0  0  0
   57.8920   29.7670   46.1420 C   0  0  0  0  0  0  0  0  0  0  0  0
   58.8430   33.3050   47.0510 C   0  0  0  0  0  0  0  0  0  0  0  0
   59.5340   34.0200   48.0350 C   0  0  0  0  0  0  0  0  0  0  0  0
   63.8508   34.7495   46.7478 H   0  0  0  0  0  0  0  0  0  0  0  0
   64.1537   33.2636   45.7851 H   0  0  0  0  0  0  0  0  0  0  0  0
   62.5230   34.0169   45.7851 H   0  0  0  0  0  0  0  0  0  0  0  0
   62.0840   33.2820   47.8830 H   0  0  0  0  0  0  0  0  0  0  0  0
   62.8778   30.9233   48.0222 H   0  0  0  0  0  0  0  0  0  0  0  0
   62.0152   31.4331   46.5314 H   0  0  0  0  0  0  0  0  0  0  0  0
   63.8065   31.2993   46.5314 H   0  0  0  0  0  0  0  0  0  0  0  0
   64.3237   32.0911   48.9701 H   0  0  0  0  0  0  0  0  0  0  0  0
   64.8462   33.7053   48.3121 H   0  0  0  0  0  0  0  0  0  0  0  0
   63.1013   33.0616   50.6425 H   0  0  0  0  0  0  0  0  0  0  0  0
   64.1556   34.4822   50.3329 H   0  0  0  0  0  0  0  0  0  0  0  0
   62.3790   35.5890   49.7640 H   0  0  0  0  0  0  0  0  0  0  0  0
   61.2184   33.4663   50.9498 H   0  0  0  0  0  0  0  0  0  0  0  0
   60.3939   34.9818   50.4462 H   0  0  0  0  0  0  0  0  0  0  0  0
   60.6145   31.4055   49.9512 H   0  0  0  0  0  0  0  0  0  0  0  0
   59.4330   30.1309   48.1677 H   0  0  0  0  0  0  0  0  0  0  0  0
   57.8804   32.8819   44.7242 H   0  0  0  0  0  0  0  0  0  0  0  0
   56.6763   31.6229   42.9422 H   0  0  0  0  0  0  0  0  0  0  0  0
   56.2519   29.1835   43.1985 H   0  0  0  0  0  0  0  0  0  0  0  0
   58.8907   24.0459   44.7855 H   0  0  0  0  0  0  0  0  0  0  0  0
   57.3780   22.1086   45.3784 H   0  0  0  0  0  0  0  0  0  0  0  0
   55.0322   22.5420   46.1419 H   0  0  0  0  0  0  0  0  0  0  0  0
   54.1741   24.9083   46.3227 H   0  0  0  0  0  0  0  0  0  0  0  0
   58.2331   29.2442   47.0477 H   0  0  0  0  0  0  0  0  0  0  0  0
   58.3217   33.8463   46.2477 H   0  0  0  0  0  0  0  0  0  0  0  0
   59.5732   35.1182   47.9863 H   0  0  0  0  0  0  0  0  0  0  0  0
  1  2  1  0
  2  3  1  0
  2  4  1  0
  4  5  1  0
  5  6  1  0
  6  7  1  0
  7  8  1  0
  8  9  2  0
  9 10  1  0
 10 11  2  0
 11 12  1  0
 12 13  2  0
 13 14  1  0
 14 15  2  0
 15 16  1  0
 16 17  1  0
 17 18  2  0
 18 19  1  0
 19 20  2  0
 20 21  1  0
 21 22  2  0
 22 23  1  0
 23 24  2  0
 24 25  1  0
 16 26  2  0
 11 27  1  0
 27 28  2  0
 28  8  1  0
 26 12  1  0
 25 17  1  0
 24 19  1  0
  1 29  1  0
  1 30  1  0
  1 31  1  0
  2 32  1  0
  3 33  1  0
  3 34  1  0
  3 35  1  0
  4 36  1  0
  4 37  1  0
  5 38  1  0
  5 39  1  0
  6 40  1  0
  7 41  1  0
  7 42  1  0
  9 43  1  0
 10 44  1  0
 13 45  1  0
 14 46  1  0
 15 47  1  0
 20 48  1  0
 21 49  1  0
 22 50  1  0
 23 51  1  0
 26 52  1  0
 27 53  1  0
 28 54  1  0
M  CHG  2   2   1  25  -1
M  END
>  <UniqueID>  (38) 
37

>  <SMILES>  (38) 
C[NH+](C)CCNCc1ccc(-c2cccc(-c3nc4ccccc4[n-]3)c2)cc1

>  <Energy>  (38) 
99.5522439396132

>  <Genealogy>  (38) 
C[NH+](C)CCNCc1ccc(-c2cccc(-c3nc4ccccc4[n-]3)c2)cc1 (protonated)
C[NH+](C)CCNCc1ccc(-c2cccc(-c3nc4ccccc4[n-]3)c2)cc1 (3D coordinates assigned)
C[NH+](C)CCNCc1ccc(-c2cccc(-c3nc4ccccc4[n-]3)c2)cc1 (optimized conformer: 99.5522439396132 kcal/mol)

>  <smiles>  (38) 
CN(C)CCNCc1ccc(-c2cccc(-c3nc4ccccc4[nH]3)c2)cc1

>  <score_type>  (38) 
oracle

>  <origin>  (38) 
adg

>  <m_score__min__energy>  (38) 
-8.5199999999999996

>  <m_primary>  (38) 
energy

$$$$
38:0
     RDKit          3D

 51 53  0  0  0  0  0  0  0  0999 V2000
   64.4790   33.4630   48.6100 C   0  0  0  0  0  0  0  0  0  0  0  0
   63.2500   34.1410   48.3620 O   0  0  0  0  0  0  0  0  0  0  0  0
   62.0230   33.5010   48.1310 C   0  0  0  0  0  0  0  0  0  0  0  0
   61.1990   33.8360   47.0400 C   0  0  0  0  0  0  0  0  0  0  0  0
   59.9910   33.1590   46.8190 C   0  0  0  0  0  0  0  0  0  0  0  0
   59.6150   32.1170   47.6790 C   0  0  0  0  0  0  0  0  0  0  0  0
   60.4080   31.8160   48.7980 C   0  0  0  0  0  0  0  0  0  0  0  0
   61.6150   32.5020   49.0260 C   0  0  0  0  0  0  0  0  0  0  0  0
   62.4380   32.2180   50.1270 O   0  0  0  0  0  0  0  0  0  0  0  0
   62.8420   30.9110   50.5180 C   0  0  0  0  0  0  0  0  0  0  0  0
   58.3540   31.3380   47.4260 C   0  0  0  0  0  0  0  0  0  0  0  0
   57.9870   31.3000   45.9930 N   0  0  2  0  0  0  0  0  0  0  0  0
   58.7190   30.2880   45.1810 C   0  0  0  0  0  0  0  0  0  0  0  0
   58.3660   28.8400   45.4760 C   0  0  0  0  0  0  0  0  0  0  0  0
   59.4000   27.9250   45.7250 C   0  0  0  0  0  0  0  0  0  0  0  0
   59.1130   26.6090   46.0700 C   0  0  0  0  0  0  0  0  0  0  0  0
   57.7910   26.1820   46.1600 C   0  0  0  0  0  0  0  0  0  0  0  0
   56.7310   27.0600   45.8620 C   0  0  0  0  0  0  0  0  0  0  0  0
   55.3980   26.6350   45.9660 O   0  0  0  0  0  0  0  0  0  0  0  0
   54.9260   25.3350   45.6250 C   0  0  0  0  0  0  0  0  0  0  0  0
   57.0230   28.3940   45.4700 C   0  0  0  0  0  0  0  0  0  0  0  0
   56.0340   29.3160   45.0760 O   0  0  0  0  0  0  0  0  0  0  0  0
   55.7930   29.7910   43.7560 C   0  0  0  0  0  0  0  0  0  0  0  0
   57.9070   32.6520   45.3920 C   0  0  0  0  0  0  0  0  0  0  0  0
   59.1360   33.5560   45.6450 C   0  0  0  0  0  0  0  0  0  0  0  0
   64.6371   33.3758   49.6951 H   0  0  0  0  0  0  0  0  0  0  0  0
   64.4403   32.4586   48.1632 H   0  0  0  0  0  0  0  0  0  0  0  0
   65.3080   34.0314   48.1632 H   0  0  0  0  0  0  0  0  0  0  0  0
   61.5062   34.6381   46.3528 H   0  0  0  0  0  0  0  0  0  0  0  0
   60.0826   31.0367   49.5028 H   0  0  0  0  0  0  0  0  0  0  0  0
   62.8619   30.8465   51.6159 H   0  0  0  0  0  0  0  0  0  0  0  0
   62.1301   30.1728   50.1202 H   0  0  0  0  0  0  0  0  0  0  0  0
   63.8463   30.7033   50.1202 H   0  0  0  0  0  0  0  0  0  0  0  0
   58.4999   30.3067   47.7799 H   0  0  0  0  0  0  0  0  0  0  0  0
   57.5378   31.8403   47.9659 H   0  0  0  0  0  0  0  0  0  0  0  0
   56.9980   30.9500   45.9870 H   0  0  0  0  0  0  0  0  0  0  0  0
   58.5014   30.4815   44.1202 H   0  0  0  0  0  0  0  0  0  0  0  0
   59.7819   30.4009   45.4406 H   0  0  0  0  0  0  0  0  0  0  0  0
   60.4474   28.2517   45.6466 H   0  0  0  0  0  0  0  0  0  0  0  0
   59.9324   25.9036   46.2723 H   0  0  0  0  0  0  0  0  0  0  0  0
   57.5722   25.1486   46.4669 H   0  0  0  0  0  0  0  0  0  0  0  0
   54.7198   24.7670   46.5442 H   0  0  0  0  0  0  0  0  0  0  0  0
   54.0026   25.4236   45.0338 H   0  0  0  0  0  0  0  0  0  0  0  0
   55.6911   24.8105   45.0338 H   0  0  0  0  0  0  0  0  0  0  0  0
   55.2958   30.7710   43.8041 H   0  0  0  0  0  0  0  0  0  0  0  0
   56.7494   29.8909   43.2219 H   0  0  0  0  0  0  0  0  0  0  0  0
   55.1475   29.0781   43.2219 H   0  0  0  0  0  0  0  0  0  0  0  0
   57.7880   32.5351   44.3047 H   0  0  0  0  0  0  0  0  0  0  0  0
   57.0543   33.1519   45.8747 H   0  0  0  0  0  0  0  0  0  0  0  0
   59.7653   33.5356   44.7430 H   0  0  0  0  0  0  0  0  0  0  0  0
   58.7383   34.5544   45.8798 H   0  0  0  0  0  0  0  0  0  0  0  0
  1  2  1  0
  2  3  1  0
  3  4  2  0
  4  5  1  0
  5  6  2  0
  6  7  1  0
  7  8  2  0
  8  9  1  0
  9 10  1  0
  6 11  1  0
 11 12  1  0
 12 13  1  0
 13 14  1  0
 14 15  2  0
 15 16  1  0
 16 17  2  0
 17 18  1  0
 18 19  1  0
 19 20  1  0
 18 21  2  0
 21 22  1  0
 22 23  1  0
 12 24  1  0
 24 25  1  0
  8  3  1  0
 21 14  1  0
 25  5  1  0
  1 26  1  0
  1 27  1  0
  1 28  1  0
  4 29  1  0
  7 30  1  0
 10 31  1  0
 10 32  1  0
 10 33  1  0
 11 34  1  0
 11 35  1  0
 12 36  1  1
 13 37  1  0
 13 38  1  0
 15 39  1  0
 16 40  1  0
 17 41  1  0
 20 42  1  0
 20 43  1  0
 20 44  1  0
 23 45  1  0
 23 46  1  0
 23 47  1  0
 24 48  1  0
 24 49  1  0
 25 50  1  0
 25 51  1  0
M  CHG  1  12   1
M  END
>  <UniqueID>  (39) 
38

>  <SMILES>  (39) 
COc1cc2c(cc1OC)C[N@H+](Cc1cccc(OC)c1OC)CC2

>  <Energy>  (39) 
62.741817153259284

>  <Genealogy>  (39) 
COc1cc2c(cc1OC)C[NH+](Cc1cccc(OC)c1OC)CC2 (protonated)
COc1cc2c(cc1OC)C[N@H+](Cc1cccc(OC)c1OC)CC2 (chirality)
COc1cc2c(cc1OC)C[N@H+](Cc1cccc(OC)c1OC)CC2 (3D coordinates assigned)
COc1cc2c(cc1OC)C[N@H+](Cc1cccc(OC)c1OC)CC2 (nonaromatic ring conformer: 62.741817153259284 kcal/mol)

>  <smiles>  (39) 
COc1cc2c(cc1OC)CN(Cc1cccc(OC)c1OC)CC2

>  <score_type>  (39) 
oracle

>  <origin>  (39) 
adg

>  <m_score__min__energy>  (39) 
-5.9699999999999998

>  <m_primary>  (39) 
energy

$$$$
39:0
     RDKit          3D

 45 46  0  0  0  0  0  0  0  0999 V2000
   60.5030   30.2380   49.9860 C   0  0  0  0  0  0  0  0  0  0  0  0
   61.4880   30.1400   48.8090 C   0  0  0  0  0  0  0  0  0  0  0  0
   60.8400   29.9280   47.4880 N   0  0  0  0  0  0  0  0  0  0  0  0
   60.6560   31.2130   46.7510 C   0  0  0  0  0  0  0  0  0  0  0  0
   61.7250   32.2490   47.1170 C   0  0  0  0  0  0  0  0  0  0  0  0
   59.5720   29.1640   47.6340 C   0  0  0  0  0  0  0  0  0  0  0  0
   59.5210   27.8790   46.7870 C   0  0  0  0  0  0  0  0  0  0  0  0
   59.8990   28.1840   45.0690 S   0  0  0  0  0  0  0  0  0  0  0  0
   61.4750   28.7300   44.8650 O   0  0  0  0  0  0  0  0  0  0  0  0
   58.7540   29.2770   44.3230 C   0  0  0  0  0  0  0  0  0  0  0  0
   58.8640   30.6210   44.3740 N   0  0  0  0  0  0  0  0  0  0  0  0
   57.8230   31.2290   43.7460 C   0  0  0  0  0  0  0  0  0  0  0  0
   57.7460   32.7190   43.6180 C   0  0  0  0  0  0  0  0  0  0  0  0
   58.2120   33.3700   44.8910 C   0  0  0  0  0  0  0  0  0  0  0  0
   59.1860   34.3800   44.8570 C   0  0  0  0  0  0  0  0  0  0  0  0
   59.6450   34.9580   46.0450 C   0  0  0  0  0  0  0  0  0  0  0  0
   59.1410   34.5230   47.2750 C   0  0  0  0  0  0  0  0  0  0  0  0
   58.1810   33.5070   47.3180 C   0  0  0  0  0  0  0  0  0  0  0  0
   57.7210   32.9280   46.1320 C   0  0  0  0  0  0  0  0  0  0  0  0
   56.8870   30.3670   43.1790 C   0  0  0  0  0  0  0  0  0  0  0  0
   57.3760   28.7900   43.5000 S   0  0  0  0  0  0  0  0  0  0  0  0
   61.0580   30.1828   50.9341 H   0  0  0  0  0  0  0  0  0  0  0  0
   59.9622   31.1944   49.9329 H   0  0  0  0  0  0  0  0  0  0  0  0
   59.7843   29.4069   49.9329 H   0  0  0  0  0  0  0  0  0  0  0  0
   62.0656   31.0751   48.7638 H   0  0  0  0  0  0  0  0  0  0  0  0
   62.1183   29.2583   48.9970 H   0  0  0  0  0  0  0  0  0  0  0  0
   61.5170   29.3230   46.9640 H   0  0  0  0  0  0  0  0  0  0  0  0
   60.7118   31.0129   45.6708 H   0  0  0  0  0  0  0  0  0  0  0  0
   59.6758   31.6258   47.0317 H   0  0  0  0  0  0  0  0  0  0  0  0
   61.8029   32.3245   48.2116 H   0  0  0  0  0  0  0  0  0  0  0  0
   62.6946   31.9380   46.7010 H   0  0  0  0  0  0  0  0  0  0  0  0
   61.4445   33.2279   46.7010 H   0  0  0  0  0  0  0  0  0  0  0  0
   59.4535   28.8872   48.6920 H   0  0  0  0  0  0  0  0  0  0  0  0
   58.7614   29.8162   47.2767 H   0  0  0  0  0  0  0  0  0  0  0  0
   60.2522   27.1618   47.1881 H   0  0  0  0  0  0  0  0  0  0  0  0
   58.4968   27.4812   46.8406 H   0  0  0  0  0  0  0  0  0  0  0  0
   61.8260   28.2110   44.0980 H   0  0  0  0  0  0  0  0  0  0  0  0
   58.3865   33.0466   42.7858 H   0  0  0  0  0  0  0  0  0  0  0  0
   56.7034   33.0111   43.4241 H   0  0  0  0  0  0  0  0  0  0  0  0
   59.5902   34.7185   43.8916 H   0  0  0  0  0  0  0  0  0  0  0  0
   60.4026   35.7549   46.0120 H   0  0  0  0  0  0  0  0  0  0  0  0
   59.4999   34.9802   48.2089 H   0  0  0  0  0  0  0  0  0  0  0  0
   57.7876   33.1633   48.2860 H   0  0  0  0  0  0  0  0  0  0  0  0
   56.9719   32.1234   46.1697 H   0  0  0  0  0  0  0  0  0  0  0  0
   55.9875   30.6649   42.6203 H   0  0  0  0  0  0  0  0  0  0  0  0
  1  2  1  0
  2  3  1  0
  3  4  1  0
  4  5  1  0
  3  6  1  0
  6  7  1  0
  7  8  1  0
  8  9  1  1
  8 10  1  0
 10 11  2  0
 11 12  1  0
 12 13  1  0
 13 14  1  0
 14 15  2  0
 15 16  1  0
 16 17  2  0
 17 18  1  0
 18 19  2  0
 12 20  2  0
 20 21  1  0
 21 10  1  0
 19 14  1  0
  1 22  1  0
  1 23  1  0
  1 24  1  0
  2 25  1  0
  2 26  1  0
  3 27  1  0
  4 28  1  0
  4 29  1  0
  5 30  1  0
  5 31  1  0
  5 32  1  0
  6 33  1  0
  6 34  1  0
  7 35  1  0
  7 36  1  0
  9 37  1  0
 13 38  1  0
 13 39  1  0
 15 40  1  0
 16 41  1  0
 17 42  1  0
 18 43  1  0
 19 44  1  0
 20 45  1  0
M  CHG  2   3   1   8   1
M  END
>  <UniqueID>  (40) 
39

>  <SMILES>  (40) 
CC[NH+](CC)CC[S@+](O)c1nc(Cc2ccccc2)cs1

>  <Energy>  (40) 
70.25046479295541

>  <Genealogy>  (40) 
CC[NH+](CC)CC[S+](O)c1nc(Cc2ccccc2)cs1 (protonated)
CC[NH+](CC)CC[S@+](O)c1nc(Cc2ccccc2)cs1 (chirality)
CC[NH+](CC)CC[S@+](O)c1nc(Cc2ccccc2)cs1 (3D coordinates assigned)
CC[NH+](CC)CC[S@+](O)c1nc(Cc2ccccc2)cs1 (optimized conformer: 70.25046479295541 kcal/mol)

>  <smiles>  (40) 
CCN(CC)CC[S+]([O-])c1nc(Cc2ccccc2)cs1

>  <score_type>  (40) 
oracle

>  <origin>  (40) 
adg

>  <m_score__min__energy>  (40) 
-4.6600000000000001

>  <m_primary>  (40) 
energy

$$$$
40:0
     RDKit          3D

 44 46  0  0  0  0  0  0  0  0999 V2000
   60.7320   28.7530   44.9000 C   0  0  0  0  0  0  0  0  0  0  0  0
   59.4490   28.0460   45.2510 C   0  0  0  0  0  0  0  0  0  0  0  0
   59.5000   26.6870   45.6060 C   0  0  0  0  0  0  0  0  0  0  0  0
   58.3400   25.9990   45.9600 C   0  0  0  0  0  0  0  0  0  0  0  0
   57.0990   26.6530   45.9770 C   0  0  0  0  0  0  0  0  0  0  0  0
   55.9010   25.9440   46.3430 N   0  0  0  0  0  0  0  0  0  0  0  0
   54.7860   26.3190   45.9260 O   0  0  0  0  0  0  0  0  0  0  0  0
   55.9640   24.8380   47.1600 O   0  0  0  0  0  0  0  0  0  0  0  0
   57.0440   28.0140   45.6350 C   0  0  0  0  0  0  0  0  0  0  0  0
   58.2050   28.7190   45.2760 C   0  0  0  0  0  0  0  0  0  0  0  0
   58.0720   30.4440   44.8800 S   0  0  0  0  0  0  0  0  0  0  0  0
   56.6490   30.9060   45.0420 O   0  0  0  0  0  0  0  0  0  0  0  0
   58.4780   30.6450   43.4460 O   0  0  0  0  0  0  0  0  0  0  0  0
   59.1070   31.3770   45.9300 N   0  0  0  0  0  0  0  0  0  0  0  0
   58.8350   31.0330   47.3440 C   0  0  0  0  0  0  0  0  0  0  0  0
   59.3450   32.1070   48.3270 C   0  0  0  0  0  0  0  0  0  0  0  0
   60.3470   32.9680   47.6870 N   0  0  0  0  0  0  0  0  0  0  0  0
   61.6030   33.2450   48.3370 C   0  0  0  0  0  0  0  0  0  0  0  0
   62.8090   32.8080   47.7670 C   0  0  0  0  0  0  0  0  0  0  0  0
   64.0150   33.0830   48.4140 C   0  0  0  0  0  0  0  0  0  0  0  0
   64.0120   33.7820   49.6200 C   0  0  0  0  0  0  0  0  0  0  0  0
   62.7960   34.1940   50.1670 C   0  0  0  0  0  0  0  0  0  0  0  0
   61.6270   33.9200   49.5250 N   0  0  0  0  0  0  0  0  0  0  0  0
   60.0270   33.5910   46.3970 C   0  0  0  0  0  0  0  0  0  0  0  0
   58.9190   32.8130   45.6790 C   0  0  0  0  0  0  0  0  0  0  0  0
   61.2559   29.0417   45.8231 H   0  0  0  0  0  0  0  0  0  0  0  0
   61.3719   28.0802   44.3103 H   0  0  0  0  0  0  0  0  0  0  0  0
   60.5050   29.6534   44.3103 H   0  0  0  0  0  0  0  0  0  0  0  0
   60.4657   26.1603   45.6045 H   0  0  0  0  0  0  0  0  0  0  0  0
   58.3985   24.9338   46.2284 H   0  0  0  0  0  0  0  0  0  0  0  0
   56.0761   28.5365   45.6484 H   0  0  0  0  0  0  0  0  0  0  0  0
   57.7486   30.9222   47.4765 H   0  0  0  0  0  0  0  0  0  0  0  0
   59.3696   30.0979   47.5671 H   0  0  0  0  0  0  0  0  0  0  0  0
   58.4970   32.7250   48.6573 H   0  0  0  0  0  0  0  0  0  0  0  0
   59.8111   31.6039   49.1870 H   0  0  0  0  0  0  0  0  0  0  0  0
   62.8038   32.2529   46.8174 H   0  0  0  0  0  0  0  0  0  0  0  0
   64.9657   32.7488   47.9731 H   0  0  0  0  0  0  0  0  0  0  0  0
   64.9578   34.0064   50.1349 H   0  0  0  0  0  0  0  0  0  0  0  0
   62.7819   34.7422   51.1205 H   0  0  0  0  0  0  0  0  0  0  0  0
   60.7330   34.2180   49.9770 H   0  0  0  0  0  0  0  0  0  0  0  0
   59.6897   34.6238   46.5687 H   0  0  0  0  0  0  0  0  0  0  0  0
   60.9290   33.5834   45.7675 H   0  0  0  0  0  0  0  0  0  0  0  0
   57.9376   33.1295   46.0621 H   0  0  0  0  0  0  0  0  0  0  0  0
   58.9641   33.0117   44.5980 H   0  0  0  0  0  0  0  0  0  0  0  0
  1  2  1  0
  2  3  2  0
  3  4  1  0
  4  5  2  0
  5  6  1  0
  6  7  2  0
  6  8  1  0
  5  9  1  0
  9 10  2  0
 10 11  1  0
 11 12  2  0
 11 13  2  0
 11 14  1  0
 14 15  1  0
 15 16  1  0
 16 17  1  0
 17 18  1  0
 18 19  2  0
 19 20  1  0
 20 21  2  0
 21 22  1  0
 22 23  2  0
 17 24  1  0
 24 25  1  0
 10  2  1  0
 25 14  1  0
 23 18  1  0
  1 26  1  0
  1 27  1  0
  1 28  1  0
  3 29  1  0
  4 30  1  0
  9 31  1  0
 15 32  1  0
 15 33  1  0
 16 34  1  0
 16 35  1  0
 19 36  1  0
 20 37  1  0
 21 38  1  0
 22 39  1  0
 23 40  1  0
 24 41  1  0
 24 42  1  0
 25 43  1  0
 25 44  1  0
M  CHG  3   6   1   8  -1  23   1
M  END
>  <UniqueID>  (41) 
40

>  <SMILES>  (41) 
Cc1ccc([N+](=O)[O-])cc1S(=O)(=O)N1CCN(c2cccc[nH+]2)CC1

>  <Energy>  (41) 
55.1004592107575

>  <Genealogy>  (41) 
Cc1ccc([N+](=O)[O-])cc1S(=O)(=O)N1CCN(c2cccc[nH+]2)CC1 (protonated)
Cc1ccc([N+](=O)[O-])cc1S(=O)(=O)N1CCN(c2cccc[nH+]2)CC1 (3D coordinates assigned)
Cc1ccc([N+](=O)[O-])cc1S(=O)(=O)N1CCN(c2cccc[nH+]2)CC1 (nonaromatic ring conformer: 55.1004592107575 kcal/mol)

>  <smiles>  (41) 
Cc1ccc([N+](=O)[O-])cc1S(=O)(=O)N1CCN(c2ccccn2)CC1

>  <score_type>  (41) 
oracle

>  <origin>  (41) 
adg

>  <m_score__min__energy>  (41) 
-7.6699999999999999

>  <m_primary>  (41) 
energy

$$$$
41:0
     RDKit          3D

 48 50  0  0  0  0  0  0  0  0999 V2000
   55.7798   30.9318   43.4039 H   0  0  0  0  0  0  0  0  0  0  0  0
   56.2470   30.2980   44.1720 C   0  0  0  0  0  0  0  0  0  0  0  0
   55.7380   29.0650   44.4330 N   0  0  0  0  0  0  0  0  0  0  0  0
   56.2780   28.2430   45.3740 C   0  0  0  0  0  0  0  0  0  0  0  0
   55.7810   27.0630   45.6180 N   0  0  0  0  0  0  0  0  0  0  0  0
   56.4590   25.8520   45.9970 C   0  0  0  0  0  0  0  0  0  0  0  0
   55.8460   25.0270   46.7250 O   0  0  0  0  0  0  0  0  0  0  0  0
   57.8600   25.5240   45.5720 C   0  0  0  0  0  0  0  0  0  0  0  0
   58.4884   25.3769   46.4627 H   0  0  0  0  0  0  0  0  0  0  0  0
   57.8546   24.6028   44.9708 H   0  0  0  0  0  0  0  0  0  0  0  0
   58.2641   26.3518   44.9708 H   0  0  0  0  0  0  0  0  0  0  0  0
   57.3940   28.6720   46.1000 C   0  0  0  0  0  0  0  0  0  0  0  0
   57.8343   28.0187   46.8676 H   0  0  0  0  0  0  0  0  0  0  0  0
   57.9530   29.9360   45.8500 C   0  0  0  0  0  0  0  0  0  0  0  0
   59.1400   30.3660   46.6200 C   0  0  0  0  0  0  0  0  0  0  0  0
   60.4160   30.3170   46.0350 C   0  0  0  0  0  0  0  0  0  0  0  0
   60.5318   29.9529   45.0035 H   0  0  0  0  0  0  0  0  0  0  0  0
   61.5400   30.7290   46.7580 C   0  0  0  0  0  0  0  0  0  0  0  0
   62.5352   30.6938   46.2908 H   0  0  0  0  0  0  0  0  0  0  0  0
   61.4030   31.1870   48.0770 C   0  0  0  0  0  0  0  0  0  0  0  0
   62.5930   31.6260   48.8350 C   0  0  0  0  0  0  0  0  0  0  0  0
   62.9540   30.8970   49.9820 C   0  0  0  0  0  0  0  0  0  0  0  0
   62.3464   30.0346   50.2936 H   0  0  0  0  0  0  0  0  0  0  0  0
   64.0760   31.2580   50.7280 C   0  0  0  0  0  0  0  0  0  0  0  0
   64.3519   30.6776   51.6207 H   0  0  0  0  0  0  0  0  0  0  0  0
   64.8480   32.3530   50.3440 C   0  0  0  0  0  0  0  0  0  0  0  0
   65.7346   32.6326   50.9320 H   0  0  0  0  0  0  0  0  0  0  0  0
   64.4990   33.0950   49.2160 C   0  0  0  0  0  0  0  0  0  0  0  0
   65.1110   33.9611   48.9237 H   0  0  0  0  0  0  0  0  0  0  0  0
   63.3730   32.7480   48.4480 C   0  0  0  0  0  0  0  0  0  0  0  0
   62.9990   33.6430   47.2780 C   0  0  0  0  0  0  0  0  0  0  0  0
   63.0216   33.0461   46.3543 H   0  0  0  0  0  0  0  0  0  0  0  0
   63.7247   34.4687   47.2396 H   0  0  0  0  0  0  0  0  0  0  0  0
   61.6580   34.2280   47.4310 N   0  0  0  0  0  0  0  0  0  0  0  0
   61.2050   33.8360   48.2900 H   0  0  0  0  0  0  0  0  0  0  0  0
   60.8040   33.9480   46.2700 C   0  0  0  0  0  0  0  0  0  0  0  0
   60.4259   32.9171   46.3356 H   0  0  0  0  0  0  0  0  0  0  0  0
   61.3933   34.0702   45.3493 H   0  0  0  0  0  0  0  0  0  0  0  0
   59.6290   34.9160   46.2450 C   0  0  0  0  0  0  0  0  0  0  0  0
   59.3329   35.1599   47.2759 H   0  0  0  0  0  0  0  0  0  0  0  0
   59.9237   35.8369   45.7205 H   0  0  0  0  0  0  0  0  0  0  0  0
   58.7815   34.4505   45.7205 H   0  0  0  0  0  0  0  0  0  0  0  0
   60.1260   31.2740   48.6490 C   0  0  0  0  0  0  0  0  0  0  0  0
   60.0085   31.6671   49.6696 H   0  0  0  0  0  0  0  0  0  0  0  0
   59.0010   30.8630   47.9270 C   0  0  0  0  0  0  0  0  0  0  0  0
   58.0028   30.9291   48.3843 H   0  0  0  0  0  0  0  0  0  0  0  0
   57.3610   30.7640   44.8750 C   0  0  0  0  0  0  0  0  0  0  0  0
   57.9370   32.3970   44.5550 Cl  0  0  0  0  0  0  0  0  0  0  0  0
  1  2  1  0
  2  3  1  0
  3  4  1  0
  4  5  2  0
  5  6  1  0
  6  7  2  0
  6  8  1  0
  8  9  1  0
  8 10  1  0
  8 11  1  0
  4 12  1  0
 12 13  1  0
 12 14  2  0
 14 15  1  0
 15 16  2  0
 16 17  1  0
 16 18  1  0
 18 19  1  0
 18 20  2  0
 20 21  1  0
 21 22  2  0
 22 23  1  0
 22 24  1  0
 24 25  1  0
 24 26  2  0
 26 27  1  0
 26 28  1  0
 28 29  1  0
 28 30  2  0
 30 31  1  0
 31 32  1  0
 31 33  1  0
 31 34  1  0
 34 35  1  0
 34 36  1  0
 36 37  1  0
 36 38  1  0
 36 39  1  0
 39 40  1  0
 39 41  1  0
 39 42  1  0
 20 43  1  0
 43 44  1  0
 43 45  2  0
 45 46  1  0
 14 47  1  0
 47 48  1  0
 47  2  2  0
 45 15  1  0
 30 21  1  0
M  CHG  1   3  -1
M  END
>  <UniqueID>  (42) 
41

>  <SMILES>  (42) 
CCNCc1ccccc1-c1ccc(-c2c/c(=N/C(C)=O)[n-]cc2Cl)cc1

>  <Energy>  (42) 
65.72393178386308

>  <Genealogy>  (42) 
CCNCc1ccccc1-c1ccc(-c2cc(=NC(C)=O)[n-]cc2Cl)cc1 (protonated)
CCNCc1ccccc1-c1ccc(-c2c/c(=N/C(C)=O)[n-]cc2Cl)cc1 (cis-trans isomerization)
CCNCc1ccccc1-c1ccc(-c2c/c(=N/C(C)=O)[n-]cc2Cl)cc1 (3D coordinates assigned)
CCNCc1ccccc1-c1ccc(-c2c/c(=N/C(C)=O)[n-]cc2Cl)cc1 (optimized conformer: 65.72393178386308 kcal/mol)

>  <smiles>  (42) 
CCNCc1ccccc1-c1ccc(-c2cc(=NC(C)=O)[nH]cc2Cl)cc1

>  <score_type>  (42) 
oracle

>  <origin>  (42) 
adg

>  <m_score__min__energy>  (42) 
-10.4

>  <m_primary>  (42) 
energy

$$$$
42:0
     RDKit          3D

 53 55  0  0  0  0  0  0  0  0999 V2000
   64.2710   33.4120   49.6760 C   0  0  0  0  0  0  0  0  0  0  0  0
   64.1360   32.2950   48.6410 C   0  0  0  0  0  0  0  0  0  0  0  0
   62.9850   32.5170   47.7350 N   0  0  0  0  0  0  0  0  0  0  0  0
   63.3290   33.5730   46.7660 C   0  0  0  0  0  0  0  0  0  0  0  0
   61.7450   32.8690   48.4710 C   0  0  0  0  0  0  0  0  0  0  0  0
   61.2350   31.6720   49.2930 C   0  0  0  0  0  0  0  0  0  0  0  0
   61.0720   30.3710   48.4740 C   0  0  0  0  0  0  0  0  0  0  0  0
   61.1310   30.5740   47.0110 N   0  0  0  0  0  0  0  0  0  0  0  0
   59.8080   30.6210   46.3960 C   0  0  0  0  0  0  0  0  0  0  0  0
   59.0550   29.4330   46.2140 C   0  0  0  0  0  0  0  0  0  0  0  0
   59.3420   28.2530   46.9410 C   0  0  0  0  0  0  0  0  0  0  0  0
   58.5870   27.0970   46.7590 C   0  0  0  0  0  0  0  0  0  0  0  0
   57.5230   27.0920   45.8670 C   0  0  0  0  0  0  0  0  0  0  0  0
   57.2130   28.2400   45.1430 C   0  0  0  0  0  0  0  0  0  0  0  0
   57.9780   29.4260   45.2870 C   0  0  0  0  0  0  0  0  0  0  0  0
   57.6920   30.5590   44.5560 N   0  0  0  0  0  0  0  0  0  0  0  0
   56.8350   30.4690   43.3530 C   0  0  0  0  0  0  0  0  0  0  0  0
   58.1920   31.7790   44.9620 C   0  0  0  0  0  0  0  0  0  0  0  0
   57.6550   32.9940   44.4690 C   0  0  0  0  0  0  0  0  0  0  0  0
   58.1470   34.2240   44.8900 C   0  0  0  0  0  0  0  0  0  0  0  0
   59.1530   34.2880   45.8500 C   0  0  0  0  0  0  0  0  0  0  0  0
   59.6530   35.6270   46.3120 C   0  0  0  0  0  0  0  0  0  0  0  0
   59.6940   33.1040   46.3640 C   0  0  0  0  0  0  0  0  0  0  0  0
   59.2530   31.8360   45.9090 C   0  0  0  0  0  0  0  0  0  0  0  0
   64.2191   32.9828   50.6875 H   0  0  0  0  0  0  0  0  0  0  0  0
   65.2372   33.9207   49.5426 H   0  0  0  0  0  0  0  0  0  0  0  0
   63.4539   34.1362   49.5426 H   0  0  0  0  0  0  0  0  0  0  0  0
   65.0573   32.2525   48.0415 H   0  0  0  0  0  0  0  0  0  0  0  0
   63.9688   31.3503   49.1791 H   0  0  0  0  0  0  0  0  0  0  0  0
   63.6258   34.4840   47.3064 H   0  0  0  0  0  0  0  0  0  0  0  0
   64.1630   33.2334   46.1342 H   0  0  0  0  0  0  0  0  0  0  0  0
   62.4550   33.7897   46.1342 H   0  0  0  0  0  0  0  0  0  0  0  0
   61.9553   33.7085   49.1499 H   0  0  0  0  0  0  0  0  0  0  0  0
   60.9710   33.1492   47.7413 H   0  0  0  0  0  0  0  0  0  0  0  0
   61.9502   31.4812   50.1067 H   0  0  0  0  0  0  0  0  0  0  0  0
   60.2351   31.9427   49.6630 H   0  0  0  0  0  0  0  0  0  0  0  0
   61.8769   29.6781   48.7604 H   0  0  0  0  0  0  0  0  0  0  0  0
   60.0720   29.9731   48.7015 H   0  0  0  0  0  0  0  0  0  0  0  0
   61.7390   29.8240   46.6350 H   0  0  0  0  0  0  0  0  0  0  0  0
   61.6440   31.4600   46.8010 H   0  0  0  0  0  0  0  0  0  0  0  0
   60.1739   28.2489   47.6606 H   0  0  0  0  0  0  0  0  0  0  0  0
   58.8342   26.1857   47.3233 H   0  0  0  0  0  0  0  0  0  0  0  0
   56.9239   26.1794   45.7321 H   0  0  0  0  0  0  0  0  0  0  0  0
   56.3607   28.2272   44.4477 H   0  0  0  0  0  0  0  0  0  0  0  0
   55.7842   30.3586   43.6588 H   0  0  0  0  0  0  0  0  0  0  0  0
   56.9481   31.3840   42.7530 H   0  0  0  0  0  0  0  0  0  0  0  0
   57.1357   29.5975   42.7530 H   0  0  0  0  0  0  0  0  0  0  0  0
   56.8328   32.9633   43.7389 H   0  0  0  0  0  0  0  0  0  0  0  0
   57.7392   35.1518   44.4623 H   0  0  0  0  0  0  0  0  0  0  0  0
   59.6635   35.6550   47.4116 H   0  0  0  0  0  0  0  0  0  0  0  0
   60.6722   35.7891   45.9314 H   0  0  0  0  0  0  0  0  0  0  0  0
   58.9894   36.4174   45.9314 H   0  0  0  0  0  0  0  0  0  0  0  0
   60.4761   33.1584   47.1356 H   0  0  0  0  0  0  0  0  0  0  0  0
  1  2  1  0
  2  3  1  0
  3  4  1  0
  3  5  1  0
  5  6  1  0
  6  7  1  0
  7  8  1  0
  8  9  1  0
  9 10  2  0
 10 11  1  0
 11 12  2  0
 12 13  1  0
 13 14  2  0
 14 15  1  0
 15 16  2  0
 16 17  1  0
 16 18  1  0
 18 19  2  0
 19 20  1  0
 20 21  2  0
 21 22  1  0
 21 23  1  0
 23 24  2  0
 24  9  1  0
 15 10  1  0
 24 18  1  0
  1 25  1  0
  1 26  1  0
  1 27  1  0
  2 28  1  0
  2 29  1  0
  4 30  1  0
  4 31  1  0
  4 32  1  0
  5 33  1  0
  5 34  1  0
  6 35  1  0
  6 36  1  0
  7 37  1  0
  7 38  1  0
  8 39  1  0
  8 40  1  0
 11 41  1  0
 12 42  1  0
 13 43  1  0
 14 44  1  0
 17 45  1  0
 17 46  1  0
 17 47  1  0
 19 48  1  0
 20 49  1  0
 22 50  1  0
 22 51  1  0
 22 52  1  0
 23 53  1  0
M  CHG  2   8   1  16   1
M  END
>  <UniqueID>  (43) 
42

>  <SMILES>  (43) 
CCN(C)CCC[NH2+]c1c2ccccc2[n+](C)c2ccc(C)cc12

>  <Energy>  (43) 
82.24283045916432

>  <Genealogy>  (43) 
CCN(C)CCC[NH2+]c1c2ccccc2[n+](C)c2ccc(C)cc12 (protonated)
CCN(C)CCC[NH2+]c1c2ccccc2[n+](C)c2ccc(C)cc12 (3D coordinates assigned)
CCN(C)CCC[NH2+]c1c2ccccc2[n+](C)c2ccc(C)cc12 (optimized conformer: 82.24283045916432 kcal/mol)

>  <smiles>  (43) 
CCN(C)CCCNc1c2ccccc2[n+](C)c2ccc(C)cc12

>  <score_type>  (43) 
oracle

>  <origin>  (43) 
adg

>  <m_score__min__energy>  (43) 
-4.25

>  <m_primary>  (43) 
energy

$$$$
