0:0
     RDKit          3D

 62 64  0  0  0  0  0  0  0  0999 V2000
   58.3480   34.4170   45.6950 C   0  0  0  0  0  0  0  0  0  0  0  0
   57.0910   33.5620   45.7810 C   0  0  0  0  0  0  0  0  0  0  0  0
   57.3860   32.1980   45.3240 N   0  0  0  0  0  0  0  0  0  0  0  0
   57.5940   32.1170   43.8690 C   0  0  0  0  0  0  0  0  0  0  0  0
   56.9800   30.8650   43.2080 C   0  0  0  0  0  0  0  0  0  0  0  0
   55.9970   30.1220   44.1250 C   0  0  0  0  0  0  0  0  0  0  0  0
   56.7030   29.0040   44.8980 C   0  0  0  0  0  0  0  0  0  0  0  0
   57.5830   29.5890   45.9190 N   0  0  0  0  0  0  0  0  0  0  0  0
   58.9380   29.0160   45.8840 C   0  0  0  0  0  0  0  0  0  0  0  0
   60.0170   30.0310   46.3140 C   0  0  0  0  0  0  0  0  0  0  0  0
   59.4350   31.3070   46.7740 N   0  0  0  0  0  0  0  0  0  0  0  0
   60.0670   31.7940   47.9930 C   0  0  0  0  0  0  0  0  0  0  0  0
   61.0750   32.7920   47.9210 C   0  0  0  0  0  0  0  0  0  0  0  0
   61.7120   33.2360   49.0950 C   0  0  0  0  0  0  0  0  0  0  0  0
   61.2530   32.8480   50.3310 N   0  0  0  0  0  0  0  0  0  0  0  0
   61.6990   33.5770   51.5380 C   0  0  0  0  0  0  0  0  0  0  0  0
   60.3650   31.7980   50.4390 C   0  0  0  0  0  0  0  0  0  0  0  0
   60.0780   31.2120   51.6990 C   0  0  0  0  0  0  0  0  0  0  0  0
   59.1440   30.1890   51.8230 C   0  0  0  0  0  0  0  0  0  0  0  0
   58.4780   29.7160   50.7040 C   0  0  0  0  0  0  0  0  0  0  0  0
   58.7630   30.2410   49.4460 C   0  0  0  0  0  0  0  0  0  0  0  0
   59.7280   31.2680   49.2760 C   0  0  0  0  0  0  0  0  0  0  0  0
   62.8980   34.1780   48.9340 C   0  0  0  0  0  0  0  0  0  0  0  0
   63.7790   33.7460   47.7520 C   0  0  0  0  0  0  0  0  0  0  0  0
   62.9920   33.5270   46.4430 C   0  0  0  0  0  0  0  0  0  0  0  0
   61.4670   33.5030   46.6330 C   0  0  0  0  0  0  0  0  0  0  0  0
   58.6991   34.6558   46.7097 H   0  0  0  0  0  0  0  0  0  0  0  0
   59.1316   33.8638   45.1566 H   0  0  0  0  0  0  0  0  0  0  0  0
   58.1213   35.3491   45.1566 H   0  0  0  0  0  0  0  0  0  0  0  0
   56.7413   33.5304   46.8234 H   0  0  0  0  0  0  0  0  0  0  0  0
   56.3098   33.9987   45.1415 H   0  0  0  0  0  0  0  0  0  0  0  0
   56.6130   31.5540   45.6130 H   0  0  0  0  0  0  0  0  0  0  0  0
   57.1426   33.0071   43.4065 H   0  0  0  0  0  0  0  0  0  0  0  0
   58.6807   32.0565   43.7092 H   0  0  0  0  0  0  0  0  0  0  0  0
   56.4444   31.1758   42.2989 H   0  0  0  0  0  0  0  0  0  0  0  0
   57.8057   30.1740   42.9828 H   0  0  0  0  0  0  0  0  0  0  0  0
   55.5637   30.8359   44.8410 H   0  0  0  0  0  0  0  0  0  0  0  0
   55.2090   29.6731   43.5025 H   0  0  0  0  0  0  0  0  0  0  0  0
   55.9517   28.3651   45.3851 H   0  0  0  0  0  0  0  0  0  0  0  0
   57.3034   28.4012   44.2008 H   0  0  0  0  0  0  0  0  0  0  0  0
   57.6350   30.6250   45.7770 H   0  0  0  0  0  0  0  0  0  0  0  0
   58.9741   28.1525   46.5645 H   0  0  0  0  0  0  0  0  0  0  0  0
   59.1504   28.7203   44.8460 H   0  0  0  0  0  0  0  0  0  0  0  0
   60.6059   29.5948   47.1343 H   0  0  0  0  0  0  0  0  0  0  0  0
   60.6458   30.2450   45.4372 H   0  0  0  0  0  0  0  0  0  0  0  0
   58.4120   31.1820   46.9390 H   0  0  0  0  0  0  0  0  0  0  0  0
   59.4400   32.0020   45.9990 H   0  0  0  0  0  0  0  0  0  0  0  0
   61.3679   33.0357   52.4365 H   0  0  0  0  0  0  0  0  0  0  0  0
   62.7966   33.6500   51.5376 H   0  0  0  0  0  0  0  0  0  0  0  0
   61.2643   34.5875   51.5376 H   0  0  0  0  0  0  0  0  0  0  0  0
   60.6042   31.5737   52.5947 H   0  0  0  0  0  0  0  0  0  0  0  0
   58.9337   29.7546   52.8115 H   0  0  0  0  0  0  0  0  0  0  0  0
   57.7222   28.9238   50.8095 H   0  0  0  0  0  0  0  0  0  0  0  0
   58.2295   29.8519   48.5662 H   0  0  0  0  0  0  0  0  0  0  0  0
   62.5271   35.1978   48.7539 H   0  0  0  0  0  0  0  0  0  0  0  0
   63.5008   34.1475   49.8536 H   0  0  0  0  0  0  0  0  0  0  0  0
   64.5340   34.5267   47.5774 H   0  0  0  0  0  0  0  0  0  0  0  0
   64.2308   32.7802   48.0223 H   0  0  0  0  0  0  0  0  0  0  0  0
   63.2421   34.3417   45.7475 H   0  0  0  0  0  0  0  0  0  0  0  0
   63.2823   32.5391   46.0559 H   0  0  0  0  0  0  0  0  0  0  0  0
   61.0952   34.5376   46.6687 H   0  0  0  0  0  0  0  0  0  0  0  0
   61.0231   32.9556   45.7884 H   0  0  0  0  0  0  0  0  0  0  0  0
  1  2  1  0
  2  3  1  0
  3  4  1  0
  4  5  1  0
  5  6  1  0
  6  7  1  0
  7  8  1  0
  8  9  1  0
  9 10  1  0
 10 11  1  0
 11 12  1  0
 12 13  2  0
 13 14  1  0
 14 15  2  0
 15 16  1  0
 15 17  1  0
 17 18  2  0
 18 19  1  0
 19 20  2  0
 20 21  1  0
 21 22  2  0
 14 23  1  0
 23 24  1  0
 24 25  1  0
 25 26  1  0
 22 12  1  0
 26 13  1  0
 22 17  1  0
  1 27  1  0
  1 28  1  0
  1 29  1  0
  2 30  1  0
  2 31  1  0
  3 32  1  0
  4 33  1  0
  4 34  1  0
  5 35  1  0
  5 36  1  0
  6 37  1  0
  6 38  1  0
  7 39  1  0
  7 40  1  0
  8 41  1  0
  9 42  1  0
  9 43  1  0
 10 44  1  0
 10 45  1  0
 11 46  1  0
 11 47  1  0
 16 48  1  0
 16 49  1  0
 16 50  1  0
 18 51  1  0
 19 52  1  0
 20 53  1  0
 21 54  1  0
 23 55  1  0
 23 56  1  0
 24 57  1  0
 24 58  1  0
 25 59  1  0
 25 60  1  0
 26 61  1  0
 26 62  1  0
M  CHG  2  11   1  15   1
M  END
>  <UniqueID>  (1) 
1

>  <SMILES>  (1) 
CCNCCCCNCC[NH2+]c1c2c([n+](C)c3ccccc13)CCCC2

>  <Energy>  (1) 
83.02890755036731

>  <Genealogy>  (1) 
CCNCCCCNCC[NH2+]c1c2c([n+](C)c3ccccc13)CCCC2 (protonated)
CCNCCCCNCC[NH2+]c1c2c([n+](C)c3ccccc13)CCCC2 (3D coordinates assigned)
CCNCCCCNCC[NH2+]c1c2c([n+](C)c3ccccc13)CCCC2 (nonaromatic ring conformer: 83.02890755036731 kcal/mol)

>  <smiles>  (1) 
CCNCCCCNCCNc1c2c([n+](C)c3ccccc13)CCCC2

>  <score_type>  (1) 
oracle

>  <origin>  (1) 
adg

>  <m_score__min__energy>  (1) 
-3.77

>  <m_primary>  (1) 
energy

$$$$
1:0
     RDKit          3D

 53 56  0  0  0  0  0  0  0  0999 V2000
   57.4280   28.3160   45.3720 C   0  0  0  0  0  0  0  0  0  0  0  0
   57.8060   29.5680   44.5790 C   0  0  2  0  0  0  0  0  0  0  0  0
   57.4080   30.8420   45.3530 C   0  0  0  0  0  0  0  0  0  0  0  0
   57.8340   32.0730   44.6390 N   0  0  0  0  0  0  0  0  0  0  0  0
   57.0230   33.2480   45.0350 C   0  0  0  0  0  0  0  0  0  0  0  0
   57.7960   34.1940   45.9610 C   0  0  0  0  0  0  0  0  0  0  0  0
   57.8110   33.6820   47.2720 O   0  0  0  0  0  0  0  0  0  0  0  0
   58.8150   32.7660   47.3240 N   0  0  0  0  0  0  0  0  0  0  0  0
   59.8060   32.8080   48.3650 C   0  0  0  0  0  0  0  0  0  0  0  0
   61.1410   33.1140   48.0470 C   0  0  0  0  0  0  0  0  0  0  0  0
   61.5180   33.4040   46.7160 C   0  0  0  0  0  0  0  0  0  0  0  0
   62.8280   33.7670   46.4100 C   0  0  0  0  0  0  0  0  0  0  0  0
   63.7770   33.8670   47.4200 C   0  0  0  0  0  0  0  0  0  0  0  0
   63.4290   33.5840   48.7400 C   0  0  0  0  0  0  0  0  0  0  0  0
   62.1150   33.1700   49.0810 C   0  0  0  0  0  0  0  0  0  0  0  0
   61.7680   32.8530   50.3800 N   0  0  0  0  0  0  0  0  0  0  0  0
   62.8220   32.6380   51.3960 C   0  0  0  0  0  0  0  0  0  0  0  0
   60.4370   32.7020   50.7240 C   0  0  0  0  0  0  0  0  0  0  0  0
   60.0210   32.6290   52.0790 C   0  0  0  0  0  0  0  0  0  0  0  0
   58.6890   32.3890   52.4110 C   0  0  0  0  0  0  0  0  0  0  0  0
   57.7390   32.2190   51.4110 C   0  0  0  0  0  0  0  0  0  0  0  0
   58.1060   32.3340   50.0730 C   0  0  0  0  0  0  0  0  0  0  0  0
   59.4410   32.6210   49.7120 C   0  0  0  0  0  0  0  0  0  0  0  0
   57.8680   31.9080   43.1630 C   0  0  0  0  0  0  0  0  0  0  0  0
   56.8740   30.8430   42.6740 C   0  0  0  0  0  0  0  0  0  0  0  0
   57.1550   29.5170   43.2540 N   0  0  0  0  0  0  0  0  0  0  0  0
   57.4928   28.5306   46.4489 H   0  0  0  0  0  0  0  0  0  0  0  0
   56.3999   28.0181   45.1187 H   0  0  0  0  0  0  0  0  0  0  0  0
   58.1195   27.4989   45.1187 H   0  0  0  0  0  0  0  0  0  0  0  0
   58.8963   29.5996   44.4370 H   0  0  0  0  0  0  0  0  0  0  0  0
   56.3147   30.8595   45.4730 H   0  0  0  0  0  0  0  0  0  0  0  0
   57.9111   30.8208   46.3310 H   0  0  0  0  0  0  0  0  0  0  0  0
   56.7300   33.7988   44.1290 H   0  0  0  0  0  0  0  0  0  0  0  0
   56.1410   32.8832   45.5818 H   0  0  0  0  0  0  0  0  0  0  0  0
   58.8294   34.2946   45.5978 H   0  0  0  0  0  0  0  0  0  0  0  0
   57.3030   35.1773   45.9641 H   0  0  0  0  0  0  0  0  0  0  0  0
   58.8770   32.0330   46.5790 H   0  0  0  0  0  0  0  0  0  0  0  0
   60.7689   33.3424   45.9128 H   0  0  0  0  0  0  0  0  0  0  0  0
   63.1112   33.9747   45.3676 H   0  0  0  0  0  0  0  0  0  0  0  0
   64.8061   34.1704   47.1773 H   0  0  0  0  0  0  0  0  0  0  0  0
   64.1865   33.6834   49.5314 H   0  0  0  0  0  0  0  0  0  0  0  0
   62.3854   32.7271   52.4017 H   0  0  0  0  0  0  0  0  0  0  0  0
   63.2525   31.6335   51.2708 H   0  0  0  0  0  0  0  0  0  0  0  0
   63.6116   33.3936   51.2708 H   0  0  0  0  0  0  0  0  0  0  0  0
   60.7623   32.7641   52.8804 H   0  0  0  0  0  0  0  0  0  0  0  0
   58.3886   32.3339   53.4678 H   0  0  0  0  0  0  0  0  0  0  0  0
   56.6958   31.9933   51.6770 H   0  0  0  0  0  0  0  0  0  0  0  0
   57.3474   32.1998   49.2878 H   0  0  0  0  0  0  0  0  0  0  0  0
   57.6156   32.8701   42.6933 H   0  0  0  0  0  0  0  0  0  0  0  0
   58.8797   31.5787   42.8836 H   0  0  0  0  0  0  0  0  0  0  0  0
   55.8569   31.1480   42.9614 H   0  0  0  0  0  0  0  0  0  0  0  0
   56.9719   30.7634   41.5813 H   0  0  0  0  0  0  0  0  0  0  0  0
   57.7890   28.9970   42.6010 H   0  0  0  0  0  0  0  0  0  0  0  0
  1  2  1  0
  2  3  1  0
  3  4  1  0
  4  5  1  0
  5  6  1  0
  6  7  1  0
  7  8  1  0
  8  9  1  0
  9 10  1  0
 10 11  2  0
 11 12  1  0
 12 13  2  0
 13 14  1  0
 14 15  2  0
 15 16  1  0
 16 17  1  0
 16 18  2  0
 18 19  1  0
 19 20  2  0
 20 21  1  0
 21 22  2  0
 22 23  1  0
  4 24  1  0
 24 25  1  0
 25 26  1  0
 26  2  1  0
 23  9  2  0
 15 10  1  0
 23 18  1  0
  1 27  1  0
  1 28  1  0
  1 29  1  0
  2 30  1  6
  3 31  1  0
  3 32  1  0
  5 33  1  0
  5 34  1  0
  6 35  1  0
  6 36  1  0
  8 37  1  0
 11 38  1  0
 12 39  1  0
 13 40  1  0
 14 41  1  0
 17 42  1  0
 17 43  1  0
 17 44  1  0
 19 45  1  0
 20 46  1  0
 21 47  1  0
 22 48  1  0
 24 49  1  0
 24 50  1  0
 25 51  1  0
 25 52  1  0
 26 53  1  0
M  CHG  1  16   1
M  END
>  <UniqueID>  (2) 
2

>  <SMILES>  (2) 
C[C@@H]1CN(CCONc2c3ccccc3[n+](C)c3ccccc23)CCN1

>  <Energy>  (2) 
89.63633885517663

>  <Genealogy>  (2) 
C[C@@H]1CN(CCONc2c3ccccc3[n+](C)c3ccccc23)CCN1 (chirality)
C[C@@H]1CN(CCONc2c3ccccc3[n+](C)c3ccccc23)CCN1 (3D coordinates assigned)
C[C@@H]1CN(CCONc2c3ccccc3[n+](C)c3ccccc23)CCN1 (nonaromatic ring conformer: 89.63633885517663 kcal/mol)

>  <smiles>  (2) 
CC1CN(CCONc2c3ccccc3[n+](C)c3ccccc23)CCN1

>  <score_type>  (2) 
oracle

>  <origin>  (2) 
adg

>  <m_score__min__energy>  (2) 
-6.5800000000000001

>  <m_primary>  (2) 
energy

$$$$
2:0
     RDKit          3D

 41 40  0  0  0  0  0  0  0  0999 V2000
   59.1110   34.5770   45.2240 C   0  0  0  0  0  0  0  0  0  0  0  0
   58.2380   34.0110   46.3450 C   0  0  0  0  0  0  0  0  0  0  0  0
   57.0220   33.2260   45.8060 C   0  0  0  0  0  0  0  0  0  0  0  0
   57.3770   31.9030   45.2670 N   0  0  0  0  0  0  0  0  0  0  0  0
   57.3940   31.8760   43.7990 C   0  0  0  0  0  0  0  0  0  0  0  0
   56.8950   30.5170   43.2870 C   0  0  0  0  0  0  0  0  0  0  0  0
   55.6230   30.0520   44.0080 C   0  0  0  0  0  0  0  0  0  0  0  0
   55.9690   29.3300   45.2370 N   0  0  0  0  0  0  0  0  0  0  0  0
   57.0130   28.3320   44.9810 C   0  0  0  0  0  0  0  0  0  0  0  0
   57.5000   27.7100   46.2970 C   0  0  0  0  0  0  0  0  0  0  0  0
   58.5380   28.5800   47.0200 C   0  0  0  0  0  0  0  0  0  0  0  0
   58.1460   29.9970   46.9730 N   0  0  0  0  0  0  0  0  0  0  0  0
   59.2510   30.8950   47.3410 C   0  0  0  0  0  0  0  0  0  0  0  0
   60.5930   30.4490   46.7530 C   0  0  0  0  0  0  0  0  0  0  0  0
   59.9581   35.1262   45.6608 H   0  0  0  0  0  0  0  0  0  0  0  0
   59.4900   33.7523   44.6025 H   0  0  0  0  0  0  0  0  0  0  0  0
   58.5128   35.2595   44.6025 H   0  0  0  0  0  0  0  0  0  0  0  0
   58.8492   33.3356   46.9617 H   0  0  0  0  0  0  0  0  0  0  0  0
   57.8558   34.8588   46.9326 H   0  0  0  0  0  0  0  0  0  0  0  0
   56.3037   33.0873   46.6274 H   0  0  0  0  0  0  0  0  0  0  0  0
   56.5961   33.8120   44.9783 H   0  0  0  0  0  0  0  0  0  0  0  0
   56.6960   31.1890   45.6180 H   0  0  0  0  0  0  0  0  0  0  0  0
   56.7398   32.6719   43.4135 H   0  0  0  0  0  0  0  0  0  0  0  0
   58.4249   32.0344   43.4493 H   0  0  0  0  0  0  0  0  0  0  0  0
   56.6806   30.6017   42.2114 H   0  0  0  0  0  0  0  0  0  0  0  0
   57.6826   29.7746   43.4835 H   0  0  0  0  0  0  0  0  0  0  0  0
   55.0093   30.9286   44.2628 H   0  0  0  0  0  0  0  0  0  0  0  0
   55.0613   29.3787   43.3438 H   0  0  0  0  0  0  0  0  0  0  0  0
   56.3440   30.0250   45.9250 H   0  0  0  0  0  0  0  0  0  0  0  0
   56.6054   27.5398   44.3357 H   0  0  0  0  0  0  0  0  0  0  0  0
   57.8624   28.8261   44.4866 H   0  0  0  0  0  0  0  0  0  0  0  0
   56.6343   27.5712   46.9613 H   0  0  0  0  0  0  0  0  0  0  0  0
   57.9843   26.7535   46.0511 H   0  0  0  0  0  0  0  0  0  0  0  0
   58.6109   28.2593   48.0697 H   0  0  0  0  0  0  0  0  0  0  0  0
   59.5104   28.4634   46.5191 H   0  0  0  0  0  0  0  0  0  0  0  0
   57.8130   30.2300   46.0080 H   0  0  0  0  0  0  0  0  0  0  0  0
   59.0223   31.9052   46.9705 H   0  0  0  0  0  0  0  0  0  0  0  0
   59.3447   30.8763   48.4368 H   0  0  0  0  0  0  0  0  0  0  0  0
   61.2921   30.2166   47.5698 H   0  0  0  0  0  0  0  0  0  0  0  0
   60.4421   29.5527   46.1334 H   0  0  0  0  0  0  0  0  0  0  0  0
   61.0086   31.2573   46.1334 H   0  0  0  0  0  0  0  0  0  0  0  0
  1  2  1  0
  2  3  1  0
  3  4  1  0
  4  5  1  0
  5  6  1  0
  6  7  1  0
  7  8  1  0
  8  9  1  0
  9 10  1  0
 10 11  1  0
 11 12  1  0
 12 13  1  0
 13 14  1  0
  1 15  1  0
  1 16  1  0
  1 17  1  0
  2 18  1  0
  2 19  1  0
  3 20  1  0
  3 21  1  0
  4 22  1  0
  5 23  1  0
  5 24  1  0
  6 25  1  0
  6 26  1  0
  7 27  1  0
  7 28  1  0
  8 29  1  0
  9 30  1  0
  9 31  1  0
 10 32  1  0
 10 33  1  0
 11 34  1  0
 11 35  1  0
 12 36  1  0
 13 37  1  0
 13 38  1  0
 14 39  1  0
 14 40  1  0
 14 41  1  0
M  END
>  <UniqueID>  (3) 
3

>  <SMILES>  (3) 
CCCNCCCNCCCNCC

>  <Energy>  (3) 
21.07784186013851

>  <Genealogy>  (3) 
CCCNCCCNCCCNCC (3D coordinates assigned)
CCCNCCCNCCCNCC (optimized conformer: 21.07784186013851 kcal/mol)

>  <smiles>  (3) 
CCCNCCCNCCCNCC

>  <score_type>  (3) 
oracle

>  <origin>  (3) 
adg

>  <m_score__min__energy>  (3) 
-3.79

>  <m_primary>  (3) 
energy

$$$$
3:0
     RDKit          3D

 35 35  0  0  0  0  0  0  0  0999 V2000
   57.1000   25.1560   44.7970 C   0  0  0  0  0  0  0  0  0  0  0  0
   56.5720   25.7640   46.0990 C   0  0  0  0  0  0  0  0  0  0  0  0
   57.7200   25.9850   47.0900 C   0  0  0  0  0  0  0  0  0  0  0  0
   55.8890   27.0320   45.8220 N   0  0  0  0  0  0  0  0  0  0  0  0
   56.5690   28.1690   45.2770 C   0  0  0  0  0  0  0  0  0  0  0  0
   57.7960   28.1040   44.9900 O   0  0  0  0  0  0  0  0  0  0  0  0
   55.8440   29.3790   45.0530 N   0  0  0  0  0  0  0  0  0  0  0  0
   55.8640   30.0890   43.7780 C   0  0  0  0  0  0  0  0  0  0  0  0
   57.3020   30.4240   43.3780 C   0  0  0  0  0  0  0  0  0  0  0  0
   57.6190   31.9120   43.5810 C   0  0  0  0  0  0  0  0  0  0  0  0
   57.0420   32.4230   44.9040 C   0  0  0  0  0  0  0  0  0  0  0  0
   57.9670   33.3670   45.5230 N   0  0  0  0  0  0  0  0  0  0  0  0
   58.8130   34.2000   44.8970 C   0  0  0  0  0  0  0  0  0  0  0  0
   59.4370   34.9670   45.8550 C   0  0  0  0  0  0  0  0  0  0  0  0
   58.9770   34.6270   47.0770 N   0  0  0  0  0  0  0  0  0  0  0  0
   58.0760   33.6510   46.8360 C   0  0  0  0  0  0  0  0  0  0  0  0
   57.8048   24.3444   45.0307 H   0  0  0  0  0  0  0  0  0  0  0  0
   56.2592   24.7545   44.2124 H   0  0  0  0  0  0  0  0  0  0  0  0
   57.6154   25.9323   44.2124 H   0  0  0  0  0  0  0  0  0  0  0  0
   55.8527   25.0637   46.5487 H   0  0  0  0  0  0  0  0  0  0  0  0
   57.3361   25.9111   48.1182 H   0  0  0  0  0  0  0  0  0  0  0  0
   58.4937   25.2193   46.9315 H   0  0  0  0  0  0  0  0  0  0  0  0
   58.1541   26.9832   46.9315 H   0  0  0  0  0  0  0  0  0  0  0  0
   54.8620   27.1160   45.9990 H   0  0  0  0  0  0  0  0  0  0  0  0
   55.4103   29.4545   43.0024 H   0  0  0  0  0  0  0  0  0  0  0  0
   55.2946   31.0245   43.8810 H   0  0  0  0  0  0  0  0  0  0  0  0
   57.9909   29.8262   43.9929 H   0  0  0  0  0  0  0  0  0  0  0  0
   57.4222   30.1918   42.3095 H   0  0  0  0  0  0  0  0  0  0  0  0
   58.7104   32.0491   43.5883 H   0  0  0  0  0  0  0  0  0  0  0  0
   57.1633   32.4818   42.7578 H   0  0  0  0  0  0  0  0  0  0  0  0
   56.0827   32.9261   44.7124 H   0  0  0  0  0  0  0  0  0  0  0  0
   56.8888   31.5712   45.5829 H   0  0  0  0  0  0  0  0  0  0  0  0
   58.9784   34.2593   43.8111 H   0  0  0  0  0  0  0  0  0  0  0  0
   60.1947   35.7389   45.6548 H   0  0  0  0  0  0  0  0  0  0  0  0
   57.4965   33.1449   47.6221 H   0  0  0  0  0  0  0  0  0  0  0  0
  1  2  1  0
  2  3  1  0
  2  4  1  0
  4  5  1  0
  5  6  2  0
  5  7  1  0
  7  8  1  0
  8  9  1  0
  9 10  1  0
 10 11  1  0
 11 12  1  0
 12 13  1  0
 13 14  2  0
 14 15  1  0
 15 16  2  0
 16 12  1  0
  1 17  1  0
  1 18  1  0
  1 19  1  0
  2 20  1  0
  3 21  1  0
  3 22  1  0
  3 23  1  0
  4 24  1  0
  8 25  1  0
  8 26  1  0
  9 27  1  0
  9 28  1  0
 10 29  1  0
 10 30  1  0
 11 31  1  0
 11 32  1  0
 13 33  1  0
 14 34  1  0
 16 35  1  0
M  CHG  1   7  -1
M  END
>  <UniqueID>  (4) 
4

>  <SMILES>  (4) 
CC(C)NC(=O)[N-]CCCCn1ccnc1

>  <Energy>  (4) 
45.33900483668033

>  <Genealogy>  (4) 
CC(C)NC(=O)[N-]CCCCn1ccnc1 (protonated)
CC(C)NC(=O)[N-]CCCCn1ccnc1 (3D coordinates assigned)
CC(C)NC(=O)[N-]CCCCn1ccnc1 (optimized conformer: 45.33900483668033 kcal/mol)

>  <smiles>  (4) 
CC(C)NC(=O)NCCCCn1ccnc1

>  <score_type>  (4) 
oracle

>  <origin>  (4) 
adg

>  <m_score__min__energy>  (4) 
-7.4699999999999998

>  <m_primary>  (4) 
energy

$$$$
4:0
     RDKit          3D

 32 33  0  0  0  0  0  0  0  0999 V2000
   59.8100   27.2380   48.2440 C   0  0  0  0  0  0  0  0  0  0  0  0
   59.7810   28.3750   48.6430 C   0  0  0  0  0  0  0  0  0  0  0  0
   59.7380   29.7590   49.1330 C   0  0  0  0  0  0  0  0  0  0  0  0
   59.1850   30.6460   48.0990 N   0  0  0  0  0  0  0  0  0  0  0  0
   58.8470   32.0330   48.4670 C   0  0  0  0  0  0  0  0  0  0  0  0
   58.7000   32.8830   47.2270 C   0  0  0  0  0  0  0  0  0  0  0  0
   57.4120   33.1010   46.7050 C   0  0  0  0  0  0  0  0  0  0  0  0
   57.2330   33.8440   45.5360 C   0  0  0  0  0  0  0  0  0  0  0  0
   58.3380   34.3760   44.8710 C   0  0  0  0  0  0  0  0  0  0  0  0
   59.6220   34.1700   45.3760 C   0  0  0  0  0  0  0  0  0  0  0  0
   59.8160   33.4270   46.5470 C   0  0  0  0  0  0  0  0  0  0  0  0
   61.6200   33.2090   47.1660 Br  0  0  0  0  0  0  0  0  0  0  0  0
   59.0210   30.1980   46.7290 C   0  0  0  0  0  0  0  0  0  0  0  0
   60.1160   29.7950   45.9430 C   0  0  0  0  0  0  0  0  0  0  0  0
   59.8890   29.3790   44.6310 C   0  0  0  0  0  0  0  0  0  0  0  0
   58.6270   29.3660   44.1280 N   0  0  0  0  0  0  0  0  0  0  0  0
   57.5730   29.7580   44.8950 C   0  0  0  0  0  0  0  0  0  0  0  0
   56.2390   29.7450   44.3600 C   0  0  0  0  0  0  0  0  0  0  0  0
   55.1640   29.7350   43.9280 N   0  0  0  0  0  0  0  0  0  0  0  0
   57.7780   30.1640   46.1740 N   0  0  0  0  0  0  0  0  0  0  0  0
   59.8365   26.2004   47.8799 H   0  0  0  0  0  0  0  0  0  0  0  0
   59.1038   29.8073   50.0305 H   0  0  0  0  0  0  0  0  0  0  0  0
   60.7596   30.0854   49.3775 H   0  0  0  0  0  0  0  0  0  0  0  0
   57.8996   32.0396   49.0260 H   0  0  0  0  0  0  0  0  0  0  0  0
   59.6547   32.4451   49.0898 H   0  0  0  0  0  0  0  0  0  0  0  0
   56.5367   32.6819   47.2229 H   0  0  0  0  0  0  0  0  0  0  0  0
   56.2204   34.0098   45.1395 H   0  0  0  0  0  0  0  0  0  0  0  0
   58.1968   34.9580   43.9483 H   0  0  0  0  0  0  0  0  0  0  0  0
   60.4895   34.5949   44.8498 H   0  0  0  0  0  0  0  0  0  0  0  0
   61.1352   29.8077   46.3565 H   0  0  0  0  0  0  0  0  0  0  0  0
   60.7337   29.0608   44.0023 H   0  0  0  0  0  0  0  0  0  0  0  0
   58.4750   29.0530   43.1430 H   0  0  0  0  0  0  0  0  0  0  0  0
  1  2  3  0
  2  3  1  0
  3  4  1  0
  4  5  1  0
  5  6  1  0
  6  7  2  0
  7  8  1  0
  8  9  2  0
  9 10  1  0
 10 11  2  0
 11 12  1  0
  4 13  1  0
 13 14  2  0
 14 15  1  0
 15 16  2  0
 16 17  1  0
 17 18  1  0
 18 19  3  0
 17 20  2  0
 11  6  1  0
 20 13  1  0
  1 21  1  0
  3 22  1  0
  3 23  1  0
  5 24  1  0
  5 25  1  0
  7 26  1  0
  8 27  1  0
  9 28  1  0
 10 29  1  0
 14 30  1  0
 15 31  1  0
 16 32  1  0
M  CHG  1  16   1
M  END
>  <UniqueID>  (5) 
5

>  <SMILES>  (5) 
C#CCN(Cc1ccccc1Br)c1cc[nH+]c(C#N)n1

>  <Energy>  (5) 
31.19928424993822

>  <Genealogy>  (5) 
C#CCN(Cc1ccccc1Br)c1cc[nH+]c(C#N)n1 (protonated)
C#CCN(Cc1ccccc1Br)c1cc[nH+]c(C#N)n1 (3D coordinates assigned)
C#CCN(Cc1ccccc1Br)c1cc[nH+]c(C#N)n1 (optimized conformer: 31.19928424993822 kcal/mol)

>  <smiles>  (5) 
C#CCN(Cc1ccccc1Br)c1ccnc(C#N)n1

>  <score_type>  (5) 
oracle

>  <origin>  (5) 
adg

>  <m_score__min__energy>  (5) 
-5.1600000000000001

>  <m_primary>  (5) 
energy

$$$$
5:0
     RDKit          3D

 46 47  0  0  0  0  0  0  0  0999 V2000
   58.0360   27.8340   44.3700 C   0  0  0  0  0  0  0  0  0  0  0  0
   57.0260   28.2500   45.4350 C   0  0  0  0  0  0  0  0  0  0  0  0
   56.0570   29.1180   44.8790 O   0  0  0  0  0  0  0  0  0  0  0  0
   56.3450   29.3800   43.5210 C   0  0  0  0  0  0  0  0  0  0  0  0
   56.6460   30.8750   43.3540 C   0  0  0  0  0  0  0  0  0  0  0  0
   58.0930   31.1560   43.3360 N   0  0  0  0  0  0  0  0  0  0  0  0
   58.5200   32.0440   44.4400 C   0  0  1  0  0  0  0  0  0  0  0  0
   57.6710   33.3430   44.4650 C   0  0  0  0  0  0  0  0  0  0  0  0
   57.3790   33.8560   45.8910 C   0  0  0  0  0  0  0  0  0  0  0  0
   58.5070   33.6390   46.8260 N   0  0  2  0  0  0  0  0  0  0  0  0
   59.6610   34.5120   46.4850 C   0  0  0  0  0  0  0  0  0  0  0  0
   60.9030   34.1420   47.2670 C   0  0  0  0  0  0  0  0  0  0  0  0
   62.0640   33.7100   46.6050 C   0  0  0  0  0  0  0  0  0  0  0  0
   63.2060   33.3650   47.3360 C   0  0  0  0  0  0  0  0  0  0  0  0
   63.1990   33.4520   48.7310 C   0  0  0  0  0  0  0  0  0  0  0  0
   64.7580   32.9800   49.7270 Br  0  0  0  0  0  0  0  0  0  0  0  0
   62.0480   33.8860   49.3980 C   0  0  0  0  0  0  0  0  0  0  0  0
   60.9040   34.2300   48.6700 C   0  0  0  0  0  0  0  0  0  0  0  0
   58.8850   32.1970   46.9430 C   0  0  0  0  0  0  0  0  0  0  0  0
   58.3910   31.3100   45.7810 C   0  0  0  0  0  0  0  0  0  0  0  0
   58.9482   27.4583   44.8566 H   0  0  0  0  0  0  0  0  0  0  0  0
   57.6020   27.0414   43.7427 H   0  0  0  0  0  0  0  0  0  0  0  0
   58.2861   28.7023   43.7427 H   0  0  0  0  0  0  0  0  0  0  0  0
   56.5260   27.3538   45.8310 H   0  0  0  0  0  0  0  0  0  0  0  0
   57.5546   28.7747   46.2445 H   0  0  0  0  0  0  0  0  0  0  0  0
   57.2198   28.7905   43.2091 H   0  0  0  0  0  0  0  0  0  0  0  0
   55.4821   29.1026   42.8977 H   0  0  0  0  0  0  0  0  0  0  0  0
   56.2068   31.2205   42.4065 H   0  0  0  0  0  0  0  0  0  0  0  0
   56.2113   31.4039   44.2150 H   0  0  0  0  0  0  0  0  0  0  0  0
   58.6100   30.2460   43.3700 H   0  0  0  0  0  0  0  0  0  0  0  0
   59.5719   32.3203   44.2751 H   0  0  0  0  0  0  0  0  0  0  0  0
   56.7128   33.1432   43.9631 H   0  0  0  0  0  0  0  0  0  0  0  0
   58.2539   34.1223   43.9522 H   0  0  0  0  0  0  0  0  0  0  0  0
   56.4953   33.3284   46.2793 H   0  0  0  0  0  0  0  0  0  0  0  0
   57.2121   34.9411   45.8227 H   0  0  0  0  0  0  0  0  0  0  0  0
   58.1530   33.9440   47.7640 H   0  0  0  0  0  0  0  0  0  0  0  0
   59.8754   34.4135   45.4106 H   0  0  0  0  0  0  0  0  0  0  0  0
   59.3923   35.5467   46.7441 H   0  0  0  0  0  0  0  0  0  0  0  0
   62.0755   33.6426   45.5071 H   0  0  0  0  0  0  0  0  0  0  0  0
   64.1112   33.0246   46.8118 H   0  0  0  0  0  0  0  0  0  0  0  0
   62.0427   33.9567   50.4957 H   0  0  0  0  0  0  0  0  0  0  0  0
   60.0011   34.5709   49.1978 H   0  0  0  0  0  0  0  0  0  0  0  0
   58.4602   31.8052   47.8790 H   0  0  0  0  0  0  0  0  0  0  0  0
   59.9841   32.1587   46.9206 H   0  0  0  0  0  0  0  0  0  0  0  0
   57.3355   31.0503   45.9495 H   0  0  0  0  0  0  0  0  0  0  0  0
   59.0090   30.4007   45.7452 H   0  0  0  0  0  0  0  0  0  0  0  0
  1  2  1  0
  2  3  1  0
  3  4  1  0
  4  5  1  0
  5  6  1  0
  6  7  1  0
  7  8  1  0
  8  9  1  0
  9 10  1  0
 10 11  1  0
 11 12  1  0
 12 13  2  0
 13 14  1  0
 14 15  2  0
 15 16  1  0
 15 17  1  0
 17 18  2  0
 10 19  1  0
 19 20  1  0
 20  7  1  0
 18 12  1  0
  1 21  1  0
  1 22  1  0
  1 23  1  0
  2 24  1  0
  2 25  1  0
  4 26  1  0
  4 27  1  0
  5 28  1  0
  5 29  1  0
  6 30  1  0
  7 31  1  6
  8 32  1  0
  8 33  1  0
  9 34  1  0
  9 35  1  0
 10 36  1  1
 11 37  1  0
 11 38  1  0
 13 39  1  0
 14 40  1  0
 17 41  1  0
 18 42  1  0
 19 43  1  0
 19 44  1  0
 20 45  1  0
 20 46  1  0
M  CHG  1  10   1
M  END
>  <UniqueID>  (6) 
6

>  <SMILES>  (6) 
CCOCCNC1CC[NH+](Cc2ccc(Br)cc2)CC1

>  <Energy>  (6) 
55.2077710905909

>  <Genealogy>  (6) 
CCOCCNC1CC[NH+](Cc2ccc(Br)cc2)CC1 (protonated)
CCOCCNC1CC[NH+](Cc2ccc(Br)cc2)CC1 (3D coordinates assigned)
CCOCCNC1CC[NH+](Cc2ccc(Br)cc2)CC1 (nonaromatic ring conformer: 55.2077710905909 kcal/mol)

>  <smiles>  (6) 
CCOCCNC1CCN(Cc2ccc(Br)cc2)CC1

>  <score_type>  (6) 
oracle

>  <origin>  (6) 
adg

>  <m_score__min__energy>  (6) 
-6.0199999999999996

>  <m_primary>  (6) 
energy

$$$$
6:0
     RDKit          3D

 36 36  0  0  0  0  0  0  0  0999 V2000
   57.5080   32.2430   41.1330 C   0  0  0  0  0  0  0  0  0  0  0  0
   57.7820   32.3240   42.3040 C   0  0  0  0  0  0  0  0  0  0  0  0
   58.1170   32.4260   43.7310 C   0  0  0  0  0  0  0  0  0  0  0  0
   57.7300   31.1870   44.4320 N   0  0  0  0  0  0  0  0  0  0  0  0
   58.0080   31.3180   45.8730 C   0  0  0  0  0  0  0  0  0  0  0  0
   56.3030   30.8570   44.2040 C   0  0  0  0  0  0  0  0  0  0  0  0
   56.1490   29.3730   43.8520 C   0  0  0  0  0  0  0  0  0  0  0  0
   55.8880   28.5980   45.0230 O   0  0  0  0  0  0  0  0  0  0  0  0
   56.8020   27.7350   45.6530 C   0  0  0  0  0  0  0  0  0  0  0  0
   58.1590   28.0700   45.8220 C   0  0  0  0  0  0  0  0  0  0  0  0
   59.0290   27.1860   46.4620 C   0  0  0  0  0  0  0  0  0  0  0  0
   58.5590   25.9600   46.9330 C   0  0  0  0  0  0  0  0  0  0  0  0
   57.2160   25.6140   46.7670 C   0  0  0  0  0  0  0  0  0  0  0  0
   56.3270   26.5020   46.1290 C   0  0  0  0  0  0  0  0  0  0  0  0
   54.9640   26.2060   45.9520 O   0  0  0  0  0  0  0  0  0  0  0  0
   54.4280   24.9250   45.6220 C   0  0  0  0  0  0  0  0  0  0  0  0
   55.3840   24.1570   44.7140 C   0  0  0  0  0  0  0  0  0  0  0  0
   57.2579   32.1691   40.0644 H   0  0  0  0  0  0  0  0  0  0  0  0
   59.2003   32.5827   43.8402 H   0  0  0  0  0  0  0  0  0  0  0  0
   57.5703   33.2738   44.1696 H   0  0  0  0  0  0  0  0  0  0  0  0
   57.1597   30.9182   46.4479 H   0  0  0  0  0  0  0  0  0  0  0  0
   58.9188   30.7543   46.1234 H   0  0  0  0  0  0  0  0  0  0  0  0
   58.1531   32.3792   46.1234 H   0  0  0  0  0  0  0  0  0  0  0  0
   55.7300   31.0745   45.1174 H   0  0  0  0  0  0  0  0  0  0  0  0
   55.9249   31.4638   43.3680 H   0  0  0  0  0  0  0  0  0  0  0  0
   55.3127   29.2545   43.1474 H   0  0  0  0  0  0  0  0  0  0  0  0
   57.0861   29.0196   43.3972 H   0  0  0  0  0  0  0  0  0  0  0  0
   58.5355   29.0334   45.4477 H   0  0  0  0  0  0  0  0  0  0  0  0
   60.0869   27.4565   46.5952 H   0  0  0  0  0  0  0  0  0  0  0  0
   59.2471   25.2646   47.4359 H   0  0  0  0  0  0  0  0  0  0  0  0
   56.8507   24.6442   47.1359 H   0  0  0  0  0  0  0  0  0  0  0  0
   54.2692   24.3510   46.5469 H   0  0  0  0  0  0  0  0  0  0  0  0
   53.4746   25.0668   45.0919 H   0  0  0  0  0  0  0  0  0  0  0  0
   56.0949   23.5859   45.3293 H   0  0  0  0  0  0  0  0  0  0  0  0
   54.8107   23.4655   44.0791 H   0  0  0  0  0  0  0  0  0  0  0  0
   55.9357   24.8659   44.0791 H   0  0  0  0  0  0  0  0  0  0  0  0
  1  2  3  0
  2  3  1  0
  3  4  1  0
  4  5  1  0
  4  6  1  0
  6  7  1  0
  7  8  1  0
  8  9  1  0
  9 10  2  0
 10 11  1  0
 11 12  2  0
 12 13  1  0
 13 14  2  0
 14 15  1  0
 15 16  1  0
 16 17  1  0
 14  9  1  0
  1 18  1  0
  3 19  1  0
  3 20  1  0
  5 21  1  0
  5 22  1  0
  5 23  1  0
  6 24  1  0
  6 25  1  0
  7 26  1  0
  7 27  1  0
 10 28  1  0
 11 29  1  0
 12 30  1  0
 13 31  1  0
 16 32  1  0
 16 33  1  0
 17 34  1  0
 17 35  1  0
 17 36  1  0
M  END
>  <UniqueID>  (7) 
7

>  <SMILES>  (7) 
C#CCN(C)CCOc1ccccc1OCC

>  <Energy>  (7) 
27.994689088566705

>  <Genealogy>  (7) 
C#CCN(C)CCOc1ccccc1OCC (3D coordinates assigned)
C#CCN(C)CCOc1ccccc1OCC (optimized conformer: 27.994689088566705 kcal/mol)

>  <smiles>  (7) 
C#CCN(C)CCOc1ccccc1OCC

>  <score_type>  (7) 
oracle

>  <origin>  (7) 
adg

>  <m_score__min__energy>  (7) 
-5.8300000000000001

>  <m_primary>  (7) 
energy

$$$$
7:0
     RDKit          3D

 35 36  0  0  0  0  0  0  0  0999 V2000
   58.5917   35.1407   45.1356 H   0  0  0  0  0  0  0  0  0  0  0  0
   58.6050   34.1460   45.6050 C   0  0  0  0  0  0  0  0  0  0  0  0
   59.0210   34.0710   46.8790 C   0  0  0  0  0  0  0  0  0  0  0  0
   58.2504   34.0615   47.6640 H   0  0  0  0  0  0  0  0  0  0  0  0
   60.4360   34.0000   47.3110 C   0  0  0  0  0  0  0  0  0  0  0  0
   61.4620   33.7930   46.3710 C   0  0  0  0  0  0  0  0  0  0  0  0
   61.2146   33.7031   45.3029 H   0  0  0  0  0  0  0  0  0  0  0  0
   62.7920   33.7010   46.7850 C   0  0  0  0  0  0  0  0  0  0  0  0
   63.5898   33.5542   46.0421 H   0  0  0  0  0  0  0  0  0  0  0  0
   63.1100   33.7950   48.1390 C   0  0  0  0  0  0  0  0  0  0  0  0
   64.1595   33.7288   48.4617 H   0  0  0  0  0  0  0  0  0  0  0  0
   62.1000   33.9730   49.0870 C   0  0  0  0  0  0  0  0  0  0  0  0
   62.3571   34.0371   50.1546 H   0  0  0  0  0  0  0  0  0  0  0  0
   60.7520   34.0710   48.6830 C   0  0  0  0  0  0  0  0  0  0  0  0
   59.7130   34.2480   49.6120 O   0  0  0  0  0  0  0  0  0  0  0  0
   59.6020   33.5460   50.8450 C   0  0  0  0  0  0  0  0  0  0  0  0
   59.7137   34.2526   51.6806 H   0  0  0  0  0  0  0  0  0  0  0  0
   58.6161   33.0617   50.9037 H   0  0  0  0  0  0  0  0  0  0  0  0
   60.3904   32.7811   50.9037 H   0  0  0  0  0  0  0  0  0  0  0  0
   58.1630   33.0000   44.7810 C   0  0  0  0  0  0  0  0  0  0  0  0
   58.1930   33.0500   43.3770 C   0  0  0  0  0  0  0  0  0  0  0  0
   58.5700   33.9495   42.8683 H   0  0  0  0  0  0  0  0  0  0  0  0
   57.7460   31.9620   42.6260 C   0  0  0  0  0  0  0  0  0  0  0  0
   57.7853   32.0018   41.5274 H   0  0  0  0  0  0  0  0  0  0  0  0
   57.2490   30.8230   43.2630 C   0  0  0  0  0  0  0  0  0  0  0  0
   56.9076   29.9658   42.6642 H   0  0  0  0  0  0  0  0  0  0  0  0
   57.1830   30.7670   44.6680 C   0  0  0  0  0  0  0  0  0  0  0  0
   56.6630   29.6130   45.3550 N   0  0  0  0  0  0  0  0  0  0  0  0
   55.8450   29.7320   45.9960 H   0  0  0  0  0  0  0  0  0  0  0  0
   57.2180   28.2710   45.2120 C   0  0  0  0  0  0  0  0  0  0  0  0
   57.3963   27.8399   46.2082 H   0  0  0  0  0  0  0  0  0  0  0  0
   56.5081   27.6375   44.6600 H   0  0  0  0  0  0  0  0  0  0  0  0
   58.1680   28.3240   44.6600 H   0  0  0  0  0  0  0  0  0  0  0  0
   57.6340   31.8670   45.4160 C   0  0  0  0  0  0  0  0  0  0  0  0
   57.5715   31.8394   46.5139 H   0  0  0  0  0  0  0  0  0  0  0  0
  1  2  1  0
  2  3  2  0
  3  4  1  0
  3  5  1  0
  5  6  2  0
  6  7  1  0
  6  8  1  0
  8  9  1  0
  8 10  2  0
 10 11  1  0
 10 12  1  0
 12 13  1  0
 12 14  2  0
 14 15  1  0
 15 16  1  0
 16 17  1  0
 16 18  1  0
 16 19  1  0
  2 20  1  0
 20 21  2  0
 21 22  1  0
 21 23  1  0
 23 24  1  0
 23 25  2  0
 25 26  1  0
 25 27  1  0
 27 28  1  0
 28 29  1  0
 28 30  1  0
 30 31  1  0
 30 32  1  0
 30 33  1  0
 27 34  2  0
 34 35  1  0
 14  5  1  0
 34 20  1  0
M  END
>  <UniqueID>  (8) 
8

>  <SMILES>  (8) 
CNc1cccc(/C=C\c2ccccc2OC)c1

>  <Energy>  (8) 
43.302357620035615

>  <Genealogy>  (8) 
CNc1cccc(/C=C\c2ccccc2OC)c1 (cis-trans isomerization)
CNc1cccc(/C=C\c2ccccc2OC)c1 (3D coordinates assigned)
CNc1cccc(/C=C\c2ccccc2OC)c1 (optimized conformer: 43.302357620035615 kcal/mol)

>  <smiles>  (8) 
CNc1cccc(C=Cc2ccccc2OC)c1

>  <score_type>  (8) 
oracle

>  <origin>  (8) 
adg

>  <m_score__min__energy>  (8) 
-6.7000000000000002

>  <m_primary>  (8) 
energy

$$$$
8:0
     RDKit          3D

 62 64  0  0  0  0  0  0  0  0999 V2000
   58.9370   30.1130   49.7910 C   0  0  0  0  0  0  0  0  0  0  0  0
   58.6730   31.6150   49.7680 C   0  0  0  0  0  0  0  0  0  0  0  0
   59.8970   32.3460   50.1150 N   0  0  0  0  0  0  0  0  0  0  0  0
   59.6290   33.7790   50.3090 C   0  0  0  0  0  0  0  0  0  0  0  0
   60.0480   34.5910   49.0710 C   0  0  0  0  0  0  0  0  0  0  0  0
   60.3460   33.7090   47.9390 N   0  0  0  0  0  0  0  0  0  0  0  0
   59.3740   33.4240   46.9180 C   0  0  0  0  0  0  0  0  0  0  0  0
   58.5200   34.4620   46.5240 C   0  0  0  0  0  0  0  0  0  0  0  0
   57.5370   34.2530   45.5730 C   0  0  0  0  0  0  0  0  0  0  0  0
   57.4010   33.0110   44.9720 C   0  0  0  0  0  0  0  0  0  0  0  0
   58.2660   31.9380   45.2930 C   0  0  0  0  0  0  0  0  0  0  0  0
   59.2560   32.1340   46.3060 C   0  0  0  0  0  0  0  0  0  0  0  0
   60.0550   31.0230   46.6800 C   0  0  0  0  0  0  0  0  0  0  0  0
   61.1520   31.1640   47.5910 N   0  0  0  0  0  0  0  0  0  0  0  0
   62.5320   31.1840   47.1020 C   0  0  0  0  0  0  0  0  0  0  0  0
   63.3970   32.1270   47.9420 C   0  0  0  0  0  0  0  0  0  0  0  0
   62.6790   32.5390   49.1670 N   0  0  0  0  0  0  0  0  0  0  0  0
   62.7820   31.5320   50.2370 C   0  0  0  0  0  0  0  0  0  0  0  0
   63.0540   33.8940   49.6290 C   0  0  0  0  0  0  0  0  0  0  0  0
   63.9650   33.9020   50.8630 C   0  0  0  0  0  0  0  0  0  0  0  0
   59.7450   29.7440   46.1880 C   0  0  0  0  0  0  0  0  0  0  0  0
   60.3890   28.5960   46.7020 C   0  0  0  0  0  0  0  0  0  0  0  0
   60.0660   27.3260   46.2360 C   0  0  0  0  0  0  0  0  0  0  0  0
   59.0810   27.1730   45.2700 C   0  0  0  0  0  0  0  0  0  0  0  0
   58.4260   28.2910   44.7530 C   0  0  0  0  0  0  0  0  0  0  0  0
   58.7610   29.6000   45.1810 C   0  0  0  0  0  0  0  0  0  0  0  0
   58.1450   30.7160   44.6570 N   0  0  0  0  0  0  0  0  0  0  0  0
   57.3640   30.6070   43.4040 C   0  0  0  0  0  0  0  0  0  0  0  0
   58.9978   29.7673   50.8335 H   0  0  0  0  0  0  0  0  0  0  0  0
   58.1172   29.5887   49.2780 H   0  0  0  0  0  0  0  0  0  0  0  0
   59.8864   29.8997   49.2780 H   0  0  0  0  0  0  0  0  0  0  0  0
   58.3449   31.9116   48.7608 H   0  0  0  0  0  0  0  0  0  0  0  0
   57.8894   31.8547   50.5019 H   0  0  0  0  0  0  0  0  0  0  0  0
   60.5560   32.2570   49.3070 H   0  0  0  0  0  0  0  0  0  0  0  0
   58.5530   33.9229   50.4863 H   0  0  0  0  0  0  0  0  0  0  0  0
   60.2124   34.1308   51.1727 H   0  0  0  0  0  0  0  0  0  0  0  0
   59.2285   35.2696   48.7919 H   0  0  0  0  0  0  0  0  0  0  0  0
   60.9551   35.1622   49.3178 H   0  0  0  0  0  0  0  0  0  0  0  0
   61.3510   33.5480   47.7150 H   0  0  0  0  0  0  0  0  0  0  0  0
   58.6325   35.4579   46.9773 H   0  0  0  0  0  0  0  0  0  0  0  0
   56.8614   35.0747   45.2929 H   0  0  0  0  0  0  0  0  0  0  0  0
   56.6039   32.8564   44.2299 H   0  0  0  0  0  0  0  0  0  0  0  0
   60.9500   31.1580   48.6130 H   0  0  0  0  0  0  0  0  0  0  0  0
   62.9486   30.1675   47.1584 H   0  0  0  0  0  0  0  0  0  0  0  0
   62.5305   31.5422   46.0620 H   0  0  0  0  0  0  0  0  0  0  0  0
   64.3262   31.6102   48.2241 H   0  0  0  0  0  0  0  0  0  0  0  0
   63.6257   33.0232   47.3466 H   0  0  0  0  0  0  0  0  0  0  0  0
   62.7310   32.0308   51.2161 H   0  0  0  0  0  0  0  0  0  0  0  0
   61.9525   30.8152   50.1470 H   0  0  0  0  0  0  0  0  0  0  0  0
   63.7395   30.9980   50.1470 H   0  0  0  0  0  0  0  0  0  0  0  0
   63.5780   34.4065   48.8088 H   0  0  0  0  0  0  0  0  0  0  0  0
   62.1217   34.4012   49.9181 H   0  0  0  0  0  0  0  0  0  0  0  0
   63.3485   33.8966   51.7740 H   0  0  0  0  0  0  0  0  0  0  0  0
   64.6078   33.0095   50.8500 H   0  0  0  0  0  0  0  0  0  0  0  0
   64.5920   34.8057   50.8500 H   0  0  0  0  0  0  0  0  0  0  0  0
   61.1567   28.7084   47.4818 H   0  0  0  0  0  0  0  0  0  0  0  0
   60.5904   26.4440   46.6324 H   0  0  0  0  0  0  0  0  0  0  0  0
   58.8162   26.1675   44.9112 H   0  0  0  0  0  0  0  0  0  0  0  0
   57.6358   28.1542   44.0001 H   0  0  0  0  0  0  0  0  0  0  0  0
   56.3013   30.4587   43.6461 H   0  0  0  0  0  0  0  0  0  0  0  0
   57.4811   31.5302   42.8175 H   0  0  0  0  0  0  0  0  0  0  0  0
   57.7294   29.7511   42.8175 H   0  0  0  0  0  0  0  0  0  0  0  0
  1  2  1  0
  2  3  1  0
  3  4  1  0
  4  5  1  0
  5  6  1  0
  6  7  1  0
  7  8  2  0
  8  9  1  0
  9 10  2  0
 10 11  1  0
 11 12  2  0
 12 13  1  0
 13 14  1  0
 14 15  1  0
 15 16  1  0
 16 17  1  0
 17 18  1  0
 17 19  1  0
 19 20  1  0
 13 21  2  0
 21 22  1  0
 22 23  2  0
 23 24  1  0
 24 25  2  0
 25 26  1  0
 26 27  2  0
 27 28  1  0
 12  7  1  0
 26 21  1  0
 27 11  1  0
  1 29  1  0
  1 30  1  0
  1 31  1  0
  2 32  1  0
  2 33  1  0
  3 34  1  0
  4 35  1  0
  4 36  1  0
  5 37  1  0
  5 38  1  0
  6 39  1  0
  8 40  1  0
  9 41  1  0
 10 42  1  0
 14 43  1  0
 15 44  1  0
 15 45  1  0
 16 46  1  0
 16 47  1  0
 18 48  1  0
 18 49  1  0
 18 50  1  0
 19 51  1  0
 19 52  1  0
 20 53  1  0
 20 54  1  0
 20 55  1  0
 22 56  1  0
 23 57  1  0
 24 58  1  0
 25 59  1  0
 28 60  1  0
 28 61  1  0
 28 62  1  0
M  CHG  1  27   1
M  END
>  <UniqueID>  (9) 
9

>  <SMILES>  (9) 
CCNCCNc1cccc2c1c(NCCN(C)CC)c1ccccc1[n+]2C

>  <Energy>  (9) 
92.71598670764519

>  <Genealogy>  (9) 
CCNCCNc1cccc2c1c(NCCN(C)CC)c1ccccc1[n+]2C (3D coordinates assigned)
CCNCCNc1cccc2c1c(NCCN(C)CC)c1ccccc1[n+]2C (optimized conformer: 92.71598670764519 kcal/mol)

>  <smiles>  (9) 
CCNCCNc1cccc2c1c(NCCN(C)CC)c1ccccc1[n+]2C

>  <score_type>  (9) 
oracle

>  <origin>  (9) 
adg

>  <m_score__min__energy>  (9) 
-4.6200000000000001

>  <m_primary>  (9) 
energy

$$$$
9:0
     RDKit          3D

 49 51  0  0  0  0  0  0  0  0999 V2000
   57.7650   28.2480   44.0820 C   0  0  0  0  0  0  0  0  0  0  0  0
   57.1030   28.8870   45.2940 C   0  0  0  0  0  0  0  0  0  0  0  0
   56.0770   29.7530   44.8570 O   0  0  0  0  0  0  0  0  0  0  0  0
   56.5050   30.4430   43.7020 C   0  0  0  0  0  0  0  0  0  0  0  0
   57.3700   31.6260   44.1200 C   0  0  0  0  0  0  0  0  0  0  0  0
   57.0830   31.9590   45.4620 O   0  0  0  0  0  0  0  0  0  0  0  0
   57.0020   33.3640   45.6190 C   0  0  0  0  0  0  0  0  0  0  0  0
   58.1260   33.8560   46.5330 C   0  0  0  0  0  0  0  0  0  0  0  0
   58.8050   32.7310   47.1800 N   0  0  0  0  0  0  0  0  0  0  0  0
   59.7510   32.9250   48.2460 C   0  0  0  0  0  0  0  0  0  0  0  0
   61.0820   33.2830   47.9610 C   0  0  0  0  0  0  0  0  0  0  0  0
   61.4920   33.5480   46.6370 C   0  0  0  0  0  0  0  0  0  0  0  0
   62.8260   33.8260   46.3470 C   0  0  0  0  0  0  0  0  0  0  0  0
   63.7710   33.8400   47.3660 C   0  0  0  0  0  0  0  0  0  0  0  0
   63.3800   33.6260   48.6870 C   0  0  0  0  0  0  0  0  0  0  0  0
   62.0210   33.3930   49.0220 C   0  0  0  0  0  0  0  0  0  0  0  0
   61.6040   33.2690   50.3350 N   0  0  0  0  0  0  0  0  0  0  0  0
   62.5110   33.6600   51.4390 C   0  0  0  0  0  0  0  0  0  0  0  0
   60.3270   32.8200   50.6180 C   0  0  0  0  0  0  0  0  0  0  0  0
   59.9380   32.4540   51.9330 C   0  0  0  0  0  0  0  0  0  0  0  0
   58.6290   32.0620   52.2160 C   0  0  0  0  0  0  0  0  0  0  0  0
   58.1370   31.5860   53.9990 Br  0  0  0  0  0  0  0  0  0  0  0  0
   57.6810   32.0120   51.2000 C   0  0  0  0  0  0  0  0  0  0  0  0
   58.0440   32.3190   49.8910 C   0  0  0  0  0  0  0  0  0  0  0  0
   59.3670   32.6950   49.5790 C   0  0  0  0  0  0  0  0  0  0  0  0
   58.5188   27.5203   44.4170 H   0  0  0  0  0  0  0  0  0  0  0  0
   57.0036   27.7347   43.4764 H   0  0  0  0  0  0  0  0  0  0  0  0
   58.2511   29.0271   43.4764 H   0  0  0  0  0  0  0  0  0  0  0  0
   56.6748   28.1030   45.9359 H   0  0  0  0  0  0  0  0  0  0  0  0
   57.8497   29.4565   45.8669 H   0  0  0  0  0  0  0  0  0  0  0  0
   57.0912   29.7652   43.0640 H   0  0  0  0  0  0  0  0  0  0  0  0
   55.6307   30.8033   43.1401 H   0  0  0  0  0  0  0  0  0  0  0  0
   58.4323   31.3563   44.0268 H   0  0  0  0  0  0  0  0  0  0  0  0
   57.1561   32.4881   43.4711 H   0  0  0  0  0  0  0  0  0  0  0  0
   57.0959   33.8462   44.6348 H   0  0  0  0  0  0  0  0  0  0  0  0
   56.0322   33.6208   46.0703 H   0  0  0  0  0  0  0  0  0  0  0  0
   58.8557   34.4207   45.9342 H   0  0  0  0  0  0  0  0  0  0  0  0
   57.6892   34.4976   47.3124 H   0  0  0  0  0  0  0  0  0  0  0  0
   58.6870   31.7730   46.7800 H   0  0  0  0  0  0  0  0  0  0  0  0
   60.7501   33.5349   45.8249 H   0  0  0  0  0  0  0  0  0  0  0  0
   63.1315   34.0345   45.3110 H   0  0  0  0  0  0  0  0  0  0  0  0
   64.8301   34.0204   47.1297 H   0  0  0  0  0  0  0  0  0  0  0  0
   64.1384   33.6380   49.4836 H   0  0  0  0  0  0  0  0  0  0  0  0
   62.0257   33.4508   52.4038 H   0  0  0  0  0  0  0  0  0  0  0  0
   63.4459   33.0850   51.3665 H   0  0  0  0  0  0  0  0  0  0  0  0
   62.7348   34.7345   51.3665 H   0  0  0  0  0  0  0  0  0  0  0  0
   60.6815   32.4798   52.7433 H   0  0  0  0  0  0  0  0  0  0  0  0
   56.6431   31.7296   51.4304 H   0  0  0  0  0  0  0  0  0  0  0  0
   57.2903   32.2676   49.0914 H   0  0  0  0  0  0  0  0  0  0  0  0
  1  2  1  0
  2  3  1  0
  3  4  1  0
  4  5  1  0
  5  6  1  0
  6  7  1  0
  7  8  1  0
  8  9  1  0
  9 10  1  0
 10 11  2  0
 11 12  1  0
 12 13  2  0
 13 14  1  0
 14 15  2  0
 15 16  1  0
 16 17  2  0
 17 18  1  0
 17 19  1  0
 19 20  2  0
 20 21  1  0
 21 22  1  0
 21 23  2  0
 23 24  1  0
 24 25  2  0
 25 10  1  0
 16 11  1  0
 25 19  1  0
  1 26  1  0
  1 27  1  0
  1 28  1  0
  2 29  1  0
  2 30  1  0
  4 31  1  0
  4 32  1  0
  5 33  1  0
  5 34  1  0
  7 35  1  0
  7 36  1  0
  8 37  1  0
  8 38  1  0
  9 39  1  0
 12 40  1  0
 13 41  1  0
 14 42  1  0
 15 43  1  0
 18 44  1  0
 18 45  1  0
 18 46  1  0
 20 47  1  0
 23 48  1  0
 24 49  1  0
M  CHG  1  17   1
M  END
>  <UniqueID>  (10) 
10

>  <SMILES>  (10) 
CCOCCOCCNc1c2ccccc2[n+](C)c2cc(Br)ccc12

>  <Energy>  (10) 
72.61690104587406

>  <Genealogy>  (10) 
CCOCCOCCNc1c2ccccc2[n+](C)c2cc(Br)ccc12 (3D coordinates assigned)
CCOCCOCCNc1c2ccccc2[n+](C)c2cc(Br)ccc12 (optimized conformer: 72.61690104587406 kcal/mol)

>  <smiles>  (10) 
CCOCCOCCNc1c2ccccc2[n+](C)c2cc(Br)ccc12

>  <score_type>  (10) 
oracle

>  <origin>  (10) 
adg

>  <m_score__min__energy>  (10) 
-5.8499999999999996

>  <m_primary>  (10) 
energy

$$$$
10:0
     RDKit          3D

 43 45  0  0  0  0  0  0  0  0999 V2000
   59.4710   33.7020   52.1720 C   0  0  0  0  0  0  0  0  0  0  0  0
   59.6630   33.1430   50.7680 C   0  0  0  0  0  0  0  0  0  0  0  0
   60.1470   34.1550   49.8870 O   0  0  0  0  0  0  0  0  0  0  0  0
   61.0050   33.9040   48.8110 C   0  0  0  0  0  0  0  0  0  0  0  0
   62.3570   33.9590   48.9740 N   0  0  0  0  0  0  0  0  0  0  0  0
   63.2060   33.7570   47.9350 C   0  0  0  0  0  0  0  0  0  0  0  0
   62.6880   33.4980   46.6670 C   0  0  0  0  0  0  0  0  0  0  0  0
   61.3430   33.4360   46.4970 N   0  0  0  0  0  0  0  0  0  0  0  0
   60.4820   33.6200   47.5360 C   0  0  0  0  0  0  0  0  0  0  0  0
   59.0640   33.5320   47.3090 N   0  0  0  0  0  0  0  0  0  0  0  0
   58.4430   34.5160   46.4110 C   0  0  0  0  0  0  0  0  0  0  0  0
   57.7190   33.8300   45.2440 C   0  0  0  0  0  0  0  0  0  0  0  0
   58.4700   32.6110   44.6930 C   0  0  0  0  0  0  0  0  0  0  0  0
   58.0800   31.3710   45.3910 N   0  0  0  0  0  0  0  0  0  0  0  0
   57.2390   30.3890   44.7430 C   0  0  0  0  0  0  0  0  0  0  0  0
   55.9870   30.5460   44.7400 O   0  0  0  0  0  0  0  0  0  0  0  0
   57.8130   29.1590   44.0930 C   0  0  0  0  0  0  0  0  0  0  0  0
   58.0210   27.9880   45.0420 C   0  0  0  0  0  0  0  0  0  0  0  0
   59.2170   28.7790   44.5450 C   0  0  0  0  0  0  0  0  0  0  0  0
   58.4900   31.1080   46.7860 C   0  0  0  0  0  0  0  0  0  0  0  0
   58.3590   32.3100   47.7470 C   0  0  0  0  0  0  0  0  0  0  0  0
   59.7353   32.9325   52.9123 H   0  0  0  0  0  0  0  0  0  0  0  0
   60.1190   34.5803   52.3088 H   0  0  0  0  0  0  0  0  0  0  0  0
   58.4201   33.9968   52.3088 H   0  0  0  0  0  0  0  0  0  0  0  0
   60.3889   32.3173   50.8037 H   0  0  0  0  0  0  0  0  0  0  0  0
   58.6936   32.7813   50.3945 H   0  0  0  0  0  0  0  0  0  0  0  0
   64.2940   33.7973   48.0920 H   0  0  0  0  0  0  0  0  0  0  0  0
   63.3632   33.3453   45.8121 H   0  0  0  0  0  0  0  0  0  0  0  0
   57.7165   35.1130   46.9817 H   0  0  0  0  0  0  0  0  0  0  0  0
   59.2359   35.1569   45.9980 H   0  0  0  0  0  0  0  0  0  0  0  0
   56.7290   33.5012   45.5929 H   0  0  0  0  0  0  0  0  0  0  0  0
   57.6496   34.5646   44.4282 H   0  0  0  0  0  0  0  0  0  0  0  0
   58.2412   32.5049   43.6223 H   0  0  0  0  0  0  0  0  0  0  0  0
   59.5469   32.7703   44.8510 H   0  0  0  0  0  0  0  0  0  0  0  0
   57.3249   29.3045   43.1180 H   0  0  0  0  0  0  0  0  0  0  0  0
   57.7063   28.0697   46.0929 H   0  0  0  0  0  0  0  0  0  0  0  0
   57.7366   26.9254   45.0388 H   0  0  0  0  0  0  0  0  0  0  0  0
   59.7685   29.4340   45.2355 H   0  0  0  0  0  0  0  0  0  0  0  0
   60.1573   28.5271   44.0327 H   0  0  0  0  0  0  0  0  0  0  0  0
   57.8656   30.2907   47.1760 H   0  0  0  0  0  0  0  0  0  0  0  0
   59.5615   30.8623   46.7484 H   0  0  0  0  0  0  0  0  0  0  0  0
   57.2906   32.5500   47.8514 H   0  0  0  0  0  0  0  0  0  0  0  0
   58.8290   32.0032   48.6931 H   0  0  0  0  0  0  0  0  0  0  0  0
  1  2  1  0
  2  3  1  0
  3  4  1  0
  4  5  2  0
  5  6  1  0
  6  7  2  0
  7  8  1  0
  8  9  2  0
  9 10  1  0
 10 11  1  0
 11 12  1  0
 12 13  1  0
 13 14  1  0
 14 15  1  0
 15 16  2  0
 15 17  1  0
 17 18  1  0
 18 19  1  0
 14 20  1  0
 20 21  1  0
  9  4  1  0
 21 10  1  0
 19 17  1  0
  1 22  1  0
  1 23  1  0
  1 24  1  0
  2 25  1  0
  2 26  1  0
  6 27  1  0
  7 28  1  0
 11 29  1  0
 11 30  1  0
 12 31  1  0
 12 32  1  0
 13 33  1  0
 13 34  1  0
 17 35  1  0
 18 36  1  0
 18 37  1  0
 19 38  1  0
 19 39  1  0
 20 40  1  0
 20 41  1  0
 21 42  1  0
 21 43  1  0
M  END
>  <UniqueID>  (11) 
11

>  <SMILES>  (11) 
CCOc1nccnc1N1CCCN(C(=O)C2CC2)CC1

>  <Energy>  (11) 
312.7117401874162

>  <Genealogy>  (11) 
CCOc1nccnc1N1CCCN(C(=O)C2CC2)CC1 (3D coordinates assigned)
CCOc1nccnc1N1CCCN(C(=O)C2CC2)CC1 (nonaromatic ring conformer: 312.7117401874162 kcal/mol)

>  <smiles>  (11) 
CCOc1nccnc1N1CCCN(C(=O)C2CC2)CC1

>  <score_type>  (11) 
oracle

>  <origin>  (11) 
adg

>  <m_score__min__energy>  (11) 
-4

>  <m_primary>  (11) 
energy

$$$$
11:0
     RDKit          3D

 27 26  0  0  0  0  0  0  0  0999 V2000
   57.4180   33.8850   45.2170 C   0  0  0  0  0  0  0  0  0  0  0  0
   57.8090   32.6180   45.9630 C   0  0  0  0  0  0  0  0  0  0  0  0
   57.2550   31.5030   45.2980 O   0  0  0  0  0  0  0  0  0  0  0  0
   57.4140   31.6560   43.9030 C   0  0  0  0  0  0  0  0  0  0  0  0
   56.9040   30.4020   43.1850 C   0  0  0  0  0  0  0  0  0  0  0  0
   55.5380   29.9080   43.7040 C   0  0  0  0  0  0  0  0  0  0  0  0
   55.5550   29.5290   45.1210 N   0  0  0  0  0  0  0  0  0  0  0  0
   55.9150   28.2210   45.2150 O   0  0  0  0  0  0  0  0  0  0  0  0
   57.2610   28.2080   45.6140 C   0  0  0  0  0  0  0  0  0  0  0  0
   58.0850   27.4730   44.5670 C   0  0  0  0  0  0  0  0  0  0  0  0
   57.1738   34.6763   45.9411 H   0  0  0  0  0  0  0  0  0  0  0  0
   58.2570   34.2122   44.5853 H   0  0  0  0  0  0  0  0  0  0  0  0
   56.5405   33.6826   44.5853 H   0  0  0  0  0  0  0  0  0  0  0  0
   58.9050   32.5268   45.9855 H   0  0  0  0  0  0  0  0  0  0  0  0
   57.4289   32.6619   46.9943 H   0  0  0  0  0  0  0  0  0  0  0  0
   56.8402   32.5308   43.5633 H   0  0  0  0  0  0  0  0  0  0  0  0
   58.4795   31.8008   43.6713 H   0  0  0  0  0  0  0  0  0  0  0  0
   56.8075   30.6296   42.1131 H   0  0  0  0  0  0  0  0  0  0  0  0
   57.6322   29.6004   43.3776 H   0  0  0  0  0  0  0  0  0  0  0  0
   54.8012   30.7133   43.5674 H   0  0  0  0  0  0  0  0  0  0  0  0
   55.2797   29.0060   43.1299 H   0  0  0  0  0  0  0  0  0  0  0  0
   56.2710   30.0950   45.6340 H   0  0  0  0  0  0  0  0  0  0  0  0
   57.6261   29.2411   45.7111 H   0  0  0  0  0  0  0  0  0  0  0  0
   57.3545   27.6974   46.5838 H   0  0  0  0  0  0  0  0  0  0  0  0
   58.8161   26.8209   45.0673 H   0  0  0  0  0  0  0  0  0  0  0  0
   57.4194   26.8631   43.9384 H   0  0  0  0  0  0  0  0  0  0  0  0
   58.6152   28.2036   43.9384 H   0  0  0  0  0  0  0  0  0  0  0  0
  1  2  1  0
  2  3  1  0
  3  4  1  0
  4  5  1  0
  5  6  1  0
  6  7  1  0
  7  8  1  0
  8  9  1  0
  9 10  1  0
  1 11  1  0
  1 12  1  0
  1 13  1  0
  2 14  1  0
  2 15  1  0
  4 16  1  0
  4 17  1  0
  5 18  1  0
  5 19  1  0
  6 20  1  0
  6 21  1  0
  7 22  1  0
  9 23  1  0
  9 24  1  0
 10 25  1  0
 10 26  1  0
 10 27  1  0
M  END
>  <UniqueID>  (12) 
12

>  <SMILES>  (12) 
CCOCCCNOCC

>  <Energy>  (12) 
12.30867013233036

>  <Genealogy>  (12) 
CCOCCCNOCC (3D coordinates assigned)
CCOCCCNOCC (optimized conformer: 12.30867013233036 kcal/mol)

>  <smiles>  (12) 
CCOCCCNOCC

>  <score_type>  (12) 
oracle

>  <origin>  (12) 
adg

>  <m_score__min__energy>  (12) 
-4.2599999999999998

>  <m_primary>  (12) 
energy

$$$$
12:0
     RDKit          3D

 51 53  0  0  0  0  0  0  0  0999 V2000
   60.6230   29.3680   45.7070 C   0  0  0  0  0  0  0  0  0  0  0  0
   60.2810   28.7330   47.0510 C   0  0  0  0  0  0  0  0  0  0  0  0
   60.0840   29.7310   48.0350 O   0  0  0  0  0  0  0  0  0  0  0  0
   59.8230   29.1420   49.2930 C   0  0  0  0  0  0  0  0  0  0  0  0
   59.5740   30.2380   50.3200 C   0  0  0  0  0  0  0  0  0  0  0  0
   59.8420   31.4920   49.7310 O   0  0  0  0  0  0  0  0  0  0  0  0
   58.6910   32.3060   49.7920 C   0  0  0  0  0  0  0  0  0  0  0  0
   58.1570   32.5500   48.3740 C   0  0  0  0  0  0  0  0  0  0  0  0
   58.9110   31.8130   47.3420 N   0  0  0  0  0  0  0  0  0  0  0  0
   58.7350   32.3880   46.0310 C   0  0  0  0  0  0  0  0  0  0  0  0
   59.1770   33.6320   45.5890 C   0  0  0  0  0  0  0  0  0  0  0  0
   59.8430   34.7030   46.4020 C   0  0  0  0  0  0  0  0  0  0  0  0
   61.0540   34.1550   47.1070 C   0  0  0  0  0  0  0  0  0  0  0  0
   61.1210   34.1720   48.5110 C   0  0  0  0  0  0  0  0  0  0  0  0
   62.2380   33.6490   49.1690 C   0  0  0  0  0  0  0  0  0  0  0  0
   63.2960   33.1080   48.4330 C   0  0  0  0  0  0  0  0  0  0  0  0
   63.2380   33.0890   47.0370 C   0  0  0  0  0  0  0  0  0  0  0  0
   62.1240   33.6110   46.3740 C   0  0  0  0  0  0  0  0  0  0  0  0
   58.8390   33.7980   44.2870 N   0  0  0  0  0  0  0  0  0  0  0  0
   58.2130   32.6440   43.9700 C   0  0  0  0  0  0  0  0  0  0  0  0
   57.6740   32.3290   42.7250 C   0  0  0  0  0  0  0  0  0  0  0  0
   57.0400   31.0850   42.5810 C   0  0  0  0  0  0  0  0  0  0  0  0
   56.9590   30.2000   43.6730 C   0  0  0  0  0  0  0  0  0  0  0  0
   57.5180   30.5680   44.9050 C   0  0  0  0  0  0  0  0  0  0  0  0
   58.1300   31.7780   44.9970 N   0  0  0  0  0  0  0  0  0  0  0  0
   61.1385   30.3252   45.8743 H   0  0  0  0  0  0  0  0  0  0  0  0
   61.2793   28.6925   45.1387 H   0  0  0  0  0  0  0  0  0  0  0  0
   59.6978   29.5443   45.1387 H   0  0  0  0  0  0  0  0  0  0  0  0
   59.3603   28.1401   46.9474 H   0  0  0  0  0  0  0  0  0  0  0  0
   61.1152   28.0868   47.3617 H   0  0  0  0  0  0  0  0  0  0  0  0
   58.9341   28.4981   49.2199 H   0  0  0  0  0  0  0  0  0  0  0  0
   60.6875   28.5364   49.6027 H   0  0  0  0  0  0  0  0  0  0  0  0
   58.5252   30.2025   50.6497 H   0  0  0  0  0  0  0  0  0  0  0  0
   60.2320   30.0883   51.1887 H   0  0  0  0  0  0  0  0  0  0  0  0
   57.9186   31.8033   50.3926 H   0  0  0  0  0  0  0  0  0  0  0  0
   58.9492   33.2694   50.2558 H   0  0  0  0  0  0  0  0  0  0  0  0
   57.1051   32.2307   48.3353 H   0  0  0  0  0  0  0  0  0  0  0  0
   58.2671   33.6233   48.1599 H   0  0  0  0  0  0  0  0  0  0  0  0
   59.9290   31.8490   47.5810 H   0  0  0  0  0  0  0  0  0  0  0  0
   58.6310   30.8070   47.3430 H   0  0  0  0  0  0  0  0  0  0  0  0
   60.1518   35.5228   45.7367 H   0  0  0  0  0  0  0  0  0  0  0  0
   59.1307   35.0723   47.1545 H   0  0  0  0  0  0  0  0  0  0  0  0
   60.2914   34.5984   49.0941 H   0  0  0  0  0  0  0  0  0  0  0  0
   62.2844   33.6632   50.2679 H   0  0  0  0  0  0  0  0  0  0  0  0
   64.1742   32.6973   48.9527 H   0  0  0  0  0  0  0  0  0  0  0  0
   64.0708   32.6623   46.4588 H   0  0  0  0  0  0  0  0  0  0  0  0
   62.0839   33.5964   45.2748 H   0  0  0  0  0  0  0  0  0  0  0  0
   57.7429   33.0322   41.8820 H   0  0  0  0  0  0  0  0  0  0  0  0
   56.6049   30.8006   41.6116 H   0  0  0  0  0  0  0  0  0  0  0  0
   56.4603   29.2260   43.5603 H   0  0  0  0  0  0  0  0  0  0  0  0
   57.4627   29.8955   45.7737 H   0  0  0  0  0  0  0  0  0  0  0  0
  1  2  1  0
  2  3  1  0
  3  4  1  0
  4  5  1  0
  5  6  1  0
  6  7  1  0
  7  8  1  0
  8  9  1  0
  9 10  1  0
 10 11  2  0
 11 12  1  0
 12 13  1  0
 13 14  2  0
 14 15  1  0
 15 16  2  0
 16 17  1  0
 17 18  2  0
 11 19  1  0
 19 20  2  0
 20 21  1  0
 21 22  2  0
 22 23  1  0
 23 24  2  0
 24 25  1  0
 25 10  1  0
 18 13  1  0
 25 20  1  0
  1 26  1  0
  1 27  1  0
  1 28  1  0
  2 29  1  0
  2 30  1  0
  4 31  1  0
  4 32  1  0
  5 33  1  0
  5 34  1  0
  7 35  1  0
  7 36  1  0
  8 37  1  0
  8 38  1  0
  9 39  1  0
  9 40  1  0
 12 41  1  0
 12 42  1  0
 14 43  1  0
 15 44  1  0
 16 45  1  0
 17 46  1  0
 18 47  1  0
 21 48  1  0
 22 49  1  0
 23 50  1  0
 24 51  1  0
M  CHG  1   9   1
M  END
>  <UniqueID>  (13) 
13

>  <SMILES>  (13) 
CCOCCOCC[NH2+]c1c(Cc2ccccc2)nc2ccccn12

>  <Energy>  (13) 
81.90177004877114

>  <Genealogy>  (13) 
CCOCCOCC[NH2+]c1c(Cc2ccccc2)nc2ccccn12 (protonated)
CCOCCOCC[NH2+]c1c(Cc2ccccc2)nc2ccccn12 (3D coordinates assigned)
CCOCCOCC[NH2+]c1c(Cc2ccccc2)nc2ccccn12 (optimized conformer: 81.90177004877114 kcal/mol)

>  <smiles>  (13) 
CCOCCOCCNc1c(Cc2ccccc2)nc2ccccn12

>  <score_type>  (13) 
oracle

>  <origin>  (13) 
adg

>  <m_score__min__energy>  (13) 
-4.5300000000000002

>  <m_primary>  (13) 
energy

$$$$
13:0
     RDKit          3D

 48 51  0  0  0  0  0  0  0  0999 V2000
   56.1450   31.5860   52.3800 C   0  0  0  0  0  0  0  0  0  0  0  0
   56.1630   30.0700   52.5410 C   0  0  0  0  0  0  0  0  0  0  0  0
   57.1380   29.4970   51.6900 O   0  0  0  0  0  0  0  0  0  0  0  0
   57.9970   30.4960   51.1780 C   0  0  0  0  0  0  0  0  0  0  0  0
   59.0320   29.8430   50.2670 C   0  0  0  0  0  0  0  0  0  0  0  0
   60.3390   30.1030   50.7500 O   0  0  0  0  0  0  0  0  0  0  0  0
   61.1040   30.9050   49.8660 C   0  0  0  0  0  0  0  0  0  0  0  0
   61.2150   30.2330   48.4930 C   0  0  0  0  0  0  0  0  0  0  0  0
   60.3150   30.8800   47.5220 N   0  0  0  0  0  0  0  0  0  0  0  0
   59.3030   30.1940   46.8870 C   0  0  0  0  0  0  0  0  0  0  0  0
   58.3850   30.8510   46.0720 C   0  0  0  0  0  0  0  0  0  0  0  0
   58.5050   32.2190   45.8000 C   0  0  0  0  0  0  0  0  0  0  0  0
   57.6080   32.9110   44.9640 C   0  0  0  0  0  0  0  0  0  0  0  0
   57.7850   34.2730   44.7140 C   0  0  0  0  0  0  0  0  0  0  0  0
   58.8530   34.9580   45.2910 C   0  0  0  0  0  0  0  0  0  0  0  0
   59.7510   34.2880   46.1240 C   0  0  0  0  0  0  0  0  0  0  0  0
   59.5880   32.9130   46.3920 C   0  0  0  0  0  0  0  0  0  0  0  0
   60.4840   32.2230   47.2470 C   0  0  0  0  0  0  0  0  0  0  0  0
   61.4460   32.8570   47.7680 O   0  0  0  0  0  0  0  0  0  0  0  0
   57.3880   29.8750   45.6240 C   0  0  0  0  0  0  0  0  0  0  0  0
   56.3890   30.0850   44.8880 O   0  0  0  0  0  0  0  0  0  0  0  0
   57.7680   28.5950   46.1860 C   0  0  0  0  0  0  0  0  0  0  0  0
   57.1600   27.3520   46.0010 C   0  0  0  0  0  0  0  0  0  0  0  0
   57.7570   26.2280   46.5850 C   0  0  0  0  0  0  0  0  0  0  0  0
   58.9510   26.3590   47.3150 C   0  0  0  0  0  0  0  0  0  0  0  0
   59.5510   27.6180   47.4830 C   0  0  0  0  0  0  0  0  0  0  0  0
   58.9260   28.7510   46.9330 C   0  0  0  0  0  0  0  0  0  0  0  0
   56.1394   32.0601   53.3726 H   0  0  0  0  0  0  0  0  0  0  0  0
   57.0394   31.9065   51.8256 H   0  0  0  0  0  0  0  0  0  0  0  0
   55.2432   31.8852   51.8256 H   0  0  0  0  0  0  0  0  0  0  0  0
   56.4002   29.8188   53.5853 H   0  0  0  0  0  0  0  0  0  0  0  0
   55.1742   29.6700   52.2724 H   0  0  0  0  0  0  0  0  0  0  0  0
   57.4101   31.2280   50.6039 H   0  0  0  0  0  0  0  0  0  0  0  0
   58.5043   31.0103   52.0075 H   0  0  0  0  0  0  0  0  0  0  0  0
   58.8622   28.7564   50.2436 H   0  0  0  0  0  0  0  0  0  0  0  0
   58.9332   30.2591   49.2535 H   0  0  0  0  0  0  0  0  0  0  0  0
   60.6162   31.8843   49.7515 H   0  0  0  0  0  0  0  0  0  0  0  0
   62.1139   31.0313   50.2834 H   0  0  0  0  0  0  0  0  0  0  0  0
   62.2516   30.3140   48.1341 H   0  0  0  0  0  0  0  0  0  0  0  0
   60.9270   29.1760   48.5923 H   0  0  0  0  0  0  0  0  0  0  0  0
   56.7634   32.3757   44.5055 H   0  0  0  0  0  0  0  0  0  0  0  0
   57.0799   34.8069   44.0600 H   0  0  0  0  0  0  0  0  0  0  0  0
   58.9889   36.0308   45.0892 H   0  0  0  0  0  0  0  0  0  0  0  0
   60.5915   34.8364   46.5744 H   0  0  0  0  0  0  0  0  0  0  0  0
   56.2359   27.2580   45.4117 H   0  0  0  0  0  0  0  0  0  0  0  0
   57.2897   25.2386   46.4720 H   0  0  0  0  0  0  0  0  0  0  0  0
   59.4196   25.4681   47.7585 H   0  0  0  0  0  0  0  0  0  0  0  0
   60.4963   27.7161   48.0369 H   0  0  0  0  0  0  0  0  0  0  0  0
  1  2  1  0
  2  3  1  0
  3  4  1  0
  4  5  1  0
  5  6  1  0
  6  7  1  0
  7  8  1  0
  8  9  1  0
  9 10  1  0
 10 11  2  0
 11 12  1  0
 12 13  2  0
 13 14  1  0
 14 15  2  0
 15 16  1  0
 16 17  2  0
 17 18  1  0
 18 19  2  0
 11 20  1  0
 20 21  2  0
 20 22  1  0
 22 23  2  0
 23 24  1  0
 24 25  2  0
 25 26  1  0
 26 27  2  0
 18  9  1  0
 27 22  1  0
 27 10  1  0
 17 12  1  0
  1 28  1  0
  1 29  1  0
  1 30  1  0
  2 31  1  0
  2 32  1  0
  4 33  1  0
  4 34  1  0
  5 35  1  0
  5 36  1  0
  7 37  1  0
  7 38  1  0
  8 39  1  0
  8 40  1  0
 13 41  1  0
 14 42  1  0
 15 43  1  0
 16 44  1  0
 23 45  1  0
 24 46  1  0
 25 47  1  0
 26 48  1  0
M  END
>  <UniqueID>  (14) 
14

>  <SMILES>  (14) 
CCOCCOCCn1c2c(c3ccccc3c1=O)C(=O)c1ccccc1-2

>  <Energy>  (14) 
99.73057877923495

>  <Genealogy>  (14) 
CCOCCOCCn1c2c(c3ccccc3c1=O)C(=O)c1ccccc1-2 (3D coordinates assigned)
CCOCCOCCn1c2c(c3ccccc3c1=O)C(=O)c1ccccc1-2 (nonaromatic ring conformer: 99.73057877923495 kcal/mol)

>  <smiles>  (14) 
CCOCCOCCn1c2c(c3ccccc3c1=O)C(=O)c1ccccc1-2

>  <score_type>  (14) 
oracle

>  <origin>  (14) 
adg

>  <m_score__min__energy>  (14) 
-7.6900000000000004

>  <m_primary>  (14) 
energy

$$$$
14:0
     RDKit          3D

 47 49  0  0  0  0  0  0  0  0999 V2000
   59.2570   31.8780   49.0710 C   0  0  0  0  0  0  0  0  0  0  0  0
   60.1560   31.6800   47.9850 O   0  0  0  0  0  0  0  0  0  0  0  0
   61.4160   32.2870   47.8730 C   0  0  0  0  0  0  0  0  0  0  0  0
   62.4670   32.0010   48.7660 C   0  0  0  0  0  0  0  0  0  0  0  0
   63.7180   32.6160   48.6150 C   0  0  0  0  0  0  0  0  0  0  0  0
   64.8200   32.3350   49.5920 C   0  0  0  0  0  0  0  0  0  0  0  0
   63.9070   33.5470   47.5860 C   0  0  0  0  0  0  0  0  0  0  0  0
   62.8720   33.8370   46.6970 C   0  0  0  0  0  0  0  0  0  0  0  0
   61.6210   33.2040   46.8300 C   0  0  0  0  0  0  0  0  0  0  0  0
   60.5520   33.4560   45.9530 O   0  0  0  0  0  0  0  0  0  0  0  0
   59.7920   34.6630   45.8850 C   0  0  0  0  0  0  0  0  0  0  0  0
   58.5170   34.5830   46.7380 C   0  0  0  0  0  0  0  0  0  0  0  0
   57.5500   33.4920   46.2600 C   0  0  0  0  0  0  0  0  0  0  0  0
   57.7360   33.1870   44.4690 S   0  0  0  0  0  0  0  0  0  0  0  0
   58.2290   31.4770   44.6930 C   0  0  0  0  0  0  0  0  0  0  0  0
   59.1430   31.0880   45.6130 N   0  0  0  0  0  0  0  0  0  0  0  0
   59.1910   29.7530   45.4860 C   0  0  0  0  0  0  0  0  0  0  0  0
   59.9530   28.8440   46.2180 C   0  0  0  0  0  0  0  0  0  0  0  0
   59.8040   27.4770   45.9170 C   0  0  0  0  0  0  0  0  0  0  0  0
   58.9030   27.0590   44.9110 C   0  0  0  0  0  0  0  0  0  0  0  0
   58.1460   28.0020   44.1930 C   0  0  0  0  0  0  0  0  0  0  0  0
   58.3230   29.3510   44.5080 C   0  0  0  0  0  0  0  0  0  0  0  0
   57.7190   30.4350   43.9840 N   0  0  0  0  0  0  0  0  0  0  0  0
   56.6520   30.4680   42.9850 C   0  0  0  0  0  0  0  0  0  0  0  0
   59.7981   31.7588   50.0213 H   0  0  0  0  0  0  0  0  0  0  0  0
   58.8323   32.8912   49.0154 H   0  0  0  0  0  0  0  0  0  0  0  0
   58.4460   31.1370   49.0154 H   0  0  0  0  0  0  0  0  0  0  0  0
   62.3050   31.2892   49.5888 H   0  0  0  0  0  0  0  0  0  0  0  0
   64.4346   32.4333   50.6176 H   0  0  0  0  0  0  0  0  0  0  0  0
   65.1950   31.3125   49.4376 H   0  0  0  0  0  0  0  0  0  0  0  0
   65.6389   33.0531   49.4376 H   0  0  0  0  0  0  0  0  0  0  0  0
   64.8779   34.0528   47.4782 H   0  0  0  0  0  0  0  0  0  0  0  0
   63.0338   34.5641   45.8876 H   0  0  0  0  0  0  0  0  0  0  0  0
   60.4123   35.4953   46.2490 H   0  0  0  0  0  0  0  0  0  0  0  0
   59.4937   34.8207   44.8380 H   0  0  0  0  0  0  0  0  0  0  0  0
   58.8029   34.3682   47.7783 H   0  0  0  0  0  0  0  0  0  0  0  0
   57.9975   35.5485   46.6489 H   0  0  0  0  0  0  0  0  0  0  0  0
   57.7603   32.5609   46.8067 H   0  0  0  0  0  0  0  0  0  0  0  0
   56.5206   33.8291   46.4519 H   0  0  0  0  0  0  0  0  0  0  0  0
   59.6730   31.6890   46.2830 H   0  0  0  0  0  0  0  0  0  0  0  0
   60.6457   29.1826   47.0025 H   0  0  0  0  0  0  0  0  0  0  0  0
   60.3926   26.7289   46.4683 H   0  0  0  0  0  0  0  0  0  0  0  0
   58.7931   25.9875   44.6880 H   0  0  0  0  0  0  0  0  0  0  0  0
   57.4393   27.6880   43.4107 H   0  0  0  0  0  0  0  0  0  0  0  0
   55.6761   30.4982   43.4917 H   0  0  0  0  0  0  0  0  0  0  0  0
   56.7663   31.3630   42.3558 H   0  0  0  0  0  0  0  0  0  0  0  0
   56.7108   29.5676   42.3558 H   0  0  0  0  0  0  0  0  0  0  0  0
  1  2  1  0
  2  3  1  0
  3  4  2  0
  4  5  1  0
  5  6  1  0
  5  7  2  0
  7  8  1  0
  8  9  2  0
  9 10  1  0
 10 11  1  0
 11 12  1  0
 12 13  1  0
 13 14  1  0
 14 15  1  0
 15 16  2  0
 16 17  1  0
 17 18  2  0
 18 19  1  0
 19 20  2  0
 20 21  1  0
 21 22  2  0
 22 23  1  0
 23 24  1  0
  9  3  1  0
 23 15  1  0
 22 17  1  0
  1 25  1  0
  1 26  1  0
  1 27  1  0
  4 28  1  0
  6 29  1  0
  6 30  1  0
  6 31  1  0
  7 32  1  0
  8 33  1  0
 11 34  1  0
 11 35  1  0
 12 36  1  0
 12 37  1  0
 13 38  1  0
 13 39  1  0
 16 40  1  0
 18 41  1  0
 19 42  1  0
 20 43  1  0
 21 44  1  0
 24 45  1  0
 24 46  1  0
 24 47  1  0
M  CHG  1  16   1
M  END
>  <UniqueID>  (15) 
15

>  <SMILES>  (15) 
COc1cc(C)ccc1OCCCSc1[nH+]c2ccccc2n1C

>  <Energy>  (15) 
78.05141315203876

>  <Genealogy>  (15) 
COc1cc(C)ccc1OCCCSc1[nH+]c2ccccc2n1C (protonated)
COc1cc(C)ccc1OCCCSc1[nH+]c2ccccc2n1C (3D coordinates assigned)
COc1cc(C)ccc1OCCCSc1[nH+]c2ccccc2n1C (optimized conformer: 78.05141315203876 kcal/mol)

>  <smiles>  (15) 
COc1cc(C)ccc1OCCCSc1nc2ccccc2n1C

>  <score_type>  (15) 
oracle

>  <origin>  (15) 
adg

>  <m_score__min__energy>  (15) 
-5.9500000000000002

>  <m_primary>  (15) 
energy

$$$$
15:0
     RDKit          3D

 76 80  0  0  0  0  0  0  0  0999 V2000
   63.3780   32.5000   47.4330 C   0  0  0  0  0  0  0  0  0  0  0  0
   62.4950   31.2620   47.4440 C   0  0  0  0  0  0  0  0  0  0  0  0
   61.7790   31.1410   48.7400 N   0  0  0  0  0  0  0  0  0  0  0  0
   62.6980   31.3790   49.8730 C   0  0  0  0  0  0  0  0  0  0  0  0
   62.5960   30.2600   50.9060 C   0  0  0  0  0  0  0  0  0  0  0  0
   61.1290   29.8120   48.8690 C   0  0  0  0  0  0  0  0  0  0  0  0
   59.6900   29.9460   49.3840 C   0  0  0  0  0  0  0  0  0  0  0  0
   58.8480   30.6960   48.4430 N   0  0  0  0  0  0  0  0  0  0  0  0
   59.0610   30.8150   47.0170 C   0  0  0  0  0  0  0  0  0  0  0  0
   58.9480   29.6890   46.1740 C   0  0  0  0  0  0  0  0  0  0  0  0
   59.4590   28.4130   46.5110 C   0  0  0  0  0  0  0  0  0  0  0  0
   59.2450   27.3200   45.6710 C   0  0  0  0  0  0  0  0  0  0  0  0
   58.5340   27.5000   44.4930 C   0  0  0  0  0  0  0  0  0  0  0  0
   58.1030   28.7380   44.1360 N   0  0  0  0  0  0  0  0  0  0  0  0
   58.3120   29.8390   44.9170 C   0  0  0  0  0  0  0  0  0  0  0  0
   57.9040   31.0800   44.4830 N   0  0  0  0  0  0  0  0  0  0  0  0
   57.0700   31.1810   43.2570 C   0  0  0  0  0  0  0  0  0  0  0  0
   58.3390   32.2110   45.1410 C   0  0  0  0  0  0  0  0  0  0  0  0
   58.1620   33.4900   44.5680 C   0  0  0  0  0  0  0  0  0  0  0  0
   58.6260   34.6240   45.2060 C   0  0  0  0  0  0  0  0  0  0  0  0
   59.2990   34.5300   46.4130 C   0  0  0  0  0  0  0  0  0  0  0  0
   59.5040   33.2820   47.0510 C   0  0  0  0  0  0  0  0  0  0  0  0
   60.2300   33.1840   48.3150 N   0  0  0  0  0  0  0  0  0  0  0  0
   60.0300   34.2400   49.3380 C   0  0  0  0  0  0  0  0  0  0  0  0
   59.2760   33.7760   50.6020 C   0  0  0  0  0  0  0  0  0  0  0  0
   60.0170   32.7540   51.4710 C   0  0  0  0  0  0  0  0  0  0  0  0
   59.0480   31.7910   52.0160 N   0  0  0  0  0  0  0  0  0  0  0  0
   59.5020   30.6790   52.6770 C   0  0  0  0  0  0  0  0  0  0  0  0
   58.6210   29.6940   53.1240 C   0  0  0  0  0  0  0  0  0  0  0  0
   57.2510   29.8540   52.8950 C   0  0  0  0  0  0  0  0  0  0  0  0
   56.3380   28.8780   53.3190 C   0  0  0  0  0  0  0  0  0  0  0  0
   54.9700   29.0550   53.0840 C   0  0  0  0  0  0  0  0  0  0  0  0
   54.5070   30.1960   52.4210 C   0  0  0  0  0  0  0  0  0  0  0  0
   55.4110   31.1710   51.9790 C   0  0  0  0  0  0  0  0  0  0  0  0
   56.7860   31.0040   52.2110 C   0  0  0  0  0  0  0  0  0  0  0  0
   57.7080   31.9640   51.7750 C   0  0  0  0  0  0  0  0  0  0  0  0
   58.9620   32.1050   46.4280 C   0  0  0  0  0  0  0  0  0  0  0  0
   63.5953   32.8046   48.4674 H   0  0  0  0  0  0  0  0  0  0  0  0
   64.3199   32.2739   46.9118 H   0  0  0  0  0  0  0  0  0  0  0  0
   62.8575   33.3170   46.9118 H   0  0  0  0  0  0  0  0  0  0  0  0
   61.7589   31.3359   46.6300 H   0  0  0  0  0  0  0  0  0  0  0  0
   63.1286   30.3736   47.3050 H   0  0  0  0  0  0  0  0  0  0  0  0
   63.7299   31.4264   49.4950 H   0  0  0  0  0  0  0  0  0  0  0  0
   62.4199   32.3274   50.3559 H   0  0  0  0  0  0  0  0  0  0  0  0
   62.6352   30.6902   51.9176 H   0  0  0  0  0  0  0  0  0  0  0  0
   61.6452   29.7232   50.7724 H   0  0  0  0  0  0  0  0  0  0  0  0
   63.4341   29.5602   50.7724 H   0  0  0  0  0  0  0  0  0  0  0  0
   61.1135   29.3230   47.8838 H   0  0  0  0  0  0  0  0  0  0  0  0
   61.7029   29.2121   49.5907 H   0  0  0  0  0  0  0  0  0  0  0  0
   59.2646   28.9409   49.5211 H   0  0  0  0  0  0  0  0  0  0  0  0
   59.7147   30.4947   50.3371 H   0  0  0  0  0  0  0  0  0  0  0  0
   57.9700   31.1250   48.8160 H   0  0  0  0  0  0  0  0  0  0  0  0
   60.0293   28.2821   47.4425 H   0  0  0  0  0  0  0  0  0  0  0  0
   59.6353   26.3272   45.9393 H   0  0  0  0  0  0  0  0  0  0  0  0
   58.3185   26.6371   43.8458 H   0  0  0  0  0  0  0  0  0  0  0  0
   56.0149   31.3088   43.5408 H   0  0  0  0  0  0  0  0  0  0  0  0
   57.3969   32.0461   42.6614 H   0  0  0  0  0  0  0  0  0  0  0  0
   57.1809   30.2629   42.6614 H   0  0  0  0  0  0  0  0  0  0  0  0
   57.6475   33.5843   43.6003 H   0  0  0  0  0  0  0  0  0  0  0  0
   58.4594   35.6115   44.7510 H   0  0  0  0  0  0  0  0  0  0  0  0
   59.6830   35.4454   46.8869 H   0  0  0  0  0  0  0  0  0  0  0  0
   59.9390   32.2890   48.7570 H   0  0  0  0  0  0  0  0  0  0  0  0
   61.2510   33.1340   48.1230 H   0  0  0  0  0  0  0  0  0  0  0  0
   61.0187   34.6115   49.6454 H   0  0  0  0  0  0  0  0  0  0  0  0
   59.4048   35.0139   48.8688 H   0  0  0  0  0  0  0  0  0  0  0  0
   59.0720   34.6627   51.2202 H   0  0  0  0  0  0  0  0  0  0  0  0
   58.3681   33.2683   50.2443 H   0  0  0  0  0  0  0  0  0  0  0  0
   60.7609   32.2218   50.8599 H   0  0  0  0  0  0  0  0  0  0  0  0
   60.5283   33.2715   52.2961 H   0  0  0  0  0  0  0  0  0  0  0  0
   60.5806   30.5613   52.8582 H   0  0  0  0  0  0  0  0  0  0  0  0
   58.9987   28.8043   53.6491 H   0  0  0  0  0  0  0  0  0  0  0  0
   56.6963   27.9752   53.8352 H   0  0  0  0  0  0  0  0  0  0  0  0
   54.2541   28.2917   53.4230 H   0  0  0  0  0  0  0  0  0  0  0  0
   53.4291   30.3285   52.2459 H   0  0  0  0  0  0  0  0  0  0  0  0
   55.0449   32.0644   51.4520 H   0  0  0  0  0  0  0  0  0  0  0  0
   57.3575   32.8581   51.2385 H   0  0  0  0  0  0  0  0  0  0  0  0
  1  2  1  0
  2  3  1  0
  3  4  1  0
  4  5  1  0
  3  6  1  0
  6  7  1  0
  7  8  1  0
  8  9  1  0
  9 10  2  0
 10 11  1  0
 11 12  2  0
 12 13  1  0
 13 14  2  0
 14 15  1  0
 15 16  2  0
 16 17  1  0
 16 18  1  0
 18 19  2  0
 19 20  1  0
 20 21  2  0
 21 22  1  0
 22 23  1  0
 23 24  1  0
 24 25  1  0
 25 26  1  0
 26 27  1  0
 27 28  2  0
 28 29  1  0
 29 30  2  0
 30 31  1  0
 31 32  2  0
 32 33  1  0
 33 34  2  0
 34 35  1  0
 35 36  2  0
 22 37  2  0
 37  9  1  0
 15 10  1  0
 37 18  1  0
 36 27  1  0
 35 30  1  0
  1 38  1  0
  1 39  1  0
  1 40  1  0
  2 41  1  0
  2 42  1  0
  4 43  1  0
  4 44  1  0
  5 45  1  0
  5 46  1  0
  5 47  1  0
  6 48  1  0
  6 49  1  0
  7 50  1  0
  7 51  1  0
  8 52  1  0
 11 53  1  0
 12 54  1  0
 13 55  1  0
 17 56  1  0
 17 57  1  0
 17 58  1  0
 19 59  1  0
 20 60  1  0
 21 61  1  0
 23 62  1  0
 23 63  1  0
 24 64  1  0
 24 65  1  0
 25 66  1  0
 25 67  1  0
 26 68  1  0
 26 69  1  0
 28 70  1  0
 29 71  1  0
 31 72  1  0
 32 73  1  0
 33 74  1  0
 34 75  1  0
 36 76  1  0
M  CHG  3  16   1  23   1  27   1
M  END
>  <UniqueID>  (16) 
16

>  <SMILES>  (16) 
CCN(CC)CCNc1c2cccnc2[n+](C)c2cccc([NH2+]CCC[n+]3ccc4ccccc4c3)c12

>  <Energy>  (16) 
131.7282949318038

>  <Genealogy>  (16) 
CCN(CC)CCNc1c2cccnc2[n+](C)c2cccc([NH2+]CCC[n+]3ccc4ccccc4c3)c12 (protonated)
CCN(CC)CCNc1c2cccnc2[n+](C)c2cccc([NH2+]CCC[n+]3ccc4ccccc4c3)c12 (3D coordinates assigned)
CCN(CC)CCNc1c2cccnc2[n+](C)c2cccc([NH2+]CCC[n+]3ccc4ccccc4c3)c12 (optimized conformer: 131.7282949318038 kcal/mol)

>  <smiles>  (16) 
CCN(CC)CCNc1c2cccnc2[n+](C)c2cccc(NCCC[n+]3ccc4ccccc4c3)c12

>  <score_type>  (16) 
oracle

>  <origin>  (16) 
adg

>  <m_score__min__energy>  (16) 
-4.1699999999999999

>  <m_primary>  (16) 
energy

$$$$
16:0
     RDKit          3D

 37 39  0  0  0  0  0  0  0  0999 V2000
   57.4060   28.9690   43.7140 C   0  0  0  0  0  0  0  0  0  0  0  0
   57.6730   30.2270   44.4850 C   0  0  0  0  0  0  0  0  0  0  0  0
   57.0190   31.4180   44.1410 C   0  0  0  0  0  0  0  0  0  0  0  0
   57.2460   32.5820   44.8770 C   0  0  0  0  0  0  0  0  0  0  0  0
   58.1320   32.5750   45.9630 C   0  0  0  0  0  0  0  0  0  0  0  0
   58.7560   31.3700   46.3470 C   0  0  0  0  0  0  0  0  0  0  0  0
   58.5250   30.2050   45.5990 C   0  0  0  0  0  0  0  0  0  0  0  0
   59.7170   31.3100   47.5080 C   0  0  0  0  0  0  0  0  0  0  0  0
   59.8280   32.6240   48.3000 C   0  0  0  0  0  0  0  0  0  0  0  0
   59.6330   33.8300   47.4730 N   0  0  0  0  0  0  0  0  0  0  0  0
   60.8130   34.2990   46.7080 C   0  0  0  0  0  0  0  0  0  0  0  0
   62.1350   33.7520   47.1950 C   0  0  0  0  0  0  0  0  0  0  0  0
   62.9950   33.0920   46.3940 N   0  0  0  0  0  0  0  0  0  0  0  0
   64.0350   32.7700   47.1460 N   0  0  0  0  0  0  0  0  0  0  0  0
   63.8070   33.2150   48.3920 C   0  0  0  0  0  0  0  0  0  0  0  0
   62.6100   33.8220   48.4640 N   0  0  0  0  0  0  0  0  0  0  0  0
   62.0310   34.4360   49.6560 C   0  0  0  0  0  0  0  0  0  0  0  0
   58.3480   33.8380   46.7560 C   0  0  0  0  0  0  0  0  0  0  0  0
   57.2300   28.1397   44.4150 H   0  0  0  0  0  0  0  0  0  0  0  0
   56.5175   29.1087   43.0807 H   0  0  0  0  0  0  0  0  0  0  0  0
   58.2746   28.7357   43.0807 H   0  0  0  0  0  0  0  0  0  0  0  0
   56.3245   31.4354   43.2881 H   0  0  0  0  0  0  0  0  0  0  0  0
   56.7258   33.5116   44.6027 H   0  0  0  0  0  0  0  0  0  0  0  0
   59.0172   29.2651   45.8894 H   0  0  0  0  0  0  0  0  0  0  0  0
   59.3797   30.5200   48.1951 H   0  0  0  0  0  0  0  0  0  0  0  0
   60.7126   31.1092   47.0856 H   0  0  0  0  0  0  0  0  0  0  0  0
   59.0647   32.6183   49.0920 H   0  0  0  0  0  0  0  0  0  0  0  0
   60.8499   32.6717   48.7043 H   0  0  0  0  0  0  0  0  0  0  0  0
   60.6830   33.9984   45.6579 H   0  0  0  0  0  0  0  0  0  0  0  0
   60.8582   35.3899   46.8414 H   0  0  0  0  0  0  0  0  0  0  0  0
   64.8780   32.2560   46.8090 H   0  0  0  0  0  0  0  0  0  0  0  0
   64.5027   33.0990   49.2361 H   0  0  0  0  0  0  0  0  0  0  0  0
   62.4663   33.9743   50.5545 H   0  0  0  0  0  0  0  0  0  0  0  0
   62.2487   35.5142   49.6556 H   0  0  0  0  0  0  0  0  0  0  0  0
   60.9419   34.2819   49.6556 H   0  0  0  0  0  0  0  0  0  0  0  0
   57.5339   33.9401   47.4887 H   0  0  0  0  0  0  0  0  0  0  0  0
   58.3594   34.6822   46.0509 H   0  0  0  0  0  0  0  0  0  0  0  0
  1  2  1  0
  2  3  2  0
  3  4  1  0
  4  5  2  0
  5  6  1  0
  6  7  2  0
  6  8  1  0
  8  9  1  0
  9 10  1  0
 10 11  1  0
 11 12  1  0
 12 13  2  0
 13 14  1  0
 14 15  2  0
 15 16  1  0
 16 17  1  0
 10 18  1  0
  7  2  1  0
 16 12  1  0
 18  5  1  0
  1 19  1  0
  1 20  1  0
  1 21  1  0
  3 22  1  0
  4 23  1  0
  7 24  1  0
  8 25  1  0
  8 26  1  0
  9 27  1  0
  9 28  1  0
 11 29  1  0
 11 30  1  0
 14 31  1  0
 15 32  1  0
 17 33  1  0
 17 34  1  0
 17 35  1  0
 18 36  1  0
 18 37  1  0
M  CHG  1  14   1
M  END
>  <UniqueID>  (17) 
17

>  <SMILES>  (17) 
Cc1ccc2c(c1)CCN(Cc1n[nH+]cn1C)C2

>  <Energy>  (17) 
81.55683728126891

>  <Genealogy>  (17) 
Cc1ccc2c(c1)CCN(Cc1n[nH+]cn1C)C2 (protonated)
Cc1ccc2c(c1)CCN(Cc1n[nH+]cn1C)C2 (3D coordinates assigned)
Cc1ccc2c(c1)CCN(Cc1n[nH+]cn1C)C2 (nonaromatic ring conformer: 81.55683728126891 kcal/mol)

>  <smiles>  (17) 
Cc1ccc2c(c1)CCN(Cc1nncn1C)C2

>  <score_type>  (17) 
oracle

>  <origin>  (17) 
adg

>  <m_score__min__energy>  (17) 
-6.4500000000000002

>  <m_primary>  (17) 
energy

$$$$
17:0
     RDKit          3D

 68 70  0  0  0  0  0  0  0  0999 V2000
   58.5200   32.0300   49.7240 C   0  0  0  0  0  0  0  0  0  0  0  0
   59.2490   32.6610   50.9150 C   0  0  0  0  0  0  0  0  0  0  0  0
   60.5170   31.9790   51.2270 N   0  0  0  0  0  0  0  0  0  0  0  0
   60.7130   30.7640   50.4160 C   0  0  0  0  0  0  0  0  0  0  0  0
   62.1800   30.3150   50.4210 C   0  0  0  0  0  0  0  0  0  0  0  0
   62.9770   31.2570   51.1200 O   0  0  0  0  0  0  0  0  0  0  0  0
   64.3600   31.0630   50.8860 C   0  0  0  0  0  0  0  0  0  0  0  0
   65.1170   32.3980   50.8440 C   0  0  0  0  0  0  0  0  0  0  0  0
   65.1700   32.9750   49.4220 C   0  0  0  0  0  0  0  0  0  0  0  0
   63.7810   33.1650   48.8750 C   0  0  0  0  0  0  0  0  0  0  0  0
   63.3520   32.4290   47.7600 C   0  0  0  0  0  0  0  0  0  0  0  0
   62.0530   32.5920   47.2650 C   0  0  0  0  0  0  0  0  0  0  0  0
   61.1610   33.4840   47.8920 C   0  0  0  0  0  0  0  0  0  0  0  0
   59.8450   33.6860   47.4430 O   0  0  0  0  0  0  0  0  0  0  0  0
   59.2700   34.9450   47.0930 C   0  0  0  0  0  0  0  0  0  0  0  0
   59.6380   35.3600   45.6590 C   0  0  0  0  0  0  0  0  0  0  0  0
   59.1550   34.3700   44.5860 C   0  0  0  0  0  0  0  0  0  0  0  0
   57.7660   33.7890   44.8910 C   0  0  0  0  0  0  0  0  0  0  0  0
   57.8800   32.5720   45.6980 N   0  0  0  0  0  0  0  0  0  0  0  0
   57.7810   31.2390   45.1540 C   0  0  0  0  0  0  0  0  0  0  0  0
   56.8500   30.9660   44.1340 C   0  0  0  0  0  0  0  0  0  0  0  0
   56.7670   29.6970   43.5630 C   0  0  0  0  0  0  0  0  0  0  0  0
   57.6100   28.6750   43.9930 C   0  0  0  0  0  0  0  0  0  0  0  0
   58.5420   28.9110   45.0110 C   0  0  0  0  0  0  0  0  0  0  0  0
   59.3800   27.8720   45.4470 C   0  0  0  0  0  0  0  0  0  0  0  0
   60.2940   28.0900   46.4780 C   0  0  0  0  0  0  0  0  0  0  0  0
   60.3760   29.3430   47.0860 C   0  0  0  0  0  0  0  0  0  0  0  0
   59.5520   30.3890   46.6630 C   0  0  0  0  0  0  0  0  0  0  0  0
   58.6320   30.1980   45.6080 C   0  0  0  0  0  0  0  0  0  0  0  0
   61.5930   34.2090   49.0080 C   0  0  0  0  0  0  0  0  0  0  0  0
   62.8890   34.0470   49.5020 C   0  0  0  0  0  0  0  0  0  0  0  0
   57.7361   31.3515   50.0916 H   0  0  0  0  0  0  0  0  0  0  0  0
   58.0625   32.8219   49.1127 H   0  0  0  0  0  0  0  0  0  0  0  0
   59.2381   31.4637   49.1127 H   0  0  0  0  0  0  0  0  0  0  0  0
   59.4636   33.7139   50.6795 H   0  0  0  0  0  0  0  0  0  0  0  0
   58.5947   32.5680   51.7943 H   0  0  0  0  0  0  0  0  0  0  0  0
   61.3150   32.6420   51.0780 H   0  0  0  0  0  0  0  0  0  0  0  0
   60.4950   31.7120   52.2400 H   0  0  0  0  0  0  0  0  0  0  0  0
   60.0904   29.9556   50.8271 H   0  0  0  0  0  0  0  0  0  0  0  0
   60.4253   30.9913   49.3789 H   0  0  0  0  0  0  0  0  0  0  0  0
   62.2586   29.3350   50.9144 H   0  0  0  0  0  0  0  0  0  0  0  0
   62.5371   30.2420   49.3831 H   0  0  0  0  0  0  0  0  0  0  0  0
   64.7753   30.4420   51.6934 H   0  0  0  0  0  0  0  0  0  0  0  0
   64.4786   30.5685   49.9106 H   0  0  0  0  0  0  0  0  0  0  0  0
   64.6080   33.1175   51.5022 H   0  0  0  0  0  0  0  0  0  0  0  0
   66.1488   32.2184   51.1804 H   0  0  0  0  0  0  0  0  0  0  0  0
   65.6854   33.9465   49.4451 H   0  0  0  0  0  0  0  0  0  0  0  0
   65.7130   32.2713   48.7739 H   0  0  0  0  0  0  0  0  0  0  0  0
   64.0391   31.7213   47.2732 H   0  0  0  0  0  0  0  0  0  0  0  0
   61.7273   32.0213   46.3828 H   0  0  0  0  0  0  0  0  0  0  0  0
   58.1754   34.8714   47.1729 H   0  0  0  0  0  0  0  0  0  0  0  0
   59.6656   35.7057   47.7820 H   0  0  0  0  0  0  0  0  0  0  0  0
   59.1857   36.3417   45.4546 H   0  0  0  0  0  0  0  0  0  0  0  0
   60.7363   35.3842   45.6031 H   0  0  0  0  0  0  0  0  0  0  0  0
   59.1121   34.8933   43.6194 H   0  0  0  0  0  0  0  0  0  0  0  0
   59.8666   33.5314   44.5661 H   0  0  0  0  0  0  0  0  0  0  0  0
   57.1760   34.5349   45.4437 H   0  0  0  0  0  0  0  0  0  0  0  0
   57.2709   33.5386   43.9412 H   0  0  0  0  0  0  0  0  0  0  0  0
   58.0600   32.6950   46.7190 H   0  0  0  0  0  0  0  0  0  0  0  0
   56.1794   31.7642   43.7830 H   0  0  0  0  0  0  0  0  0  0  0  0
   56.0317   29.5017   42.7685 H   0  0  0  0  0  0  0  0  0  0  0  0
   57.5434   27.6789   43.5312 H   0  0  0  0  0  0  0  0  0  0  0  0
   59.3154   26.8814   44.9732 H   0  0  0  0  0  0  0  0  0  0  0  0
   60.9507   27.2732   46.8120 H   0  0  0  0  0  0  0  0  0  0  0  0
   61.0936   29.5084   47.9032 H   0  0  0  0  0  0  0  0  0  0  0  0
   59.6202   31.3701   47.1558 H   0  0  0  0  0  0  0  0  0  0  0  0
   60.9058   34.9127   49.5005 H   0  0  0  0  0  0  0  0  0  0  0  0
   63.2119   34.6141   50.3875 H   0  0  0  0  0  0  0  0  0  0  0  0
  1  2  1  0
  2  3  1  0
  3  4  1  0
  4  5  1  0
  5  6  1  0
  6  7  1  0
  7  8  1  0
  8  9  1  0
  9 10  1  0
 10 11  2  0
 11 12  1  0
 12 13  2  0
 13 14  1  0
 14 15  1  0
 15 16  1  0
 16 17  1  0
 17 18  1  0
 18 19  1  0
 19 20  1  0
 20 21  2  0
 21 22  1  0
 22 23  2  0
 23 24  1  0
 24 25  2  0
 25 26  1  0
 26 27  2  0
 27 28  1  0
 28 29  2  0
 13 30  1  0
 30 31  2  0
 31 10  1  0
 29 20  1  0
 29 24  1  0
  1 32  1  0
  1 33  1  0
  1 34  1  0
  2 35  1  0
  2 36  1  0
  3 37  1  0
  3 38  1  0
  4 39  1  0
  4 40  1  0
  5 41  1  0
  5 42  1  0
  7 43  1  0
  7 44  1  0
  8 45  1  0
  8 46  1  0
  9 47  1  0
  9 48  1  0
 11 49  1  0
 12 50  1  0
 15 51  1  0
 15 52  1  0
 16 53  1  0
 16 54  1  0
 17 55  1  0
 17 56  1  0
 18 57  1  0
 18 58  1  0
 19 59  1  0
 21 60  1  0
 22 61  1  0
 23 62  1  0
 25 63  1  0
 26 64  1  0
 27 65  1  0
 28 66  1  0
 30 67  1  0
 31 68  1  0
M  CHG  1   3   1
M  END
>  <UniqueID>  (18) 
18

>  <SMILES>  (18) 
CC[NH2+]CCOCCCc1ccc(OCCCCNc2cccc3ccccc23)cc1

>  <Energy>  (18) 
65.61163185298635

>  <Genealogy>  (18) 
CC[NH2+]CCOCCCc1ccc(OCCCCNc2cccc3ccccc23)cc1 (protonated)
CC[NH2+]CCOCCCc1ccc(OCCCCNc2cccc3ccccc23)cc1 (3D coordinates assigned)
CC[NH2+]CCOCCCc1ccc(OCCCCNc2cccc3ccccc23)cc1 (optimized conformer: 65.61163185298635 kcal/mol)

>  <smiles>  (18) 
CCNCCOCCCc1ccc(OCCCCNc2cccc3ccccc23)cc1

>  <score_type>  (18) 
oracle

>  <origin>  (18) 
adg

>  <m_score__min__energy>  (18) 
-6.8399999999999999

>  <m_primary>  (18) 
energy

$$$$
18:0
     RDKit          3D

 52 54  0  0  0  0  0  0  0  0999 V2000
   60.4620   33.4240   50.6570 C   0  0  0  0  0  0  0  0  0  0  0  0
   61.7230   33.4050   49.8370 C   0  0  0  0  0  0  0  0  0  0  0  0
   62.9220   32.9520   50.4180 C   0  0  0  0  0  0  0  0  0  0  0  0
   64.1090   32.9350   49.6780 C   0  0  0  0  0  0  0  0  0  0  0  0
   65.7350   32.3290   50.4860 Br  0  0  0  0  0  0  0  0  0  0  0  0
   64.1070   33.3600   48.3490 C   0  0  0  0  0  0  0  0  0  0  0  0
   62.9210   33.8020   47.7580 C   0  0  0  0  0  0  0  0  0  0  0  0
   61.7230   33.8370   48.4920 C   0  0  0  0  0  0  0  0  0  0  0  0
   60.5050   34.2760   47.8640 N   0  0  0  0  0  0  0  0  0  0  0  0
   60.2500   34.1210   46.4570 C   0  0  0  0  0  0  0  0  0  0  0  0
   61.1910   33.8030   45.6750 O   0  0  0  0  0  0  0  0  0  0  0  0
   58.8790   34.4280   45.8970 C   0  0  0  0  0  0  0  0  0  0  0  0
   57.7620   33.6740   46.6760 C   0  0  0  0  0  0  0  0  0  0  0  0
   56.6860   33.0950   45.7510 C   0  0  0  0  0  0  0  0  0  0  0  0
   57.3140   32.2340   44.7350 N   0  0  0  0  0  0  0  0  0  0  0  0
   56.7190   30.9620   44.3810 C   0  0  0  0  0  0  0  0  0  0  0  0
   55.5860   30.6500   44.8460 O   0  0  0  0  0  0  0  0  0  0  0  0
   57.4150   30.0160   43.4290 C   0  0  0  0  0  0  0  0  0  0  0  0
   58.0420   28.8060   44.1360 C   0  0  0  0  0  0  0  0  0  0  0  0
   58.6450   29.2190   45.4530 C   0  0  0  0  0  0  0  0  0  0  0  0
   59.7320   30.1080   45.4850 C   0  0  0  0  0  0  0  0  0  0  0  0
   60.3170   30.4620   46.7050 C   0  0  0  0  0  0  0  0  0  0  0  0
   59.8310   29.9190   47.8970 C   0  0  0  0  0  0  0  0  0  0  0  0
   58.7620   29.0220   47.8730 C   0  0  0  0  0  0  0  0  0  0  0  0
   58.1730   28.6660   46.6550 C   0  0  0  0  0  0  0  0  0  0  0  0
   58.5260   32.7050   44.0400 C   0  0  0  0  0  0  0  0  0  0  0  0
   58.8470   34.1680   44.3750 C   0  0  0  0  0  0  0  0  0  0  0  0
   60.7199   33.4201   51.7263 H   0  0  0  0  0  0  0  0  0  0  0  0
   59.8855   34.3309   50.4221 H   0  0  0  0  0  0  0  0  0  0  0  0
   59.8585   32.5348   50.4221 H   0  0  0  0  0  0  0  0  0  0  0  0
   62.9259   32.6083   51.4629 H   0  0  0  0  0  0  0  0  0  0  0  0
   65.0399   33.3470   47.7663 H   0  0  0  0  0  0  0  0  0  0  0  0
   62.9248   34.1261   46.7068 H   0  0  0  0  0  0  0  0  0  0  0  0
   59.8060   34.8010   48.4370 H   0  0  0  0  0  0  0  0  0  0  0  0
   58.6687   35.4981   46.0406 H   0  0  0  0  0  0  0  0  0  0  0  0
   58.2216   32.8496   47.2410 H   0  0  0  0  0  0  0  0  0  0  0  0
   57.2729   34.3997   47.3425 H   0  0  0  0  0  0  0  0  0  0  0  0
   55.9751   32.5012   46.3443 H   0  0  0  0  0  0  0  0  0  0  0  0
   56.1542   33.9183   45.2517 H   0  0  0  0  0  0  0  0  0  0  0  0
   56.6794   29.6516   42.6968 H   0  0  0  0  0  0  0  0  0  0  0  0
   58.2312   30.5751   42.9481 H   0  0  0  0  0  0  0  0  0  0  0  0
   57.2647   28.0486   44.3154 H   0  0  0  0  0  0  0  0  0  0  0  0
   58.8348   28.3913   43.4960 H   0  0  0  0  0  0  0  0  0  0  0  0
   60.1246   30.5274   44.5469 H   0  0  0  0  0  0  0  0  0  0  0  0
   61.1601   31.1682   46.7261 H   0  0  0  0  0  0  0  0  0  0  0  0
   60.2916   30.1989   48.8559 H   0  0  0  0  0  0  0  0  0  0  0  0
   58.3822   28.5945   48.8127 H   0  0  0  0  0  0  0  0  0  0  0  0
   57.3375   27.9507   46.6385 H   0  0  0  0  0  0  0  0  0  0  0  0
   59.3763   32.0762   44.3427 H   0  0  0  0  0  0  0  0  0  0  0  0
   58.3463   32.6352   42.9570 H   0  0  0  0  0  0  0  0  0  0  0  0
   59.8309   34.4199   43.9525 H   0  0  0  0  0  0  0  0  0  0  0  0
   58.0520   34.7940   43.9436 H   0  0  0  0  0  0  0  0  0  0  0  0
  1  2  1  0
  2  3  2  0
  3  4  1  0
  4  5  1  0
  4  6  2  0
  6  7  1  0
  7  8  2  0
  8  9  1  0
  9 10  1  0
 10 11  2  0
 10 12  1  0
 12 13  1  0
 13 14  1  0
 14 15  1  0
 15 16  1  0
 16 17  2  0
 16 18  1  0
 18 19  1  0
 19 20  1  0
 20 21  2  0
 21 22  1  0
 22 23  2  0
 23 24  1  0
 24 25  2  0
 15 26  1  0
 26 27  1  0
  8  2  1  0
 27 12  1  0
 25 20  1  0
  1 28  1  0
  1 29  1  0
  1 30  1  0
  3 31  1  0
  6 32  1  0
  7 33  1  0
  9 34  1  0
 12 35  1  0
 13 36  1  0
 13 37  1  0
 14 38  1  0
 14 39  1  0
 18 40  1  0
 18 41  1  0
 19 42  1  0
 19 43  1  0
 21 44  1  0
 22 45  1  0
 23 46  1  0
 24 47  1  0
 25 48  1  0
 26 49  1  0
 26 50  1  0
 27 51  1  0
 27 52  1  0
M  END
>  <UniqueID>  (19) 
19

>  <SMILES>  (19) 
Cc1cc(Br)ccc1NC(=O)C1CCN(C(=O)CCc2ccccc2)CC1

>  <Energy>  (19) 
57.650275015165604

>  <Genealogy>  (19) 
Cc1cc(Br)ccc1NC(=O)C1CCN(C(=O)CCc2ccccc2)CC1 (3D coordinates assigned)
Cc1cc(Br)ccc1NC(=O)C1CCN(C(=O)CCc2ccccc2)CC1 (nonaromatic ring conformer: 57.650275015165604 kcal/mol)

>  <smiles>  (19) 
Cc1cc(Br)ccc1NC(=O)C1CCN(C(=O)CCc2ccccc2)CC1

>  <score_type>  (19) 
oracle

>  <origin>  (19) 
adg

>  <m_score__min__energy>  (19) 
-8.9299999999999997

>  <m_primary>  (19) 
energy

$$$$
19:0
     RDKit          3D

 51 54  0  0  0  0  0  0  0  0999 V2000
   65.6340   32.6910   50.0600 C   0  0  0  0  0  0  0  0  0  0  0  0
   64.1770   32.3530   50.4080 C   0  0  0  0  0  0  0  0  0  0  0  0
   63.1990   32.7740   49.3780 N   0  0  0  0  0  0  0  0  0  0  0  0
   62.7300   34.1560   49.5940 C   0  0  0  0  0  0  0  0  0  0  0  0
   63.6930   32.5600   48.0000 C   0  0  0  0  0  0  0  0  0  0  0  0
   62.5880   31.9520   47.1220 C   0  0  0  0  0  0  0  0  0  0  0  0
   61.3570   31.6590   47.8800 N   0  0  0  0  0  0  0  0  0  0  0  0
   60.2120   31.4550   47.0070 C   0  0  0  0  0  0  0  0  0  0  0  0
   59.6830   30.1650   46.8580 C   0  0  0  0  0  0  0  0  0  0  0  0
   58.6320   29.9220   45.9970 C   0  0  0  0  0  0  0  0  0  0  0  0
   58.0770   30.8960   45.2120 N   0  0  0  0  0  0  0  0  0  0  0  0
   57.0800   30.5330   44.1890 C   0  0  0  0  0  0  0  0  0  0  0  0
   58.4780   32.2080   45.4070 C   0  0  0  0  0  0  0  0  0  0  0  0
   57.8090   33.2810   44.7680 C   0  0  0  0  0  0  0  0  0  0  0  0
   58.2390   34.5950   44.9270 C   0  0  0  0  0  0  0  0  0  0  0  0
   59.3310   34.8810   45.7330 C   0  0  0  0  0  0  0  0  0  0  0  0
   59.9920   33.8590   46.4110 C   0  0  0  0  0  0  0  0  0  0  0  0
   59.5780   32.5110   46.2840 C   0  0  0  0  0  0  0  0  0  0  0  0
   58.2750   28.5140   46.1290 C   0  0  0  0  0  0  0  0  0  0  0  0
   57.2320   27.8370   45.5810 N   0  0  0  0  0  0  0  0  0  0  0  0
   57.0360   26.5240   45.8950 C   0  0  0  0  0  0  0  0  0  0  0  0
   57.8930   25.8730   46.8030 C   0  0  0  0  0  0  0  0  0  0  0  0
   58.9480   26.5870   47.3940 C   0  0  0  0  0  0  0  0  0  0  0  0
   59.1180   27.9240   47.0400 C   0  0  0  0  0  0  0  0  0  0  0  0
   60.1030   28.9070   47.5830 C   0  0  0  0  0  0  0  0  0  0  0  0
   66.2108   32.8248   50.9870 H   0  0  0  0  0  0  0  0  0  0  0  0
   66.0704   31.8702   49.4719 H   0  0  0  0  0  0  0  0  0  0  0  0
   65.6645   33.6201   49.4719 H   0  0  0  0  0  0  0  0  0  0  0  0
   64.0959   31.2637   50.5374 H   0  0  0  0  0  0  0  0  0  0  0  0
   63.9318   32.9076   51.3257 H   0  0  0  0  0  0  0  0  0  0  0  0
   62.6622   34.3557   50.6736 H   0  0  0  0  0  0  0  0  0  0  0  0
   63.4395   34.8600   49.1347 H   0  0  0  0  0  0  0  0  0  0  0  0
   61.7385   34.2827   49.1347 H   0  0  0  0  0  0  0  0  0  0  0  0
   64.0052   33.5246   47.5732 H   0  0  0  0  0  0  0  0  0  0  0  0
   64.5459   31.8660   48.0309 H   0  0  0  0  0  0  0  0  0  0  0  0
   62.3458   32.6628   46.3182 H   0  0  0  0  0  0  0  0  0  0  0  0
   62.9669   31.0000   46.7218 H   0  0  0  0  0  0  0  0  0  0  0  0
   61.1880   32.3840   48.6090 H   0  0  0  0  0  0  0  0  0  0  0  0
   61.5220   30.7840   48.4290 H   0  0  0  0  0  0  0  0  0  0  0  0
   56.1556   30.1964   44.6811 H   0  0  0  0  0  0  0  0  0  0  0  0
   56.8629   31.4098   43.5612 H   0  0  0  0  0  0  0  0  0  0  0  0
   57.4774   29.7219   43.5612 H   0  0  0  0  0  0  0  0  0  0  0  0
   56.9341   33.0718   44.1349 H   0  0  0  0  0  0  0  0  0  0  0  0
   57.7106   35.4103   44.4112 H   0  0  0  0  0  0  0  0  0  0  0  0
   59.6769   35.9200   45.8374 H   0  0  0  0  0  0  0  0  0  0  0  0
   60.8494   34.1033   47.0554 H   0  0  0  0  0  0  0  0  0  0  0  0
   56.2035   25.9705   45.4361 H   0  0  0  0  0  0  0  0  0  0  0  0
   57.7371   24.8120   47.0478 H   0  0  0  0  0  0  0  0  0  0  0  0
   59.6219   26.1039   48.1168 H   0  0  0  0  0  0  0  0  0  0  0  0
   60.0052   29.0170   48.6731 H   0  0  0  0  0  0  0  0  0  0  0  0
   61.1556   28.6257   47.4314 H   0  0  0  0  0  0  0  0  0  0  0  0
  1  2  1  0
  2  3  1  0
  3  4  1  0
  3  5  1  0
  5  6  1  0
  6  7  1  0
  7  8  1  0
  8  9  2  0
  9 10  1  0
 10 11  2  0
 11 12  1  0
 11 13  1  0
 13 14  2  0
 14 15  1  0
 15 16  2  0
 16 17  1  0
 17 18  2  0
 10 19  1  0
 19 20  2  0
 20 21  1  0
 21 22  2  0
 22 23  1  0
 23 24  2  0
 24 25  1  0
 18  8  1  0
 24 19  1  0
 25  9  1  0
 18 13  1  0
  1 26  1  0
  1 27  1  0
  1 28  1  0
  2 29  1  0
  2 30  1  0
  4 31  1  0
  4 32  1  0
  4 33  1  0
  5 34  1  0
  5 35  1  0
  6 36  1  0
  6 37  1  0
  7 38  1  0
  7 39  1  0
 12 40  1  0
 12 41  1  0
 12 42  1  0
 14 43  1  0
 15 44  1  0
 16 45  1  0
 17 46  1  0
 21 47  1  0
 22 48  1  0
 23 49  1  0
 25 50  1  0
 25 51  1  0
M  CHG  2   7   1  11   1
M  END
>  <UniqueID>  (20) 
20

>  <SMILES>  (20) 
CCN(C)CC[NH2+]c1c2c([n+](C)c3ccccc13)-c1ncccc1C2

>  <Energy>  (20) 
96.84805766820605

>  <Genealogy>  (20) 
CCN(C)CC[NH2+]c1c2c([n+](C)c3ccccc13)-c1ncccc1C2 (protonated)
CCN(C)CC[NH2+]c1c2c([n+](C)c3ccccc13)-c1ncccc1C2 (3D coordinates assigned)
CCN(C)CC[NH2+]c1c2c([n+](C)c3ccccc13)-c1ncccc1C2 (nonaromatic ring conformer: 96.84805766820605 kcal/mol)

>  <smiles>  (20) 
CCN(C)CCNc1c2c([n+](C)c3ccccc13)-c1ncccc1C2

>  <score_type>  (20) 
oracle

>  <origin>  (20) 
adg

>  <m_score__min__energy>  (20) 
-4.4900000000000002

>  <m_primary>  (20) 
energy

$$$$
20:0
     RDKit          3D

 54 57  0  0  0  0  0  0  0  0999 V2000
   63.7140   32.2620   49.6400 C   0  0  0  0  0  0  0  0  0  0  0  0
   62.8650   33.1580   48.8380 N   0  0  0  0  0  0  0  0  0  0  0  0
   62.2750   34.2360   49.6480 C   0  0  0  0  0  0  0  0  0  0  0  0
   63.4750   33.5980   47.5580 C   0  0  0  0  0  0  0  0  0  0  0  0
   62.5050   33.8390   46.3690 C   0  0  0  0  0  0  0  0  0  0  0  0
   61.1040   33.4720   46.6270 N   0  0  0  0  0  0  0  0  0  0  0  0
   60.1470   34.1960   45.7780 C   0  0  0  0  0  0  0  0  0  0  0  0
   58.8970   34.5580   46.5840 C   0  0  0  0  0  0  0  0  0  0  0  0
   57.9050   33.4870   46.5150 N   0  0  0  0  0  0  0  0  0  0  0  0
   58.2950   32.1060   46.4950 C   0  0  0  0  0  0  0  0  0  0  0  0
   59.0710   31.5760   47.5200 C   0  0  0  0  0  0  0  0  0  0  0  0
   59.4920   30.2570   47.4930 C   0  0  0  0  0  0  0  0  0  0  0  0
   59.1930   29.4140   46.4530 N   0  0  0  0  0  0  0  0  0  0  0  0
   59.7760   28.0610   46.4160 C   0  0  0  0  0  0  0  0  0  0  0  0
   58.3330   29.8670   45.4630 C   0  0  0  0  0  0  0  0  0  0  0  0
   57.8530   29.0090   44.4430 C   0  0  0  0  0  0  0  0  0  0  0  0
   57.0270   29.4910   43.4270 C   0  0  0  0  0  0  0  0  0  0  0  0
   56.6450   30.8260   43.4050 C   0  0  0  0  0  0  0  0  0  0  0  0
   57.0630   31.6920   44.4130 C   0  0  0  0  0  0  0  0  0  0  0  0
   57.8890   31.2330   45.4580 C   0  0  0  0  0  0  0  0  0  0  0  0
   60.2130   29.9960   48.7530 C   0  0  0  0  0  0  0  0  0  0  0  0
   60.7310   28.8330   49.2260 N   0  0  0  0  0  0  0  0  0  0  0  0
   61.3120   28.8020   50.4620 C   0  0  0  0  0  0  0  0  0  0  0  0
   61.3570   29.9650   51.2590 C   0  0  0  0  0  0  0  0  0  0  0  0
   60.7940   31.1600   50.7820 C   0  0  0  0  0  0  0  0  0  0  0  0
   60.2240   31.1460   49.5130 C   0  0  0  0  0  0  0  0  0  0  0  0
   59.5080   32.1810   48.7830 C   0  0  0  0  0  0  0  0  0  0  0  0
   59.2510   33.3420   49.1980 O   0  0  0  0  0  0  0  0  0  0  0  0
   63.5368   32.4490   50.7094 H   0  0  0  0  0  0  0  0  0  0  0  0
   63.4678   31.2160   49.4049 H   0  0  0  0  0  0  0  0  0  0  0  0
   64.7718   32.4515   49.4049 H   0  0  0  0  0  0  0  0  0  0  0  0
   62.4020   34.0039   50.7157 H   0  0  0  0  0  0  0  0  0  0  0  0
   62.7789   35.1861   49.4168 H   0  0  0  0  0  0  0  0  0  0  0  0
   61.2031   34.3237   49.4168 H   0  0  0  0  0  0  0  0  0  0  0  0
   64.0080   34.5410   47.7496 H   0  0  0  0  0  0  0  0  0  0  0  0
   64.1174   32.7629   47.2420 H   0  0  0  0  0  0  0  0  0  0  0  0
   62.5364   34.9086   46.1141 H   0  0  0  0  0  0  0  0  0  0  0  0
   62.8493   33.1860   45.5534 H   0  0  0  0  0  0  0  0  0  0  0  0
   60.8670   33.5920   47.6350 H   0  0  0  0  0  0  0  0  0  0  0  0
   60.6175   35.1170   45.4033 H   0  0  0  0  0  0  0  0  0  0  0  0
   59.8571   33.5532   44.9337 H   0  0  0  0  0  0  0  0  0  0  0  0
   59.1800   34.7199   47.6346 H   0  0  0  0  0  0  0  0  0  0  0  0
   58.4574   35.4727   46.1597 H   0  0  0  0  0  0  0  0  0  0  0  0
   56.9290   33.7390   46.2340 H   0  0  0  0  0  0  0  0  0  0  0  0
   59.9314   27.7005   47.4436 H   0  0  0  0  0  0  0  0  0  0  0  0
   59.0911   27.3809   45.8884 H   0  0  0  0  0  0  0  0  0  0  0  0
   60.7407   28.0917   45.8884 H   0  0  0  0  0  0  0  0  0  0  0  0
   58.1359   27.9461   44.4521 H   0  0  0  0  0  0  0  0  0  0  0  0
   56.6761   28.8092   42.6383 H   0  0  0  0  0  0  0  0  0  0  0  0
   56.0101   31.2010   42.5887 H   0  0  0  0  0  0  0  0  0  0  0  0
   56.7449   32.7448   44.3928 H   0  0  0  0  0  0  0  0  0  0  0  0
   61.7474   27.8644   50.8380 H   0  0  0  0  0  0  0  0  0  0  0  0
   61.8315   29.9361   52.2510 H   0  0  0  0  0  0  0  0  0  0  0  0
   60.8034   32.0759   51.3911 H   0  0  0  0  0  0  0  0  0  0  0  0
  1  2  1  0
  2  3  1  0
  2  4  1  0
  4  5  1  0
  5  6  1  0
  6  7  1  0
  7  8  1  0
  8  9  1  0
  9 10  1  0
 10 11  2  0
 11 12  1  0
 12 13  2  0
 13 14  1  0
 13 15  1  0
 15 16  2  0
 16 17  1  0
 17 18  2  0
 18 19  1  0
 19 20  2  0
 12 21  1  0
 21 22  2  0
 22 23  1  0
 23 24  2  0
 24 25  1  0
 25 26  2  0
 26 27  1  0
 27 28  2  0
 20 10  1  0
 26 21  1  0
 27 11  1  0
 20 15  1  0
  1 29  1  0
  1 30  1  0
  1 31  1  0
  3 32  1  0
  3 33  1  0
  3 34  1  0
  4 35  1  0
  4 36  1  0
  5 37  1  0
  5 38  1  0
  6 39  1  0
  7 40  1  0
  7 41  1  0
  8 42  1  0
  8 43  1  0
  9 44  1  0
 14 45  1  0
 14 46  1  0
 14 47  1  0
 16 48  1  0
 17 49  1  0
 18 50  1  0
 19 51  1  0
 23 52  1  0
 24 53  1  0
 25 54  1  0
M  CHG  1  13   1
M  END
>  <UniqueID>  (21) 
21

>  <SMILES>  (21) 
CN(C)CCNCCNc1c2c([n+](C)c3ccccc13)-c1ncccc1C2=O

>  <Energy>  (21) 
114.0148135025274

>  <Genealogy>  (21) 
CN(C)CCNCCNc1c2c([n+](C)c3ccccc13)-c1ncccc1C2=O (3D coordinates assigned)
CN(C)CCNCCNc1c2c([n+](C)c3ccccc13)-c1ncccc1C2=O (nonaromatic ring conformer: 114.0148135025274 kcal/mol)

>  <smiles>  (21) 
CN(C)CCNCCNc1c2c([n+](C)c3ccccc13)-c1ncccc1C2=O

>  <score_type>  (21) 
oracle

>  <origin>  (21) 
adg

>  <m_score__min__energy>  (21) 
-5.1799999999999997

>  <m_primary>  (21) 
energy

$$$$
21:0
     RDKit          3D

 46 48  0  0  0  0  0  0  0  0999 V2000
   56.5040   29.7820   42.9790 C   0  0  0  0  0  0  0  0  0  0  0  0
   55.8690   29.9280   44.3520 C   0  0  0  0  0  0  0  0  0  0  0  0
   55.6870   28.6360   44.9260 O   0  0  0  0  0  0  0  0  0  0  0  0
   56.6860   27.8880   45.5660 C   0  0  0  0  0  0  0  0  0  0  0  0
   57.9930   28.3990   45.7020 C   0  0  0  0  0  0  0  0  0  0  0  0
   58.9910   27.6600   46.3490 C   0  0  0  0  0  0  0  0  0  0  0  0
   60.3970   28.1930   46.4550 C   0  0  0  0  0  0  0  0  0  0  0  0
   60.4620   29.2770   47.4380 N   0  0  0  0  0  0  0  0  0  0  0  0
   60.3850   30.6780   47.1090 C   0  0  0  0  0  0  0  0  0  0  0  0
   61.4170   31.5350   47.5230 C   0  0  0  0  0  0  0  0  0  0  0  0
   61.3860   32.8960   47.2060 C   0  0  0  0  0  0  0  0  0  0  0  0
   60.3190   33.4200   46.4700 C   0  0  0  0  0  0  0  0  0  0  0  0
   60.2910   34.7440   46.1540 N   0  0  0  0  0  0  0  0  0  0  0  0
   59.2680   35.2850   45.4410 C   0  0  0  0  0  0  0  0  0  0  0  0
   58.2080   34.4820   45.0110 C   0  0  0  0  0  0  0  0  0  0  0  0
   58.2090   33.1200   45.3210 C   0  0  0  0  0  0  0  0  0  0  0  0
   59.2690   32.5730   46.0570 C   0  0  0  0  0  0  0  0  0  0  0  0
   59.3010   31.2100   46.3830 C   0  0  0  0  0  0  0  0  0  0  0  0
   58.6760   26.4110   46.8940 C   0  0  0  0  0  0  0  0  0  0  0  0
   57.3860   25.8930   46.7730 C   0  0  0  0  0  0  0  0  0  0  0  0
   57.0150   24.1690   47.5220 Br  0  0  0  0  0  0  0  0  0  0  0  0
   56.3840   26.6070   46.0970 C   0  0  0  0  0  0  0  0  0  0  0  0
   55.1180   25.9960   46.0000 O   0  0  0  0  0  0  0  0  0  0  0  0
   54.7630   24.8340   45.2490 C   0  0  0  0  0  0  0  0  0  0  0  0
   53.2900   24.4860   45.4370 C   0  0  0  0  0  0  0  0  0  0  0  0
   57.5703   29.5368   43.0924 H   0  0  0  0  0  0  0  0  0  0  0  0
   55.9994   28.9764   42.4254 H   0  0  0  0  0  0  0  0  0  0  0  0
   56.4019   30.7271   42.4254 H   0  0  0  0  0  0  0  0  0  0  0  0
   56.5257   30.5283   44.9988 H   0  0  0  0  0  0  0  0  0  0  0  0
   54.8947   30.4295   44.2562 H   0  0  0  0  0  0  0  0  0  0  0  0
   58.2321   29.3922   45.2941 H   0  0  0  0  0  0  0  0  0  0  0  0
   61.0696   27.3805   46.7672 H   0  0  0  0  0  0  0  0  0  0  0  0
   60.7042   28.5837   45.4737 H   0  0  0  0  0  0  0  0  0  0  0  0
   60.6620   29.0090   48.4290 H   0  0  0  0  0  0  0  0  0  0  0  0
   62.2595   31.1309   48.1034 H   0  0  0  0  0  0  0  0  0  0  0  0
   62.2021   33.5556   47.5360 H   0  0  0  0  0  0  0  0  0  0  0  0
   59.2744   36.3586   45.2016 H   0  0  0  0  0  0  0  0  0  0  0  0
   57.3800   34.9188   44.4334 H   0  0  0  0  0  0  0  0  0  0  0  0
   57.3799   32.4783   44.9883 H   0  0  0  0  0  0  0  0  0  0  0  0
   58.4761   30.5528   46.0706 H   0  0  0  0  0  0  0  0  0  0  0  0
   59.4498   25.8336   47.4211 H   0  0  0  0  0  0  0  0  0  0  0  0
   54.9538   25.0237   44.1824 H   0  0  0  0  0  0  0  0  0  0  0  0
   55.3695   23.9888   45.6065 H   0  0  0  0  0  0  0  0  0  0  0  0
   53.0603   24.4317   46.5114 H   0  0  0  0  0  0  0  0  0  0  0  0
   52.6672   25.2617   44.9676 H   0  0  0  0  0  0  0  0  0  0  0  0
   53.0802   23.5136   44.9676 H   0  0  0  0  0  0  0  0  0  0  0  0
  1  2  1  0
  2  3  1  0
  3  4  1  0
  4  5  2  0
  5  6  1  0
  6  7  1  0
  7  8  1  0
  8  9  1  0
  9 10  2  0
 10 11  1  0
 11 12  2  0
 12 13  1  0
 13 14  2  0
 14 15  1  0
 15 16  2  0
 16 17  1  0
 17 18  2  0
  6 19  2  0
 19 20  1  0
 20 21  1  0
 20 22  2  0
 22 23  1  0
 23 24  1  0
 24 25  1  0
 22  4  1  0
 18  9  1  0
 17 12  1  0
  1 26  1  0
  1 27  1  0
  1 28  1  0
  2 29  1  0
  2 30  1  0
  5 31  1  0
  7 32  1  0
  7 33  1  0
  8 34  1  0
 10 35  1  0
 11 36  1  0
 14 37  1  0
 15 38  1  0
 16 39  1  0
 18 40  1  0
 19 41  1  0
 24 42  1  0
 24 43  1  0
 25 44  1  0
 25 45  1  0
 25 46  1  0
M  END
>  <UniqueID>  (22) 
22

>  <SMILES>  (22) 
CCOc1cc(CNc2ccc3ncccc3c2)cc(Br)c1OCC

>  <Energy>  (22) 
47.80456819929317

>  <Genealogy>  (22) 
CCOc1cc(CNc2ccc3ncccc3c2)cc(Br)c1OCC (3D coordinates assigned)
CCOc1cc(CNc2ccc3ncccc3c2)cc(Br)c1OCC (optimized conformer: 47.80456819929317 kcal/mol)

>  <smiles>  (22) 
CCOc1cc(CNc2ccc3ncccc3c2)cc(Br)c1OCC

>  <score_type>  (22) 
oracle

>  <origin>  (22) 
adg

>  <m_score__min__energy>  (22) 
-8.2200000000000006

>  <m_primary>  (22) 
energy

$$$$
22:0
     RDKit          3D

 38 39  0  0  0  0  0  0  0  0999 V2000
   58.3060   28.4710   45.0650 C   0  0  0  0  0  0  0  0  0  0  0  0
   56.7920   28.4840   45.2500 C   0  0  0  0  0  0  0  0  0  0  0  0
   56.2630   29.7860   45.0030 O   0  0  0  0  0  0  0  0  0  0  0  0
   56.8640   30.7780   44.2110 C   0  0  0  0  0  0  0  0  0  0  0  0
   56.8140   30.6300   42.8210 C   0  0  0  0  0  0  0  0  0  0  0  0
   57.3940   31.5840   41.9850 C   0  0  0  0  0  0  0  0  0  0  0  0
   58.0320   32.7000   42.5280 C   0  0  0  0  0  0  0  0  0  0  0  0
   58.0970   32.8730   43.9230 C   0  0  0  0  0  0  0  0  0  0  0  0
   58.7470   34.0120   44.5200 N   0  0  0  0  0  0  0  0  0  0  0  0
   58.4100   34.5650   45.8320 C   0  0  0  0  0  0  0  0  0  0  0  0
   59.4510   34.1900   46.8430 C   0  0  0  0  0  0  0  0  0  0  0  0
   59.2260   34.3920   48.0680 O   0  0  0  0  0  0  0  0  0  0  0  0
   60.6730   33.5680   46.4160 N   0  0  0  0  0  0  0  0  0  0  0  0
   61.7830   33.2860   47.2850 C   0  0  0  0  0  0  0  0  0  0  0  0
   63.0770   33.7610   47.0020 C   0  0  0  0  0  0  0  0  0  0  0  0
   64.1420   33.4530   47.8530 C   0  0  0  0  0  0  0  0  0  0  0  0
   63.9310   32.6600   48.9850 C   0  0  0  0  0  0  0  0  0  0  0  0
   65.2710   32.2740   50.0500 Cl  0  0  0  0  0  0  0  0  0  0  0  0
   62.6520   32.1660   49.2610 C   0  0  0  0  0  0  0  0  0  0  0  0
   61.5860   32.4710   48.4110 C   0  0  0  0  0  0  0  0  0  0  0  0
   57.5160   31.9020   44.7570 C   0  0  0  0  0  0  0  0  0  0  0  0
   58.7957   28.4668   46.0500 H   0  0  0  0  0  0  0  0  0  0  0  0
   58.5993   27.5703   44.5058 H   0  0  0  0  0  0  0  0  0  0  0  0
   58.6148   29.3665   44.5058 H   0  0  0  0  0  0  0  0  0  0  0  0
   56.3366   27.7704   44.5476 H   0  0  0  0  0  0  0  0  0  0  0  0
   56.5609   28.2002   46.2873 H   0  0  0  0  0  0  0  0  0  0  0  0
   56.3130   29.7538   42.3835 H   0  0  0  0  0  0  0  0  0  0  0  0
   57.3483   31.4562   40.8934 H   0  0  0  0  0  0  0  0  0  0  0  0
   58.4865   33.4484   41.8621 H   0  0  0  0  0  0  0  0  0  0  0  0
   59.5440   34.4560   44.0100 H   0  0  0  0  0  0  0  0  0  0  0  0
   58.3543   35.6612   45.7593 H   0  0  0  0  0  0  0  0  0  0  0  0
   57.4401   34.1563   46.1518 H   0  0  0  0  0  0  0  0  0  0  0  0
   60.7190   33.2090   45.4350 H   0  0  0  0  0  0  0  0  0  0  0  0
   63.2510   34.3771   46.1075 H   0  0  0  0  0  0  0  0  0  0  0  0
   65.1492   33.8356   47.6315 H   0  0  0  0  0  0  0  0  0  0  0  0
   62.4853   31.5370   50.1478 H   0  0  0  0  0  0  0  0  0  0  0  0
   60.5846   32.0695   48.6257 H   0  0  0  0  0  0  0  0  0  0  0  0
   57.5709   32.0208   45.8492 H   0  0  0  0  0  0  0  0  0  0  0  0
  1  2  1  0
  2  3  1  0
  3  4  1  0
  4  5  2  0
  5  6  1  0
  6  7  2  0
  7  8  1  0
  8  9  1  0
  9 10  1  0
 10 11  1  0
 11 12  2  0
 11 13  1  0
 13 14  1  0
 14 15  2  0
 15 16  1  0
 16 17  2  0
 17 18  1  0
 17 19  1  0
 19 20  2  0
  8 21  2  0
 21  4  1  0
 20 14  1  0
  1 22  1  0
  1 23  1  0
  1 24  1  0
  2 25  1  0
  2 26  1  0
  5 27  1  0
  6 28  1  0
  7 29  1  0
  9 30  1  0
 10 31  1  0
 10 32  1  0
 13 33  1  0
 15 34  1  0
 16 35  1  0
 19 36  1  0
 20 37  1  0
 21 38  1  0
M  END
>  <UniqueID>  (23) 
23

>  <SMILES>  (23) 
CCOc1cccc(NCC(=O)Nc2ccc(Cl)cc2)c1

>  <Energy>  (23) 
37.839721915345606

>  <Genealogy>  (23) 
CCOc1cccc(NCC(=O)Nc2ccc(Cl)cc2)c1 (3D coordinates assigned)
CCOc1cccc(NCC(=O)Nc2ccc(Cl)cc2)c1 (optimized conformer: 37.839721915345606 kcal/mol)

>  <smiles>  (23) 
CCOc1cccc(NCC(=O)Nc2ccc(Cl)cc2)c1

>  <score_type>  (23) 
oracle

>  <origin>  (23) 
adg

>  <m_score__min__energy>  (23) 
-7.1299999999999999

>  <m_primary>  (23) 
energy

$$$$
23:0
     RDKit          3D

 68 70  0  0  0  0  0  0  0  0999 V2000
   56.7910   24.9030   45.1380 C   0  0  0  0  0  0  0  0  0  0  0  0
   55.4560   25.3000   45.7580 C   0  0  0  0  0  0  0  0  0  0  0  0
   55.4110   26.6990   45.9740 O   0  0  0  0  0  0  0  0  0  0  0  0
   56.7120   27.2610   45.9910 C   0  0  0  0  0  0  0  0  0  0  0  0
   56.8230   28.3700   44.9470 C   0  0  0  0  0  0  0  0  0  0  0  0
   55.7240   29.2450   45.0810 O   0  0  0  0  0  0  0  0  0  0  0  0
   55.8320   30.2870   44.1360 C   0  0  0  0  0  0  0  0  0  0  0  0
   57.3060   30.5360   43.8210 C   0  0  0  0  0  0  0  0  0  0  0  0
   57.8860   31.4350   44.7680 O   0  0  0  0  0  0  0  0  0  0  0  0
   58.5130   31.0790   45.9770 C   0  0  0  0  0  0  0  0  0  0  0  0
   59.3860   29.9800   46.0530 C   0  0  0  0  0  0  0  0  0  0  0  0
   60.0240   29.6600   47.2450 C   0  0  0  0  0  0  0  0  0  0  0  0
   59.8130   30.4270   48.3920 C   0  0  0  0  0  0  0  0  0  0  0  0
   60.4880   30.1020   49.5800 C   0  0  0  0  0  0  0  0  0  0  0  0
   60.2990   30.8670   50.7290 C   0  0  0  0  0  0  0  0  0  0  0  0
   59.4350   31.9590   50.7060 C   0  0  0  0  0  0  0  0  0  0  0  0
   58.7520   32.2950   49.5340 C   0  0  0  0  0  0  0  0  0  0  0  0
   58.9290   31.5400   48.3520 C   0  0  0  0  0  0  0  0  0  0  0  0
   58.2690   31.8640   47.1310 C   0  0  0  0  0  0  0  0  0  0  0  0
   57.3760   33.0900   47.0060 C   0  0  0  0  0  0  0  0  0  0  0  0
   58.0790   34.2410   46.2720 C   0  0  0  0  0  0  0  0  0  0  0  0
   59.4510   34.4230   46.7790 N   0  0  0  0  0  0  0  0  0  0  0  0
   60.4780   34.1600   45.7560 C   0  0  0  0  0  0  0  0  0  0  0  0
   61.8590   33.8570   46.3710 C   0  0  0  0  0  0  0  0  0  0  0  0
   61.7320   33.2380   47.7100 N   0  0  0  0  0  0  0  0  0  0  0  0
   61.8090   34.2550   48.7940 C   0  0  0  0  0  0  0  0  0  0  0  0
   62.2480   33.6490   50.1330 C   0  0  0  0  0  0  0  0  0  0  0  0
   63.6520   33.0340   50.0270 C   0  0  0  0  0  0  0  0  0  0  0  0
   63.9680   32.5220   48.6110 C   0  0  0  0  0  0  0  0  0  0  0  0
   62.6860   32.1080   47.8770 C   0  0  0  0  0  0  0  0  0  0  0  0
   57.5163   24.6873   45.9363 H   0  0  0  0  0  0  0  0  0  0  0  0
   56.6539   24.0067   44.5152 H   0  0  0  0  0  0  0  0  0  0  0  0
   57.1660   25.7285   44.5152 H   0  0  0  0  0  0  0  0  0  0  0  0
   54.6403   25.0113   45.0788 H   0  0  0  0  0  0  0  0  0  0  0  0
   55.3426   24.7851   46.7234 H   0  0  0  0  0  0  0  0  0  0  0  0
   56.9137   27.6795   46.9881 H   0  0  0  0  0  0  0  0  0  0  0  0
   57.4449   26.4747   45.7576 H   0  0  0  0  0  0  0  0  0  0  0  0
   57.7584   28.9279   45.1009 H   0  0  0  0  0  0  0  0  0  0  0  0
   56.8242   27.9298   43.9389 H   0  0  0  0  0  0  0  0  0  0  0  0
   55.3027   30.0029   43.2145 H   0  0  0  0  0  0  0  0  0  0  0  0
   55.3844   31.2037   44.5473 H   0  0  0  0  0  0  0  0  0  0  0  0
   57.8478   29.5793   43.8543 H   0  0  0  0  0  0  0  0  0  0  0  0
   57.3799   30.9853   42.8197 H   0  0  0  0  0  0  0  0  0  0  0  0
   59.5662   29.3661   45.1582 H   0  0  0  0  0  0  0  0  0  0  0  0
   60.7015   28.7944   47.2852 H   0  0  0  0  0  0  0  0  0  0  0  0
   61.1695   29.2389   49.6034 H   0  0  0  0  0  0  0  0  0  0  0  0
   60.8328   30.6082   51.6553 H   0  0  0  0  0  0  0  0  0  0  0  0
   59.2894   32.5604   51.6154 H   0  0  0  0  0  0  0  0  0  0  0  0
   58.0687   33.1570   49.5312 H   0  0  0  0  0  0  0  0  0  0  0  0
   56.4695   32.8137   46.4475 H   0  0  0  0  0  0  0  0  0  0  0  0
   57.1284   33.4350   48.0207 H   0  0  0  0  0  0  0  0  0  0  0  0
   58.1190   34.0123   45.1968 H   0  0  0  0  0  0  0  0  0  0  0  0
   57.5128   35.1681   46.4448 H   0  0  0  0  0  0  0  0  0  0  0  0
   59.6090   33.7950   47.6020 H   0  0  0  0  0  0  0  0  0  0  0  0
   60.1626   33.2954   45.1535 H   0  0  0  0  0  0  0  0  0  0  0  0
   60.5773   35.0665   45.1409 H   0  0  0  0  0  0  0  0  0  0  0  0
   62.4020   33.1671   45.7082 H   0  0  0  0  0  0  0  0  0  0  0  0
   62.4045   34.8060   46.4795 H   0  0  0  0  0  0  0  0  0  0  0  0
   62.5340   35.0289   48.5017 H   0  0  0  0  0  0  0  0  0  0  0  0
   60.8025   34.6772   48.9304 H   0  0  0  0  0  0  0  0  0  0  0  0
   62.2584   34.4387   50.8987 H   0  0  0  0  0  0  0  0  0  0  0  0
   61.5380   32.8547   50.4070 H   0  0  0  0  0  0  0  0  0  0  0  0
   64.3935   33.7998   50.2984 H   0  0  0  0  0  0  0  0  0  0  0  0
   63.6907   32.1721   50.7094 H   0  0  0  0  0  0  0  0  0  0  0  0
   64.4659   33.3212   48.0423 H   0  0  0  0  0  0  0  0  0  0  0  0
   64.6234   31.6425   48.6946 H   0  0  0  0  0  0  0  0  0  0  0  0
   62.9575   31.7261   46.8818 H   0  0  0  0  0  0  0  0  0  0  0  0
   62.1878   31.3383   48.4848 H   0  0  0  0  0  0  0  0  0  0  0  0
  1  2  1  0
  2  3  1  0
  3  4  1  0
  4  5  1  0
  5  6  1  0
  6  7  1  0
  7  8  1  0
  8  9  1  0
  9 10  1  0
 10 11  2  0
 11 12  1  0
 12 13  2  0
 13 14  1  0
 14 15  2  0
 15 16  1  0
 16 17  2  0
 17 18  1  0
 18 19  2  0
 19 20  1  0
 20 21  1  0
 21 22  1  0
 22 23  1  0
 23 24  1  0
 24 25  1  0
 25 26  1  0
 26 27  1  0
 27 28  1  0
 28 29  1  0
 29 30  1  0
 19 10  1  0
 30 25  1  0
 18 13  1  0
  1 31  1  0
  1 32  1  0
  1 33  1  0
  2 34  1  0
  2 35  1  0
  4 36  1  0
  4 37  1  0
  5 38  1  0
  5 39  1  0
  7 40  1  0
  7 41  1  0
  8 42  1  0
  8 43  1  0
 11 44  1  0
 12 45  1  0
 14 46  1  0
 15 47  1  0
 16 48  1  0
 17 49  1  0
 20 50  1  0
 20 51  1  0
 21 52  1  0
 21 53  1  0
 22 54  1  0
 23 55  1  0
 23 56  1  0
 24 57  1  0
 24 58  1  0
 26 59  1  0
 26 60  1  0
 27 61  1  0
 27 62  1  0
 28 63  1  0
 28 64  1  0
 29 65  1  0
 29 66  1  0
 30 67  1  0
 30 68  1  0
M  END
>  <UniqueID>  (24) 
24

>  <SMILES>  (24) 
CCOCCOCCOc1ccc2ccccc2c1CCNCCN1CCCCC1

>  <Energy>  (24) 
77.01279514927187

>  <Genealogy>  (24) 
CCOCCOCCOc1ccc2ccccc2c1CCNCCN1CCCCC1 (3D coordinates assigned)
CCOCCOCCOc1ccc2ccccc2c1CCNCCN1CCCCC1 (nonaromatic ring conformer: 77.01279514927187 kcal/mol)

>  <smiles>  (24) 
CCOCCOCCOc1ccc2ccccc2c1CCNCCN1CCCCC1

>  <score_type>  (24) 
oracle

>  <origin>  (24) 
adg

>  <m_score__min__energy>  (24) 
-8.1300000000000008

>  <m_primary>  (24) 
energy

$$$$
