0:0
     RDKit          3D

 58 60  0  0  0  0  0  0  0  0999 V2000
   51.1160   22.0880   45.9790 C   0  0  0  0  0  0  0  0  0  0  0  0
   51.5250   23.3380   45.2100 C   0  0  0  0  0  0  0  0  0  0  0  0
   52.9780   23.5310   45.3080 N   0  0  0  0  0  0  0  0  0  0  0  0
   53.6310   22.4600   46.0770 C   0  0  0  0  0  0  0  0  0  0  0  0
   54.3570   22.9920   47.3280 C   0  0  0  0  0  0  0  0  0  0  0  0
   55.4990   23.9730   46.9890 C   0  0  0  0  0  0  0  0  0  0  0  0
   55.1380   24.9980   45.9960 N   0  0  0  0  0  0  0  0  0  0  0  0
   56.2230   25.9550   45.7440 C   0  0  0  0  0  0  0  0  0  0  0  0
   57.2150   25.3590   44.7340 C   0  0  0  0  0  0  0  0  0  0  0  0
   57.7430   26.3710   43.8050 N   0  0  0  0  0  0  0  0  0  0  0  0
   58.2520   27.5270   44.5060 C   0  0  0  0  0  0  0  0  0  0  0  0
   59.4520   27.4470   45.2360 C   0  0  0  0  0  0  0  0  0  0  0  0
   59.9330   28.5570   45.9340 C   0  0  0  0  0  0  0  0  0  0  0  0
   59.2200   29.7710   45.9120 C   0  0  0  0  0  0  0  0  0  0  0  0
   59.6620   30.9150   46.6000 C   0  0  0  0  0  0  0  0  0  0  0  0
   60.7240   30.8600   47.2810 O   0  0  0  0  0  0  0  0  0  0  0  0
   58.9390   32.0830   46.5340 N   0  0  0  0  0  0  0  0  0  0  0  0
   57.7610   32.1190   45.8240 C   0  0  0  0  0  0  0  0  0  0  0  0
   57.3250   31.0140   45.1650 N   0  0  0  0  0  0  0  0  0  0  0  0
   58.0220   29.8530   45.1830 C   0  0  0  0  0  0  0  0  0  0  0  0
   57.5400   28.7390   44.4870 C   0  0  0  0  0  0  0  0  0  0  0  0
   56.9020   33.3630   45.7830 C   0  0  0  0  0  0  0  0  0  0  0  0
   57.5960   34.6020   45.1670 C   0  0  0  0  0  0  0  0  0  0  0  0
   59.1210   34.4950   44.9760 C   0  0  0  0  0  0  0  0  0  0  0  0
   59.9110   34.3720   46.2900 C   0  0  0  0  0  0  0  0  0  0  0  0
   59.3940   33.2900   47.2540 C   0  0  0  0  0  0  0  0  0  0  0  0
   51.1804   22.2847   47.0594 H   0  0  0  0  0  0  0  0  0  0  0  0
   50.0826   21.8177   45.7164 H   0  0  0  0  0  0  0  0  0  0  0  0
   51.7898   21.2591   45.7164 H   0  0  0  0  0  0  0  0  0  0  0  0
   51.2424   23.2250   44.1530 H   0  0  0  0  0  0  0  0  0  0  0  0
   51.0133   24.2118   45.6398 H   0  0  0  0  0  0  0  0  0  0  0  0
   53.1720   24.4550   45.7630 H   0  0  0  0  0  0  0  0  0  0  0  0
   52.8658   21.7361   46.3940 H   0  0  0  0  0  0  0  0  0  0  0  0
   54.3844   21.9921   45.4263 H   0  0  0  0  0  0  0  0  0  0  0  0
   53.6252   23.5118   47.9638 H   0  0  0  0  0  0  0  0  0  0  0  0
   54.8055   22.1285   47.8411 H   0  0  0  0  0  0  0  0  0  0  0  0
   55.8032   24.4820   47.9155 H   0  0  0  0  0  0  0  0  0  0  0  0
   56.3091   23.3748   46.5462 H   0  0  0  0  0  0  0  0  0  0  0  0
   54.8530   24.5440   45.0980 H   0  0  0  0  0  0  0  0  0  0  0  0
   55.8020   26.8862   45.3370 H   0  0  0  0  0  0  0  0  0  0  0  0
   56.7473   26.1679   46.6873 H   0  0  0  0  0  0  0  0  0  0  0  0
   58.0555   24.9123   45.2854 H   0  0  0  0  0  0  0  0  0  0  0  0
   56.6778   24.6050   44.1400 H   0  0  0  0  0  0  0  0  0  0  0  0
   56.9700   26.6760   43.1680 H   0  0  0  0  0  0  0  0  0  0  0  0
   58.4870   25.9470   43.2010 H   0  0  0  0  0  0  0  0  0  0  0  0
   60.0159   26.5028   45.2572 H   0  0  0  0  0  0  0  0  0  0  0  0
   60.8717   28.4826   46.5026 H   0  0  0  0  0  0  0  0  0  0  0  0
   56.5990   28.8120   43.9220 H   0  0  0  0  0  0  0  0  0  0  0  0
   56.0039   33.1409   45.1880 H   0  0  0  0  0  0  0  0  0  0  0  0
   56.6730   33.6197   46.8278 H   0  0  0  0  0  0  0  0  0  0  0  0
   57.1450   34.7849   44.1805 H   0  0  0  0  0  0  0  0  0  0  0  0
   57.4435   35.4177   45.8891 H   0  0  0  0  0  0  0  0  0  0  0  0
   59.3308   33.6066   44.3622 H   0  0  0  0  0  0  0  0  0  0  0  0
   59.4471   35.4295   44.4960 H   0  0  0  0  0  0  0  0  0  0  0  0
   60.9562   34.1369   46.0403 H   0  0  0  0  0  0  0  0  0  0  0  0
   59.7955   35.3332   46.8122 H   0  0  0  0  0  0  0  0  0  0  0  0
   60.2053   33.0092   47.9417 H   0  0  0  0  0  0  0  0  0  0  0  0
   58.5350   33.7041   47.8024 H   0  0  0  0  0  0  0  0  0  0  0  0
  1  2  1  0
  2  3  1  0
  3  4  1  0
  4  5  1  0
  5  6  1  0
  6  7  1  0
  7  8  1  0
  8  9  1  0
  9 10  1  0
 10 11  1  0
 11 12  2  0
 12 13  1  0
 13 14  2  0
 14 15  1  0
 15 16  2  0
 15 17  1  0
 17 18  1  0
 18 19  2  0
 19 20  1  0
 20 21  2  0
 18 22  1  0
 22 23  1  0
 23 24  1  0
 24 25  1  0
 25 26  1  0
 21 11  1  0
 20 14  1  0
 26 17  1  0
  1 27  1  0
  1 28  1  0
  1 29  1  0
  2 30  1  0
  2 31  1  0
  3 32  1  0
  4 33  1  0
  4 34  1  0
  5 35  1  0
  5 36  1  0
  6 37  1  0
  6 38  1  0
  7 39  1  0
  8 40  1  0
  8 41  1  0
  9 42  1  0
  9 43  1  0
 10 44  1  0
 10 45  1  0
 12 46  1  0
 13 47  1  0
 21 48  1  0
 22 49  1  0
 22 50  1  0
 23 51  1  0
 23 52  1  0
 24 53  1  0
 24 54  1  0
 25 55  1  0
 25 56  1  0
 26 57  1  0
 26 58  1  0
M  CHG  1  10   1
M  END
>  <UniqueID>  (1) 
1

>  <SMILES>  (1) 
CCNCCCNCC[NH2+]c1ccc2c(=O)n3c(nc2c1)CCCCC3

>  <Energy>  (1) 
65.88402736234639

>  <Genealogy>  (1) 
CCNCCCNCC[NH2+]c1ccc2c(=O)n3c(nc2c1)CCCCC3 (protonated)
CCNCCCNCC[NH2+]c1ccc2c(=O)n3c(nc2c1)CCCCC3 (3D coordinates assigned)
CCNCCCNCC[NH2+]c1ccc2c(=O)n3c(nc2c1)CCCCC3 (nonaromatic ring conformer: 65.88402736234639 kcal/mol)

>  <smiles>  (1) 
CCNCCCNCCNc1ccc2c(=O)n3c(nc2c1)CCCCC3

>  <score_type>  (1) 
oracle

>  <origin>  (1) 
adg

>  <m_score__min__energy>  (1) 
-3.48

>  <m_primary>  (1) 
energy

$$$$
1:0
     RDKit          3D

 66 69  0  0  0  0  0  0  0  0999 V2000
   63.2330   33.5740   46.8120 C   0  0  0  0  0  0  0  0  0  0  0  0
   62.7170   32.6280   47.8130 N   0  0  0  0  0  0  0  0  0  0  0  0
   63.7220   32.4400   48.8750 C   0  0  0  0  0  0  0  0  0  0  0  0
   62.3730   31.3390   47.1720 C   0  0  0  0  0  0  0  0  0  0  0  0
   61.5230   30.4720   48.1090 C   0  0  0  0  0  0  0  0  0  0  0  0
   60.1160   30.8650   48.0520 N   0  0  0  0  0  0  0  0  0  0  0  0
   59.4350   30.9690   46.7960 C   0  0  0  0  0  0  0  0  0  0  0  0
   59.0760   29.7780   46.1360 C   0  0  0  0  0  0  0  0  0  0  0  0
   59.3850   28.5160   46.6980 C   0  0  0  0  0  0  0  0  0  0  0  0
   59.0950   27.3390   46.0120 C   0  0  0  0  0  0  0  0  0  0  0  0
   58.5010   27.3940   44.7600 C   0  0  0  0  0  0  0  0  0  0  0  0
   58.1580   28.6250   44.2000 C   0  0  0  0  0  0  0  0  0  0  0  0
   58.4000   29.8390   44.8950 C   0  0  0  0  0  0  0  0  0  0  0  0
   58.0010   31.0550   44.3870 N   0  0  0  0  0  0  0  0  0  0  0  0
   57.0230   31.0980   43.2740 C   0  0  0  0  0  0  0  0  0  0  0  0
   58.4740   32.2330   44.9390 C   0  0  0  0  0  0  0  0  0  0  0  0
   58.3040   33.4610   44.2590 C   0  0  0  0  0  0  0  0  0  0  0  0
   58.6660   34.6630   44.8410 C   0  0  0  0  0  0  0  0  0  0  0  0
   59.2310   34.6830   46.1020 C   0  0  0  0  0  0  0  0  0  0  0  0
   59.5230   33.4940   46.7910 C   0  0  0  0  0  0  0  0  0  0  0  0
   60.1220   33.5980   48.1040 N   0  0  0  0  0  0  0  0  0  0  0  0
   59.6750   34.5160   49.1620 C   0  0  0  0  0  0  0  0  0  0  0  0
   59.6240   33.8630   50.5580 C   0  0  0  0  0  0  0  0  0  0  0  0
   59.5960   32.3850   50.4990 N   0  0  0  0  0  0  0  0  0  0  0  0
   60.4920   31.8240   51.5300 C   0  0  0  0  0  0  0  0  0  0  0  0
   60.6770   30.3100   51.3300 C   0  0  0  0  0  0  0  0  0  0  0  0
   59.4290   29.6340   50.7430 C   0  0  0  0  0  0  0  0  0  0  0  0
   58.1550   30.3910   51.1160 C   0  0  0  0  0  0  0  0  0  0  0  0
   58.2110   31.8650   50.6550 C   0  0  0  0  0  0  0  0  0  0  0  0
   59.1540   32.2320   46.2010 C   0  0  0  0  0  0  0  0  0  0  0  0
   63.6996   34.4295   47.3223 H   0  0  0  0  0  0  0  0  0  0  0  0
   63.9811   33.0699   46.1825 H   0  0  0  0  0  0  0  0  0  0  0  0
   62.4042   33.9301   46.1825 H   0  0  0  0  0  0  0  0  0  0  0  0
   63.2376   32.5306   49.8584 H   0  0  0  0  0  0  0  0  0  0  0  0
   64.1740   31.4417   48.7795 H   0  0  0  0  0  0  0  0  0  0  0  0
   64.5043   33.2074   48.7795 H   0  0  0  0  0  0  0  0  0  0  0  0
   61.8063   31.5352   46.2498 H   0  0  0  0  0  0  0  0  0  0  0  0
   63.3044   30.8005   46.9431 H   0  0  0  0  0  0  0  0  0  0  0  0
   61.6149   29.4184   47.8066 H   0  0  0  0  0  0  0  0  0  0  0  0
   61.8844   30.6098   49.1388 H   0  0  0  0  0  0  0  0  0  0  0  0
   59.5370   30.8890   48.9220 H   0  0  0  0  0  0  0  0  0  0  0  0
   59.8600   28.4643   47.6888 H   0  0  0  0  0  0  0  0  0  0  0  0
   59.3372   26.3656   46.4634 H   0  0  0  0  0  0  0  0  0  0  0  0
   58.2998   26.4646   44.2070 H   0  0  0  0  0  0  0  0  0  0  0  0
   57.6925   28.6554   43.2038 H   0  0  0  0  0  0  0  0  0  0  0  0
   56.0031   31.1428   43.6836 H   0  0  0  0  0  0  0  0  0  0  0  0
   57.2095   31.9888   42.6562 H   0  0  0  0  0  0  0  0  0  0  0  0
   57.1306   30.1943   42.6562 H   0  0  0  0  0  0  0  0  0  0  0  0
   57.8750   33.4608   43.2461 H   0  0  0  0  0  0  0  0  0  0  0  0
   58.5035   35.6058   44.2981 H   0  0  0  0  0  0  0  0  0  0  0  0
   59.4567   35.6497   46.5760 H   0  0  0  0  0  0  0  0  0  0  0  0
   60.6560   32.7730   48.4540 H   0  0  0  0  0  0  0  0  0  0  0  0
   60.3696   35.3681   49.2008 H   0  0  0  0  0  0  0  0  0  0  0  0
   58.6500   34.8263   48.9110 H   0  0  0  0  0  0  0  0  0  0  0  0
   60.5135   34.1753   51.1248 H   0  0  0  0  0  0  0  0  0  0  0  0
   58.6939   34.1927   51.0440 H   0  0  0  0  0  0  0  0  0  0  0  0
   61.4722   32.3187   51.4634 H   0  0  0  0  0  0  0  0  0  0  0  0
   60.0418   31.9960   52.5188 H   0  0  0  0  0  0  0  0  0  0  0  0
   61.5216   30.1460   50.6446 H   0  0  0  0  0  0  0  0  0  0  0  0
   60.8633   29.8641   52.3182 H   0  0  0  0  0  0  0  0  0  0  0  0
   59.5200   29.6053   49.6471 H   0  0  0  0  0  0  0  0  0  0  0  0
   59.3602   28.6171   51.1567 H   0  0  0  0  0  0  0  0  0  0  0  0
   57.2952   29.8999   50.6369 H   0  0  0  0  0  0  0  0  0  0  0  0
   58.0561   30.3776   52.2115 H   0  0  0  0  0  0  0  0  0  0  0  0
   57.6971   31.9466   49.6859 H   0  0  0  0  0  0  0  0  0  0  0  0
   57.7250   32.4675   51.4365 H   0  0  0  0  0  0  0  0  0  0  0  0
  1  2  1  0
  2  3  1  0
  2  4  1  0
  4  5  1  0
  5  6  1  0
  6  7  1  0
  7  8  2  0
  8  9  1  0
  9 10  2  0
 10 11  1  0
 11 12  2  0
 12 13  1  0
 13 14  2  0
 14 15  1  0
 14 16  1  0
 16 17  2  0
 17 18  1  0
 18 19  2  0
 19 20  1  0
 20 21  1  0
 21 22  1  0
 22 23  1  0
 23 24  1  0
 24 25  1  0
 25 26  1  0
 26 27  1  0
 27 28  1  0
 28 29  1  0
 20 30  2  0
 30  7  1  0
 13  8  1  0
 30 16  1  0
 29 24  1  0
  1 31  1  0
  1 32  1  0
  1 33  1  0
  3 34  1  0
  3 35  1  0
  3 36  1  0
  4 37  1  0
  4 38  1  0
  5 39  1  0
  5 40  1  0
  6 41  1  0
  9 42  1  0
 10 43  1  0
 11 44  1  0
 12 45  1  0
 15 46  1  0
 15 47  1  0
 15 48  1  0
 17 49  1  0
 18 50  1  0
 19 51  1  0
 21 52  1  0
 22 53  1  0
 22 54  1  0
 23 55  1  0
 23 56  1  0
 25 57  1  0
 25 58  1  0
 26 59  1  0
 26 60  1  0
 27 61  1  0
 27 62  1  0
 28 63  1  0
 28 64  1  0
 29 65  1  0
 29 66  1  0
M  CHG  1  14   1
M  END
>  <UniqueID>  (2) 
2

>  <SMILES>  (2) 
CN(C)CCNc1c2ccccc2[n+](C)c2cccc(NCCN3CCCCC3)c12

>  <Energy>  (2) 
105.34789284039338

>  <Genealogy>  (2) 
CN(C)CCNc1c2ccccc2[n+](C)c2cccc(NCCN3CCCCC3)c12 (3D coordinates assigned)
CN(C)CCNc1c2ccccc2[n+](C)c2cccc(NCCN3CCCCC3)c12 (nonaromatic ring conformer: 105.34789284039338 kcal/mol)

>  <smiles>  (2) 
CN(C)CCNc1c2ccccc2[n+](C)c2cccc(NCCN3CCCCC3)c12

>  <score_type>  (2) 
oracle

>  <origin>  (2) 
adg

>  <m_score__min__energy>  (2) 
-6.0999999999999996

>  <m_primary>  (2) 
energy

$$$$
2:0
     RDKit          3D

 69 71  0  0  0  0  0  0  0  0999 V2000
   60.4120   27.7230   49.1100 C   0  0  0  0  0  0  0  0  0  0  0  0
   60.0660   28.0970   47.6710 C   0  0  0  0  0  0  0  0  0  0  0  0
   58.8010   28.8680   47.6320 N   0  0  0  0  0  0  0  0  0  0  0  0
   59.0450   30.2740   47.2370 C   0  0  0  0  0  0  0  0  0  0  0  0
   60.5010   30.4620   46.8100 C   0  0  0  0  0  0  0  0  0  0  0  0
   57.8120   28.2160   46.7400 C   0  0  0  0  0  0  0  0  0  0  0  0
   57.6220   29.0260   45.4520 C   0  0  0  0  0  0  0  0  0  0  0  0
   56.2500   29.2820   45.2470 O   0  0  0  0  0  0  0  0  0  0  0  0
   56.0180   29.8120   43.9540 C   0  0  0  0  0  0  0  0  0  0  0  0
   56.8560   31.0750   43.7660 C   0  0  0  0  0  0  0  0  0  0  0  0
   56.6420   31.9700   44.8430 O   0  0  0  0  0  0  0  0  0  0  0  0
   57.4260   33.1400   44.7080 C   0  0  0  0  0  0  0  0  0  0  0  0
   58.8290   32.9030   45.2650 C   0  0  0  0  0  0  0  0  0  0  0  0
   59.5410   34.1240   45.2820 O   0  0  0  0  0  0  0  0  0  0  0  0
   59.0920   34.9480   46.3420 C   0  0  0  0  0  0  0  0  0  0  0  0
   58.5260   34.1020   47.4870 C   0  0  0  0  0  0  0  0  0  0  0  0
   59.3310   34.2610   48.6980 N   0  0  0  0  0  0  0  0  0  0  0  0
   60.0780   33.1650   49.2500 C   0  0  0  0  0  0  0  0  0  0  0  0
   59.4600   32.2410   50.1130 C   0  0  0  0  0  0  0  0  0  0  0  0
   58.0870   32.3430   50.4180 C   0  0  0  0  0  0  0  0  0  0  0  0
   57.4760   31.4320   51.2740 C   0  0  0  0  0  0  0  0  0  0  0  0
   58.2170   30.4000   51.8360 C   0  0  0  0  0  0  0  0  0  0  0  0
   59.5710   30.2650   51.5370 C   0  0  0  0  0  0  0  0  0  0  0  0
   60.2250   31.1760   50.6670 C   0  0  0  0  0  0  0  0  0  0  0  0
   61.5650   31.0430   50.3500 N   0  0  0  0  0  0  0  0  0  0  0  0
   62.3520   29.9260   50.9190 C   0  0  0  0  0  0  0  0  0  0  0  0
   62.1720   31.9430   49.5030 C   0  0  0  0  0  0  0  0  0  0  0  0
   63.4990   31.8240   49.2010 N   0  0  0  0  0  0  0  0  0  0  0  0
   64.1470   32.6830   48.3740 C   0  0  0  0  0  0  0  0  0  0  0  0
   63.4550   33.7400   47.7930 C   0  0  0  0  0  0  0  0  0  0  0  0
   62.1000   33.9040   48.0700 C   0  0  0  0  0  0  0  0  0  0  0  0
   61.4370   33.0080   48.9320 C   0  0  0  0  0  0  0  0  0  0  0  0
   59.8312   28.3508   49.8018 H   0  0  0  0  0  0  0  0  0  0  0  0
   60.1678   26.6644   49.2826 H   0  0  0  0  0  0  0  0  0  0  0  0
   61.4863   27.8843   49.2826 H   0  0  0  0  0  0  0  0  0  0  0  0
   60.8773   28.7087   47.2496 H   0  0  0  0  0  0  0  0  0  0  0  0
   59.9436   27.1768   47.0808 H   0  0  0  0  0  0  0  0  0  0  0  0
   58.3843   30.5345   46.3970 H   0  0  0  0  0  0  0  0  0  0  0  0
   58.8379   30.9276   48.0972 H   0  0  0  0  0  0  0  0  0  0  0  0
   61.1374   30.5442   47.7034 H   0  0  0  0  0  0  0  0  0  0  0  0
   60.8216   29.5978   46.2097 H   0  0  0  0  0  0  0  0  0  0  0  0
   60.5915   31.3793   46.2097 H   0  0  0  0  0  0  0  0  0  0  0  0
   58.1685   27.2077   46.4825 H   0  0  0  0  0  0  0  0  0  0  0  0
   56.8474   28.1589   47.2657 H   0  0  0  0  0  0  0  0  0  0  0  0
   58.1628   29.9801   45.5374 H   0  0  0  0  0  0  0  0  0  0  0  0
   58.0158   28.4519   44.6003 H   0  0  0  0  0  0  0  0  0  0  0  0
   56.3014   29.0672   43.1957 H   0  0  0  0  0  0  0  0  0  0  0  0
   54.9517   30.0586   43.8437 H   0  0  0  0  0  0  0  0  0  0  0  0
   57.9208   30.8018   43.7269 H   0  0  0  0  0  0  0  0  0  0  0  0
   56.5590   31.5659   42.8275 H   0  0  0  0  0  0  0  0  0  0  0  0
   57.4982   33.4080   43.6436 H   0  0  0  0  0  0  0  0  0  0  0  0
   56.9503   33.9573   45.2699 H   0  0  0  0  0  0  0  0  0  0  0  0
   58.7552   32.5072   46.2886 H   0  0  0  0  0  0  0  0  0  0  0  0
   59.3586   32.1782   44.6292 H   0  0  0  0  0  0  0  0  0  0  0  0
   59.9365   35.5444   46.7177 H   0  0  0  0  0  0  0  0  0  0  0  0
   58.2963   35.6065   45.9637 H   0  0  0  0  0  0  0  0  0  0  0  0
   57.4942   34.4214   47.6954 H   0  0  0  0  0  0  0  0  0  0  0  0
   58.5463   33.0440   47.1868 H   0  0  0  0  0  0  0  0  0  0  0  0
   59.2370   35.1380   49.2560 H   0  0  0  0  0  0  0  0  0  0  0  0
   57.4911   33.1536   49.9732 H   0  0  0  0  0  0  0  0  0  0  0  0
   56.4051   31.5290   51.5060 H   0  0  0  0  0  0  0  0  0  0  0  0
   57.7329   29.6869   52.5195 H   0  0  0  0  0  0  0  0  0  0  0  0
   60.1431   29.4381   51.9829 H   0  0  0  0  0  0  0  0  0  0  0  0
   62.3173   29.9752   52.0174 H   0  0  0  0  0  0  0  0  0  0  0  0
   61.9276   28.9690   50.5813 H   0  0  0  0  0  0  0  0  0  0  0  0
   63.3960   30.0036   50.5813 H   0  0  0  0  0  0  0  0  0  0  0  0
   65.2176   32.5434   48.1637 H   0  0  0  0  0  0  0  0  0  0  0  0
   63.9730   34.4400   47.1209 H   0  0  0  0  0  0  0  0  0  0  0  0
   61.5448   34.7368   47.6138 H   0  0  0  0  0  0  0  0  0  0  0  0
  1  2  1  0
  2  3  1  0
  3  4  1  0
  4  5  1  0
  3  6  1  0
  6  7  1  0
  7  8  1  0
  8  9  1  0
  9 10  1  0
 10 11  1  0
 11 12  1  0
 12 13  1  0
 13 14  1  0
 14 15  1  0
 15 16  1  0
 16 17  1  0
 17 18  1  0
 18 19  2  0
 19 20  1  0
 20 21  2  0
 21 22  1  0
 22 23  2  0
 23 24  1  0
 24 25  2  0
 25 26  1  0
 25 27  1  0
 27 28  2  0
 28 29  1  0
 29 30  2  0
 30 31  1  0
 31 32  2  0
 32 18  1  0
 24 19  1  0
 32 27  1  0
  1 33  1  0
  1 34  1  0
  1 35  1  0
  2 36  1  0
  2 37  1  0
  4 38  1  0
  4 39  1  0
  5 40  1  0
  5 41  1  0
  5 42  1  0
  6 43  1  0
  6 44  1  0
  7 45  1  0
  7 46  1  0
  9 47  1  0
  9 48  1  0
 10 49  1  0
 10 50  1  0
 12 51  1  0
 12 52  1  0
 13 53  1  0
 13 54  1  0
 15 55  1  0
 15 56  1  0
 16 57  1  0
 16 58  1  0
 17 59  1  0
 20 60  1  0
 21 61  1  0
 22 62  1  0
 23 63  1  0
 26 64  1  0
 26 65  1  0
 26 66  1  0
 29 67  1  0
 30 68  1  0
 31 69  1  0
M  CHG  1  25   1
M  END
>  <UniqueID>  (3) 
3

>  <SMILES>  (3) 
CCN(CC)CCOCCOCCOCCNc1c2ccccc2[n+](C)c2ncccc12

>  <Energy>  (3) 
91.34328736433717

>  <Genealogy>  (3) 
CCN(CC)CCOCCOCCOCCNc1c2ccccc2[n+](C)c2ncccc12 (3D coordinates assigned)
CCN(CC)CCOCCOCCOCCNc1c2ccccc2[n+](C)c2ncccc12 (optimized conformer: 91.34328736433717 kcal/mol)

>  <smiles>  (3) 
CCN(CC)CCOCCOCCOCCNc1c2ccccc2[n+](C)c2ncccc12

>  <score_type>  (3) 
oracle

>  <origin>  (3) 
adg

>  <m_score__min__energy>  (3) 
-5.5599999999999996

>  <m_primary>  (3) 
energy

$$$$
3:0
     RDKit          3D

 44 45  0  0  0  0  0  0  0  0999 V2000
   57.5620   34.2100   44.9010 C   0  0  0  0  0  0  0  0  0  0  0  0
   59.0910   34.3740   44.8750 C   0  0  0  0  0  0  0  0  0  0  0  0
   59.7680   34.0270   46.1470 N   0  0  0  0  0  0  0  0  0  0  0  0
   61.2220   33.8570   45.9980 C   0  0  0  0  0  0  0  0  0  0  0  0
   59.4270   34.9360   47.2640 C   0  0  0  0  0  0  0  0  0  0  0  0
   59.3470   34.1620   48.5820 C   0  0  0  0  0  0  0  0  0  0  0  0
   58.8270   32.8630   48.3550 O   0  0  0  0  0  0  0  0  0  0  0  0
   59.1890   31.9670   49.3890 C   0  0  0  0  0  0  0  0  0  0  0  0
   60.6420   31.4980   49.2360 C   0  0  0  0  0  0  0  0  0  0  0  0
   60.9350   31.0090   47.8120 C   0  0  0  0  0  0  0  0  0  0  0  0
   59.7160   31.0270   47.0030 N   0  0  0  0  0  0  0  0  0  0  0  0
   58.9350   29.8600   46.6800 C   0  0  0  0  0  0  0  0  0  0  0  0
   59.2350   28.5690   47.1820 C   0  0  0  0  0  0  0  0  0  0  0  0
   58.4340   27.4560   46.8390 C   0  0  0  0  0  0  0  0  0  0  0  0
   57.3120   27.6020   45.9900 C   0  0  0  0  0  0  0  0  0  0  0  0
   56.4930   26.4730   45.6370 N   0  0  0  0  0  0  0  0  0  0  0  0
   56.9620   25.5240   44.9760 O   0  0  0  0  0  0  0  0  0  0  0  0
   55.1740   26.4230   46.0250 O   0  0  0  0  0  0  0  0  0  0  0  0
   57.0470   28.8940   45.5200 C   0  0  0  0  0  0  0  0  0  0  0  0
   56.0630   29.3210   44.7120 N   0  0  0  0  0  0  0  0  0  0  0  0
   56.2730   30.6080   44.5870 O   0  0  0  0  0  0  0  0  0  0  0  0
   57.3130   31.0510   45.2480 N   0  0  0  0  0  0  0  0  0  0  0  0
   57.8180   29.9630   45.8500 C   0  0  0  0  0  0  0  0  0  0  0  0
   57.2149   34.1728   45.9441 H   0  0  0  0  0  0  0  0  0  0  0  0
   57.0930   35.0630   44.3887 H   0  0  0  0  0  0  0  0  0  0  0  0
   57.2845   33.2769   44.3887 H   0  0  0  0  0  0  0  0  0  0  0  0
   59.4928   33.7243   44.0835 H   0  0  0  0  0  0  0  0  0  0  0  0
   59.2882   35.4414   44.6967 H   0  0  0  0  0  0  0  0  0  0  0  0
   61.6886   33.8024   46.9926 H   0  0  0  0  0  0  0  0  0  0  0  0
   61.4279   32.9287   45.4450 H   0  0  0  0  0  0  0  0  0  0  0  0
   61.6365   34.7128   45.4450 H   0  0  0  0  0  0  0  0  0  0  0  0
   60.2012   35.7130   47.3473 H   0  0  0  0  0  0  0  0  0  0  0  0
   58.4480   35.3951   47.0619 H   0  0  0  0  0  0  0  0  0  0  0  0
   60.3540   34.0796   49.0169 H   0  0  0  0  0  0  0  0  0  0  0  0
   58.6822   34.6992   49.2744 H   0  0  0  0  0  0  0  0  0  0  0  0
   59.0762   32.4742   50.3586 H   0  0  0  0  0  0  0  0  0  0  0  0
   58.5319   31.0867   49.3319 H   0  0  0  0  0  0  0  0  0  0  0  0
   61.3136   32.3372   49.4697 H   0  0  0  0  0  0  0  0  0  0  0  0
   60.8049   30.6576   49.9267 H   0  0  0  0  0  0  0  0  0  0  0  0
   61.6856   31.6675   47.3504 H   0  0  0  0  0  0  0  0  0  0  0  0
   61.3142   29.9776   47.8610 H   0  0  0  0  0  0  0  0  0  0  0  0
   59.3890   31.9570   46.6560 H   0  0  0  0  0  0  0  0  0  0  0  0
   60.1011   28.4316   47.8461 H   0  0  0  0  0  0  0  0  0  0  0  0
   58.6867   26.4625   47.2378 H   0  0  0  0  0  0  0  0  0  0  0  0
  1  2  1  0
  2  3  1  0
  3  4  1  0
  3  5  1  0
  5  6  1  0
  6  7  1  0
  7  8  1  0
  8  9  1  0
  9 10  1  0
 10 11  1  0
 11 12  1  0
 12 13  2  0
 13 14  1  0
 14 15  2  0
 15 16  1  0
 16 17  2  0
 16 18  1  0
 15 19  1  0
 19 20  2  0
 20 21  1  0
 21 22  1  0
 22 23  2  0
 23 12  1  0
 23 19  1  0
  1 24  1  0
  1 25  1  0
  1 26  1  0
  2 27  1  0
  2 28  1  0
  4 29  1  0
  4 30  1  0
  4 31  1  0
  5 32  1  0
  5 33  1  0
  6 34  1  0
  6 35  1  0
  8 36  1  0
  8 37  1  0
  9 38  1  0
  9 39  1  0
 10 40  1  0
 10 41  1  0
 11 42  1  0
 13 43  1  0
 14 44  1  0
M  CHG  2  16   1  18  -1
M  END
>  <UniqueID>  (4) 
4

>  <SMILES>  (4) 
CCN(C)CCOCCCNc1ccc([N+](=O)[O-])c2nonc12

>  <Energy>  (4) 
88.33794310475929

>  <Genealogy>  (4) 
CCN(C)CCOCCCNc1ccc([N+](=O)[O-])c2nonc12 (3D coordinates assigned)
CCN(C)CCOCCCNc1ccc([N+](=O)[O-])c2nonc12 (optimized conformer: 88.33794310475929 kcal/mol)

>  <smiles>  (4) 
CCN(C)CCOCCCNc1ccc([N+](=O)[O-])c2nonc12

>  <score_type>  (4) 
oracle

>  <origin>  (4) 
adg

>  <m_score__min__energy>  (4) 
-7.4800000000000004

>  <m_primary>  (4) 
energy

$$$$
4:0
     RDKit          3D

 79 81  0  0  0  0  0  0  0  0999 V2000
   58.1570   30.1580   51.0540 C   0  0  0  0  0  0  0  0  0  0  0  0
   58.9340   29.9930   49.7370 C   0  0  0  0  0  0  0  0  0  0  0  0
   60.3930   29.8000   49.9150 N   0  0  0  0  0  0  0  0  0  0  0  0
   60.7610   28.3750   50.0240 C   0  0  0  0  0  0  0  0  0  0  0  0
   60.9390   30.6030   51.0310 C   0  0  0  0  0  0  0  0  0  0  0  0
   62.2830   31.2260   50.6390 C   0  0  0  0  0  0  0  0  0  0  0  0
   62.0730   32.4480   49.9560 O   0  0  0  0  0  0  0  0  0  0  0  0
   63.2680   33.1970   49.8880 C   0  0  0  0  0  0  0  0  0  0  0  0
   63.2960   34.0010   48.5850 C   0  0  0  0  0  0  0  0  0  0  0  0
   62.8210   33.2190   47.5020 O   0  0  0  0  0  0  0  0  0  0  0  0
   63.4290   31.9410   47.4760 C   0  0  0  0  0  0  0  0  0  0  0  0
   62.4190   30.8720   47.0500 C   0  0  0  0  0  0  0  0  0  0  0  0
   61.0870   31.2020   47.5590 N   0  0  0  0  0  0  0  0  0  0  0  0
   59.9270   31.1220   46.7150 C   0  0  0  0  0  0  0  0  0  0  0  0
   59.5360   29.8670   46.2200 C   0  0  0  0  0  0  0  0  0  0  0  0
   60.1120   28.6820   46.7270 C   0  0  0  0  0  0  0  0  0  0  0  0
   59.7930   27.4430   46.1810 C   0  0  0  0  0  0  0  0  0  0  0  0
   58.8980   27.3600   45.1220 C   0  0  0  0  0  0  0  0  0  0  0  0
   58.2960   28.5140   44.6200 C   0  0  0  0  0  0  0  0  0  0  0  0
   58.5710   29.7880   45.1830 C   0  0  0  0  0  0  0  0  0  0  0  0
   57.9510   30.9350   44.7270 N   0  0  0  0  0  0  0  0  0  0  0  0
   56.7640   30.8320   43.8450 C   0  0  0  0  0  0  0  0  0  0  0  0
   58.4040   32.1780   45.1300 C   0  0  0  0  0  0  0  0  0  0  0  0
   57.9860   33.3600   44.4700 C   0  0  0  0  0  0  0  0  0  0  0  0
   58.3700   34.6140   44.9290 C   0  0  0  0  0  0  0  0  0  0  0  0
   59.1480   34.7310   46.0710 C   0  0  0  0  0  0  0  0  0  0  0  0
   59.6190   33.5900   46.7390 C   0  0  0  0  0  0  0  0  0  0  0  0
   60.2550   33.7480   48.0210 N   0  0  0  0  0  0  0  0  0  0  0  0
   59.6310   34.4230   49.1600 C   0  0  0  0  0  0  0  0  0  0  0  0
   59.2480   33.4180   50.2530 C   0  0  0  0  0  0  0  0  0  0  0  0
   59.8540   33.8080   51.6240 C   0  0  0  0  0  0  0  0  0  0  0  0
   58.9800   33.5230   52.7850 N   0  0  0  0  0  0  0  0  0  0  0  0
   57.6210   33.1230   52.3930 C   0  0  0  0  0  0  0  0  0  0  0  0
   58.9530   34.6210   53.7660 C   0  0  0  0  0  0  0  0  0  0  0  0
   59.3220   32.2970   46.2130 C   0  0  0  0  0  0  0  0  0  0  0  0
   58.8405   30.0129   51.9036 H   0  0  0  0  0  0  0  0  0  0  0  0
   57.7240   31.1681   51.1002 H   0  0  0  0  0  0  0  0  0  0  0  0
   57.3508   29.4110   51.1002 H   0  0  0  0  0  0  0  0  0  0  0  0
   58.5320   29.1175   49.2061 H   0  0  0  0  0  0  0  0  0  0  0  0
   58.8043   30.9284   49.1729 H   0  0  0  0  0  0  0  0  0  0  0  0
   60.8333   28.0951   51.0853 H   0  0  0  0  0  0  0  0  0  0  0  0
   59.9924   27.7593   49.5340 H   0  0  0  0  0  0  0  0  0  0  0  0
   61.7316   28.2084   49.5340 H   0  0  0  0  0  0  0  0  0  0  0  0
   60.2283   31.4043   51.2815 H   0  0  0  0  0  0  0  0  0  0  0  0
   61.0923   29.9456   51.8995 H   0  0  0  0  0  0  0  0  0  0  0  0
   62.8753   31.4139   51.5467 H   0  0  0  0  0  0  0  0  0  0  0  0
   62.8216   30.5320   49.9770 H   0  0  0  0  0  0  0  0  0  0  0  0
   63.3178   33.8856   50.7444 H   0  0  0  0  0  0  0  0  0  0  0  0
   64.1297   32.5138   49.9147 H   0  0  0  0  0  0  0  0  0  0  0  0
   62.6575   34.8899   48.6956 H   0  0  0  0  0  0  0  0  0  0  0  0
   64.3340   34.2995   48.3765 H   0  0  0  0  0  0  0  0  0  0  0  0
   64.2654   31.9531   46.7617 H   0  0  0  0  0  0  0  0  0  0  0  0
   63.7941   31.7015   48.4856 H   0  0  0  0  0  0  0  0  0  0  0  0
   62.3857   30.8211   45.9517 H   0  0  0  0  0  0  0  0  0  0  0  0
   62.7298   29.9007   47.4624 H   0  0  0  0  0  0  0  0  0  0  0  0
   60.9630   31.4040   48.5770 H   0  0  0  0  0  0  0  0  0  0  0  0
   60.8224   28.7392   47.5649 H   0  0  0  0  0  0  0  0  0  0  0  0
   60.2496   26.5287   46.5880 H   0  0  0  0  0  0  0  0  0  0  0  0
   58.6632   26.3814   44.6779 H   0  0  0  0  0  0  0  0  0  0  0  0
   57.5970   28.4356   43.7743 H   0  0  0  0  0  0  0  0  0  0  0  0
   55.8557   30.7532   44.4604 H   0  0  0  0  0  0  0  0  0  0  0  0
   56.7001   31.7280   43.2101 H   0  0  0  0  0  0  0  0  0  0  0  0
   56.8554   29.9384   43.2101 H   0  0  0  0  0  0  0  0  0  0  0  0
   57.3462   33.2836   43.5785 H   0  0  0  0  0  0  0  0  0  0  0  0
   58.0559   35.5168   44.3848 H   0  0  0  0  0  0  0  0  0  0  0  0
   59.3989   35.7297   46.4578 H   0  0  0  0  0  0  0  0  0  0  0  0
   61.1830   33.2980   48.1680 H   0  0  0  0  0  0  0  0  0  0  0  0
   60.3391   35.1546   49.5764 H   0  0  0  0  0  0  0  0  0  0  0  0
   58.7171   34.9260   48.8111 H   0  0  0  0  0  0  0  0  0  0  0  0
   58.1521   33.3884   50.3426 H   0  0  0  0  0  0  0  0  0  0  0  0
   59.6457   32.4326   49.9689 H   0  0  0  0  0  0  0  0  0  0  0  0
   60.7930   33.2504   51.7557 H   0  0  0  0  0  0  0  0  0  0  0  0
   60.0005   34.8980   51.6027 H   0  0  0  0  0  0  0  0  0  0  0  0
   57.0167   32.9451   53.2947 H   0  0  0  0  0  0  0  0  0  0  0  0
   57.1611   33.9239   51.7955 H   0  0  0  0  0  0  0  0  0  0  0  0
   57.6682   32.2007   51.7955 H   0  0  0  0  0  0  0  0  0  0  0  0
   58.9633   34.2037   54.7837 H   0  0  0  0  0  0  0  0  0  0  0  0
   59.8357   35.2618   53.6235 H   0  0  0  0  0  0  0  0  0  0  0  0
   58.0399   35.2176   53.6235 H   0  0  0  0  0  0  0  0  0  0  0  0
  1  2  1  0
  2  3  1  0
  3  4  1  0
  3  5  1  0
  5  6  1  0
  6  7  1  0
  7  8  1  0
  8  9  1  0
  9 10  1  0
 10 11  1  0
 11 12  1  0
 12 13  1  0
 13 14  1  0
 14 15  2  0
 15 16  1  0
 16 17  2  0
 17 18  1  0
 18 19  2  0
 19 20  1  0
 20 21  2  0
 21 22  1  0
 21 23  1  0
 23 24  2  0
 24 25  1  0
 25 26  2  0
 26 27  1  0
 27 28  1  0
 28 29  1  0
 29 30  1  0
 30 31  1  0
 31 32  1  0
 32 33  1  0
 32 34  1  0
 27 35  2  0
 35 14  1  0
 20 15  1  0
 35 23  1  0
  1 36  1  0
  1 37  1  0
  1 38  1  0
  2 39  1  0
  2 40  1  0
  4 41  1  0
  4 42  1  0
  4 43  1  0
  5 44  1  0
  5 45  1  0
  6 46  1  0
  6 47  1  0
  8 48  1  0
  8 49  1  0
  9 50  1  0
  9 51  1  0
 11 52  1  0
 11 53  1  0
 12 54  1  0
 12 55  1  0
 13 56  1  0
 16 57  1  0
 17 58  1  0
 18 59  1  0
 19 60  1  0
 22 61  1  0
 22 62  1  0
 22 63  1  0
 24 64  1  0
 25 65  1  0
 26 66  1  0
 28 67  1  0
 29 68  1  0
 29 69  1  0
 30 70  1  0
 30 71  1  0
 31 72  1  0
 31 73  1  0
 33 74  1  0
 33 75  1  0
 33 76  1  0
 34 77  1  0
 34 78  1  0
 34 79  1  0
M  CHG  1  21   1
M  END
>  <UniqueID>  (5) 
5

>  <SMILES>  (5) 
CCN(C)CCOCCOCCNc1c2ccccc2[n+](C)c2cccc(NCCCN(C)C)c12

>  <Energy>  (5) 
116.34029682502768

>  <Genealogy>  (5) 
CCN(C)CCOCCOCCNc1c2ccccc2[n+](C)c2cccc(NCCCN(C)C)c12 (3D coordinates assigned)
CCN(C)CCOCCOCCNc1c2ccccc2[n+](C)c2cccc(NCCCN(C)C)c12 (optimized conformer: 116.34029682502768 kcal/mol)

>  <smiles>  (5) 
CCN(C)CCOCCOCCNc1c2ccccc2[n+](C)c2cccc(NCCCN(C)C)c12

>  <score_type>  (5) 
oracle

>  <origin>  (5) 
adg

>  <m_score__min__energy>  (5) 
-5.8300000000000001

>  <m_primary>  (5) 
energy

$$$$
5:0
     RDKit          3D

 80 84  0  0  0  0  0  0  0  0999 V2000
   63.4230   33.8500   47.7540 C   0  0  0  0  0  0  0  0  0  0  0  0
   62.9260   32.5200   48.1430 N   0  0  0  0  0  0  0  0  0  0  0  0
   63.3270   31.5310   47.1250 C   0  0  0  0  0  0  0  0  0  0  0  0
   63.4400   32.1480   49.4790 C   0  0  0  0  0  0  0  0  0  0  0  0
   62.8210   30.8290   49.9690 C   0  0  0  0  0  0  0  0  0  0  0  0
   61.4970   30.6780   49.4910 O   0  0  0  0  0  0  0  0  0  0  0  0
   60.9270   29.4650   49.9400 C   0  0  0  0  0  0  0  0  0  0  0  0
   60.1650   28.8180   48.7870 C   0  0  0  0  0  0  0  0  0  0  0  0
   60.4990   29.4600   47.5160 N   0  0  0  0  0  0  0  0  0  0  0  0
   59.5580   29.4590   46.4380 C   0  0  0  0  0  0  0  0  0  0  0  0
   59.1500   28.2570   45.8210 C   0  0  0  0  0  0  0  0  0  0  0  0
   59.6750   27.0200   46.2460 C   0  0  0  0  0  0  0  0  0  0  0  0
   59.2430   25.8290   45.6710 C   0  0  0  0  0  0  0  0  0  0  0  0
   58.2800   25.8450   44.6670 C   0  0  0  0  0  0  0  0  0  0  0  0
   57.7480   27.0560   44.2190 C   0  0  0  0  0  0  0  0  0  0  0  0
   58.1770   28.2900   44.7650 C   0  0  0  0  0  0  0  0  0  0  0  0
   57.6690   29.5010   44.3160 N   0  0  0  0  0  0  0  0  0  0  0  0
   56.7430   29.5640   43.1690 C   0  0  0  0  0  0  0  0  0  0  0  0
   58.0450   30.6470   44.9710 C   0  0  0  0  0  0  0  0  0  0  0  0
   57.5820   31.9020   44.7390 N   0  0  0  0  0  0  0  0  0  0  0  0
   58.2470   32.6860   45.6120 C   0  0  0  0  0  0  0  0  0  0  0  0
   58.1130   34.0630   45.7630 C   0  0  0  0  0  0  0  0  0  0  0  0
   58.8990   34.7030   46.7350 C   0  0  0  0  0  0  0  0  0  0  0  0
   59.8070   33.9690   47.5320 C   0  0  0  0  0  0  0  0  0  0  0  0
   60.5680   34.6640   48.4830 O   0  0  0  0  0  0  0  0  0  0  0  0
   60.8570   34.1800   49.7940 C   0  0  0  0  0  0  0  0  0  0  0  0
   59.5840   34.2240   50.6710 C   0  0  0  0  0  0  0  0  0  0  0  0
   59.1570   32.9120   51.2600 N   0  0  0  0  0  0  0  0  0  0  0  0
   60.3880   32.2840   51.8190 C   0  0  0  0  0  0  0  0  0  0  0  0
   58.1740   33.1380   52.3820 C   0  0  0  0  0  0  0  0  0  0  0  0
   56.9490   32.2010   52.3540 C   0  0  0  0  0  0  0  0  0  0  0  0
   57.3700   30.7650   52.0530 C   0  0  0  0  0  0  0  0  0  0  0  0
   58.1240   30.6560   50.7180 C   0  0  0  0  0  0  0  0  0  0  0  0
   58.6120   32.0200   50.1880 C   0  0  0  0  0  0  0  0  0  0  0  0
   59.9250   32.5680   47.3520 C   0  0  0  0  0  0  0  0  0  0  0  0
   59.1190   31.9570   46.3890 C   0  0  0  0  0  0  0  0  0  0  0  0
   58.9770   30.6410   45.9910 C   0  0  0  0  0  0  0  0  0  0  0  0
   63.6427   34.4380   48.6573 H   0  0  0  0  0  0  0  0  0  0  0  0
   64.3401   33.7385   47.1570 H   0  0  0  0  0  0  0  0  0  0  0  0
   62.6575   34.3673   47.1570 H   0  0  0  0  0  0  0  0  0  0  0  0
   63.6957   30.6218   47.6223 H   0  0  0  0  0  0  0  0  0  0  0  0
   62.4599   31.2793   46.4967 H   0  0  0  0  0  0  0  0  0  0  0  0
   64.1245   31.9543   46.4967 H   0  0  0  0  0  0  0  0  0  0  0  0
   64.5324   32.0319   49.4229 H   0  0  0  0  0  0  0  0  0  0  0  0
   63.1687   32.9433   50.1888 H   0  0  0  0  0  0  0  0  0  0  0  0
   63.4317   29.9891   49.6063 H   0  0  0  0  0  0  0  0  0  0  0  0
   62.7957   30.8426   51.0686 H   0  0  0  0  0  0  0  0  0  0  0  0
   61.7233   28.7876   50.2821 H   0  0  0  0  0  0  0  0  0  0  0  0
   60.2392   29.6640   50.7751 H   0  0  0  0  0  0  0  0  0  0  0  0
   60.4306   27.7519   48.7329 H   0  0  0  0  0  0  0  0  0  0  0  0
   59.0865   28.9362   48.9680 H   0  0  0  0  0  0  0  0  0  0  0  0
   61.4790   29.7600   47.3120 H   0  0  0  0  0  0  0  0  0  0  0  0
   60.4347   26.9959   47.0411 H   0  0  0  0  0  0  0  0  0  0  0  0
   59.6642   24.8715   46.0113 H   0  0  0  0  0  0  0  0  0  0  0  0
   57.9359   24.8989   44.2238 H   0  0  0  0  0  0  0  0  0  0  0  0
   56.9829   27.0511   43.4287 H   0  0  0  0  0  0  0  0  0  0  0  0
   55.7085   29.6344   43.5363 H   0  0  0  0  0  0  0  0  0  0  0  0
   56.9760   30.4484   42.5578 H   0  0  0  0  0  0  0  0  0  0  0  0
   56.8541   28.6562   42.5578 H   0  0  0  0  0  0  0  0  0  0  0  0
   56.8530   32.2250   44.0680 H   0  0  0  0  0  0  0  0  0  0  0  0
   57.4107   34.6343   45.1382 H   0  0  0  0  0  0  0  0  0  0  0  0
   58.8069   35.7898   46.8781 H   0  0  0  0  0  0  0  0  0  0  0  0
   61.2169   33.1427   49.7274 H   0  0  0  0  0  0  0  0  0  0  0  0
   61.6297   34.8165   50.2499 H   0  0  0  0  0  0  0  0  0  0  0  0
   59.7681   34.9232   51.5000 H   0  0  0  0  0  0  0  0  0  0  0  0
   58.7678   34.5331   50.0014 H   0  0  0  0  0  0  0  0  0  0  0  0
   60.3444   32.3063   52.9179 H   0  0  0  0  0  0  0  0  0  0  0  0
   60.4559   31.2411   51.4758 H   0  0  0  0  0  0  0  0  0  0  0  0
   61.2721   32.8412   51.4758 H   0  0  0  0  0  0  0  0  0  0  0  0
   58.7004   32.9878   53.3361 H   0  0  0  0  0  0  0  0  0  0  0  0
   57.7894   34.1614   52.2611 H   0  0  0  0  0  0  0  0  0  0  0  0
   56.4490   32.2322   53.3333 H   0  0  0  0  0  0  0  0  0  0  0  0
   56.2643   32.5403   51.5627 H   0  0  0  0  0  0  0  0  0  0  0  0
   58.0257   30.4098   52.8617 H   0  0  0  0  0  0  0  0  0  0  0  0
   56.4600   30.1511   51.9814 H   0  0  0  0  0  0  0  0  0  0  0  0
   58.9974   30.0028   50.8611 H   0  0  0  0  0  0  0  0  0  0  0  0
   57.4222   30.2469   49.9763 H   0  0  0  0  0  0  0  0  0  0  0  0
   59.4039   31.8428   49.4453 H   0  0  0  0  0  0  0  0  0  0  0  0
   57.7407   32.5303   49.7516 H   0  0  0  0  0  0  0  0  0  0  0  0
   60.6319   31.9783   47.9542 H   0  0  0  0  0  0  0  0  0  0  0  0
  1  2  1  0
  2  3  1  0
  2  4  1  0
  4  5  1  0
  5  6  1  0
  6  7  1  0
  7  8  1  0
  8  9  1  0
  9 10  1  0
 10 11  2  0
 11 12  1  0
 12 13  2  0
 13 14  1  0
 14 15  2  0
 15 16  1  0
 16 17  2  0
 17 18  1  0
 17 19  1  0
 19 20  1  0
 20 21  1  0
 21 22  2  0
 22 23  1  0
 23 24  2  0
 24 25  1  0
 25 26  1  0
 26 27  1  0
 27 28  1  0
 28 29  1  0
 28 30  1  0
 30 31  1  0
 31 32  1  0
 32 33  1  0
 33 34  1  0
 24 35  1  0
 35 36  2  0
 36 37  1  0
 37 10  1  0
 16 11  1  0
 37 19  2  0
 36 21  1  0
 34 28  1  0
  1 38  1  0
  1 39  1  0
  1 40  1  0
  3 41  1  0
  3 42  1  0
  3 43  1  0
  4 44  1  0
  4 45  1  0
  5 46  1  0
  5 47  1  0
  7 48  1  0
  7 49  1  0
  8 50  1  0
  8 51  1  0
  9 52  1  0
 12 53  1  0
 13 54  1  0
 14 55  1  0
 15 56  1  0
 18 57  1  0
 18 58  1  0
 18 59  1  0
 20 60  1  0
 22 61  1  0
 23 62  1  0
 26 63  1  0
 26 64  1  0
 27 65  1  0
 27 66  1  0
 29 67  1  0
 29 68  1  0
 29 69  1  0
 30 70  1  0
 30 71  1  0
 31 72  1  0
 31 73  1  0
 32 74  1  0
 32 75  1  0
 33 76  1  0
 33 77  1  0
 34 78  1  0
 34 79  1  0
 35 80  1  0
M  CHG  2  17   1  28   1
M  END
>  <UniqueID>  (6) 
6

>  <SMILES>  (6) 
CN(C)CCOCCNc1c2ccccc2[n+](C)c2[nH]c3ccc(OCC[N+]4(C)CCCCC4)cc3c12

>  <Energy>  (6) 
155.00027673486164

>  <Genealogy>  (6) 
CN(C)CCOCCNc1c2ccccc2[n+](C)c2[nH]c3ccc(OCC[N+]4(C)CCCCC4)cc3c12 (3D coordinates assigned)
CN(C)CCOCCNc1c2ccccc2[n+](C)c2[nH]c3ccc(OCC[N+]4(C)CCCCC4)cc3c12 (nonaromatic ring conformer: 155.00027673486164 kcal/mol)

>  <smiles>  (6) 
CN(C)CCOCCNc1c2ccccc2[n+](C)c2[nH]c3ccc(OCC[N+]4(C)CCCCC4)cc3c12

>  <score_type>  (6) 
oracle

>  <origin>  (6) 
adg

>  <m_score__min__energy>  (6) 
-6.0599999999999996

>  <m_primary>  (6) 
energy

$$$$
6:0
     RDKit          3D

 31 32  0  0  0  0  0  0  0  0999 V2000
   57.7820   27.4270   43.1250 C   0  0  0  0  0  0  0  0  0  0  0  0
   58.3120   27.8860   44.4570 C   0  0  0  0  0  0  0  0  0  0  0  0
   59.6110   28.4180   44.5230 C   0  0  0  0  0  0  0  0  0  0  0  0
   60.1580   28.8060   45.7490 C   0  0  0  0  0  0  0  0  0  0  0  0
   59.4150   28.6670   46.9210 C   0  0  0  0  0  0  0  0  0  0  0  0
   58.1160   28.1590   46.8680 C   0  0  0  0  0  0  0  0  0  0  0  0
   57.5420   27.7960   45.6430 C   0  0  0  0  0  0  0  0  0  0  0  0
   56.2000   27.2950   45.6430 N   0  0  0  0  0  0  0  0  0  0  0  0
   55.8550   25.9220   45.8560 C   0  0  0  0  0  0  0  0  0  0  0  0
   54.6850   25.5130   45.6260 O   0  0  0  0  0  0  0  0  0  0  0  0
   56.8640   24.9910   46.4380 C   0  0  0  0  0  0  0  0  0  0  0  0
   58.1580   24.6550   45.2030 S   0  0  0  0  0  0  0  0  0  0  0  0
   57.0760   23.6580   44.1780 C   0  0  0  0  0  0  0  0  0  0  0  0
   55.9380   24.0930   43.6130 N   0  0  0  0  0  0  0  0  0  0  0  0
   55.4560   23.0710   42.9210 N   0  0  0  0  0  0  0  0  0  0  0  0
   56.2690   22.0300   43.0520 N   0  0  0  0  0  0  0  0  0  0  0  0
   57.2760   22.3740   43.8410 N   0  0  0  0  0  0  0  0  0  0  0  0
   58.4110   21.5210   44.1680 C   0  0  0  0  0  0  0  0  0  0  0  0
   56.9592   26.7144   43.2836 H   0  0  0  0  0  0  0  0  0  0  0  0
   57.4118   28.2945   42.5590 H   0  0  0  0  0  0  0  0  0  0  0  0
   58.5877   26.9367   42.5590 H   0  0  0  0  0  0  0  0  0  0  0  0
   60.2021   28.5299   43.6021 H   0  0  0  0  0  0  0  0  0  0  0  0
   61.1757   29.2215   45.7897 H   0  0  0  0  0  0  0  0  0  0  0  0
   59.8527   28.9578   47.8874 H   0  0  0  0  0  0  0  0  0  0  0  0
   57.5379   28.0427   47.7966 H   0  0  0  0  0  0  0  0  0  0  0  0
   57.3170   25.4507   47.3287 H   0  0  0  0  0  0  0  0  0  0  0  0
   56.3736   24.0484   46.7228 H   0  0  0  0  0  0  0  0  0  0  0  0
   55.5070   25.0410   43.6790 H   0  0  0  0  0  0  0  0  0  0  0  0
   58.5106   21.4462   45.2609 H   0  0  0  0  0  0  0  0  0  0  0  0
   58.2501   20.5184   43.7450 H   0  0  0  0  0  0  0  0  0  0  0  0
   59.3293   21.9544   43.7450 H   0  0  0  0  0  0  0  0  0  0  0  0
  1  2  1  0
  2  3  2  0
  3  4  1  0
  4  5  2  0
  5  6  1  0
  6  7  2  0
  7  8  1  0
  8  9  1  0
  9 10  2  0
  9 11  1  0
 11 12  1  0
 12 13  1  0
 13 14  2  0
 14 15  1  0
 15 16  2  0
 16 17  1  0
 17 18  1  0
  7  2  1  0
 17 13  1  0
  1 19  1  0
  1 20  1  0
  1 21  1  0
  3 22  1  0
  4 23  1  0
  5 24  1  0
  6 25  1  0
 11 26  1  0
 11 27  1  0
 14 28  1  0
 18 29  1  0
 18 30  1  0
 18 31  1  0
M  CHG  2   8  -1  14   1
M  END
>  <UniqueID>  (7) 
7

>  <SMILES>  (7) 
Cc1ccccc1[N-]C(=O)CSc1[nH+]nnn1C

>  <Energy>  (7) 
72.6653529061796

>  <Genealogy>  (7) 
Cc1ccccc1[N-]C(=O)CSc1[nH+]nnn1C (protonated)
Cc1ccccc1[N-]C(=O)CSc1[nH+]nnn1C (3D coordinates assigned)
Cc1ccccc1[N-]C(=O)CSc1[nH+]nnn1C (optimized conformer: 72.6653529061796 kcal/mol)

>  <smiles>  (7) 
Cc1ccccc1NC(=O)CSc1nnnn1C

>  <score_type>  (7) 
oracle

>  <origin>  (7) 
adg

>  <m_score__min__energy>  (7) 
-7.3700000000000001

>  <m_primary>  (7) 
energy

$$$$
7:0
     RDKit          3D

 65 69  0  0  0  0  0  0  0  0999 V2000
   63.2260   33.8360   46.4550 C   0  0  0  0  0  0  0  0  0  0  0  0
   62.3450   32.7740   47.1150 C   0  0  0  0  0  0  0  0  0  0  0  0
   61.9910   33.1270   48.5120 N   0  0  0  0  0  0  0  0  0  0  0  0
   63.1950   33.2310   49.3690 C   0  0  0  0  0  0  0  0  0  0  0  0
   63.6810   31.8410   49.7730 C   0  0  0  0  0  0  0  0  0  0  0  0
   61.1070   34.3140   48.6410 C   0  0  0  0  0  0  0  0  0  0  0  0
   60.0420   34.1980   49.7450 C   0  0  0  0  0  0  0  0  0  0  0  0
   60.3560   33.0890   50.5740 O   0  0  0  0  0  0  0  0  0  0  0  0
   59.2290   32.6340   51.3030 C   0  0  0  0  0  0  0  0  0  0  0  0
   58.3400   31.7350   50.4300 C   0  0  0  0  0  0  0  0  0  0  0  0
   59.0500   30.6580   49.8450 O   0  0  0  0  0  0  0  0  0  0  0  0
   59.6090   31.1050   48.6830 N   0  0  0  0  0  0  0  0  0  0  0  0
   59.0080   30.8150   47.4000 C   0  0  0  0  0  0  0  0  0  0  0  0
   58.6780   31.8270   46.4440 C   0  0  0  0  0  0  0  0  0  0  0  0
   58.8450   33.2040   46.6920 C   0  0  0  0  0  0  0  0  0  0  0  0
   58.5010   34.1550   45.7280 C   0  0  0  0  0  0  0  0  0  0  0  0
   57.9800   33.7550   44.4990 C   0  0  0  0  0  0  0  0  0  0  0  0
   57.7910   32.4020   44.2270 C   0  0  0  0  0  0  0  0  0  0  0  0
   58.1290   31.4330   45.1860 C   0  0  0  0  0  0  0  0  0  0  0  0
   57.9150   30.0800   44.9000 C   0  0  0  0  0  0  0  0  0  0  0  0
   58.2410   29.1440   45.8700 C   0  0  0  0  0  0  0  0  0  0  0  0
   58.7570   29.5100   47.0650 N   0  0  0  0  0  0  0  0  0  0  0  0
   59.0330   28.3130   47.8750 C   0  0  0  0  0  0  0  0  0  0  0  0
   58.6020   27.1980   46.9740 C   0  0  0  0  0  0  0  0  0  0  0  0
   58.6470   25.8230   47.2050 C   0  0  0  0  0  0  0  0  0  0  0  0
   58.1940   24.9640   46.1890 C   0  0  0  0  0  0  0  0  0  0  0  0
   57.7360   25.4890   44.9580 C   0  0  0  0  0  0  0  0  0  0  0  0
   57.6860   26.8780   44.7510 C   0  0  0  0  0  0  0  0  0  0  0  0
   58.1290   27.7050   45.7850 C   0  0  0  0  0  0  0  0  0  0  0  0
   57.3400   24.6030   43.9520 O   0  0  0  0  0  0  0  0  0  0  0  0
   57.6520   23.2100   44.0320 C   0  0  0  0  0  0  0  0  0  0  0  0
   57.4970   22.7120   45.4750 C   0  0  0  0  0  0  0  0  0  0  0  0
   58.1920   23.5780   46.3760 O   0  0  0  0  0  0  0  0  0  0  0  0
   63.7229   34.4350   47.2324 H   0  0  0  0  0  0  0  0  0  0  0  0
   63.9856   33.3449   45.8290 H   0  0  0  0  0  0  0  0  0  0  0  0
   62.6031   34.4918   45.8290 H   0  0  0  0  0  0  0  0  0  0  0  0
   61.4189   32.6693   46.5308 H   0  0  0  0  0  0  0  0  0  0  0  0
   62.9127   31.8321   47.1387 H   0  0  0  0  0  0  0  0  0  0  0  0
   63.9922   33.7466   48.8134 H   0  0  0  0  0  0  0  0  0  0  0  0
   62.9398   33.7980   50.2764 H   0  0  0  0  0  0  0  0  0  0  0  0
   63.7071   31.7662   50.8701 H   0  0  0  0  0  0  0  0  0  0  0  0
   62.9952   31.0813   49.3699 H   0  0  0  0  0  0  0  0  0  0  0  0
   64.6908   31.6741   49.3699 H   0  0  0  0  0  0  0  0  0  0  0  0
   61.7363   35.1890   48.8610 H   0  0  0  0  0  0  0  0  0  0  0  0
   60.5630   34.4044   47.6892 H   0  0  0  0  0  0  0  0  0  0  0  0
   60.0333   35.1183   50.3475 H   0  0  0  0  0  0  0  0  0  0  0  0
   59.0501   34.0546   49.2916 H   0  0  0  0  0  0  0  0  0  0  0  0
   59.5724   32.0615   52.1773 H   0  0  0  0  0  0  0  0  0  0  0  0
   58.6408   33.5067   51.6231 H   0  0  0  0  0  0  0  0  0  0  0  0
   57.5337   31.3249   51.0559 H   0  0  0  0  0  0  0  0  0  0  0  0
   57.9475   32.3551   49.6106 H   0  0  0  0  0  0  0  0  0  0  0  0
   60.1830   31.9790   48.7340 H   0  0  0  0  0  0  0  0  0  0  0  0
   59.2522   33.5351   47.6587 H   0  0  0  0  0  0  0  0  0  0  0  0
   58.6422   35.2251   45.9403 H   0  0  0  0  0  0  0  0  0  0  0  0
   57.7175   34.5090   43.7423 H   0  0  0  0  0  0  0  0  0  0  0  0
   57.3753   32.0911   43.2572 H   0  0  0  0  0  0  0  0  0  0  0  0
   57.4990   29.7670   43.9310 H   0  0  0  0  0  0  0  0  0  0  0  0
   60.1033   28.2361   48.1169 H   0  0  0  0  0  0  0  0  0  0  0  0
   58.5152   28.3143   48.8455 H   0  0  0  0  0  0  0  0  0  0  0  0
   59.0267   25.4220   48.1564 H   0  0  0  0  0  0  0  0  0  0  0  0
   57.3107   27.2993   43.8067 H   0  0  0  0  0  0  0  0  0  0  0  0
   56.9694   22.6471   43.3785 H   0  0  0  0  0  0  0  0  0  0  0  0
   58.6928   23.0572   43.7104 H   0  0  0  0  0  0  0  0  0  0  0  0
   56.4295   22.6938   45.7399 H   0  0  0  0  0  0  0  0  0  0  0  0
   57.9216   21.7002   45.5520 H   0  0  0  0  0  0  0  0  0  0  0  0
  1  2  1  0
  2  3  1  0
  3  4  1  0
  4  5  1  0
  3  6  1  0
  6  7  1  0
  7  8  1  0
  8  9  1  0
  9 10  1  0
 10 11  1  0
 11 12  1  0
 12 13  1  0
 13 14  2  0
 14 15  1  0
 15 16  2  0
 16 17  1  0
 17 18  2  0
 18 19  1  0
 19 20  2  0
 20 21  1  0
 21 22  2  0
 22 23  1  0
 23 24  1  0
 24 25  2  0
 25 26  1  0
 26 27  2  0
 27 28  1  0
 28 29  2  0
 27 30  1  0
 30 31  1  0
 31 32  1  0
 32 33  1  0
 22 13  1  0
 29 24  1  0
 19 14  1  0
 29 21  1  0
 33 26  1  0
  1 34  1  0
  1 35  1  0
  1 36  1  0
  2 37  1  0
  2 38  1  0
  4 39  1  0
  4 40  1  0
  5 41  1  0
  5 42  1  0
  5 43  1  0
  6 44  1  0
  6 45  1  0
  7 46  1  0
  7 47  1  0
  9 48  1  0
  9 49  1  0
 10 50  1  0
 10 51  1  0
 12 52  1  0
 15 53  1  0
 16 54  1  0
 17 55  1  0
 18 56  1  0
 20 57  1  0
 23 58  1  0
 23 59  1  0
 25 60  1  0
 28 61  1  0
 31 62  1  0
 31 63  1  0
 32 64  1  0
 32 65  1  0
M  CHG  1  22   1
M  END
>  <UniqueID>  (8) 
8

>  <SMILES>  (8) 
CCN(CC)CCOCCONc1c2ccccc2cc2[n+]1Cc1cc3c(cc1-2)OCCO3

>  <Energy>  (8) 
113.80014835724899

>  <Genealogy>  (8) 
CCN(CC)CCOCCONc1c2ccccc2cc2[n+]1Cc1cc3c(cc1-2)OCCO3 (3D coordinates assigned)
CCN(CC)CCOCCONc1c2ccccc2cc2[n+]1Cc1cc3c(cc1-2)OCCO3 (nonaromatic ring conformer: 113.80014835724899 kcal/mol)

>  <smiles>  (8) 
CCN(CC)CCOCCONc1c2ccccc2cc2[n+]1Cc1cc3c(cc1-2)OCCO3

>  <score_type>  (8) 
oracle

>  <origin>  (8) 
adg

>  <m_score__min__energy>  (8) 
-7.1900000000000004

>  <m_primary>  (8) 
energy

$$$$
8:0
     RDKit          3D

 40 42  0  0  0  0  0  0  0  0999 V2000
   59.5380   29.5210   44.5050 C   0  0  0  0  0  0  0  0  0  0  0  0
   58.1090   29.7790   44.6750 N   0  0  0  0  0  0  0  0  0  0  0  0
   57.4040   30.8380   44.2260 C   0  0  0  0  0  0  0  0  0  0  0  0
   58.0980   32.2530   43.3640 S   0  0  0  0  0  0  0  0  0  0  0  0
   57.4420   33.4920   44.5370 C   0  0  0  0  0  0  0  0  0  0  0  0
   58.5370   34.4560   45.0000 C   0  0  0  0  0  0  0  0  0  0  0  0
   58.5780   34.5170   46.4780 N   0  0  0  0  0  0  0  0  0  0  0  0
   57.7670   33.4480   47.1240 C   0  0  0  0  0  0  0  0  0  0  0  0
   58.6020   32.3070   47.7440 C   0  0  0  0  0  0  0  0  0  0  0  0
   59.8480   32.0140   46.9090 C   0  0  0  0  0  0  0  0  0  0  0  0
   60.7320   33.2630   46.7490 C   0  0  0  0  0  0  0  0  0  0  0  0
   59.9630   34.5770   46.9920 C   0  0  0  0  0  0  0  0  0  0  0  0
   56.0920   30.7110   44.4960 N   0  0  0  0  0  0  0  0  0  0  0  0
   55.9430   29.5640   45.1430 N   0  0  0  0  0  0  0  0  0  0  0  0
   57.1650   29.0080   45.2620 C   0  0  0  0  0  0  0  0  0  0  0  0
   57.3810   27.7150   45.9380 C   0  0  0  0  0  0  0  0  0  0  0  0
   58.4750   27.3290   46.7100 C   0  0  0  0  0  0  0  0  0  0  0  0
   58.3420   26.0480   47.2600 C   0  0  0  0  0  0  0  0  0  0  0  0
   57.1460   25.4230   46.9400 C   0  0  0  0  0  0  0  0  0  0  0  0
   56.2520   26.4690   45.9760 S   0  0  0  0  0  0  0  0  0  0  0  0
   60.0151   29.4349   45.4924 H   0  0  0  0  0  0  0  0  0  0  0  0
   59.6775   28.5832   43.9473 H   0  0  0  0  0  0  0  0  0  0  0  0
   59.9966   30.3509   43.9473 H   0  0  0  0  0  0  0  0  0  0  0  0
   56.6449   34.0665   44.0424 H   0  0  0  0  0  0  0  0  0  0  0  0
   57.0514   32.9622   45.4183 H   0  0  0  0  0  0  0  0  0  0  0  0
   59.5101   34.1068   44.6243 H   0  0  0  0  0  0  0  0  0  0  0  0
   58.3188   35.4599   44.6069 H   0  0  0  0  0  0  0  0  0  0  0  0
   57.1641   33.9068   47.9215 H   0  0  0  0  0  0  0  0  0  0  0  0
   57.1526   32.9953   46.3318 H   0  0  0  0  0  0  0  0  0  0  0  0
   58.9110   32.5995   48.7584 H   0  0  0  0  0  0  0  0  0  0  0  0
   57.9818   31.3989   47.7728 H   0  0  0  0  0  0  0  0  0  0  0  0
   60.4322   31.2249   47.4050 H   0  0  0  0  0  0  0  0  0  0  0  0
   59.5228   31.6934   45.9083 H   0  0  0  0  0  0  0  0  0  0  0  0
   61.5598   33.2020   47.4709 H   0  0  0  0  0  0  0  0  0  0  0  0
   61.0949   33.2799   45.7107 H   0  0  0  0  0  0  0  0  0  0  0  0
   59.9311   34.7739   48.0738 H   0  0  0  0  0  0  0  0  0  0  0  0
   60.4882   35.3800   46.4541 H   0  0  0  0  0  0  0  0  0  0  0  0
   59.3561   27.9675   46.8714 H   0  0  0  0  0  0  0  0  0  0  0  0
   59.1148   25.5806   47.8879 H   0  0  0  0  0  0  0  0  0  0  0  0
   56.8366   24.4175   47.2614 H   0  0  0  0  0  0  0  0  0  0  0  0
  1  2  1  0
  2  3  1  0
  3  4  1  0
  4  5  1  0
  5  6  1  0
  6  7  1  0
  7  8  1  0
  8  9  1  0
  9 10  1  0
 10 11  1  0
 11 12  1  0
  3 13  2  0
 13 14  1  0
 14 15  2  0
 15 16  1  0
 16 17  2  0
 17 18  1  0
 18 19  2  0
 19 20  1  0
 15  2  1  0
 20 16  1  0
 12  7  1  0
  1 21  1  0
  1 22  1  0
  1 23  1  0
  5 24  1  0
  5 25  1  0
  6 26  1  0
  6 27  1  0
  8 28  1  0
  8 29  1  0
  9 30  1  0
  9 31  1  0
 10 32  1  0
 10 33  1  0
 11 34  1  0
 11 35  1  0
 12 36  1  0
 12 37  1  0
 17 38  1  0
 18 39  1  0
 19 40  1  0
M  END
>  <UniqueID>  (9) 
9

>  <SMILES>  (9) 
Cn1c(SCCN2CCCCC2)nnc1-c1cccs1

>  <Energy>  (9) 
105.77643040918598

>  <Genealogy>  (9) 
Cn1c(SCCN2CCCCC2)nnc1-c1cccs1 (3D coordinates assigned)
Cn1c(SCCN2CCCCC2)nnc1-c1cccs1 (nonaromatic ring conformer: 105.77643040918598 kcal/mol)

>  <smiles>  (9) 
Cn1c(SCCN2CCCCC2)nnc1-c1cccs1

>  <score_type>  (9) 
oracle

>  <origin>  (9) 
adg

>  <m_score__min__energy>  (9) 
-7.6299999999999999

>  <m_primary>  (9) 
energy

$$$$
9:0
     RDKit          3D

 38 40  0  0  0  0  0  0  0  0999 V2000
   55.5610   29.7210   43.3320 C   0  0  0  0  0  0  0  0  0  0  0  0
   56.7650   30.0140   44.1000 N   0  0  0  0  0  0  0  0  0  0  0  0
   56.8970   31.0820   44.8700 N   0  0  0  0  0  0  0  0  0  0  0  0
   58.1340   31.0530   45.4100 C   0  0  0  0  0  0  0  0  0  0  0  0
   58.6480   32.0890   46.3380 C   0  0  0  0  0  0  0  0  0  0  0  0
   58.4160   33.4590   46.1070 C   0  0  0  0  0  0  0  0  0  0  0  0
   58.9090   34.4210   46.9950 C   0  0  0  0  0  0  0  0  0  0  0  0
   59.6390   34.0300   48.1200 C   0  0  0  0  0  0  0  0  0  0  0  0
   60.1160   34.9650   48.9780 F   0  0  0  0  0  0  0  0  0  0  0  0
   59.8760   32.6750   48.3600 C   0  0  0  0  0  0  0  0  0  0  0  0
   59.3850   31.7090   47.4760 C   0  0  0  0  0  0  0  0  0  0  0  0
   58.8080   29.9270   44.9600 C   0  0  0  0  0  0  0  0  0  0  0  0
   57.9060   29.2920   44.1300 C   0  0  0  0  0  0  0  0  0  0  0  0
   58.1440   27.9910   43.4090 C   0  0  0  0  0  0  0  0  0  0  0  0
   57.4060   26.8720   44.0260 N   0  0  0  0  0  0  0  0  0  0  0  0
   58.2520   25.9960   44.8570 C   0  0  0  0  0  0  0  0  0  0  0  0
   58.8370   26.7280   46.0320 C   0  0  0  0  0  0  0  0  0  0  0  0
   60.1820   26.7810   46.3730 C   0  0  0  0  0  0  0  0  0  0  0  0
   60.4270   27.5280   47.5310 C   0  0  0  0  0  0  0  0  0  0  0  0
   59.2800   28.0640   48.1020 C   0  0  0  0  0  0  0  0  0  0  0  0
   57.9600   27.6060   47.1660 S   0  0  0  0  0  0  0  0  0  0  0  0
   54.7273   29.5181   44.0204 H   0  0  0  0  0  0  0  0  0  0  0  0
   55.3112   30.5846   42.6981 H   0  0  0  0  0  0  0  0  0  0  0  0
   55.7360   28.8392   42.6981 H   0  0  0  0  0  0  0  0  0  0  0  0
   57.8433   33.7746   45.2224 H   0  0  0  0  0  0  0  0  0  0  0  0
   58.7213   35.4884   46.8068 H   0  0  0  0  0  0  0  0  0  0  0  0
   60.4501   32.3668   49.2462 H   0  0  0  0  0  0  0  0  0  0  0  0
   59.5761   30.6435   47.6713 H   0  0  0  0  0  0  0  0  0  0  0  0
   59.8318   29.6110   45.2088 H   0  0  0  0  0  0  0  0  0  0  0  0
   57.8163   28.0991   42.3645 H   0  0  0  0  0  0  0  0  0  0  0  0
   59.2183   27.7622   43.4683 H   0  0  0  0  0  0  0  0  0  0  0  0
   56.9600   26.3040   43.2670 H   0  0  0  0  0  0  0  0  0  0  0  0
   56.6320   27.2490   44.6220 H   0  0  0  0  0  0  0  0  0  0  0  0
   57.6409   25.1599   45.2279 H   0  0  0  0  0  0  0  0  0  0  0  0
   59.0832   25.6353   44.2333 H   0  0  0  0  0  0  0  0  0  0  0  0
   60.9743   26.2862   45.7921 H   0  0  0  0  0  0  0  0  0  0  0  0
   61.4334   27.6766   47.9495 H   0  0  0  0  0  0  0  0  0  0  0  0
   59.2415   28.6823   49.0110 H   0  0  0  0  0  0  0  0  0  0  0  0
  1  2  1  0
  2  3  1  0
  3  4  2  0
  4  5  1  0
  5  6  2  0
  6  7  1  0
  7  8  2  0
  8  9  1  0
  8 10  1  0
 10 11  2  0
  4 12  1  0
 12 13  2  0
 13 14  1  0
 14 15  1  0
 15 16  1  0
 16 17  1  0
 17 18  2  0
 18 19  1  0
 19 20  2  0
 20 21  1  0
 13  2  1  0
 21 17  1  0
 11  5  1  0
  1 22  1  0
  1 23  1  0
  1 24  1  0
  6 25  1  0
  7 26  1  0
 10 27  1  0
 11 28  1  0
 12 29  1  0
 14 30  1  0
 14 31  1  0
 15 32  1  0
 15 33  1  0
 16 34  1  0
 16 35  1  0
 18 36  1  0
 19 37  1  0
 20 38  1  0
M  CHG  1  15   1
M  END
>  <UniqueID>  (10) 
10

>  <SMILES>  (10) 
Cn1nc(-c2ccc(F)cc2)cc1C[NH2+]Cc1cccs1

>  <Energy>  (10) 
95.29101780339941

>  <Genealogy>  (10) 
Cn1nc(-c2ccc(F)cc2)cc1C[NH2+]Cc1cccs1 (protonated)
Cn1nc(-c2ccc(F)cc2)cc1C[NH2+]Cc1cccs1 (3D coordinates assigned)
Cn1nc(-c2ccc(F)cc2)cc1C[NH2+]Cc1cccs1 (optimized conformer: 95.29101780339941 kcal/mol)

>  <smiles>  (10) 
Cn1nc(-c2ccc(F)cc2)cc1CNCc1cccs1

>  <score_type>  (10) 
oracle

>  <origin>  (10) 
adg

>  <m_score__min__energy>  (10) 
-5.96

>  <m_primary>  (10) 
energy

$$$$
10:0
     RDKit          3D

 55 57  0  0  0  0  0  0  0  0999 V2000
   56.5930   30.4570   43.1520 C   0  0  0  0  0  0  0  0  0  0  0  0
   55.5490   29.7930   44.0400 C   0  0  0  0  0  0  0  0  0  0  0  0
   56.1810   29.2800   45.2010 O   0  0  0  0  0  0  0  0  0  0  0  0
   56.9660   28.2020   44.8690 N   0  0  0  0  0  0  0  0  0  0  0  0
   57.0070   27.2770   46.0070 C   0  0  0  0  0  0  0  0  0  0  0  0
   58.4440   26.8130   46.3040 C   0  0  0  0  0  0  0  0  0  0  0  0
   59.5400   27.5560   45.5180 C   0  0  0  0  0  0  0  0  0  0  0  0
   59.8240   28.9640   46.0650 C   0  0  0  0  0  0  0  0  0  0  0  0
   58.5800   29.7480   46.1640 N   0  0  0  0  0  0  0  0  0  0  0  0
   58.8120   30.9830   46.9020 C   0  0  0  0  0  0  0  0  0  0  0  0
   58.9750   30.9560   48.3150 C   0  0  0  0  0  0  0  0  0  0  0  0
   59.1190   32.1800   49.0220 C   0  0  0  0  0  0  0  0  0  0  0  0
   59.2750   33.3660   48.3360 N   0  0  0  0  0  0  0  0  0  0  0  0
   59.7080   34.5850   49.0560 C   0  0  0  0  0  0  0  0  0  0  0  0
   59.0040   33.4300   46.9840 C   0  0  0  0  0  0  0  0  0  0  0  0
   58.9190   34.6780   46.3090 C   0  0  0  0  0  0  0  0  0  0  0  0
   58.6550   34.7450   44.9450 C   0  0  0  0  0  0  0  0  0  0  0  0
   58.4550   33.5820   44.2170 C   0  0  0  0  0  0  0  0  0  0  0  0
   58.5070   32.3430   44.8500 C   0  0  0  0  0  0  0  0  0  0  0  0
   58.7750   32.2400   46.2400 C   0  0  0  0  0  0  0  0  0  0  0  0
   59.1280   32.1770   50.5470 C   0  0  0  0  0  0  0  0  0  0  0  0
   58.4900   30.9290   51.1460 C   0  0  0  0  0  0  0  0  0  0  0  0
   59.1750   29.7050   50.5700 C   0  0  0  0  0  0  0  0  0  0  0  0
   58.9380   29.6200   49.0610 C   0  0  0  0  0  0  0  0  0  0  0  0
   57.3546   30.9414   43.7808 H   0  0  0  0  0  0  0  0  0  0  0  0
   57.0712   29.6968   42.5169 H   0  0  0  0  0  0  0  0  0  0  0  0
   56.1072   31.2125   42.5169 H   0  0  0  0  0  0  0  0  0  0  0  0
   54.7896   30.5335   44.3315 H   0  0  0  0  0  0  0  0  0  0  0  0
   55.0649   28.9724   43.4902 H   0  0  0  0  0  0  0  0  0  0  0  0
   56.6480   27.7050   44.0000 H   0  0  0  0  0  0  0  0  0  0  0  0
   56.6045   27.7852   46.8956 H   0  0  0  0  0  0  0  0  0  0  0  0
   56.4034   26.3925   45.7553 H   0  0  0  0  0  0  0  0  0  0  0  0
   58.6351   26.9583   47.3775 H   0  0  0  0  0  0  0  0  0  0  0  0
   58.4994   25.7600   45.9908 H   0  0  0  0  0  0  0  0  0  0  0  0
   60.4676   26.9670   45.5686 H   0  0  0  0  0  0  0  0  0  0  0  0
   59.1817   27.6715   44.4844 H   0  0  0  0  0  0  0  0  0  0  0  0
   60.2766   28.8783   47.0639 H   0  0  0  0  0  0  0  0  0  0  0  0
   60.5106   29.4779   45.3762 H   0  0  0  0  0  0  0  0  0  0  0  0
   57.8230   29.1830   46.6060 H   0  0  0  0  0  0  0  0  0  0  0  0
   58.2170   29.9380   45.2070 H   0  0  0  0  0  0  0  0  0  0  0  0
   59.6464   34.4116   50.1405 H   0  0  0  0  0  0  0  0  0  0  0  0
   60.7460   34.8239   48.7812 H   0  0  0  0  0  0  0  0  0  0  0  0
   59.0533   35.4252   48.7812 H   0  0  0  0  0  0  0  0  0  0  0  0
   59.0648   35.6090   46.8764 H   0  0  0  0  0  0  0  0  0  0  0  0
   58.6048   35.7224   44.4429 H   0  0  0  0  0  0  0  0  0  0  0  0
   58.2548   33.6384   43.1368 H   0  0  0  0  0  0  0  0  0  0  0  0
   58.3375   31.4284   44.2629 H   0  0  0  0  0  0  0  0  0  0  0  0
   60.1711   32.2365   50.8911 H   0  0  0  0  0  0  0  0  0  0  0  0
   58.5345   33.0411   50.8803 H   0  0  0  0  0  0  0  0  0  0  0  0
   58.6113   30.9403   52.2392 H   0  0  0  0  0  0  0  0  0  0  0  0
   57.4172   30.9052   50.9042 H   0  0  0  0  0  0  0  0  0  0  0  0
   60.2558   29.7700   50.7638 H   0  0  0  0  0  0  0  0  0  0  0  0
   58.7581   28.8059   51.0472 H   0  0  0  0  0  0  0  0  0  0  0  0
   59.7143   28.9697   48.6315 H   0  0  0  0  0  0  0  0  0  0  0  0
   57.9168   29.2308   48.9357 H   0  0  0  0  0  0  0  0  0  0  0  0
  1  2  1  0
  2  3  1  0
  3  4  1  0
  4  5  1  0
  5  6  1  0
  6  7  1  0
  7  8  1  0
  8  9  1  0
  9 10  1  0
 10 11  2  0
 11 12  1  0
 12 13  2  0
 13 14  1  0
 13 15  1  0
 15 16  2  0
 16 17  1  0
 17 18  2  0
 18 19  1  0
 19 20  2  0
 12 21  1  0
 21 22  1  0
 22 23  1  0
 23 24  1  0
 20 10  1  0
 24 11  1  0
 20 15  1  0
  1 25  1  0
  1 26  1  0
  1 27  1  0
  2 28  1  0
  2 29  1  0
  4 30  1  0
  5 31  1  0
  5 32  1  0
  6 33  1  0
  6 34  1  0
  7 35  1  0
  7 36  1  0
  8 37  1  0
  8 38  1  0
  9 39  1  0
  9 40  1  0
 14 41  1  0
 14 42  1  0
 14 43  1  0
 16 44  1  0
 17 45  1  0
 18 46  1  0
 19 47  1  0
 21 48  1  0
 21 49  1  0
 22 50  1  0
 22 51  1  0
 23 52  1  0
 23 53  1  0
 24 54  1  0
 24 55  1  0
M  CHG  2   9   1  13   1
M  END
>  <UniqueID>  (11) 
11

>  <SMILES>  (11) 
CCONCCCC[NH2+]c1c2c([n+](C)c3ccccc13)CCCC2

>  <Energy>  (11) 
74.13917533423535

>  <Genealogy>  (11) 
CCONCCCC[NH2+]c1c2c([n+](C)c3ccccc13)CCCC2 (protonated)
CCONCCCC[NH2+]c1c2c([n+](C)c3ccccc13)CCCC2 (3D coordinates assigned)
CCONCCCC[NH2+]c1c2c([n+](C)c3ccccc13)CCCC2 (nonaromatic ring conformer: 74.13917533423535 kcal/mol)

>  <smiles>  (11) 
CCONCCCCNc1c2c([n+](C)c3ccccc13)CCCC2

>  <score_type>  (11) 
oracle

>  <origin>  (11) 
adg

>  <m_score__min__energy>  (11) 
-4.0099999999999998

>  <m_primary>  (11) 
energy

$$$$
11:0
     RDKit          3D

 45 46  0  0  0  0  0  0  0  0999 V2000
   56.9940   30.8790   42.8820 C   0  0  0  0  0  0  0  0  0  0  0  0
   57.5060   31.9900   43.8050 C   0  0  0  0  0  0  0  0  0  0  0  0
   56.6520   32.1850   44.9890 N   0  0  0  0  0  0  0  0  0  0  0  0
   57.0170   33.3720   45.7750 C   0  0  0  0  0  0  0  0  0  0  0  0
   58.4550   33.2880   46.2310 C   0  0  0  0  0  0  0  0  0  0  0  0
   59.3070   34.3770   45.9760 C   0  0  0  0  0  0  0  0  0  0  0  0
   60.6570   34.3210   46.3290 C   0  0  0  0  0  0  0  0  0  0  0  0
   61.1760   33.1720   46.9280 C   0  0  0  0  0  0  0  0  0  0  0  0
   63.0240   33.0930   47.4020 Br  0  0  0  0  0  0  0  0  0  0  0  0
   60.3430   32.0790   47.1820 C   0  0  0  0  0  0  0  0  0  0  0  0
   58.9810   32.1350   46.8590 C   0  0  0  0  0  0  0  0  0  0  0  0
   58.1620   31.0000   47.1480 N   0  0  0  0  0  0  0  0  0  0  0  0
   58.1100   29.5970   46.1310 S   0  0  0  0  0  0  0  0  0  0  0  0
   56.7220   29.4500   45.5720 O   0  0  0  0  0  0  0  0  0  0  0  0
   59.0810   29.7720   44.9980 O   0  0  0  0  0  0  0  0  0  0  0  0
   58.5160   28.1080   47.0400 C   0  0  0  0  0  0  0  0  0  0  0  0
   58.5140   26.8770   46.1270 C   0  0  0  0  0  0  0  0  0  0  0  0
   57.8290   25.6710   46.7830 C   0  0  0  0  0  0  0  0  0  0  0  0
   57.2350   24.7750   45.7750 N   0  0  0  0  0  0  0  0  0  0  0  0
   58.0340   23.8530   45.1570 C   0  0  0  0  0  0  0  0  0  0  0  0
   57.5130   23.0010   44.1860 C   0  0  0  0  0  0  0  0  0  0  0  0
   56.1660   23.1110   43.8570 C   0  0  0  0  0  0  0  0  0  0  0  0
   55.6620   22.3580   42.9840 O   0  0  0  0  0  0  0  0  0  0  0  0
   55.3940   24.0360   44.4810 N   0  0  0  0  0  0  0  0  0  0  0  0
   55.9090   24.8640   45.4280 C   0  0  0  0  0  0  0  0  0  0  0  0
   55.1530   25.7110   45.9740 O   0  0  0  0  0  0  0  0  0  0  0  0
   56.6101   30.0459   43.4890 H   0  0  0  0  0  0  0  0  0  0  0  0
   56.1865   31.2727   42.2472 H   0  0  0  0  0  0  0  0  0  0  0  0
   57.8179   30.5209   42.2472 H   0  0  0  0  0  0  0  0  0  0  0  0
   58.5199   31.7281   44.1419 H   0  0  0  0  0  0  0  0  0  0  0  0
   57.4972   32.9285   43.2313 H   0  0  0  0  0  0  0  0  0  0  0  0
   56.7140   31.3400   45.6060 H   0  0  0  0  0  0  0  0  0  0  0  0
   56.8869   34.2705   45.1540 H   0  0  0  0  0  0  0  0  0  0  0  0
   56.3671   33.4235   46.6610 H   0  0  0  0  0  0  0  0  0  0  0  0
   58.9066   35.2812   45.4942 H   0  0  0  0  0  0  0  0  0  0  0  0
   61.3120   35.1832   46.1348 H   0  0  0  0  0  0  0  0  0  0  0  0
   60.7594   31.1689   47.6384 H   0  0  0  0  0  0  0  0  0  0  0  0
   59.5155   28.2218   47.4851 H   0  0  0  0  0  0  0  0  0  0  0  0
   57.7553   27.9610   47.8208 H   0  0  0  0  0  0  0  0  0  0  0  0
   57.9802   27.1257   45.1979 H   0  0  0  0  0  0  0  0  0  0  0  0
   59.5603   26.6035   45.9261 H   0  0  0  0  0  0  0  0  0  0  0  0
   58.5741   25.1097   47.3658 H   0  0  0  0  0  0  0  0  0  0  0  0
   57.0233   26.0424   47.4333 H   0  0  0  0  0  0  0  0  0  0  0  0
   59.0975   23.7836   45.4292 H   0  0  0  0  0  0  0  0  0  0  0  0
   58.1533   22.2568   43.6898 H   0  0  0  0  0  0  0  0  0  0  0  0
  1  2  1  0
  2  3  1  0
  3  4  1  0
  4  5  1  0
  5  6  2  0
  6  7  1  0
  7  8  2  0
  8  9  1  0
  8 10  1  0
 10 11  2  0
 11 12  1  0
 12 13  1  0
 13 14  2  0
 13 15  2  0
 13 16  1  0
 16 17  1  0
 17 18  1  0
 18 19  1  0
 19 20  1  0
 20 21  2  0
 21 22  1  0
 22 23  2  0
 22 24  1  0
 24 25  1  0
 25 26  2  0
 11  5  1  0
 25 19  1  0
  1 27  1  0
  1 28  1  0
  1 29  1  0
  2 30  1  0
  2 31  1  0
  3 32  1  0
  4 33  1  0
  4 34  1  0
  6 35  1  0
  7 36  1  0
 10 37  1  0
 16 38  1  0
 16 39  1  0
 17 40  1  0
 17 41  1  0
 18 42  1  0
 18 43  1  0
 20 44  1  0
 21 45  1  0
M  CHG  2  12  -1  24  -1
M  END
>  <UniqueID>  (12) 
12

>  <SMILES>  (12) 
CCNCc1ccc(Br)cc1[N-]S(=O)(=O)CCCn1ccc(=O)[n-]c1=O

>  <Energy>  (12) 
47.14953419834417

>  <Genealogy>  (12) 
CCNCc1ccc(Br)cc1[N-]S(=O)(=O)CCCn1ccc(=O)[n-]c1=O (protonated)
CCNCc1ccc(Br)cc1[N-]S(=O)(=O)CCCn1ccc(=O)[n-]c1=O (3D coordinates assigned)
CCNCc1ccc(Br)cc1[N-]S(=O)(=O)CCCn1ccc(=O)[n-]c1=O (optimized conformer: 47.14953419834417 kcal/mol)

>  <smiles>  (12) 
CCNCc1ccc(Br)cc1NS(=O)(=O)CCCn1ccc(=O)[nH]c1=O

>  <score_type>  (12) 
oracle

>  <origin>  (12) 
adg

>  <m_score__min__energy>  (12) 
-11.27

>  <m_primary>  (12) 
energy

$$$$
12:0
     RDKit          3D

 60 62  0  0  0  0  0  0  0  0999 V2000
   60.6320   29.1370   50.0030 C   0  0  0  0  0  0  0  0  0  0  0  0
   59.4150   30.0550   50.1520 C   0  0  0  0  0  0  0  0  0  0  0  0
   59.6620   31.1510   51.1090 N   0  0  0  0  0  0  0  0  0  0  0  0
   58.8200   32.3360   50.8460 C   0  0  0  0  0  0  0  0  0  0  0  0
   59.6040   33.4650   50.1560 C   0  0  0  0  0  0  0  0  0  0  0  0
   60.8700   33.0070   49.7090 O   0  0  0  0  0  0  0  0  0  0  0  0
   61.9140   33.7580   50.2980 C   0  0  0  0  0  0  0  0  0  0  0  0
   62.8020   34.3700   49.2080 C   0  0  0  0  0  0  0  0  0  0  0  0
   62.7160   33.6630   47.8420 C   0  0  0  0  0  0  0  0  0  0  0  0
   63.3730   32.2670   47.8250 C   0  0  0  0  0  0  0  0  0  0  0  0
   62.4880   31.2310   47.1190 C   0  0  0  0  0  0  0  0  0  0  0  0
   61.1020   31.3240   47.5740 N   0  0  0  0  0  0  0  0  0  0  0  0
   60.0350   31.1830   46.6230 C   0  0  0  0  0  0  0  0  0  0  0  0
   59.3450   32.3170   46.1660 C   0  0  0  0  0  0  0  0  0  0  0  0
   59.6370   33.5950   46.6880 C   0  0  0  0  0  0  0  0  0  0  0  0
   58.9390   34.7170   46.2500 C   0  0  0  0  0  0  0  0  0  0  0  0
   57.9300   34.5840   45.3040 C   0  0  0  0  0  0  0  0  0  0  0  0
   57.6320   33.3320   44.7660 C   0  0  0  0  0  0  0  0  0  0  0  0
   58.3580   32.1760   45.1550 C   0  0  0  0  0  0  0  0  0  0  0  0
   58.1220   30.9390   44.5810 N   0  0  0  0  0  0  0  0  0  0  0  0
   57.2940   30.8400   43.3590 C   0  0  0  0  0  0  0  0  0  0  0  0
   58.6770   29.8010   45.1390 C   0  0  0  0  0  0  0  0  0  0  0  0
   58.2680   28.5000   44.7480 C   0  0  0  0  0  0  0  0  0  0  0  0
   58.8730   27.3620   45.2850 C   0  0  0  0  0  0  0  0  0  0  0  0
   59.8780   27.4870   46.2350 C   0  0  0  0  0  0  0  0  0  0  0  0
   60.2710   28.7490   46.6730 C   0  0  0  0  0  0  0  0  0  0  0  0
   59.6730   29.9130   46.1460 C   0  0  0  0  0  0  0  0  0  0  0  0
   61.0039   28.8565   50.9995 H   0  0  0  0  0  0  0  0  0  0  0  0
   60.3422   28.2306   49.4512 H   0  0  0  0  0  0  0  0  0  0  0  0
   61.4239   29.6646   49.4512 H   0  0  0  0  0  0  0  0  0  0  0  0
   59.1751   30.4886   49.1699 H   0  0  0  0  0  0  0  0  0  0  0  0
   58.5794   29.4512   50.5358 H   0  0  0  0  0  0  0  0  0  0  0  0
   59.4870   30.8010   52.0810 H   0  0  0  0  0  0  0  0  0  0  0  0
   60.6690   31.4340   51.0690 H   0  0  0  0  0  0  0  0  0  0  0  0
   57.9828   32.0386   50.1975 H   0  0  0  0  0  0  0  0  0  0  0  0
   58.4616   32.7167   51.8138 H   0  0  0  0  0  0  0  0  0  0  0  0
   59.0273   33.8272   49.2922 H   0  0  0  0  0  0  0  0  0  0  0  0
   59.7618   34.2759   50.8823 H   0  0  0  0  0  0  0  0  0  0  0  0
   61.4822   34.5634   50.9104 H   0  0  0  0  0  0  0  0  0  0  0  0
   62.5236   33.0943   50.9288 H   0  0  0  0  0  0  0  0  0  0  0  0
   62.5034   35.4198   49.0709 H   0  0  0  0  0  0  0  0  0  0  0  0
   63.8408   34.2597   49.5524 H   0  0  0  0  0  0  0  0  0  0  0  0
   61.6548   33.5509   47.5749 H   0  0  0  0  0  0  0  0  0  0  0  0
   63.2659   34.2864   47.1216 H   0  0  0  0  0  0  0  0  0  0  0  0
   64.3356   32.3326   47.2967 H   0  0  0  0  0  0  0  0  0  0  0  0
   63.5158   31.9428   48.8664 H   0  0  0  0  0  0  0  0  0  0  0  0
   62.5225   31.4090   46.0341 H   0  0  0  0  0  0  0  0  0  0  0  0
   62.8673   30.2267   47.3587 H   0  0  0  0  0  0  0  0  0  0  0  0
   60.8820   31.7430   48.5060 H   0  0  0  0  0  0  0  0  0  0  0  0
   60.4240   33.7058   47.4485 H   0  0  0  0  0  0  0  0  0  0  0  0
   59.1865   35.7100   46.6533 H   0  0  0  0  0  0  0  0  0  0  0  0
   57.3642   35.4692   44.9782 H   0  0  0  0  0  0  0  0  0  0  0  0
   56.8213   33.2391   44.0284 H   0  0  0  0  0  0  0  0  0  0  0  0
   56.2382   30.7138   43.6407 H   0  0  0  0  0  0  0  0  0  0  0  0
   57.4074   31.7581   42.7638 H   0  0  0  0  0  0  0  0  0  0  0  0
   57.6207   29.9745   42.7638 H   0  0  0  0  0  0  0  0  0  0  0  0
   57.4608   28.3859   44.0095 H   0  0  0  0  0  0  0  0  0  0  0  0
   58.5524   26.3630   44.9544 H   0  0  0  0  0  0  0  0  0  0  0  0
   60.3642   26.5881   46.6420 H   0  0  0  0  0  0  0  0  0  0  0  0
   61.0561   28.8393   47.4381 H   0  0  0  0  0  0  0  0  0  0  0  0
  1  2  1  0
  2  3  1  0
  3  4  1  0
  4  5  1  0
  5  6  1  0
  6  7  1  0
  7  8  1  0
  8  9  1  0
  9 10  1  0
 10 11  1  0
 11 12  1  0
 12 13  1  0
 13 14  2  0
 14 15  1  0
 15 16  2  0
 16 17  1  0
 17 18  2  0
 18 19  1  0
 19 20  2  0
 20 21  1  0
 20 22  1  0
 22 23  2  0
 23 24  1  0
 24 25  2  0
 25 26  1  0
 26 27  2  0
 27 13  1  0
 19 14  1  0
 27 22  1  0
  1 28  1  0
  1 29  1  0
  1 30  1  0
  2 31  1  0
  2 32  1  0
  3 33  1  0
  3 34  1  0
  4 35  1  0
  4 36  1  0
  5 37  1  0
  5 38  1  0
  7 39  1  0
  7 40  1  0
  8 41  1  0
  8 42  1  0
  9 43  1  0
  9 44  1  0
 10 45  1  0
 10 46  1  0
 11 47  1  0
 11 48  1  0
 12 49  1  0
 15 50  1  0
 16 51  1  0
 17 52  1  0
 18 53  1  0
 21 54  1  0
 21 55  1  0
 21 56  1  0
 23 57  1  0
 24 58  1  0
 25 59  1  0
 26 60  1  0
M  CHG  2   3   1  20   1
M  END
>  <UniqueID>  (13) 
13

>  <SMILES>  (13) 
CC[NH2+]CCOCCCCCNc1c2ccccc2[n+](C)c2ccccc12

>  <Energy>  (13) 
78.0475805541711

>  <Genealogy>  (13) 
CC[NH2+]CCOCCCCCNc1c2ccccc2[n+](C)c2ccccc12 (protonated)
CC[NH2+]CCOCCCCCNc1c2ccccc2[n+](C)c2ccccc12 (3D coordinates assigned)
CC[NH2+]CCOCCCCCNc1c2ccccc2[n+](C)c2ccccc12 (optimized conformer: 78.0475805541711 kcal/mol)

>  <smiles>  (13) 
CCNCCOCCCCCNc1c2ccccc2[n+](C)c2ccccc12

>  <score_type>  (13) 
oracle

>  <origin>  (13) 
adg

>  <m_score__min__energy>  (13) 
-4.5999999999999996

>  <m_primary>  (13) 
energy

$$$$
13:0
     RDKit          3D

 44 46  0  0  0  0  0  0  0  0999 V2000
   60.3080   29.3310   45.3710 C   0  0  0  0  0  0  0  0  0  0  0  0
   60.2200   29.6300   46.8590 C   0  0  0  0  0  0  0  0  0  0  0  0
   60.1110   31.0250   47.0490 O   0  0  0  0  0  0  0  0  0  0  0  0
   59.0960   31.3230   47.9900 C   0  0  0  0  0  0  0  0  0  0  0  0
   58.1530   32.4080   47.4310 C   0  0  1  0  0  0  0  0  0  0  0  0
   58.5990   33.8590   47.8120 C   0  0  0  0  0  0  0  0  0  0  0  0
   59.4090   34.5740   46.7830 N   0  0  1  0  0  0  0  0  0  0  0  0
   60.7650   34.0550   46.7050 C   0  0  0  0  0  0  0  0  0  0  0  0
   61.2920   33.8440   45.6210 O   0  0  0  0  0  0  0  0  0  0  0  0
   61.5790   33.8440   47.9540 C   0  0  0  0  0  0  0  0  0  0  0  0
   63.0530   33.5070   47.6450 C   0  0  0  0  0  0  0  0  0  0  0  0
   63.6820   32.4750   48.5870 C   0  0  0  0  0  0  0  0  0  0  0  0
   63.3600   32.0950   47.1510 C   0  0  0  0  0  0  0  0  0  0  0  0
   58.7530   34.6210   45.4520 C   0  0  0  0  0  0  0  0  0  0  0  0
   58.2740   33.2640   45.0540 C   0  0  0  0  0  0  0  0  0  0  0  0
   57.9000   32.7770   43.8210 C   0  0  0  0  0  0  0  0  0  0  0  0
   57.4380   31.5220   44.0090 N   0  0  0  0  0  0  0  0  0  0  0  0
   56.8570   30.6700   42.9820 C   0  0  0  0  0  0  0  0  0  0  0  0
   57.4610   31.2100   45.2990 N   0  0  0  0  0  0  0  0  0  0  0  0
   57.9830   32.2700   45.9470 C   0  0  0  0  0  0  0  0  0  0  0  0
   60.6158   28.2851   45.2247 H   0  0  0  0  0  0  0  0  0  0  0  0
   59.3243   29.4922   44.9058 H   0  0  0  0  0  0  0  0  0  0  0  0
   61.0475   29.9993   44.9058 H   0  0  0  0  0  0  0  0  0  0  0  0
   59.3357   29.1313   47.2823 H   0  0  0  0  0  0  0  0  0  0  0  0
   61.1243   29.2589   47.3636 H   0  0  0  0  0  0  0  0  0  0  0  0
   58.5169   30.4118   48.2006 H   0  0  0  0  0  0  0  0  0  0  0  0
   59.5618   31.6942   48.9148 H   0  0  0  0  0  0  0  0  0  0  0  0
   57.1762   32.2438   47.9093 H   0  0  0  0  0  0  0  0  0  0  0  0
   57.6929   34.4528   48.0025 H   0  0  0  0  0  0  0  0  0  0  0  0
   59.2529   33.7527   48.6902 H   0  0  0  0  0  0  0  0  0  0  0  0
   59.4800   35.5710   47.1050 H   0  0  0  0  0  0  0  0  0  0  0  0
   61.5456   34.7634   48.5570 H   0  0  0  0  0  0  0  0  0  0  0  0
   61.1462   32.9905   48.4965 H   0  0  0  0  0  0  0  0  0  0  0  0
   63.3042   34.5158   47.2856 H   0  0  0  0  0  0  0  0  0  0  0  0
   64.7292   32.5867   48.9046 H   0  0  0  0  0  0  0  0  0  0  0  0
   63.4255   32.0665   49.5756 H   0  0  0  0  0  0  0  0  0  0  0  0
   64.1750   31.9305   46.4308 H   0  0  0  0  0  0  0  0  0  0  0  0
   62.7742   31.2961   46.6729 H   0  0  0  0  0  0  0  0  0  0  0  0
   57.8955   35.3086   45.4957 H   0  0  0  0  0  0  0  0  0  0  0  0
   59.4841   34.9712   44.7085 H   0  0  0  0  0  0  0  0  0  0  0  0
   57.9655   33.3110   42.8616 H   0  0  0  0  0  0  0  0  0  0  0  0
   56.2983   29.8507   43.4581 H   0  0  0  0  0  0  0  0  0  0  0  0
   56.1747   31.2637   42.3558 H   0  0  0  0  0  0  0  0  0  0  0  0
   57.6588   30.2516   42.3558 H   0  0  0  0  0  0  0  0  0  0  0  0
  1  2  1  0
  2  3  1  0
  3  4  1  0
  4  5  1  0
  5  6  1  0
  6  7  1  0
  7  8  1  0
  8  9  2  0
  8 10  1  0
 10 11  1  0
 11 12  1  0
 12 13  1  0
  7 14  1  0
 14 15  1  0
 15 16  2  0
 16 17  1  0
 17 18  1  0
 17 19  1  0
 19 20  2  0
 20  5  1  0
 13 11  1  0
 20 15  1  0
  1 21  1  0
  1 22  1  0
  1 23  1  0
  2 24  1  0
  2 25  1  0
  4 26  1  0
  4 27  1  0
  5 28  1  1
  6 29  1  0
  6 30  1  0
  7 31  1  1
 10 32  1  0
 10 33  1  0
 11 34  1  0
 12 35  1  0
 12 36  1  0
 13 37  1  0
 13 38  1  0
 14 39  1  0
 14 40  1  0
 16 41  1  0
 18 42  1  0
 18 43  1  0
 18 44  1  0
M  CHG  1   7   1
M  END
>  <UniqueID>  (14) 
14

>  <SMILES>  (14) 
CCOC[C@H]1C[N@@H+](C(=O)CC2CC2)Cc2cn(C)nc21

>  <Energy>  (14) 
346.6872200292331

>  <Genealogy>  (14) 
CCOCC1C[NH+](C(=O)CC2CC2)Cc2cn(C)nc21 (protonated)
CCOC[C@H]1C[N@@H+](C(=O)CC2CC2)Cc2cn(C)nc21 (chirality)
CCOC[C@H]1C[N@@H+](C(=O)CC2CC2)Cc2cn(C)nc21 (3D coordinates assigned)
CCOC[C@H]1C[N@@H+](C(=O)CC2CC2)Cc2cn(C)nc21 (nonaromatic ring conformer: 346.6872200292331 kcal/mol)

>  <smiles>  (14) 
CCOCC1CN(C(=O)CC2CC2)Cc2cn(C)nc21

>  <score_type>  (14) 
oracle

>  <origin>  (14) 
adg

>  <m_score__min__energy>  (14) 
-5.5099999999999998

>  <m_primary>  (14) 
energy

$$$$
14:0
     RDKit          3D

 82 85  0  0  0  0  0  0  0  0999 V2000
   56.7880   25.6160   46.7260 C   0  0  0  0  0  0  0  0  0  0  0  0
   57.9650   26.4500   47.2260 C   0  0  0  0  0  0  0  0  0  0  0  0
   58.6980   27.0420   46.0830 N   0  0  0  0  0  0  0  0  0  0  0  0
   58.4300   26.3190   44.8150 C   0  0  0  0  0  0  0  0  0  0  0  0
   58.4320   27.2120   43.5670 C   0  0  0  0  0  0  0  0  0  0  0  0
   60.1380   27.2140   46.3880 C   0  0  0  0  0  0  0  0  0  0  0  0
   60.3940   28.4730   47.2360 C   0  0  0  0  0  0  0  0  0  0  0  0
   59.1510   29.2200   47.5290 N   0  0  0  0  0  0  0  0  0  0  0  0
   59.0590   30.4640   46.7730 C   0  0  0  0  0  0  0  0  0  0  0  0
   58.1780   30.5960   45.6600 C   0  0  0  0  0  0  0  0  0  0  0  0
   57.2830   29.5630   45.2820 C   0  0  0  0  0  0  0  0  0  0  0  0
   56.4750   29.6810   44.1570 C   0  0  0  0  0  0  0  0  0  0  0  0
   56.5480   30.8140   43.3640 C   0  0  0  0  0  0  0  0  0  0  0  0
   57.4020   31.8540   43.7140 C   0  0  0  0  0  0  0  0  0  0  0  0
   58.1930   31.7960   44.8900 C   0  0  0  0  0  0  0  0  0  0  0  0
   58.9760   32.8640   45.2760 N   0  0  0  0  0  0  0  0  0  0  0  0
   58.7680   34.1950   44.6600 C   0  0  0  0  0  0  0  0  0  0  0  0
   59.9250   32.7110   46.2640 C   0  0  0  0  0  0  0  0  0  0  0  0
   60.9230   33.6930   46.4840 C   0  0  0  0  0  0  0  0  0  0  0  0
   61.8190   33.5930   47.5440 C   0  0  0  0  0  0  0  0  0  0  0  0
   61.7450   32.5130   48.4270 C   0  0  0  0  0  0  0  0  0  0  0  0
   62.5680   32.3970   49.5590 O   0  0  0  0  0  0  0  0  0  0  0  0
   63.5710   33.3300   49.9630 C   0  0  0  0  0  0  0  0  0  0  0  0
   64.9890   32.7120   49.8390 C   0  0  0  0  0  0  0  0  0  0  0  0
   65.7230   32.5220   51.1310 N   0  0  0  0  0  0  0  0  0  0  0  0
   65.7430   33.8080   51.8790 C   0  0  0  0  0  0  0  0  0  0  0  0
   67.1290   32.0630   50.8690 C   0  0  0  0  0  0  0  0  0  0  0  0
   67.6640   31.1240   51.9680 C   0  0  0  0  0  0  0  0  0  0  0  0
   66.8610   29.8630   52.0770 N   0  0  0  0  0  0  0  0  0  0  0  0
   67.4480   28.8190   51.2010 C   0  0  0  0  0  0  0  0  0  0  0  0
   66.9300   29.3730   53.4750 C   0  0  0  0  0  0  0  0  0  0  0  0
   65.4310   30.0760   51.6900 C   0  0  0  0  0  0  0  0  0  0  0  0
   64.9690   31.5210   51.9590 C   0  0  0  0  0  0  0  0  0  0  0  0
   60.8250   31.4950   48.1790 C   0  0  0  0  0  0  0  0  0  0  0  0
   59.9330   31.5460   47.0790 C   0  0  0  0  0  0  0  0  0  0  0  0
   56.2282   25.2193   47.5858 H   0  0  0  0  0  0  0  0  0  0  0  0
   56.1246   26.2467   46.1160 H   0  0  0  0  0  0  0  0  0  0  0  0
   57.1631   24.7811   46.1160 H   0  0  0  0  0  0  0  0  0  0  0  0
   57.5894   27.2564   47.8731 H   0  0  0  0  0  0  0  0  0  0  0  0
   58.6490   25.8004   47.7919 H   0  0  0  0  0  0  0  0  0  0  0  0
   59.2038   25.5476   44.6880 H   0  0  0  0  0  0  0  0  0  0  0  0
   57.4172   25.8983   44.9000 H   0  0  0  0  0  0  0  0  0  0  0  0
   58.4344   28.2688   43.8723 H   0  0  0  0  0  0  0  0  0  0  0  0
   59.3297   27.0017   42.9671 H   0  0  0  0  0  0  0  0  0  0  0  0
   57.5334   27.0057   42.9671 H   0  0  0  0  0  0  0  0  0  0  0  0
   60.4927   26.3326   46.9424 H   0  0  0  0  0  0  0  0  0  0  0  0
   60.6790   27.3254   45.4368 H   0  0  0  0  0  0  0  0  0  0  0  0
   60.8562   28.1700   48.1871 H   0  0  0  0  0  0  0  0  0  0  0  0
   61.0550   29.1364   46.6590 H   0  0  0  0  0  0  0  0  0  0  0  0
   58.3300   28.6170   47.2980 H   0  0  0  0  0  0  0  0  0  0  0  0
   59.0250   29.3520   48.5540 H   0  0  0  0  0  0  0  0  0  0  0  0
   57.2270   28.6492   45.8918 H   0  0  0  0  0  0  0  0  0  0  0  0
   55.7761   28.8726   43.8961 H   0  0  0  0  0  0  0  0  0  0  0  0
   55.9303   30.8912   42.4571 H   0  0  0  0  0  0  0  0  0  0  0  0
   57.4655   32.7402   43.0654 H   0  0  0  0  0  0  0  0  0  0  0  0
   58.6499   34.9506   45.4507 H   0  0  0  0  0  0  0  0  0  0  0  0
   59.6372   34.4501   44.0359 H   0  0  0  0  0  0  0  0  0  0  0  0
   57.8624   34.1727   44.0359 H   0  0  0  0  0  0  0  0  0  0  0  0
   60.9908   34.5532   45.8018 H   0  0  0  0  0  0  0  0  0  0  0  0
   62.5878   34.3666   47.6870 H   0  0  0  0  0  0  0  0  0  0  0  0
   63.5105   34.2225   49.3229 H   0  0  0  0  0  0  0  0  0  0  0  0
   63.3966   33.5976   51.0156 H   0  0  0  0  0  0  0  0  0  0  0  0
   64.8893   31.7280   49.3576 H   0  0  0  0  0  0  0  0  0  0  0  0
   65.5830   33.4315   49.2563 H   0  0  0  0  0  0  0  0  0  0  0  0
   65.7398   33.6036   52.9598 H   0  0  0  0  0  0  0  0  0  0  0  0
   66.6500   34.3716   51.6151 H   0  0  0  0  0  0  0  0  0  0  0  0
   64.8539   34.3995   51.6151 H   0  0  0  0  0  0  0  0  0  0  0  0
   67.1510   31.5281   49.9080 H   0  0  0  0  0  0  0  0  0  0  0  0
   67.7718   32.9555   50.8534 H   0  0  0  0  0  0  0  0  0  0  0  0
   68.7059   30.8611   51.7327 H   0  0  0  0  0  0  0  0  0  0  0  0
   67.5916   31.6541   52.9291 H   0  0  0  0  0  0  0  0  0  0  0  0
   67.8931   28.0274   51.8216 H   0  0  0  0  0  0  0  0  0  0  0  0
   66.6601   28.3877   50.5660 H   0  0  0  0  0  0  0  0  0  0  0  0
   68.2259   29.2680   50.5660 H   0  0  0  0  0  0  0  0  0  0  0  0
   66.8107   30.2200   54.1667 H   0  0  0  0  0  0  0  0  0  0  0  0
   66.1259   28.6426   53.6476 H   0  0  0  0  0  0  0  0  0  0  0  0
   67.9046   28.8930   53.6476 H   0  0  0  0  0  0  0  0  0  0  0  0
   65.3177   29.8609   50.6172 H   0  0  0  0  0  0  0  0  0  0  0  0
   64.8104   29.4021   52.2989 H   0  0  0  0  0  0  0  0  0  0  0  0
   63.8978   31.6002   51.7217 H   0  0  0  0  0  0  0  0  0  0  0  0
   65.1625   31.7453   53.0184 H   0  0  0  0  0  0  0  0  0  0  0  0
   60.7907   30.6285   48.8558 H   0  0  0  0  0  0  0  0  0  0  0  0
  1  2  1  0
  2  3  1  0
  3  4  1  0
  4  5  1  0
  3  6  1  0
  6  7  1  0
  7  8  1  0
  8  9  1  0
  9 10  2  0
 10 11  1  0
 11 12  2  0
 12 13  1  0
 13 14  2  0
 14 15  1  0
 15 16  2  0
 16 17  1  0
 16 18  1  0
 18 19  2  0
 19 20  1  0
 20 21  2  0
 21 22  1  0
 22 23  1  0
 23 24  1  0
 24 25  1  0
 25 26  1  0
 25 27  1  0
 27 28  1  0
 28 29  1  0
 29 30  1  0
 29 31  1  0
 29 32  1  0
 32 33  1  0
 21 34  1  0
 34 35  2  0
 35  9  1  0
 15 10  1  0
 35 18  1  0
 33 25  1  0
  1 36  1  0
  1 37  1  0
  1 38  1  0
  2 39  1  0
  2 40  1  0
  4 41  1  0
  4 42  1  0
  5 43  1  0
  5 44  1  0
  5 45  1  0
  6 46  1  0
  6 47  1  0
  7 48  1  0
  7 49  1  0
  8 50  1  0
  8 51  1  0
 11 52  1  0
 12 53  1  0
 13 54  1  0
 14 55  1  0
 17 56  1  0
 17 57  1  0
 17 58  1  0
 19 59  1  0
 20 60  1  0
 23 61  1  0
 23 62  1  0
 24 63  1  0
 24 64  1  0
 26 65  1  0
 26 66  1  0
 26 67  1  0
 27 68  1  0
 27 69  1  0
 28 70  1  0
 28 71  1  0
 30 72  1  0
 30 73  1  0
 30 74  1  0
 31 75  1  0
 31 76  1  0
 31 77  1  0
 32 78  1  0
 32 79  1  0
 33 80  1  0
 33 81  1  0
 34 82  1  0
M  CHG  4   8   1  16   1  25   1  29   1
M  END
>  <UniqueID>  (15) 
15

>  <SMILES>  (15) 
CCN(CC)CC[NH2+]c1c2ccccc2[n+](C)c2ccc(OCC[N+]3(C)CC[N+](C)(C)CC3)cc12

>  <Energy>  (15) 
141.35010168992383

>  <Genealogy>  (15) 
CCN(CC)CC[NH2+]c1c2ccccc2[n+](C)c2ccc(OCC[N+]3(C)CC[N+](C)(C)CC3)cc12 (protonated)
CCN(CC)CC[NH2+]c1c2ccccc2[n+](C)c2ccc(OCC[N+]3(C)CC[N+](C)(C)CC3)cc12 (3D coordinates assigned)
CCN(CC)CC[NH2+]c1c2ccccc2[n+](C)c2ccc(OCC[N+]3(C)CC[N+](C)(C)CC3)cc12 (nonaromatic ring conformer: 141.35010168992383 kcal/mol)

>  <smiles>  (15) 
CCN(CC)CCNc1c2ccccc2[n+](C)c2ccc(OCC[N+]3(C)CC[N+](C)(C)CC3)cc12

>  <score_type>  (15) 
oracle

>  <origin>  (15) 
adg

>  <m_score__min__energy>  (15) 
-2.3799999999999999

>  <m_primary>  (15) 
energy

$$$$
15:0
     RDKit          3D

 47 49  0  0  0  0  0  0  0  0999 V2000
   57.4580   34.1330   44.8650 C   0  0  0  0  0  0  0  0  0  0  0  0
   57.8630   32.8450   45.4260 N   0  0  0  0  0  0  0  0  0  0  0  0
   57.6550   31.6110   44.8990 C   0  0  0  0  0  0  0  0  0  0  0  0
   56.9660   31.2790   43.7280 C   0  0  0  0  0  0  0  0  0  0  0  0
   56.8740   29.9200   43.3770 C   0  0  0  0  0  0  0  0  0  0  0  0
   57.4670   28.9260   44.1850 C   0  0  0  0  0  0  0  0  0  0  0  0
   58.1640   29.2790   45.3540 C   0  0  0  0  0  0  0  0  0  0  0  0
   58.2400   30.6320   45.6790 C   0  0  0  0  0  0  0  0  0  0  0  0
   58.8520   31.2850   46.7250 C   0  0  0  0  0  0  0  0  0  0  0  0
   59.5820   30.8120   47.8100 C   0  0  0  0  0  0  0  0  0  0  0  0
   60.0640   31.7700   48.7270 C   0  0  0  0  0  0  0  0  0  0  0  0
   60.7410   31.3420   49.9950 C   0  0  0  0  0  0  0  0  0  0  0  0
   62.1050   31.8860   50.0410 N   0  0  0  0  0  0  0  0  0  0  0  0
   62.1660   33.2090   50.6910 C   0  0  0  0  0  0  0  0  0  0  0  0
   62.9810   34.1820   49.8310 C   0  0  0  0  0  0  0  0  0  0  0  0
   63.7560   33.4470   48.7180 C   0  0  0  0  0  0  0  0  0  0  0  0
   62.8690   32.9140   47.6570 N   0  0  0  0  0  0  0  0  0  0  0  0
   62.7640   33.8430   46.5160 C   0  0  0  0  0  0  0  0  0  0  0  0
   63.3870   31.6150   47.1870 C   0  0  0  0  0  0  0  0  0  0  0  0
   59.8250   33.1040   48.5140 N   0  0  0  0  0  0  0  0  0  0  0  0
   59.1220   33.5620   47.4370 C   0  0  0  0  0  0  0  0  0  0  0  0
   58.6130   32.6270   46.5360 C   0  0  0  0  0  0  0  0  0  0  0  0
   57.2371   34.8356   45.6820 H   0  0  0  0  0  0  0  0  0  0  0  0
   58.2729   34.5356   44.2455 H   0  0  0  0  0  0  0  0  0  0  0  0
   56.5593   33.9968   44.2455 H   0  0  0  0  0  0  0  0  0  0  0  0
   56.5093   32.0580   43.0998 H   0  0  0  0  0  0  0  0  0  0  0  0
   56.3345   29.6289   42.4636 H   0  0  0  0  0  0  0  0  0  0  0  0
   57.3832   27.8674   43.8980 H   0  0  0  0  0  0  0  0  0  0  0  0
   58.6330   28.5137   45.9899 H   0  0  0  0  0  0  0  0  0  0  0  0
   59.7753   29.7379   47.9474 H   0  0  0  0  0  0  0  0  0  0  0  0
   60.1699   31.7157   50.8576 H   0  0  0  0  0  0  0  0  0  0  0  0
   60.7876   30.2435   50.0280 H   0  0  0  0  0  0  0  0  0  0  0  0
   62.7020   31.2210   50.5880 H   0  0  0  0  0  0  0  0  0  0  0  0
   61.1456   33.6005   50.8154 H   0  0  0  0  0  0  0  0  0  0  0  0
   62.6497   33.1052   51.6735 H   0  0  0  0  0  0  0  0  0  0  0  0
   62.2966   34.9087   49.3688 H   0  0  0  0  0  0  0  0  0  0  0  0
   63.7106   34.6866   50.4815 H   0  0  0  0  0  0  0  0  0  0  0  0
   64.4670   34.1510   48.2610 H   0  0  0  0  0  0  0  0  0  0  0  0
   64.2697   32.5917   49.1812 H   0  0  0  0  0  0  0  0  0  0  0  0
   61.9120   32.7530   48.0500 H   0  0  0  0  0  0  0  0  0  0  0  0
   62.6478   34.8710   46.8897 H   0  0  0  0  0  0  0  0  0  0  0  0
   63.6754   33.7762   45.9037 H   0  0  0  0  0  0  0  0  0  0  0  0
   61.8905   33.5745   45.9037 H   0  0  0  0  0  0  0  0  0  0  0  0
   63.6381   30.9853   48.0532 H   0  0  0  0  0  0  0  0  0  0  0  0
   62.6203   31.1129   46.5787 H   0  0  0  0  0  0  0  0  0  0  0  0
   64.2888   31.7783   46.5787 H   0  0  0  0  0  0  0  0  0  0  0  0
   58.9614   34.6394   47.2840 H   0  0  0  0  0  0  0  0  0  0  0  0
  1  2  1  0
  2  3  1  0
  3  4  2  0
  4  5  1  0
  5  6  2  0
  6  7  1  0
  7  8  2  0
  8  9  1  0
  9 10  2  0
 10 11  1  0
 11 12  1  0
 12 13  1  0
 13 14  1  0
 14 15  1  0
 15 16  1  0
 16 17  1  0
 17 18  1  0
 17 19  1  0
 11 20  2  0
 20 21  1  0
 21 22  2  0
 22  2  1  0
  8  3  1  0
 22  9  1  0
  1 23  1  0
  1 24  1  0
  1 25  1  0
  4 26  1  0
  5 27  1  0
  6 28  1  0
  7 29  1  0
 10 30  1  0
 12 31  1  0
 12 32  1  0
 13 33  1  0
 14 34  1  0
 14 35  1  0
 15 36  1  0
 15 37  1  0
 16 38  1  0
 16 39  1  0
 17 40  1  0
 18 41  1  0
 18 42  1  0
 18 43  1  0
 19 44  1  0
 19 45  1  0
 19 46  1  0
 21 47  1  0
M  CHG  1  17   1
M  END
>  <UniqueID>  (16) 
16

>  <SMILES>  (16) 
Cn1c2ccccc2c2cc(CNCCC[NH+](C)C)ncc21

>  <Energy>  (16) 
86.75780723554422

>  <Genealogy>  (16) 
Cn1c2ccccc2c2cc(CNCCC[NH+](C)C)ncc21 (protonated)
Cn1c2ccccc2c2cc(CNCCC[NH+](C)C)ncc21 (3D coordinates assigned)
Cn1c2ccccc2c2cc(CNCCC[NH+](C)C)ncc21 (optimized conformer: 86.75780723554422 kcal/mol)

>  <smiles>  (16) 
CN(C)CCCNCc1cc2c3ccccc3n(C)c2cn1

>  <score_type>  (16) 
oracle

>  <origin>  (16) 
adg

>  <m_score__min__energy>  (16) 
-5.4800000000000004

>  <m_primary>  (16) 
energy

$$$$
16:0
     RDKit          3D

 55 58  0  0  0  0  0  0  0  0999 V2000
   64.7130   31.9640   49.8910 C   0  0  0  0  0  0  0  0  0  0  0  0
   63.4560   31.6160   49.0870 C   0  0  0  0  0  0  0  0  0  0  0  0
   63.2960   32.3600   47.8070 N   0  0  0  0  0  0  0  0  0  0  0  0
   63.5910   33.8130   47.8950 C   0  0  0  0  0  0  0  0  0  0  0  0
   62.8740   34.5060   49.0600 C   0  0  0  0  0  0  0  0  0  0  0  0
   62.0170   32.0490   47.1030 C   0  0  0  0  0  0  0  0  0  0  0  0
   61.7410   30.5480   46.8220 C   0  0  0  0  0  0  0  0  0  0  0  0
   60.6640   30.0220   47.6680 N   0  0  0  0  0  0  0  0  0  0  0  0
   59.3020   29.9220   47.1960 C   0  0  0  0  0  0  0  0  0  0  0  0
   58.7790   28.6670   46.8470 C   0  0  0  0  0  0  0  0  0  0  0  0
   59.2520   27.4960   47.4700 C   0  0  0  0  0  0  0  0  0  0  0  0
   58.7220   26.2520   47.1360 C   0  0  0  0  0  0  0  0  0  0  0  0
   57.7130   26.1580   46.1820 C   0  0  0  0  0  0  0  0  0  0  0  0
   57.2310   27.3060   45.5530 C   0  0  0  0  0  0  0  0  0  0  0  0
   57.7530   28.5850   45.8690 C   0  0  0  0  0  0  0  0  0  0  0  0
   57.3330   29.7280   45.2190 N   0  0  0  0  0  0  0  0  0  0  0  0
   56.3820   29.6310   44.0900 C   0  0  0  0  0  0  0  0  0  0  0  0
   57.7830   30.9610   45.6340 C   0  0  0  0  0  0  0  0  0  0  0  0
   57.4820   32.0820   44.9210 N   0  0  0  0  0  0  0  0  0  0  0  0
   57.9270   33.3170   45.2600 C   0  0  0  0  0  0  0  0  0  0  0  0
   57.6630   34.2920   44.5070 O   0  0  0  0  0  0  0  0  0  0  0  0
   58.6330   33.5000   46.4580 C   0  0  0  0  0  0  0  0  0  0  0  0
   59.0490   34.7790   46.8730 C   0  0  0  0  0  0  0  0  0  0  0  0
   59.5900   34.9620   48.1440 C   0  0  0  0  0  0  0  0  0  0  0  0
   59.6390   33.8960   49.0400 C   0  0  0  0  0  0  0  0  0  0  0  0
   59.2350   32.6170   48.6440 C   0  0  0  0  0  0  0  0  0  0  0  0
   58.8530   31.3650   50.0600 Br  0  0  0  0  0  0  0  0  0  0  0  0
   58.8700   32.3770   47.2920 C   0  0  0  0  0  0  0  0  0  0  0  0
   58.6230   31.0800   46.7660 C   0  0  0  0  0  0  0  0  0  0  0  0
   64.4893   31.9021   50.9662 H   0  0  0  0  0  0  0  0  0  0  0  0
   65.5157   31.2543   49.6420 H   0  0  0  0  0  0  0  0  0  0  0  0
   65.0364   32.9855   49.6420 H   0  0  0  0  0  0  0  0  0  0  0  0
   63.4875   30.5413   48.8543 H   0  0  0  0  0  0  0  0  0  0  0  0
   62.6013   31.9044   49.7166 H   0  0  0  0  0  0  0  0  0  0  0  0
   64.0390   31.9610   47.1820 H   0  0  0  0  0  0  0  0  0  0  0  0
   64.6756   33.9422   48.0256 H   0  0  0  0  0  0  0  0  0  0  0  0
   63.2283   34.2768   46.9659 H   0  0  0  0  0  0  0  0  0  0  0  0
   63.2691   34.1241   50.0129 H   0  0  0  0  0  0  0  0  0  0  0  0
   63.0435   35.5913   49.0014 H   0  0  0  0  0  0  0  0  0  0  0  0
   61.7951   34.2997   49.0014 H   0  0  0  0  0  0  0  0  0  0  0  0
   61.1914   32.4329   47.7203 H   0  0  0  0  0  0  0  0  0  0  0  0
   62.1000   32.5247   46.1146 H   0  0  0  0  0  0  0  0  0  0  0  0
   61.4537   30.4307   45.7667 H   0  0  0  0  0  0  0  0  0  0  0  0
   62.6583   29.9846   47.0483 H   0  0  0  0  0  0  0  0  0  0  0  0
   60.9030   29.8530   48.6660 H   0  0  0  0  0  0  0  0  0  0  0  0
   60.0471   27.5644   48.2271 H   0  0  0  0  0  0  0  0  0  0  0  0
   59.1011   25.3433   47.6265 H   0  0  0  0  0  0  0  0  0  0  0  0
   57.2939   25.1745   45.9230 H   0  0  0  0  0  0  0  0  0  0  0  0
   56.4337   27.2171   44.8004 H   0  0  0  0  0  0  0  0  0  0  0  0
   55.3589   29.5266   44.4803 H   0  0  0  0  0  0  0  0  0  0  0  0
   56.4488   30.5406   43.4751 H   0  0  0  0  0  0  0  0  0  0  0  0
   56.6311   28.7536   43.4751 H   0  0  0  0  0  0  0  0  0  0  0  0
   58.9467   35.6367   46.1919 H   0  0  0  0  0  0  0  0  0  0  0  0
   59.9783   35.9477   48.4399 H   0  0  0  0  0  0  0  0  0  0  0  0
   59.9981   34.0617   50.0664 H   0  0  0  0  0  0  0  0  0  0  0  0
  1  2  1  0
  2  3  1  0
  3  4  1  0
  4  5  1  0
  3  6  1  0
  6  7  1  0
  7  8  1  0
  8  9  1  0
  9 10  2  0
 10 11  1  0
 11 12  2  0
 12 13  1  0
 13 14  2  0
 14 15  1  0
 15 16  2  0
 16 17  1  0
 16 18  1  0
 18 19  1  0
 19 20  1  0
 20 21  2  0
 20 22  1  0
 22 23  2  0
 23 24  1  0
 24 25  2  0
 25 26  1  0
 26 27  1  0
 26 28  2  0
 28 29  1  0
 29  9  1  0
 15 10  1  0
 29 18  2  0
 28 22  1  0
  1 30  1  0
  1 31  1  0
  1 32  1  0
  2 33  1  0
  2 34  1  0
  3 35  1  0
  4 36  1  0
  4 37  1  0
  5 38  1  0
  5 39  1  0
  5 40  1  0
  6 41  1  0
  6 42  1  0
  7 43  1  0
  7 44  1  0
  8 45  1  0
 11 46  1  0
 12 47  1  0
 13 48  1  0
 14 49  1  0
 17 50  1  0
 17 51  1  0
 17 52  1  0
 23 53  1  0
 24 54  1  0
 25 55  1  0
M  CHG  3   3   1  16   1  19  -1
M  END
>  <UniqueID>  (17) 
17

>  <SMILES>  (17) 
CC[NH+](CC)CCNc1c2ccccc2[n+](C)c2[n-]c(=O)c3cccc(Br)c3c12

>  <Energy>  (17) 
116.37003504005993

>  <Genealogy>  (17) 
CC[NH+](CC)CCNc1c2ccccc2[n+](C)c2[n-]c(=O)c3cccc(Br)c3c12 (protonated)
CC[NH+](CC)CCNc1c2ccccc2[n+](C)c2[n-]c(=O)c3cccc(Br)c3c12 (3D coordinates assigned)
CC[NH+](CC)CCNc1c2ccccc2[n+](C)c2[n-]c(=O)c3cccc(Br)c3c12 (optimized conformer: 116.37003504005993 kcal/mol)

>  <smiles>  (17) 
CCN(CC)CCNc1c2ccccc2[n+](C)c2[nH]c(=O)c3cccc(Br)c3c12

>  <score_type>  (17) 
oracle

>  <origin>  (17) 
adg

>  <m_score__min__energy>  (17) 
-7.6399999999999997

>  <m_primary>  (17) 
energy

$$$$
17:0
     RDKit          3D

 59 61  0  0  0  0  0  0  0  0999 V2000
   62.3470   31.3770   47.1950 C   0  0  0  0  0  0  0  0  0  0  0  0
   62.2420   32.8320   47.3940 N   0  0  0  0  0  0  0  0  0  0  0  0
   63.3850   33.5010   46.7530 C   0  0  0  0  0  0  0  0  0  0  0  0
   62.1610   33.1750   48.8330 C   0  0  0  0  0  0  0  0  0  0  0  0
   61.1470   34.3010   49.0590 C   0  0  0  0  0  0  0  0  0  0  0  0
   59.8070   33.8970   48.6310 N   0  0  0  0  0  0  0  0  0  0  0  0
   59.3500   33.9980   47.2690 C   0  0  0  0  0  0  0  0  0  0  0  0
   59.4780   35.2330   46.6190 C   0  0  0  0  0  0  0  0  0  0  0  0
   59.2690   35.3430   45.2540 C   0  0  0  0  0  0  0  0  0  0  0  0
   58.9260   34.2240   44.5060 C   0  0  0  0  0  0  0  0  0  0  0  0
   58.7210   32.9640   45.1190 C   0  0  0  0  0  0  0  0  0  0  0  0
   58.9240   32.8520   46.5280 C   0  0  0  0  0  0  0  0  0  0  0  0
   58.6840   31.5980   47.1400 C   0  0  0  0  0  0  0  0  0  0  0  0
   58.5610   31.4790   48.5640 N   0  0  0  0  0  0  0  0  0  0  0  0
   59.6410   30.8800   49.3470 C   0  0  0  0  0  0  0  0  0  0  0  0
   59.5890   31.3590   50.8020 C   0  0  0  0  0  0  0  0  0  0  0  0
   58.4890   32.3290   50.9930 N   0  0  0  0  0  0  0  0  0  0  0  0
   58.9160   33.4530   51.8440 C   0  0  0  0  0  0  0  0  0  0  0  0
   57.3280   31.6650   51.6090 C   0  0  0  0  0  0  0  0  0  0  0  0
   58.4990   30.4570   46.3420 C   0  0  0  0  0  0  0  0  0  0  0  0
   58.4110   29.1730   46.9230 C   0  0  0  0  0  0  0  0  0  0  0  0
   58.2850   28.0390   46.1240 C   0  0  0  0  0  0  0  0  0  0  0  0
   58.2510   28.1620   44.7390 C   0  0  0  0  0  0  0  0  0  0  0  0
   58.1420   26.7260   43.7360 Cl  0  0  0  0  0  0  0  0  0  0  0  0
   58.3060   29.4250   44.1470 C   0  0  0  0  0  0  0  0  0  0  0  0
   58.3870   30.6010   44.9370 C   0  0  0  0  0  0  0  0  0  0  0  0
   58.3440   31.8600   44.3750 N   0  0  0  0  0  0  0  0  0  0  0  0
   57.8690   32.0280   42.9830 C   0  0  0  0  0  0  0  0  0  0  0  0
   62.3832   30.8748   48.1730 H   0  0  0  0  0  0  0  0  0  0  0  0
   61.4723   31.0199   46.6317 H   0  0  0  0  0  0  0  0  0  0  0  0
   63.2639   31.1492   46.6317 H   0  0  0  0  0  0  0  0  0  0  0  0
   64.0598   33.8959   47.5268 H   0  0  0  0  0  0  0  0  0  0  0  0
   63.9286   32.7785   46.1265 H   0  0  0  0  0  0  0  0  0  0  0  0
   63.0212   34.3287   46.1265 H   0  0  0  0  0  0  0  0  0  0  0  0
   61.8475   32.2861   49.4001 H   0  0  0  0  0  0  0  0  0  0  0  0
   63.1504   33.5128   49.1748 H   0  0  0  0  0  0  0  0  0  0  0  0
   61.1217   34.5522   50.1296 H   0  0  0  0  0  0  0  0  0  0  0  0
   61.4555   35.1735   48.4644 H   0  0  0  0  0  0  0  0  0  0  0  0
   59.1600   33.5100   49.3540 H   0  0  0  0  0  0  0  0  0  0  0  0
   59.7480   36.1269   47.2004 H   0  0  0  0  0  0  0  0  0  0  0  0
   59.3751   36.3204   44.7605 H   0  0  0  0  0  0  0  0  0  0  0  0
   58.8113   34.3184   43.4161 H   0  0  0  0  0  0  0  0  0  0  0  0
   57.7690   31.9690   49.0400 H   0  0  0  0  0  0  0  0  0  0  0  0
   59.5386   29.7850   49.3240 H   0  0  0  0  0  0  0  0  0  0  0  0
   60.6036   31.1839   48.9100 H   0  0  0  0  0  0  0  0  0  0  0  0
   59.4264   30.4938   51.4616 H   0  0  0  0  0  0  0  0  0  0  0  0
   60.5417   31.8513   51.0470 H   0  0  0  0  0  0  0  0  0  0  0  0
   58.8095   33.1727   52.9023 H   0  0  0  0  0  0  0  0  0  0  0  0
   59.9683   33.6939   51.6326 H   0  0  0  0  0  0  0  0  0  0  0  0
   58.2891   34.3318   51.6326 H   0  0  0  0  0  0  0  0  0  0  0  0
   57.4155   31.7151   52.7044 H   0  0  0  0  0  0  0  0  0  0  0  0
   56.4047   32.1716   51.2914 H   0  0  0  0  0  0  0  0  0  0  0  0
   57.2965   30.6123   51.2914 H   0  0  0  0  0  0  0  0  0  0  0  0
   58.4423   29.0672   48.0175 H   0  0  0  0  0  0  0  0  0  0  0  0
   58.2123   27.0448   46.5890 H   0  0  0  0  0  0  0  0  0  0  0  0
   58.2862   29.5100   43.0505 H   0  0  0  0  0  0  0  0  0  0  0  0
   56.8320   32.3948   42.9912 H   0  0  0  0  0  0  0  0  0  0  0  0
   58.5105   32.7538   42.4617 H   0  0  0  0  0  0  0  0  0  0  0  0
   57.9116   31.0603   42.4617 H   0  0  0  0  0  0  0  0  0  0  0  0
  1  2  1  0
  2  3  1  0
  2  4  1  0
  4  5  1  0
  5  6  1  0
  6  7  1  0
  7  8  2  0
  8  9  1  0
  9 10  2  0
 10 11  1  0
 11 12  2  0
 12 13  1  0
 13 14  1  0
 14 15  1  0
 15 16  1  0
 16 17  1  0
 17 18  1  0
 17 19  1  0
 13 20  2  0
 20 21  1  0
 21 22  2  0
 22 23  1  0
 23 24  1  0
 23 25  2  0
 25 26  1  0
 26 27  2  0
 27 28  1  0
 12  7  1  0
 26 20  1  0
 27 11  1  0
  1 29  1  0
  1 30  1  0
  1 31  1  0
  3 32  1  0
  3 33  1  0
  3 34  1  0
  4 35  1  0
  4 36  1  0
  5 37  1  0
  5 38  1  0
  6 39  1  0
  8 40  1  0
  9 41  1  0
 10 42  1  0
 14 43  1  0
 15 44  1  0
 15 45  1  0
 16 46  1  0
 16 47  1  0
 18 48  1  0
 18 49  1  0
 18 50  1  0
 19 51  1  0
 19 52  1  0
 19 53  1  0
 21 54  1  0
 22 55  1  0
 25 56  1  0
 28 57  1  0
 28 58  1  0
 28 59  1  0
M  CHG  1  27   1
M  END
>  <UniqueID>  (18) 
18

>  <SMILES>  (18) 
CN(C)CCNc1cccc2c1c(NCCN(C)C)c1ccc(Cl)cc1[n+]2C

>  <Energy>  (18) 
91.58762325094733

>  <Genealogy>  (18) 
CN(C)CCNc1cccc2c1c(NCCN(C)C)c1ccc(Cl)cc1[n+]2C (3D coordinates assigned)
CN(C)CCNc1cccc2c1c(NCCN(C)C)c1ccc(Cl)cc1[n+]2C (optimized conformer: 91.58762325094733 kcal/mol)

>  <smiles>  (18) 
CN(C)CCNc1cccc2c1c(NCCN(C)C)c1ccc(Cl)cc1[n+]2C

>  <score_type>  (18) 
oracle

>  <origin>  (18) 
adg

>  <m_score__min__energy>  (18) 
-5.4800000000000004

>  <m_primary>  (18) 
energy

$$$$
18:0
     RDKit          3D

 54 58  0  0  0  0  0  0  0  0999 V2000
   55.9490   30.0860   43.6730 C   0  0  0  0  0  0  0  0  0  0  0  0
   57.1200   30.2220   44.5940 C   0  0  0  0  0  0  0  0  0  0  0  0
   57.4780   29.2130   45.4330 N   0  0  0  0  0  0  0  0  0  0  0  0
   58.5470   29.5380   46.1930 C   0  0  0  0  0  0  0  0  0  0  0  0
   59.1580   28.6270   47.1220 N   0  0  0  0  0  0  0  0  0  0  0  0
   59.3440   27.2870   46.9650 C   0  0  0  0  0  0  0  0  0  0  0  0
   58.9400   26.5150   45.7470 C   0  0  0  0  0  0  0  0  0  0  0  0
   59.9690   26.7010   48.0180 N   0  0  0  0  0  0  0  0  0  0  0  0
   60.1750   27.7280   48.8610 C   0  0  0  0  0  0  0  0  0  0  0  0
   60.7660   27.6800   50.1210 C   0  0  0  0  0  0  0  0  0  0  0  0
   60.8470   28.8780   50.8540 C   0  0  0  0  0  0  0  0  0  0  0  0
   60.3290   30.0780   50.3200 C   0  0  0  0  0  0  0  0  0  0  0  0
   59.7340   30.0930   49.0450 C   0  0  0  0  0  0  0  0  0  0  0  0
   59.6900   28.8910   48.3310 C   0  0  0  0  0  0  0  0  0  0  0  0
   59.1090   31.0840   45.8380 S   0  0  0  0  0  0  0  0  0  0  0  0
   57.9410   31.3530   44.6510 C   0  0  0  0  0  0  0  0  0  0  0  0
   57.7670   32.6240   43.8570 C   0  0  0  0  0  0  0  0  0  0  0  0
   58.7950   33.7080   44.2180 C   0  0  0  0  0  0  0  0  0  0  0  0
   58.5940   34.2060   45.5880 N   0  0  0  0  0  0  0  0  0  0  0  0
   59.7530   34.9700   46.0690 C   0  0  0  0  0  0  0  0  0  0  0  0
   60.2030   34.4150   47.4040 C   0  0  0  0  0  0  0  0  0  0  0  0
   59.2860   34.4050   48.4690 C   0  0  0  0  0  0  0  0  0  0  0  0
   59.6350   33.8680   49.7080 C   0  0  0  0  0  0  0  0  0  0  0  0
   60.8990   33.3170   49.9050 C   0  0  0  0  0  0  0  0  0  0  0  0
   61.8330   33.2990   48.8610 C   0  0  0  0  0  0  0  0  0  0  0  0
   63.1000   32.7280   49.0630 C   0  0  0  0  0  0  0  0  0  0  0  0
   64.0320   32.7000   48.0250 C   0  0  0  0  0  0  0  0  0  0  0  0
   63.7130   33.2450   46.7820 C   0  0  0  0  0  0  0  0  0  0  0  0
   62.4580   33.8180   46.5670 C   0  0  0  0  0  0  0  0  0  0  0  0
   61.4940   33.8520   47.5960 C   0  0  0  0  0  0  0  0  0  0  0  0
   55.0278   29.9790   44.2645 H   0  0  0  0  0  0  0  0  0  0  0  0
   55.8755   30.9816   43.0386 H   0  0  0  0  0  0  0  0  0  0  0  0
   56.0827   29.1973   43.0386 H   0  0  0  0  0  0  0  0  0  0  0  0
   58.4500   25.5787   46.0522 H   0  0  0  0  0  0  0  0  0  0  0  0
   58.2409   27.1161   45.1471 H   0  0  0  0  0  0  0  0  0  0  0  0
   59.8324   26.2832   45.1471 H   0  0  0  0  0  0  0  0  0  0  0  0
   61.1566   26.7364   50.5297 H   0  0  0  0  0  0  0  0  0  0  0  0
   61.3165   28.8798   51.8488 H   0  0  0  0  0  0  0  0  0  0  0  0
   60.3910   31.0076   50.9048 H   0  0  0  0  0  0  0  0  0  0  0  0
   59.3171   31.0196   48.6236 H   0  0  0  0  0  0  0  0  0  0  0  0
   57.8708   32.3857   42.7882 H   0  0  0  0  0  0  0  0  0  0  0  0
   56.7709   33.0252   44.0957 H   0  0  0  0  0  0  0  0  0  0  0  0
   59.8063   33.2829   44.1368 H   0  0  0  0  0  0  0  0  0  0  0  0
   58.6676   34.5503   43.5221 H   0  0  0  0  0  0  0  0  0  0  0  0
   57.7730   34.8550   45.5740 H   0  0  0  0  0  0  0  0  0  0  0  0
   60.5742   34.8876   45.3418 H   0  0  0  0  0  0  0  0  0  0  0  0
   59.4728   36.0272   46.1865 H   0  0  0  0  0  0  0  0  0  0  0  0
   58.2802   34.8260   48.3235 H   0  0  0  0  0  0  0  0  0  0  0  0
   58.9084   33.8797   50.5338 H   0  0  0  0  0  0  0  0  0  0  0  0
   61.1651   32.8940   50.8849 H   0  0  0  0  0  0  0  0  0  0  0  0
   63.3587   32.3012   50.0433 H   0  0  0  0  0  0  0  0  0  0  0  0
   65.0210   32.2468   48.1878 H   0  0  0  0  0  0  0  0  0  0  0  0
   64.4525   33.2235   45.9680 H   0  0  0  0  0  0  0  0  0  0  0  0
   62.2183   34.2480   45.5833 H   0  0  0  0  0  0  0  0  0  0  0  0
  1  2  1  0
  2  3  1  0
  3  4  2  0
  4  5  1  0
  5  6  1  0
  6  7  1  0
  6  8  2  0
  8  9  1  0
  9 10  2  0
 10 11  1  0
 11 12  2  0
 12 13  1  0
 13 14  2  0
  4 15  1  0
 15 16  1  0
 16 17  1  0
 17 18  1  0
 18 19  1  0
 19 20  1  0
 20 21  1  0
 21 22  2  0
 22 23  1  0
 23 24  2  0
 24 25  1  0
 25 26  2  0
 26 27  1  0
 27 28  2  0
 28 29  1  0
 29 30  2  0
 16  2  2  0
 30 21  1  0
 14  5  1  0
 30 25  1  0
 14  9  1  0
  1 31  1  0
  1 32  1  0
  1 33  1  0
  7 34  1  0
  7 35  1  0
  7 36  1  0
 10 37  1  0
 11 38  1  0
 12 39  1  0
 13 40  1  0
 17 41  1  0
 17 42  1  0
 18 43  1  0
 18 44  1  0
 19 45  1  0
 20 46  1  0
 20 47  1  0
 22 48  1  0
 23 49  1  0
 24 50  1  0
 26 51  1  0
 27 52  1  0
 28 53  1  0
 29 54  1  0
M  END
>  <UniqueID>  (19) 
19

>  <SMILES>  (19) 
Cc1nc(-n2c(C)nc3ccccc32)sc1CCNCc1cccc2ccccc12

>  <Energy>  (19) 
129.3456329888077

>  <Genealogy>  (19) 
Cc1nc(-n2c(C)nc3ccccc32)sc1CCNCc1cccc2ccccc12 (3D coordinates assigned)
Cc1nc(-n2c(C)nc3ccccc32)sc1CCNCc1cccc2ccccc12 (optimized conformer: 129.3456329888077 kcal/mol)

>  <smiles>  (19) 
Cc1nc(-n2c(C)nc3ccccc32)sc1CCNCc1cccc2ccccc12

>  <score_type>  (19) 
oracle

>  <origin>  (19) 
adg

>  <m_score__min__energy>  (19) 
-9.1699999999999999

>  <m_primary>  (19) 
energy

$$$$
19:0
     RDKit          3D

 77 80  0  0  0  0  0  0  0  0999 V2000
   59.1440   28.9930   53.0260 C   0  0  0  0  0  0  0  0  0  0  0  0
   58.0230   29.4570   52.1050 C   0  0  0  0  0  0  0  0  0  0  0  0
   58.0390   30.9360   51.9990 N   0  0  0  0  0  0  0  0  0  0  0  0
   56.7750   31.4920   51.4620 C   0  0  0  0  0  0  0  0  0  0  0  0
   55.5040   30.8340   52.0300 C   0  0  0  0  0  0  0  0  0  0  0  0
   58.5160   31.6180   53.2230 C   0  0  0  0  0  0  0  0  0  0  0  0
   59.4310   32.7980   52.8680 C   0  0  0  0  0  0  0  0  0  0  0  0
   60.0950   32.6020   51.6360 O   0  0  0  0  0  0  0  0  0  0  0  0
   60.2720   33.8300   50.9610 C   0  0  0  0  0  0  0  0  0  0  0  0
   59.7360   33.6820   49.5330 C   0  0  0  0  0  0  0  0  0  0  0  0
   59.0250   32.4160   49.3140 N   0  0  0  0  0  0  0  0  0  0  0  0
   59.1610   31.6450   48.1090 C   0  0  0  0  0  0  0  0  0  0  0  0
   58.6190   32.1630   46.9170 C   0  0  0  0  0  0  0  0  0  0  0  0
   58.1190   33.4820   46.8620 C   0  0  0  0  0  0  0  0  0  0  0  0
   57.5090   33.9700   45.7100 C   0  0  0  0  0  0  0  0  0  0  0  0
   57.3820   33.1540   44.5930 C   0  0  0  0  0  0  0  0  0  0  0  0
   57.8920   31.8570   44.6140 C   0  0  0  0  0  0  0  0  0  0  0  0
   58.5530   31.3470   45.7620 C   0  0  0  0  0  0  0  0  0  0  0  0
   59.0870   30.0770   45.7830 N   0  0  0  0  0  0  0  0  0  0  0  0
   59.2680   29.3350   44.5140 C   0  0  0  0  0  0  0  0  0  0  0  0
   59.4850   29.5080   46.9790 C   0  0  0  0  0  0  0  0  0  0  0  0
   59.6970   28.1150   47.0760 C   0  0  0  0  0  0  0  0  0  0  0  0
   60.1360   27.5370   48.2520 C   0  0  0  0  0  0  0  0  0  0  0  0
   60.4320   28.3240   49.3530 C   0  0  0  0  0  0  0  0  0  0  0  0
   60.2560   29.7250   49.3220 C   0  0  0  0  0  0  0  0  0  0  0  0
   60.6740   30.5550   50.4470 N   0  0  0  0  0  0  0  0  0  0  0  0
   62.0560   30.3700   50.9490 C   0  0  0  0  0  0  0  0  0  0  0  0
   63.0970   31.1230   50.1030 C   0  0  0  0  0  0  0  0  0  0  0  0
   62.4090   32.0820   49.1960 N   0  0  0  0  0  0  0  0  0  0  0  0
   62.4940   31.6750   47.7870 C   0  0  0  0  0  0  0  0  0  0  0  0
   63.7620   32.2900   47.2120 C   0  0  0  0  0  0  0  0  0  0  0  0
   64.1050   33.4380   48.1460 C   0  0  0  0  0  0  0  0  0  0  0  0
   63.0300   33.4140   49.2240 C   0  0  0  0  0  0  0  0  0  0  0  0
   59.6460   30.3090   48.1510 C   0  0  0  0  0  0  0  0  0  0  0  0
   58.8344   29.1211   54.0737 H   0  0  0  0  0  0  0  0  0  0  0  0
   59.3601   27.9315   52.8347 H   0  0  0  0  0  0  0  0  0  0  0  0
   60.0470   29.5913   52.8347 H   0  0  0  0  0  0  0  0  0  0  0  0
   58.1655   29.0179   51.1066 H   0  0  0  0  0  0  0  0  0  0  0  0
   57.0563   29.1332   52.5181 H   0  0  0  0  0  0  0  0  0  0  0  0
   56.7426   32.5658   51.6984 H   0  0  0  0  0  0  0  0  0  0  0  0
   56.7770   31.2935   50.3801 H   0  0  0  0  0  0  0  0  0  0  0  0
   55.5411   30.8532   53.1292 H   0  0  0  0  0  0  0  0  0  0  0  0
   54.6186   31.3870   51.6833 H   0  0  0  0  0  0  0  0  0  0  0  0
   55.4444   29.7918   51.6833 H   0  0  0  0  0  0  0  0  0  0  0  0
   57.6496   31.9910   53.7889 H   0  0  0  0  0  0  0  0  0  0  0  0
   59.0873   30.8983   53.8277 H   0  0  0  0  0  0  0  0  0  0  0  0
   58.8223   33.7118   52.8017 H   0  0  0  0  0  0  0  0  0  0  0  0
   60.1945   32.8842   53.6551 H   0  0  0  0  0  0  0  0  0  0  0  0
   59.7192   34.6240   51.4843 H   0  0  0  0  0  0  0  0  0  0  0  0
   61.3390   34.0965   50.9372 H   0  0  0  0  0  0  0  0  0  0  0  0
   59.0433   34.5123   49.3311 H   0  0  0  0  0  0  0  0  0  0  0  0
   60.6016   33.6942   48.8544 H   0  0  0  0  0  0  0  0  0  0  0  0
   58.7120   31.9040   50.1700 H   0  0  0  0  0  0  0  0  0  0  0  0
   58.2129   34.1340   47.7429 H   0  0  0  0  0  0  0  0  0  0  0  0
   57.1276   35.0014   45.6841 H   0  0  0  0  0  0  0  0  0  0  0  0
   56.8784   33.5318   43.6910 H   0  0  0  0  0  0  0  0  0  0  0  0
   57.7804   31.2177   43.7258 H   0  0  0  0  0  0  0  0  0  0  0  0
   59.5234   28.2881   44.7346 H   0  0  0  0  0  0  0  0  0  0  0  0
   58.3350   29.3701   43.9324 H   0  0  0  0  0  0  0  0  0  0  0  0
   60.0801   29.7958   43.9324 H   0  0  0  0  0  0  0  0  0  0  0  0
   59.5091   27.4782   46.1990 H   0  0  0  0  0  0  0  0  0  0  0  0
   60.2512   26.4448   48.3143 H   0  0  0  0  0  0  0  0  0  0  0  0
   60.8116   27.8484   50.2694 H   0  0  0  0  0  0  0  0  0  0  0  0
   60.6260   31.5510   50.1320 H   0  0  0  0  0  0  0  0  0  0  0  0
   60.0020   30.4150   51.2330 H   0  0  0  0  0  0  0  0  0  0  0  0
   62.1079   30.7403   51.9835 H   0  0  0  0  0  0  0  0  0  0  0  0
   62.2915   29.2971   50.8906 H   0  0  0  0  0  0  0  0  0  0  0  0
   63.7789   31.6736   50.7677 H   0  0  0  0  0  0  0  0  0  0  0  0
   63.6691   30.4006   49.5023 H   0  0  0  0  0  0  0  0  0  0  0  0
   62.5415   30.5784   47.7145 H   0  0  0  0  0  0  0  0  0  0  0  0
   61.6092   32.0164   47.2298 H   0  0  0  0  0  0  0  0  0  0  0  0
   64.5760   31.5504   47.1943 H   0  0  0  0  0  0  0  0  0  0  0  0
   63.6211   32.6305   46.1755 H   0  0  0  0  0  0  0  0  0  0  0  0
   65.1000   33.2888   48.5907 H   0  0  0  0  0  0  0  0  0  0  0  0
   64.1340   34.4021   47.6172 H   0  0  0  0  0  0  0  0  0  0  0  0
   63.4820   33.5974   50.2099 H   0  0  0  0  0  0  0  0  0  0  0  0
   62.2789   34.1966   49.0410 H   0  0  0  0  0  0  0  0  0  0  0  0
  1  2  1  0
  2  3  1  0
  3  4  1  0
  4  5  1  0
  3  6  1  0
  6  7  1  0
  7  8  1  0
  8  9  1  0
  9 10  1  0
 10 11  1  0
 11 12  1  0
 12 13  2  0
 13 14  1  0
 14 15  2  0
 15 16  1  0
 16 17  2  0
 17 18  1  0
 18 19  2  0
 19 20  1  0
 19 21  1  0
 21 22  2  0
 22 23  1  0
 23 24  2  0
 24 25  1  0
 25 26  1  0
 26 27  1  0
 27 28  1  0
 28 29  1  0
 29 30  1  0
 30 31  1  0
 31 32  1  0
 32 33  1  0
 25 34  2  0
 34 12  1  0
 18 13  1  0
 34 21  1  0
 33 29  1  0
  1 35  1  0
  1 36  1  0
  1 37  1  0
  2 38  1  0
  2 39  1  0
  4 40  1  0
  4 41  1  0
  5 42  1  0
  5 43  1  0
  5 44  1  0
  6 45  1  0
  6 46  1  0
  7 47  1  0
  7 48  1  0
  9 49  1  0
  9 50  1  0
 10 51  1  0
 10 52  1  0
 11 53  1  0
 14 54  1  0
 15 55  1  0
 16 56  1  0
 17 57  1  0
 20 58  1  0
 20 59  1  0
 20 60  1  0
 22 61  1  0
 23 62  1  0
 24 63  1  0
 26 64  1  0
 26 65  1  0
 27 66  1  0
 27 67  1  0
 28 68  1  0
 28 69  1  0
 30 70  1  0
 30 71  1  0
 31 72  1  0
 31 73  1  0
 32 74  1  0
 32 75  1  0
 33 76  1  0
 33 77  1  0
M  CHG  2  19   1  26   1
M  END
>  <UniqueID>  (20) 
20

>  <SMILES>  (20) 
CCN(CC)CCOCCNc1c2ccccc2[n+](C)c2cccc([NH2+]CCN3CCCC3)c12

>  <Energy>  (20) 
127.56466374562912

>  <Genealogy>  (20) 
CCN(CC)CCOCCNc1c2ccccc2[n+](C)c2cccc([NH2+]CCN3CCCC3)c12 (protonated)
CCN(CC)CCOCCNc1c2ccccc2[n+](C)c2cccc([NH2+]CCN3CCCC3)c12 (3D coordinates assigned)
CCN(CC)CCOCCNc1c2ccccc2[n+](C)c2cccc([NH2+]CCN3CCCC3)c12 (nonaromatic ring conformer: 127.56466374562912 kcal/mol)

>  <smiles>  (20) 
CCN(CC)CCOCCNc1c2ccccc2[n+](C)c2cccc(NCCN3CCCC3)c12

>  <score_type>  (20) 
oracle

>  <origin>  (20) 
adg

>  <m_score__min__energy>  (20) 
-5.0800000000000001

>  <m_primary>  (20) 
energy

$$$$
20:0
     RDKit          3D

 52 54  0  0  0  0  0  0  0  0999 V2000
   64.8010   33.1480   50.2010 C   0  0  0  0  0  0  0  0  0  0  0  0
   64.3730   31.9650   49.3370 C   0  0  0  0  0  0  0  0  0  0  0  0
   63.0870   32.2910   48.6750 N   0  0  0  0  0  0  0  0  0  0  0  0
   63.0520   33.6910   48.1970 C   0  0  0  0  0  0  0  0  0  0  0  0
   63.3900   33.7760   46.7080 C   0  0  0  0  0  0  0  0  0  0  0  0
   61.9290   31.9990   49.5520 C   0  0  0  0  0  0  0  0  0  0  0  0
   60.8150   31.2800   48.7750 C   0  0  0  0  0  0  0  0  0  0  0  0
   61.0980   31.2560   47.3220 N   0  0  0  0  0  0  0  0  0  0  0  0
   59.8870   31.0650   46.5370 C   0  0  0  0  0  0  0  0  0  0  0  0
   59.5650   29.7470   46.0780 C   0  0  0  0  0  0  0  0  0  0  0  0
   60.3760   28.6210   46.3930 C   0  0  0  0  0  0  0  0  0  0  0  0
   60.0450   27.3410   45.9610 C   0  0  0  0  0  0  0  0  0  0  0  0
   58.9140   27.1390   45.1900 C   0  0  0  0  0  0  0  0  0  0  0  0
   58.1110   28.2180   44.8390 C   0  0  0  0  0  0  0  0  0  0  0  0
   58.4150   29.5380   45.2690 C   0  0  0  0  0  0  0  0  0  0  0  0
   57.6450   30.6050   44.8720 N   0  0  0  0  0  0  0  0  0  0  0  0
   56.3990   30.3810   44.1020 C   0  0  0  0  0  0  0  0  0  0  0  0
   58.0330   31.8900   45.1510 C   0  0  0  0  0  0  0  0  0  0  0  0
   57.4050   32.9170   44.5100 N   0  0  0  0  0  0  0  0  0  0  0  0
   57.6860   34.2150   44.7330 C   0  0  0  0  0  0  0  0  0  0  0  0
   58.5900   34.5570   45.7170 C   0  0  0  0  0  0  0  0  0  0  0  0
   59.2380   33.5600   46.4610 C   0  0  0  0  0  0  0  0  0  0  0  0
   59.9650   34.0780   47.6750 C   0  0  0  0  0  0  0  0  0  0  0  0
   59.0770   32.1710   46.0880 C   0  0  0  0  0  0  0  0  0  0  0  0
   64.7041   32.8801   51.2635 H   0  0  0  0  0  0  0  0  0  0  0  0
   65.8483   33.4027   49.9811 H   0  0  0  0  0  0  0  0  0  0  0  0
   64.1591   34.0138   49.9811 H   0  0  0  0  0  0  0  0  0  0  0  0
   65.1409   31.7684   48.5744 H   0  0  0  0  0  0  0  0  0  0  0  0
   64.2511   31.0706   49.9656 H   0  0  0  0  0  0  0  0  0  0  0  0
   62.0442   34.1006   48.3600 H   0  0  0  0  0  0  0  0  0  0  0  0
   63.8013   34.2691   48.7576 H   0  0  0  0  0  0  0  0  0  0  0  0
   64.4503   34.0427   46.5873 H   0  0  0  0  0  0  0  0  0  0  0  0
   63.2004   32.8022   46.2328 H   0  0  0  0  0  0  0  0  0  0  0  0
   62.7623   34.5443   46.2328 H   0  0  0  0  0  0  0  0  0  0  0  0
   62.2597   31.3576   50.3823 H   0  0  0  0  0  0  0  0  0  0  0  0
   61.5308   32.9506   49.9340 H   0  0  0  0  0  0  0  0  0  0  0  0
   60.7338   30.2458   49.1408 H   0  0  0  0  0  0  0  0  0  0  0  0
   59.8736   31.8261   48.9351 H   0  0  0  0  0  0  0  0  0  0  0  0
   61.7760   30.4930   47.1040 H   0  0  0  0  0  0  0  0  0  0  0  0
   61.6350   32.0910   47.0290 H   0  0  0  0  0  0  0  0  0  0  0  0
   61.2867   28.7664   46.9926 H   0  0  0  0  0  0  0  0  0  0  0  0
   60.6836   26.4876   46.2328 H   0  0  0  0  0  0  0  0  0  0  0  0
   58.6504   26.1250   44.8549 H   0  0  0  0  0  0  0  0  0  0  0  0
   57.2214   28.0465   44.2152 H   0  0  0  0  0  0  0  0  0  0  0  0
   55.5602   30.2302   44.7975 H   0  0  0  0  0  0  0  0  0  0  0  0
   56.1970   31.2572   43.4684 H   0  0  0  0  0  0  0  0  0  0  0  0
   56.5148   29.4893   43.4684 H   0  0  0  0  0  0  0  0  0  0  0  0
   57.1976   34.9977   44.1341 H   0  0  0  0  0  0  0  0  0  0  0  0
   58.8038   35.6169   45.9193 H   0  0  0  0  0  0  0  0  0  0  0  0
   59.4614   33.7192   48.5848 H   0  0  0  0  0  0  0  0  0  0  0  0
   61.0033   33.7150   47.6632 H   0  0  0  0  0  0  0  0  0  0  0  0
   59.9610   35.1779   47.6632 H   0  0  0  0  0  0  0  0  0  0  0  0
  1  2  1  0
  2  3  1  0
  3  4  1  0
  4  5  1  0
  3  6  1  0
  6  7  1  0
  7  8  1  0
  8  9  1  0
  9 10  2  0
 10 11  1  0
 11 12  2  0
 12 13  1  0
 13 14  2  0
 14 15  1  0
 15 16  2  0
 16 17  1  0
 16 18  1  0
 18 19  2  0
 19 20  1  0
 20 21  2  0
 21 22  1  0
 22 23  1  0
 22 24  2  0
 24  9  1  0
 15 10  1  0
 24 18  1  0
  1 25  1  0
  1 26  1  0
  1 27  1  0
  2 28  1  0
  2 29  1  0
  4 30  1  0
  4 31  1  0
  5 32  1  0
  5 33  1  0
  5 34  1  0
  6 35  1  0
  6 36  1  0
  7 37  1  0
  7 38  1  0
  8 39  1  0
  8 40  1  0
 11 41  1  0
 12 42  1  0
 13 43  1  0
 14 44  1  0
 17 45  1  0
 17 46  1  0
 17 47  1  0
 20 48  1  0
 21 49  1  0
 23 50  1  0
 23 51  1  0
 23 52  1  0
M  CHG  2   8   1  16   1
M  END
>  <UniqueID>  (21) 
21

>  <SMILES>  (21) 
CCN(CC)CC[NH2+]c1c2ccccc2[n+](C)c2nccc(C)c12

>  <Energy>  (21) 
91.36152361199964

>  <Genealogy>  (21) 
CCN(CC)CC[NH2+]c1c2ccccc2[n+](C)c2nccc(C)c12 (protonated)
CCN(CC)CC[NH2+]c1c2ccccc2[n+](C)c2nccc(C)c12 (3D coordinates assigned)
CCN(CC)CC[NH2+]c1c2ccccc2[n+](C)c2nccc(C)c12 (optimized conformer: 91.36152361199964 kcal/mol)

>  <smiles>  (21) 
CCN(CC)CCNc1c2ccccc2[n+](C)c2nccc(C)c12

>  <score_type>  (21) 
oracle

>  <origin>  (21) 
adg

>  <m_score__min__energy>  (21) 
-4.3200000000000003

>  <m_primary>  (21) 
energy

$$$$
