0:0
     RDKit          3D

 36 37  0  0  0  0  0  0  0  0999 V2000
   59.2670   35.3290   44.8660 C   0  0  0  0  0  0  0  0  0  0  0  0
   59.1660   34.0660   45.6070 N   0  0  0  0  0  0  0  0  0  0  0  0
   59.7430   33.9870   46.9540 C   0  0  0  0  0  0  0  0  0  0  0  0
   58.5090   32.9130   45.0160 C   0  0  0  0  0  0  0  0  0  0  0  0
   58.2930   32.8380   43.6230 C   0  0  0  0  0  0  0  0  0  0  0  0
   57.6580   31.7310   43.0570 C   0  0  0  0  0  0  0  0  0  0  0  0
   57.2260   30.6700   43.8650 C   0  0  0  0  0  0  0  0  0  0  0  0
   56.4910   29.4970   43.2590 C   0  0  0  0  0  0  0  0  0  0  0  0
   57.3860   28.3530   43.0220 N   0  0  0  0  0  0  0  0  0  0  0  0
   58.0840   27.9700   44.2270 C   0  0  0  0  0  0  0  0  0  0  0  0
   57.3940   27.3370   45.2770 C   0  0  0  0  0  0  0  0  0  0  0  0
   58.0590   27.0010   46.4600 C   0  0  0  0  0  0  0  0  0  0  0  0
   59.4170   27.2990   46.6080 C   0  0  0  0  0  0  0  0  0  0  0  0
   60.2490   26.8820   48.0950 Cl  0  0  0  0  0  0  0  0  0  0  0  0
   60.1110   27.9320   45.5720 C   0  0  0  0  0  0  0  0  0  0  0  0
   59.4490   28.2670   44.3880 C   0  0  0  0  0  0  0  0  0  0  0  0
   57.4280   30.7360   45.2490 C   0  0  0  0  0  0  0  0  0  0  0  0
   58.0650   31.8420   45.8190 C   0  0  0  0  0  0  0  0  0  0  0  0
   59.3340   36.1664   45.5761 H   0  0  0  0  0  0  0  0  0  0  0  0
   60.1666   35.3120   44.2333 H   0  0  0  0  0  0  0  0  0  0  0  0
   58.3761   35.4552   44.2333 H   0  0  0  0  0  0  0  0  0  0  0  0
   58.9440   34.0964   47.7021 H   0  0  0  0  0  0  0  0  0  0  0  0
   60.2369   33.0129   47.0848 H   0  0  0  0  0  0  0  0  0  0  0  0
   60.4806   34.7925   47.0848 H   0  0  0  0  0  0  0  0  0  0  0  0
   58.6290   33.6616   42.9758 H   0  0  0  0  0  0  0  0  0  0  0  0
   57.4956   31.6910   41.9698 H   0  0  0  0  0  0  0  0  0  0  0  0
   55.6900   29.1858   43.9457 H   0  0  0  0  0  0  0  0  0  0  0  0
   56.0801   29.8155   42.2896 H   0  0  0  0  0  0  0  0  0  0  0  0
   58.0680   28.5840   42.2610 H   0  0  0  0  0  0  0  0  0  0  0  0
   56.8130   27.5430   42.6860 H   0  0  0  0  0  0  0  0  0  0  0  0
   56.3244   27.1050   45.1665 H   0  0  0  0  0  0  0  0  0  0  0  0
   57.5136   26.5020   47.2746 H   0  0  0  0  0  0  0  0  0  0  0  0
   61.1793   28.1665   45.6893 H   0  0  0  0  0  0  0  0  0  0  0  0
   59.9991   28.7662   43.5767 H   0  0  0  0  0  0  0  0  0  0  0  0
   57.0833   29.9125   45.8916 H   0  0  0  0  0  0  0  0  0  0  0  0
   58.2219   31.8774   46.9072 H   0  0  0  0  0  0  0  0  0  0  0  0
  1  2  1  0
  2  3  1  0
  2  4  1  0
  4  5  2  0
  5  6  1  0
  6  7  2  0
  7  8  1  0
  8  9  1  0
  9 10  1  0
 10 11  2  0
 11 12  1  0
 12 13  2  0
 13 14  1  0
 13 15  1  0
 15 16  2  0
  7 17  1  0
 17 18  2  0
 18  4  1  0
 16 10  1  0
  1 19  1  0
  1 20  1  0
  1 21  1  0
  3 22  1  0
  3 23  1  0
  3 24  1  0
  5 25  1  0
  6 26  1  0
  8 27  1  0
  8 28  1  0
  9 29  1  0
  9 30  1  0
 11 31  1  0
 12 32  1  0
 15 33  1  0
 16 34  1  0
 17 35  1  0
 18 36  1  0
M  CHG  1   9   1
M  END
>  <UniqueID>  (1) 
1

>  <SMILES>  (1) 
CN(C)c1ccc(C[NH2+]c2ccc(Cl)cc2)cc1

>  <Energy>  (1) 
37.26951085977945

>  <Genealogy>  (1) 
CN(C)c1ccc(C[NH2+]c2ccc(Cl)cc2)cc1 (protonated)
CN(C)c1ccc(C[NH2+]c2ccc(Cl)cc2)cc1 (3D coordinates assigned)
CN(C)c1ccc(C[NH2+]c2ccc(Cl)cc2)cc1 (optimized conformer: 37.26951085977945 kcal/mol)

>  <smiles>  (1) 
CN(C)c1ccc(CNc2ccc(Cl)cc2)cc1

>  <score_type>  (1) 
oracle

>  <origin>  (1) 
adg

>  <m_score__min__energy>  (1) 
-5.4100000000000001

>  <m_primary>  (1) 
energy

$$$$
1:0
     RDKit          3D

 28 30  0  0  0  0  0  0  0  0999 V2000
   55.3650   29.4340   44.4870 O   0  0  0  0  0  0  0  0  0  0  0  0
   56.3430   29.1870   45.2410 C   0  0  0  0  0  0  0  0  0  0  0  0
   57.2720   30.1530   45.4580 N   0  0  0  0  0  0  0  0  0  0  0  0
   58.3430   29.9330   46.2620 C   0  0  0  0  0  0  0  0  0  0  0  0
   59.2830   30.9480   46.4670 C   0  0  0  0  0  0  0  0  0  0  0  0
   60.3890   30.7320   47.3050 C   0  0  0  0  0  0  0  0  0  0  0  0
   61.3910   31.8030   47.5050 C   0  0  0  0  0  0  0  0  0  0  0  0
   62.7260   31.5710   47.1300 C   0  0  0  0  0  0  0  0  0  0  0  0
   63.6970   32.5560   47.3190 C   0  0  0  0  0  0  0  0  0  0  0  0
   63.3470   33.7870   47.8760 C   0  0  0  0  0  0  0  0  0  0  0  0
   62.0220   34.0370   48.2420 C   0  0  0  0  0  0  0  0  0  0  0  0
   61.0390   33.0560   48.0590 C   0  0  0  0  0  0  0  0  0  0  0  0
   59.3760   33.4570   48.4730 Cl  0  0  0  0  0  0  0  0  0  0  0  0
   60.5540   29.4790   47.9180 C   0  0  0  0  0  0  0  0  0  0  0  0
   59.6170   28.4620   47.7170 C   0  0  0  0  0  0  0  0  0  0  0  0
   58.5030   28.6830   46.8880 C   0  0  0  0  0  0  0  0  0  0  0  0
   57.5310   27.6950   46.6510 C   0  0  0  0  0  0  0  0  0  0  0  0
   57.6340   26.5590   47.1910 O   0  0  0  0  0  0  0  0  0  0  0  0
   56.4700   27.9610   45.8340 N   0  0  0  0  0  0  0  0  0  0  0  0
   55.5300   26.9700   45.6200 O   0  0  0  0  0  0  0  0  0  0  0  0
   59.1554   31.9206   45.9692 H   0  0  0  0  0  0  0  0  0  0  0  0
   63.0076   30.6057   46.6841 H   0  0  0  0  0  0  0  0  0  0  0  0
   64.7400   32.3616   47.0284 H   0  0  0  0  0  0  0  0  0  0  0  0
   64.1145   34.5605   48.0268 H   0  0  0  0  0  0  0  0  0  0  0  0
   61.7491   35.0100   48.6765 H   0  0  0  0  0  0  0  0  0  0  0  0
   61.4276   29.2969   48.5612 H   0  0  0  0  0  0  0  0  0  0  0  0
   59.7511   27.4869   48.2081 H   0  0  0  0  0  0  0  0  0  0  0  0
   54.7770   27.0790   44.9510 H   0  0  0  0  0  0  0  0  0  0  0  0
  1  2  2  0
  2  3  1  0
  3  4  1  0
  4  5  2  0
  5  6  1  0
  6  7  1  0
  7  8  2  0
  8  9  1  0
  9 10  2  0
 10 11  1  0
 11 12  2  0
 12 13  1  0
  6 14  2  0
 14 15  1  0
 15 16  2  0
 16 17  1  0
 17 18  2  0
 17 19  1  0
 19 20  1  0
 19  2  1  0
 16  4  1  0
 12  7  1  0
  5 21  1  0
  8 22  1  0
  9 23  1  0
 10 24  1  0
 11 25  1  0
 14 26  1  0
 15 27  1  0
 20 28  1  0
M  CHG  1   3  -1
M  END
>  <UniqueID>  (2) 
2

>  <SMILES>  (2) 
O=c1[n-]c2cc(-c3ccccc3Cl)ccc2c(=O)n1O

>  <Energy>  (2) 
44.487143643682074

>  <Genealogy>  (2) 
O=c1[n-]c2cc(-c3ccccc3Cl)ccc2c(=O)n1O (protonated)
O=c1[n-]c2cc(-c3ccccc3Cl)ccc2c(=O)n1O (3D coordinates assigned)
O=c1[n-]c2cc(-c3ccccc3Cl)ccc2c(=O)n1O (optimized conformer: 44.487143643682074 kcal/mol)

>  <smiles>  (2) 
O=c1[nH]c2cc(-c3ccccc3Cl)ccc2c(=O)n1O

>  <score_type>  (2) 
oracle

>  <origin>  (2) 
adg

>  <m_score__min__energy>  (2) 
-9.9700000000000006

>  <m_primary>  (2) 
energy

$$$$
2:0
     RDKit          3D

 32 33  0  0  0  0  0  0  0  0999 V2000
   60.7600   30.8830   48.5860 C   0  0  0  0  0  0  0  0  0  0  0  0
   61.5420   31.9210   47.8250 C   0  0  0  0  0  0  0  0  0  0  0  0
   62.9110   31.6920   47.5920 C   0  0  0  0  0  0  0  0  0  0  0  0
   63.6860   32.6320   46.9130 C   0  0  0  0  0  0  0  0  0  0  0  0
   63.1100   33.8190   46.4640 C   0  0  0  0  0  0  0  0  0  0  0  0
   61.7580   34.0710   46.6950 C   0  0  0  0  0  0  0  0  0  0  0  0
   60.9540   33.1380   47.3810 C   0  0  0  0  0  0  0  0  0  0  0  0
   59.5600   33.4480   47.6170 N   0  0  0  0  0  0  0  0  0  0  0  0
   58.7410   33.0620   46.4950 C   0  0  0  0  0  0  0  0  0  0  0  0
   57.5950   34.1010   45.9320 S   0  0  0  0  0  0  0  0  0  0  0  0
   58.9260   31.7690   45.8840 N   0  0  0  0  0  0  0  0  0  0  0  0
   57.9480   31.1080   45.0640 C   0  0  0  0  0  0  0  0  0  0  0  0
   57.1980   30.0290   45.5620 C   0  0  0  0  0  0  0  0  0  0  0  0
   56.2750   29.3720   44.7410 C   0  0  0  0  0  0  0  0  0  0  0  0
   55.5300   28.3120   45.2430 O   0  0  0  0  0  0  0  0  0  0  0  0
   56.1050   29.7800   43.4150 C   0  0  0  0  0  0  0  0  0  0  0  0
   56.8650   30.8360   42.9050 C   0  0  0  0  0  0  0  0  0  0  0  0
   57.7910   31.4940   43.7220 C   0  0  0  0  0  0  0  0  0  0  0  0
   58.5210   32.5170   43.2130 F   0  0  0  0  0  0  0  0  0  0  0  0
   60.8849   31.0488   49.6662 H   0  0  0  0  0  0  0  0  0  0  0  0
   59.6946   30.9614   48.3238 H   0  0  0  0  0  0  0  0  0  0  0  0
   61.1293   29.8806   48.3238 H   0  0  0  0  0  0  0  0  0  0  0  0
   63.3751   30.7610   47.9495 H   0  0  0  0  0  0  0  0  0  0  0  0
   64.7531   32.4363   46.7316 H   0  0  0  0  0  0  0  0  0  0  0  0
   63.7226   34.5580   45.9268 H   0  0  0  0  0  0  0  0  0  0  0  0
   61.3127   35.0109   46.3369 H   0  0  0  0  0  0  0  0  0  0  0  0
   59.4510   34.4650   47.8350 H   0  0  0  0  0  0  0  0  0  0  0  0
   59.2060   32.9340   48.4580 H   0  0  0  0  0  0  0  0  0  0  0  0
   59.8440   31.2900   46.0110 H   0  0  0  0  0  0  0  0  0  0  0  0
   57.3372   29.6994   46.6022 H   0  0  0  0  0  0  0  0  0  0  0  0
   55.3725   29.2695   42.7725 H   0  0  0  0  0  0  0  0  0  0  0  0
   56.7350   31.1506   41.8590 H   0  0  0  0  0  0  0  0  0  0  0  0
  1  2  1  0
  2  3  2  0
  3  4  1  0
  4  5  2  0
  5  6  1  0
  6  7  2  0
  7  8  1  0
  8  9  1  0
  9 10  2  0
  9 11  1  0
 11 12  1  0
 12 13  2  0
 13 14  1  0
 14 15  1  0
 14 16  2  0
 16 17  1  0
 17 18  2  0
 18 19  1  0
  7  2  1  0
 18 12  1  0
  1 20  1  0
  1 21  1  0
  1 22  1  0
  3 23  1  0
  4 24  1  0
  5 25  1  0
  6 26  1  0
  8 27  1  0
  8 28  1  0
 11 29  1  0
 13 30  1  0
 16 31  1  0
 17 32  1  0
M  CHG  2   8   1  15  -1
M  END
>  <UniqueID>  (3) 
3

>  <SMILES>  (3) 
Cc1ccccc1[NH2+]C(=S)Nc1cc([O-])ccc1F

>  <Energy>  (3) 
41.748870751812476

>  <Genealogy>  (3) 
Cc1ccccc1[NH2+]C(=S)Nc1cc([O-])ccc1F (protonated)
Cc1ccccc1[NH2+]C(=S)Nc1cc([O-])ccc1F (3D coordinates assigned)
Cc1ccccc1[NH2+]C(=S)Nc1cc([O-])ccc1F (optimized conformer: 41.748870751812476 kcal/mol)

>  <smiles>  (3) 
Cc1ccccc1NC(=S)Nc1cc(O)ccc1F

>  <score_type>  (3) 
oracle

>  <origin>  (3) 
adg

>  <m_score__min__energy>  (3) 
-8.7899999999999991

>  <m_primary>  (3) 
energy

$$$$
3:0
     RDKit          3D

 37 40  0  0  0  0  0  0  0  0999 V2000
   55.5020   29.0260   44.9990 O   0  0  0  0  0  0  0  0  0  0  0  0
   56.7020   29.1340   44.6290 C   0  0  0  0  0  0  0  0  0  0  0  0
   57.6380   28.0710   44.8750 N   0  0  0  0  0  0  0  0  0  0  0  0
   57.2610   26.7560   45.3200 C   0  0  0  0  0  0  0  0  0  0  0  0
   56.3200   26.5660   46.3470 C   0  0  0  0  0  0  0  0  0  0  0  0
   55.9620   25.3100   46.7280 N   0  0  0  0  0  0  0  0  0  0  0  0
   56.4880   24.2050   46.1360 C   0  0  0  0  0  0  0  0  0  0  0  0
   56.0990   22.9290   46.5600 C   0  0  0  0  0  0  0  0  0  0  0  0
   56.6350   21.7940   45.9450 C   0  0  0  0  0  0  0  0  0  0  0  0
   57.5590   21.9290   44.9030 C   0  0  0  0  0  0  0  0  0  0  0  0
   57.9530   23.2000   44.4720 C   0  0  0  0  0  0  0  0  0  0  0  0
   57.4200   24.3440   45.0860 C   0  0  0  0  0  0  0  0  0  0  0  0
   57.7950   25.6310   44.6780 C   0  0  0  0  0  0  0  0  0  0  0  0
   57.1560   30.3960   44.0030 C   0  0  0  0  0  0  0  0  0  0  0  0
   56.9780   30.5520   42.6180 C   0  0  0  0  0  0  0  0  0  0  0  0
   57.4310   31.6970   41.9630 C   0  0  0  0  0  0  0  0  0  0  0  0
   58.0720   32.7080   42.6780 C   0  0  0  0  0  0  0  0  0  0  0  0
   58.2550   32.5870   44.0620 C   0  0  0  0  0  0  0  0  0  0  0  0
   58.8880   33.6170   44.7760 C   0  0  0  0  0  0  0  0  0  0  0  0
   59.0520   33.5170   46.1580 C   0  0  0  0  0  0  0  0  0  0  0  0
   58.5800   32.3960   46.8400 C   0  0  0  0  0  0  0  0  0  0  0  0
   57.9500   31.3610   46.1450 C   0  0  0  0  0  0  0  0  0  0  0  0
   57.7900   31.4290   44.7430 C   0  0  0  0  0  0  0  0  0  0  0  0
   58.6570   28.2750   44.7760 H   0  0  0  0  0  0  0  0  0  0  0  0
   55.8707   27.4377   46.8453 H   0  0  0  0  0  0  0  0  0  0  0  0
   55.3712   22.8194   47.3775 H   0  0  0  0  0  0  0  0  0  0  0  0
   56.3296   20.7921   46.2811 H   0  0  0  0  0  0  0  0  0  0  0  0
   57.9769   21.0327   44.4212 H   0  0  0  0  0  0  0  0  0  0  0  0
   58.6798   23.3028   43.6527 H   0  0  0  0  0  0  0  0  0  0  0  0
   58.5101   25.7583   43.8519 H   0  0  0  0  0  0  0  0  0  0  0  0
   56.4748   29.7608   42.0428 H   0  0  0  0  0  0  0  0  0  0  0  0
   57.2820   31.8029   40.8783 H   0  0  0  0  0  0  0  0  0  0  0  0
   58.4354   33.6040   42.1536 H   0  0  0  0  0  0  0  0  0  0  0  0
   59.2561   34.5064   44.2437 H   0  0  0  0  0  0  0  0  0  0  0  0
   59.5547   34.3243   46.7108 H   0  0  0  0  0  0  0  0  0  0  0  0
   58.7044   32.3264   47.9307 H   0  0  0  0  0  0  0  0  0  0  0  0
   57.5750   30.4849   46.6944 H   0  0  0  0  0  0  0  0  0  0  0  0
  1  2  2  0
  2  3  1  0
  3  4  1  0
  4  5  2  0
  5  6  1  0
  6  7  2  0
  7  8  1  0
  8  9  2  0
  9 10  1  0
 10 11  2  0
 11 12  1  0
 12 13  2  0
  2 14  1  0
 14 15  2  0
 15 16  1  0
 16 17  2  0
 17 18  1  0
 18 19  2  0
 19 20  1  0
 20 21  2  0
 21 22  1  0
 22 23  2  0
 13  4  1  0
 23 14  1  0
 12  7  1  0
 23 18  1  0
  3 24  1  0
  5 25  1  0
  8 26  1  0
  9 27  1  0
 10 28  1  0
 11 29  1  0
 13 30  1  0
 15 31  1  0
 16 32  1  0
 17 33  1  0
 19 34  1  0
 20 35  1  0
 21 36  1  0
 22 37  1  0
M  END
>  <UniqueID>  (4) 
4

>  <SMILES>  (4) 
O=C(Nc1cnc2ccccc2c1)c1cccc2ccccc12

>  <Energy>  (4) 
59.29505765008639

>  <Genealogy>  (4) 
O=C(Nc1cnc2ccccc2c1)c1cccc2ccccc12 (3D coordinates assigned)
O=C(Nc1cnc2ccccc2c1)c1cccc2ccccc12 (optimized conformer: 59.29505765008639 kcal/mol)

>  <smiles>  (4) 
O=C(Nc1cnc2ccccc2c1)c1cccc2ccccc12

>  <score_type>  (4) 
oracle

>  <origin>  (4) 
adg

>  <m_score__min__energy>  (4) 
-8.4299999999999997

>  <m_primary>  (4) 
energy

$$$$
4:0
     RDKit          3D

 53 55  0  0  0  0  0  0  0  0999 V2000
   63.3700   34.1620   51.3570 C   0  0  0  0  0  0  0  0  0  0  0  0
   64.4530   33.6720   50.5630 O   0  0  0  0  0  0  0  0  0  0  0  0
   64.2460   32.5640   49.7530 C   0  0  0  0  0  0  0  0  0  0  0  0
   64.4930   31.3830   50.1160 O   0  0  0  0  0  0  0  0  0  0  0  0
   63.7260   32.7400   48.4410 N   0  0  0  0  0  0  0  0  0  0  0  0
   63.5030   31.5930   47.5810 C   0  0  0  0  0  0  0  0  0  0  0  0
   62.0410   31.5260   47.2430 C   0  0  0  0  0  0  0  0  0  0  0  0
   61.3720   32.8810   47.2160 C   0  0  0  0  0  0  0  0  0  0  0  0
   62.4260   33.8650   46.7500 C   0  0  0  0  0  0  0  0  0  0  0  0
   63.3990   34.0490   47.9000 C   0  0  0  0  0  0  0  0  0  0  0  0
   60.2050   32.7700   46.2640 C   0  0  0  0  0  0  0  0  0  0  0  0
   59.2150   33.7700   46.3880 N   0  0  0  0  0  0  0  0  0  0  0  0
   57.8650   33.3090   46.3250 C   0  0  0  0  0  0  0  0  0  0  0  0
   57.5900   32.5880   45.0600 C   0  0  0  0  0  0  0  0  0  0  0  0
   56.9930   31.3790   44.9870 N   0  0  0  0  0  0  0  0  0  0  0  0
   56.8800   30.9770   43.7010 C   0  0  0  0  0  0  0  0  0  0  0  0
   56.2660   29.6830   43.2410 C   0  0  0  0  0  0  0  0  0  0  0  0
   57.4310   31.9800   42.9530 C   0  0  0  0  0  0  0  0  0  0  0  0
   57.5230   31.9620   41.4670 C   0  0  0  0  0  0  0  0  0  0  0  0
   57.8490   32.9320   43.7890 N   0  0  0  0  0  0  0  0  0  0  0  0
   59.3870   34.7690   47.3790 C   0  0  0  0  0  0  0  0  0  0  0  0
   60.0880   34.3610   48.6330 C   0  0  0  0  0  0  0  0  0  0  0  0
   60.9750   33.2580   48.5310 N   0  0  0  0  0  0  0  0  0  0  0  0
   60.6280   32.1430   49.3810 C   0  0  0  0  0  0  0  0  0  0  0  0
   63.6170   34.0502   52.4231 H   0  0  0  0  0  0  0  0  0  0  0  0
   63.2000   35.2247   51.1295 H   0  0  0  0  0  0  0  0  0  0  0  0
   62.4596   33.5881   51.1295 H   0  0  0  0  0  0  0  0  0  0  0  0
   64.0923   31.7011   46.6585 H   0  0  0  0  0  0  0  0  0  0  0  0
   63.8130   30.6713   48.0951 H   0  0  0  0  0  0  0  0  0  0  0  0
   61.9326   31.0631   46.2511 H   0  0  0  0  0  0  0  0  0  0  0  0
   61.5507   30.9357   48.0311 H   0  0  0  0  0  0  0  0  0  0  0  0
   62.9521   33.4668   45.8699 H   0  0  0  0  0  0  0  0  0  0  0  0
   61.9693   34.8241   46.4643 H   0  0  0  0  0  0  0  0  0  0  0  0
   64.3141   34.5397   47.5370 H   0  0  0  0  0  0  0  0  0  0  0  0
   62.9454   34.6771   48.6809 H   0  0  0  0  0  0  0  0  0  0  0  0
   60.6006   32.8116   45.2384 H   0  0  0  0  0  0  0  0  0  0  0  0
   59.7055   31.8218   46.5119 H   0  0  0  0  0  0  0  0  0  0  0  0
   57.6807   32.6292   47.1700 H   0  0  0  0  0  0  0  0  0  0  0  0
   57.2013   34.1849   46.3714 H   0  0  0  0  0  0  0  0  0  0  0  0
   55.9804   29.0811   44.1163 H   0  0  0  0  0  0  0  0  0  0  0  0
   55.3729   29.8959   42.6352 H   0  0  0  0  0  0  0  0  0  0  0  0
   56.9957   29.1258   42.6352 H   0  0  0  0  0  0  0  0  0  0  0  0
   58.5614   31.7588   41.1664 H   0  0  0  0  0  0  0  0  0  0  0  0
   56.8653   31.1755   41.0684 H   0  0  0  0  0  0  0  0  0  0  0  0
   57.2102   32.9384   41.0684 H   0  0  0  0  0  0  0  0  0  0  0  0
   58.3070   33.8100   43.4860 H   0  0  0  0  0  0  0  0  0  0  0  0
   59.9638   35.5896   46.9274 H   0  0  0  0  0  0  0  0  0  0  0  0
   58.3685   35.0397   47.6941 H   0  0  0  0  0  0  0  0  0  0  0  0
   60.6685   35.2253   48.9880 H   0  0  0  0  0  0  0  0  0  0  0  0
   59.2925   34.0332   49.3184 H   0  0  0  0  0  0  0  0  0  0  0  0
   60.7213   32.4427   50.4353 H   0  0  0  0  0  0  0  0  0  0  0  0
   59.5917   31.8354   49.1775 H   0  0  0  0  0  0  0  0  0  0  0  0
   61.3068   31.3017   49.1775 H   0  0  0  0  0  0  0  0  0  0  0  0
  1  2  1  0
  2  3  1  0
  3  4  2  0
  3  5  1  0
  5  6  1  0
  6  7  1  0
  7  8  1  0
  8  9  1  0
  9 10  1  0
  8 11  1  0
 11 12  1  0
 12 13  1  0
 13 14  1  0
 14 15  2  0
 15 16  1  0
 16 17  1  0
 16 18  2  0
 18 19  1  0
 18 20  1  0
 12 21  1  0
 21 22  1  0
 22 23  1  0
 23 24  1  0
 10  5  1  0
 20 14  1  0
 23  8  1  0
  1 25  1  0
  1 26  1  0
  1 27  1  0
  6 28  1  0
  6 29  1  0
  7 30  1  0
  7 31  1  0
  9 32  1  0
  9 33  1  0
 10 34  1  0
 10 35  1  0
 11 36  1  0
 11 37  1  0
 13 38  1  0
 13 39  1  0
 17 40  1  0
 17 41  1  0
 17 42  1  0
 19 43  1  0
 19 44  1  0
 19 45  1  0
 20 46  1  0
 21 47  1  0
 21 48  1  0
 22 49  1  0
 22 50  1  0
 24 51  1  0
 24 52  1  0
 24 53  1  0
M  END
>  <smiles>  (5) 
COC(=O)N1CCC2(CC1)CN(Cc1nc(C)c(C)[nH]1)CCN2C

>  <score_type>  (5) 
oracle

>  <origin>  (5) 
adg

>  <m_score__min__energy>  (5) 
-7.8700000000000001

>  <m_primary>  (5) 
energy

$$$$
5:0
     RDKit          3D

 28 30  0  0  0  0  0  0  0  0999 V2000
   56.6310   31.1390   42.4050 O   0  0  0  0  0  0  0  0  0  0  0  0
   56.8800   30.7380   43.8320 S   0  0  0  0  0  0  0  0  0  0  0  0
   55.5640   30.4310   44.4910 O   0  0  0  0  0  0  0  0  0  0  0  0
   57.8750   29.3170   43.8620 N   0  0  0  0  0  0  0  0  0  0  0  0
   58.4190   28.7430   45.0650 C   0  0  0  0  0  0  0  0  0  0  0  0
   59.7760   28.9040   45.4140 C   0  0  0  0  0  0  0  0  0  0  0  0
   60.2780   28.3310   46.5860 C   0  0  0  0  0  0  0  0  0  0  0  0
   59.4370   27.5980   47.4250 C   0  0  0  0  0  0  0  0  0  0  0  0
   58.0900   27.4370   47.0950 C   0  0  0  0  0  0  0  0  0  0  0  0
   57.5800   28.0070   45.9240 C   0  0  0  0  0  0  0  0  0  0  0  0
   56.2690   27.8310   45.6230 F   0  0  0  0  0  0  0  0  0  0  0  0
   57.6970   32.0630   44.6560 C   0  0  0  0  0  0  0  0  0  0  0  0
   58.1800   33.1550   43.9090 C   0  0  0  0  0  0  0  0  0  0  0  0
   58.8450   34.2150   44.5400 C   0  0  0  0  0  0  0  0  0  0  0  0
   59.0240   34.1810   45.9230 C   0  0  0  0  0  0  0  0  0  0  0  0
   59.6580   35.1650   46.6070 N   0  0  0  0  0  0  0  0  0  0  0  0
   59.5470   34.5640   48.1450 S   0  0  0  0  0  0  0  0  0  0  0  0
   58.7430   33.1230   48.0210 N   0  0  0  0  0  0  0  0  0  0  0  0
   58.5330   33.0830   46.6820 C   0  0  0  0  0  0  0  0  0  0  0  0
   57.8710   32.0300   46.0500 C   0  0  0  0  0  0  0  0  0  0  0  0
   58.1460   28.9160   42.9360 H   0  0  0  0  0  0  0  0  0  0  0  0
   60.4435   29.4841   44.7598 H   0  0  0  0  0  0  0  0  0  0  0  0
   61.3388   28.4581   46.8479 H   0  0  0  0  0  0  0  0  0  0  0  0
   59.8354   27.1473   48.3459 H   0  0  0  0  0  0  0  0  0  0  0  0
   57.4280   26.8603   47.7577 H   0  0  0  0  0  0  0  0  0  0  0  0
   58.0337   33.1761   42.8190 H   0  0  0  0  0  0  0  0  0  0  0  0
   59.2216   35.0644   43.9512 H   0  0  0  0  0  0  0  0  0  0  0  0
   57.4889   31.1820   46.6373 H   0  0  0  0  0  0  0  0  0  0  0  0
  1  2  2  0
  2  3  2  0
  2  4  1  0
  4  5  1  0
  5  6  2  0
  6  7  1  0
  7  8  2  0
  8  9  1  0
  9 10  2  0
 10 11  1  0
  2 12  1  0
 12 13  1  0
 13 14  2  0
 14 15  1  0
 15 16  2  0
 16 17  1  0
 17 18  1  0
 18 19  2  0
 19 20  1  0
 10  5  1  0
 20 12  2  0
 19 15  1  0
  4 21  1  0
  6 22  1  0
  7 23  1  0
  8 24  1  0
  9 25  1  0
 13 26  1  0
 14 27  1  0
 20 28  1  0
M  END
>  <UniqueID>  (6) 
5

>  <SMILES>  (6) 
O=S(=O)(Nc1ccccc1F)c1ccc2nsnc2c1

>  <Energy>  (6) 
71.57383706391136

>  <Genealogy>  (6) 
O=S(=O)(Nc1ccccc1F)c1ccc2nsnc2c1 (3D coordinates assigned)
O=S(=O)(Nc1ccccc1F)c1ccc2nsnc2c1 (optimized conformer: 71.57383706391136 kcal/mol)

>  <smiles>  (6) 
O=S(=O)(Nc1ccccc1F)c1ccc2nsnc2c1

>  <score_type>  (6) 
oracle

>  <origin>  (6) 
adg

>  <m_score__min__energy>  (6) 
-8.2799999999999994

>  <m_primary>  (6) 
energy

$$$$
6:0
     RDKit          3D

 53 56  0  0  0  0  0  0  0  0999 V2000
   58.3680   23.6440   45.2570 C   0  0  0  0  0  0  0  0  0  0  0  0
   57.0440   24.2230   44.9520 N   0  0  0  0  0  0  0  0  0  0  0  0
   56.6540   23.7900   43.5920 C   0  0  0  0  0  0  0  0  0  0  0  0
   57.0190   25.7140   45.0520 C   0  0  0  0  0  0  0  0  0  0  0  0
   57.3860   26.1540   46.5030 C   0  0  0  0  0  0  0  0  0  0  0  0
   58.3780   27.3270   46.6100 C   0  0  0  0  0  0  0  0  0  0  0  0
   58.1210   28.3410   45.5810 N   0  0  0  0  0  0  0  0  0  0  0  0
   58.2250   29.7510   45.8700 C   0  0  0  0  0  0  0  0  0  0  0  0
   59.1950   30.2490   46.7570 C   0  0  0  0  0  0  0  0  0  0  0  0
   59.2710   31.6220   46.9950 C   0  0  0  0  0  0  0  0  0  0  0  0
   58.4070   32.4990   46.3370 C   0  0  0  0  0  0  0  0  0  0  0  0
   58.4940   33.9050   46.6070 N   0  0  0  0  0  0  0  0  0  0  0  0
   59.6850   34.7030   46.5520 C   0  0  0  0  0  0  0  0  0  0  0  0
   59.6270   35.8380   46.0100 O   0  0  0  0  0  0  0  0  0  0  0  0
   60.9590   34.2520   47.1600 C   0  0  0  0  0  0  0  0  0  0  0  0
   62.0340   33.8410   46.3520 C   0  0  0  0  0  0  0  0  0  0  0  0
   63.2350   33.4140   46.9270 C   0  0  0  0  0  0  0  0  0  0  0  0
   63.3790   33.3840   48.3210 C   0  0  0  0  0  0  0  0  0  0  0  0
   64.5480   32.9680   48.8890 N   0  0  0  0  0  0  0  0  0  0  0  0
   64.7060   32.9310   50.2410 C   0  0  0  0  0  0  0  0  0  0  0  0
   63.6630   33.3180   51.0850 C   0  0  0  0  0  0  0  0  0  0  0  0
   62.4550   33.7450   50.5320 C   0  0  0  0  0  0  0  0  0  0  0  0
   62.2990   33.7820   49.1410 C   0  0  0  0  0  0  0  0  0  0  0  0
   61.0960   34.2080   48.5590 C   0  0  0  0  0  0  0  0  0  0  0  0
   57.4450   31.9670   45.4640 C   0  0  0  0  0  0  0  0  0  0  0  0
   57.3850   30.6260   45.2500 N   0  0  0  0  0  0  0  0  0  0  0  0
   57.8940   27.9290   44.1900 C   0  0  0  0  0  0  0  0  0  0  0  0
   57.9530   26.4060   44.0260 C   0  0  0  0  0  0  0  0  0  0  0  0
   58.5005   23.5861   46.3475 H   0  0  0  0  0  0  0  0  0  0  0  0
   58.4350   22.6344   44.8254 H   0  0  0  0  0  0  0  0  0  0  0  0
   59.1547   24.2802   44.8254 H   0  0  0  0  0  0  0  0  0  0  0  0
   55.9194   22.9744   43.6634 H   0  0  0  0  0  0  0  0  0  0  0  0
   56.2090   24.6379   43.0507 H   0  0  0  0  0  0  0  0  0  0  0  0
   57.5437   23.4358   43.0507 H   0  0  0  0  0  0  0  0  0  0  0  0
   55.9954   26.0366   44.8106 H   0  0  0  0  0  0  0  0  0  0  0  0
   56.4569   26.4485   47.0129 H   0  0  0  0  0  0  0  0  0  0  0  0
   57.8895   25.2903   46.9619 H   0  0  0  0  0  0  0  0  0  0  0  0
   58.2781   27.7908   47.6024 H   0  0  0  0  0  0  0  0  0  0  0  0
   59.3951   26.9347   46.4631 H   0  0  0  0  0  0  0  0  0  0  0  0
   59.8899   29.5608   47.2604 H   0  0  0  0  0  0  0  0  0  0  0  0
   60.0147   32.0147   47.7040 H   0  0  0  0  0  0  0  0  0  0  0  0
   61.9291   33.8555   45.2571 H   0  0  0  0  0  0  0  0  0  0  0  0
   64.0699   33.1005   46.2830 H   0  0  0  0  0  0  0  0  0  0  0  0
   65.3490   32.6690   48.2870 H   0  0  0  0  0  0  0  0  0  0  0  0
   65.6609   32.5943   50.6709 H   0  0  0  0  0  0  0  0  0  0  0  0
   63.7925   33.2865   52.1769 H   0  0  0  0  0  0  0  0  0  0  0  0
   61.6268   34.0520   51.1877 H   0  0  0  0  0  0  0  0  0  0  0  0
   60.2548   34.5094   49.2005 H   0  0  0  0  0  0  0  0  0  0  0  0
   56.7383   32.6367   44.9521 H   0  0  0  0  0  0  0  0  0  0  0  0
   56.9020   28.2824   43.8722 H   0  0  0  0  0  0  0  0  0  0  0  0
   58.6898   28.3688   43.5709 H   0  0  0  0  0  0  0  0  0  0  0  0
   57.6338   26.1387   43.0078 H   0  0  0  0  0  0  0  0  0  0  0  0
   58.9854   26.0687   44.2000 H   0  0  0  0  0  0  0  0  0  0  0  0
  1  2  1  0
  2  3  1  0
  2  4  1  0
  4  5  1  0
  5  6  1  0
  6  7  1  0
  7  8  1  0
  8  9  2  0
  9 10  1  0
 10 11  2  0
 11 12  1  0
 12 13  1  0
 13 14  2  0
 13 15  1  0
 15 16  2  0
 16 17  1  0
 17 18  2  0
 18 19  1  0
 19 20  2  0
 20 21  1  0
 21 22  2  0
 22 23  1  0
 23 24  2  0
 11 25  1  0
 25 26  2  0
  7 27  1  0
 27 28  1  0
 28  4  1  0
 26  8  1  0
 24 15  1  0
 23 18  1  0
  1 29  1  0
  1 30  1  0
  1 31  1  0
  3 32  1  0
  3 33  1  0
  3 34  1  0
  4 35  1  0
  5 36  1  0
  5 37  1  0
  6 38  1  0
  6 39  1  0
  9 40  1  0
 10 41  1  0
 16 42  1  0
 17 43  1  0
 19 44  1  0
 20 45  1  0
 21 46  1  0
 22 47  1  0
 24 48  1  0
 25 49  1  0
 27 50  1  0
 27 51  1  0
 28 52  1  0
 28 53  1  0
M  CHG  2  12  -1  19   1
M  END
>  <UniqueID>  (7) 
6

>  <SMILES>  (7) 
CN(C)C1CCN(c2ccc([N-]C(=O)c3ccc4[nH+]cccc4c3)cn2)CC1

>  <Energy>  (7) 
77.64624744603861

>  <Genealogy>  (7) 
CN(C)C1CCN(c2ccc([N-]C(=O)c3ccc4[nH+]cccc4c3)cn2)CC1 (protonated)
CN(C)C1CCN(c2ccc([N-]C(=O)c3ccc4[nH+]cccc4c3)cn2)CC1 (3D coordinates assigned)
CN(C)C1CCN(c2ccc([N-]C(=O)c3ccc4[nH+]cccc4c3)cn2)CC1 (nonaromatic ring conformer: 77.64624744603861 kcal/mol)

>  <smiles>  (7) 
CN(C)C1CCN(c2ccc(NC(=O)c3ccc4ncccc4c3)cn2)CC1

>  <score_type>  (7) 
oracle

>  <origin>  (7) 
adg

>  <m_score__min__energy>  (7) 
-8.3699999999999992

>  <m_primary>  (7) 
energy

$$$$
7:0
     RDKit          3D

 43 45  0  0  0  0  0  0  0  0999 V2000
   57.0040   29.9920   42.6220 O   0  0  0  0  0  0  0  0  0  0  0  0
   57.2660   30.6210   43.9600 S   0  0  0  0  0  0  0  0  0  0  0  0
   55.9540   30.9020   44.6380 O   0  0  0  0  0  0  0  0  0  0  0  0
   58.1430   32.1080   43.7330 N   0  0  0  0  0  0  0  0  0  0  0  0
   57.6930   33.1530   44.6700 C   0  0  0  0  0  0  0  0  0  0  0  0
   58.5160   34.4630   44.5190 C   0  0  0  0  0  0  0  0  0  0  0  0
   59.6100   34.5680   45.5870 C   0  0  0  0  0  0  0  0  0  0  0  0
   59.0250   34.5870   46.9490 N   0  0  0  0  0  0  0  0  0  0  0  0
   60.0430   34.4640   48.0150 C   0  0  0  0  0  0  0  0  0  0  0  0
   61.1230   33.4570   47.6980 C   0  0  0  0  0  0  0  0  0  0  0  0
   60.8560   32.0800   47.7360 C   0  0  0  0  0  0  0  0  0  0  0  0
   61.8790   31.1750   47.4500 C   0  0  0  0  0  0  0  0  0  0  0  0
   63.1520   31.6450   47.1240 C   0  0  0  0  0  0  0  0  0  0  0  0
   63.3820   33.0220   47.0860 C   0  0  0  0  0  0  0  0  0  0  0  0
   62.3740   33.8890   47.3690 N   0  0  0  0  0  0  0  0  0  0  0  0
   57.8360   33.7170   47.1410 C   0  0  0  0  0  0  0  0  0  0  0  0
   57.7600   32.5880   46.1040 C   0  0  0  0  0  0  0  0  0  0  0  0
   58.2170   29.5090   44.9390 C   0  0  0  0  0  0  0  0  0  0  0  0
   59.6160   29.5460   44.8930 C   0  0  0  0  0  0  0  0  0  0  0  0
   60.3620   28.6620   45.6750 C   0  0  0  0  0  0  0  0  0  0  0  0
   59.6970   27.7450   46.4930 C   0  0  0  0  0  0  0  0  0  0  0  0
   60.6070   26.6240   47.4850 Cl  0  0  0  0  0  0  0  0  0  0  0  0
   58.3370   27.7180   46.5200 N   0  0  0  0  0  0  0  0  0  0  0  0
   57.5910   28.5700   45.7680 C   0  0  0  0  0  0  0  0  0  0  0  0
   58.0210   32.4200   42.7420 H   0  0  0  0  0  0  0  0  0  0  0  0
   56.6537   33.4281   44.4373 H   0  0  0  0  0  0  0  0  0  0  0  0
   58.9856   34.4770   43.5244 H   0  0  0  0  0  0  0  0  0  0  0  0
   57.8318   35.3154   44.6423 H   0  0  0  0  0  0  0  0  0  0  0  0
   60.2840   33.7033   45.4974 H   0  0  0  0  0  0  0  0  0  0  0  0
   60.1626   35.5062   45.4306 H   0  0  0  0  0  0  0  0  0  0  0  0
   60.5146   35.4468   48.1621 H   0  0  0  0  0  0  0  0  0  0  0  0
   59.5257   34.1122   48.9198 H   0  0  0  0  0  0  0  0  0  0  0  0
   59.8489   31.7170   47.9891 H   0  0  0  0  0  0  0  0  0  0  0  0
   61.6824   30.0932   47.4815 H   0  0  0  0  0  0  0  0  0  0  0  0
   63.9650   30.9389   46.8995 H   0  0  0  0  0  0  0  0  0  0  0  0
   64.3799   33.4054   46.8268 H   0  0  0  0  0  0  0  0  0  0  0  0
   57.8839   33.2708   48.1453 H   0  0  0  0  0  0  0  0  0  0  0  0
   56.9402   34.3436   47.0190 H   0  0  0  0  0  0  0  0  0  0  0  0
   58.6533   31.9531   46.1984 H   0  0  0  0  0  0  0  0  0  0  0  0
   56.8475   32.0030   46.2915 H   0  0  0  0  0  0  0  0  0  0  0  0
   60.1266   30.2706   44.2416 H   0  0  0  0  0  0  0  0  0  0  0  0
   61.4614   28.6872   45.6474 H   0  0  0  0  0  0  0  0  0  0  0  0
   56.4929   28.5217   45.8108 H   0  0  0  0  0  0  0  0  0  0  0  0
  1  2  2  0
  2  3  2  0
  2  4  1  0
  4  5  1  0
  5  6  1  0
  6  7  1  0
  7  8  1  0
  8  9  1  0
  9 10  1  0
 10 11  2  0
 11 12  1  0
 12 13  2  0
 13 14  1  0
 14 15  2  0
  8 16  1  0
 16 17  1  0
  2 18  1  0
 18 19  2  0
 19 20  1  0
 20 21  2  0
 21 22  1  0
 21 23  1  0
 23 24  2  0
 17  5  1  0
 24 18  1  0
 15 10  1  0
  4 25  1  0
  5 26  1  0
  6 27  1  0
  6 28  1  0
  7 29  1  0
  7 30  1  0
  9 31  1  0
  9 32  1  0
 11 33  1  0
 12 34  1  0
 13 35  1  0
 14 36  1  0
 16 37  1  0
 16 38  1  0
 17 39  1  0
 17 40  1  0
 19 41  1  0
 20 42  1  0
 24 43  1  0
M  END
>  <UniqueID>  (8) 
7

>  <SMILES>  (8) 
O=S(=O)(NC1CCN(Cc2ccccn2)CC1)c1ccc(Cl)nc1

>  <Energy>  (8) 
55.05099978002797

>  <Genealogy>  (8) 
O=S(=O)(NC1CCN(Cc2ccccn2)CC1)c1ccc(Cl)nc1 (3D coordinates assigned)
O=S(=O)(NC1CCN(Cc2ccccn2)CC1)c1ccc(Cl)nc1 (nonaromatic ring conformer: 55.05099978002797 kcal/mol)

>  <smiles>  (8) 
O=S(=O)(NC1CCN(Cc2ccccn2)CC1)c1ccc(Cl)nc1

>  <score_type>  (8) 
oracle

>  <origin>  (8) 
adg

>  <m_score__min__energy>  (8) 
-8.6899999999999995

>  <m_primary>  (8) 
energy

$$$$
8:0
     RDKit          3D

 26 27  0  0  0  0  0  0  0  0999 V2000
   54.8170   26.3390   45.9910 O   0  0  0  0  0  0  0  0  0  0  0  0
   55.8990   26.8950   45.6670 C   0  0  0  0  0  0  0  0  0  0  0  0
   55.8950   28.2200   45.2540 O   0  0  0  0  0  0  0  0  0  0  0  0
   57.1920   26.1460   45.7720 C   0  0  0  0  0  0  0  0  0  0  0  0
   58.2680   26.9870   46.4610 C   0  0  0  0  0  0  0  0  0  0  0  0
   58.4610   28.2540   45.7660 N   0  0  0  0  0  0  0  0  0  0  0  0
   58.6710   28.3660   44.4650 N   0  0  0  0  0  0  0  0  0  0  0  0
   58.7500   29.6520   44.1730 N   0  0  0  0  0  0  0  0  0  0  0  0
   58.5710   30.3160   45.3340 C   0  0  0  0  0  0  0  0  0  0  0  0
   58.5670   31.7900   45.4980 C   0  0  0  0  0  0  0  0  0  0  0  0
   59.4250   32.4270   46.4160 C   0  0  0  0  0  0  0  0  0  0  0  0
   59.4060   33.8180   46.5530 C   0  0  0  0  0  0  0  0  0  0  0  0
   58.5350   34.5890   45.7800 C   0  0  0  0  0  0  0  0  0  0  0  0
   57.6800   33.9690   44.8660 C   0  0  0  0  0  0  0  0  0  0  0  0
   57.6950   32.5770   44.7240 C   0  0  0  0  0  0  0  0  0  0  0  0
   58.3830   29.4420   46.3450 N   0  0  0  0  0  0  0  0  0  0  0  0
   57.0276   25.2276   46.3546 H   0  0  0  0  0  0  0  0  0  0  0  0
   57.5374   25.9060   44.7556 H   0  0  0  0  0  0  0  0  0  0  0  0
   57.9594   27.1880   47.4975 H   0  0  0  0  0  0  0  0  0  0  0  0
   59.2155   26.4285   46.4441 H   0  0  0  0  0  0  0  0  0  0  0  0
   58.9110   30.0330   43.2140 H   0  0  0  0  0  0  0  0  0  0  0  0
   60.1137   31.8264   47.0284 H   0  0  0  0  0  0  0  0  0  0  0  0
   60.0794   34.3071   47.2722 H   0  0  0  0  0  0  0  0  0  0  0  0
   58.5224   35.6833   45.8909 H   0  0  0  0  0  0  0  0  0  0  0  0
   56.9939   34.5758   44.2569 H   0  0  0  0  0  0  0  0  0  0  0  0
   57.0199   32.0946   44.0018 H   0  0  0  0  0  0  0  0  0  0  0  0
  1  2  2  0
  2  3  1  0
  2  4  1  0
  4  5  1  0
  5  6  1  0
  6  7  1  0
  7  8  2  0
  8  9  1  0
  9 10  1  0
 10 11  2  0
 11 12  1  0
 12 13  2  0
 13 14  1  0
 14 15  2  0
  9 16  2  0
 16  6  1  0
 15 10  1  0
  4 17  1  0
  4 18  1  0
  5 19  1  0
  5 20  1  0
  8 21  1  0
 11 22  1  0
 12 23  1  0
 13 24  1  0
 14 25  1  0
 15 26  1  0
M  CHG  2   3  -1   8   1
M  END
>  <UniqueID>  (9) 
8

>  <SMILES>  (9) 
O=C([O-])CCn1n[nH+]c(-c2ccccc2)n1

>  <Energy>  (9) 
62.94479508407087

>  <Genealogy>  (9) 
O=C([O-])CCn1n[nH+]c(-c2ccccc2)n1 (protonated)
O=C([O-])CCn1n[nH+]c(-c2ccccc2)n1 (3D coordinates assigned)
O=C([O-])CCn1n[nH+]c(-c2ccccc2)n1 (optimized conformer: 62.94479508407087 kcal/mol)

>  <smiles>  (9) 
O=C(O)CCn1nnc(-c2ccccc2)n1

>  <score_type>  (9) 
oracle

>  <origin>  (9) 
adg

>  <m_score__min__energy>  (9) 
-8.0800000000000001

>  <m_primary>  (9) 
energy

$$$$
9:0
     RDKit          3D

 33 35  0  0  0  0  0  0  0  0999 V2000
   57.9900   27.3790   43.2950 C   0  0  0  0  0  0  0  0  0  0  0  0
   58.3050   27.5540   44.7560 C   0  0  0  0  0  0  0  0  0  0  0  0
   59.5410   27.0940   45.2440 C   0  0  0  0  0  0  0  0  0  0  0  0
   59.8910   27.2850   46.5820 C   0  0  0  0  0  0  0  0  0  0  0  0
   59.0120   27.9370   47.4500 C   0  0  0  0  0  0  0  0  0  0  0  0
   57.7730   28.3800   46.9840 C   0  0  0  0  0  0  0  0  0  0  0  0
   57.3940   28.1660   45.6530 C   0  0  0  0  0  0  0  0  0  0  0  0
   56.1050   28.6270   45.2290 N   0  0  0  0  0  0  0  0  0  0  0  0
   55.8980   29.6970   44.3000 C   0  0  0  0  0  0  0  0  0  0  0  0
   54.9500   29.6380   43.4700 O   0  0  0  0  0  0  0  0  0  0  0  0
   56.7670   30.8880   44.3260 C   0  0  0  0  0  0  0  0  0  0  0  0
   57.3140   31.4160   43.1440 C   0  0  0  0  0  0  0  0  0  0  0  0
   58.1290   32.5480   43.2040 C   0  0  0  0  0  0  0  0  0  0  0  0
   58.3980   33.1490   44.4390 C   0  0  0  0  0  0  0  0  0  0  0  0
   59.2140   34.2860   44.5350 C   0  0  0  0  0  0  0  0  0  0  0  0
   59.4620   34.8640   45.7850 C   0  0  0  0  0  0  0  0  0  0  0  0
   58.8990   34.3110   46.9390 C   0  0  0  0  0  0  0  0  0  0  0  0
   58.0850   33.1770   46.8520 C   0  0  0  0  0  0  0  0  0  0  0  0
   57.8310   32.5920   45.6060 C   0  0  0  0  0  0  0  0  0  0  0  0
   57.0400   31.4900   45.5170 N   0  0  0  0  0  0  0  0  0  0  0  0
   57.0330   26.8474   43.1874 H   0  0  0  0  0  0  0  0  0  0  0  0
   57.9172   28.3660   42.8148 H   0  0  0  0  0  0  0  0  0  0  0  0
   58.7895   26.7957   42.8148 H   0  0  0  0  0  0  0  0  0  0  0  0
   60.2378   26.5795   44.5660 H   0  0  0  0  0  0  0  0  0  0  0  0
   60.8605   26.9214   46.9533 H   0  0  0  0  0  0  0  0  0  0  0  0
   59.2959   28.1012   48.5000 H   0  0  0  0  0  0  0  0  0  0  0  0
   57.0881   28.9019   47.6685 H   0  0  0  0  0  0  0  0  0  0  0  0
   57.1009   30.9394   42.1758 H   0  0  0  0  0  0  0  0  0  0  0  0
   58.5590   32.9668   42.2822 H   0  0  0  0  0  0  0  0  0  0  0  0
   59.6585   34.7228   43.6285 H   0  0  0  0  0  0  0  0  0  0  0  0
   60.1016   35.7558   45.8598 H   0  0  0  0  0  0  0  0  0  0  0  0
   59.0970   34.7695   47.9191 H   0  0  0  0  0  0  0  0  0  0  0  0
   57.6445   32.7449   47.7626 H   0  0  0  0  0  0  0  0  0  0  0  0
  1  2  1  0
  2  3  2  0
  3  4  1  0
  4  5  2  0
  5  6  1  0
  6  7  2  0
  7  8  1  0
  8  9  1  0
  9 10  2  0
  9 11  1  0
 11 12  2  0
 12 13  1  0
 13 14  2  0
 14 15  1  0
 15 16  2  0
 16 17  1  0
 17 18  2  0
 18 19  1  0
 19 20  2  0
  7  2  1  0
 20 11  1  0
 19 14  1  0
  1 21  1  0
  1 22  1  0
  1 23  1  0
  3 24  1  0
  4 25  1  0
  5 26  1  0
  6 27  1  0
 12 28  1  0
 13 29  1  0
 15 30  1  0
 16 31  1  0
 17 32  1  0
 18 33  1  0
M  CHG  1   8  -1
M  END
>  <UniqueID>  (10) 
9

>  <SMILES>  (10) 
Cc1ccccc1[N-]C(=O)c1ccc2ccccc2n1

>  <Energy>  (10) 
45.379162396541815

>  <Genealogy>  (10) 
Cc1ccccc1[N-]C(=O)c1ccc2ccccc2n1 (protonated)
Cc1ccccc1[N-]C(=O)c1ccc2ccccc2n1 (3D coordinates assigned)
Cc1ccccc1[N-]C(=O)c1ccc2ccccc2n1 (optimized conformer: 45.379162396541815 kcal/mol)

>  <smiles>  (10) 
Cc1ccccc1NC(=O)c1ccc2ccccc2n1

>  <score_type>  (10) 
oracle

>  <origin>  (10) 
adg

>  <m_score__min__energy>  (10) 
-10.289999999999999

>  <m_primary>  (10) 
energy

$$$$
10:0
     RDKit          3D

 59 63  0  0  0  0  0  0  0  0999 V2000
   63.3550   33.7470   46.6260 C   0  0  0  0  0  0  0  0  0  0  0  0
   61.9810   34.1120   46.6730 O   0  0  0  0  0  0  0  0  0  0  0  0
   61.1780   33.8760   47.7930 C   0  0  0  0  0  0  0  0  0  0  0  0
   60.7350   34.8440   48.4710 O   0  0  0  0  0  0  0  0  0  0  0  0
   60.9020   32.4800   48.2050 C   0  0  0  0  0  0  0  0  0  0  0  0
   61.7290   31.7520   49.0170 C   0  0  0  0  0  0  0  0  0  0  0  0
   62.9060   32.3390   49.6960 C   0  0  0  0  0  0  0  0  0  0  0  0
   64.2440   32.0630   49.4000 C   0  0  0  0  0  0  0  0  0  0  0  0
   65.1290   32.8410   50.1530 C   0  0  0  0  0  0  0  0  0  0  0  0
   66.5240   32.7950   50.0910 C   0  0  0  0  0  0  0  0  0  0  0  0
   67.2670   33.6580   50.9160 C   0  0  0  0  0  0  0  0  0  0  0  0
   66.6120   34.5530   51.7840 C   0  0  0  0  0  0  0  0  0  0  0  0
   65.2100   34.5950   51.8360 C   0  0  0  0  0  0  0  0  0  0  0  0
   64.4970   33.7280   51.0120 C   0  0  0  0  0  0  0  0  0  0  0  0
   62.8340   33.5720   50.8550 S   0  0  0  0  0  0  0  0  0  0  0  0
   61.4640   30.2650   49.2570 C   0  0  0  0  0  0  0  0  0  0  0  0
   60.0690   29.8290   48.7580 C   0  0  1  0  0  0  0  0  0  0  0  0
   58.9570   30.4620   49.6130 C   0  0  0  0  0  0  0  0  0  0  0  0
   58.6180   31.7800   48.8980 C   0  0  0  0  0  0  0  0  0  0  0  0
   59.6050   31.8400   47.7300 C   0  0  2  0  0  0  0  0  0  0  0  0
   59.8840   30.4430   47.4560 N   0  0  0  0  0  0  0  0  0  0  0  0
   59.4970   29.7410   46.2630 C   0  0  0  0  0  0  0  0  0  0  0  0
   60.3270   28.9950   45.6780 O   0  0  0  0  0  0  0  0  0  0  0  0
   58.1610   29.8620   45.7540 N   0  0  0  0  0  0  0  0  0  0  0  0
   57.7580   29.3070   44.4630 C   0  0  0  0  0  0  0  0  0  0  0  0
   56.6460   30.1560   43.8410 C   0  0  0  0  0  0  0  0  0  0  0  0
   56.3080   31.2480   44.6960 O   0  0  0  0  0  0  0  0  0  0  0  0
   57.1160   32.3680   44.9490 C   0  0  0  0  0  0  0  0  0  0  0  0
   58.0690   32.7260   43.9840 C   0  0  0  0  0  0  0  0  0  0  0  0
   58.9010   33.8320   44.1820 C   0  0  0  0  0  0  0  0  0  0  0  0
   58.7900   34.5890   45.3510 C   0  0  0  0  0  0  0  0  0  0  0  0
   57.8490   34.2410   46.3220 C   0  0  0  0  0  0  0  0  0  0  0  0
   57.0140   33.1350   46.1270 C   0  0  0  0  0  0  0  0  0  0  0  0
   63.7423   33.6441   47.6504 H   0  0  0  0  0  0  0  0  0  0  0  0
   63.4620   32.7893   46.0956 H   0  0  0  0  0  0  0  0  0  0  0  0
   63.9232   34.5254   46.0956 H   0  0  0  0  0  0  0  0  0  0  0  0
   64.5649   31.3172   48.6578 H   0  0  0  0  0  0  0  0  0  0  0  0
   67.0317   32.0966   49.4095 H   0  0  0  0  0  0  0  0  0  0  0  0
   68.3662   33.6339   50.8832 H   0  0  0  0  0  0  0  0  0  0  0  0
   67.2030   35.2234   52.4253 H   0  0  0  0  0  0  0  0  0  0  0  0
   64.6894   35.2928   52.5084 H   0  0  0  0  0  0  0  0  0  0  0  0
   62.2285   29.6794   48.7255 H   0  0  0  0  0  0  0  0  0  0  0  0
   61.5034   30.0875   50.3419 H   0  0  0  0  0  0  0  0  0  0  0  0
   60.0166   28.7304   48.7761 H   0  0  0  0  0  0  0  0  0  0  0  0
   58.0761   29.8044   49.6526 H   0  0  0  0  0  0  0  0  0  0  0  0
   59.2729   30.6226   50.6544 H   0  0  0  0  0  0  0  0  0  0  0  0
   57.5808   31.7693   48.5318 H   0  0  0  0  0  0  0  0  0  0  0  0
   58.6996   32.6524   49.5630 H   0  0  0  0  0  0  0  0  0  0  0  0
   59.2173   32.4048   46.8694 H   0  0  0  0  0  0  0  0  0  0  0  0
   57.4240   30.2950   46.3540 H   0  0  0  0  0  0  0  0  0  0  0  0
   58.6257   29.2945   43.7870 H   0  0  0  0  0  0  0  0  0  0  0  0
   57.3831   28.2842   44.6156 H   0  0  0  0  0  0  0  0  0  0  0  0
   56.9898   30.5484   42.8726 H   0  0  0  0  0  0  0  0  0  0  0  0
   55.7550   29.5260   43.7023 H   0  0  0  0  0  0  0  0  0  0  0  0
   58.1626   32.1313   43.0634 H   0  0  0  0  0  0  0  0  0  0  0  0
   59.6429   34.1061   43.4175 H   0  0  0  0  0  0  0  0  0  0  0  0
   59.4442   35.4595   45.5065 H   0  0  0  0  0  0  0  0  0  0  0  0
   57.7638   34.8375   47.2423 H   0  0  0  0  0  0  0  0  0  0  0  0
   56.2756   32.8634   46.8957 H   0  0  0  0  0  0  0  0  0  0  0  0
  1  2  1  0
  2  3  1  0
  3  4  2  0
  3  5  1  0
  5  6  2  0
  6  7  1  0
  7  8  2  0
  8  9  1  0
  9 10  2  0
 10 11  1  0
 11 12  2  0
 12 13  1  0
 13 14  2  0
 14 15  1  0
  6 16  1  0
 16 17  1  0
 17 18  1  0
 18 19  1  0
 19 20  1  0
 20 21  1  0
 21 22  1  0
 22 23  2  0
 22 24  1  0
 24 25  1  0
 25 26  1  0
 26 27  1  0
 27 28  1  0
 28 29  2  0
 29 30  1  0
 30 31  2  0
 31 32  1  0
 32 33  2  0
 20  5  1  0
 33 28  1  0
 15  7  1  0
 21 17  1  0
 14  9  1  0
  1 34  1  0
  1 35  1  0
  1 36  1  0
  8 37  1  0
 10 38  1  0
 11 39  1  0
 12 40  1  0
 13 41  1  0
 16 42  1  0
 16 43  1  0
 17 44  1  6
 18 45  1  0
 18 46  1  0
 19 47  1  0
 19 48  1  0
 20 49  1  6
 24 50  1  0
 25 51  1  0
 25 52  1  0
 26 53  1  0
 26 54  1  0
 29 55  1  0
 30 56  1  0
 31 57  1  0
 32 58  1  0
 33 59  1  0
M  END
>  <UniqueID>  (11) 
10

>  <SMILES>  (11) 
COC(=O)C1=C(c2cc3ccccc3s2)C[C@H]2CC[C@@H]1N2C(=O)NCCOc1ccccc1

>  <Energy>  (11) 
116.83451731294956

>  <Genealogy>  (11) 
COC(=O)C1=C(c2cc3ccccc3s2)C[C@H]2CC[C@@H]1N2C(=O)NCCOc1ccccc1 (chirality)
COC(=O)C1=C(c2cc3ccccc3s2)C[C@H]2CC[C@@H]1N2C(=O)NCCOc1ccccc1 (3D coordinates assigned)
COC(=O)C1=C(c2cc3ccccc3s2)C[C@H]2CC[C@@H]1N2C(=O)NCCOc1ccccc1 (nonaromatic ring conformer: 116.83451731294956 kcal/mol)

>  <smiles>  (11) 
COC(=O)C1=C(c2cc3ccccc3s2)CC2CCC1N2C(=O)NCCOc1ccccc1

>  <score_type>  (11) 
oracle

>  <origin>  (11) 
adg

>  <m_score__min__energy>  (11) 
-9.5299999999999994

>  <m_primary>  (11) 
energy

$$$$
11:0
     RDKit          3D

 49 53  0  0  0  0  0  0  0  0999 V2000
   56.3456   29.3532   42.4712 H   0  0  0  0  0  0  0  0  0  0  0  0
   56.9870   29.5040   43.3520 C   0  0  0  0  0  0  0  0  0  0  0  0
   57.0130   30.7450   43.9930 C   0  0  0  0  0  0  0  0  0  0  0  0
   56.3920   31.5709   43.6159 H   0  0  0  0  0  0  0  0  0  0  0  0
   57.8270   30.9390   45.1130 C   0  0  0  0  0  0  0  0  0  0  0  0
   57.8453   31.9189   45.6125 H   0  0  0  0  0  0  0  0  0  0  0  0
   58.6230   29.8880   45.6050 C   0  0  0  0  0  0  0  0  0  0  0  0
   59.4880   30.1000   46.7930 C   0  0  0  0  0  0  0  0  0  0  0  0
   60.7940   30.5760   46.6410 C   0  0  0  0  0  0  0  0  0  0  0  0
   61.1854   30.7611   45.6298 H   0  0  0  0  0  0  0  0  0  0  0  0
   61.6140   30.8220   47.7490 C   0  0  0  0  0  0  0  0  0  0  0  0
   62.7370   31.4380   47.4730 N   0  0  0  0  0  0  0  0  0  0  0  0
   63.1080   32.8100   47.1190 C   0  0  0  0  0  0  0  0  0  0  0  0
   62.6629   33.0579   46.1441 H   0  0  0  0  0  0  0  0  0  0  0  0
   64.2059   32.8660   47.0810 H   0  0  0  0  0  0  0  0  0  0  0  0
   62.6170   33.8260   48.1610 C   0  0  0  0  0  0  0  0  0  0  0  0
   62.9317   34.8344   47.8542 H   0  0  0  0  0  0  0  0  0  0  0  0
   63.0530   33.5618   49.1357 H   0  0  0  0  0  0  0  0  0  0  0  0
   61.1200   33.7980   48.2880 C   0  0  0  0  0  0  0  0  0  0  0  0
   60.3940   33.4970   49.4370 C   0  0  0  0  0  0  0  0  0  0  0  0
   60.8355   33.3022   50.4255 H   0  0  0  0  0  0  0  0  0  0  0  0
   59.0690   33.4780   49.1660 N   0  0  0  0  0  0  0  0  0  0  0  0
   58.2960   33.2730   49.8380 H   0  0  0  0  0  0  0  0  0  0  0  0
   58.9540   33.7510   47.8550 C   0  0  0  0  0  0  0  0  0  0  0  0
   57.7810   33.8190   47.1050 C   0  0  0  0  0  0  0  0  0  0  0  0
   56.7986   33.6595   47.5735 H   0  0  0  0  0  0  0  0  0  0  0  0
   57.8920   34.0980   45.7300 C   0  0  0  0  0  0  0  0  0  0  0  0
   56.7760   34.1730   44.9650 F   0  0  0  0  0  0  0  0  0  0  0  0
   59.1620   34.2960   45.1420 C   0  0  0  0  0  0  0  0  0  0  0  0
   59.2376   34.5127   44.0662 H   0  0  0  0  0  0  0  0  0  0  0  0
   60.3300   34.2180   45.9220 C   0  0  0  0  0  0  0  0  0  0  0  0
   61.3238   34.3656   45.4742 H   0  0  0  0  0  0  0  0  0  0  0  0
   60.1850   33.9470   47.2830 C   0  0  0  0  0  0  0  0  0  0  0  0
   61.1300   30.4580   49.0480 C   0  0  0  0  0  0  0  0  0  0  0  0
   61.9100   30.4510   50.2300 C   0  0  0  0  0  0  0  0  0  0  0  0
   62.9772   30.7114   50.1733 H   0  0  0  0  0  0  0  0  0  0  0  0
   61.3510   30.1200   51.4660 C   0  0  0  0  0  0  0  0  0  0  0  0
   61.9737   30.1483   52.3723 H   0  0  0  0  0  0  0  0  0  0  0  0
   60.0130   29.7550   51.5590 C   0  0  0  0  0  0  0  0  0  0  0  0
   59.5714   29.5237   52.5395 H   0  0  0  0  0  0  0  0  0  0  0  0
   59.2340   29.6830   50.4090 C   0  0  0  0  0  0  0  0  0  0  0  0
   58.1814   29.3721   50.4820 H   0  0  0  0  0  0  0  0  0  0  0  0
   59.7800   30.0040   49.1550 C   0  0  0  0  0  0  0  0  0  0  0  0
   59.0090   29.8530   48.0410 N   0  0  0  0  0  0  0  0  0  0  0  0
   58.0180   29.5340   48.1480 H   0  0  0  0  0  0  0  0  0  0  0  0
   58.5900   28.6420   44.9500 C   0  0  0  0  0  0  0  0  0  0  0  0
   59.2085   27.8120   45.3221 H   0  0  0  0  0  0  0  0  0  0  0  0
   57.7760   28.4540   43.8300 C   0  0  0  0  0  0  0  0  0  0  0  0
   57.7561   27.4778   43.3235 H   0  0  0  0  0  0  0  0  0  0  0  0
  1  2  1  0
  2  3  2  0
  3  4  1  0
  3  5  1  0
  5  6  1  0
  5  7  2  0
  7  8  1  0
  8  9  2  0
  9 10  1  0
  9 11  1  0
 11 12  2  0
 12 13  1  0
 13 14  1  0
 13 15  1  0
 13 16  1  0
 16 17  1  0
 16 18  1  0
 16 19  1  0
 19 20  2  0
 20 21  1  0
 20 22  1  0
 22 23  1  0
 22 24  1  0
 24 25  2  0
 25 26  1  0
 25 27  1  0
 27 28  1  0
 27 29  2  0
 29 30  1  0
 29 31  1  0
 31 32  1  0
 31 33  2  0
 11 34  1  0
 34 35  2  0
 35 36  1  0
 35 37  1  0
 37 38  1  0
 37 39  2  0
 39 40  1  0
 39 41  1  0
 41 42  1  0
 41 43  2  0
 43 44  1  0
 44 45  1  0
  7 46  1  0
 46 47  1  0
 46 48  2  0
 48 49  1  0
 48  2  1  0
 44  8  1  0
 33 19  1  0
 43 34  1  0
 33 24  1  0
M  END
>  <UniqueID>  (12) 
11

>  <SMILES>  (12) 
Fc1ccc2c(CC/N=c3/cc(-c4ccccc4)[nH]c4ccccc34)c[nH]c2c1

>  <Energy>  (12) 
111.685683728932

>  <Genealogy>  (12) 
Fc1ccc2c(CC/N=c3/cc(-c4ccccc4)[nH]c4ccccc34)c[nH]c2c1 (cis-trans isomerization)
Fc1ccc2c(CC/N=c3/cc(-c4ccccc4)[nH]c4ccccc34)c[nH]c2c1 (3D coordinates assigned)
Fc1ccc2c(CC/N=c3/cc(-c4ccccc4)[nH]c4ccccc34)c[nH]c2c1 (optimized conformer: 111.685683728932 kcal/mol)

>  <smiles>  (12) 
Fc1ccc2c(CCN=c3cc(-c4ccccc4)[nH]c4ccccc34)c[nH]c2c1

>  <score_type>  (12) 
oracle

>  <origin>  (12) 
adg

>  <m_score__min__energy>  (12) 
-9.1199999999999992

>  <m_primary>  (12) 
energy

$$$$
12:0
     RDKit          3D

 52 54  0  0  0  0  0  0  0  0999 V2000
   55.8780   30.4410   44.1210 C   0  0  0  0  0  0  0  0  0  0  0  0
   57.3470   30.3750   44.2010 N   0  0  0  0  0  0  0  0  0  0  0  0
   57.9250   31.5720   43.5710 C   0  0  0  0  0  0  0  0  0  0  0  0
   57.8010   30.2770   45.6050 C   0  0  0  0  0  0  0  0  0  0  0  0
   57.9270   28.8330   46.0410 C   0  0  0  0  0  0  0  0  0  0  0  0
   56.9520   27.9080   45.6280 C   0  0  0  0  0  0  0  0  0  0  0  0
   57.0300   26.5690   46.0180 C   0  0  0  0  0  0  0  0  0  0  0  0
   58.0810   26.1370   46.8280 C   0  0  0  0  0  0  0  0  0  0  0  0
   59.0590   27.0400   47.2450 C   0  0  0  0  0  0  0  0  0  0  0  0
   58.9990   28.3870   46.8530 C   0  0  0  0  0  0  0  0  0  0  0  0
   60.0450   29.3070   47.3340 C   0  0  0  0  0  0  0  0  0  0  0  0
   60.8490   29.9910   46.4120 C   0  0  0  0  0  0  0  0  0  0  0  0
   61.8470   30.8600   46.8590 C   0  0  0  0  0  0  0  0  0  0  0  0
   62.0490   31.0600   48.2340 C   0  0  0  0  0  0  0  0  0  0  0  0
   63.1810   31.9330   48.7190 C   0  0  0  0  0  0  0  0  0  0  0  0
   63.8810   32.6060   47.6090 N   0  0  0  0  0  0  0  0  0  0  0  0
   63.1310   33.7570   47.0580 C   0  0  0  0  0  0  0  0  0  0  0  0
   62.0110   34.2160   48.0080 C   0  0  0  0  0  0  0  0  0  0  0  0
   60.6690   34.0580   47.3680 C   0  0  0  0  0  0  0  0  0  0  0  0
   60.3790   34.2750   46.0280 C   0  0  0  0  0  0  0  0  0  0  0  0
   59.0470   33.9990   45.7020 C   0  0  0  0  0  0  0  0  0  0  0  0
   58.2920   33.5510   46.7780 C   0  0  0  0  0  0  0  0  0  0  0  0
   59.2820   33.5010   48.1370 S   0  0  0  0  0  0  0  0  0  0  0  0
   61.2300   30.3880   49.1560 C   0  0  0  0  0  0  0  0  0  0  0  0
   60.2310   29.5180   48.7080 C   0  0  0  0  0  0  0  0  0  0  0  0
   55.4560   30.4600   45.1366 H   0  0  0  0  0  0  0  0  0  0  0  0
   55.5807   31.3534   43.5833 H   0  0  0  0  0  0  0  0  0  0  0  0
   55.5001   29.5589   43.5833 H   0  0  0  0  0  0  0  0  0  0  0  0
   58.2622   32.2704   44.3511 H   0  0  0  0  0  0  0  0  0  0  0  0
   58.7813   31.2798   42.9454 H   0  0  0  0  0  0  0  0  0  0  0  0
   57.1637   32.0609   42.9454 H   0  0  0  0  0  0  0  0  0  0  0  0
   58.7812   30.7671   45.7000 H   0  0  0  0  0  0  0  0  0  0  0  0
   57.0562   30.7705   46.2467 H   0  0  0  0  0  0  0  0  0  0  0  0
   56.1195   28.2421   44.9914 H   0  0  0  0  0  0  0  0  0  0  0  0
   56.2623   25.8544   45.6863 H   0  0  0  0  0  0  0  0  0  0  0  0
   58.1383   25.0831   47.1380 H   0  0  0  0  0  0  0  0  0  0  0  0
   59.8835   26.6942   47.8858 H   0  0  0  0  0  0  0  0  0  0  0  0
   60.6936   29.8430   45.3331 H   0  0  0  0  0  0  0  0  0  0  0  0
   62.4777   31.3902   46.1303 H   0  0  0  0  0  0  0  0  0  0  0  0
   62.7732   32.6979   49.3962 H   0  0  0  0  0  0  0  0  0  0  0  0
   63.9077   31.2879   49.2346 H   0  0  0  0  0  0  0  0  0  0  0  0
   64.7900   32.9620   47.9870 H   0  0  0  0  0  0  0  0  0  0  0  0
   64.1170   31.9100   46.8630 H   0  0  0  0  0  0  0  0  0  0  0  0
   63.8280   34.5930   46.8989 H   0  0  0  0  0  0  0  0  0  0  0  0
   62.6687   33.4423   46.1108 H   0  0  0  0  0  0  0  0  0  0  0  0
   62.0460   33.6098   48.9252 H   0  0  0  0  0  0  0  0  0  0  0  0
   62.1645   35.2794   48.2436 H   0  0  0  0  0  0  0  0  0  0  0  0
   61.1211   34.6281   45.2969 H   0  0  0  0  0  0  0  0  0  0  0  0
   58.6365   34.1249   44.6893 H   0  0  0  0  0  0  0  0  0  0  0  0
   57.2275   33.2756   46.7469 H   0  0  0  0  0  0  0  0  0  0  0  0
   61.3749   30.5466   50.2348 H   0  0  0  0  0  0  0  0  0  0  0  0
   59.5897   28.9980   49.4348 H   0  0  0  0  0  0  0  0  0  0  0  0
  1  2  1  0
  2  3  1  0
  2  4  1  0
  4  5  1  0
  5  6  2  0
  6  7  1  0
  7  8  2  0
  8  9  1  0
  9 10  2  0
 10 11  1  0
 11 12  2  0
 12 13  1  0
 13 14  2  0
 14 15  1  0
 15 16  1  0
 16 17  1  0
 17 18  1  0
 18 19  1  0
 19 20  2  0
 20 21  1  0
 21 22  2  0
 22 23  1  0
 14 24  1  0
 24 25  2  0
 10  5  1  0
 25 11  1  0
 23 19  1  0
  1 26  1  0
  1 27  1  0
  1 28  1  0
  3 29  1  0
  3 30  1  0
  3 31  1  0
  4 32  1  0
  4 33  1  0
  6 34  1  0
  7 35  1  0
  8 36  1  0
  9 37  1  0
 12 38  1  0
 13 39  1  0
 15 40  1  0
 15 41  1  0
 16 42  1  0
 16 43  1  0
 17 44  1  0
 17 45  1  0
 18 46  1  0
 18 47  1  0
 20 48  1  0
 21 49  1  0
 22 50  1  0
 24 51  1  0
 25 52  1  0
M  CHG  1  16   1
M  END
>  <UniqueID>  (13) 
12

>  <SMILES>  (13) 
CN(C)Cc1ccccc1-c1ccc(C[NH2+]CCc2cccs2)cc1

>  <Energy>  (13) 
82.78347161842089

>  <Genealogy>  (13) 
CN(C)Cc1ccccc1-c1ccc(C[NH2+]CCc2cccs2)cc1 (protonated)
CN(C)Cc1ccccc1-c1ccc(C[NH2+]CCc2cccs2)cc1 (3D coordinates assigned)
CN(C)Cc1ccccc1-c1ccc(C[NH2+]CCc2cccs2)cc1 (optimized conformer: 82.78347161842089 kcal/mol)

>  <smiles>  (13) 
CN(C)Cc1ccccc1-c1ccc(CNCCc2cccs2)cc1

>  <score_type>  (13) 
oracle

>  <origin>  (13) 
adg

>  <m_score__min__energy>  (13) 
-6.6299999999999999

>  <m_primary>  (13) 
energy

$$$$
13:0
     RDKit          3D

 43 45  0  0  0  0  0  0  0  0999 V2000
   55.0807   22.5068   42.9244 H   0  0  0  0  0  0  0  0  0  0  0  0
   55.7890   22.9670   43.6290 C   0  0  0  0  0  0  0  0  0  0  0  0
   55.4120   24.1000   44.3550 C   0  0  0  0  0  0  0  0  0  0  0  0
   54.4148   24.5394   44.2046 H   0  0  0  0  0  0  0  0  0  0  0  0
   56.2970   24.6790   45.2730 C   0  0  0  0  0  0  0  0  0  0  0  0
   55.8780   25.8570   45.9830 N   0  0  0  0  0  0  0  0  0  0  0  0
   56.4690   27.0170   45.9880 C   0  0  0  0  0  0  0  0  0  0  0  0
   57.5700   27.2470   46.7520 N   0  0  0  0  0  0  0  0  0  0  0  0
   58.1520   28.4720   46.7660 C   0  0  0  0  0  0  0  0  0  0  0  0
   59.3890   28.7040   47.5680 C   0  0  0  0  0  0  0  0  0  0  0  0
   59.1451   28.6583   48.6397 H   0  0  0  0  0  0  0  0  0  0  0  0
   60.1324   27.9296   47.3277 H   0  0  0  0  0  0  0  0  0  0  0  0
   59.8013   29.6951   47.3277 H   0  0  0  0  0  0  0  0  0  0  0  0
   57.6410   29.4700   46.0020 N   0  0  0  0  0  0  0  0  0  0  0  0
   56.5340   29.2520   45.2420 C   0  0  0  0  0  0  0  0  0  0  0  0
   56.0260   30.1970   44.5090 N   0  0  0  0  0  0  0  0  0  0  0  0
   56.6440   30.7470   43.3000 C   0  0  0  0  0  0  0  0  0  0  0  0
   56.7032   29.9562   42.5377 H   0  0  0  0  0  0  0  0  0  0  0  0
   56.0255   31.5857   42.9479 H   0  0  0  0  0  0  0  0  0  0  0  0
   58.0570   31.2760   43.5800 C   0  0  0  0  0  0  0  0  0  0  0  0
   58.7336   30.4228   43.7357 H   0  0  0  0  0  0  0  0  0  0  0  0
   58.3774   31.8777   42.7167 H   0  0  0  0  0  0  0  0  0  0  0  0
   58.0860   32.1540   44.8050 C   0  0  0  0  0  0  0  0  0  0  0  0
   59.1970   32.1500   45.6610 C   0  0  0  0  0  0  0  0  0  0  0  0
   60.0470   31.4826   45.4559 H   0  0  0  0  0  0  0  0  0  0  0  0
   59.2240   32.9920   46.7720 C   0  0  0  0  0  0  0  0  0  0  0  0
   60.0915   32.9911   47.4483 H   0  0  0  0  0  0  0  0  0  0  0  0
   58.1400   33.8360   47.0180 C   0  0  0  0  0  0  0  0  0  0  0  0
   58.1498   34.5004   47.8946 H   0  0  0  0  0  0  0  0  0  0  0  0
   57.0710   33.8390   46.1760 N   0  0  0  0  0  0  0  0  0  0  0  0
   56.2700   34.4810   46.3700 H   0  0  0  0  0  0  0  0  0  0  0  0
   57.0240   33.0280   45.0830 C   0  0  0  0  0  0  0  0  0  0  0  0
   56.1502   33.0582   44.4155 H   0  0  0  0  0  0  0  0  0  0  0  0
   55.9500   28.0270   45.2450 N   0  0  0  0  0  0  0  0  0  0  0  0
   57.5920   24.1430   45.4130 C   0  0  0  0  0  0  0  0  0  0  0  0
   58.3053   24.6117   46.1069 H   0  0  0  0  0  0  0  0  0  0  0  0
   57.9780   23.0150   44.6730 C   0  0  0  0  0  0  0  0  0  0  0  0
   59.3420   22.4190   44.8640 C   0  0  0  0  0  0  0  0  0  0  0  0
   59.5543   22.3262   45.9393 H   0  0  0  0  0  0  0  0  0  0  0  0
   59.3761   21.4239   44.3963 H   0  0  0  0  0  0  0  0  0  0  0  0
   60.0953   23.0700   44.3963 H   0  0  0  0  0  0  0  0  0  0  0  0
   57.0620   22.4170   43.7950 C   0  0  0  0  0  0  0  0  0  0  0  0
   57.3468   21.5133   43.2362 H   0  0  0  0  0  0  0  0  0  0  0  0
  1  2  1  0
  2  3  2  0
  3  4  1  0
  3  5  1  0
  5  6  1  0
  6  7  2  0
  7  8  1  0
  8  9  2  0
  9 10  1  0
 10 11  1  0
 10 12  1  0
 10 13  1  0
  9 14  1  0
 14 15  1  0
 15 16  2  0
 16 17  1  0
 17 18  1  0
 17 19  1  0
 17 20  1  0
 20 21  1  0
 20 22  1  0
 20 23  1  0
 23 24  2  0
 24 25  1  0
 24 26  1  0
 26 27  1  0
 26 28  2  0
 28 29  1  0
 28 30  1  0
 30 31  1  0
 30 32  2  0
 32 33  1  0
 15 34  1  0
  5 35  2  0
 35 36  1  0
 35 37  1  0
 37 38  1  0
 38 39  1  0
 38 40  1  0
 38 41  1  0
 37 42  2  0
 42 43  1  0
 42  2  1  0
 34  7  1  0
 32 23  1  0
M  CHG  3  14  -1  30   1  34  -1
M  END
>  <UniqueID>  (14) 
13

>  <SMILES>  (14) 
Cc1cccc(/N=c2\nc(C)[n-]/c(=N\CCc3ccc[nH+]c3)[n-]2)c1

>  <Energy>  (14) 
46.65883459650821

>  <Genealogy>  (14) 
Cc1cccc(N=c2nc(C)[n-]c(=NCCc3ccc[nH+]c3)[n-]2)c1 (protonated)
Cc1cccc(/N=c2\nc(C)[n-]/c(=N\CCc3ccc[nH+]c3)[n-]2)c1 (cis-trans isomerization)
Cc1cccc(/N=c2\nc(C)[n-]/c(=N\CCc3ccc[nH+]c3)[n-]2)c1 (3D coordinates assigned)
Cc1cccc(/N=c2\nc(C)[n-]/c(=N\CCc3ccc[nH+]c3)[n-]2)c1 (optimized conformer: 46.65883459650821 kcal/mol)

>  <smiles>  (14) 
Cc1cccc(N=c2nc(C)[nH]c(=NCCc3cccnc3)[nH]2)c1

>  <score_type>  (14) 
oracle

>  <origin>  (14) 
adg

>  <m_score__min__energy>  (14) 
-10.880000000000001

>  <m_primary>  (14) 
energy

$$$$
14:0
     RDKit          3D

 35 37  0  0  0  0  0  0  0  0999 V2000
   61.0202   28.8524   48.5603 H   0  0  0  0  0  0  0  0  0  0  0  0
   60.2840   28.2410   48.0180 C   0  0  0  0  0  0  0  0  0  0  0  0
   58.6410   28.5690   47.8790 S   0  0  0  0  0  0  0  0  0  0  0  0
   58.2560   27.2130   46.9580 C   0  0  0  0  0  0  0  0  0  0  0  0
   56.9220   26.8840   46.4200 C   0  0  0  0  0  0  0  0  0  0  0  0
   56.2470   25.9670   46.9580 O   0  0  0  0  0  0  0  0  0  0  0  0
   56.4060   27.5330   45.2530 N   0  0  0  0  0  0  0  0  0  0  0  0
   56.5830   28.7850   44.9540 C   0  0  0  0  0  0  0  0  0  0  0  0
   55.5570   29.6570   44.8680 N   0  0  0  0  0  0  0  0  0  0  0  0
   55.9480   30.8990   44.5900 N   0  0  0  0  0  0  0  0  0  0  0  0
   57.2880   31.0200   44.4680 C   0  0  0  0  0  0  0  0  0  0  0  0
   58.1110   32.5620   44.0730 S   0  0  0  0  0  0  0  0  0  0  0  0
   57.5330   33.4430   45.5660 C   0  0  0  0  0  0  0  0  0  0  0  0
   57.8650   34.4906   45.5174 H   0  0  0  0  0  0  0  0  0  0  0  0
   56.4349   33.3899   45.6030 H   0  0  0  0  0  0  0  0  0  0  0  0
   58.0970   32.7970   46.8320 C   0  0  0  0  0  0  0  0  0  0  0  0
   58.4031   33.5861   47.5346 H   0  0  0  0  0  0  0  0  0  0  0  0
   57.3184   32.1651   47.2841 H   0  0  0  0  0  0  0  0  0  0  0  0
   59.2270   31.9820   46.5210 O   0  0  0  0  0  0  0  0  0  0  0  0
   60.5700   32.3220   46.7550 C   0  0  0  0  0  0  0  0  0  0  0  0
   61.0960   33.5980   46.4680 C   0  0  0  0  0  0  0  0  0  0  0  0
   60.4453   34.3766   46.0433 H   0  0  0  0  0  0  0  0  0  0  0  0
   62.4440   33.8770   46.7220 C   0  0  0  0  0  0  0  0  0  0  0  0
   62.8490   34.8753   46.4997 H   0  0  0  0  0  0  0  0  0  0  0  0
   63.2760   32.8910   47.2570 C   0  0  0  0  0  0  0  0  0  0  0  0
   64.3351   33.1128   47.4547 H   0  0  0  0  0  0  0  0  0  0  0  0
   62.7630   31.6230   47.5410 C   0  0  0  0  0  0  0  0  0  0  0  0
   63.4183   30.8467   47.9629 H   0  0  0  0  0  0  0  0  0  0  0  0
   61.4160   31.3400   47.2890 C   0  0  0  0  0  0  0  0  0  0  0  0
   61.0178   30.3391   47.5117 H   0  0  0  0  0  0  0  0  0  0  0  0
   58.0710   29.5470   44.6980 S   0  0  0  0  0  0  0  0  0  0  0  0
   59.4220   26.4920   46.7320 C   0  0  0  0  0  0  0  0  0  0  0  0
   59.4549   25.5640   46.1423 H   0  0  0  0  0  0  0  0  0  0  0  0
   60.5510   27.0650   47.3300 C   0  0  0  0  0  0  0  0  0  0  0  0
   61.5565   26.6242   47.2611 H   0  0  0  0  0  0  0  0  0  0  0  0
  1  2  1  0
  2  3  1  0
  3  4  1  0
  4  5  1  0
  5  6  2  0
  5  7  1  0
  7  8  2  0
  8  9  1  0
  9 10  1  0
 10 11  2  0
 11 12  1  0
 12 13  1  0
 13 14  1  0
 13 15  1  0
 13 16  1  0
 16 17  1  0
 16 18  1  0
 16 19  1  0
 19 20  1  0
 20 21  2  0
 21 22  1  0
 21 23  1  0
 23 24  1  0
 23 25  2  0
 25 26  1  0
 25 27  1  0
 27 28  1  0
 27 29  2  0
 29 30  1  0
 11 31  1  0
  4 32  2  0
 32 33  1  0
 32 34  1  0
 34 35  1  0
 34  2  2  0
 31  8  1  0
 29 20  1  0
M  CHG  1   9  -1
M  END
>  <UniqueID>  (15) 
14

>  <SMILES>  (15) 
O=C(/N=c1/[n-]nc(SCCOc2ccccc2)s1)c1cccs1

>  <Energy>  (15) 
100.60979176013377

>  <Genealogy>  (15) 
O=C(N=c1[n-]nc(SCCOc2ccccc2)s1)c1cccs1 (protonated)
O=C(/N=c1/[n-]nc(SCCOc2ccccc2)s1)c1cccs1 (cis-trans isomerization)
O=C(/N=c1/[n-]nc(SCCOc2ccccc2)s1)c1cccs1 (3D coordinates assigned)
O=C(/N=c1/[n-]nc(SCCOc2ccccc2)s1)c1cccs1 (optimized conformer: 100.60979176013377 kcal/mol)

>  <smiles>  (15) 
O=C(N=c1[nH]nc(SCCOc2ccccc2)s1)c1cccs1

>  <score_type>  (15) 
oracle

>  <origin>  (15) 
adg

>  <m_score__min__energy>  (15) 
-10.140000000000001

>  <m_primary>  (15) 
energy

$$$$
15:0
     RDKit          3D

 63 67  0  0  0  0  0  0  0  0999 V2000
   61.1320   26.7590   50.9500 C   0  0  0  0  0  0  0  0  0  0  0  0
   60.9820   26.3290   49.6000 O   0  0  0  0  0  0  0  0  0  0  0  0
   60.4720   27.1280   48.5670 C   0  0  0  0  0  0  0  0  0  0  0  0
   60.8010   26.7980   47.2470 C   0  0  0  0  0  0  0  0  0  0  0  0
   60.3140   27.5590   46.1810 C   0  0  0  0  0  0  0  0  0  0  0  0
   59.4880   28.6690   46.4210 C   0  0  0  0  0  0  0  0  0  0  0  0
   58.9310   29.4830   45.2610 C   0  0  2  0  0  0  0  0  0  0  0  0
   58.8860   30.9680   45.6190 C   0  0  0  0  0  0  0  0  0  0  0  0
   59.9280   31.5530   46.3680 C   0  0  0  0  0  0  0  0  0  0  0  0
   59.9120   32.9210   46.6910 C   0  0  0  0  0  0  0  0  0  0  0  0
   60.9210   33.5150   47.4680 O   0  0  0  0  0  0  0  0  0  0  0  0
   62.3130   33.4490   47.1740 C   0  0  0  0  0  0  0  0  0  0  0  0
   58.8690   33.7310   46.2290 C   0  0  0  0  0  0  0  0  0  0  0  0
   58.8770   35.0920   46.5720 O   0  0  0  0  0  0  0  0  0  0  0  0
   59.7440   36.0660   46.0010 C   0  0  0  0  0  0  0  0  0  0  0  0
   57.8590   33.1680   45.4300 C   0  0  0  0  0  0  0  0  0  0  0  0
   57.8610   31.7990   45.1210 C   0  0  0  0  0  0  0  0  0  0  0  0
   56.8340   31.2720   44.1620 C   0  0  0  0  0  0  0  0  0  0  0  0
   56.5730   29.8180   44.3720 C   0  0  0  0  0  0  0  0  0  0  0  0
   55.4510   29.3480   44.0330 O   0  0  0  0  0  0  0  0  0  0  0  0
   57.6060   28.9490   44.8730 N   0  0  0  0  0  0  0  0  0  0  0  0
   57.4010   27.5210   44.8070 C   0  0  0  0  0  0  0  0  0  0  0  0
   57.8860   26.7820   43.7180 C   0  0  0  0  0  0  0  0  0  0  0  0
   57.7310   25.3920   43.6820 C   0  0  0  0  0  0  0  0  0  0  0  0
   57.0880   24.7290   44.7370 C   0  0  0  0  0  0  0  0  0  0  0  0
   56.8930   22.9800   44.7190 S   0  0  0  0  0  0  0  0  0  0  0  0
   58.1760   22.3530   44.2480 O   0  0  0  0  0  0  0  0  0  0  0  0
   55.7720   22.5940   43.7960 O   0  0  0  0  0  0  0  0  0  0  0  0
   56.5240   22.4450   46.3290 N   0  0  0  0  0  0  0  0  0  0  0  0
   56.9890   21.3610   46.8700 C   0  0  0  0  0  0  0  0  0  0  0  0
   57.9290   20.5590   46.3180 N   0  0  0  0  0  0  0  0  0  0  0  0
   58.2220   19.4960   47.1140 C   0  0  0  0  0  0  0  0  0  0  0  0
   57.5100   19.4470   48.3090 C   0  0  0  0  0  0  0  0  0  0  0  0
   56.4830   20.7840   48.3620 S   0  0  0  0  0  0  0  0  0  0  0  0
   56.6020   25.4660   45.8250 C   0  0  0  0  0  0  0  0  0  0  0  0
   56.7580   26.8530   45.8610 C   0  0  0  0  0  0  0  0  0  0  0  0
   59.1590   29.0040   47.7450 C   0  0  0  0  0  0  0  0  0  0  0  0
   59.6470   28.2410   48.8100 C   0  0  0  0  0  0  0  0  0  0  0  0
   60.8469   25.9418   51.6289 H   0  0  0  0  0  0  0  0  0  0  0  0
   62.1805   27.0378   51.1317 H   0  0  0  0  0  0  0  0  0  0  0  0
   60.4844   27.6294   51.1317 H   0  0  0  0  0  0  0  0  0  0  0  0
   61.4488   25.9317   47.0471 H   0  0  0  0  0  0  0  0  0  0  0  0
   60.5790   27.2872   45.1486 H   0  0  0  0  0  0  0  0  0  0  0  0
   59.5950   29.3922   44.3887 H   0  0  0  0  0  0  0  0  0  0  0  0
   60.7679   30.9279   46.7053 H   0  0  0  0  0  0  0  0  0  0  0  0
   62.8852   33.4219   48.1131 H   0  0  0  0  0  0  0  0  0  0  0  0
   62.5219   32.5399   46.5909 H   0  0  0  0  0  0  0  0  0  0  0  0
   62.6070   34.3342   46.5909 H   0  0  0  0  0  0  0  0  0  0  0  0
   60.2439   36.6276   46.8039 H   0  0  0  0  0  0  0  0  0  0  0  0
   60.4999   35.5644   45.3789 H   0  0  0  0  0  0  0  0  0  0  0  0
   59.1582   36.7587   45.3789 H   0  0  0  0  0  0  0  0  0  0  0  0
   57.0549   33.8100   45.0410 H   0  0  0  0  0  0  0  0  0  0  0  0
   55.8950   31.8266   44.3059 H   0  0  0  0  0  0  0  0  0  0  0  0
   57.2201   31.4056   43.1407 H   0  0  0  0  0  0  0  0  0  0  0  0
   58.3908   27.2979   42.8880 H   0  0  0  0  0  0  0  0  0  0  0  0
   58.1140   24.8186   42.8250 H   0  0  0  0  0  0  0  0  0  0  0  0
   58.3920   20.7140   45.3950 H   0  0  0  0  0  0  0  0  0  0  0  0
   58.9644   18.7337   46.8350 H   0  0  0  0  0  0  0  0  0  0  0  0
   57.6012   18.6715   49.0838 H   0  0  0  0  0  0  0  0  0  0  0  0
   56.0956   24.9499   46.6540 H   0  0  0  0  0  0  0  0  0  0  0  0
   56.3753   27.4249   46.7192 H   0  0  0  0  0  0  0  0  0  0  0  0
   58.5135   29.8719   47.9450 H   0  0  0  0  0  0  0  0  0  0  0  0
   59.3845   28.5124   49.8432 H   0  0  0  0  0  0  0  0  0  0  0  0
  1  2  1  0
  2  3  1  0
  3  4  2  0
  4  5  1  0
  5  6  2  0
  6  7  1  0
  7  8  1  0
  8  9  2  0
  9 10  1  0
 10 11  1  0
 11 12  1  0
 10 13  2  0
 13 14  1  0
 14 15  1  0
 13 16  1  0
 16 17  2  0
 17 18  1  0
 18 19  1  0
 19 20  2  0
 19 21  1  0
 21 22  1  0
 22 23  2  0
 23 24  1  0
 24 25  2  0
 25 26  1  0
 26 27  2  0
 26 28  2  0
 26 29  1  0
 29 30  2  3
 30 31  1  0
 31 32  1  0
 32 33  2  0
 33 34  1  0
 25 35  1  0
 35 36  2  0
  6 37  1  0
 37 38  2  0
 38  3  1  0
 21  7  1  0
 36 22  1  0
 17  8  1  0
 34 30  1  0
  1 39  1  0
  1 40  1  0
  1 41  1  0
  4 42  1  0
  5 43  1  0
  7 44  1  6
  9 45  1  0
 12 46  1  0
 12 47  1  0
 12 48  1  0
 15 49  1  0
 15 50  1  0
 15 51  1  0
 16 52  1  0
 18 53  1  0
 18 54  1  0
 23 55  1  0
 24 56  1  0
 31 57  1  0
 32 58  1  0
 33 59  1  0
 35 60  1  0
 36 61  1  0
 37 62  1  0
 38 63  1  0
M  END
>  <UniqueID>  (16) 
15

>  <SMILES>  (16) 
COc1ccc([C@@H]2c3cc(OC)c(OC)cc3CC(=O)N2c2ccc(S(=O)(=O)N=c3[nH]ccs3)cc2)cc1

>  <Energy>  (16) 
111.82797003629136

>  <Genealogy>  (16) 
COc1ccc([C@@H]2c3cc(OC)c(OC)cc3CC(=O)N2c2ccc(S(=O)(=O)N=c3[nH]ccs3)cc2)cc1 (chirality)
COc1ccc([C@@H]2c3cc(OC)c(OC)cc3CC(=O)N2c2ccc(S(=O)(=O)N=c3[nH]ccs3)cc2)cc1 (3D coordinates assigned)
COc1ccc([C@@H]2c3cc(OC)c(OC)cc3CC(=O)N2c2ccc(S(=O)(=O)N=c3[nH]ccs3)cc2)cc1 (nonaromatic ring conformer: 111.82797003629136 kcal/mol)

>  <smiles>  (16) 
COc1ccc(C2c3cc(OC)c(OC)cc3CC(=O)N2c2ccc(S(=O)(=O)N=c3[nH]ccs3)cc2)cc1

>  <score_type>  (16) 
oracle

>  <origin>  (16) 
adg

>  <m_score__min__energy>  (16) 
-9.1799999999999997

>  <m_primary>  (16) 
energy

$$$$
16:0
     RDKit          3D

 42 45  0  0  0  0  0  0  0  0999 V2000
   54.2756   29.3057   44.0177 H   0  0  0  0  0  0  0  0  0  0  0  0
   55.3310   29.4630   44.2850 C   0  0  0  0  0  0  0  0  0  0  0  0
   55.9080   28.6940   45.2360 N   0  0  0  0  0  0  0  0  0  0  0  0
   57.2160   28.8250   45.5710 C   0  0  0  0  0  0  0  0  0  0  0  0
   57.7440   27.9710   46.5460 C   0  0  0  0  0  0  0  0  0  0  0  0
   57.0868   27.2524   47.0577 H   0  0  0  0  0  0  0  0  0  0  0  0
   59.0970   28.0260   46.8720 C   0  0  0  0  0  0  0  0  0  0  0  0
   59.6030   27.1930   47.8140 F   0  0  0  0  0  0  0  0  0  0  0  0
   59.9340   28.9130   46.2020 C   0  0  0  0  0  0  0  0  0  0  0  0
   61.0076   28.9369   46.4404 H   0  0  0  0  0  0  0  0  0  0  0  0
   59.4200   29.7740   45.2280 C   0  0  0  0  0  0  0  0  0  0  0  0
   60.1020   30.4473   44.6881 H   0  0  0  0  0  0  0  0  0  0  0  0
   58.0380   29.7950   44.9240 C   0  0  0  0  0  0  0  0  0  0  0  0
   57.4130   30.6780   43.9780 C   0  0  0  0  0  0  0  0  0  0  0  0
   57.9470   31.7430   43.4310 N   0  0  0  0  0  0  0  0  0  0  0  0
   58.1270   33.1280   43.8630 C   0  0  0  0  0  0  0  0  0  0  0  0
   57.1532   33.6390   43.8372 H   0  0  0  0  0  0  0  0  0  0  0  0
   58.8429   33.6099   43.1809 H   0  0  0  0  0  0  0  0  0  0  0  0
   58.6810   33.2070   45.2550 C   0  0  0  0  0  0  0  0  0  0  0  0
   57.8970   32.7080   46.6570 S   0  0  0  0  0  0  0  0  0  0  0  0
   59.0990   33.1980   47.7360 C   0  0  0  0  0  0  0  0  0  0  0  0
   59.0510   33.0320   49.2120 C   0  0  0  0  0  0  0  0  0  0  0  0
   59.6400   33.9790   50.0700 C   0  0  0  0  0  0  0  0  0  0  0  0
   60.1426   34.8608   49.6459 H   0  0  0  0  0  0  0  0  0  0  0  0
   59.5920   33.8090   51.4570 C   0  0  0  0  0  0  0  0  0  0  0  0
   60.0565   34.5591   52.1139 H   0  0  0  0  0  0  0  0  0  0  0  0
   58.9600   32.6960   52.0170 C   0  0  0  0  0  0  0  0  0  0  0  0
   58.9410   32.5730   53.4150 O   0  0  0  0  0  0  0  0  0  0  0  0
   59.2570   33.6270   54.3190 C   0  0  0  0  0  0  0  0  0  0  0  0
   59.1493   33.2678   55.3531 H   0  0  0  0  0  0  0  0  0  0  0  0
   60.2932   33.9558   54.1511 H   0  0  0  0  0  0  0  0  0  0  0  0
   58.5726   34.4716   54.1511 H   0  0  0  0  0  0  0  0  0  0  0  0
   58.3720   31.7430   51.1670 C   0  0  0  0  0  0  0  0  0  0  0  0
   57.8731   30.8613   51.5957 H   0  0  0  0  0  0  0  0  0  0  0  0
   58.4180   31.9100   49.7800 C   0  0  0  0  0  0  0  0  0  0  0  0
   57.9548   31.1570   49.1255 H   0  0  0  0  0  0  0  0  0  0  0  0
   60.1260   33.7840   46.9910 C   0  0  0  0  0  0  0  0  0  0  0  0
   61.0388   34.1960   47.4459 H   0  0  0  0  0  0  0  0  0  0  0  0
   59.8850   33.7980   45.6110 C   0  0  0  0  0  0  0  0  0  0  0  0
   60.5822   34.2349   44.8809 H   0  0  0  0  0  0  0  0  0  0  0  0
   56.0680   30.4510   43.6450 C   0  0  0  0  0  0  0  0  0  0  0  0
   55.5913   31.0644   42.8662 H   0  0  0  0  0  0  0  0  0  0  0  0
  1  2  1  0
  2  3  1  0
  3  4  1  0
  4  5  2  0
  5  6  1  0
  5  7  1  0
  7  8  1  0
  7  9  2  0
  9 10  1  0
  9 11  1  0
 11 12  1  0
 11 13  2  0
 13 14  1  0
 14 15  2  0
 15 16  1  0
 16 17  1  0
 16 18  1  0
 16 19  1  0
 19 20  1  0
 20 21  1  0
 21 22  1  0
 22 23  2  0
 23 24  1  0
 23 25  1  0
 25 26  1  0
 25 27  2  0
 27 28  1  0
 28 29  1  0
 29 30  1  0
 29 31  1  0
 29 32  1  0
 27 33  1  0
 33 34  1  0
 33 35  2  0
 35 36  1  0
 21 37  2  0
 37 38  1  0
 37 39  1  0
 39 40  1  0
 14 41  1  0
 41 42  1  0
 41  2  2  0
 13  4  1  0
 39 19  2  0
 35 22  1  0
M  CHG  1   3  -1
M  END
>  <UniqueID>  (17) 
16

>  <SMILES>  (17) 
COc1ccc(-c2ccc(C/N=c3/cc[n-]c4cc(F)ccc34)s2)cc1

>  <Energy>  (17) 
92.94414865383662

>  <Genealogy>  (17) 
COc1ccc(-c2ccc(CN=c3cc[n-]c4cc(F)ccc34)s2)cc1 (protonated)
COc1ccc(-c2ccc(C/N=c3/cc[n-]c4cc(F)ccc34)s2)cc1 (cis-trans isomerization)
COc1ccc(-c2ccc(C/N=c3/cc[n-]c4cc(F)ccc34)s2)cc1 (3D coordinates assigned)
COc1ccc(-c2ccc(C/N=c3/cc[n-]c4cc(F)ccc34)s2)cc1 (optimized conformer: 92.94414865383662 kcal/mol)

>  <smiles>  (17) 
COc1ccc(-c2ccc(CN=c3cc[nH]c4cc(F)ccc34)s2)cc1

>  <score_type>  (17) 
oracle

>  <origin>  (17) 
adg

>  <m_score__min__energy>  (17) 
-10.33

>  <m_primary>  (17) 
energy

$$$$
17:0
     RDKit          3D

 33 34  0  0  0  0  0  0  0  0999 V2000
   55.1290   27.9020   45.9770 H   0  0  0  0  0  0  0  0  0  0  0  0
   55.5280   26.9720   45.9870 O   0  0  0  0  0  0  0  0  0  0  0  0
   56.8640   26.7360   45.7260 N   0  0  0  0  0  0  0  0  0  0  0  0
   57.5620   27.3750   44.8330 C   0  0  0  0  0  0  0  0  0  0  0  0
   58.1469   26.7894   44.1084 H   0  0  0  0  0  0  0  0  0  0  0  0
   57.6070   28.8530   44.7450 C   0  0  0  0  0  0  0  0  0  0  0  0
   58.8440   29.5350   44.7320 C   0  0  0  0  0  0  0  0  0  0  0  0
   60.1470   28.7900   44.8450 C   0  0  0  0  0  0  0  0  0  0  0  0
   60.3968   28.6472   45.9067 H   0  0  0  0  0  0  0  0  0  0  0  0
   60.0524   27.8095   44.3554 H   0  0  0  0  0  0  0  0  0  0  0  0
   60.9440   29.3689   44.3554 H   0  0  0  0  0  0  0  0  0  0  0  0
   58.8550   30.9330   44.6130 C   0  0  0  0  0  0  0  0  0  0  0  0
   59.8100   31.4789   44.6033 H   0  0  0  0  0  0  0  0  0  0  0  0
   57.6500   31.6280   44.5070 C   0  0  0  0  0  0  0  0  0  0  0  0
   57.6470   33.4140   44.3800 S   0  0  0  0  0  0  0  0  0  0  0  0
   58.4440   33.6150   45.9720 C   0  0  0  0  0  0  0  0  0  0  0  0
   59.4460   34.5770   46.1400 C   0  0  0  0  0  0  0  0  0  0  0  0
   59.7498   35.2067   45.2908 H   0  0  0  0  0  0  0  0  0  0  0  0
   60.0620   34.7400   47.3840 C   0  0  0  0  0  0  0  0  0  0  0  0
   60.8470   35.5000   47.5114 H   0  0  0  0  0  0  0  0  0  0  0  0
   59.6810   33.9340   48.4760 C   0  0  0  0  0  0  0  0  0  0  0  0
   60.2680   34.0580   49.7440 O   0  0  0  0  0  0  0  0  0  0  0  0
   61.6490   33.8410   50.0150 C   0  0  0  0  0  0  0  0  0  0  0  0
   61.8096   33.8158   51.1029 H   0  0  0  0  0  0  0  0  0  0  0  0
   61.9627   32.8825   49.5757 H   0  0  0  0  0  0  0  0  0  0  0  0
   62.2415   34.6571   49.5757 H   0  0  0  0  0  0  0  0  0  0  0  0
   58.6810   32.9700   48.2960 C   0  0  0  0  0  0  0  0  0  0  0  0
   58.3779   32.3343   49.1410 H   0  0  0  0  0  0  0  0  0  0  0  0
   58.0650   32.8090   47.0520 C   0  0  0  0  0  0  0  0  0  0  0  0
   57.2815   32.0481   46.9213 H   0  0  0  0  0  0  0  0  0  0  0  0
   56.4730   30.9520   44.4980 N   0  0  0  0  0  0  0  0  0  0  0  0
   56.4200   29.5990   44.6050 C   0  0  0  0  0  0  0  0  0  0  0  0
   55.2990   29.0250   44.5620 O   0  0  0  0  0  0  0  0  0  0  0  0
  1  2  1  0
  2  3  1  0
  3  4  2  0
  4  5  1  0
  4  6  1  0
  6  7  2  0
  7  8  1  0
  8  9  1  0
  8 10  1  0
  8 11  1  0
  7 12  1  0
 12 13  1  0
 12 14  2  0
 14 15  1  0
 15 16  1  0
 16 17  2  0
 17 18  1  0
 17 19  1  0
 19 20  1  0
 19 21  2  0
 21 22  1  0
 22 23  1  0
 23 24  1  0
 23 25  1  0
 23 26  1  0
 21 27  1  0
 27 28  1  0
 27 29  2  0
 29 30  1  0
 14 31  1  0
 31 32  1  0
 32 33  2  0
 32  6  1  0
 29 16  1  0
M  CHG  1  31  -1
M  END
>  <UniqueID>  (18) 
17

>  <SMILES>  (18) 
COc1ccc(Sc2cc(C)c(/C=N\O)c(=O)[n-]2)cc1

>  <Energy>  (18) 
38.1052539503988

>  <Genealogy>  (18) 
COc1ccc(Sc2cc(C)c(C=NO)c(=O)[n-]2)cc1 (protonated)
COc1ccc(Sc2cc(C)c(/C=N\O)c(=O)[n-]2)cc1 (cis-trans isomerization)
COc1ccc(Sc2cc(C)c(/C=N\O)c(=O)[n-]2)cc1 (3D coordinates assigned)
COc1ccc(Sc2cc(C)c(/C=N\O)c(=O)[n-]2)cc1 (optimized conformer: 38.1052539503988 kcal/mol)

>  <smiles>  (18) 
COc1ccc(Sc2cc(C)c(C=NO)c(=O)[nH]2)cc1

>  <score_type>  (18) 
oracle

>  <origin>  (18) 
adg

>  <m_score__min__energy>  (18) 
-10.640000000000001

>  <m_primary>  (18) 
energy

$$$$
18:0
     RDKit          3D

 44 46  0  0  0  0  0  0  0  0999 V2000
   59.5780   30.3560   48.5410 C   0  0  0  0  0  0  0  0  0  0  0  0
   60.1530   30.7860   47.3110 O   0  0  0  0  0  0  0  0  0  0  0  0
   61.1390   31.7790   47.1990 C   0  0  0  0  0  0  0  0  0  0  0  0
   62.4540   31.5840   47.6580 C   0  0  0  0  0  0  0  0  0  0  0  0
   63.4110   32.5840   47.4860 C   0  0  0  0  0  0  0  0  0  0  0  0
   63.0510   33.7740   46.8540 C   0  0  0  0  0  0  0  0  0  0  0  0
   61.7760   33.9560   46.4230 N   0  0  0  0  0  0  0  0  0  0  0  0
   60.8150   33.0060   46.5880 C   0  0  0  0  0  0  0  0  0  0  0  0
   59.4860   33.2590   46.1090 N   0  0  0  0  0  0  0  0  0  0  0  0
   59.3040   33.8230   44.7660 C   0  0  0  0  0  0  0  0  0  0  0  0
   58.0730   33.2160   44.0570 C   0  0  0  0  0  0  0  0  0  0  0  0
   57.0400   32.6000   45.0230 C   0  0  0  0  0  0  0  0  0  0  0  0
   57.3740   31.1950   45.2590 N   0  0  0  0  0  0  0  0  0  0  0  0
   56.5590   30.0950   44.8500 C   0  0  0  0  0  0  0  0  0  0  0  0
   55.3140   30.2400   44.7170 O   0  0  0  0  0  0  0  0  0  0  0  0
   57.1860   28.8440   44.5500 N   0  0  0  0  0  0  0  0  0  0  0  0
   58.3630   28.3030   45.1710 C   0  0  0  0  0  0  0  0  0  0  0  0
   59.6380   28.8580   44.9490 C   0  0  0  0  0  0  0  0  0  0  0  0
   60.7680   28.2910   45.5450 C   0  0  0  0  0  0  0  0  0  0  0  0
   60.6400   27.1610   46.3540 C   0  0  0  0  0  0  0  0  0  0  0  0
   59.3840   26.5870   46.5600 C   0  0  0  0  0  0  0  0  0  0  0  0
   58.2470   27.1480   45.9660 C   0  0  0  0  0  0  0  0  0  0  0  0
   56.6820   26.3940   46.2340 Cl  0  0  0  0  0  0  0  0  0  0  0  0
   57.0150   33.3790   46.3500 C   0  0  0  0  0  0  0  0  0  0  0  0
   58.3700   33.2750   47.0660 C   0  0  0  0  0  0  0  0  0  0  0  0
   60.1472   30.7817   49.3805 H   0  0  0  0  0  0  0  0  0  0  0  0
   58.5334   30.6964   48.5962 H   0  0  0  0  0  0  0  0  0  0  0  0
   59.6092   29.2578   48.5962 H   0  0  0  0  0  0  0  0  0  0  0  0
   62.7283   30.6411   48.1536 H   0  0  0  0  0  0  0  0  0  0  0  0
   64.4400   32.4355   47.8454 H   0  0  0  0  0  0  0  0  0  0  0  0
   63.8001   34.5655   46.7045 H   0  0  0  0  0  0  0  0  0  0  0  0
   59.1665   34.9110   44.8513 H   0  0  0  0  0  0  0  0  0  0  0  0
   60.1969   33.5858   44.1690 H   0  0  0  0  0  0  0  0  0  0  0  0
   57.5777   34.0111   43.4803 H   0  0  0  0  0  0  0  0  0  0  0  0
   58.4411   32.3998   43.4180 H   0  0  0  0  0  0  0  0  0  0  0  0
   56.0387   32.6621   44.5717 H   0  0  0  0  0  0  0  0  0  0  0  0
   59.7452   29.7421   44.3034 H   0  0  0  0  0  0  0  0  0  0  0  0
   61.7597   28.7361   45.3762 H   0  0  0  0  0  0  0  0  0  0  0  0
   61.5294   26.7222   46.8298 H   0  0  0  0  0  0  0  0  0  0  0  0
   59.2874   25.6912   47.1910 H   0  0  0  0  0  0  0  0  0  0  0  0
   56.7959   34.4370   46.1436 H   0  0  0  0  0  0  0  0  0  0  0  0
   56.2382   32.9480   46.9986 H   0  0  0  0  0  0  0  0  0  0  0  0
   58.4869   34.1389   47.7368 H   0  0  0  0  0  0  0  0  0  0  0  0
   58.3888   32.3328   47.6334 H   0  0  0  0  0  0  0  0  0  0  0  0
  1  2  1  0
  2  3  1  0
  3  4  2  0
  4  5  1  0
  5  6  2  0
  6  7  1  0
  7  8  2  0
  8  9  1  0
  9 10  1  0
 10 11  1  0
 11 12  1  0
 12 13  1  0
 13 14  1  0
 14 15  2  0
 14 16  1  0
 16 17  1  0
 17 18  2  0
 18 19  1  0
 19 20  2  0
 20 21  1  0
 21 22  2  0
 22 23  1  0
 12 24  1  0
 24 25  1  0
  8  3  1  0
 25  9  1  0
 22 17  1  0
  1 26  1  0
  1 27  1  0
  1 28  1  0
  4 29  1  0
  5 30  1  0
  6 31  1  0
 10 32  1  0
 10 33  1  0
 11 34  1  0
 11 35  1  0
 12 36  1  0
 18 37  1  0
 19 38  1  0
 20 39  1  0
 21 40  1  0
 24 41  1  0
 24 42  1  0
 25 43  1  0
 25 44  1  0
M  CHG  2  13  -1  16  -1
M  END
>  <UniqueID>  (19) 
18

>  <SMILES>  (19) 
COc1cccnc1N1CCC([N-]C(=O)[N-]c2ccccc2Cl)CC1

>  <Energy>  (19) 
53.540323319640514

>  <Genealogy>  (19) 
COc1cccnc1N1CCC([N-]C(=O)[N-]c2ccccc2Cl)CC1 (protonated)
COc1cccnc1N1CCC([N-]C(=O)[N-]c2ccccc2Cl)CC1 (3D coordinates assigned)
COc1cccnc1N1CCC([N-]C(=O)[N-]c2ccccc2Cl)CC1 (nonaromatic ring conformer: 53.540323319640514 kcal/mol)

>  <smiles>  (19) 
COc1cccnc1N1CCC(NC(=O)Nc2ccccc2Cl)CC1

>  <score_type>  (19) 
oracle

>  <origin>  (19) 
adg

>  <m_score__min__energy>  (19) 
-11.15

>  <m_primary>  (19) 
energy

$$$$
19:0
     RDKit          3D

 45 48  0  0  0  0  0  0  0  0999 V2000
   61.0730   29.1300   46.6670 O   0  0  0  0  0  0  0  0  0  0  0  0
   60.0300   29.6270   47.1760 C   0  0  0  0  0  0  0  0  0  0  0  0
   58.7390   29.1330   46.7910 N   0  0  0  0  0  0  0  0  0  0  0  0
   57.9690   29.5620   45.6600 C   0  0  0  0  0  0  0  0  0  0  0  0
   56.7250   28.9610   45.4250 C   0  0  0  0  0  0  0  0  0  0  0  0
   55.9350   29.3660   44.3460 C   0  0  0  0  0  0  0  0  0  0  0  0
   56.3760   30.3870   43.5000 C   0  0  0  0  0  0  0  0  0  0  0  0
   57.6050   31.0110   43.7390 C   0  0  0  0  0  0  0  0  0  0  0  0
   58.1440   32.3130   42.6940 Cl  0  0  0  0  0  0  0  0  0  0  0  0
   58.3980   30.6070   44.8200 C   0  0  0  0  0  0  0  0  0  0  0  0
   60.1240   30.6260   48.2200 N   0  0  1  0  0  0  0  0  0  0  0  0
   61.3750   31.4030   48.0940 C   0  0  0  0  0  0  0  0  0  0  0  0
   61.4010   32.2830   46.8360 C   0  0  0  0  0  0  0  0  0  0  0  0
   60.1020   33.0090   46.6100 C   0  0  0  0  0  0  0  0  0  0  0  0
   60.0660   34.0610   45.6800 C   0  0  0  0  0  0  0  0  0  0  0  0
   58.8640   34.7130   45.3980 C   0  0  0  0  0  0  0  0  0  0  0  0
   57.6870   34.3160   46.0320 C   0  0  0  0  0  0  0  0  0  0  0  0
   57.7070   33.2640   46.9500 C   0  0  0  0  0  0  0  0  0  0  0  0
   58.9090   32.5950   47.2420 C   0  0  0  0  0  0  0  0  0  0  0  0
   58.9110   31.4910   48.2890 C   0  0  2  0  0  0  0  0  0  0  0  0
   58.7190   32.0560   49.6930 C   0  0  0  0  0  0  0  0  0  0  0  0
   59.4220   33.2160   50.0680 C   0  0  0  0  0  0  0  0  0  0  0  0
   59.2420   33.7780   51.3350 C   0  0  0  0  0  0  0  0  0  0  0  0
   58.3520   33.1950   52.2400 C   0  0  0  0  0  0  0  0  0  0  0  0
   57.6360   32.0540   51.8770 C   0  0  0  0  0  0  0  0  0  0  0  0
   57.8110   31.4880   50.6100 C   0  0  0  0  0  0  0  0  0  0  0  0
   56.3679   28.1648   46.0947 H   0  0  0  0  0  0  0  0  0  0  0  0
   54.9651   28.8807   44.1624 H   0  0  0  0  0  0  0  0  0  0  0  0
   55.7569   30.7000   42.6463 H   0  0  0  0  0  0  0  0  0  0  0  0
   59.3584   31.1073   45.0133 H   0  0  0  0  0  0  0  0  0  0  0  0
   60.1880   30.0940   49.1210 H   0  0  0  0  0  0  0  0  0  0  0  0
   61.4785   32.0494   48.9780 H   0  0  0  0  0  0  0  0  0  0  0  0
   62.2054   30.6859   48.0154 H   0  0  0  0  0  0  0  0  0  0  0  0
   62.2056   33.0255   46.9421 H   0  0  0  0  0  0  0  0  0  0  0  0
   61.5686   31.6235   45.9717 H   0  0  0  0  0  0  0  0  0  0  0  0
   60.9899   34.3729   45.1710 H   0  0  0  0  0  0  0  0  0  0  0  0
   58.8453   35.5413   44.6744 H   0  0  0  0  0  0  0  0  0  0  0  0
   56.7417   34.8322   45.8086 H   0  0  0  0  0  0  0  0  0  0  0  0
   56.7759   32.9564   47.4483 H   0  0  0  0  0  0  0  0  0  0  0  0
   58.0518   30.8449   48.0562 H   0  0  0  0  0  0  0  0  0  0  0  0
   60.1192   33.6845   49.3578 H   0  0  0  0  0  0  0  0  0  0  0  0
   59.8021   34.6808   51.6199 H   0  0  0  0  0  0  0  0  0  0  0  0
   58.2157   33.6354   53.2387 H   0  0  0  0  0  0  0  0  0  0  0  0
   56.9321   31.5984   52.5890 H   0  0  0  0  0  0  0  0  0  0  0  0
   57.2364   30.5937   50.3271 H   0  0  0  0  0  0  0  0  0  0  0  0
  1  2  2  0
  2  3  1  0
  3  4  1  0
  4  5  2  0
  5  6  1  0
  6  7  2  0
  7  8  1  0
  8  9  1  0
  8 10  2  0
  2 11  1  0
 11 12  1  0
 12 13  1  0
 13 14  1  0
 14 15  2  0
 15 16  1  0
 16 17  2  0
 17 18  1  0
 18 19  2  0
 19 20  1  0
 20 21  1  0
 21 22  2  0
 22 23  1  0
 23 24  2  0
 24 25  1  0
 25 26  2  0
 10  4  1  0
 20 11  1  0
 26 21  1  0
 19 14  1  0
  5 27  1  0
  6 28  1  0
  7 29  1  0
 10 30  1  0
 11 31  1  1
 12 32  1  0
 12 33  1  0
 13 34  1  0
 13 35  1  0
 15 36  1  0
 16 37  1  0
 17 38  1  0
 18 39  1  0
 20 40  1  6
 22 41  1  0
 23 42  1  0
 24 43  1  0
 25 44  1  0
 26 45  1  0
M  CHG  2   3  -1  11   1
M  END
>  <UniqueID>  (20) 
19

>  <SMILES>  (20) 
O=C([N-]c1cccc(Cl)c1)[N@H+]1CCc2ccccc2[C@@H]1c1ccccc1

>  <Energy>  (20) 
62.67166860139265

>  <Genealogy>  (20) 
O=C([N-]c1cccc(Cl)c1)[NH+]1CCc2ccccc2C1c1ccccc1 (protonated)
O=C([N-]c1cccc(Cl)c1)[N@H+]1CCc2ccccc2[C@@H]1c1ccccc1 (chirality)
O=C([N-]c1cccc(Cl)c1)[N@H+]1CCc2ccccc2[C@@H]1c1ccccc1 (3D coordinates assigned)
O=C([N-]c1cccc(Cl)c1)[N@H+]1CCc2ccccc2[C@@H]1c1ccccc1 (nonaromatic ring conformer: 62.67166860139265 kcal/mol)

>  <smiles>  (20) 
O=C(Nc1cccc(Cl)c1)N1CCc2ccccc2C1c1ccccc1

>  <score_type>  (20) 
oracle

>  <origin>  (20) 
adg

>  <m_score__min__energy>  (20) 
-8.6600000000000001

>  <m_primary>  (20) 
energy

$$$$
20:0
     RDKit          3D

 46 49  0  0  0  0  0  0  0  0999 V2000
   59.0580   26.7930   46.1920 C   0  0  0  0  0  0  0  0  0  0  0  0
   57.5740   27.1470   46.1870 C   0  0  0  0  0  0  0  0  0  0  0  0
   57.2010   27.8000   44.9320 N   0  0  0  0  0  0  0  0  0  0  0  0
   57.3520   29.2080   44.6610 C   0  0  0  0  0  0  0  0  0  0  0  0
   56.8920   29.7920   43.4500 C   0  0  0  0  0  0  0  0  0  0  0  0
   57.0580   31.1650   43.2080 C   0  0  0  0  0  0  0  0  0  0  0  0
   57.6890   31.9290   44.1830 C   0  0  0  0  0  0  0  0  0  0  0  0
   57.9640   33.2720   44.2020 C   0  0  0  0  0  0  0  0  0  0  0  0
   58.6050   33.5050   45.4170 C   0  0  0  0  0  0  0  0  0  0  0  0
   58.7260   32.3480   46.1260 N   0  0  0  0  0  0  0  0  0  0  0  0
   58.1500   31.3910   45.3540 C   0  0  0  0  0  0  0  0  0  0  0  0
   57.9930   30.0230   45.6210 C   0  0  0  0  0  0  0  0  0  0  0  0
   59.1660   32.1860   47.5190 C   0  0  0  0  0  0  0  0  0  0  0  0
   60.3090   33.1570   47.9440 C   0  0  0  0  0  0  0  0  0  0  0  0
   61.4180   33.3270   46.8450 C   0  0  0  0  0  0  0  0  0  0  0  0
   62.6880   32.4940   47.1040 C   0  0  0  0  0  0  0  0  0  0  0  0
   62.3630   31.1890   47.6830 N   0  0  0  0  0  0  0  0  0  0  0  0
   61.7780   31.3100   49.0310 C   0  0  0  0  0  0  0  0  0  0  0  0
   60.9630   32.6080   49.2480 C   0  0  0  0  0  0  0  0  0  0  0  0
   59.6750   34.5250   48.2960 C   0  0  0  0  0  0  0  0  0  0  0  0
   59.2440   35.2890   47.1350 N   0  0  0  0  0  0  0  0  0  0  0  0
   59.1300   34.8380   45.7860 C   0  0  0  0  0  0  0  0  0  0  0  0
   59.6200   35.5620   44.8790 O   0  0  0  0  0  0  0  0  0  0  0  0
   59.4113   26.7087   47.2303 H   0  0  0  0  0  0  0  0  0  0  0  0
   59.2079   25.8339   45.6747 H   0  0  0  0  0  0  0  0  0  0  0  0
   59.6247   27.5812   45.6747 H   0  0  0  0  0  0  0  0  0  0  0  0
   56.9831   26.2266   46.3044 H   0  0  0  0  0  0  0  0  0  0  0  0
   57.3733   27.8389   47.0183 H   0  0  0  0  0  0  0  0  0  0  0  0
   56.7890   27.1930   44.1860 H   0  0  0  0  0  0  0  0  0  0  0  0
   56.4006   29.1617   42.6942 H   0  0  0  0  0  0  0  0  0  0  0  0
   56.6993   31.6227   42.2743 H   0  0  0  0  0  0  0  0  0  0  0  0
   57.7281   34.0106   43.4217 H   0  0  0  0  0  0  0  0  0  0  0  0
   58.3630   29.5915   46.5627 H   0  0  0  0  0  0  0  0  0  0  0  0
   58.3018   32.3614   48.1766 H   0  0  0  0  0  0  0  0  0  0  0  0
   59.5680   31.1659   47.6074 H   0  0  0  0  0  0  0  0  0  0  0  0
   60.9952   33.0216   45.8765 H   0  0  0  0  0  0  0  0  0  0  0  0
   61.7217   34.3842   46.8594 H   0  0  0  0  0  0  0  0  0  0  0  0
   63.2161   32.3412   46.1512 H   0  0  0  0  0  0  0  0  0  0  0  0
   63.3209   33.0413   47.8181 H   0  0  0  0  0  0  0  0  0  0  0  0
   61.6940   30.6920   47.0490 H   0  0  0  0  0  0  0  0  0  0  0  0
   61.1115   30.4509   49.1975 H   0  0  0  0  0  0  0  0  0  0  0  0
   62.6173   31.3380   49.7415 H   0  0  0  0  0  0  0  0  0  0  0  0
   60.1656   32.4007   49.9768 H   0  0  0  0  0  0  0  0  0  0  0  0
   61.6656   33.3752   49.6053 H   0  0  0  0  0  0  0  0  0  0  0  0
   58.7999   34.3466   48.9381 H   0  0  0  0  0  0  0  0  0  0  0  0
   60.4526   35.1184   48.7992 H   0  0  0  0  0  0  0  0  0  0  0  0
  1  2  1  0
  2  3  1  0
  3  4  1  0
  4  5  2  0
  5  6  1  0
  6  7  2  0
  7  8  1  0
  8  9  2  0
  9 10  1  0
 10 11  1  0
 11 12  2  0
 10 13  1  0
 13 14  1  0
 14 15  1  0
 15 16  1  0
 16 17  1  0
 17 18  1  0
 18 19  1  0
 14 20  1  0
 20 21  1  0
 21 22  1  0
 22 23  2  0
 12  4  1  0
 19 14  1  0
 11  7  1  0
 22  9  1  0
  1 24  1  0
  1 25  1  0
  1 26  1  0
  2 27  1  0
  2 28  1  0
  3 29  1  0
  5 30  1  0
  6 31  1  0
  8 32  1  0
 12 33  1  0
 13 34  1  0
 13 35  1  0
 15 36  1  0
 15 37  1  0
 16 38  1  0
 16 39  1  0
 17 40  1  0
 18 41  1  0
 18 42  1  0
 19 43  1  0
 19 44  1  0
 20 45  1  0
 20 46  1  0
M  CHG  1  21  -1
M  END
>  <UniqueID>  (21) 
20

>  <SMILES>  (21) 
CCNc1ccc2cc3n(c2c1)CC1(CCNCC1)C[N-]C3=O

>  <Energy>  (21) 
98.94155070857977

>  <Genealogy>  (21) 
CCNc1ccc2cc3n(c2c1)CC1(CCNCC1)C[N-]C3=O (protonated)
CCNc1ccc2cc3n(c2c1)CC1(CCNCC1)C[N-]C3=O (3D coordinates assigned)
CCNc1ccc2cc3n(c2c1)CC1(CCNCC1)C[N-]C3=O (nonaromatic ring conformer: 98.94155070857977 kcal/mol)

>  <smiles>  (21) 
CCNc1ccc2cc3n(c2c1)CC1(CCNCC1)CNC3=O

>  <score_type>  (21) 
oracle

>  <origin>  (21) 
adg

>  <m_score__min__energy>  (21) 
-7.8799999999999999

>  <m_primary>  (21) 
energy

$$$$
21:0
     RDKit          3D

 33 34  0  0  0  0  0  0  0  0999 V2000
   58.8550   33.8060   44.5560 C   0  0  0  0  0  0  0  0  0  0  0  0
   59.2960   34.2330   45.9620 C   0  0  0  0  0  0  0  0  0  0  0  0
   59.6420   35.7240   46.0250 C   0  0  0  0  0  0  0  0  0  0  0  0
   60.3970   33.3290   46.5200 C   0  0  0  0  0  0  0  0  0  0  0  0
   61.7230   33.8080   46.4600 C   0  0  0  0  0  0  0  0  0  0  0  0
   62.7740   33.0960   47.0360 C   0  0  0  0  0  0  0  0  0  0  0  0
   62.5260   31.9000   47.7010 C   0  0  0  0  0  0  0  0  0  0  0  0
   61.2280   31.4000   47.7720 C   0  0  0  0  0  0  0  0  0  0  0  0
   60.1600   32.0810   47.1660 C   0  0  0  0  0  0  0  0  0  0  0  0
   58.5320   31.3140   47.2740 S   0  0  0  0  0  0  0  0  0  0  0  0
   58.8990   30.0590   46.0350 C   0  0  0  0  0  0  0  0  0  0  0  0
   60.0950   29.4160   46.1070 N   0  0  0  0  0  0  0  0  0  0  0  0
   60.4370   28.4180   45.2540 C   0  0  0  0  0  0  0  0  0  0  0  0
   59.5440   28.0110   44.2650 C   0  0  0  0  0  0  0  0  0  0  0  0
   58.3110   28.6530   44.1530 C   0  0  0  0  0  0  0  0  0  0  0  0
   57.9730   29.7010   45.0270 C   0  0  0  0  0  0  0  0  0  0  0  0
   56.7140   30.3790   44.8670 N   0  0  0  0  0  0  0  0  0  0  0  0
   56.6710   31.6270   44.8610 O   0  0  0  0  0  0  0  0  0  0  0  0
   55.5300   29.6780   44.8830 O   0  0  0  0  0  0  0  0  0  0  0  0
   58.0668   33.0428   44.6349 H   0  0  0  0  0  0  0  0  0  0  0  0
   58.4663   34.6798   44.0125 H   0  0  0  0  0  0  0  0  0  0  0  0
   59.7158   33.3893   44.0125 H   0  0  0  0  0  0  0  0  0  0  0  0
   58.4337   34.0966   46.6312 H   0  0  0  0  0  0  0  0  0  0  0  0
   59.7152   36.0393   47.0763 H   0  0  0  0  0  0  0  0  0  0  0  0
   60.6045   35.8986   45.5220 H   0  0  0  0  0  0  0  0  0  0  0  0
   58.8547   36.3047   45.5220 H   0  0  0  0  0  0  0  0  0  0  0  0
   61.9310   34.7600   45.9497 H   0  0  0  0  0  0  0  0  0  0  0  0
   63.8019   33.4811   46.9644 H   0  0  0  0  0  0  0  0  0  0  0  0
   63.3544   31.3493   48.1706 H   0  0  0  0  0  0  0  0  0  0  0  0
   61.0371   30.4596   48.3097 H   0  0  0  0  0  0  0  0  0  0  0  0
   61.4190   27.9303   45.3432 H   0  0  0  0  0  0  0  0  0  0  0  0
   59.8086   27.1921   43.5799 H   0  0  0  0  0  0  0  0  0  0  0  0
   57.5988   28.3375   43.3763 H   0  0  0  0  0  0  0  0  0  0  0  0
  1  2  1  0
  2  3  1  0
  2  4  1  0
  4  5  2  0
  5  6  1  0
  6  7  2  0
  7  8  1  0
  8  9  2  0
  9 10  1  0
 10 11  1  0
 11 12  2  0
 12 13  1  0
 13 14  2  0
 14 15  1  0
 15 16  2  0
 16 17  1  0
 17 18  2  0
 17 19  1  0
  9  4  1  0
 16 11  1  0
  1 20  1  0
  1 21  1  0
  1 22  1  0
  2 23  1  0
  3 24  1  0
  3 25  1  0
  3 26  1  0
  5 27  1  0
  6 28  1  0
  7 29  1  0
  8 30  1  0
 13 31  1  0
 14 32  1  0
 15 33  1  0
M  CHG  2  17   1  19  -1
M  END
>  <UniqueID>  (22) 
21

>  <SMILES>  (22) 
CC(C)c1ccccc1Sc1ncccc1[N+](=O)[O-]

>  <Energy>  (22) 
37.090376441200995

>  <Genealogy>  (22) 
CC(C)c1ccccc1Sc1ncccc1[N+](=O)[O-] (3D coordinates assigned)
CC(C)c1ccccc1Sc1ncccc1[N+](=O)[O-] (optimized conformer: 37.090376441200995 kcal/mol)

>  <smiles>  (22) 
CC(C)c1ccccc1Sc1ncccc1[N+](=O)[O-]

>  <score_type>  (22) 
oracle

>  <origin>  (22) 
adg

>  <m_score__min__energy>  (22) 
-7.5300000000000002

>  <m_primary>  (22) 
energy

$$$$
22:0
     RDKit          3D

 46 49  0  0  0  0  0  0  0  0999 V2000
   59.1600   28.9110   47.0570 C   0  0  0  0  0  0  0  0  0  0  0  0
   58.6740   27.6960   46.3820 N   0  0  0  0  0  0  0  0  0  0  0  0
   57.9410   27.7730   45.2180 C   0  0  0  0  0  0  0  0  0  0  0  0
   57.6410   29.0380   44.6010 N   0  0  0  0  0  0  0  0  0  0  0  0
   56.2680   29.3370   44.1940 C   0  0  0  0  0  0  0  0  0  0  0  0
   56.0510   30.8440   44.1540 C   0  0  0  0  0  0  0  0  0  0  0  0
   57.0200   31.4690   43.3370 O   0  0  0  0  0  0  0  0  0  0  0  0
   58.3250   31.3450   43.8830 C   0  0  1  0  0  0  0  0  0  0  0  0
   58.5350   32.2840   45.0650 C   0  0  0  0  0  0  0  0  0  0  0  0
   58.3090   31.8770   46.3950 C   0  0  0  0  0  0  0  0  0  0  0  0
   58.4870   32.7740   47.4530 C   0  0  0  0  0  0  0  0  0  0  0  0
   58.8770   34.0910   47.1960 C   0  0  0  0  0  0  0  0  0  0  0  0
   59.0470   34.9590   48.2240 F   0  0  0  0  0  0  0  0  0  0  0  0
   59.0840   34.5130   45.8820 C   0  0  0  0  0  0  0  0  0  0  0  0
   58.9080   33.6190   44.8220 C   0  0  0  0  0  0  0  0  0  0  0  0
   58.7490   29.8710   44.1230 C   0  0  0  0  0  0  0  0  0  0  0  0
   57.4870   26.6340   44.6220 N   0  0  0  0  0  0  0  0  0  0  0  0
   57.7560   25.4000   45.1310 C   0  0  0  0  0  0  0  0  0  0  0  0
   57.2530   24.1700   44.4680 C   0  0  0  0  0  0  0  0  0  0  0  0
   57.8680   22.9240   44.6710 C   0  0  0  0  0  0  0  0  0  0  0  0
   57.3480   21.8070   44.0160 C   0  0  0  0  0  0  0  0  0  0  0  0
   56.2730   21.9370   43.1970 N   0  0  0  0  0  0  0  0  0  0  0  0
   55.6930   23.1490   43.0010 C   0  0  0  0  0  0  0  0  0  0  0  0
   56.1830   24.2490   43.6300 N   0  0  0  0  0  0  0  0  0  0  0  0
   58.5450   25.3020   46.2790 C   0  0  0  0  0  0  0  0  0  0  0  0
   59.0020   26.4650   46.8920 C   0  0  0  0  0  0  0  0  0  0  0  0
   59.7210   26.3630   47.9240 O   0  0  0  0  0  0  0  0  0  0  0  0
   59.1045   28.7721   48.1468 H   0  0  0  0  0  0  0  0  0  0  0  0
   60.2032   29.1007   46.7642 H   0  0  0  0  0  0  0  0  0  0  0  0
   58.5354   29.7678   46.7642 H   0  0  0  0  0  0  0  0  0  0  0  0
   56.0850   28.9163   43.1942 H   0  0  0  0  0  0  0  0  0  0  0  0
   55.5719   28.8919   44.9202 H   0  0  0  0  0  0  0  0  0  0  0  0
   55.0495   31.0535   43.7502 H   0  0  0  0  0  0  0  0  0  0  0  0
   56.1425   31.2407   45.1759 H   0  0  0  0  0  0  0  0  0  0  0  0
   59.0369   31.6897   43.1185 H   0  0  0  0  0  0  0  0  0  0  0  0
   57.9899   30.8450   46.6028 H   0  0  0  0  0  0  0  0  0  0  0  0
   58.3199   32.4425   48.4885 H   0  0  0  0  0  0  0  0  0  0  0  0
   59.3863   35.5512   45.6801 H   0  0  0  0  0  0  0  0  0  0  0  0
   59.0625   33.9621   43.7884 H   0  0  0  0  0  0  0  0  0  0  0  0
   59.1218   29.4527   43.1764 H   0  0  0  0  0  0  0  0  0  0  0  0
   59.5272   29.8697   44.9004 H   0  0  0  0  0  0  0  0  0  0  0  0
   56.9550   26.7210   43.7300 H   0  0  0  0  0  0  0  0  0  0  0  0
   58.7417   22.8304   45.3327 H   0  0  0  0  0  0  0  0  0  0  0  0
   57.8098   20.8196   44.1634 H   0  0  0  0  0  0  0  0  0  0  0  0
   54.8248   23.2404   42.3317 H   0  0  0  0  0  0  0  0  0  0  0  0
   58.8025   24.3165   46.6943 H   0  0  0  0  0  0  0  0  0  0  0  0
  1  2  1  0
  2  3  1  0
  3  4  1  0
  4  5  1  0
  5  6  1  0
  6  7  1  0
  7  8  1  0
  8  9  1  0
  9 10  2  0
 10 11  1  0
 11 12  2  0
 12 13  1  0
 12 14  1  0
 14 15  2  0
  8 16  1  0
  3 17  2  0
 17 18  1  0
 18 19  1  0
 19 20  2  0
 20 21  1  0
 21 22  2  0
 22 23  1  0
 23 24  2  0
 18 25  2  0
 25 26  1  0
 26 27  2  0
 26  2  1  0
 16  4  1  0
 24 19  1  0
 15  9  1  0
  1 28  1  0
  1 29  1  0
  1 30  1  0
  5 31  1  0
  5 32  1  0
  6 33  1  0
  6 34  1  0
  8 35  1  6
 10 36  1  0
 11 37  1  0
 14 38  1  0
 15 39  1  0
 16 40  1  0
 16 41  1  0
 17 42  1  0
 20 43  1  0
 21 44  1  0
 23 45  1  0
 25 46  1  0
M  CHG  1  17   1
M  END
>  <UniqueID>  (23) 
22

>  <SMILES>  (23) 
Cn1c(N2CCO[C@@H](c3ccc(F)cc3)C2)[nH+]c(-c2ccncn2)cc1=O

>  <Energy>  (23) 
71.32071373060833

>  <Genealogy>  (23) 
Cn1c(N2CCOC(c3ccc(F)cc3)C2)[nH+]c(-c2ccncn2)cc1=O (protonated)
Cn1c(N2CCO[C@@H](c3ccc(F)cc3)C2)[nH+]c(-c2ccncn2)cc1=O (chirality)
Cn1c(N2CCO[C@@H](c3ccc(F)cc3)C2)[nH+]c(-c2ccncn2)cc1=O (3D coordinates assigned)
Cn1c(N2CCO[C@@H](c3ccc(F)cc3)C2)[nH+]c(-c2ccncn2)cc1=O (nonaromatic ring conformer: 71.32071373060833 kcal/mol)

>  <smiles>  (23) 
Cn1c(N2CCOC(c3ccc(F)cc3)C2)nc(-c2ccncn2)cc1=O

>  <score_type>  (23) 
oracle

>  <origin>  (23) 
adg

>  <m_score__min__energy>  (23) 
-6.5300000000000002

>  <m_primary>  (23) 
energy

$$$$
23:0
     RDKit          3D

 44 47  0  0  0  0  0  0  0  0999 V2000
   59.0713   35.1297   44.9681 H   0  0  0  0  0  0  0  0  0  0  0  0
   59.0380   34.5900   45.9260 C   0  0  0  0  0  0  0  0  0  0  0  0
   57.9520   33.8340   46.2420 N   0  0  0  0  0  0  0  0  0  0  0  0
   57.8750   33.1500   47.4150 C   0  0  0  0  0  0  0  0  0  0  0  0
   56.9801   32.5526   47.6436 H   0  0  0  0  0  0  0  0  0  0  0  0
   58.9330   33.2040   48.3340 C   0  0  0  0  0  0  0  0  0  0  0  0
   58.8360   32.4870   49.6590 C   0  0  0  0  0  0  0  0  0  0  0  0
   57.9991   31.7744   49.6174 H   0  0  0  0  0  0  0  0  0  0  0  0
   58.6759   33.2409   50.4439 H   0  0  0  0  0  0  0  0  0  0  0  0
   60.0720   31.7520   49.9770 N   0  0  0  0  0  0  0  0  0  0  0  0
   60.2110   31.7660   51.0150 H   0  0  0  0  0  0  0  0  0  0  0  0
   60.8940   32.2380   49.5500 H   0  0  0  0  0  0  0  0  0  0  0  0
   60.0010   30.3790   49.5330 C   0  0  0  0  0  0  0  0  0  0  0  0
   60.7050   29.3770   50.2160 C   0  0  0  0  0  0  0  0  0  0  0  0
   61.2416   29.6210   51.1447 H   0  0  0  0  0  0  0  0  0  0  0  0
   60.7280   28.0740   49.7240 C   0  0  0  0  0  0  0  0  0  0  0  0
   61.4800   27.1370   50.3540 F   0  0  0  0  0  0  0  0  0  0  0  0
   60.0130   27.7440   48.5660 C   0  0  0  0  0  0  0  0  0  0  0  0
   60.1490   26.5000   48.0420 N   0  0  0  0  0  0  0  0  0  0  0  0
   59.5380   26.1340   46.8910 C   0  0  0  0  0  0  0  0  0  0  0  0
   59.7104   25.1304   46.4751 H   0  0  0  0  0  0  0  0  0  0  0  0
   58.6900   27.0240   46.2290 C   0  0  0  0  0  0  0  0  0  0  0  0
   58.0190   26.5740   45.0290 C   0  0  0  0  0  0  0  0  0  0  0  0
   57.4810   26.2150   44.0700 N   0  0  0  0  0  0  0  0  0  0  0  0
   58.4350   28.2990   46.7790 C   0  0  0  0  0  0  0  0  0  0  0  0
   57.4760   29.0050   46.2300 N   0  0  0  0  0  0  0  0  0  0  0  0
   57.4730   29.7860   45.0270 C   0  0  0  0  0  0  0  0  0  0  0  0
   58.5470   30.6390   44.7180 C   0  0  0  0  0  0  0  0  0  0  0  0
   59.4179   30.6884   45.3881 H   0  0  0  0  0  0  0  0  0  0  0  0
   58.5120   31.4240   43.5630 C   0  0  0  0  0  0  0  0  0  0  0  0
   59.3646   32.0728   43.3137 H   0  0  0  0  0  0  0  0  0  0  0  0
   57.3940   31.3860   42.7230 C   0  0  0  0  0  0  0  0  0  0  0  0
   57.3480   32.4580   41.1440 Br  0  0  0  0  0  0  0  0  0  0  0  0
   56.3060   30.5690   43.0480 C   0  0  0  0  0  0  0  0  0  0  0  0
   55.4219   30.5473   42.3939 H   0  0  0  0  0  0  0  0  0  0  0  0
   56.3390   29.7790   44.2030 C   0  0  0  0  0  0  0  0  0  0  0  0
   55.2760   28.9960   44.5110 F   0  0  0  0  0  0  0  0  0  0  0  0
   59.1990   28.7100   47.9190 C   0  0  0  0  0  0  0  0  0  0  0  0
   59.2800   30.0460   48.3740 C   0  0  0  0  0  0  0  0  0  0  0  0
   58.7688   30.8400   47.8099 H   0  0  0  0  0  0  0  0  0  0  0  0
   60.0560   33.9870   48.0250 C   0  0  0  0  0  0  0  0  0  0  0  0
   60.8931   34.0532   48.7355 H   0  0  0  0  0  0  0  0  0  0  0  0
   60.1100   34.6820   46.8150 C   0  0  0  0  0  0  0  0  0  0  0  0
   60.9882   35.2955   46.5651 H   0  0  0  0  0  0  0  0  0  0  0  0
  1  2  1  0
  2  3  2  0
  3  4  1  0
  4  5  1  0
  4  6  2  0
  6  7  1  0
  7  8  1  0
  7  9  1  0
  7 10  1  0
 10 11  1  0
 10 12  1  0
 10 13  1  0
 13 14  2  0
 14 15  1  0
 14 16  1  0
 16 17  1  0
 16 18  2  0
 18 19  1  0
 19 20  1  0
 20 21  1  0
 20 22  2  0
 22 23  1  0
 23 24  3  0
 22 25  1  0
 25 26  2  0
 26 27  1  0
 27 28  2  0
 28 29  1  0
 28 30  1  0
 30 31  1  0
 30 32  2  0
 32 33  1  0
 32 34  1  0
 34 35  1  0
 34 36  2  0
 36 37  1  0
 25 38  1  0
 38 39  2  0
 39 40  1  0
  6 41  1  0
 41 42  1  0
 41 43  2  0
 43 44  1  0
 43  2  1  0
 39 13  1  0
 38 18  1  0
 36 27  1  0
M  CHG  2  10   1  19  -1
M  END
>  <UniqueID>  (24) 
23

>  <SMILES>  (24) 
N#Cc1c[n-]c2c(F)cc([NH2+]Cc3cccnc3)cc2/c1=N\c1ccc(Br)cc1F

>  <Energy>  (24) 
73.65683881524227

>  <Genealogy>  (24) 
N#Cc1c[n-]c2c(F)cc([NH2+]Cc3cccnc3)cc2c1=Nc1ccc(Br)cc1F (protonated)
N#Cc1c[n-]c2c(F)cc([NH2+]Cc3cccnc3)cc2/c1=N\c1ccc(Br)cc1F (cis-trans isomerization)
N#Cc1c[n-]c2c(F)cc([NH2+]Cc3cccnc3)cc2/c1=N\c1ccc(Br)cc1F (3D coordinates assigned)
N#Cc1c[n-]c2c(F)cc([NH2+]Cc3cccnc3)cc2/c1=N\c1ccc(Br)cc1F (optimized conformer: 73.65683881524227 kcal/mol)

>  <smiles>  (24) 
N#Cc1c[nH]c2c(F)cc(NCc3cccnc3)cc2c1=Nc1ccc(Br)cc1F

>  <score_type>  (24) 
oracle

>  <origin>  (24) 
adg

>  <m_score__min__energy>  (24) 
-8.0299999999999994

>  <m_primary>  (24) 
energy

$$$$
24:0
     RDKit          3D

 42 44  0  0  0  0  0  0  0  0999 V2000
   57.8040   32.7190   44.0070 C   0  0  0  0  0  0  0  0  0  0  0  0
   57.6160   31.9850   45.2630 N   0  0  0  0  0  0  0  0  0  0  0  0
   57.7800   32.6850   46.5440 C   0  0  0  0  0  0  0  0  0  0  0  0
   59.2430   32.7970   46.8870 C   0  0  0  0  0  0  0  0  0  0  0  0
   59.9550   31.7950   47.5420 C   0  0  0  0  0  0  0  0  0  0  0  0
   61.2660   32.2120   47.5290 C   0  0  0  0  0  0  0  0  0  0  0  0
   62.4140   31.5830   48.0080 C   0  0  0  0  0  0  0  0  0  0  0  0
   63.6470   32.2290   47.8120 C   0  0  0  0  0  0  0  0  0  0  0  0
   63.7040   33.4710   47.1420 C   0  0  0  0  0  0  0  0  0  0  0  0
   62.5290   34.0800   46.6650 C   0  0  0  0  0  0  0  0  0  0  0  0
   61.3130   33.4210   46.8830 C   0  0  0  0  0  0  0  0  0  0  0  0
   60.0760   33.8020   46.4950 N   0  0  0  0  0  0  0  0  0  0  0  0
   59.7450   34.9850   45.7000 C   0  0  0  0  0  0  0  0  0  0  0  0
   57.4000   30.5570   45.2420 C   0  0  0  0  0  0  0  0  0  0  0  0
   56.2930   30.0900   44.8620 O   0  0  0  0  0  0  0  0  0  0  0  0
   58.4110   29.6460   45.6940 N   0  0  0  0  0  0  0  0  0  0  0  0
   59.5860   29.3570   44.8730 C   0  0  0  0  0  0  0  0  0  0  0  0
   59.9950   27.8950   45.0750 C   0  0  0  0  0  0  0  0  0  0  0  0
   60.1360   27.5980   46.4540 O   0  0  0  0  0  0  0  0  0  0  0  0
   58.8820   27.7110   47.1030 C   0  0  0  0  0  0  0  0  0  0  0  0
   58.3800   29.1570   47.0710 C   0  0  0  0  0  0  0  0  0  0  0  0
   58.0713   33.7627   44.2287 H   0  0  0  0  0  0  0  0  0  0  0  0
   58.6109   32.2495   43.4252 H   0  0  0  0  0  0  0  0  0  0  0  0
   56.8708   32.6952   43.4252 H   0  0  0  0  0  0  0  0  0  0  0  0
   57.3459   33.6928   46.4665 H   0  0  0  0  0  0  0  0  0  0  0  0
   57.2666   32.1171   47.3339 H   0  0  0  0  0  0  0  0  0  0  0  0
   59.5543   30.8676   47.9771 H   0  0  0  0  0  0  0  0  0  0  0  0
   62.3569   30.6125   48.5227 H   0  0  0  0  0  0  0  0  0  0  0  0
   64.5727   31.7645   48.1826 H   0  0  0  0  0  0  0  0  0  0  0  0
   64.6748   33.9660   46.9920 H   0  0  0  0  0  0  0  0  0  0  0  0
   62.5645   35.0443   46.1370 H   0  0  0  0  0  0  0  0  0  0  0  0
   59.5102   35.8241   46.3715 H   0  0  0  0  0  0  0  0  0  0  0  0
   60.6029   35.2521   45.0655 H   0  0  0  0  0  0  0  0  0  0  0  0
   58.8730   34.7681   45.0655 H   0  0  0  0  0  0  0  0  0  0  0  0
   59.3456   29.5286   43.8134 H   0  0  0  0  0  0  0  0  0  0  0  0
   60.4149   30.0167   45.1693 H   0  0  0  0  0  0  0  0  0  0  0  0
   59.2232   27.2415   44.6424 H   0  0  0  0  0  0  0  0  0  0  0  0
   60.9615   27.7271   44.5774 H   0  0  0  0  0  0  0  0  0  0  0  0
   58.1526   27.0649   46.5926 H   0  0  0  0  0  0  0  0  0  0  0  0
   58.9996   27.4024   48.1523 H   0  0  0  0  0  0  0  0  0  0  0  0
   57.3491   29.1971   47.4526 H   0  0  0  0  0  0  0  0  0  0  0  0
   59.0254   29.7864   47.7013 H   0  0  0  0  0  0  0  0  0  0  0  0
  1  2  1  0
  2  3  1  0
  3  4  1  0
  4  5  2  0
  5  6  1  0
  6  7  2  0
  7  8  1  0
  8  9  2  0
  9 10  1  0
 10 11  2  0
 11 12  1  0
 12 13  1  0
  2 14  1  0
 14 15  2  0
 14 16  1  0
 16 17  1  0
 17 18  1  0
 18 19  1  0
 19 20  1  0
 20 21  1  0
 12  4  1  0
 21 16  1  0
 11  6  1  0
  1 22  1  0
  1 23  1  0
  1 24  1  0
  3 25  1  0
  3 26  1  0
  5 27  1  0
  7 28  1  0
  8 29  1  0
  9 30  1  0
 10 31  1  0
 13 32  1  0
 13 33  1  0
 13 34  1  0
 17 35  1  0
 17 36  1  0
 18 37  1  0
 18 38  1  0
 20 39  1  0
 20 40  1  0
 21 41  1  0
 21 42  1  0
M  END
>  <UniqueID>  (25) 
24

>  <SMILES>  (25) 
CN(Cc1cc2ccccc2n1C)C(=O)N1CCOCC1

>  <Energy>  (25) 
80.78259225187985

>  <Genealogy>  (25) 
CN(Cc1cc2ccccc2n1C)C(=O)N1CCOCC1 (3D coordinates assigned)
CN(Cc1cc2ccccc2n1C)C(=O)N1CCOCC1 (nonaromatic ring conformer: 80.78259225187985 kcal/mol)

>  <smiles>  (25) 
CN(Cc1cc2ccccc2n1C)C(=O)N1CCOCC1

>  <score_type>  (25) 
oracle

>  <origin>  (25) 
adg

>  <m_score__min__energy>  (25) 
-7.1100000000000003

>  <m_primary>  (25) 
energy

$$$$
25:0
     RDKit          3D

 42 45  0  0  0  0  0  0  0  0999 V2000
   54.0610   21.5910   47.0180 C   0  0  0  0  0  0  0  0  0  0  0  0
   53.1280   22.3130   46.1010 C   0  0  0  0  0  0  0  0  0  0  0  0
   52.0070   21.7490   45.6080 N   0  0  0  0  0  0  0  0  0  0  0  0
   51.4160   22.6470   44.8380 N   0  0  0  0  0  0  0  0  0  0  0  0
   50.1360   22.4320   44.1780 C   0  0  0  0  0  0  0  0  0  0  0  0
   52.1170   23.7940   44.8380 C   0  0  0  0  0  0  0  0  0  0  0  0
   53.2360   23.6200   45.6320 C   0  0  0  0  0  0  0  0  0  0  0  0
   54.2630   24.6490   45.8910 C   0  0  0  0  0  0  0  0  0  0  0  0
   55.5510   24.4610   46.3600 C   0  0  0  0  0  0  0  0  0  0  0  0
   56.0740   25.7360   46.4150 C   0  0  0  0  0  0  0  0  0  0  0  0
   57.4780   26.0930   46.8270 C   0  0  1  0  0  0  0  0  0  0  0  0
   58.5150   25.3940   45.9590 C   0  0  0  0  0  0  0  0  0  0  0  0
   59.5310   26.4730   45.6330 C   0  0  0  0  0  0  0  0  0  0  0  0
   58.8410   27.7700   45.6930 N   0  0  0  0  0  0  0  0  0  0  0  0
   58.2940   28.1550   44.3740 C   0  0  0  0  0  0  0  0  0  0  0  0
   57.5870   29.4730   44.4660 C   0  0  0  0  0  0  0  0  0  0  0  0
   58.1300   30.7090   44.1860 C   0  0  0  0  0  0  0  0  0  0  0  0
   57.0950   31.5830   44.4330 C   0  0  0  0  0  0  0  0  0  0  0  0
   56.0480   30.8920   44.8220 O   0  0  0  0  0  0  0  0  0  0  0  0
   56.3070   29.6170   44.8540 N   0  0  0  0  0  0  0  0  0  0  0  0
   57.7670   27.5930   46.6850 C   0  0  0  0  0  0  0  0  0  0  0  0
   55.1540   26.6260   45.9950 N   0  0  0  0  0  0  0  0  0  0  0  0
   54.0520   25.9640   45.6800 N   0  0  0  0  0  0  0  0  0  0  0  0
   53.7866   21.8033   48.0618 H   0  0  0  0  0  0  0  0  0  0  0  0
   53.9920   20.5088   46.8336 H   0  0  0  0  0  0  0  0  0  0  0  0
   55.0913   21.9294   46.8336 H   0  0  0  0  0  0  0  0  0  0  0  0
   49.3501   22.3000   44.9362 H   0  0  0  0  0  0  0  0  0  0  0  0
   49.8967   23.3025   43.5496 H   0  0  0  0  0  0  0  0  0  0  0  0
   50.1942   21.5311   43.5496 H   0  0  0  0  0  0  0  0  0  0  0  0
   51.8468   24.7138   44.2986 H   0  0  0  0  0  0  0  0  0  0  0  0
   56.0436   23.5144   46.6270 H   0  0  0  0  0  0  0  0  0  0  0  0
   57.5483   25.7769   47.8783 H   0  0  0  0  0  0  0  0  0  0  0  0
   58.9889   24.5678   46.5094 H   0  0  0  0  0  0  0  0  0  0  0  0
   58.0721   24.9510   45.0548 H   0  0  0  0  0  0  0  0  0  0  0  0
   60.3501   26.4502   46.3668 H   0  0  0  0  0  0  0  0  0  0  0  0
   59.9583   26.3100   44.6326 H   0  0  0  0  0  0  0  0  0  0  0  0
   59.1178   28.2354   43.6495 H   0  0  0  0  0  0  0  0  0  0  0  0
   57.5768   27.3875   44.0474 H   0  0  0  0  0  0  0  0  0  0  0  0
   59.1497   30.9420   43.8455 H   0  0  0  0  0  0  0  0  0  0  0  0
   57.1379   32.6766   44.3230 H   0  0  0  0  0  0  0  0  0  0  0  0
   58.0862   28.0028   47.6546 H   0  0  0  0  0  0  0  0  0  0  0  0
   56.8601   28.1222   46.3572 H   0  0  0  0  0  0  0  0  0  0  0  0
  1  2  1  0
  2  3  2  0
  3  4  1  0
  4  5  1  0
  4  6  1  0
  6  7  2  0
  7  8  1  0
  8  9  1  0
  9 10  2  0
 10 11  1  0
 11 12  1  0
 12 13  1  0
 13 14  1  0
 14 15  1  0
 15 16  1  0
 16 17  1  0
 17 18  2  0
 18 19  1  0
 19 20  1  0
 14 21  1  0
 10 22  1  0
 22 23  1  0
  7  2  1  0
 23  8  2  0
 21 11  1  0
 20 16  2  0
  1 24  1  0
  1 25  1  0
  1 26  1  0
  5 27  1  0
  5 28  1  0
  5 29  1  0
  6 30  1  0
  9 31  1  0
 11 32  1  1
 12 33  1  0
 12 34  1  0
 13 35  1  0
 13 36  1  0
 15 37  1  0
 15 38  1  0
 17 39  1  0
 18 40  1  0
 21 41  1  0
 21 42  1  0
M  CHG  1  22  -1
M  END
>  <UniqueID>  (26) 
25

>  <SMILES>  (26) 
Cc1nn(C)cc1-c1cc([C@H]2CCN(Cc3ccon3)C2)[n-]n1

>  <Energy>  (26) 
136.4287828167706

>  <Genealogy>  (26) 
Cc1nn(C)cc1-c1cc(C2CCN(Cc3ccon3)C2)[n-]n1 (protonated)
Cc1nn(C)cc1-c1cc([C@H]2CCN(Cc3ccon3)C2)[n-]n1 (chirality)
Cc1nn(C)cc1-c1cc([C@H]2CCN(Cc3ccon3)C2)[n-]n1 (3D coordinates assigned)
Cc1nn(C)cc1-c1cc([C@H]2CCN(Cc3ccon3)C2)[n-]n1 (nonaromatic ring conformer: 136.4287828167706 kcal/mol)

>  <smiles>  (26) 
Cc1nn(C)cc1-c1cc(C2CCN(Cc3ccon3)C2)[nH]n1

>  <score_type>  (26) 
oracle

>  <origin>  (26) 
adg

>  <m_score__min__energy>  (26) 
-10.66

>  <m_primary>  (26) 
energy

$$$$
26:0
     RDKit          3D

 34 35  0  0  0  0  0  0  0  0999 V2000
   62.1150   34.2270   49.3760 C   0  0  0  0  0  0  0  0  0  0  0  0
   60.7600   33.7890   49.3630 O   0  0  0  0  0  0  0  0  0  0  0  0
   59.9530   33.7330   48.2160 C   0  0  0  0  0  0  0  0  0  0  0  0
   60.3080   34.3880   47.0210 C   0  0  0  0  0  0  0  0  0  0  0  0
   59.4790   34.3110   45.9010 C   0  0  0  0  0  0  0  0  0  0  0  0
   58.2870   33.5770   45.9500 C   0  0  0  0  0  0  0  0  0  0  0  0
   57.3670   33.5370   44.7560 C   0  0  0  0  0  0  0  0  0  0  0  0
   57.7580   32.4260   43.7730 C   0  0  0  0  0  0  0  0  0  0  0  0
   57.2920   31.0770   44.2450 C   0  0  0  0  0  0  0  0  0  0  0  0
   58.2060   30.0550   44.5260 C   0  0  0  0  0  0  0  0  0  0  0  0
   57.7360   28.8350   45.0070 C   0  0  0  0  0  0  0  0  0  0  0  0
   56.3660   28.6650   45.2000 C   0  0  0  0  0  0  0  0  0  0  0  0
   55.9140   27.5720   45.6330 O   0  0  0  0  0  0  0  0  0  0  0  0
   55.5180   29.6880   44.9210 N   0  0  0  0  0  0  0  0  0  0  0  0
   55.9660   30.8580   44.4620 N   0  0  0  0  0  0  0  0  0  0  0  0
   57.9260   32.9290   47.1410 C   0  0  0  0  0  0  0  0  0  0  0  0
   58.7570   33.0020   48.2760 C   0  0  0  0  0  0  0  0  0  0  0  0
   58.4250   32.3650   49.4830 O   0  0  0  0  0  0  0  0  0  0  0  0
   59.0080   31.1490   49.9410 C   0  0  0  0  0  0  0  0  0  0  0  0
   62.4549   34.3369   50.4164 H   0  0  0  0  0  0  0  0  0  0  0  0
   62.7446   33.4866   48.8608 H   0  0  0  0  0  0  0  0  0  0  0  0
   62.1921   35.1958   48.8608 H   0  0  0  0  0  0  0  0  0  0  0  0
   61.2440   34.9636   46.9701 H   0  0  0  0  0  0  0  0  0  0  0  0
   59.7635   34.8300   44.9738 H   0  0  0  0  0  0  0  0  0  0  0  0
   56.3390   33.3587   45.1044 H   0  0  0  0  0  0  0  0  0  0  0  0
   57.4450   34.5008   44.2316 H   0  0  0  0  0  0  0  0  0  0  0  0
   57.3019   32.6386   42.7949 H   0  0  0  0  0  0  0  0  0  0  0  0
   58.8553   32.4035   43.6996 H   0  0  0  0  0  0  0  0  0  0  0  0
   59.2831   30.2133   44.3688 H   0  0  0  0  0  0  0  0  0  0  0  0
   58.4364   28.0170   45.2314 H   0  0  0  0  0  0  0  0  0  0  0  0
   56.9863   32.3593   47.1888 H   0  0  0  0  0  0  0  0  0  0  0  0
   59.0139   31.1367   51.0409 H   0  0  0  0  0  0  0  0  0  0  0  0
   58.4203   30.2973   49.5679 H   0  0  0  0  0  0  0  0  0  0  0  0
   60.0401   31.0738   49.5679 H   0  0  0  0  0  0  0  0  0  0  0  0
  1  2  1  0
  2  3  1  0
  3  4  2  0
  4  5  1  0
  5  6  2  0
  6  7  1  0
  7  8  1  0
  8  9  1  0
  9 10  1  0
 10 11  2  0
 11 12  1  0
 12 13  2  0
 12 14  1  0
 14 15  1  0
  6 16  1  0
 16 17  2  0
 17 18  1  0
 18 19  1  0
 17  3  1  0
 15  9  2  0
  1 20  1  0
  1 21  1  0
  1 22  1  0
  4 23  1  0
  5 24  1  0
  7 25  1  0
  7 26  1  0
  8 27  1  0
  8 28  1  0
 10 29  1  0
 11 30  1  0
 16 31  1  0
 19 32  1  0
 19 33  1  0
 19 34  1  0
M  CHG  1  14  -1
M  END
>  <UniqueID>  (27) 
26

>  <SMILES>  (27) 
COc1ccc(CCc2ccc(=O)[n-]n2)cc1OC

>  <Energy>  (27) 
30.49037452115916

>  <Genealogy>  (27) 
COc1ccc(CCc2ccc(=O)[n-]n2)cc1OC (protonated)
COc1ccc(CCc2ccc(=O)[n-]n2)cc1OC (3D coordinates assigned)
COc1ccc(CCc2ccc(=O)[n-]n2)cc1OC (optimized conformer: 30.49037452115916 kcal/mol)

>  <smiles>  (27) 
COc1ccc(CCc2ccc(=O)[nH]n2)cc1OC

>  <score_type>  (27) 
oracle

>  <origin>  (27) 
adg

>  <m_score__min__energy>  (27) 
-8.9299999999999997

>  <m_primary>  (27) 
energy

$$$$
27:0
     RDKit          3D

 53 55  0  0  0  0  0  0  0  0999 V2000
   63.5840   33.6080   52.4620 C   0  0  0  0  0  0  0  0  0  0  0  0
   63.5200   34.2460   51.1900 O   0  0  0  0  0  0  0  0  0  0  0  0
   62.7560   33.7850   50.1050 C   0  0  0  0  0  0  0  0  0  0  0  0
   61.3490   33.7410   50.1480 C   0  0  0  0  0  0  0  0  0  0  0  0
   60.6150   33.2680   49.0520 C   0  0  0  0  0  0  0  0  0  0  0  0
   61.2920   32.8270   47.9020 C   0  0  0  0  0  0  0  0  0  0  0  0
   62.6930   32.8810   47.8510 C   0  0  0  0  0  0  0  0  0  0  0  0
   63.4300   33.3500   48.9550 C   0  0  0  0  0  0  0  0  0  0  0  0
   64.8340   33.3960   48.9450 O   0  0  0  0  0  0  0  0  0  0  0  0
   65.6720   32.5730   49.7520 C   0  0  0  0  0  0  0  0  0  0  0  0
   60.5160   32.3290   46.7070 C   0  0  0  0  0  0  0  0  0  0  0  0
   59.2220   31.7250   47.0990 N   0  0  1  0  0  0  0  0  0  0  0  0
   59.3210   30.4670   47.8320 C   0  0  0  0  0  0  0  0  0  0  0  0
   59.6320   30.4890   49.0550 O   0  0  0  0  0  0  0  0  0  0  0  0
   59.0660   29.1460   47.2140 C   0  0  0  0  0  0  0  0  0  0  0  0
   59.0280   27.9960   48.0150 C   0  0  0  0  0  0  0  0  0  0  0  0
   58.8530   26.7400   47.4300 C   0  0  0  0  0  0  0  0  0  0  0  0
   58.7110   26.6250   46.0440 C   0  0  0  0  0  0  0  0  0  0  0  0
   58.7080   27.7710   45.2360 C   0  0  0  0  0  0  0  0  0  0  0  0
   58.6430   27.6490   43.7400 C   0  0  0  0  0  0  0  0  0  0  0  0
   57.3680   28.2000   43.2630 N   0  0  0  0  0  0  0  0  0  0  0  0
   57.3540   29.6650   43.3450 C   0  0  0  0  0  0  0  0  0  0  0  0
   56.4860   30.1170   44.4780 C   0  0  0  0  0  0  0  0  0  0  0  0
   55.3310   29.3590   44.8380 N   0  0  0  0  0  0  0  0  0  0  0  0
   56.7830   31.1570   45.1250 O   0  0  0  0  0  0  0  0  0  0  0  0
   58.8810   29.0330   45.8290 C   0  0  0  0  0  0  0  0  0  0  0  0
   58.4320   32.7200   47.8580 C   0  0  0  0  0  0  0  0  0  0  0  0
   59.1160   33.1270   49.1780 C   0  0  0  0  0  0  0  0  0  0  0  0
   63.5080   34.3652   53.2562 H   0  0  0  0  0  0  0  0  0  0  0  0
   62.7530   32.8934   52.5560 H   0  0  0  0  0  0  0  0  0  0  0  0
   64.5404   33.0727   52.5560 H   0  0  0  0  0  0  0  0  0  0  0  0
   60.8209   34.0813   51.0510 H   0  0  0  0  0  0  0  0  0  0  0  0
   63.2193   32.5546   46.9419 H   0  0  0  0  0  0  0  0  0  0  0  0
   65.4686   32.7728   50.8144 H   0  0  0  0  0  0  0  0  0  0  0  0
   65.4678   31.5147   49.5323 H   0  0  0  0  0  0  0  0  0  0  0  0
   66.7264   32.7963   49.5323 H   0  0  0  0  0  0  0  0  0  0  0  0
   60.3229   33.1751   46.0311 H   0  0  0  0  0  0  0  0  0  0  0  0
   61.1170   31.5528   46.2107 H   0  0  0  0  0  0  0  0  0  0  0  0
   58.7030   31.5190   46.2150 H   0  0  0  0  0  0  0  0  0  0  0  0
   59.1362   28.0831   49.1062 H   0  0  0  0  0  0  0  0  0  0  0  0
   58.8268   25.8394   48.0611 H   0  0  0  0  0  0  0  0  0  0  0  0
   58.6011   25.6312   45.5853 H   0  0  0  0  0  0  0  0  0  0  0  0
   59.4764   28.2078   43.2892 H   0  0  0  0  0  0  0  0  0  0  0  0
   58.7169   26.5896   43.4531 H   0  0  0  0  0  0  0  0  0  0  0  0
   56.6110   27.8410   43.8920 H   0  0  0  0  0  0  0  0  0  0  0  0
   58.3795   30.0286   43.5069 H   0  0  0  0  0  0  0  0  0  0  0  0
   56.9526   30.0708   42.4047 H   0  0  0  0  0  0  0  0  0  0  0  0
   55.1960   28.3850   44.4850 H   0  0  0  0  0  0  0  0  0  0  0  0
   58.8712   29.9374   45.2030 H   0  0  0  0  0  0  0  0  0  0  0  0
   58.3021   33.6176   47.2356 H   0  0  0  0  0  0  0  0  0  0  0  0
   57.4642   32.2609   48.1083 H   0  0  0  0  0  0  0  0  0  0  0  0
   58.7002   34.0917   49.5044 H   0  0  0  0  0  0  0  0  0  0  0  0
   58.9228   32.3263   49.9071 H   0  0  0  0  0  0  0  0  0  0  0  0
  1  2  1  0
  2  3  1  0
  3  4  2  0
  4  5  1  0
  5  6  2  0
  6  7  1  0
  7  8  2  0
  8  9  1  0
  9 10  1  0
  6 11  1  0
 11 12  1  0
 12 13  1  0
 13 14  2  0
 13 15  1  0
 15 16  2  0
 16 17  1  0
 17 18  2  0
 18 19  1  0
 19 20  1  0
 20 21  1  0
 21 22  1  0
 22 23  1  0
 23 24  1  0
 23 25  2  0
 19 26  2  0
 12 27  1  0
 27 28  1  0
  8  3  1  0
 26 15  1  0
 28  5  1  0
  1 29  1  0
  1 30  1  0
  1 31  1  0
  4 32  1  0
  7 33  1  0
 10 34  1  0
 10 35  1  0
 10 36  1  0
 11 37  1  0
 11 38  1  0
 12 39  1  6
 16 40  1  0
 17 41  1  0
 18 42  1  0
 20 43  1  0
 20 44  1  0
 21 45  1  0
 22 46  1  0
 22 47  1  0
 24 48  1  0
 26 49  1  0
 27 50  1  0
 27 51  1  0
 28 52  1  0
 28 53  1  0
M  CHG  2  12   1  24  -1
M  END
>  <UniqueID>  (28) 
27

>  <SMILES>  (28) 
COc1cc2c(cc1OC)C[N@@H+](C(=O)c1cccc(CNCC([NH-])=O)c1)CC2

>  <Energy>  (28) 
63.83588595530635

>  <Genealogy>  (28) 
COc1cc2c(cc1OC)C[NH+](C(=O)c1cccc(CNCC([NH-])=O)c1)CC2 (protonated)
COc1cc2c(cc1OC)C[N@@H+](C(=O)c1cccc(CNCC([NH-])=O)c1)CC2 (chirality)
COc1cc2c(cc1OC)C[N@@H+](C(=O)c1cccc(CNCC([NH-])=O)c1)CC2 (3D coordinates assigned)
COc1cc2c(cc1OC)C[N@@H+](C(=O)c1cccc(CNCC([NH-])=O)c1)CC2 (nonaromatic ring conformer: 63.83588595530635 kcal/mol)

>  <smiles>  (28) 
COc1cc2c(cc1OC)CN(C(=O)c1cccc(CNCC(N)=O)c1)CC2

>  <score_type>  (28) 
oracle

>  <origin>  (28) 
adg

>  <m_score__min__energy>  (28) 
-9.8000000000000007

>  <m_primary>  (28) 
energy

$$$$
28:0
     RDKit          3D

 27 29  0  0  0  0  0  0  0  0999 V2000
   55.1430   26.7440   46.0260 O   0  0  0  0  0  0  0  0  0  0  0  0
   55.7760   25.5560   45.6320 C   0  0  0  0  0  0  0  0  0  0  0  0
   57.2880   25.7570   45.5480 C   0  0  0  0  0  0  0  0  0  0  0  0
   57.7620   26.4260   43.9180 S   0  0  0  0  0  0  0  0  0  0  0  0
   57.7910   28.1180   44.4950 C   0  0  0  0  0  0  0  0  0  0  0  0
   56.6460   28.8770   44.4520 N   0  0  0  0  0  0  0  0  0  0  0  0
   56.6310   30.1480   44.8740 N   0  0  0  0  0  0  0  0  0  0  0  0
   57.7810   30.6730   45.3500 C   0  0  0  0  0  0  0  0  0  0  0  0
   58.9260   29.9370   45.4020 C   0  0  0  0  0  0  0  0  0  0  0  0
   58.9530   28.6520   44.9790 N   0  0  0  0  0  0  0  0  0  0  0  0
   59.9570   30.6460   45.9080 N   0  0  0  0  0  0  0  0  0  0  0  0
   59.4200   31.8620   46.1750 C   0  0  0  0  0  0  0  0  0  0  0  0
   60.0710   32.9700   46.7160 C   0  0  0  0  0  0  0  0  0  0  0  0
   59.3210   34.1460   46.9130 C   0  0  0  0  0  0  0  0  0  0  0  0
   57.9500   34.1910   46.5710 C   0  0  0  0  0  0  0  0  0  0  0  0
   57.3090   33.0620   46.0260 C   0  0  0  0  0  0  0  0  0  0  0  0
   58.0770   31.9160   45.8430 C   0  0  0  0  0  0  0  0  0  0  0  0
   55.2290   27.3810   45.2700 H   0  0  0  0  0  0  0  0  0  0  0  0
   55.5560   24.7678   46.3671 H   0  0  0  0  0  0  0  0  0  0  0  0
   55.4004   25.2653   44.6398 H   0  0  0  0  0  0  0  0  0  0  0  0
   57.6025   26.4612   46.3323 H   0  0  0  0  0  0  0  0  0  0  0  0
   57.7817   24.7839   45.6873 H   0  0  0  0  0  0  0  0  0  0  0  0
   60.9410   30.3280   46.0590 H   0  0  0  0  0  0  0  0  0  0  0  0
   61.1378   32.9271   46.9809 H   0  0  0  0  0  0  0  0  0  0  0  0
   59.8065   35.0374   47.3368 H   0  0  0  0  0  0  0  0  0  0  0  0
   57.3785   35.1170   46.7322 H   0  0  0  0  0  0  0  0  0  0  0  0
   56.2430   33.0849   45.7555 H   0  0  0  0  0  0  0  0  0  0  0  0
  1  2  1  0
  2  3  1  0
  3  4  1  0
  4  5  1  0
  5  6  2  0
  6  7  1  0
  7  8  2  0
  8  9  1  0
  9 10  2  0
  9 11  1  0
 11 12  1  0
 12 13  2  0
 13 14  1  0
 14 15  2  0
 15 16  1  0
 16 17  2  0
 10  5  1  0
 17 12  1  0
 17  8  1  0
  1 18  1  0
  2 19  1  0
  2 20  1  0
  3 21  1  0
  3 22  1  0
 11 23  1  0
 13 24  1  0
 14 25  1  0
 15 26  1  0
 16 27  1  0
M  END
>  <UniqueID>  (29) 
28

>  <SMILES>  (29) 
OCCSc1nnc2c(n1)[nH]c1ccccc12

>  <Energy>  (29) 
70.43106547656643

>  <Genealogy>  (29) 
OCCSc1nnc2c(n1)[nH]c1ccccc12 (3D coordinates assigned)
OCCSc1nnc2c(n1)[nH]c1ccccc12 (optimized conformer: 70.43106547656643 kcal/mol)

>  <smiles>  (29) 
OCCSc1nnc2c(n1)[nH]c1ccccc12

>  <score_type>  (29) 
oracle

>  <origin>  (29) 
adg

>  <m_score__min__energy>  (29) 
-6.9299999999999997

>  <m_primary>  (29) 
energy

$$$$
29:0
     RDKit          3D

 43 46  0  0  0  0  0  0  0  0999 V2000
   56.6400   28.8580   42.8560 O   0  0  0  0  0  0  0  0  0  0  0  0
   57.5820   28.2900   43.4470 N   0  0  0  0  0  0  0  0  0  0  0  0
   57.9740   27.0410   43.0210 O   0  0  0  0  0  0  0  0  0  0  0  0
   58.2470   28.9270   44.5530 C   0  0  0  0  0  0  0  0  0  0  0  0
   59.6510   28.9780   44.6150 C   0  0  0  0  0  0  0  0  0  0  0  0
   60.2940   29.6020   45.6880 C   0  0  0  0  0  0  0  0  0  0  0  0
   59.5480   30.1780   46.7290 C   0  0  0  0  0  0  0  0  0  0  0  0
   60.2570   30.9020   47.8560 C   0  0  1  0  0  0  0  0  0  0  0  0
   61.5580   31.5640   47.3380 C   0  0  0  0  0  0  0  0  0  0  0  0
   61.7950   32.9650   47.8900 C   0  0  0  0  0  0  0  0  0  0  0  0
   62.8000   33.2000   48.9520 C   0  0  0  0  0  0  0  0  0  0  0  0
   62.5060   33.9980   50.0740 C   0  0  0  0  0  0  0  0  0  0  0  0
   63.4630   34.1910   51.0760 C   0  0  0  0  0  0  0  0  0  0  0  0
   64.7260   33.5960   50.9670 C   0  0  0  0  0  0  0  0  0  0  0  0
   65.6860   33.7800   51.9600 O   0  0  0  0  0  0  0  0  0  0  0  0
   65.0300   32.8140   49.8490 C   0  0  0  0  0  0  0  0  0  0  0  0
   64.0770   32.6220   48.8450 C   0  0  0  0  0  0  0  0  0  0  0  0
   61.1240   33.9870   47.4310 N   0  0  0  0  0  0  0  0  0  0  0  0
   59.8650   33.8910   46.7460 C   0  0  0  0  0  0  0  0  0  0  0  0
   59.6760   34.5930   45.5490 C   0  0  0  0  0  0  0  0  0  0  0  0
   58.4260   34.5900   44.9230 C   0  0  0  0  0  0  0  0  0  0  0  0
   57.3620   33.8770   45.4860 C   0  0  0  0  0  0  0  0  0  0  0  0
   57.5520   33.1470   46.6630 C   0  0  0  0  0  0  0  0  0  0  0  0
   58.8060   33.1350   47.2850 C   0  0  0  0  0  0  0  0  0  0  0  0
   59.0910   32.0550   48.6930 S   0  0  0  0  0  0  0  0  0  0  0  0
   58.1440   30.1360   46.6620 C   0  0  0  0  0  0  0  0  0  0  0  0
   57.5020   29.5150   45.5880 C   0  0  0  0  0  0  0  0  0  0  0  0
   60.2488   28.5226   43.8117 H   0  0  0  0  0  0  0  0  0  0  0  0
   61.3929   29.6421   45.7171 H   0  0  0  0  0  0  0  0  0  0  0  0
   60.5805   30.1886   48.6282 H   0  0  0  0  0  0  0  0  0  0  0  0
   62.4089   30.9290   47.6255 H   0  0  0  0  0  0  0  0  0  0  0  0
   61.4565   31.6615   46.2470 H   0  0  0  0  0  0  0  0  0  0  0  0
   61.5177   34.4727   50.1633 H   0  0  0  0  0  0  0  0  0  0  0  0
   63.2228   34.8117   51.9518 H   0  0  0  0  0  0  0  0  0  0  0  0
   65.9330   34.7050   52.2920 H   0  0  0  0  0  0  0  0  0  0  0  0
   66.0225   32.3483   49.7592 H   0  0  0  0  0  0  0  0  0  0  0  0
   64.3282   32.0136   47.9637 H   0  0  0  0  0  0  0  0  0  0  0  0
   60.5130   35.1480   45.1003 H   0  0  0  0  0  0  0  0  0  0  0  0
   58.2789   35.1487   43.9870 H   0  0  0  0  0  0  0  0  0  0  0  0
   56.3744   33.8908   45.0018 H   0  0  0  0  0  0  0  0  0  0  0  0
   56.7158   32.5818   47.1005 H   0  0  0  0  0  0  0  0  0  0  0  0
   57.5460   30.5962   47.4624 H   0  0  0  0  0  0  0  0  0  0  0  0
   56.4029   29.4863   45.5527 H   0  0  0  0  0  0  0  0  0  0  0  0
  1  2  2  0
  2  3  1  0
  2  4  1  0
  4  5  2  0
  5  6  1  0
  6  7  2  0
  7  8  1  0
  8  9  1  0
  9 10  1  0
 10 11  1  0
 11 12  2  0
 12 13  1  0
 13 14  2  0
 14 15  1  0
 14 16  1  0
 16 17  2  0
 10 18  2  0
 18 19  1  0
 19 20  2  0
 20 21  1  0
 21 22  2  0
 22 23  1  0
 23 24  2  0
 24 25  1  0
  7 26  1  0
 26 27  2  0
 27  4  1  0
 25  8  1  0
 17 11  1  0
 24 19  1  0
  5 28  1  0
  6 29  1  0
  8 30  1  1
  9 31  1  0
  9 32  1  0
 12 33  1  0
 13 34  1  0
 15 35  1  0
 16 36  1  0
 17 37  1  0
 20 38  1  0
 21 39  1  0
 22 40  1  0
 23 41  1  0
 26 42  1  0
 27 43  1  0
M  CHG  2   2   1   3  -1
M  END
>  <UniqueID>  (30) 
29

>  <SMILES>  (30) 
O=[N+]([O-])c1ccc([C@H]2CC(c3ccc(O)cc3)=Nc3ccccc3S2)cc1

>  <Energy>  (30) 
62.85773874092541

>  <Genealogy>  (30) 
O=[N+]([O-])c1ccc([C@H]2CC(c3ccc(O)cc3)=Nc3ccccc3S2)cc1 (chirality)
O=[N+]([O-])c1ccc([C@H]2CC(c3ccc(O)cc3)=Nc3ccccc3S2)cc1 (3D coordinates assigned)
O=[N+]([O-])c1ccc([C@H]2CC(c3ccc(O)cc3)=Nc3ccccc3S2)cc1 (nonaromatic ring conformer: 62.85773874092541 kcal/mol)

>  <smiles>  (30) 
O=[N+]([O-])c1ccc(C2CC(c3ccc(O)cc3)=Nc3ccccc3S2)cc1

>  <score_type>  (30) 
oracle

>  <origin>  (30) 
adg

>  <m_score__min__energy>  (30) 
-6.1699999999999999

>  <m_primary>  (30) 
energy

$$$$
30:0
     RDKit          3D

 38 41  0  0  0  0  0  0  0  0999 V2000
   56.8474   20.8520   42.0912 H   0  0  0  0  0  0  0  0  0  0  0  0
   56.9380   21.5180   42.9620 C   0  0  0  0  0  0  0  0  0  0  0  0
   56.2460   22.7320   42.9880 C   0  0  0  0  0  0  0  0  0  0  0  0
   55.6085   23.0191   42.1388 H   0  0  0  0  0  0  0  0  0  0  0  0
   56.3630   23.5820   44.0920 C   0  0  0  0  0  0  0  0  0  0  0  0
   55.8109   24.5332   44.1125 H   0  0  0  0  0  0  0  0  0  0  0  0
   57.1840   23.2250   45.1760 C   0  0  0  0  0  0  0  0  0  0  0  0
   57.2800   24.1190   46.3800 C   0  0  0  0  0  0  0  0  0  0  0  0
   58.2719   24.0026   46.8411 H   0  0  0  0  0  0  0  0  0  0  0  0
   56.4967   23.8382   47.0994 H   0  0  0  0  0  0  0  0  0  0  0  0
   57.0860   25.5460   45.9790 C   0  0  0  0  0  0  0  0  0  0  0  0
   58.2200   26.4900   45.1640 S   0  0  0  0  0  0  0  0  0  0  0  0
   57.1730   27.8120   45.0560 C   0  0  0  0  0  0  0  0  0  0  0  0
   57.4310   28.9470   44.4740 N   0  0  0  0  0  0  0  0  0  0  0  0
   56.6930   30.1590   44.6680 C   0  0  0  0  0  0  0  0  0  0  0  0
   55.4360   30.1240   44.6070 O   0  0  0  0  0  0  0  0  0  0  0  0
   57.3680   31.4250   45.0100 C   0  0  0  0  0  0  0  0  0  0  0  0
   57.8010   32.6370   43.9060 S   0  0  0  0  0  0  0  0  0  0  0  0
   58.5230   33.6290   45.0520 C   0  0  0  0  0  0  0  0  0  0  0  0
   59.1290   34.8680   44.8630 C   0  0  0  0  0  0  0  0  0  0  0  0
   59.1786   35.3265   43.8643 H   0  0  0  0  0  0  0  0  0  0  0  0
   59.6750   35.5160   45.9820 C   0  0  0  0  0  0  0  0  0  0  0  0
   60.1608   36.4958   45.8640 H   0  0  0  0  0  0  0  0  0  0  0  0
   59.6040   34.9180   47.2550 C   0  0  0  0  0  0  0  0  0  0  0  0
   60.0333   35.4347   48.1260 H   0  0  0  0  0  0  0  0  0  0  0  0
   58.9880   33.6650   47.4200 C   0  0  0  0  0  0  0  0  0  0  0  0
   58.9331   33.1947   48.4129 H   0  0  0  0  0  0  0  0  0  0  0  0
   58.4470   33.0280   46.3010 C   0  0  0  0  0  0  0  0  0  0  0  0
   57.8050   31.7850   46.2870 C   0  0  0  0  0  0  0  0  0  0  0  0
   57.6605   31.1611   47.1814 H   0  0  0  0  0  0  0  0  0  0  0  0
   55.9690   27.5360   45.6030 N   0  0  0  0  0  0  0  0  0  0  0  0
   55.1680   28.2040   45.6220 H   0  0  0  0  0  0  0  0  0  0  0  0
   55.9100   26.2780   46.1150 C   0  0  0  0  0  0  0  0  0  0  0  0
   55.0080   25.8724   46.5966 H   0  0  0  0  0  0  0  0  0  0  0  0
   57.8650   21.9960   45.1490 C   0  0  0  0  0  0  0  0  0  0  0  0
   58.4941   21.6987   46.0009 H   0  0  0  0  0  0  0  0  0  0  0  0
   57.7450   21.1500   44.0420 C   0  0  0  0  0  0  0  0  0  0  0  0
   58.2869   20.1930   44.0213 H   0  0  0  0  0  0  0  0  0  0  0  0
  1  2  1  0
  2  3  2  0
  3  4  1  0
  3  5  1  0
  5  6  1  0
  5  7  2  0
  7  8  1  0
  8  9  1  0
  8 10  1  0
  8 11  1  0
 11 12  1  0
 12 13  1  0
 13 14  2  0
 14 15  1  0
 15 16  2  0
 15 17  1  0
 17 18  1  0
 18 19  1  0
 19 20  2  0
 20 21  1  0
 20 22  1  0
 22 23  1  0
 22 24  2  0
 24 25  1  0
 24 26  1  0
 26 27  1  0
 26 28  2  0
 28 29  1  0
 29 30  1  0
 13 31  1  0
 31 32  1  0
 31 33  1  0
 33 34  1  0
  7 35  1  0
 35 36  1  0
 35 37  2  0
 37 38  1  0
 37  2  1  0
 33 11  2  0
 29 17  2  0
 28 19  1  0
M  END
>  <UniqueID>  (31) 
30

>  <SMILES>  (31) 
O=C(/N=c1/[nH]cc(Cc2ccccc2)s1)c1cc2ccccc2s1

>  <Energy>  (31) 
108.41023219199326

>  <Genealogy>  (31) 
O=C(/N=c1/[nH]cc(Cc2ccccc2)s1)c1cc2ccccc2s1 (cis-trans isomerization)
O=C(/N=c1/[nH]cc(Cc2ccccc2)s1)c1cc2ccccc2s1 (3D coordinates assigned)
O=C(/N=c1/[nH]cc(Cc2ccccc2)s1)c1cc2ccccc2s1 (optimized conformer: 108.41023219199326 kcal/mol)

>  <smiles>  (31) 
O=C(N=c1[nH]cc(Cc2ccccc2)s1)c1cc2ccccc2s1

>  <score_type>  (31) 
oracle

>  <origin>  (31) 
adg

>  <m_score__min__energy>  (31) 
-9

>  <m_primary>  (31) 
energy

$$$$
31:0
     RDKit          3D

 52 55  0  0  0  0  0  0  0  0999 V2000
   57.3040   22.1310   46.3280 C   0  0  0  0  0  0  0  0  0  0  0  0
   58.2970   22.6590   45.2810 C   0  0  0  0  0  0  0  0  0  0  0  0
   57.7880   22.3300   43.8730 C   0  0  0  0  0  0  0  0  0  0  0  0
   59.5560   22.0530   45.4530 O   0  0  0  0  0  0  0  0  0  0  0  0
   58.4250   24.1230   45.4080 C   0  0  0  0  0  0  0  0  0  0  0  0
   58.5270   25.3190   45.5000 C   0  0  0  0  0  0  0  0  0  0  0  0
   58.6350   26.7490   45.6100 C   0  0  0  0  0  0  0  0  0  0  0  0
   59.8350   27.3330   46.0170 C   0  0  0  0  0  0  0  0  0  0  0  0
   59.9230   28.7180   46.1680 C   0  0  0  0  0  0  0  0  0  0  0  0
   58.8120   29.5500   45.9080 C   0  0  0  0  0  0  0  0  0  0  0  0
   57.6490   28.9530   45.3650 C   0  0  0  0  0  0  0  0  0  0  0  0
   57.5480   27.5590   45.2840 C   0  0  0  0  0  0  0  0  0  0  0  0
   56.5990   29.7030   44.8440 O   0  0  0  0  0  0  0  0  0  0  0  0
   56.8360   30.7990   43.9770 C   0  0  0  0  0  0  0  0  0  0  0  0
   56.9950   32.0750   44.7750 C   0  0  0  0  0  0  0  0  0  0  0  0
   58.1300   32.0680   45.7530 C   0  0  0  0  0  0  0  0  0  0  0  0
   58.5880   33.4890   46.5350 S   0  0  0  0  0  0  0  0  0  0  0  0
   59.7280   32.8000   47.5420 C   0  0  0  0  0  0  0  0  0  0  0  0
   60.4490   33.4930   48.6200 C   0  0  0  0  0  0  0  0  0  0  0  0
   59.9360   33.4630   49.7730 O   0  0  0  0  0  0  0  0  0  0  0  0
   61.7680   34.0800   48.4480 N   0  0  0  0  0  0  0  0  0  0  0  0
   62.4120   33.7900   47.1430 C   0  0  0  0  0  0  0  0  0  0  0  0
   63.1380   32.4300   47.1260 C   0  0  0  0  0  0  0  0  0  0  0  0
   64.0450   32.3240   48.2050 O   0  0  0  0  0  0  0  0  0  0  0  0
   63.3330   32.3890   49.4220 C   0  0  0  0  0  0  0  0  0  0  0  0
   62.6540   33.7570   49.5840 C   0  0  0  0  0  0  0  0  0  0  0  0
   59.7420   31.4340   47.3230 C   0  0  0  0  0  0  0  0  0  0  0  0
   58.8830   30.9980   46.2890 C   0  0  0  0  0  0  0  0  0  0  0  0
   57.6910   22.3368   47.3369 H   0  0  0  0  0  0  0  0  0  0  0  0
   56.3334   22.6321   46.1983 H   0  0  0  0  0  0  0  0  0  0  0  0
   57.1767   21.0461   46.1983 H   0  0  0  0  0  0  0  0  0  0  0  0
   56.8662   21.7342   43.9463 H   0  0  0  0  0  0  0  0  0  0  0  0
   57.5787   23.2641   43.3312 H   0  0  0  0  0  0  0  0  0  0  0  0
   58.5538   21.7556   43.3312 H   0  0  0  0  0  0  0  0  0  0  0  0
   59.4750   21.0960   45.1940 H   0  0  0  0  0  0  0  0  0  0  0  0
   60.7126   26.7014   46.2191 H   0  0  0  0  0  0  0  0  0  0  0  0
   60.8721   29.1681   46.4945 H   0  0  0  0  0  0  0  0  0  0  0  0
   56.6028   27.0987   44.9603 H   0  0  0  0  0  0  0  0  0  0  0  0
   57.7549   30.6142   43.4013 H   0  0  0  0  0  0  0  0  0  0  0  0
   55.9796   30.9077   43.2952 H   0  0  0  0  0  0  0  0  0  0  0  0
   57.1574   32.9023   44.0685 H   0  0  0  0  0  0  0  0  0  0  0  0
   56.0756   32.1850   45.3689 H   0  0  0  0  0  0  0  0  0  0  0  0
   61.6160   35.1190   48.4760 H   0  0  0  0  0  0  0  0  0  0  0  0
   61.6375   33.7851   46.3619 H   0  0  0  0  0  0  0  0  0  0  0  0
   63.1658   34.5709   46.9641 H   0  0  0  0  0  0  0  0  0  0  0  0
   62.3932   31.6241   47.2022 H   0  0  0  0  0  0  0  0  0  0  0  0
   63.7025   32.3469   46.1855 H   0  0  0  0  0  0  0  0  0  0  0  0
   62.5650   31.6016   49.4330 H   0  0  0  0  0  0  0  0  0  0  0  0
   64.0401   32.2457   50.2524 H   0  0  0  0  0  0  0  0  0  0  0  0
   62.0565   33.7483   50.5075 H   0  0  0  0  0  0  0  0  0  0  0  0
   63.4432   34.5222   49.6238 H   0  0  0  0  0  0  0  0  0  0  0  0
   60.3700   30.7441   47.9057 H   0  0  0  0  0  0  0  0  0  0  0  0
  1  2  1  0
  2  3  1  0
  2  4  1  0
  2  5  1  0
  5  6  3  0
  6  7  1  0
  7  8  2  0
  8  9  1  0
  9 10  2  0
 10 11  1  0
 11 12  2  0
 11 13  1  0
 13 14  1  0
 14 15  1  0
 15 16  1  0
 16 17  1  0
 17 18  1  0
 18 19  1  0
 19 20  2  0
 19 21  1  0
 21 22  1  0
 22 23  1  0
 23 24  1  0
 24 25  1  0
 25 26  1  0
 18 27  2  0
 27 28  1  0
 12  7  1  0
 28 16  2  0
 28 10  1  0
 26 21  1  0
  1 29  1  0
  1 30  1  0
  1 31  1  0
  3 32  1  0
  3 33  1  0
  3 34  1  0
  4 35  1  0
  8 36  1  0
  9 37  1  0
 12 38  1  0
 14 39  1  0
 14 40  1  0
 15 41  1  0
 15 42  1  0
 21 43  1  0
 22 44  1  0
 22 45  1  0
 23 46  1  0
 23 47  1  0
 25 48  1  0
 25 49  1  0
 26 50  1  0
 26 51  1  0
 27 52  1  0
M  CHG  1  21   1
M  END
>  <UniqueID>  (32) 
31

>  <SMILES>  (32) 
CC(C)(O)C#Cc1ccc2c(c1)OCCc1sc(C(=O)[NH+]3CCOCC3)cc1-2

>  <Energy>  (32) 
104.1112623922808

>  <Genealogy>  (32) 
CC(C)(O)C#Cc1ccc2c(c1)OCCc1sc(C(=O)[NH+]3CCOCC3)cc1-2 (protonated)
CC(C)(O)C#Cc1ccc2c(c1)OCCc1sc(C(=O)[NH+]3CCOCC3)cc1-2 (3D coordinates assigned)
CC(C)(O)C#Cc1ccc2c(c1)OCCc1sc(C(=O)[NH+]3CCOCC3)cc1-2 (nonaromatic ring conformer: 104.1112623922808 kcal/mol)

>  <smiles>  (32) 
CC(C)(O)C#Cc1ccc2c(c1)OCCc1sc(C(=O)N3CCOCC3)cc1-2

>  <score_type>  (32) 
oracle

>  <origin>  (32) 
adg

>  <m_score__min__energy>  (32) 
-6.1100000000000003

>  <m_primary>  (32) 
energy

$$$$
32:0
     RDKit          3D

 24 24  0  0  0  0  0  0  0  0999 V2000
   57.3850   32.3680   40.7380 C   0  0  0  0  0  0  0  0  0  0  0  0
   57.9070   31.9810   42.1200 C   0  0  0  0  0  0  0  0  0  0  0  0
   57.0150   30.9520   42.8360 C   0  0  0  0  0  0  0  0  0  0  0  0
   57.5000   30.6060   44.2490 C   0  0  0  0  0  0  0  0  0  0  0  0
   57.0110   31.5630   45.1840 O   0  0  0  0  0  0  0  0  0  0  0  0
   57.7680   32.6240   45.7010 C   0  0  0  0  0  0  0  0  0  0  0  0
   58.1930   33.6310   44.8290 C   0  0  0  0  0  0  0  0  0  0  0  0
   58.9490   34.7020   45.3090 C   0  0  0  0  0  0  0  0  0  0  0  0
   59.2740   34.7560   46.6650 C   0  0  0  0  0  0  0  0  0  0  0  0
   58.8560   33.7710   47.5050 N   0  0  0  0  0  0  0  0  0  0  0  0
   58.1180   32.7170   47.0610 C   0  0  0  0  0  0  0  0  0  0  0  0
   56.5057   33.0199   40.8475 H   0  0  0  0  0  0  0  0  0  0  0  0
   58.1715   32.9029   40.1855 H   0  0  0  0  0  0  0  0  0  0  0  0
   57.1017   31.4600   40.1855 H   0  0  0  0  0  0  0  0  0  0  0  0
   58.9138   31.5527   42.0066 H   0  0  0  0  0  0  0  0  0  0  0  0
   57.9141   32.8930   42.7350 H   0  0  0  0  0  0  0  0  0  0  0  0
   55.9969   31.3624   42.9073 H   0  0  0  0  0  0  0  0  0  0  0  0
   57.0485   30.0251   42.2446 H   0  0  0  0  0  0  0  0  0  0  0  0
   57.1319   29.6069   44.5252 H   0  0  0  0  0  0  0  0  0  0  0  0
   58.5998   30.6180   44.2644 H   0  0  0  0  0  0  0  0  0  0  0  0
   57.9310   33.5792   43.7619 H   0  0  0  0  0  0  0  0  0  0  0  0
   59.2851   35.4953   44.6252 H   0  0  0  0  0  0  0  0  0  0  0  0
   59.8685   35.5954   47.0548 H   0  0  0  0  0  0  0  0  0  0  0  0
   57.7947   31.9369   47.7660 H   0  0  0  0  0  0  0  0  0  0  0  0
  1  2  1  0
  2  3  1  0
  3  4  1  0
  4  5  1  0
  5  6  1  0
  6  7  2  0
  7  8  1  0
  8  9  2  0
  9 10  1  0
 10 11  2  0
 11  6  1  0
  1 12  1  0
  1 13  1  0
  1 14  1  0
  2 15  1  0
  2 16  1  0
  3 17  1  0
  3 18  1  0
  4 19  1  0
  4 20  1  0
  7 21  1  0
  8 22  1  0
  9 23  1  0
 11 24  1  0
M  END
>  <UniqueID>  (33) 
32

>  <SMILES>  (33) 
CCCCOc1cccnc1

>  <Energy>  (33) 
16.863102106117996

>  <Genealogy>  (33) 
CCCCOc1cccnc1 (3D coordinates assigned)
CCCCOc1cccnc1 (optimized conformer: 16.863102106117996 kcal/mol)

>  <smiles>  (33) 
CCCCOc1cccnc1

>  <score_type>  (33) 
oracle

>  <origin>  (33) 
adg

>  <m_score__min__energy>  (33) 
-4.4400000000000004

>  <m_primary>  (33) 
energy

$$$$
33:0
     RDKit          3D

 24 27  0  0  0  0  0  0  0  0999 V2000
   60.8800   30.3400   46.7060 O   0  0  0  0  0  0  0  0  0  0  0  0
   59.7060   30.4200   46.2550 C   0  0  0  0  0  0  0  0  0  0  0  0
   59.1070   31.7520   45.8770 C   0  0  0  0  0  0  0  0  0  0  0  0
   59.8370   32.9440   46.0150 C   0  0  0  0  0  0  0  0  0  0  0  0
   59.2610   34.1690   45.6580 C   0  0  0  0  0  0  0  0  0  0  0  0
   59.9740   35.3140   45.7940 F   0  0  0  0  0  0  0  0  0  0  0  0
   57.9540   34.2180   45.1600 C   0  0  0  0  0  0  0  0  0  0  0  0
   57.2090   33.0440   45.0140 C   0  0  0  0  0  0  0  0  0  0  0  0
   57.7750   31.8140   45.3690 C   0  0  0  0  0  0  0  0  0  0  0  0
   57.0380   30.5450   45.2360 C   0  0  0  0  0  0  0  0  0  0  0  0
   55.7840   30.2900   44.7940 N   0  0  0  0  0  0  0  0  0  0  0  0
   55.5840   28.9670   44.8700 N   0  0  0  0  0  0  0  0  0  0  0  0
   56.7150   28.4130   45.3590 C   0  0  0  0  0  0  0  0  0  0  0  0
   57.0290   27.0810   45.6310 C   0  0  0  0  0  0  0  0  0  0  0  0
   58.3230   26.8120   46.1480 C   0  0  0  0  0  0  0  0  0  0  0  0
   59.2540   27.8680   46.3770 C   0  0  0  0  0  0  0  0  0  0  0  0
   58.8810   29.1980   46.0840 C   0  0  0  0  0  0  0  0  0  0  0  0
   57.6150   29.3840   45.5870 C   0  0  0  0  0  0  0  0  0  0  0  0
   60.8651   32.9149   46.4050 H   0  0  0  0  0  0  0  0  0  0  0  0
   57.5105   35.1855   44.8819 H   0  0  0  0  0  0  0  0  0  0  0  0
   56.1822   33.0867   44.6217 H   0  0  0  0  0  0  0  0  0  0  0  0
   56.3040   26.2733   45.4522 H   0  0  0  0  0  0  0  0  0  0  0  0
   58.6118   25.7752   46.3752 H   0  0  0  0  0  0  0  0  0  0  0  0
   60.2542   27.6482   46.7785 H   0  0  0  0  0  0  0  0  0  0  0  0
  1  2  2  0
  2  3  1  0
  3  4  2  0
  4  5  1  0
  5  6  1  0
  5  7  2  0
  7  8  1  0
  8  9  2  0
  9 10  1  0
 10 11  2  0
 11 12  1  0
 12 13  1  0
 13 14  1  0
 14 15  2  0
 15 16  1  0
 16 17  2  0
 17 18  1  0
 17  2  1  0
  9  3  1  0
 18 10  1  0
 18 13  2  0
  4 19  1  0
  7 20  1  0
  8 21  1  0
 14 22  1  0
 15 23  1  0
 16 24  1  0
M  CHG  1  12  -1
M  END
>  <UniqueID>  (34) 
33

>  <SMILES>  (34) 
O=C1c2cc(F)ccc2-c2n[n-]c3cccc1c23

>  <Energy>  (34) 
80.72962970135251

>  <Genealogy>  (34) 
O=C1c2cc(F)ccc2-c2n[n-]c3cccc1c23 (protonated)
O=C1c2cc(F)ccc2-c2n[n-]c3cccc1c23 (3D coordinates assigned)
O=C1c2cc(F)ccc2-c2n[n-]c3cccc1c23 (nonaromatic ring conformer: 80.72962970135251 kcal/mol)

>  <smiles>  (34) 
O=C1c2cc(F)ccc2-c2n[nH]c3cccc1c23

>  <score_type>  (34) 
oracle

>  <origin>  (34) 
adg

>  <m_score__min__energy>  (34) 
-9.0700000000000003

>  <m_primary>  (34) 
energy

$$$$
34:0
     RDKit          3D

 39 40  0  0  0  0  0  0  0  0999 V2000
   62.6360   33.8470   49.6590 C   0  0  0  0  0  0  0  0  0  0  0  0
   61.2120   33.8830   49.6730 O   0  0  0  0  0  0  0  0  0  0  0  0
   60.4010   33.7630   48.5320 C   0  0  0  0  0  0  0  0  0  0  0  0
   60.8170   34.2190   47.2680 C   0  0  0  0  0  0  0  0  0  0  0  0
   59.9810   34.0870   46.1580 C   0  0  0  0  0  0  0  0  0  0  0  0
   58.7220   33.4900   46.2920 C   0  0  0  0  0  0  0  0  0  0  0  0
   57.6640   33.2980   44.8970 S   0  0  0  0  0  0  0  0  0  0  0  0
   58.4420   33.3790   43.6150 O   0  0  0  0  0  0  0  0  0  0  0  0
   56.6440   34.4010   44.9080 O   0  0  0  0  0  0  0  0  0  0  0  0
   56.8510   31.7690   44.9840 N   0  0  0  0  0  0  0  0  0  0  0  0
   57.4850   30.4940   45.1660 C   0  0  0  0  0  0  0  0  0  0  0  0
   58.8620   30.3910   45.4380 C   0  0  0  0  0  0  0  0  0  0  0  0
   59.4560   29.1420   45.6260 C   0  0  0  0  0  0  0  0  0  0  0  0
   58.6900   27.9730   45.5390 C   0  0  0  0  0  0  0  0  0  0  0  0
   59.3450   26.6390   45.7410 C   0  0  0  0  0  0  0  0  0  0  0  0
   57.3200   28.0670   45.2520 C   0  0  0  0  0  0  0  0  0  0  0  0
   56.7130   29.3180   45.0690 C   0  0  0  0  0  0  0  0  0  0  0  0
   55.3100   29.3820   44.7850 N   0  0  0  0  0  0  0  0  0  0  0  0
   58.3020   33.0310   47.5460 C   0  0  0  0  0  0  0  0  0  0  0  0
   59.1370   33.1680   48.6730 C   0  0  0  0  0  0  0  0  0  0  0  0
   58.7460   32.7260   49.9470 O   0  0  0  0  0  0  0  0  0  0  0  0
   58.6250   31.3590   50.3260 C   0  0  0  0  0  0  0  0  0  0  0  0
   63.0127   33.8375   50.6924 H   0  0  0  0  0  0  0  0  0  0  0  0
   62.9747   32.9400   49.1369 H   0  0  0  0  0  0  0  0  0  0  0  0
   63.0201   34.7357   49.1369 H   0  0  0  0  0  0  0  0  0  0  0  0
   61.8079   34.6828   47.1535 H   0  0  0  0  0  0  0  0  0  0  0  0
   60.3125   34.4532   45.1751 H   0  0  0  0  0  0  0  0  0  0  0  0
   59.4750   31.3021   45.5029 H   0  0  0  0  0  0  0  0  0  0  0  0
   60.5322   29.0756   45.8438 H   0  0  0  0  0  0  0  0  0  0  0  0
   59.4436   26.4383   46.8180 H   0  0  0  0  0  0  0  0  0  0  0  0
   58.7297   25.8543   45.2766 H   0  0  0  0  0  0  0  0  0  0  0  0
   60.3421   26.6460   45.2766 H   0  0  0  0  0  0  0  0  0  0  0  0
   56.7163   27.1511   45.1697 H   0  0  0  0  0  0  0  0  0  0  0  0
   54.7930   30.2850   44.8620 H   0  0  0  0  0  0  0  0  0  0  0  0
   54.7680   28.5360   44.5000 H   0  0  0  0  0  0  0  0  0  0  0  0
   57.3136   32.5602   47.6524 H   0  0  0  0  0  0  0  0  0  0  0  0
   58.6182   31.2819   51.4233 H   0  0  0  0  0  0  0  0  0  0  0  0
   57.6870   30.9486   49.9238 H   0  0  0  0  0  0  0  0  0  0  0  0
   59.4763   30.7902   49.9238 H   0  0  0  0  0  0  0  0  0  0  0  0
  1  2  1  0
  2  3  1  0
  3  4  2  0
  4  5  1  0
  5  6  2  0
  6  7  1  0
  7  8  2  0
  7  9  2  0
  7 10  1  0
 10 11  1  0
 11 12  2  0
 12 13  1  0
 13 14  2  0
 14 15  1  0
 14 16  1  0
 16 17  2  0
 17 18  1  0
  6 19  1  0
 19 20  2  0
 20 21  1  0
 21 22  1  0
 20  3  1  0
 17 11  1  0
  1 23  1  0
  1 24  1  0
  1 25  1  0
  4 26  1  0
  5 27  1  0
 12 28  1  0
 13 29  1  0
 15 30  1  0
 15 31  1  0
 15 32  1  0
 16 33  1  0
 18 34  1  0
 18 35  1  0
 19 36  1  0
 22 37  1  0
 22 38  1  0
 22 39  1  0
M  CHG  1  10  -1
M  END
>  <UniqueID>  (35) 
34

>  <SMILES>  (35) 
COc1ccc(S(=O)(=O)[N-]c2ccc(C)cc2N)cc1OC

>  <Energy>  (35) 
40.53206074544676

>  <Genealogy>  (35) 
COc1ccc(S(=O)(=O)[N-]c2ccc(C)cc2N)cc1OC (protonated)
COc1ccc(S(=O)(=O)[N-]c2ccc(C)cc2N)cc1OC (3D coordinates assigned)
COc1ccc(S(=O)(=O)[N-]c2ccc(C)cc2N)cc1OC (optimized conformer: 40.53206074544676 kcal/mol)

>  <smiles>  (35) 
COc1ccc(S(=O)(=O)Nc2ccc(C)cc2N)cc1OC

>  <score_type>  (35) 
oracle

>  <origin>  (35) 
adg

>  <m_score__min__energy>  (35) 
-8.7200000000000006

>  <m_primary>  (35) 
energy

$$$$
35:0
     RDKit          3D

 39 41  0  0  1  0  0  0  0  0999 V2000
   63.0400   33.7910   47.1620 C   0  0  0  0  0  0  0  0  0  0  0  0
   62.4630   33.8490   48.5580 C   0  0  0  0  0  0  0  0  0  0  0  0
   61.0900   34.3020   48.5570 N   0  0  0  0  0  0  0  0  0  0  0  0
   60.1700   33.8900   47.7740 C   0  0  0  0  0  0  0  0  0  0  0  0
   59.4380   34.8020   47.1080 N   0  0  0  0  0  0  0  0  0  0  0  0
   58.4570   34.4380   46.2710 C   0  0  0  0  0  0  0  0  0  0  0  0
   58.1640   33.1240   46.0610 N   0  0  0  0  0  0  0  0  0  0  0  0
   58.8810   32.1930   46.7150 C   0  0  0  0  0  0  0  0  0  0  0  0
   59.8890   32.5700   47.5760 C   0  0  0  0  0  0  0  0  0  0  0  0
   60.4700   31.4760   48.1180 N   0  0  0  0  0  0  0  0  0  0  0  0
   59.8220   30.4100   47.5930 C   0  0  0  0  0  0  0  0  0  0  0  0
   58.8720   30.8350   46.7550 N   0  0  0  0  0  0  0  0  0  0  0  0
   57.9340   30.0580   45.9680 C   0  0  2  0  0  0  0  0  0  0  0  0
   57.5740   28.8940   46.6470 O   0  0  0  0  0  0  0  0  0  0  0  0
   56.9970   28.1570   45.6030 C   0  0  2  0  0  0  0  0  0  0  0  0
   56.5970   26.7740   46.0480 C   0  0  0  0  0  0  0  0  0  0  0  0
   55.2010   26.6910   45.9430 O   0  0  0  0  0  0  0  0  0  0  0  0
   58.1560   28.1280   44.6300 C   0  0  1  0  0  0  0  0  0  0  0  0
   57.7310   27.7070   43.3270 N   0  0  0  0  0  0  0  0  0  0  0  0
   58.5410   29.6130   44.6560 C   0  0  1  0  0  0  0  0  0  0  0  0
   57.8560   30.2260   43.6160 O   0  0  0  0  0  0  0  0  0  0  0  0
   64.1329   33.6811   47.2212 H   0  0  0  0  0  0  0  0  0  0  0  0
   62.6137   32.9312   46.6245 H   0  0  0  0  0  0  0  0  0  0  0  0
   62.7933   34.7185   46.6245 H   0  0  0  0  0  0  0  0  0  0  0  0
   62.5051   32.8435   49.0020 H   0  0  0  0  0  0  0  0  0  0  0  0
   63.0576   34.5666   49.1424 H   0  0  0  0  0  0  0  0  0  0  0  0
   59.6280   35.8110   47.2380 H   0  0  0  0  0  0  0  0  0  0  0  0
   57.8791   35.2122   45.7451 H   0  0  0  0  0  0  0  0  0  0  0  0
   60.0432   29.3568   47.8209 H   0  0  0  0  0  0  0  0  0  0  0  0
   57.0658   30.7096   45.7899 H   0  0  0  0  0  0  0  0  0  0  0  0
   56.0650   28.5774   45.1972 H   0  0  0  0  0  0  0  0  0  0  0  0
   57.0689   26.0192   45.4018 H   0  0  0  0  0  0  0  0  0  0  0  0
   56.9221   26.5878   47.0822 H   0  0  0  0  0  0  0  0  0  0  0  0
   54.7720   27.4610   46.3950 H   0  0  0  0  0  0  0  0  0  0  0  0
   58.9703   27.4320   44.8799 H   0  0  0  0  0  0  0  0  0  0  0  0
   56.6880   27.7920   43.2140 H   0  0  0  0  0  0  0  0  0  0  0  0
   58.1680   28.3280   42.6040 H   0  0  0  0  0  0  0  0  0  0  0  0
   59.6151   29.8305   44.5611 H   0  0  0  0  0  0  0  0  0  0  0  0
   57.9540   29.7830   42.7430 H   0  0  0  0  0  0  0  0  0  0  0  0
  1  2  1  0
  2  3  1  0
  3  4  2  0
  4  5  1  0
  5  6  1  0
  6  7  2  0
  7  8  1  0
  8  9  2  0
  9 10  1  0
 10 11  2  0
 11 12  1  0
 12 13  1  0
 13 14  1  0
 14 15  1  0
 15 16  1  0
 16 17  1  0
 15 18  1  0
 18 19  1  0
 18 20  1  0
 20 21  1  0
  9  4  1  0
 20 13  1  0
 12  8  1  0
  1 22  1  0
  1 23  1  0
  1 24  1  0
  2 25  1  0
  2 26  1  0
  5 27  1  0
  6 28  1  0
 11 29  1  0
 13 30  1  6
 15 31  1  6
 16 32  1  0
 16 33  1  0
 17 34  1  0
 18 35  1  1
 19 36  1  0
 19 37  1  0
 20 38  1  1
 21 39  1  0
M  END
>  <smiles>  (36) 
CCN=c1[nH]cnc2c1ncn2C1OC(CO)C(N)C1O

>  <score_type>  (36) 
oracle

>  <origin>  (36) 
adg

>  <m_score__min__energy>  (36) 
-7.04

>  <m_primary>  (36) 
energy

$$$$
36:0
     RDKit          3D

 39 40  0  0  0  0  0  0  0  0999 V2000
   61.3990   31.2800   47.1640 C   0  0  0  0  0  0  0  0  0  0  0  0
   62.1770   32.2340   48.0190 C   0  0  0  0  0  0  0  0  0  0  0  0
   63.5310   32.0290   48.3340 C   0  0  0  0  0  0  0  0  0  0  0  0
   64.0740   33.0150   49.1460 C   0  0  0  0  0  0  0  0  0  0  0  0
   62.8710   34.1370   49.4820 S   0  0  0  0  0  0  0  0  0  0  0  0
   61.6470   33.3960   48.5920 C   0  0  0  0  0  0  0  0  0  0  0  0
   60.2510   33.8780   48.5160 C   0  0  0  0  0  0  0  0  0  0  0  0
   59.6270   34.1450   49.5780 O   0  0  0  0  0  0  0  0  0  0  0  0
   59.6110   34.0970   47.2480 N   0  0  0  0  0  0  0  0  0  0  0  0
   60.1020   35.1740   46.3750 C   0  0  0  0  0  0  0  0  0  0  0  0
   59.2130   35.3460   45.1370 C   0  0  0  0  0  0  0  0  0  0  0  0
   58.9410   34.0040   44.4340 C   0  0  0  0  0  0  0  0  0  0  0  0
   58.5890   32.8400   45.4080 C   0  0  2  0  0  0  0  0  0  0  0  0
   57.3340   32.0660   44.9560 C   0  0  0  0  0  0  0  0  0  0  0  0
   57.2630   30.7410   45.5790 N   0  0  0  0  0  0  0  0  0  0  0  0
   56.5820   29.5440   44.5110 S   0  0  0  0  0  0  0  0  0  0  0  0
   56.6460   30.1470   42.8380 C   0  0  0  0  0  0  0  0  0  0  0  0
   55.1450   29.3180   44.8870 O   0  0  0  0  0  0  0  0  0  0  0  0
   57.3190   28.2350   44.5940 O   0  0  0  0  0  0  0  0  0  0  0  0
   58.4240   33.3250   46.8580 C   0  0  0  0  0  0  0  0  0  0  0  0
   60.8348   30.5881   47.8066 H   0  0  0  0  0  0  0  0  0  0  0  0
   60.6996   31.8435   46.5289 H   0  0  0  0  0  0  0  0  0  0  0  0
   62.0917   30.7082   46.5289 H   0  0  0  0  0  0  0  0  0  0  0  0
   64.1079   31.1659   47.9703 H   0  0  0  0  0  0  0  0  0  0  0  0
   65.1124   33.0545   49.5068 H   0  0  0  0  0  0  0  0  0  0  0  0
   60.1113   36.1167   46.9417 H   0  0  0  0  0  0  0  0  0  0  0  0
   61.1148   34.9089   46.0375 H   0  0  0  0  0  0  0  0  0  0  0  0
   58.2536   35.7860   45.4466 H   0  0  0  0  0  0  0  0  0  0  0  0
   59.7397   36.0014   44.4278 H   0  0  0  0  0  0  0  0  0  0  0  0
   58.0987   34.1413   43.7399 H   0  0  0  0  0  0  0  0  0  0  0  0
   59.8707   33.7193   43.9196 H   0  0  0  0  0  0  0  0  0  0  0  0
   59.4449   32.1497   45.3777 H   0  0  0  0  0  0  0  0  0  0  0  0
   56.4395   32.6410   45.2374 H   0  0  0  0  0  0  0  0  0  0  0  0
   57.3876   31.9308   43.8657 H   0  0  0  0  0  0  0  0  0  0  0  0
   56.7621   31.2408   42.8467 H   0  0  0  0  0  0  0  0  0  0  0  0
   57.5009   29.6917   42.3166 H   0  0  0  0  0  0  0  0  0  0  0  0
   55.7146   29.8813   42.3166 H   0  0  0  0  0  0  0  0  0  0  0  0
   57.5302   33.9617   46.9333 H   0  0  0  0  0  0  0  0  0  0  0  0
   58.3110   32.4587   47.5264 H   0  0  0  0  0  0  0  0  0  0  0  0
  1  2  1  0
  2  3  1  0
  3  4  2  0
  4  5  1  0
  5  6  1  0
  6  7  1  0
  7  8  2  0
  7  9  1  0
  9 10  1  0
 10 11  1  0
 11 12  1  0
 12 13  1  0
 13 14  1  0
 14 15  1  0
 15 16  1  0
 16 17  1  0
 16 18  2  0
 16 19  2  0
 13 20  1  0
  6  2  2  0
 20  9  1  0
  1 21  1  0
  1 22  1  0
  1 23  1  0
  3 24  1  0
  4 25  1  0
 10 26  1  0
 10 27  1  0
 11 28  1  0
 11 29  1  0
 12 30  1  0
 12 31  1  0
 13 32  1  1
 14 33  1  0
 14 34  1  0
 17 35  1  0
 17 36  1  0
 17 37  1  0
 20 38  1  0
 20 39  1  0
M  CHG  1  15  -1
M  END
>  <UniqueID>  (37) 
35

>  <SMILES>  (37) 
Cc1ccsc1C(=O)N1CCC[C@H](C[N-]S(C)(=O)=O)C1

>  <Energy>  (37) 
62.94790777502478

>  <Genealogy>  (37) 
Cc1ccsc1C(=O)N1CCCC(C[N-]S(C)(=O)=O)C1 (protonated)
Cc1ccsc1C(=O)N1CCC[C@H](C[N-]S(C)(=O)=O)C1 (chirality)
Cc1ccsc1C(=O)N1CCC[C@H](C[N-]S(C)(=O)=O)C1 (3D coordinates assigned)
Cc1ccsc1C(=O)N1CCC[C@H](C[N-]S(C)(=O)=O)C1 (nonaromatic ring conformer: 62.94790777502478 kcal/mol)

>  <smiles>  (37) 
Cc1ccsc1C(=O)N1CCCC(CNS(C)(=O)=O)C1

>  <score_type>  (37) 
oracle

>  <origin>  (37) 
adg

>  <m_score__min__energy>  (37) 
-9.8499999999999996

>  <m_primary>  (37) 
energy

$$$$
37:0
     RDKit          3D

 48 49  0  0  1  0  0  0  0  0999 V2000
   63.3780   33.8440   46.3970 C   0  0  0  0  0  0  0  0  0  0  0  0
   63.2280   33.7550   47.8970 C   0  0  0  0  0  0  0  0  0  0  0  0
   62.0480   33.0810   48.3390 N   0  0  0  0  0  0  0  0  0  0  0  0
   62.2030   31.6540   48.4510 C   0  0  0  0  0  0  0  0  0  0  0  0
   61.7440   30.9130   47.2130 C   0  0  0  0  0  0  0  0  0  0  0  0
   61.5820   33.5850   49.5940 C   0  0  0  0  0  0  0  0  0  0  0  0
   60.0670   33.6530   49.6680 C   0  0  0  0  0  0  0  0  0  0  0  0
   59.6110   34.6210   48.6880 N   0  0  0  0  0  0  0  0  0  0  0  0
   59.2490   34.2650   47.5000 C   0  0  0  0  0  0  0  0  0  0  0  0
   58.8200   32.9750   47.2870 C   0  0  0  0  0  0  0  0  0  0  0  0
   58.4510   32.6290   46.0170 C   0  0  0  0  0  0  0  0  0  0  0  0
   57.9780   31.2680   45.6700 C   0  0  0  0  0  0  0  0  0  0  0  0
   56.9480   31.2190   44.9700 O   0  0  0  0  0  0  0  0  0  0  0  0
   58.6890   30.1440   46.1310 N   0  0  0  0  0  0  0  0  0  0  0  0
   58.4040   28.7910   45.9300 C   0  0  0  0  0  0  0  0  0  0  0  0
   59.4370   27.8830   46.1970 C   0  0  0  0  0  0  0  0  0  0  0  0
   59.2730   26.5250   46.0580 C   0  0  0  0  0  0  0  0  0  0  0  0
   58.0890   25.9740   45.6480 C   0  0  0  0  0  0  0  0  0  0  0  0
   57.0540   26.8500   45.3790 C   0  0  0  0  0  0  0  0  0  0  0  0
   57.2200   28.2380   45.5210 C   0  0  0  0  0  0  0  0  0  0  0  0
   56.0580   29.0050   45.2470 N   0  0  0  0  0  0  0  0  0  0  0  0
   58.5350   33.5760   45.0670 N   0  0  0  0  0  0  0  0  0  0  0  0
   58.9520   34.8310   45.2700 C   0  0  0  0  0  0  0  0  0  0  0  0
   59.3230   35.1950   46.5270 N   0  0  0  0  0  0  0  0  0  0  0  0
   64.3004   34.3913   46.1526 H   0  0  0  0  0  0  0  0  0  0  0  0
   63.4298   32.8304   45.9729 H   0  0  0  0  0  0  0  0  0  0  0  0
   62.5131   34.3752   45.9729 H   0  0  0  0  0  0  0  0  0  0  0  0
   64.1002   33.2176   48.2975 H   0  0  0  0  0  0  0  0  0  0  0  0
   63.1517   34.7891   48.2640 H   0  0  0  0  0  0  0  0  0  0  0  0
   63.2661   31.4286   48.6211 H   0  0  0  0  0  0  0  0  0  0  0  0
   61.5745   31.3182   49.2890 H   0  0  0  0  0  0  0  0  0  0  0  0
   61.1863   30.0127   47.5102 H   0  0  0  0  0  0  0  0  0  0  0  0
   61.0926   31.5670   46.6147 H   0  0  0  0  0  0  0  0  0  0  0  0
   62.6196   30.6210   46.6147 H   0  0  0  0  0  0  0  0  0  0  0  0
   61.9449   32.9250   50.3957 H   0  0  0  0  0  0  0  0  0  0  0  0
   61.9680   34.6089   49.7066 H   0  0  0  0  0  0  0  0  0  0  0  0
   59.6380   32.6652   49.4440 H   0  0  0  0  0  0  0  0  0  0  0  0
   59.7477   33.9528   50.6771 H   0  0  0  0  0  0  0  0  0  0  0  0
   58.7755   32.2471   48.1105 H   0  0  0  0  0  0  0  0  0  0  0  0
   59.5520   30.3650   46.7190 H   0  0  0  0  0  0  0  0  0  0  0  0
   60.4119   28.2695   46.5290 H   0  0  0  0  0  0  0  0  0  0  0  0
   60.1200   25.8604   46.2834 H   0  0  0  0  0  0  0  0  0  0  0  0
   57.9669   24.8864   45.5378 H   0  0  0  0  0  0  0  0  0  0  0  0
   56.0830   26.4533   45.0478 H   0  0  0  0  0  0  0  0  0  0  0  0
   55.5670   28.8280   44.3200 H   0  0  0  0  0  0  0  0  0  0  0  0
   55.6740   29.7240   45.9330 H   0  0  0  0  0  0  0  0  0  0  0  0
   58.9938   35.5515   44.4399 H   0  0  0  0  0  0  0  0  0  0  0  0
   59.6480   36.1510   46.7180 H   0  0  0  0  0  0  0  0  0  0  0  0
  1  2  1  0
  2  3  1  0
  3  4  1  0
  4  5  1  0
  3  6  1  0
  6  7  1  0
  7  8  1  0
  8  9  2  0
  9 10  1  0
 10 11  2  0
 11 12  1  0
 12 13  2  0
 12 14  1  0
 14 15  1  0
 15 16  2  0
 16 17  1  0
 17 18  2  0
 18 19  1  0
 19 20  2  0
 20 21  1  0
 11 22  1  0
 22 23  2  0
 23 24  1  0
 24  9  1  0
 20 15  1  0
  1 25  1  0
  1 26  1  0
  1 27  1  0
  2 28  1  0
  2 29  1  0
  4 30  1  0
  4 31  1  0
  5 32  1  0
  5 33  1  0
  5 34  1  0
  6 35  1  0
  6 36  1  0
  7 37  1  0
  7 38  1  0
 10 39  1  0
 14 40  1  0
 16 41  1  0
 17 42  1  0
 18 43  1  0
 19 44  1  0
 21 45  1  0
 21 46  1  0
 23 47  1  0
 24 48  1  0
M  END
>  <smiles>  (38) 
CCN(CC)CCN=c1cc(C(=O)Nc2ccccc2N)nc[nH]1

>  <score_type>  (38) 
oracle

>  <origin>  (38) 
adg

>  <m_score__min__energy>  (38) 
-6.9199999999999999

>  <m_primary>  (38) 
energy

$$$$
38:0
     RDKit          3D

 54 57  0  0  0  0  0  0  0  0999 V2000
   57.0400   30.3140   43.4710 C   0  0  0  0  0  0  0  0  0  0  0  0
   56.5890   31.2020   44.4900 O   0  0  0  0  0  0  0  0  0  0  0  0
   57.4120   31.7440   45.4900 C   0  0  0  0  0  0  0  0  0  0  0  0
   58.2120   30.8700   46.2360 C   0  0  0  0  0  0  0  0  0  0  0  0
   59.0480   31.3590   47.2420 C   0  0  0  0  0  0  0  0  0  0  0  0
   59.0880   32.7320   47.5250 C   0  0  0  0  0  0  0  0  0  0  0  0
   59.9980   33.2490   48.6050 C   0  0  0  0  0  0  0  0  0  0  0  0
   61.0790   34.0690   48.0090 N   0  0  0  0  0  0  0  0  0  0  0  0
   61.8430   33.3390   46.9780 C   0  0  0  0  0  0  0  0  0  0  0  0
   62.6030   32.1350   47.5600 C   0  0  0  0  0  0  0  0  0  0  0  0
   63.2940   32.4710   48.8510 C   0  0  0  0  0  0  0  0  0  0  0  0
   64.1940   31.5930   49.3630 N   0  0  0  0  0  0  0  0  0  0  0  0
   64.8040   31.8090   50.5610 C   0  0  0  0  0  0  0  0  0  0  0  0
   65.7510   30.8420   51.0610 N   0  0  0  0  0  0  0  0  0  0  0  0
   65.2610   29.6030   51.6780 C   0  0  0  0  0  0  0  0  0  0  0  0
   66.3820   28.5580   51.7590 C   0  0  0  0  0  0  0  0  0  0  0  0
   67.5890   29.0650   52.4570 N   0  0  0  0  0  0  0  0  0  0  0  0
   67.5380   28.7610   53.9000 C   0  0  0  0  0  0  0  0  0  0  0  0
   67.8770   30.5070   52.2330 C   0  0  0  0  0  0  0  0  0  0  0  0
   67.1980   31.0720   50.9790 C   0  0  0  0  0  0  0  0  0  0  0  0
   64.5160   32.9440   51.2640 N   0  0  0  0  0  0  0  0  0  0  0  0
   63.6120   33.8460   50.7960 C   0  0  0  0  0  0  0  0  0  0  0  0
   62.9550   33.6200   49.5820 C   0  0  0  0  0  0  0  0  0  0  0  0
   61.9860   34.6400   49.0320 C   0  0  0  0  0  0  0  0  0  0  0  0
   58.2890   33.6110   46.7800 C   0  0  0  0  0  0  0  0  0  0  0  0
   57.4570   33.1230   45.7670 C   0  0  0  0  0  0  0  0  0  0  0  0
   57.4919   29.4242   43.9337 H   0  0  0  0  0  0  0  0  0  0  0  0
   56.1873   30.0094   42.8463 H   0  0  0  0  0  0  0  0  0  0  0  0
   57.7889   30.8228   42.8463 H   0  0  0  0  0  0  0  0  0  0  0  0
   58.1818   29.7902   46.0281 H   0  0  0  0  0  0  0  0  0  0  0  0
   59.6785   30.6636   47.8155 H   0  0  0  0  0  0  0  0  0  0  0  0
   59.4170   33.8664   49.3059 H   0  0  0  0  0  0  0  0  0  0  0  0
   60.4443   32.3971   49.1389 H   0  0  0  0  0  0  0  0  0  0  0  0
   61.1444   32.9784   46.2087 H   0  0  0  0  0  0  0  0  0  0  0  0
   62.5840   34.0323   46.5534 H   0  0  0  0  0  0  0  0  0  0  0  0
   61.8880   31.3192   47.7426 H   0  0  0  0  0  0  0  0  0  0  0  0
   63.3724   31.8372   46.8324 H   0  0  0  0  0  0  0  0  0  0  0  0
   64.8988   29.8236   52.6930 H   0  0  0  0  0  0  0  0  0  0  0  0
   64.4446   29.1992   51.0612 H   0  0  0  0  0  0  0  0  0  0  0  0
   66.0048   27.6789   52.3021 H   0  0  0  0  0  0  0  0  0  0  0  0
   66.6755   28.3055   50.7294 H   0  0  0  0  0  0  0  0  0  0  0  0
   67.6931   29.6857   54.4752 H   0  0  0  0  0  0  0  0  0  0  0  0
   66.5557   28.3339   54.1503 H   0  0  0  0  0  0  0  0  0  0  0  0
   68.3272   28.0368   54.1503 H   0  0  0  0  0  0  0  0  0  0  0  0
   67.5238   31.0738   53.1071 H   0  0  0  0  0  0  0  0  0  0  0  0
   68.9631   30.6044   52.0882 H   0  0  0  0  0  0  0  0  0  0  0  0
   67.3944   32.1522   50.9108 H   0  0  0  0  0  0  0  0  0  0  0  0
   67.5993   30.5695   50.0866 H   0  0  0  0  0  0  0  0  0  0  0  0
   65.0050   33.1540   52.1640 H   0  0  0  0  0  0  0  0  0  0  0  0
   63.3967   34.7566   51.3743 H   0  0  0  0  0  0  0  0  0  0  0  0
   61.3793   35.0328   49.8612 H   0  0  0  0  0  0  0  0  0  0  0  0
   62.5753   35.4338   48.5497 H   0  0  0  0  0  0  0  0  0  0  0  0
   58.3166   34.6898   46.9933 H   0  0  0  0  0  0  0  0  0  0  0  0
   56.8357   33.8195   45.1849 H   0  0  0  0  0  0  0  0  0  0  0  0
  1  2  1  0
  2  3  1  0
  3  4  2  0
  4  5  1  0
  5  6  2  0
  6  7  1  0
  7  8  1  0
  8  9  1  0
  9 10  1  0
 10 11  1  0
 11 12  2  0
 12 13  1  0
 13 14  1  0
 14 15  1  0
 15 16  1  0
 16 17  1  0
 17 18  1  0
 17 19  1  0
 19 20  1  0
 13 21  2  0
 21 22  1  0
 22 23  2  0
 23 24  1  0
  6 25  1  0
 25 26  2  0
 26  3  1  0
 24  8  1  0
 23 11  1  0
 20 14  1  0
  1 27  1  0
  1 28  1  0
  1 29  1  0
  4 30  1  0
  5 31  1  0
  7 32  1  0
  7 33  1  0
  9 34  1  0
  9 35  1  0
 10 36  1  0
 10 37  1  0
 15 38  1  0
 15 39  1  0
 16 40  1  0
 16 41  1  0
 18 42  1  0
 18 43  1  0
 18 44  1  0
 19 45  1  0
 19 46  1  0
 20 47  1  0
 20 48  1  0
 21 49  1  0
 22 50  1  0
 24 51  1  0
 24 52  1  0
 25 53  1  0
 26 54  1  0
M  CHG  1  21   1
M  END
>  <UniqueID>  (39) 
36

>  <SMILES>  (39) 
COc1ccc(CN2CCc3nc(N4CCN(C)CC4)[nH+]cc3C2)cc1

>  <Energy>  (39) 
69.2113711558738

>  <Genealogy>  (39) 
COc1ccc(CN2CCc3nc(N4CCN(C)CC4)[nH+]cc3C2)cc1 (protonated)
COc1ccc(CN2CCc3nc(N4CCN(C)CC4)[nH+]cc3C2)cc1 (3D coordinates assigned)
COc1ccc(CN2CCc3nc(N4CCN(C)CC4)[nH+]cc3C2)cc1 (nonaromatic ring conformer: 69.2113711558738 kcal/mol)

>  <smiles>  (39) 
COc1ccc(CN2CCc3nc(N4CCN(C)CC4)ncc3C2)cc1

>  <score_type>  (39) 
oracle

>  <origin>  (39) 
adg

>  <m_score__min__energy>  (39) 
-7.0199999999999996

>  <m_primary>  (39) 
energy

$$$$
39:0
     RDKit          3D

 39 42  0  0  0  0  0  0  0  0999 V2000
   59.7290   35.7130   46.5920 C   0  0  0  0  0  0  0  0  0  0  0  0
   59.3080   34.3380   46.1400 C   0  0  0  0  0  0  0  0  0  0  0  0
   58.7560   34.1740   44.8640 C   0  0  0  0  0  0  0  0  0  0  0  0
   58.3570   32.9040   44.4260 C   0  0  0  0  0  0  0  0  0  0  0  0
   57.7840   32.7650   43.1300 C   0  0  0  0  0  0  0  0  0  0  0  0
   57.3650   31.5130   42.6530 C   0  0  0  0  0  0  0  0  0  0  0  0
   57.5390   30.4290   43.4920 C   0  0  0  0  0  0  0  0  0  0  0  0
   57.2410   29.0930   43.3810 C   0  0  0  0  0  0  0  0  0  0  0  0
   56.6970   28.5480   42.3840 O   0  0  0  0  0  0  0  0  0  0  0  0
   57.6060   28.4320   44.5090 N   0  0  0  0  0  0  0  0  0  0  0  0
   57.3920   27.0120   44.7870 C   0  0  0  0  0  0  0  0  0  0  0  0
   56.5740   26.8530   46.0260 C   0  0  0  0  0  0  0  0  0  0  0  0
   57.1240   26.8970   47.1580 O   0  0  0  0  0  0  0  0  0  0  0  0
   55.1950   26.7110   45.9360 O   0  0  0  0  0  0  0  0  0  0  0  0
   58.1320   29.3310   45.3790 C   0  0  0  0  0  0  0  0  0  0  0  0
   58.1190   30.5890   44.7920 C   0  0  0  0  0  0  0  0  0  0  0  0
   58.5220   31.8070   45.2580 N   0  0  0  0  0  0  0  0  0  0  0  0
   59.0770   31.9510   46.4990 C   0  0  0  0  0  0  0  0  0  0  0  0
   59.4830   33.2090   46.9640 C   0  0  0  0  0  0  0  0  0  0  0  0
   60.0980   33.3140   48.3080 C   0  0  0  0  0  0  0  0  0  0  0  0
   59.2720   33.2940   49.4410 C   0  0  0  0  0  0  0  0  0  0  0  0
   59.8260   33.4030   50.7160 C   0  0  0  0  0  0  0  0  0  0  0  0
   61.2080   33.5330   50.8510 C   0  0  0  0  0  0  0  0  0  0  0  0
   62.0010   33.5490   49.7480 N   0  0  0  0  0  0  0  0  0  0  0  0
   61.4930   33.4470   48.4900 C   0  0  0  0  0  0  0  0  0  0  0  0
   62.5340   33.4520   47.2230 S   0  0  0  0  0  0  0  0  0  0  0  0
   59.7404   35.7501   47.6913 H   0  0  0  0  0  0  0  0  0  0  0  0
   60.7357   35.9332   46.2073 H   0  0  0  0  0  0  0  0  0  0  0  0
   59.0181   36.4591   46.2073 H   0  0  0  0  0  0  0  0  0  0  0  0
   58.6350   35.0449   44.2030 H   0  0  0  0  0  0  0  0  0  0  0  0
   57.6677   33.6534   42.4919 H   0  0  0  0  0  0  0  0  0  0  0  0
   56.9175   31.3998   41.6545 H   0  0  0  0  0  0  0  0  0  0  0  0
   56.8638   26.5503   43.9398 H   0  0  0  0  0  0  0  0  0  0  0  0
   58.3657   26.5210   44.9311 H   0  0  0  0  0  0  0  0  0  0  0  0
   58.5080   29.1002   46.3867 H   0  0  0  0  0  0  0  0  0  0  0  0
   59.2066   31.0674   47.1412 H   0  0  0  0  0  0  0  0  0  0  0  0
   58.1831   33.1920   49.3236 H   0  0  0  0  0  0  0  0  0  0  0  0
   59.1798   33.3866   51.6060 H   0  0  0  0  0  0  0  0  0  0  0  0
   61.6564   33.6227   51.8515 H   0  0  0  0  0  0  0  0  0  0  0  0
  1  2  1  0
  2  3  2  0
  3  4  1  0
  4  5  2  0
  5  6  1  0
  6  7  2  0
  7  8  1  0
  8  9  2  0
  8 10  1  0
 10 11  1  0
 11 12  1  0
 12 13  2  0
 12 14  1  0
 10 15  1  0
 15 16  2  0
 16 17  1  0
 17 18  1  0
 18 19  2  0
 19 20  1  0
 20 21  2  0
 21 22  1  0
 22 23  2  0
 23 24  1  0
 24 25  1  0
 25 26  2  0
 19  2  1  0
 25 20  1  0
 17  4  1  0
 16  7  1  0
  1 27  1  0
  1 28  1  0
  1 29  1  0
  3 30  1  0
  5 31  1  0
  6 32  1  0
 11 33  1  0
 11 34  1  0
 15 35  1  0
 18 36  1  0
 21 37  1  0
 22 38  1  0
 23 39  1  0
M  CHG  2  14  -1  24  -1
M  END
>  <UniqueID>  (40) 
37

>  <SMILES>  (40) 
Cc1cc2ccc3c(=O)n(CC(=O)[O-])cc-3n2cc1-c1ccc[n-]c1=S

>  <Energy>  (40) 
94.0886366606593

>  <Genealogy>  (40) 
Cc1cc2ccc3c(=O)n(CC(=O)[O-])cc-3n2cc1-c1ccc[n-]c1=S (protonated)
Cc1cc2ccc3c(=O)n(CC(=O)[O-])cc-3n2cc1-c1ccc[n-]c1=S (3D coordinates assigned)
Cc1cc2ccc3c(=O)n(CC(=O)[O-])cc-3n2cc1-c1ccc[n-]c1=S (optimized conformer: 94.0886366606593 kcal/mol)

>  <smiles>  (40) 
Cc1cc2ccc3c(=O)n(CC(=O)O)cc-3n2cc1-c1ccc[nH]c1=S

>  <score_type>  (40) 
oracle

>  <origin>  (40) 
adg

>  <m_score__min__energy>  (40) 
-11.550000000000001

>  <m_primary>  (40) 
energy

$$$$
40:0
     RDKit          3D

 40 42  0  0  0  0  0  0  0  0999 V2000
   57.3890   32.4070   40.4350 C   0  0  0  0  0  0  0  0  0  0  0  0
   57.4520   32.0090   41.8350 N   0  0  0  0  0  0  0  0  0  0  0  0
   57.0040   30.8460   42.3490 C   0  0  0  0  0  0  0  0  0  0  0  0
   57.3270   30.7820   43.6890 C   0  0  0  0  0  0  0  0  0  0  0  0
   56.9470   29.3300   44.8690 Br  0  0  0  0  0  0  0  0  0  0  0  0
   58.0060   31.9490   43.9900 C   0  0  0  0  0  0  0  0  0  0  0  0
   58.6190   32.3200   45.3100 C   0  0  0  0  0  0  0  0  0  0  0  0
   57.9890   33.5350   45.8760 N   0  0  0  0  0  0  0  0  0  0  0  0
   58.8080   34.7500   45.6230 C   0  0  0  0  0  0  0  0  0  0  0  0
   59.6660   35.1900   46.8260 C   0  0  0  0  0  0  0  0  0  0  0  0
   59.9740   34.0430   47.6860 N   0  0  0  0  0  0  0  0  0  0  0  0
   61.3320   33.7080   48.0310 C   0  0  0  0  0  0  0  0  0  0  0  0
   62.2310   33.2700   47.0420 C   0  0  0  0  0  0  0  0  0  0  0  0
   63.5540   32.9620   47.3750 C   0  0  0  0  0  0  0  0  0  0  0  0
   63.9930   33.0960   48.6940 C   0  0  0  0  0  0  0  0  0  0  0  0
   65.2760   32.7980   49.0150 F   0  0  0  0  0  0  0  0  0  0  0  0
   63.1110   33.5410   49.6820 C   0  0  0  0  0  0  0  0  0  0  0  0
   61.7870   33.8490   49.3550 C   0  0  0  0  0  0  0  0  0  0  0  0
   58.8600   33.2390   48.2020 C   0  0  0  0  0  0  0  0  0  0  0  0
   57.6210   33.3960   47.3050 C   0  0  0  0  0  0  0  0  0  0  0  0
   58.0780   32.6810   42.8210 C   0  0  0  0  0  0  0  0  0  0  0  0
   57.2173   33.4915   40.3695 H   0  0  0  0  0  0  0  0  0  0  0  0
   58.3382   32.1554   39.9392 H   0  0  0  0  0  0  0  0  0  0  0  0
   56.5640   31.8746   39.9392 H   0  0  0  0  0  0  0  0  0  0  0  0
   56.4648   30.0689   41.7875 H   0  0  0  0  0  0  0  0  0  0  0  0
   58.4842   31.4858   46.0143 H   0  0  0  0  0  0  0  0  0  0  0  0
   59.6874   32.5267   45.1496 H   0  0  0  0  0  0  0  0  0  0  0  0
   59.4793   34.5444   44.7762 H   0  0  0  0  0  0  0  0  0  0  0  0
   58.1048   35.5704   45.4168 H   0  0  0  0  0  0  0  0  0  0  0  0
   60.6053   35.6294   46.4589 H   0  0  0  0  0  0  0  0  0  0  0  0
   59.1028   35.9316   47.4115 H   0  0  0  0  0  0  0  0  0  0  0  0
   61.8916   33.1691   46.0005 H   0  0  0  0  0  0  0  0  0  0  0  0
   64.2495   32.6138   46.5972 H   0  0  0  0  0  0  0  0  0  0  0  0
   63.4592   33.6493   50.7198 H   0  0  0  0  0  0  0  0  0  0  0  0
   61.0981   34.2030   50.1361 H   0  0  0  0  0  0  0  0  0  0  0  0
   59.1581   32.1804   48.2253 H   0  0  0  0  0  0  0  0  0  0  0  0
   58.6111   33.5856   49.2159 H   0  0  0  0  0  0  0  0  0  0  0  0
   56.9814   32.5089   47.4231 H   0  0  0  0  0  0  0  0  0  0  0  0
   57.0910   34.3098   47.6116 H   0  0  0  0  0  0  0  0  0  0  0  0
   58.5693   33.6591   42.7120 H   0  0  0  0  0  0  0  0  0  0  0  0
  1  2  1  0
  2  3  1  0
  3  4  2  0
  4  5  1  0
  4  6  1  0
  6  7  1  0
  7  8  1  0
  8  9  1  0
  9 10  1  0
 10 11  1  0
 11 12  1  0
 12 13  2  0
 13 14  1  0
 14 15  2  0
 15 16  1  0
 15 17  1  0
 17 18  2  0
 11 19  1  0
 19 20  1  0
  6 21  2  0
 21  2  1  0
 20  8  1  0
 18 12  1  0
  1 22  1  0
  1 23  1  0
  1 24  1  0
  3 25  1  0
  7 26  1  0
  7 27  1  0
  9 28  1  0
  9 29  1  0
 10 30  1  0
 10 31  1  0
 13 32  1  0
 14 33  1  0
 17 34  1  0
 18 35  1  0
 19 36  1  0
 19 37  1  0
 20 38  1  0
 20 39  1  0
 21 40  1  0
M  END
>  <UniqueID>  (41) 
38

>  <SMILES>  (41) 
Cn1cc(Br)c(CN2CCN(c3ccc(F)cc3)CC2)c1

>  <Energy>  (41) 
77.9090617041746

>  <Genealogy>  (41) 
Cn1cc(Br)c(CN2CCN(c3ccc(F)cc3)CC2)c1 (3D coordinates assigned)
Cn1cc(Br)c(CN2CCN(c3ccc(F)cc3)CC2)c1 (nonaromatic ring conformer: 77.9090617041746 kcal/mol)

>  <smiles>  (41) 
Cn1cc(Br)c(CN2CCN(c3ccc(F)cc3)CC2)c1

>  <score_type>  (41) 
oracle

>  <origin>  (41) 
adg

>  <m_score__min__energy>  (41) 
-7.6200000000000001

>  <m_primary>  (41) 
energy

$$$$
41:0
     RDKit          3D

 32 34  0  0  0  0  0  0  0  0999 V2000
   56.4190   30.1420   43.8990 C   0  0  0  0  0  0  0  0  0  0  0  0
   56.8380   31.2020   44.8270 N   0  0  0  0  0  0  0  0  0  0  0  0
   57.3980   32.3650   44.1210 C   0  0  0  0  0  0  0  0  0  0  0  0
   58.6530   32.8100   44.8700 C   0  0  0  0  0  0  0  0  0  0  0  0
   58.6880   31.9650   46.1440 C   0  0  2  0  0  0  0  0  0  0  0  0
   58.0380   32.6890   47.3520 C   0  0  0  0  0  0  0  0  0  0  0  0
   58.9130   33.8420   47.8700 C   0  0  0  0  0  0  0  0  0  0  0  0
   60.3600   33.4450   47.9990 C   0  0  0  0  0  0  0  0  0  0  0  0
   61.2260   34.2050   48.8010 C   0  0  0  0  0  0  0  0  0  0  0  0
   62.5770   33.8570   48.9040 C   0  0  0  0  0  0  0  0  0  0  0  0
   63.4070   34.5900   49.6860 F   0  0  0  0  0  0  0  0  0  0  0  0
   63.0720   32.7550   48.2010 C   0  0  0  0  0  0  0  0  0  0  0  0
   62.2200   32.0030   47.3880 C   0  0  0  0  0  0  0  0  0  0  0  0
   60.8680   32.3480   47.2750 C   0  0  0  0  0  0  0  0  0  0  0  0
   60.0300   31.5810   46.4600 O   0  0  0  0  0  0  0  0  0  0  0  0
   57.8790   30.7340   45.7490 C   0  0  0  0  0  0  0  0  0  0  0  0
   56.0738   29.2686   44.4717 H   0  0  0  0  0  0  0  0  0  0  0  0
   55.5996   30.5122   43.2654 H   0  0  0  0  0  0  0  0  0  0  0  0
   57.2701   29.8519   43.2654 H   0  0  0  0  0  0  0  0  0  0  0  0
   57.6578   32.0862   43.0891 H   0  0  0  0  0  0  0  0  0  0  0  0
   56.6627   33.1824   44.0862 H   0  0  0  0  0  0  0  0  0  0  0  0
   59.5502   32.6252   44.2611 H   0  0  0  0  0  0  0  0  0  0  0  0
   58.6348   33.8868   45.0942 H   0  0  0  0  0  0  0  0  0  0  0  0
   57.0638   33.0942   47.0411 H   0  0  0  0  0  0  0  0  0  0  0  0
   57.9229   31.9574   48.1653 H   0  0  0  0  0  0  0  0  0  0  0  0
   58.8385   34.6859   47.1684 H   0  0  0  0  0  0  0  0  0  0  0  0
   58.5486   34.1192   48.8702 H   0  0  0  0  0  0  0  0  0  0  0  0
   60.8410   35.0769   49.3502 H   0  0  0  0  0  0  0  0  0  0  0  0
   64.1334   32.4795   48.2879 H   0  0  0  0  0  0  0  0  0  0  0  0
   62.6129   31.1371   46.8350 H   0  0  0  0  0  0  0  0  0  0  0  0
   58.5260   29.9973   45.2503 H   0  0  0  0  0  0  0  0  0  0  0  0
   57.4404   30.2447   46.6311 H   0  0  0  0  0  0  0  0  0  0  0  0
  1  2  1  0
  2  3  1  0
  3  4  1  0
  4  5  1  0
  5  6  1  0
  6  7  1  0
  7  8  1  0
  8  9  2  0
  9 10  1  0
 10 11  1  0
 10 12  2  0
 12 13  1  0
 13 14  2  0
 14 15  1  0
  5 16  1  0
 16  2  1  0
  5 15  1  1
 14  8  1  0
  1 17  1  0
  1 18  1  0
  1 19  1  0
  3 20  1  0
  3 21  1  0
  4 22  1  0
  4 23  1  0
  6 24  1  0
  6 25  1  0
  7 26  1  0
  7 27  1  0
  9 28  1  0
 12 29  1  0
 13 30  1  0
 16 31  1  0
 16 32  1  0
M  END
>  <UniqueID>  (42) 
39

>  <SMILES>  (42) 
CN1CC[C@@]2(CCc3cc(F)ccc3O2)C1

>  <Energy>  (42) 
37.23949959984465

>  <Genealogy>  (42) 
CN1CC[C@@]2(CCc3cc(F)ccc3O2)C1 (chirality)
CN1CC[C@@]2(CCc3cc(F)ccc3O2)C1 (3D coordinates assigned)
CN1CC[C@@]2(CCc3cc(F)ccc3O2)C1 (nonaromatic ring conformer: 37.23949959984465 kcal/mol)

>  <smiles>  (42) 
CN1CCC2(CCc3cc(F)ccc3O2)C1

>  <score_type>  (42) 
oracle

>  <origin>  (42) 
adg

>  <m_score__min__energy>  (42) 
-6.0999999999999996

>  <m_primary>  (42) 
energy

$$$$
42:0
     RDKit          3D

 67 70  0  0  0  0  0  0  0  0999 V2000
   58.5070   34.2330   52.4880 C   0  0  0  0  0  0  0  0  0  0  0  0
   59.3950   33.0640   52.8300 C   0  0  0  0  0  0  0  0  0  0  0  0
   58.7400   31.7720   53.2530 C   0  0  0  0  0  0  0  0  0  0  0  0
   60.7410   33.2170   52.8150 C   0  0  0  0  0  0  0  0  0  0  0  0
   61.5190   33.8580   51.6890 C   0  0  0  0  0  0  0  0  0  0  0  0
   62.9310   33.2540   51.5430 C   0  0  0  0  0  0  0  0  0  0  0  0
   63.4040   33.1090   50.0550 C   0  0  1  0  0  0  0  0  0  0  0  0
   64.9520   33.0950   50.0990 C   0  0  0  0  0  0  0  0  0  0  0  0
   62.8390   31.8110   49.3280 C   0  0  1  0  0  0  0  0  0  0  0  0
   62.0970   30.8370   50.2550 C   0  0  0  0  0  0  0  0  0  0  0  0
   60.6430   31.2740   50.2580 C   0  0  2  0  0  0  0  0  0  0  0  0
   59.7980   30.2020   50.6000 O   0  0  0  0  0  0  0  0  0  0  0  0
   60.3500   31.8890   48.8410 C   0  0  2  0  0  0  0  0  0  0  0  0
   59.6970   33.2830   49.1170 C   0  0  0  0  0  0  0  0  0  0  0  0
   59.3170   31.0080   48.0240 C   0  0  1  0  0  0  0  0  0  0  0  0
   58.6880   31.6990   46.7830 C   0  0  0  0  0  0  0  0  0  0  0  0
   57.7640   30.7810   46.0310 C   0  0  0  0  0  0  0  0  0  0  0  0
   56.9350   31.2940   45.2330 O   0  0  0  0  0  0  0  0  0  0  0  0
   57.8560   29.3040   46.1780 C   0  0  0  0  0  0  0  0  0  0  0  0
   56.9300   28.4360   45.5570 C   0  0  0  0  0  0  0  0  0  0  0  0
   55.8900   28.9300   44.7780 O   0  0  0  0  0  0  0  0  0  0  0  0
   57.0430   27.0530   45.7200 C   0  0  0  0  0  0  0  0  0  0  0  0
   58.0690   26.5120   46.4960 C   0  0  0  0  0  0  0  0  0  0  0  0
   58.1660   25.1300   46.6430 O   0  0  0  0  0  0  0  0  0  0  0  0
   58.9900   27.3620   47.1190 C   0  0  0  0  0  0  0  0  0  0  0  0
   58.8850   28.7550   46.9770 C   0  0  0  0  0  0  0  0  0  0  0  0
   59.9250   29.6490   47.6220 C   0  0  1  0  0  0  0  0  0  0  0  0
   61.1080   29.8290   46.6770 C   0  0  0  0  0  0  0  0  0  0  0  0
   62.0870   30.8770   47.1280 C   0  0  0  0  0  0  0  0  0  0  0  0
   63.1940   30.8420   46.6050 O   0  0  0  0  0  0  0  0  0  0  0  0
   61.7940   32.0020   48.1480 C   0  0  2  0  0  0  0  0  0  0  0  0
   61.9570   33.3210   47.3420 C   0  0  0  0  0  0  0  0  0  0  0  0
   58.1487   34.7047   53.4149 H   0  0  0  0  0  0  0  0  0  0  0  0
   59.0774   34.9670   51.8998 H   0  0  0  0  0  0  0  0  0  0  0  0
   57.6470   33.8804   51.8998 H   0  0  0  0  0  0  0  0  0  0  0  0
   58.7123   31.7174   54.3513 H   0  0  0  0  0  0  0  0  0  0  0  0
   57.7140   31.7345   52.8580 H   0  0  0  0  0  0  0  0  0  0  0  0
   59.3162   30.9223   52.8580 H   0  0  0  0  0  0  0  0  0  0  0  0
   61.3073   32.8489   53.6832 H   0  0  0  0  0  0  0  0  0  0  0  0
   60.9698   33.7079   50.7478 H   0  0  0  0  0  0  0  0  0  0  0  0
   61.6300   34.9278   51.9196 H   0  0  0  0  0  0  0  0  0  0  0  0
   63.6432   33.9043   52.0720 H   0  0  0  0  0  0  0  0  0  0  0  0
   62.8924   32.2402   51.9682 H   0  0  0  0  0  0  0  0  0  0  0  0
   63.0118   33.9466   49.4596 H   0  0  0  0  0  0  0  0  0  0  0  0
   65.2890   33.0920   51.1461 H   0  0  0  0  0  0  0  0  0  0  0  0
   65.3251   32.1934   49.5911 H   0  0  0  0  0  0  0  0  0  0  0  0
   65.3414   33.9897   49.5911 H   0  0  0  0  0  0  0  0  0  0  0  0
   63.8001   31.4422   48.9402 H   0  0  0  0  0  0  0  0  0  0  0  0
   62.1846   29.8084   49.8751 H   0  0  0  0  0  0  0  0  0  0  0  0
   62.5203   30.8510   51.2702 H   0  0  0  0  0  0  0  0  0  0  0  0
   60.4448   32.0381   51.0241 H   0  0  0  0  0  0  0  0  0  0  0  0
   60.3490   29.3760   50.5660 H   0  0  0  0  0  0  0  0  0  0  0  0
   59.6215   33.4441   50.2025 H   0  0  0  0  0  0  0  0  0  0  0  0
   60.3184   34.0737   48.6713 H   0  0  0  0  0  0  0  0  0  0  0  0
   58.6917   33.3117   48.6713 H   0  0  0  0  0  0  0  0  0  0  0  0
   58.4865   30.8531   48.7284 H   0  0  0  0  0  0  0  0  0  0  0  0
   58.1187   32.5788   47.1176 H   0  0  0  0  0  0  0  0  0  0  0  0
   59.5053   31.9861   46.1051 H   0  0  0  0  0  0  0  0  0  0  0  0
   56.3174   26.3852   45.2327 H   0  0  0  0  0  0  0  0  0  0  0  0
   57.8510   24.4960   45.9180 H   0  0  0  0  0  0  0  0  0  0  0  0
   59.8029   26.9352   47.7249 H   0  0  0  0  0  0  0  0  0  0  0  0
   60.2830   29.1679   48.5441 H   0  0  0  0  0  0  0  0  0  0  0  0
   61.6388   28.8688   46.5981 H   0  0  0  0  0  0  0  0  0  0  0  0
   60.7006   30.1636   45.7116 H   0  0  0  0  0  0  0  0  0  0  0  0
   62.0614   34.1659   48.0386 H   0  0  0  0  0  0  0  0  0  0  0  0
   62.8538   33.2551   46.7085 H   0  0  0  0  0  0  0  0  0  0  0  0
   61.0711   33.4754   46.7085 H   0  0  0  0  0  0  0  0  0  0  0  0
  1  2  1  0
  2  3  1  0
  2  4  2  3
  4  5  1  0
  5  6  1  0
  6  7  1  0
  7  8  1  0
  7  9  1  0
  9 10  1  0
 10 11  1  0
 11 12  1  0
 11 13  1  0
 13 14  1  1
 13 15  1  0
 15 16  1  0
 16 17  1  0
 17 18  2  0
 17 19  1  0
 19 20  2  0
 20 21  1  0
 20 22  1  0
 22 23  2  0
 23 24  1  0
 23 25  1  0
 25 26  2  0
 26 27  1  0
 27 28  1  0
 28 29  1  0
 29 30  2  0
 29 31  1  0
 31 32  1  6
 31  9  1  0
 31 13  1  0
 27 15  1  0
 26 19  1  0
  1 33  1  0
  1 34  1  0
  1 35  1  0
  3 36  1  0
  3 37  1  0
  3 38  1  0
  4 39  1  0
  5 40  1  0
  5 41  1  0
  6 42  1  0
  6 43  1  0
  7 44  1  6
  8 45  1  0
  8 46  1  0
  8 47  1  0
  9 48  1  6
 10 49  1  0
 10 50  1  0
 11 51  1  1
 12 52  1  0
 14 53  1  0
 14 54  1  0
 14 55  1  0
 15 56  1  1
 16 57  1  0
 16 58  1  0
 22 59  1  0
 24 60  1  0
 25 61  1  0
 27 62  1  1
 28 63  1  0
 28 64  1  0
 32 65  1  0
 32 66  1  0
 32 67  1  0
M  CHG  1  21  -1
M  END
>  <UniqueID>  (43) 
40

>  <SMILES>  (43) 
CC(C)=CCC[C@@H](C)[C@H]1CC(O)C2(C)C3CC(=O)c4c([O-])cc(O)cc4C3CC(=O)C12C

>  <Energy>  (43) 
105.84037762933275

>  <Genealogy>  (43) 
CC(C)=CCCC(C)C1CC(O)C2(C)C3CC(=O)c4c([O-])cc(O)cc4C3CC(=O)C12C (protonated)
CC(C)=CCC[C@@H](C)[C@H]1CC(O)C2(C)C3CC(=O)c4c([O-])cc(O)cc4C3CC(=O)C12C (chirality)
CC(C)=CCC[C@@H](C)[C@H]1CC(O)C2(C)C3CC(=O)c4c([O-])cc(O)cc4C3CC(=O)C12C (3D coordinates assigned)
CC(C)=CCC[C@@H](C)[C@H]1CC(O)C2(C)C3CC(=O)c4c([O-])cc(O)cc4C3CC(=O)C12C (nonaromatic ring conformer: 105.84037762933275 kcal/mol)

>  <smiles>  (43) 
CC(C)=CCCC(C)C1CC(O)C2(C)C3CC(=O)c4c(O)cc(O)cc4C3CC(=O)C12C

>  <score_type>  (43) 
oracle

>  <origin>  (43) 
adg

>  <m_score__min__energy>  (43) 
-9.4100000000000001

>  <m_primary>  (43) 
energy

$$$$
43:0
     RDKit          3D

 33 33  0  0  0  0  0  0  0  0999 V2000
   55.1650   24.5330   46.7140 O   0  0  0  0  0  0  0  0  0  0  0  0
   55.6800   25.4210   45.9860 C   0  0  0  0  0  0  0  0  0  0  0  0
   55.1540   26.7080   45.9930 O   0  0  0  0  0  0  0  0  0  0  0  0
   56.8160   25.0820   45.0750 C   0  0  0  0  0  0  0  0  0  0  0  0
   57.3860   26.3110   44.5170 N   0  0  0  0  0  0  0  0  0  0  0  0
   58.7560   26.5080   45.0090 C   0  0  0  0  0  0  0  0  0  0  0  0
   58.7450   27.2220   46.3730 C   0  0  0  0  0  0  0  0  0  0  0  0
   57.6160   28.1590   46.5210 N   0  0  0  0  0  0  0  0  0  0  0  0
   57.8460   29.4350   45.8300 C   0  0  0  0  0  0  0  0  0  0  0  0
   56.6080   29.8630   45.1050 C   0  0  0  0  0  0  0  0  0  0  0  0
   55.7230   29.0110   44.8250 O   0  0  0  0  0  0  0  0  0  0  0  0
   56.4210   31.2470   44.7870 N   0  0  0  0  0  0  0  0  0  0  0  0
   57.3260   32.3200   45.0860 C   0  0  0  0  0  0  0  0  0  0  0  0
   57.4380   32.7520   46.4140 C   0  0  0  0  0  0  0  0  0  0  0  0
   58.3240   33.7800   46.7520 C   0  0  0  0  0  0  0  0  0  0  0  0
   59.1160   34.3730   45.7640 C   0  0  0  0  0  0  0  0  0  0  0  0
   59.0300   33.9320   44.4410 C   0  0  0  0  0  0  0  0  0  0  0  0
   58.1440   32.9040   44.1000 C   0  0  0  0  0  0  0  0  0  0  0  0
   57.5906   24.5440   45.6412 H   0  0  0  0  0  0  0  0  0  0  0  0
   56.4485   24.4465   44.2558 H   0  0  0  0  0  0  0  0  0  0  0  0
   56.8060   27.1160   44.8530 H   0  0  0  0  0  0  0  0  0  0  0  0
   59.2453   25.5288   45.1175 H   0  0  0  0  0  0  0  0  0  0  0  0
   59.3056   27.1304   44.2875 H   0  0  0  0  0  0  0  0  0  0  0  0
   58.6773   26.4628   47.1661 H   0  0  0  0  0  0  0  0  0  0  0  0
   59.6727   27.8086   46.4461 H   0  0  0  0  0  0  0  0  0  0  0  0
   56.7380   27.7270   46.1510 H   0  0  0  0  0  0  0  0  0  0  0  0
   58.1184   30.2036   46.5682 H   0  0  0  0  0  0  0  0  0  0  0  0
   58.6608   29.3064   45.1023 H   0  0  0  0  0  0  0  0  0  0  0  0
   56.8252   32.2796   47.1959 H   0  0  0  0  0  0  0  0  0  0  0  0
   58.3978   34.1219   47.7949 H   0  0  0  0  0  0  0  0  0  0  0  0
   59.8070   35.1870   46.0284 H   0  0  0  0  0  0  0  0  0  0  0  0
   59.6598   34.3937   43.6663 H   0  0  0  0  0  0  0  0  0  0  0  0
   58.0865   32.5515   43.0596 H   0  0  0  0  0  0  0  0  0  0  0  0
  1  2  2  0
  2  3  1  0
  2  4  1  0
  4  5  1  0
  5  6  1  0
  6  7  1  0
  7  8  1  0
  8  9  1  0
  9 10  1  0
 10 11  2  0
 10 12  1  0
 12 13  1  0
 13 14  2  0
 14 15  1  0
 15 16  2  0
 16 17  1  0
 17 18  2  0
 18 13  1  0
  4 19  1  0
  4 20  1  0
  5 21  1  0
  6 22  1  0
  6 23  1  0
  7 24  1  0
  7 25  1  0
  8 26  1  0
  9 27  1  0
  9 28  1  0
 14 29  1  0
 15 30  1  0
 16 31  1  0
 17 32  1  0
 18 33  1  0
M  CHG  2   3  -1  12  -1
M  END
>  <UniqueID>  (44) 
41

>  <SMILES>  (44) 
O=C([O-])CNCCNCC(=O)[N-]c1ccccc1

>  <Energy>  (44) 
30.37657260900274

>  <Genealogy>  (44) 
O=C([O-])CNCCNCC(=O)[N-]c1ccccc1 (protonated)
O=C([O-])CNCCNCC(=O)[N-]c1ccccc1 (3D coordinates assigned)
O=C([O-])CNCCNCC(=O)[N-]c1ccccc1 (optimized conformer: 30.37657260900274 kcal/mol)

>  <smiles>  (44) 
O=C(O)CNCCNCC(=O)Nc1ccccc1

>  <score_type>  (44) 
oracle

>  <origin>  (44) 
adg

>  <m_score__min__energy>  (44) 
-10.74

>  <m_primary>  (44) 
energy

$$$$
44:0
     RDKit          3D

 34 36  0  0  0  0  0  0  0  0999 V2000
   59.2464   28.8764   46.3699 H   0  0  0  0  0  0  0  0  0  0  0  0
   59.0570   29.9490   46.2160 C   0  0  0  0  0  0  0  0  0  0  0  0
   57.9630   30.4620   45.6500 C   0  0  0  0  0  0  0  0  0  0  0  0
   56.8270   29.6520   45.1710 C   0  0  0  0  0  0  0  0  0  0  0  0
   55.9010   30.1880   44.5060 O   0  0  0  0  0  0  0  0  0  0  0  0
   56.7880   28.2820   45.4590 O   0  0  0  0  0  0  0  0  0  0  0  0
   57.7640   27.3520   44.9930 C   0  0  0  0  0  0  0  0  0  0  0  0
   57.3626   26.3318   45.0833 H   0  0  0  0  0  0  0  0  0  0  0  0
   58.6738   27.4596   45.6018 H   0  0  0  0  0  0  0  0  0  0  0  0
   58.1150   27.6240   43.5360 C   0  0  0  0  0  0  0  0  0  0  0  0
   58.9836   28.2971   43.4876 H   0  0  0  0  0  0  0  0  0  0  0  0
   58.3576   26.6757   43.0341 H   0  0  0  0  0  0  0  0  0  0  0  0
   57.2573   28.0956   43.0341 H   0  0  0  0  0  0  0  0  0  0  0  0
   58.1120   31.9220   45.5870 C   0  0  0  0  0  0  0  0  0  0  0  0
   57.2830   32.8850   44.9990 C   0  0  0  0  0  0  0  0  0  0  0  0
   56.3078   32.6039   44.5747 H   0  0  0  0  0  0  0  0  0  0  0  0
   57.7240   34.2170   44.9630 C   0  0  0  0  0  0  0  0  0  0  0  0
   57.0778   34.9963   44.5326 H   0  0  0  0  0  0  0  0  0  0  0  0
   58.9890   34.5600   45.4750 C   0  0  0  0  0  0  0  0  0  0  0  0
   59.3341   35.6033   45.4252 H   0  0  0  0  0  0  0  0  0  0  0  0
   59.8120   33.5810   46.0480 C   0  0  0  0  0  0  0  0  0  0  0  0
   60.8154   33.8376   46.4185 H   0  0  0  0  0  0  0  0  0  0  0  0
   59.3300   32.2690   46.1390 C   0  0  0  0  0  0  0  0  0  0  0  0
   59.9690   31.0310   46.6020 C   0  0  0  0  0  0  0  0  0  0  0  0
   61.1170   30.8420   47.2680 C   0  0  0  0  0  0  0  0  0  0  0  0
   61.4499   29.8061   47.4294 H   0  0  0  0  0  0  0  0  0  0  0  0
   61.9610   31.9200   47.7970 C   0  0  0  0  0  0  0  0  0  0  0  0
   63.4120   32.4490   47.1250 S   0  0  0  0  0  0  0  0  0  0  0  0
   63.5990   33.7900   48.1230 C   0  0  0  0  0  0  0  0  0  0  0  0
   64.4459   34.4919   48.1084 H   0  0  0  0  0  0  0  0  0  0  0  0
   62.4990   33.8580   48.9690 C   0  0  0  0  0  0  0  0  0  0  0  0
   62.3677   34.6490   49.7221 H   0  0  0  0  0  0  0  0  0  0  0  0
   61.5740   32.8270   48.7740 C   0  0  0  0  0  0  0  0  0  0  0  0
   60.6337   32.7433   49.3386 H   0  0  0  0  0  0  0  0  0  0  0  0
  1  2  1  0
  2  3  2  0
  3  4  1  0
  4  5  2  0
  4  6  1  0
  6  7  1  0
  7  8  1  0
  7  9  1  0
  7 10  1  0
 10 11  1  0
 10 12  1  0
 10 13  1  0
  3 14  1  0
 14 15  2  0
 15 16  1  0
 15 17  1  0
 17 18  1  0
 17 19  2  0
 19 20  1  0
 19 21  1  0
 21 22  1  0
 21 23  2  0
 23 24  1  0
 24 25  2  0
 25 26  1  0
 25 27  1  0
 27 28  1  0
 28 29  1  0
 29 30  1  0
 29 31  2  0
 31 32  1  0
 31 33  1  0
 33 34  1  0
 24  2  1  0
 33 27  2  0
 23 14  1  0
M  END
>  <UniqueID>  (45) 
42

>  <SMILES>  (45) 
CCOC(=O)C1=C/C(=C/c2cccs2)c2ccccc21

>  <Energy>  (45) 
93.42752199854107

>  <Genealogy>  (45) 
CCOC(=O)C1=C/C(=C/c2cccs2)c2ccccc21 (cis-trans isomerization)
CCOC(=O)C1=C/C(=C/c2cccs2)c2ccccc21 (3D coordinates assigned)
CCOC(=O)C1=C/C(=C/c2cccs2)c2ccccc21 (nonaromatic ring conformer: 93.42752199854107 kcal/mol)

>  <smiles>  (45) 
CCOC(=O)C1=CC(=Cc2cccs2)c2ccccc21

>  <score_type>  (45) 
oracle

>  <origin>  (45) 
adg

>  <m_score__min__energy>  (45) 
-7.6399999999999997

>  <m_primary>  (45) 
energy

$$$$
45:0
     RDKit          3D

 45 47  0  0  0  0  0  0  0  0999 V2000
   59.7360   25.6650   46.0590 C   0  0  0  0  0  0  0  0  0  0  0  0
   58.3220   25.9060   46.3880 N   0  0  0  0  0  0  0  0  0  0  0  0
   58.1470   26.9950   47.3720 C   0  0  0  0  0  0  0  0  0  0  0  0
   58.3890   28.3830   46.7630 C   0  0  0  0  0  0  0  0  0  0  0  0
   57.6240   28.5280   45.5230 N   0  0  0  0  0  0  0  0  0  0  0  0
   56.9400   29.7530   45.2170 C   0  0  0  0  0  0  0  0  0  0  0  0
   55.7300   29.7140   44.8750 O   0  0  0  0  0  0  0  0  0  0  0  0
   57.6080   31.0190   45.2540 N   0  0  0  0  0  0  0  0  0  0  0  0
   56.9970   32.2930   44.8940 C   0  0  0  0  0  0  0  0  0  0  0  0
   57.3600   33.3680   45.9240 C   0  0  0  0  0  0  0  0  0  0  0  0
   58.8420   33.7760   45.8760 C   0  0  0  0  0  0  0  0  0  0  0  0
   59.7200   32.7970   46.6040 C   0  0  0  0  0  0  0  0  0  0  0  0
   59.2430   31.6990   47.2330 N   0  0  0  0  0  0  0  0  0  0  0  0
   60.3050   31.1130   47.8270 C   0  0  0  0  0  0  0  0  0  0  0  0
   61.4170   31.8740   47.5420 C   0  0  0  0  0  0  0  0  0  0  0  0
   62.7370   31.7000   47.9570 C   0  0  0  0  0  0  0  0  0  0  0  0
   63.6750   32.6600   47.5500 C   0  0  0  0  0  0  0  0  0  0  0  0
   63.2780   33.7520   46.7540 C   0  0  0  0  0  0  0  0  0  0  0  0
   61.9320   33.8770   46.3730 C   0  0  0  0  0  0  0  0  0  0  0  0
   61.0550   32.9200   46.7810 N   0  0  0  0  0  0  0  0  0  0  0  0
   57.6970   27.4650   44.5220 C   0  0  0  0  0  0  0  0  0  0  0  0
   57.4820   26.0970   45.1860 C   0  0  0  0  0  0  0  0  0  0  0  0
   60.3169   25.5660   46.9879 H   0  0  0  0  0  0  0  0  0  0  0  0
   59.8231   24.7391   45.4716 H   0  0  0  0  0  0  0  0  0  0  0  0
   60.1249   26.5098   45.4716 H   0  0  0  0  0  0  0  0  0  0  0  0
   57.1194   26.9556   47.7626 H   0  0  0  0  0  0  0  0  0  0  0  0
   58.8894   26.8464   48.1700 H   0  0  0  0  0  0  0  0  0  0  0  0
   58.0712   29.1551   47.4791 H   0  0  0  0  0  0  0  0  0  0  0  0
   59.4603   28.4972   46.5409 H   0  0  0  0  0  0  0  0  0  0  0  0
   57.3608   32.6026   43.9031 H   0  0  0  0  0  0  0  0  0  0  0  0
   55.9039   32.1720   44.8738 H   0  0  0  0  0  0  0  0  0  0  0  0
   56.7454   34.2595   45.7305 H   0  0  0  0  0  0  0  0  0  0  0  0
   57.1695   32.9437   46.9208 H   0  0  0  0  0  0  0  0  0  0  0  0
   59.1624   33.8268   44.8249 H   0  0  0  0  0  0  0  0  0  0  0  0
   58.9412   34.7537   46.3702 H   0  0  0  0  0  0  0  0  0  0  0  0
   58.2470   31.3850   47.2810 H   0  0  0  0  0  0  0  0  0  0  0  0
   60.2854   30.1932   48.4300 H   0  0  0  0  0  0  0  0  0  0  0  0
   63.0313   30.8424   48.5799 H   0  0  0  0  0  0  0  0  0  0  0  0
   64.7273   32.5594   47.8544 H   0  0  0  0  0  0  0  0  0  0  0  0
   64.0166   34.5013   46.4331 H   0  0  0  0  0  0  0  0  0  0  0  0
   61.5955   34.7266   45.7606 H   0  0  0  0  0  0  0  0  0  0  0  0
   56.9180   27.6268   43.7624 H   0  0  0  0  0  0  0  0  0  0  0  0
   58.6905   27.4833   44.0502 H   0  0  0  0  0  0  0  0  0  0  0  0
   56.4251   26.0102   45.4782 H   0  0  0  0  0  0  0  0  0  0  0  0
   57.7677   25.3255   44.4558 H   0  0  0  0  0  0  0  0  0  0  0  0
  1  2  1  0
  2  3  1  0
  3  4  1  0
  4  5  1  0
  5  6  1  0
  6  7  2  0
  6  8  1  0
  8  9  1  0
  9 10  1  0
 10 11  1  0
 11 12  1  0
 12 13  2  0
 13 14  1  0
 14 15  2  0
 15 16  1  0
 16 17  2  0
 17 18  1  0
 18 19  2  0
 19 20  1  0
  5 21  1  0
 21 22  1  0
 22  2  1  0
 20 12  1  0
 20 15  1  0
  1 23  1  0
  1 24  1  0
  1 25  1  0
  3 26  1  0
  3 27  1  0
  4 28  1  0
  4 29  1  0
  9 30  1  0
  9 31  1  0
 10 32  1  0
 10 33  1  0
 11 34  1  0
 11 35  1  0
 13 36  1  0
 14 37  1  0
 16 38  1  0
 17 39  1  0
 18 40  1  0
 19 41  1  0
 21 42  1  0
 21 43  1  0
 22 44  1  0
 22 45  1  0
M  CHG  2   8  -1  13   1
M  END
>  <UniqueID>  (46) 
43

>  <SMILES>  (46) 
CN1CCN(C(=O)[N-]CCCc2[nH+]cc3ccccn23)CC1

>  <Energy>  (46) 
80.46952504638423

>  <Genealogy>  (46) 
CN1CCN(C(=O)[N-]CCCc2[nH+]cc3ccccn23)CC1 (protonated)
CN1CCN(C(=O)[N-]CCCc2[nH+]cc3ccccn23)CC1 (3D coordinates assigned)
CN1CCN(C(=O)[N-]CCCc2[nH+]cc3ccccn23)CC1 (nonaromatic ring conformer: 80.46952504638423 kcal/mol)

>  <smiles>  (46) 
CN1CCN(C(=O)NCCCc2ncc3ccccn23)CC1

>  <score_type>  (46) 
oracle

>  <origin>  (46) 
adg

>  <m_score__min__energy>  (46) 
-7.8200000000000003

>  <m_primary>  (46) 
energy

$$$$
46:0
     RDKit          3D

 59 62  0  0  0  0  0  0  0  0999 V2000
   59.2420   33.6220   51.6740 C   0  0  0  0  0  0  0  0  0  0  0  0
   59.8130   34.1420   50.4780 O   0  0  0  0  0  0  0  0  0  0  0  0
   59.4250   33.7610   49.1850 C   0  0  0  0  0  0  0  0  0  0  0  0
   59.7520   34.5160   48.0430 C   0  0  0  0  0  0  0  0  0  0  0  0
   59.3410   34.0940   46.7760 C   0  0  0  0  0  0  0  0  0  0  0  0
   58.5950   32.9120   46.6240 C   0  0  0  0  0  0  0  0  0  0  0  0
   58.1520   32.4620   45.2800 C   0  0  0  0  0  0  0  0  0  0  0  0
   58.5560   33.1480   44.1310 C   0  0  0  0  0  0  0  0  0  0  0  0
   58.1300   32.7040   42.8860 C   0  0  0  0  0  0  0  0  0  0  0  0
   57.3080   31.5840   42.8030 C   0  0  0  0  0  0  0  0  0  0  0  0
   56.9200   31.1890   41.6700 O   0  0  0  0  0  0  0  0  0  0  0  0
   56.9300   30.9290   43.9480 N   0  0  0  0  0  0  0  0  0  0  0  0
   56.0380   29.7580   43.8960 C   0  0  0  0  0  0  0  0  0  0  0  0
   56.1490   28.9190   45.1760 C   0  0  0  0  0  0  0  0  0  0  0  0
   57.5290   28.2370   45.3030 C   0  0  0  0  0  0  0  0  0  0  0  0
   58.5440   29.0670   45.9880 N   0  0  0  0  0  0  0  0  0  0  0  0
   59.8900   28.9640   45.3980 C   0  0  0  0  0  0  0  0  0  0  0  0
   60.7610   30.0880   45.9520 C   0  0  0  0  0  0  0  0  0  0  0  0
   60.6920   30.1330   47.4200 N   0  0  0  0  0  0  0  0  0  0  0  0
   61.5970   30.9950   48.1430 C   0  0  0  0  0  0  0  0  0  0  0  0
   61.7330   30.8780   49.5390 C   0  0  0  0  0  0  0  0  0  0  0  0
   62.6070   31.7160   50.2390 C   0  0  0  0  0  0  0  0  0  0  0  0
   63.3520   32.6790   49.5560 C   0  0  0  0  0  0  0  0  0  0  0  0
   64.1990   33.4910   50.2370 F   0  0  0  0  0  0  0  0  0  0  0  0
   63.2240   32.8080   48.1700 C   0  0  0  0  0  0  0  0  0  0  0  0
   62.3530   31.9730   47.4660 C   0  0  0  0  0  0  0  0  0  0  0  0
   59.8810   29.1400   48.1390 C   0  0  0  0  0  0  0  0  0  0  0  0
   58.5090   28.9410   47.4660 C   0  0  0  0  0  0  0  0  0  0  0  0
   57.3450   31.3680   45.1470 N   0  0  0  0  0  0  0  0  0  0  0  0
   58.2710   32.1610   47.7670 C   0  0  0  0  0  0  0  0  0  0  0  0
   58.6830   32.5840   49.0330 C   0  0  0  0  0  0  0  0  0  0  0  0
   59.7391   34.0747   52.5446 H   0  0  0  0  0  0  0  0  0  0  0  0
   58.1681   33.8588   51.7007 H   0  0  0  0  0  0  0  0  0  0  0  0
   59.3776   32.5307   51.7007 H   0  0  0  0  0  0  0  0  0  0  0  0
   60.3343   35.4433   48.1485 H   0  0  0  0  0  0  0  0  0  0  0  0
   59.6032   34.6914   45.8903 H   0  0  0  0  0  0  0  0  0  0  0  0
   59.2057   34.0319   44.2123 H   0  0  0  0  0  0  0  0  0  0  0  0
   58.4398   33.2333   41.9728 H   0  0  0  0  0  0  0  0  0  0  0  0
   54.9996   30.1026   43.7817 H   0  0  0  0  0  0  0  0  0  0  0  0
   56.3348   29.1315   43.0419 H   0  0  0  0  0  0  0  0  0  0  0  0
   55.9959   29.5754   46.0453 H   0  0  0  0  0  0  0  0  0  0  0  0
   55.3831   28.1306   45.1330 H   0  0  0  0  0  0  0  0  0  0  0  0
   57.4036   27.3034   45.8710 H   0  0  0  0  0  0  0  0  0  0  0  0
   57.8952   28.0617   44.2807 H   0  0  0  0  0  0  0  0  0  0  0  0
   60.3333   27.9914   45.6577 H   0  0  0  0  0  0  0  0  0  0  0  0
   59.8241   29.0492   44.3033 H   0  0  0  0  0  0  0  0  0  0  0  0
   61.8040   29.9191   45.6459 H   0  0  0  0  0  0  0  0  0  0  0  0
   60.3929   31.0452   45.5542 H   0  0  0  0  0  0  0  0  0  0  0  0
   61.1478   30.1222   50.0833 H   0  0  0  0  0  0  0  0  0  0  0  0
   62.7076   31.6161   51.3298 H   0  0  0  0  0  0  0  0  0  0  0  0
   63.8101   33.5682   47.6328 H   0  0  0  0  0  0  0  0  0  0  0  0
   62.2565   32.0796   46.3754 H   0  0  0  0  0  0  0  0  0  0  0  0
   60.4173   28.1796   48.1493 H   0  0  0  0  0  0  0  0  0  0  0  0
   59.7145   29.5050   49.1632 H   0  0  0  0  0  0  0  0  0  0  0  0
   58.1405   27.9362   47.7199 H   0  0  0  0  0  0  0  0  0  0  0  0
   57.8495   29.7379   47.8403 H   0  0  0  0  0  0  0  0  0  0  0  0
   57.0240   30.8710   46.0090 H   0  0  0  0  0  0  0  0  0  0  0  0
   57.6888   31.2334   47.6639 H   0  0  0  0  0  0  0  0  0  0  0  0
   58.4218   31.9864   49.9188 H   0  0  0  0  0  0  0  0  0  0  0  0
  1  2  1  0
  2  3  1  0
  3  4  2  0
  4  5  1  0
  5  6  2  0
  6  7  1  0
  7  8  1  0
  8  9  2  0
  9 10  1  0
 10 11  2  0
 10 12  1  0
 12 13  1  0
 13 14  1  0
 14 15  1  0
 15 16  1  0
 16 17  1  0
 17 18  1  0
 18 19  1  0
 19 20  1  0
 20 21  2  0
 21 22  1  0
 22 23  2  0
 23 24  1  0
 23 25  1  0
 25 26  2  0
 19 27  1  0
 27 28  1  0
 12 29  1  0
  6 30  1  0
 30 31  2  0
 31  3  1  0
 29  7  2  0
 28 16  1  0
 26 20  1  0
  1 32  1  0
  1 33  1  0
  1 34  1  0
  4 35  1  0
  5 36  1  0
  8 37  1  0
  9 38  1  0
 13 39  1  0
 13 40  1  0
 14 41  1  0
 14 42  1  0
 15 43  1  0
 15 44  1  0
 17 45  1  0
 17 46  1  0
 18 47  1  0
 18 48  1  0
 21 49  1  0
 22 50  1  0
 25 51  1  0
 26 52  1  0
 27 53  1  0
 27 54  1  0
 28 55  1  0
 28 56  1  0
 29 57  1  0
 30 58  1  0
 31 59  1  0
M  CHG  1  29   1
M  END
>  <UniqueID>  (47) 
44

>  <SMILES>  (47) 
COc1ccc(-c2ccc(=O)n(CCCN3CCN(c4ccc(F)cc4)CC3)[nH+]2)cc1

>  <Energy>  (47) 
77.39862608920541

>  <Genealogy>  (47) 
COc1ccc(-c2ccc(=O)n(CCCN3CCN(c4ccc(F)cc4)CC3)[nH+]2)cc1 (protonated)
COc1ccc(-c2ccc(=O)n(CCCN3CCN(c4ccc(F)cc4)CC3)[nH+]2)cc1 (3D coordinates assigned)
COc1ccc(-c2ccc(=O)n(CCCN3CCN(c4ccc(F)cc4)CC3)[nH+]2)cc1 (nonaromatic ring conformer: 77.39862608920541 kcal/mol)

>  <smiles>  (47) 
COc1ccc(-c2ccc(=O)n(CCCN3CCN(c4ccc(F)cc4)CC3)n2)cc1

>  <score_type>  (47) 
oracle

>  <origin>  (47) 
adg

>  <m_score__min__energy>  (47) 
-6.0800000000000001

>  <m_primary>  (47) 
energy

$$$$
47:0
     RDKit          3D

 35 37  0  0  0  0  0  0  0  0999 V2000
   60.2330   21.8450   45.0980 C   0  0  0  0  0  0  0  0  0  0  0  0
   60.4280   23.1560   45.6190 O   0  0  0  0  0  0  0  0  0  0  0  0
   59.4330   24.1450   45.6660 C   0  0  0  0  0  0  0  0  0  0  0  0
   58.1410   23.8080   45.2490 C   0  0  0  0  0  0  0  0  0  0  0  0
   57.1150   24.7570   45.2770 C   0  0  0  0  0  0  0  0  0  0  0  0
   57.3640   26.0660   45.7260 C   0  0  0  0  0  0  0  0  0  0  0  0
   56.2770   27.0710   45.7530 C   0  0  0  0  0  0  0  0  0  0  0  0
   55.0930   26.7150   46.0010 O   0  0  0  0  0  0  0  0  0  0  0  0
   56.5660   28.4530   45.5000 N   0  0  0  0  0  0  0  0  0  0  0  0
   56.9990   28.9650   44.2050 C   0  0  0  0  0  0  0  0  0  0  0  0
   57.3800   30.4150   44.3190 C   0  0  0  0  0  0  0  0  0  0  0  0
   57.3940   31.2480   43.1700 C   0  0  0  0  0  0  0  0  0  0  0  0
   57.7720   32.6000   43.2680 C   0  0  0  0  0  0  0  0  0  0  0  0
   58.1300   33.0780   44.5240 C   0  0  0  0  0  0  0  0  0  0  0  0
   58.5250   34.3130   44.8630 N   0  0  0  0  0  0  0  0  0  0  0  0
   58.7480   34.2160   46.1940 C   0  0  0  0  0  0  0  0  0  0  0  0
   59.1400   35.1860   46.8930 O   0  0  0  0  0  0  0  0  0  0  0  0
   58.5150   32.9840   46.7170 N   0  0  0  0  0  0  0  0  0  0  0  0
   58.1250   32.2850   45.6340 C   0  0  0  0  0  0  0  0  0  0  0  0
   57.7580   30.9430   45.5750 C   0  0  0  0  0  0  0  0  0  0  0  0
   58.6640   26.4040   46.1440 C   0  0  0  0  0  0  0  0  0  0  0  0
   59.6890   25.4540   46.1160 C   0  0  0  0  0  0  0  0  0  0  0  0
   60.1270   21.1322   45.9291 H   0  0  0  0  0  0  0  0  0  0  0  0
   59.3223   21.8272   44.4813 H   0  0  0  0  0  0  0  0  0  0  0  0
   61.0991   21.5630   44.4813 H   0  0  0  0  0  0  0  0  0  0  0  0
   57.9306   22.7876   44.8961 H   0  0  0  0  0  0  0  0  0  0  0  0
   56.1043   24.4774   44.9450 H   0  0  0  0  0  0  0  0  0  0  0  0
   57.8686   28.3873   43.8586 H   0  0  0  0  0  0  0  0  0  0  0  0
   56.1718   28.8674   43.4865 H   0  0  0  0  0  0  0  0  0  0  0  0
   57.1065   30.8326   42.1929 H   0  0  0  0  0  0  0  0  0  0  0  0
   57.7839   33.2545   42.3840 H   0  0  0  0  0  0  0  0  0  0  0  0
   58.6360   35.1490   44.2470 H   0  0  0  0  0  0  0  0  0  0  0  0
   57.7620   30.3135   46.4771 H   0  0  0  0  0  0  0  0  0  0  0  0
   58.8757   27.4245   46.4958 H   0  0  0  0  0  0  0  0  0  0  0  0
   60.7008   25.7307   46.4473 H   0  0  0  0  0  0  0  0  0  0  0  0
  1  2  1  0
  2  3  1  0
  3  4  2  0
  4  5  1  0
  5  6  2  0
  6  7  1  0
  7  8  2  0
  7  9  1  0
  9 10  1  0
 10 11  1  0
 11 12  2  0
 12 13  1  0
 13 14  2  0
 14 15  1  0
 15 16  1  0
 16 17  2  0
 16 18  1  0
 18 19  1  0
 19 20  2  0
  6 21  1  0
 21 22  2  0
 22  3  1  0
 20 11  1  0
 19 14  1  0
  1 23  1  0
  1 24  1  0
  1 25  1  0
  4 26  1  0
  5 27  1  0
 10 28  1  0
 10 29  1  0
 12 30  1  0
 13 31  1  0
 15 32  1  0
 20 33  1  0
 21 34  1  0
 22 35  1  0
M  CHG  2   9  -1  18  -1
M  END
>  <UniqueID>  (48) 
45

>  <SMILES>  (48) 
COc1ccc(C(=O)[N-]Cc2ccc3[nH]c(=O)[n-]c3c2)cc1

>  <Energy>  (48) 
72.34294200586652

>  <Genealogy>  (48) 
COc1ccc(C(=O)[N-]Cc2ccc3[nH]c(=O)[n-]c3c2)cc1 (protonated)
COc1ccc(C(=O)[N-]Cc2ccc3[nH]c(=O)[n-]c3c2)cc1 (3D coordinates assigned)
COc1ccc(C(=O)[N-]Cc2ccc3[nH]c(=O)[n-]c3c2)cc1 (optimized conformer: 72.34294200586652 kcal/mol)

>  <smiles>  (48) 
COc1ccc(C(=O)NCc2ccc3[nH]c(=O)[nH]c3c2)cc1

>  <score_type>  (48) 
oracle

>  <origin>  (48) 
adg

>  <m_score__min__energy>  (48) 
-10.26

>  <m_primary>  (48) 
energy

$$$$
48:0
     RDKit          3D

 41 41  0  0  0  0  0  0  0  0999 V2000
   59.6250   35.3220   45.7520 C   0  0  0  0  0  0  0  0  0  0  0  0
   58.7190   34.5260   44.8140 C   0  0  0  0  0  0  0  0  0  0  0  0
   58.6280   33.1130   45.2470 N   0  0  0  0  0  0  0  0  0  0  0  0
   57.6160   32.9300   46.3190 C   0  0  0  0  0  0  0  0  0  0  0  0
   58.3150   32.7440   47.6600 C   0  0  0  0  0  0  0  0  0  0  0  0
   58.3680   32.2300   44.0880 C   0  0  0  0  0  0  0  0  0  0  0  0
   57.6400   30.9820   44.5230 C   0  0  0  0  0  0  0  0  0  0  0  0
   56.2550   30.8980   44.3550 C   0  0  0  0  0  0  0  0  0  0  0  0
   55.5790   29.7380   44.7180 C   0  0  0  0  0  0  0  0  0  0  0  0
   56.2690   28.6430   45.2450 C   0  0  0  0  0  0  0  0  0  0  0  0
   55.5280   27.5180   45.5810 O   0  0  0  0  0  0  0  0  0  0  0  0
   57.6810   28.6900   45.4240 C   0  0  0  0  0  0  0  0  0  0  0  0
   58.4590   27.4750   45.9960 C   0  0  0  0  0  0  0  0  0  0  0  0
   58.1120   27.2820   47.4900 C   0  0  0  0  0  0  0  0  0  0  0  0
   59.9800   27.6980   45.8340 C   0  0  0  0  0  0  0  0  0  0  0  0
   58.1180   26.1440   45.2780 C   0  0  0  0  0  0  0  0  0  0  0  0
   58.3430   29.8900   45.0510 C   0  0  0  0  0  0  0  0  0  0  0  0
   59.3641   35.0928   46.7957 H   0  0  0  0  0  0  0  0  0  0  0  0
   60.6744   35.0484   45.5678 H   0  0  0  0  0  0  0  0  0  0  0  0
   59.4888   36.3979   45.5678 H   0  0  0  0  0  0  0  0  0  0  0  0
   57.7130   34.9709   44.8203 H   0  0  0  0  0  0  0  0  0  0  0  0
   59.1447   34.5581   43.8002 H   0  0  0  0  0  0  0  0  0  0  0  0
   56.9676   33.8174   46.3648 H   0  0  0  0  0  0  0  0  0  0  0  0
   57.0091   32.0395   46.0984 H   0  0  0  0  0  0  0  0  0  0  0  0
   57.6011   32.9340   48.4751 H   0  0  0  0  0  0  0  0  0  0  0  0
   58.6933   31.7139   47.7365 H   0  0  0  0  0  0  0  0  0  0  0  0
   59.1552   33.4498   47.7365 H   0  0  0  0  0  0  0  0  0  0  0  0
   57.7525   32.7698   43.3533 H   0  0  0  0  0  0  0  0  0  0  0  0
   59.3301   31.9410   43.6399 H   0  0  0  0  0  0  0  0  0  0  0  0
   55.6994   31.7497   43.9355 H   0  0  0  0  0  0  0  0  0  0  0  0
   54.4881   29.6818   44.5887 H   0  0  0  0  0  0  0  0  0  0  0  0
   58.9056   27.7234   48.1107 H   0  0  0  0  0  0  0  0  0  0  0  0
   57.1552   27.7775   47.7112 H   0  0  0  0  0  0  0  0  0  0  0  0
   58.0283   26.2077   47.7112 H   0  0  0  0  0  0  0  0  0  0  0  0
   60.4483   27.7667   46.8270 H   0  0  0  0  0  0  0  0  0  0  0  0
   60.4173   26.8544   45.2799 H   0  0  0  0  0  0  0  0  0  0  0  0
   60.1567   28.6317   45.2799 H   0  0  0  0  0  0  0  0  0  0  0  0
   57.9181   25.3639   46.0273 H   0  0  0  0  0  0  0  0  0  0  0  0
   57.2269   26.2847   44.6486 H   0  0  0  0  0  0  0  0  0  0  0  0
   58.9670   25.8389   44.6486 H   0  0  0  0  0  0  0  0  0  0  0  0
   59.4329   29.9643   45.1794 H   0  0  0  0  0  0  0  0  0  0  0  0
  1  2  1  0
  2  3  1  0
  3  4  1  0
  4  5  1  0
  3  6  1  0
  6  7  1  0
  7  8  2  0
  8  9  1  0
  9 10  2  0
 10 11  1  0
 10 12  1  0
 12 13  1  0
 13 14  1  0
 13 15  1  0
 13 16  1  0
 12 17  2  0
 17  7  1  0
  1 18  1  0
  1 19  1  0
  1 20  1  0
  2 21  1  0
  2 22  1  0
  4 23  1  0
  4 24  1  0
  5 25  1  0
  5 26  1  0
  5 27  1  0
  6 28  1  0
  6 29  1  0
  8 30  1  0
  9 31  1  0
 14 32  1  0
 14 33  1  0
 14 34  1  0
 15 35  1  0
 15 36  1  0
 15 37  1  0
 16 38  1  0
 16 39  1  0
 16 40  1  0
 17 41  1  0
M  CHG  1  11  -1
M  END
>  <UniqueID>  (49) 
46

>  <SMILES>  (49) 
CCN(CC)Cc1ccc([O-])c(C(C)(C)C)c1

>  <Energy>  (49) 
41.44868299056557

>  <Genealogy>  (49) 
CCN(CC)Cc1ccc([O-])c(C(C)(C)C)c1 (protonated)
CCN(CC)Cc1ccc([O-])c(C(C)(C)C)c1 (3D coordinates assigned)
CCN(CC)Cc1ccc([O-])c(C(C)(C)C)c1 (optimized conformer: 41.44868299056557 kcal/mol)

>  <smiles>  (49) 
CCN(CC)Cc1ccc(O)c(C(C)(C)C)c1

>  <score_type>  (49) 
oracle

>  <origin>  (49) 
adg

>  <m_score__min__energy>  (49) 
-9.4499999999999993

>  <m_primary>  (49) 
energy

$$$$
