0:0
     RDKit          3D

 44 44  0  0  0  0  0  0  0  0999 V2000
   59.4340   34.9990   45.5210 C   0  0  0  0  0  0  0  0  0  0  0  0
   59.3170   33.9740   46.3840 C   0  0  0  0  0  0  0  0  0  0  0  0
   57.9380   33.4270   46.6920 C   0  0  0  0  0  0  0  0  0  0  0  0
   57.5990   32.3320   45.7660 N   0  0  0  0  0  0  0  0  0  0  0  0
   57.5740   32.7640   44.3560 C   0  0  0  0  0  0  0  0  0  0  0  0
   57.7230   31.6150   43.3340 C   0  0  0  0  0  0  0  0  0  0  0  0
   56.8130   30.4140   43.6050 C   0  0  0  0  0  0  0  0  0  0  0  0
   56.7500   30.1590   44.9940 O   0  0  0  0  0  0  0  0  0  0  0  0
   57.5030   29.0070   45.3230 C   0  0  0  0  0  0  0  0  0  0  0  0
   57.8880   28.2470   44.0570 C   0  0  0  0  0  0  0  0  0  0  0  0
   60.5420   33.3660   47.0510 C   0  0  0  0  0  0  0  0  0  0  0  0
   61.8480   33.8730   46.4120 C   0  0  0  0  0  0  0  0  0  0  0  0
   63.0880   33.3820   47.1880 C   0  0  0  0  0  0  0  0  0  0  0  0
   62.8780   32.0250   47.8900 C   0  0  0  0  0  0  0  0  0  0  0  0
   61.8670   31.1490   47.1430 C   0  0  0  0  0  0  0  0  0  0  0  0
   60.4780   31.8150   47.0640 C   0  0  0  0  0  0  0  0  0  0  0  0
   60.4272   35.4090   45.2854 H   0  0  0  0  0  0  0  0  0  0  0  0
   58.5365   35.4273   45.0508 H   0  0  0  0  0  0  0  0  0  0  0  0
   57.9215   33.0466   47.7240 H   0  0  0  0  0  0  0  0  0  0  0  0
   57.2003   34.2343   46.5739 H   0  0  0  0  0  0  0  0  0  0  0  0
   56.6410   31.9810   46.0030 H   0  0  0  0  0  0  0  0  0  0  0  0
   58.2620   31.5320   45.8870 H   0  0  0  0  0  0  0  0  0  0  0  0
   56.6153   33.2696   44.1680 H   0  0  0  0  0  0  0  0  0  0  0  0
   58.4421   33.4247   44.2145 H   0  0  0  0  0  0  0  0  0  0  0  0
   57.4862   32.0090   42.3346 H   0  0  0  0  0  0  0  0  0  0  0  0
   58.7584   31.2523   43.4140 H   0  0  0  0  0  0  0  0  0  0  0  0
   55.8025   30.6302   43.2281 H   0  0  0  0  0  0  0  0  0  0  0  0
   57.2205   29.5295   43.0936 H   0  0  0  0  0  0  0  0  0  0  0  0
   58.4161   29.3103   45.8561 H   0  0  0  0  0  0  0  0  0  0  0  0
   56.8936   28.3516   45.9626 H   0  0  0  0  0  0  0  0  0  0  0  0
   58.3693   27.2968   44.3318 H   0  0  0  0  0  0  0  0  0  0  0  0
   56.9849   28.0423   43.4633 H   0  0  0  0  0  0  0  0  0  0  0  0
   58.5873   28.8540   43.4633 H   0  0  0  0  0  0  0  0  0  0  0  0
   60.5397   33.7011   48.0987 H   0  0  0  0  0  0  0  0  0  0  0  0
   61.9056   33.5046   45.3771 H   0  0  0  0  0  0  0  0  0  0  0  0
   61.8393   34.9727   46.4376 H   0  0  0  0  0  0  0  0  0  0  0  0
   63.9243   33.2820   46.4804 H   0  0  0  0  0  0  0  0  0  0  0  0
   63.2922   34.1242   47.9738 H   0  0  0  0  0  0  0  0  0  0  0  0
   63.8412   31.4958   47.9376 H   0  0  0  0  0  0  0  0  0  0  0  0
   62.4835   32.2189   48.8984 H   0  0  0  0  0  0  0  0  0  0  0  0
   62.2355   30.9723   46.1217 H   0  0  0  0  0  0  0  0  0  0  0  0
   61.7612   30.2034   47.6950 H   0  0  0  0  0  0  0  0  0  0  0  0
   59.9809   31.4781   46.1424 H   0  0  0  0  0  0  0  0  0  0  0  0
   59.9223   31.5188   47.9659 H   0  0  0  0  0  0  0  0  0  0  0  0
  1  2  2  0
  2  3  1  0
  3  4  1  0
  4  5  1  0
  5  6  1  0
  6  7  1  0
  7  8  1  0
  8  9  1  0
  9 10  1  0
  2 11  1  0
 11 12  1  0
 12 13  1  0
 13 14  1  0
 14 15  1  0
 15 16  1  0
 16 11  1  0
  1 17  1  0
  1 18  1  0
  3 19  1  0
  3 20  1  0
  4 21  1  0
  4 22  1  0
  5 23  1  0
  5 24  1  0
  6 25  1  0
  6 26  1  0
  7 27  1  0
  7 28  1  0
  9 29  1  0
  9 30  1  0
 10 31  1  0
 10 32  1  0
 10 33  1  0
 11 34  1  0
 12 35  1  0
 12 36  1  0
 13 37  1  0
 13 38  1  0
 14 39  1  0
 14 40  1  0
 15 41  1  0
 15 42  1  0
 16 43  1  0
 16 44  1  0
M  CHG  1   4   1
M  END
>  <UniqueID>  (1) 
1

>  <SMILES>  (1) 
C=C(C[NH2+]CCCOCC)C1CCCCC1

>  <Energy>  (1) 
35.811759314605055

>  <Genealogy>  (1) 
C=C(C[NH2+]CCCOCC)C1CCCCC1 (protonated)
C=C(C[NH2+]CCCOCC)C1CCCCC1 (3D coordinates assigned)
C=C(C[NH2+]CCCOCC)C1CCCCC1 (nonaromatic ring conformer: 35.811759314605055 kcal/mol)

>  <smiles>  (1) 
C=C(CNCCCOCC)C1CCCCC1

>  <score_type>  (1) 
oracle

>  <origin>  (1) 
adg

>  <m_score__min__energy>  (1) 
-4.3200000000000003

>  <m_primary>  (1) 
energy

$$$$
1:0
     RDKit          3D

 53 55  0  0  0  0  0  0  0  0999 V2000
   62.9500   33.8450   46.3650 C   0  0  0  0  0  0  0  0  0  0  0  0
   63.5560   32.6670   47.1300 C   0  0  0  0  0  0  0  0  0  0  0  0
   63.0370   32.5970   48.5150 N   0  0  0  0  0  0  0  0  0  0  0  0
   64.0250   31.9740   49.4220 C   0  0  0  0  0  0  0  0  0  0  0  0
   62.6590   33.9430   49.0110 C   0  0  0  0  0  0  0  0  0  0  0  0
   61.3410   33.8670   49.7810 C   0  0  0  0  0  0  0  0  0  0  0  0
   60.5550   32.8280   49.2380 O   0  0  0  0  0  0  0  0  0  0  0  0
   59.5920   32.4150   50.1830 C   0  0  0  0  0  0  0  0  0  0  0  0
   59.1910   30.9580   49.9270 C   0  0  0  0  0  0  0  0  0  0  0  0
   60.1410   30.2120   48.9740 C   0  0  0  0  0  0  0  0  0  0  0  0
   60.4360   30.9670   47.7520 N   0  0  0  0  0  0  0  0  0  0  0  0
   59.6220   30.9540   46.5610 C   0  0  0  0  0  0  0  0  0  0  0  0
   59.0780   32.1500   46.0350 C   0  0  0  0  0  0  0  0  0  0  0  0
   59.3680   33.4000   46.6240 C   0  0  0  0  0  0  0  0  0  0  0  0
   58.8850   34.5810   46.0690 C   0  0  0  0  0  0  0  0  0  0  0  0
   58.1180   34.5450   44.9110 C   0  0  0  0  0  0  0  0  0  0  0  0
   57.8110   33.3270   44.3070 C   0  0  0  0  0  0  0  0  0  0  0  0
   58.2560   32.1010   44.8620 C   0  0  0  0  0  0  0  0  0  0  0  0
   57.9260   30.8830   44.2850 N   0  0  0  0  0  0  0  0  0  0  0  0
   56.9600   30.8110   43.1690 C   0  0  0  0  0  0  0  0  0  0  0  0
   58.5140   29.7360   44.7680 C   0  0  0  0  0  0  0  0  0  0  0  0
   58.3700   28.4340   44.2360 C   0  0  0  0  0  0  0  0  0  0  0  0
   59.0330   27.4600   44.9710 C   0  0  0  0  0  0  0  0  0  0  0  0
   59.8110   28.2000   46.2640 S   0  0  0  0  0  0  0  0  0  0  0  0
   59.3290   29.7670   45.8920 C   0  0  0  0  0  0  0  0  0  0  0  0
   62.5675   34.5885   47.0797 H   0  0  0  0  0  0  0  0  0  0  0  0
   63.7220   34.3076   45.7326 H   0  0  0  0  0  0  0  0  0  0  0  0
   62.1247   33.4859   45.7326 H   0  0  0  0  0  0  0  0  0  0  0  0
   63.3047   31.7330   46.6061 H   0  0  0  0  0  0  0  0  0  0  0  0
   64.6459   32.8082   47.1758 H   0  0  0  0  0  0  0  0  0  0  0  0
   63.7319   32.1588   50.4660 H   0  0  0  0  0  0  0  0  0  0  0  0
   64.0599   30.8902   49.2373 H   0  0  0  0  0  0  0  0  0  0  0  0
   65.0180   32.4096   49.2373 H   0  0  0  0  0  0  0  0  0  0  0  0
   63.4486   34.3203   49.6774 H   0  0  0  0  0  0  0  0  0  0  0  0
   62.5371   34.6218   48.1540 H   0  0  0  0  0  0  0  0  0  0  0  0
   61.5444   33.6605   50.8421 H   0  0  0  0  0  0  0  0  0  0  0  0
   60.8043   34.8236   49.6977 H   0  0  0  0  0  0  0  0  0  0  0  0
   60.0145   32.5033   51.1948 H   0  0  0  0  0  0  0  0  0  0  0  0
   58.7014   33.0541   50.0911 H   0  0  0  0  0  0  0  0  0  0  0  0
   59.1785   30.4271   50.8903 H   0  0  0  0  0  0  0  0  0  0  0  0
   58.2026   30.9772   49.4447 H   0  0  0  0  0  0  0  0  0  0  0  0
   61.0859   30.0173   49.5024 H   0  0  0  0  0  0  0  0  0  0  0  0
   59.6397   29.2805   48.6723 H   0  0  0  0  0  0  0  0  0  0  0  0
   61.3540   31.4670   47.7180 H   0  0  0  0  0  0  0  0  0  0  0  0
   59.9843   33.4408   47.5342 H   0  0  0  0  0  0  0  0  0  0  0  0
   59.1108   35.5451   46.5480 H   0  0  0  0  0  0  0  0  0  0  0  0
   57.7511   35.4829   44.4685 H   0  0  0  0  0  0  0  0  0  0  0  0
   57.2131   33.3170   43.3837 H   0  0  0  0  0  0  0  0  0  0  0  0
   55.9393   30.7349   43.5719 H   0  0  0  0  0  0  0  0  0  0  0  0
   57.0441   31.7179   42.5522 H   0  0  0  0  0  0  0  0  0  0  0  0
   57.1776   29.9266   42.5522 H   0  0  0  0  0  0  0  0  0  0  0  0
   57.7892   28.2139   43.3281 H   0  0  0  0  0  0  0  0  0  0  0  0
   59.0467   26.3836   44.7447 H   0  0  0  0  0  0  0  0  0  0  0  0
  1  2  1  0
  2  3  1  0
  3  4  1  0
  3  5  1  0
  5  6  1  0
  6  7  1  0
  7  8  1  0
  8  9  1  0
  9 10  1  0
 10 11  1  0
 11 12  1  0
 12 13  2  0
 13 14  1  0
 14 15  2  0
 15 16  1  0
 16 17  2  0
 17 18  1  0
 18 19  2  0
 19 20  1  0
 19 21  1  0
 21 22  1  0
 22 23  2  0
 23 24  1  0
 24 25  1  0
 25 12  1  0
 18 13  1  0
 25 21  2  0
  1 26  1  0
  1 27  1  0
  1 28  1  0
  2 29  1  0
  2 30  1  0
  4 31  1  0
  4 32  1  0
  4 33  1  0
  5 34  1  0
  5 35  1  0
  6 36  1  0
  6 37  1  0
  8 38  1  0
  8 39  1  0
  9 40  1  0
  9 41  1  0
 10 42  1  0
 10 43  1  0
 11 44  1  0
 14 45  1  0
 15 46  1  0
 16 47  1  0
 17 48  1  0
 20 49  1  0
 20 50  1  0
 20 51  1  0
 22 52  1  0
 23 53  1  0
M  CHG  1  19   1
M  END
>  <UniqueID>  (2) 
2

>  <SMILES>  (2) 
CCN(C)CCOCCCNc1c2ccccc2[n+](C)c2ccsc12

>  <Energy>  (2) 
96.50882198029085

>  <Genealogy>  (2) 
CCN(C)CCOCCCNc1c2ccccc2[n+](C)c2ccsc12 (3D coordinates assigned)
CCN(C)CCOCCCNc1c2ccccc2[n+](C)c2ccsc12 (optimized conformer: 96.50882198029085 kcal/mol)

>  <smiles>  (2) 
CCN(C)CCOCCCNc1c2ccccc2[n+](C)c2ccsc12

>  <score_type>  (2) 
oracle

>  <origin>  (2) 
adg

>  <m_score__min__energy>  (2) 
-5.3300000000000001

>  <m_primary>  (2) 
energy

$$$$
2:0
     RDKit          3D

 42 41  0  0  0  0  0  0  0  0999 V2000
   58.9850   34.3280   46.3310 C   0  0  0  0  0  0  0  0  0  0  0  0
   57.9620   33.3120   46.8460 C   0  0  0  0  0  0  0  0  0  0  0  0
   57.6260   32.2910   45.8380 N   0  0  0  0  0  0  0  0  0  0  0  0
   57.7520   32.7990   44.4610 C   0  0  0  0  0  0  0  0  0  0  0  0
   57.7800   31.6620   43.4240 C   0  0  0  0  0  0  0  0  0  0  0  0
   56.6450   30.6380   43.6020 C   0  0  0  0  0  0  0  0  0  0  0  0
   56.6770   30.0470   44.9480 N   0  0  0  0  0  0  0  0  0  0  0  0
   56.9450   28.6010   44.8890 C   0  0  0  0  0  0  0  0  0  0  0  0
   58.0710   28.2080   45.8630 C   0  0  0  0  0  0  0  0  0  0  0  0
   58.7340   29.4030   46.4370 N   0  0  0  0  0  0  0  0  0  0  0  0
   59.9500   29.7440   45.6630 C   0  0  0  0  0  0  0  0  0  0  0  0
   60.4600   28.5360   44.8800 C   0  0  0  0  0  0  0  0  0  0  0  0
   59.0310   29.2370   47.8840 C   0  0  0  0  0  0  0  0  0  0  0  0
   59.6060   27.8470   48.1340 C   0  0  0  0  0  0  0  0  0  0  0  0
   59.4775   34.8171   47.1843 H   0  0  0  0  0  0  0  0  0  0  0  0
   59.7391   33.8111   45.7193 H   0  0  0  0  0  0  0  0  0  0  0  0
   58.4733   35.0857   45.7193 H   0  0  0  0  0  0  0  0  0  0  0  0
   58.3782   32.8100   47.7318 H   0  0  0  0  0  0  0  0  0  0  0  0
   57.0393   33.8595   47.0885 H   0  0  0  0  0  0  0  0  0  0  0  0
   56.6470   31.9610   45.9990 H   0  0  0  0  0  0  0  0  0  0  0  0
   58.2790   31.4830   45.9710 H   0  0  0  0  0  0  0  0  0  0  0  0
   56.8955   33.4547   44.2452 H   0  0  0  0  0  0  0  0  0  0  0  0
   58.7030   33.3470   44.3881 H   0  0  0  0  0  0  0  0  0  0  0  0
   57.6951   32.1044   42.4205 H   0  0  0  0  0  0  0  0  0  0  0  0
   58.7275   31.1210   43.5638 H   0  0  0  0  0  0  0  0  0  0  0  0
   55.6787   31.1421   43.4530 H   0  0  0  0  0  0  0  0  0  0  0  0
   56.7777   29.8346   42.8625 H   0  0  0  0  0  0  0  0  0  0  0  0
   57.4640   30.4970   45.4730 H   0  0  0  0  0  0  0  0  0  0  0  0
   56.0293   28.0542   45.1584 H   0  0  0  0  0  0  0  0  0  0  0  0
   57.2606   28.3446   43.8669 H   0  0  0  0  0  0  0  0  0  0  0  0
   57.6436   27.6090   46.6806 H   0  0  0  0  0  0  0  0  0  0  0  0
   58.8231   27.6300   45.3061 H   0  0  0  0  0  0  0  0  0  0  0  0
   59.7119   30.5544   44.9584 H   0  0  0  0  0  0  0  0  0  0  0  0
   60.7343   30.0611   46.3661 H   0  0  0  0  0  0  0  0  0  0  0  0
   60.7892   27.7561   45.5824 H   0  0  0  0  0  0  0  0  0  0  0  0
   59.6516   28.1416   44.2468 H   0  0  0  0  0  0  0  0  0  0  0  0
   61.3065   28.8402   44.2468 H   0  0  0  0  0  0  0  0  0  0  0  0
   59.7622   29.9969   48.1968 H   0  0  0  0  0  0  0  0  0  0  0  0
   58.1032   29.3571   48.4626 H   0  0  0  0  0  0  0  0  0  0  0  0
   59.6793   27.6699   49.2172 H   0  0  0  0  0  0  0  0  0  0  0  0
   58.9468   27.0909   47.6826 H   0  0  0  0  0  0  0  0  0  0  0  0
   60.6067   27.7775   47.6826 H   0  0  0  0  0  0  0  0  0  0  0  0
  1  2  1  0
  2  3  1  0
  3  4  1  0
  4  5  1  0
  5  6  1  0
  6  7  1  0
  7  8  1  0
  8  9  1  0
  9 10  1  0
 10 11  1  0
 11 12  1  0
 10 13  1  0
 13 14  1  0
  1 15  1  0
  1 16  1  0
  1 17  1  0
  2 18  1  0
  2 19  1  0
  3 20  1  0
  3 21  1  0
  4 22  1  0
  4 23  1  0
  5 24  1  0
  5 25  1  0
  6 26  1  0
  6 27  1  0
  7 28  1  0
  8 29  1  0
  8 30  1  0
  9 31  1  0
  9 32  1  0
 11 33  1  0
 11 34  1  0
 12 35  1  0
 12 36  1  0
 12 37  1  0
 13 38  1  0
 13 39  1  0
 14 40  1  0
 14 41  1  0
 14 42  1  0
M  CHG  1   3   1
M  END
>  <UniqueID>  (3) 
3

>  <SMILES>  (3) 
CC[NH2+]CCCNCCN(CC)CC

>  <Energy>  (3) 
31.249924096440154

>  <Genealogy>  (3) 
CC[NH2+]CCCNCCN(CC)CC (protonated)
CC[NH2+]CCCNCCN(CC)CC (3D coordinates assigned)
CC[NH2+]CCCNCCN(CC)CC (optimized conformer: 31.249924096440154 kcal/mol)

>  <smiles>  (3) 
CCNCCCNCCN(CC)CC

>  <score_type>  (3) 
oracle

>  <origin>  (3) 
adg

>  <m_score__min__energy>  (3) 
-2.1099999999999999

>  <m_primary>  (3) 
energy

$$$$
3:0
     RDKit          3D

 75 77  0  0  0  0  0  0  0  0999 V2000
   56.6540   31.6760   51.9320 C   0  0  0  0  0  0  0  0  0  0  0  0
   57.7180   31.4030   50.8730 C   0  0  0  0  0  0  0  0  0  0  0  0
   59.0270   31.9410   51.3090 N   0  0  0  0  0  0  0  0  0  0  0  0
   59.6660   31.0570   52.3120 C   0  0  0  0  0  0  0  0  0  0  0  0
   59.0880   29.6470   52.2320 C   0  0  0  0  0  0  0  0  0  0  0  0
   58.9080   33.3320   51.8160 C   0  0  0  0  0  0  0  0  0  0  0  0
   60.2660   33.8350   52.3050 C   0  0  0  0  0  0  0  0  0  0  0  0
   61.2860   33.4710   51.3930 O   0  0  0  0  0  0  0  0  0  0  0  0
   62.4840   33.1280   52.0630 C   0  0  0  0  0  0  0  0  0  0  0  0
   62.9780   31.6950   51.7810 C   0  0  0  0  0  0  0  0  0  0  0  0
   62.9600   31.4080   50.3900 O   0  0  0  0  0  0  0  0  0  0  0  0
   64.1720   31.7690   49.7540 C   0  0  0  0  0  0  0  0  0  0  0  0
   63.9760   32.7810   48.6150 C   0  0  0  0  0  0  0  0  0  0  0  0
   62.9950   32.3220   47.7050 O   0  0  0  0  0  0  0  0  0  0  0  0
   62.2170   33.4080   47.2270 C   0  0  0  0  0  0  0  0  0  0  0  0
   61.2220   33.8650   48.3040 C   0  0  0  0  0  0  0  0  0  0  0  0
   60.5770   32.7530   49.0340 N   0  0  0  0  0  0  0  0  0  0  0  0
   59.8770   31.8270   48.1480 C   0  0  0  0  0  0  0  0  0  0  0  0
   60.0470   30.4210   48.3090 C   0  0  0  0  0  0  0  0  0  0  0  0
   60.7220   29.8680   49.4260 C   0  0  0  0  0  0  0  0  0  0  0  0
   60.8730   28.4910   49.5640 C   0  0  0  0  0  0  0  0  0  0  0  0
   60.3430   27.6310   48.6110 C   0  0  0  0  0  0  0  0  0  0  0  0
   59.6750   28.1410   47.5080 C   0  0  0  0  0  0  0  0  0  0  0  0
   59.5320   29.5390   47.3200 C   0  0  0  0  0  0  0  0  0  0  0  0
   58.9030   30.0380   46.2040 N   0  0  0  0  0  0  0  0  0  0  0  0
   58.8100   29.1970   44.9900 C   0  0  0  0  0  0  0  0  0  0  0  0
   58.4500   31.3440   46.1940 C   0  0  0  0  0  0  0  0  0  0  0  0
   57.4180   31.7750   45.2970 C   0  0  0  0  0  0  0  0  0  0  0  0
   56.6870   30.8330   44.5480 O   0  0  0  0  0  0  0  0  0  0  0  0
   56.7040   30.7290   43.1290 C   0  0  0  0  0  0  0  0  0  0  0  0
   57.0850   33.1350   45.2240 C   0  0  0  0  0  0  0  0  0  0  0  0
   57.7070   34.0570   46.0430 C   0  0  0  0  0  0  0  0  0  0  0  0
   58.6560   33.6500   46.9670 C   0  0  0  0  0  0  0  0  0  0  0  0
   59.0070   32.2860   47.1120 C   0  0  0  0  0  0  0  0  0  0  0  0
   57.0955   31.5627   52.9331 H   0  0  0  0  0  0  0  0  0  0  0  0
   56.2729   32.7010   51.8132 H   0  0  0  0  0  0  0  0  0  0  0  0
   55.8265   30.9611   51.8132 H   0  0  0  0  0  0  0  0  0  0  0  0
   57.8053   30.3175   50.7177 H   0  0  0  0  0  0  0  0  0  0  0  0
   57.4234   31.8954   49.9345 H   0  0  0  0  0  0  0  0  0  0  0  0
   60.7483   31.0154   52.1197 H   0  0  0  0  0  0  0  0  0  0  0  0
   59.4729   31.4627   53.3161 H   0  0  0  0  0  0  0  0  0  0  0  0
   58.9285   29.2579   53.2484 H   0  0  0  0  0  0  0  0  0  0  0  0
   58.1284   29.6740   51.6949 H   0  0  0  0  0  0  0  0  0  0  0  0
   59.7905   28.9927   51.6949 H   0  0  0  0  0  0  0  0  0  0  0  0
   58.5494   33.9842   51.0061 H   0  0  0  0  0  0  0  0  0  0  0  0
   58.1966   33.3480   52.6549 H   0  0  0  0  0  0  0  0  0  0  0  0
   60.2352   34.9308   52.3955 H   0  0  0  0  0  0  0  0  0  0  0  0
   60.4834   33.3803   53.2828 H   0  0  0  0  0  0  0  0  0  0  0  0
   63.2688   33.8316   51.7483 H   0  0  0  0  0  0  0  0  0  0  0  0
   62.2701   33.1822   53.1406 H   0  0  0  0  0  0  0  0  0  0  0  0
   64.0071   31.5904   52.1553 H   0  0  0  0  0  0  0  0  0  0  0  0
   62.3054   30.9891   52.2902 H   0  0  0  0  0  0  0  0  0  0  0  0
   64.8429   32.2122   50.5046 H   0  0  0  0  0  0  0  0  0  0  0  0
   64.5956   30.8552   49.3119 H   0  0  0  0  0  0  0  0  0  0  0  0
   63.6542   33.7440   49.0383 H   0  0  0  0  0  0  0  0  0  0  0  0
   64.9290   32.9007   48.0788 H   0  0  0  0  0  0  0  0  0  0  0  0
   62.8822   34.2451   46.9688 H   0  0  0  0  0  0  0  0  0  0  0  0
   61.6575   33.0833   46.3373 H   0  0  0  0  0  0  0  0  0  0  0  0
   61.7613   34.4899   49.0310 H   0  0  0  0  0  0  0  0  0  0  0  0
   60.4215   34.4143   47.7868 H   0  0  0  0  0  0  0  0  0  0  0  0
   61.2990   32.2370   49.5820 H   0  0  0  0  0  0  0  0  0  0  0  0
   59.9880   33.1560   49.7890 H   0  0  0  0  0  0  0  0  0  0  0  0
   61.1330   30.5375   50.1960 H   0  0  0  0  0  0  0  0  0  0  0  0
   61.4138   28.0828   50.4306 H   0  0  0  0  0  0  0  0  0  0  0  0
   60.4533   26.5432   48.7314 H   0  0  0  0  0  0  0  0  0  0  0  0
   59.2489   27.4493   46.7664 H   0  0  0  0  0  0  0  0  0  0  0  0
   58.6934   28.1429   45.2822 H   0  0  0  0  0  0  0  0  0  0  0  0
   57.9410   29.5102   44.3927 H   0  0  0  0  0  0  0  0  0  0  0  0
   59.7264   29.3127   44.3927 H   0  0  0  0  0  0  0  0  0  0  0  0
   56.8752   29.6815   42.8402 H   0  0  0  0  0  0  0  0  0  0  0  0
   55.7386   31.0677   42.7249 H   0  0  0  0  0  0  0  0  0  0  0  0
   57.5113   31.3574   42.7249 H   0  0  0  0  0  0  0  0  0  0  0  0
   56.3210   33.4710   44.5075 H   0  0  0  0  0  0  0  0  0  0  0  0
   57.4470   35.1227   45.9611 H   0  0  0  0  0  0  0  0  0  0  0  0
   59.1471   34.4026   47.6014 H   0  0  0  0  0  0  0  0  0  0  0  0
  1  2  1  0
  2  3  1  0
  3  4  1  0
  4  5  1  0
  3  6  1  0
  6  7  1  0
  7  8  1  0
  8  9  1  0
  9 10  1  0
 10 11  1  0
 11 12  1  0
 12 13  1  0
 13 14  1  0
 14 15  1  0
 15 16  1  0
 16 17  1  0
 17 18  1  0
 18 19  2  0
 19 20  1  0
 20 21  2  0
 21 22  1  0
 22 23  2  0
 23 24  1  0
 24 25  2  0
 25 26  1  0
 25 27  1  0
 27 28  2  0
 28 29  1  0
 29 30  1  0
 28 31  1  0
 31 32  2  0
 32 33  1  0
 33 34  2  0
 34 18  1  0
 24 19  1  0
 34 27  1  0
  1 35  1  0
  1 36  1  0
  1 37  1  0
  2 38  1  0
  2 39  1  0
  4 40  1  0
  4 41  1  0
  5 42  1  0
  5 43  1  0
  5 44  1  0
  6 45  1  0
  6 46  1  0
  7 47  1  0
  7 48  1  0
  9 49  1  0
  9 50  1  0
 10 51  1  0
 10 52  1  0
 12 53  1  0
 12 54  1  0
 13 55  1  0
 13 56  1  0
 15 57  1  0
 15 58  1  0
 16 59  1  0
 16 60  1  0
 17 61  1  0
 17 62  1  0
 20 63  1  0
 21 64  1  0
 22 65  1  0
 23 66  1  0
 26 67  1  0
 26 68  1  0
 26 69  1  0
 30 70  1  0
 30 71  1  0
 30 72  1  0
 31 73  1  0
 32 74  1  0
 33 75  1  0
M  CHG  2  17   1  25   1
M  END
>  <UniqueID>  (4) 
4

>  <SMILES>  (4) 
CCN(CC)CCOCCOCCOCC[NH2+]c1c2ccccc2[n+](C)c2c(OC)cccc12

>  <Energy>  (4) 
116.11678175252483

>  <Genealogy>  (4) 
CCN(CC)CCOCCOCCOCC[NH2+]c1c2ccccc2[n+](C)c2c(OC)cccc12 (protonated)
CCN(CC)CCOCCOCCOCC[NH2+]c1c2ccccc2[n+](C)c2c(OC)cccc12 (3D coordinates assigned)
CCN(CC)CCOCCOCCOCC[NH2+]c1c2ccccc2[n+](C)c2c(OC)cccc12 (optimized conformer: 116.11678175252483 kcal/mol)

>  <smiles>  (4) 
CCN(CC)CCOCCOCCOCCNc1c2ccccc2[n+](C)c2c(OC)cccc12

>  <score_type>  (4) 
oracle

>  <origin>  (4) 
adg

>  <m_score__min__energy>  (4) 
-4.2999999999999998

>  <m_primary>  (4) 
energy

$$$$
4:0
     RDKit          3D

 55 57  0  0  0  0  0  0  0  0999 V2000
   57.2880   26.9360   45.5190 C   0  0  0  0  0  0  0  0  0  0  0  0
   56.8130   28.2360   45.8550 O   0  0  0  0  0  0  0  0  0  0  0  0
   57.6270   29.3690   46.0220 C   0  0  0  0  0  0  0  0  0  0  0  0
   58.6910   29.3970   46.9380 C   0  0  0  0  0  0  0  0  0  0  0  0
   59.4930   30.5500   47.1040 C   0  0  0  0  0  0  0  0  0  0  0  0
   60.5830   30.5760   48.0160 C   0  0  0  0  0  0  0  0  0  0  0  0
   60.7950   29.4840   48.9550 N   0  0  0  0  0  0  0  0  0  0  0  0
   59.8750   29.5930   50.1030 C   0  0  0  0  0  0  0  0  0  0  0  0
   60.4180   28.8480   51.3330 C   0  0  0  0  0  0  0  0  0  0  0  0
   61.7470   28.2520   51.0710 N   0  0  0  0  0  0  0  0  0  0  0  0
   61.8430   26.8930   51.6350 C   0  0  0  0  0  0  0  0  0  0  0  0
   62.8030   29.0980   51.6520 C   0  0  0  0  0  0  0  0  0  0  0  0
   61.4830   31.6740   47.9660 C   0  0  0  0  0  0  0  0  0  0  0  0
   62.7030   31.6730   48.6870 C   0  0  0  0  0  0  0  0  0  0  0  0
   63.5930   32.7490   48.6110 C   0  0  0  0  0  0  0  0  0  0  0  0
   64.9020   32.6980   49.3450 C   0  0  0  0  0  0  0  0  0  0  0  0
   63.3010   33.8220   47.7730 C   0  0  0  0  0  0  0  0  0  0  0  0
   62.1090   33.8510   47.0570 C   0  0  0  0  0  0  0  0  0  0  0  0
   61.1620   32.8010   47.1600 C   0  0  0  0  0  0  0  0  0  0  0  0
   59.9610   32.8500   46.4830 N   0  0  0  0  0  0  0  0  0  0  0  0
   59.4750   34.1380   45.9370 C   0  0  0  0  0  0  0  0  0  0  0  0
   59.2090   31.7040   46.3260 C   0  0  0  0  0  0  0  0  0  0  0  0
   58.1560   31.6400   45.3790 C   0  0  0  0  0  0  0  0  0  0  0  0
   57.3650   30.4900   45.2370 C   0  0  0  0  0  0  0  0  0  0  0  0
   56.3080   30.4190   44.3130 O   0  0  0  0  0  0  0  0  0  0  0  0
   56.3860   29.7940   43.0360 C   0  0  0  0  0  0  0  0  0  0  0  0
   57.4942   26.3715   46.4403 H   0  0  0  0  0  0  0  0  0  0  0  0
   56.5247   26.4080   44.9286 H   0  0  0  0  0  0  0  0  0  0  0  0
   58.2119   27.0245   44.9286 H   0  0  0  0  0  0  0  0  0  0  0  0
   58.9056   28.5018   47.5401 H   0  0  0  0  0  0  0  0  0  0  0  0
   60.6810   28.5640   48.4770 H   0  0  0  0  0  0  0  0  0  0  0  0
   61.7860   29.4630   49.2810 H   0  0  0  0  0  0  0  0  0  0  0  0
   59.7450   30.6553   50.3572 H   0  0  0  0  0  0  0  0  0  0  0  0
   58.9145   29.1376   49.8199 H   0  0  0  0  0  0  0  0  0  0  0  0
   60.5042   29.5570   52.1696 H   0  0  0  0  0  0  0  0  0  0  0  0
   59.7195   28.0337   51.5759 H   0  0  0  0  0  0  0  0  0  0  0  0
   61.8389   26.9508   52.7335 H   0  0  0  0  0  0  0  0  0  0  0  0
   60.9849   26.2939   51.2961 H   0  0  0  0  0  0  0  0  0  0  0  0
   62.7768   26.4205   51.2961 H   0  0  0  0  0  0  0  0  0  0  0  0
   62.7466   29.0528   52.7496 H   0  0  0  0  0  0  0  0  0  0  0  0
   63.7872   28.7356   51.3202 H   0  0  0  0  0  0  0  0  0  0  0  0
   62.6641   30.1375   51.3202 H   0  0  0  0  0  0  0  0  0  0  0  0
   62.9549   30.8087   49.3190 H   0  0  0  0  0  0  0  0  0  0  0  0
   64.7151   32.7053   50.4290 H   0  0  0  0  0  0  0  0  0  0  0  0
   65.4399   31.7782   49.0719 H   0  0  0  0  0  0  0  0  0  0  0  0
   65.5099   33.5731   49.0719 H   0  0  0  0  0  0  0  0  0  0  0  0
   64.0171   34.6514   47.6767 H   0  0  0  0  0  0  0  0  0  0  0  0
   61.8968   34.7056   46.3977 H   0  0  0  0  0  0  0  0  0  0  0  0
   59.2197   34.8146   46.7659 H   0  0  0  0  0  0  0  0  0  0  0  0
   60.2625   34.5951   45.3198 H   0  0  0  0  0  0  0  0  0  0  0  0
   58.5818   33.9610   45.3198 H   0  0  0  0  0  0  0  0  0  0  0  0
   57.9543   32.5127   44.7404 H   0  0  0  0  0  0  0  0  0  0  0  0
   56.5213   28.7101   43.1659 H   0  0  0  0  0  0  0  0  0  0  0  0
   55.4573   29.9833   42.4778 H   0  0  0  0  0  0  0  0  0  0  0  0
   57.2397   30.2058   42.4778 H   0  0  0  0  0  0  0  0  0  0  0  0
  1  2  1  0
  2  3  1  0
  3  4  2  0
  4  5  1  0
  5  6  2  0
  6  7  1  0
  7  8  1  0
  8  9  1  0
  9 10  1  0
 10 11  1  0
 10 12  1  0
  6 13  1  0
 13 14  2  0
 14 15  1  0
 15 16  1  0
 15 17  2  0
 17 18  1  0
 18 19  2  0
 19 20  1  0
 20 21  1  0
 20 22  2  0
 22 23  1  0
 23 24  2  0
 24 25  1  0
 25 26  1  0
 24  3  1  0
 22  5  1  0
 19 13  1  0
  1 27  1  0
  1 28  1  0
  1 29  1  0
  4 30  1  0
  7 31  1  0
  7 32  1  0
  8 33  1  0
  8 34  1  0
  9 35  1  0
  9 36  1  0
 11 37  1  0
 11 38  1  0
 11 39  1  0
 12 40  1  0
 12 41  1  0
 12 42  1  0
 14 43  1  0
 16 44  1  0
 16 45  1  0
 16 46  1  0
 17 47  1  0
 18 48  1  0
 21 49  1  0
 21 50  1  0
 21 51  1  0
 23 52  1  0
 26 53  1  0
 26 54  1  0
 26 55  1  0
M  CHG  2   7   1  20   1
M  END
>  <UniqueID>  (5) 
5

>  <SMILES>  (5) 
COc1cc2c([NH2+]CCN(C)C)c3cc(C)ccc3[n+](C)c2cc1OC

>  <Energy>  (5) 
80.5913111364323

>  <Genealogy>  (5) 
COc1cc2c([NH2+]CCN(C)C)c3cc(C)ccc3[n+](C)c2cc1OC (protonated)
COc1cc2c([NH2+]CCN(C)C)c3cc(C)ccc3[n+](C)c2cc1OC (3D coordinates assigned)
COc1cc2c([NH2+]CCN(C)C)c3cc(C)ccc3[n+](C)c2cc1OC (optimized conformer: 80.5913111364323 kcal/mol)

>  <smiles>  (5) 
COc1cc2c(NCCN(C)C)c3cc(C)ccc3[n+](C)c2cc1OC

>  <score_type>  (5) 
oracle

>  <origin>  (5) 
adg

>  <m_score__min__energy>  (5) 
-3.7200000000000002

>  <m_primary>  (5) 
energy

$$$$
5:0
     RDKit          3D

 45 45  0  0  0  0  0  0  0  0999 V2000
   57.8790   28.7770   45.1680 C   0  0  0  0  0  0  0  0  0  0  0  0
   57.3060   29.0260   43.7750 C   0  0  0  0  0  0  0  0  0  0  0  0
   56.3330   30.2070   43.7780 C   0  0  0  0  0  0  0  0  0  0  0  0
   56.6610   31.1130   44.8880 N   0  0  0  0  0  0  0  0  0  0  0  0
   57.6050   32.1690   44.4860 C   0  0  0  0  0  0  0  0  0  0  0  0
   57.1360   33.5740   44.9060 C   0  0  0  0  0  0  0  0  0  0  0  0
   57.9900   34.0950   45.9950 N   0  0  0  0  0  0  0  0  0  0  0  0
   59.1460   34.8440   45.4500 C   0  0  0  0  0  0  0  0  0  0  0  0
   60.2720   34.9490   46.4820 C   0  0  0  0  0  0  0  0  0  0  0  0
   60.8240   33.6140   46.8040 N   0  0  0  0  0  0  0  0  0  0  0  0
   61.5510   33.6370   48.0920 C   0  0  0  0  0  0  0  0  0  0  0  0
   63.0720   33.7610   47.8660 C   0  0  0  0  0  0  0  0  0  0  0  0
   63.8220   32.5800   48.4980 C   0  0  0  0  0  0  0  0  0  0  0  0
   63.3830   33.8440   46.3670 C   0  0  0  0  0  0  0  0  0  0  0  0
   59.8120   32.5260   46.7410 C   0  0  0  0  0  0  0  0  0  0  0  0
   58.3790   33.0370   46.9650 C   0  0  0  0  0  0  0  0  0  0  0  0
   57.1487   29.0943   45.9270 H   0  0  0  0  0  0  0  0  0  0  0  0
   58.0926   27.7049   45.2904 H   0  0  0  0  0  0  0  0  0  0  0  0
   58.8085   29.3524   45.2904 H   0  0  0  0  0  0  0  0  0  0  0  0
   58.1316   29.2435   43.0814 H   0  0  0  0  0  0  0  0  0  0  0  0
   56.7590   28.1258   43.4582 H   0  0  0  0  0  0  0  0  0  0  0  0
   56.4143   30.7508   42.8253 H   0  0  0  0  0  0  0  0  0  0  0  0
   55.3057   29.8338   43.9023 H   0  0  0  0  0  0  0  0  0  0  0  0
   55.7790   31.5520   45.2440 H   0  0  0  0  0  0  0  0  0  0  0  0
   58.5793   31.9679   44.9554 H   0  0  0  0  0  0  0  0  0  0  0  0
   57.6728   32.1548   43.3882 H   0  0  0  0  0  0  0  0  0  0  0  0
   57.1974   34.2509   44.0411 H   0  0  0  0  0  0  0  0  0  0  0  0
   56.0974   33.5130   45.2633 H   0  0  0  0  0  0  0  0  0  0  0  0
   59.5237   34.3224   44.5583 H   0  0  0  0  0  0  0  0  0  0  0  0
   58.8132   35.8602   45.1921 H   0  0  0  0  0  0  0  0  0  0  0  0
   61.0748   35.5814   46.0751 H   0  0  0  0  0  0  0  0  0  0  0  0
   59.8627   35.3899   47.4029 H   0  0  0  0  0  0  0  0  0  0  0  0
   61.2043   34.4958   48.6855 H   0  0  0  0  0  0  0  0  0  0  0  0
   61.3513   32.6952   48.6241 H   0  0  0  0  0  0  0  0  0  0  0  0
   63.4143   34.6857   48.3536 H   0  0  0  0  0  0  0  0  0  0  0  0
   63.7722   32.6583   49.5941 H   0  0  0  0  0  0  0  0  0  0  0  0
   63.3574   31.6362   48.1764 H   0  0  0  0  0  0  0  0  0  0  0  0
   64.8738   32.5992   48.1764 H   0  0  0  0  0  0  0  0  0  0  0  0
   64.4371   34.1253   46.2262 H   0  0  0  0  0  0  0  0  0  0  0  0
   63.1991   32.8653   45.8996 H   0  0  0  0  0  0  0  0  0  0  0  0
   62.7359   34.6009   45.8996 H   0  0  0  0  0  0  0  0  0  0  0  0
   59.8659   32.0517   45.7500 H   0  0  0  0  0  0  0  0  0  0  0  0
   60.0404   31.8118   47.5458 H   0  0  0  0  0  0  0  0  0  0  0  0
   57.6833   32.1912   46.8614 H   0  0  0  0  0  0  0  0  0  0  0  0
   58.3363   33.4770   47.9723 H   0  0  0  0  0  0  0  0  0  0  0  0
  1  2  1  0
  2  3  1  0
  3  4  1  0
  4  5  1  0
  5  6  1  0
  6  7  1  0
  7  8  1  0
  8  9  1  0
  9 10  1  0
 10 11  1  0
 11 12  1  0
 12 13  1  0
 12 14  1  0
 10 15  1  0
 15 16  1  0
 16  7  1  0
  1 17  1  0
  1 18  1  0
  1 19  1  0
  2 20  1  0
  2 21  1  0
  3 22  1  0
  3 23  1  0
  4 24  1  0
  5 25  1  0
  5 26  1  0
  6 27  1  0
  6 28  1  0
  8 29  1  0
  8 30  1  0
  9 31  1  0
  9 32  1  0
 11 33  1  0
 11 34  1  0
 12 35  1  0
 13 36  1  0
 13 37  1  0
 13 38  1  0
 14 39  1  0
 14 40  1  0
 14 41  1  0
 15 42  1  0
 15 43  1  0
 16 44  1  0
 16 45  1  0
M  END
>  <UniqueID>  (6) 
6

>  <SMILES>  (6) 
CCCNCCN1CCN(CC(C)C)CC1

>  <Energy>  (6) 
43.15075894552106

>  <Genealogy>  (6) 
CCCNCCN1CCN(CC(C)C)CC1 (3D coordinates assigned)
CCCNCCN1CCN(CC(C)C)CC1 (nonaromatic ring conformer: 43.15075894552106 kcal/mol)

>  <smiles>  (6) 
CCCNCCN1CCN(CC(C)C)CC1

>  <score_type>  (6) 
oracle

>  <origin>  (6) 
adg

>  <m_score__min__energy>  (6) 
-5.9400000000000004

>  <m_primary>  (6) 
energy

$$$$
6:0
     RDKit          3D

 54 54  0  0  0  0  0  0  0  0999 V2000
   58.9190   30.2770   48.7800 C   0  0  0  0  0  0  0  0  0  0  0  0
   59.0730   28.8890   48.1610 C   0  0  0  0  0  0  0  0  0  0  0  0
   58.9770   28.9570   46.6870 N   0  0  0  0  0  0  0  0  0  0  0  0
   60.1050   29.6610   46.0370 C   0  0  0  0  0  0  0  0  0  0  0  0
   60.7280   28.8830   44.8790 C   0  0  0  0  0  0  0  0  0  0  0  0
   58.5250   27.7290   45.9840 C   0  0  0  0  0  0  0  0  0  0  0  0
   57.0440   27.3650   46.1880 C   0  0  0  0  0  0  0  0  0  0  0  0
   56.2680   28.0830   45.2530 O   0  0  0  0  0  0  0  0  0  0  0  0
   57.0810   28.6290   44.2300 C   0  0  0  0  0  0  0  0  0  0  0  0
   56.3910   29.8400   43.6030 C   0  0  0  0  0  0  0  0  0  0  0  0
   56.1700   30.8480   44.5730 O   0  0  0  0  0  0  0  0  0  0  0  0
   57.3680   31.5490   44.8390 C   0  0  0  0  0  0  0  0  0  0  0  0
   57.0660   32.8220   45.4990 N   0  0  0  0  0  0  0  0  0  0  0  0
   58.1430   33.7990   45.2900 C   0  0  0  0  0  0  0  0  0  0  0  0
   58.9090   34.0170   46.6030 C   0  0  0  0  0  0  0  0  0  0  0  0
   60.3130   34.6020   46.3840 C   0  0  0  0  0  0  0  0  0  0  0  0
   61.3990   33.6540   46.8250 C   0  0  0  0  0  0  0  0  0  0  0  0
   61.1040   32.5920   47.6990 C   0  0  0  0  0  0  0  0  0  0  0  0
   62.1160   31.7270   48.1230 C   0  0  0  0  0  0  0  0  0  0  0  0
   63.4300   31.9170   47.6820 C   0  0  0  0  0  0  0  0  0  0  0  0
   63.7330   32.9740   46.8170 C   0  0  0  0  0  0  0  0  0  0  0  0
   62.7220   33.8400   46.3900 C   0  0  0  0  0  0  0  0  0  0  0  0
   58.9284   30.1925   49.8767 H   0  0  0  0  0  0  0  0  0  0  0  0
   59.7515   30.9181   48.4545 H   0  0  0  0  0  0  0  0  0  0  0  0
   57.9662   30.7200   48.4545 H   0  0  0  0  0  0  0  0  0  0  0  0
   60.0540   28.4768   48.4397 H   0  0  0  0  0  0  0  0  0  0  0  0
   58.2653   28.2439   48.5372 H   0  0  0  0  0  0  0  0  0  0  0  0
   59.7379   30.6235   45.6512 H   0  0  0  0  0  0  0  0  0  0  0  0
   60.8883   29.7861   46.7990 H   0  0  0  0  0  0  0  0  0  0  0  0
   61.3688   28.0827   45.2776 H   0  0  0  0  0  0  0  0  0  0  0  0
   59.9308   28.4417   44.2628 H   0  0  0  0  0  0  0  0  0  0  0  0
   61.3329   29.5645   44.2628 H   0  0  0  0  0  0  0  0  0  0  0  0
   58.6951   27.8715   44.9066 H   0  0  0  0  0  0  0  0  0  0  0  0
   59.1053   26.8996   46.4145 H   0  0  0  0  0  0  0  0  0  0  0  0
   56.9037   26.2850   46.0336 H   0  0  0  0  0  0  0  0  0  0  0  0
   56.7322   27.6236   47.2107 H   0  0  0  0  0  0  0  0  0  0  0  0
   58.0450   28.9406   44.6584 H   0  0  0  0  0  0  0  0  0  0  0  0
   57.2458   27.8663   43.4547 H   0  0  0  0  0  0  0  0  0  0  0  0
   57.0274   30.2434   42.8016 H   0  0  0  0  0  0  0  0  0  0  0  0
   55.4199   29.5221   43.1957 H   0  0  0  0  0  0  0  0  0  0  0  0
   58.0081   30.9410   45.4952 H   0  0  0  0  0  0  0  0  0  0  0  0
   57.8890   31.7478   43.8908 H   0  0  0  0  0  0  0  0  0  0  0  0
   56.1970   33.2010   45.0540 H   0  0  0  0  0  0  0  0  0  0  0  0
   58.8344   33.4218   44.5221 H   0  0  0  0  0  0  0  0  0  0  0  0
   57.7082   34.7541   44.9601 H   0  0  0  0  0  0  0  0  0  0  0  0
   58.3340   34.7105   47.2342 H   0  0  0  0  0  0  0  0  0  0  0  0
   59.0310   33.0343   47.0820 H   0  0  0  0  0  0  0  0  0  0  0  0
   60.4441   34.8177   45.3133 H   0  0  0  0  0  0  0  0  0  0  0  0
   60.3963   35.5167   46.9893 H   0  0  0  0  0  0  0  0  0  0  0  0
   60.0724   32.4419   48.0501 H   0  0  0  0  0  0  0  0  0  0  0  0
   61.8794   30.8961   48.8039 H   0  0  0  0  0  0  0  0  0  0  0  0
   64.2257   31.2347   48.0157 H   0  0  0  0  0  0  0  0  0  0  0  0
   64.7670   33.1237   46.4728 H   0  0  0  0  0  0  0  0  0  0  0  0
   62.9633   34.6707   45.7105 H   0  0  0  0  0  0  0  0  0  0  0  0
  1  2  1  0
  2  3  1  0
  3  4  1  0
  4  5  1  0
  3  6  1  0
  6  7  1  0
  7  8  1  0
  8  9  1  0
  9 10  1  0
 10 11  1  0
 11 12  1  0
 12 13  1  0
 13 14  1  0
 14 15  1  0
 15 16  1  0
 16 17  1  0
 17 18  2  0
 18 19  1  0
 19 20  2  0
 20 21  1  0
 21 22  2  0
 22 17  1  0
  1 23  1  0
  1 24  1  0
  1 25  1  0
  2 26  1  0
  2 27  1  0
  4 28  1  0
  4 29  1  0
  5 30  1  0
  5 31  1  0
  5 32  1  0
  6 33  1  0
  6 34  1  0
  7 35  1  0
  7 36  1  0
  9 37  1  0
  9 38  1  0
 10 39  1  0
 10 40  1  0
 12 41  1  0
 12 42  1  0
 13 43  1  0
 14 44  1  0
 14 45  1  0
 15 46  1  0
 15 47  1  0
 16 48  1  0
 16 49  1  0
 18 50  1  0
 19 51  1  0
 20 52  1  0
 21 53  1  0
 22 54  1  0
M  END
>  <UniqueID>  (7) 
7

>  <SMILES>  (7) 
CCN(CC)CCOCCOCNCCCc1ccccc1

>  <Energy>  (7) 
49.50232501770472

>  <Genealogy>  (7) 
CCN(CC)CCOCCOCNCCCc1ccccc1 (3D coordinates assigned)
CCN(CC)CCOCCOCNCCCc1ccccc1 (optimized conformer: 49.50232501770472 kcal/mol)

>  <smiles>  (7) 
CCN(CC)CCOCCOCNCCCc1ccccc1

>  <score_type>  (7) 
oracle

>  <origin>  (7) 
adg

>  <m_score__min__energy>  (7) 
-5.9500000000000002

>  <m_primary>  (7) 
energy

$$$$
7:0
     RDKit          3D

 62 64  0  0  0  0  0  0  0  0999 V2000
   60.7720   28.6060   44.9520 C   0  0  0  0  0  0  0  0  0  0  0  0
   59.7150   29.7170   45.0560 C   0  0  0  0  0  0  0  0  0  0  0  0
   59.0110   29.7600   46.3580 N   0  0  0  0  0  0  0  0  0  0  0  0
   59.9160   29.4590   47.4840 C   0  0  0  0  0  0  0  0  0  0  0  0
   57.7900   28.9240   46.3770 C   0  0  0  0  0  0  0  0  0  0  0  0
   56.9550   29.1350   45.0990 C   0  0  0  0  0  0  0  0  0  0  0  0
   56.6220   30.4930   44.8560 O   0  0  0  0  0  0  0  0  0  0  0  0
   56.8940   30.9070   43.5270 C   0  0  0  0  0  0  0  0  0  0  0  0
   57.8040   32.1420   43.4280 C   0  0  0  0  0  0  0  0  0  0  0  0
   58.4330   32.4340   44.7240 N   0  0  0  0  0  0  0  0  0  0  0  0
   57.6630   33.4400   45.4700 C   0  0  0  0  0  0  0  0  0  0  0  0
   58.0610   33.4270   46.9520 C   0  0  0  0  0  0  0  0  0  0  0  0
   58.8850   32.2490   47.2690 N   0  0  0  0  0  0  0  0  0  0  0  0
   59.8350   32.5560   48.3260 C   0  0  0  0  0  0  0  0  0  0  0  0
   61.1560   32.9750   48.0190 C   0  0  0  0  0  0  0  0  0  0  0  0
   61.5510   33.2860   46.6940 C   0  0  0  0  0  0  0  0  0  0  0  0
   62.8450   33.7150   46.4120 C   0  0  0  0  0  0  0  0  0  0  0  0
   63.7690   33.8630   47.4360 C   0  0  0  0  0  0  0  0  0  0  0  0
   63.4090   33.5710   48.7490 C   0  0  0  0  0  0  0  0  0  0  0  0
   62.1090   33.1000   49.0670 C   0  0  0  0  0  0  0  0  0  0  0  0
   61.7610   32.7830   50.3640 N   0  0  0  0  0  0  0  0  0  0  0  0
   62.8120   32.5840   51.3850 C   0  0  0  0  0  0  0  0  0  0  0  0
   60.4320   32.6400   50.7050 C   0  0  0  0  0  0  0  0  0  0  0  0
   60.0130   32.6500   52.0600 C   0  0  0  0  0  0  0  0  0  0  0  0
   58.6760   32.4720   52.4030 C   0  0  0  0  0  0  0  0  0  0  0  0
   57.7210   32.2890   51.4140 C   0  0  0  0  0  0  0  0  0  0  0  0
   58.0930   32.3030   50.0730 C   0  0  0  0  0  0  0  0  0  0  0  0
   59.4450   32.4930   49.6900 C   0  0  0  0  0  0  0  0  0  0  0  0
   61.0725   28.2901   45.9619 H   0  0  0  0  0  0  0  0  0  0  0  0
   60.3493   27.7473   44.4098 H   0  0  0  0  0  0  0  0  0  0  0  0
   61.6507   28.9855   44.4098 H   0  0  0  0  0  0  0  0  0  0  0  0
   60.2143   30.6848   44.9009 H   0  0  0  0  0  0  0  0  0  0  0  0
   58.9543   29.5046   44.2903 H   0  0  0  0  0  0  0  0  0  0  0  0
   59.3900   29.6340   48.4341 H   0  0  0  0  0  0  0  0  0  0  0  0
   60.2329   28.4071   47.4286 H   0  0  0  0  0  0  0  0  0  0  0  0
   60.7998   30.1116   47.4286 H   0  0  0  0  0  0  0  0  0  0  0  0
   58.0802   27.8652   46.4461 H   0  0  0  0  0  0  0  0  0  0  0  0
   57.1804   29.2145   47.2453 H   0  0  0  0  0  0  0  0  0  0  0  0
   57.5316   28.7593   44.2408 H   0  0  0  0  0  0  0  0  0  0  0  0
   56.0093   28.5907   45.2379 H   0  0  0  0  0  0  0  0  0  0  0  0
   57.3826   30.0747   42.9991 H   0  0  0  0  0  0  0  0  0  0  0  0
   55.9295   31.1870   43.0784 H   0  0  0  0  0  0  0  0  0  0  0  0
   58.5889   31.9523   42.6811 H   0  0  0  0  0  0  0  0  0  0  0  0
   57.1925   33.0068   43.1308 H   0  0  0  0  0  0  0  0  0  0  0  0
   58.4330   31.5480   45.2810 H   0  0  0  0  0  0  0  0  0  0  0  0
   57.8646   34.4361   45.0492 H   0  0  0  0  0  0  0  0  0  0  0  0
   56.5919   33.2041   45.3860 H   0  0  0  0  0  0  0  0  0  0  0  0
   58.6346   34.3380   47.1780 H   0  0  0  0  0  0  0  0  0  0  0  0
   57.1449   33.3864   47.5595 H   0  0  0  0  0  0  0  0  0  0  0  0
   59.3690   31.9030   46.4110 H   0  0  0  0  0  0  0  0  0  0  0  0
   58.2820   31.4420   47.5530 H   0  0  0  0  0  0  0  0  0  0  0  0
   60.8233   33.1868   45.8751 H   0  0  0  0  0  0  0  0  0  0  0  0
   63.1355   33.9372   45.3746 H   0  0  0  0  0  0  0  0  0  0  0  0
   64.7876   34.2116   47.2104 H   0  0  0  0  0  0  0  0  0  0  0  0
   64.1458   33.7080   49.5542 H   0  0  0  0  0  0  0  0  0  0  0  0
   62.3690   32.6679   52.3884 H   0  0  0  0  0  0  0  0  0  0  0  0
   63.2573   31.5856   51.2631 H   0  0  0  0  0  0  0  0  0  0  0  0
   63.5915   33.3505   51.2631 H   0  0  0  0  0  0  0  0  0  0  0  0
   60.7586   32.8012   52.8545 H   0  0  0  0  0  0  0  0  0  0  0  0
   58.3759   32.4765   53.4613 H   0  0  0  0  0  0  0  0  0  0  0  0
   56.6678   32.1325   51.6900 H   0  0  0  0  0  0  0  0  0  0  0  0
   57.3255   32.1644   49.2973 H   0  0  0  0  0  0  0  0  0  0  0  0
  1  2  1  0
  2  3  1  0
  3  4  1  0
  3  5  1  0
  5  6  1  0
  6  7  1  0
  7  8  1  0
  8  9  1  0
  9 10  1  0
 10 11  1  0
 11 12  1  0
 12 13  1  0
 13 14  1  0
 14 15  2  0
 15 16  1  0
 16 17  2  0
 17 18  1  0
 18 19  2  0
 19 20  1  0
 20 21  2  0
 21 22  1  0
 21 23  1  0
 23 24  2  0
 24 25  1  0
 25 26  2  0
 26 27  1  0
 27 28  2  0
 28 14  1  0
 20 15  1  0
 28 23  1  0
  1 29  1  0
  1 30  1  0
  1 31  1  0
  2 32  1  0
  2 33  1  0
  4 34  1  0
  4 35  1  0
  4 36  1  0
  5 37  1  0
  5 38  1  0
  6 39  1  0
  6 40  1  0
  8 41  1  0
  8 42  1  0
  9 43  1  0
  9 44  1  0
 10 45  1  0
 11 46  1  0
 11 47  1  0
 12 48  1  0
 12 49  1  0
 13 50  1  0
 13 51  1  0
 16 52  1  0
 17 53  1  0
 18 54  1  0
 19 55  1  0
 22 56  1  0
 22 57  1  0
 22 58  1  0
 24 59  1  0
 25 60  1  0
 26 61  1  0
 27 62  1  0
M  CHG  2  13   1  21   1
M  END
>  <UniqueID>  (8) 
8

>  <SMILES>  (8) 
CCN(C)CCOCCNCC[NH2+]c1c2ccccc2[n+](C)c2ccccc12

>  <Energy>  (8) 
91.96106415950224

>  <Genealogy>  (8) 
CCN(C)CCOCCNCC[NH2+]c1c2ccccc2[n+](C)c2ccccc12 (protonated)
CCN(C)CCOCCNCC[NH2+]c1c2ccccc2[n+](C)c2ccccc12 (3D coordinates assigned)
CCN(C)CCOCCNCC[NH2+]c1c2ccccc2[n+](C)c2ccccc12 (optimized conformer: 91.96106415950224 kcal/mol)

>  <smiles>  (8) 
CCN(C)CCOCCNCCNc1c2ccccc2[n+](C)c2ccccc12

>  <score_type>  (8) 
oracle

>  <origin>  (8) 
adg

>  <m_score__min__energy>  (8) 
-3.4900000000000002

>  <m_primary>  (8) 
energy

$$$$
8:0
     RDKit          3D

 73 75  0  0  0  0  0  0  0  0999 V2000
   63.6160   32.3500   49.7860 C   0  0  0  0  0  0  0  0  0  0  0  0
   63.4650   33.7500   49.1930 C   0  0  0  0  0  0  0  0  0  0  0  0
   62.0350   34.1100   49.0330 N   0  0  0  0  0  0  0  0  0  0  0  0
   61.5850   33.8380   47.6470 C   0  0  0  0  0  0  0  0  0  0  0  0
   62.7820   33.5620   46.7420 C   0  0  0  0  0  0  0  0  0  0  0  0
   61.1910   33.3910   50.0190 C   0  0  0  0  0  0  0  0  0  0  0  0
   59.7230   33.8280   49.9110 C   0  0  0  0  0  0  0  0  0  0  0  0
   58.8770   32.6980   49.9900 O   0  0  0  0  0  0  0  0  0  0  0  0
   58.1970   32.6690   51.2310 C   0  0  0  0  0  0  0  0  0  0  0  0
   57.1500   31.5430   51.2580 C   0  0  0  0  0  0  0  0  0  0  0  0
   57.7590   30.2910   51.0070 O   0  0  0  0  0  0  0  0  0  0  0  0
   58.9190   30.1370   51.8010 C   0  0  0  0  0  0  0  0  0  0  0  0
   59.6590   28.8730   51.3830 C   0  0  0  0  0  0  0  0  0  0  0  0
   59.8670   28.8880   49.9870 O   0  0  0  0  0  0  0  0  0  0  0  0
   61.1000   29.5060   49.6690 C   0  0  0  0  0  0  0  0  0  0  0  0
   60.8910   30.5240   48.5500 C   0  0  0  0  0  0  0  0  0  0  0  0
   59.4660   30.7720   48.3330 N   0  0  0  0  0  0  0  0  0  0  0  0
   58.9060   30.6480   47.0150 C   0  0  0  0  0  0  0  0  0  0  0  0
   58.8060   29.3860   46.4060 C   0  0  0  0  0  0  0  0  0  0  0  0
   59.2700   28.2310   47.0740 C   0  0  0  0  0  0  0  0  0  0  0  0
   59.2050   26.9810   46.4640 C   0  0  0  0  0  0  0  0  0  0  0  0
   58.6910   26.8620   45.1820 C   0  0  0  0  0  0  0  0  0  0  0  0
   58.2270   27.9870   44.5010 C   0  0  0  0  0  0  0  0  0  0  0  0
   58.2500   29.2770   45.1020 C   0  0  0  0  0  0  0  0  0  0  0  0
   57.7670   30.4030   44.4510 N   0  0  0  0  0  0  0  0  0  0  0  0
   57.0000   30.2590   43.1870 C   0  0  0  0  0  0  0  0  0  0  0  0
   55.5890   29.7350   43.4550 C   0  0  0  0  0  0  0  0  0  0  0  0
   57.9630   31.6600   45.0020 C   0  0  0  0  0  0  0  0  0  0  0  0
   57.6480   32.8550   44.2960 C   0  0  0  0  0  0  0  0  0  0  0  0
   57.7750   34.1080   44.8990 C   0  0  0  0  0  0  0  0  0  0  0  0
   58.2360   34.2120   46.2030 C   0  0  0  0  0  0  0  0  0  0  0  0
   58.6010   33.0670   46.9020 C   0  0  0  0  0  0  0  0  0  0  0  0
   58.4960   31.7910   46.3120 C   0  0  0  0  0  0  0  0  0  0  0  0
   63.6091   32.4142   50.8841 H   0  0  0  0  0  0  0  0  0  0  0  0
   62.7809   31.7176   49.4504 H   0  0  0  0  0  0  0  0  0  0  0  0
   64.5668   31.9102   49.4504 H   0  0  0  0  0  0  0  0  0  0  0  0
   63.9461   34.4779   49.8629 H   0  0  0  0  0  0  0  0  0  0  0  0
   63.9419   33.7633   48.2019 H   0  0  0  0  0  0  0  0  0  0  0  0
   60.9213   32.9608   47.6473 H   0  0  0  0  0  0  0  0  0  0  0  0
   61.0474   34.7195   47.2676 H   0  0  0  0  0  0  0  0  0  0  0  0
   63.6691   33.3575   47.3595 H   0  0  0  0  0  0  0  0  0  0  0  0
   62.5682   32.6896   46.1070 H   0  0  0  0  0  0  0  0  0  0  0  0
   62.9718   34.4400   46.1070 H   0  0  0  0  0  0  0  0  0  0  0  0
   61.2590   32.3096   49.8296 H   0  0  0  0  0  0  0  0  0  0  0  0
   61.5536   33.6294   51.0298 H   0  0  0  0  0  0  0  0  0  0  0  0
   59.4867   34.5187   50.7339 H   0  0  0  0  0  0  0  0  0  0  0  0
   59.5653   34.3314   48.9457 H   0  0  0  0  0  0  0  0  0  0  0  0
   58.9263   32.5018   52.0373 H   0  0  0  0  0  0  0  0  0  0  0  0
   57.6819   33.6307   51.3716 H   0  0  0  0  0  0  0  0  0  0  0  0
   56.6697   31.5196   52.2473 H   0  0  0  0  0  0  0  0  0  0  0  0
   56.4010   31.7363   50.4760 H   0  0  0  0  0  0  0  0  0  0  0  0
   59.5758   31.0085   51.6629 H   0  0  0  0  0  0  0  0  0  0  0  0
   58.6299   30.0584   52.8594 H   0  0  0  0  0  0  0  0  0  0  0  0
   60.6302   28.8298   51.8977 H   0  0  0  0  0  0  0  0  0  0  0  0
   59.0599   27.9913   51.6544 H   0  0  0  0  0  0  0  0  0  0  0  0
   61.4934   30.0173   50.5599 H   0  0  0  0  0  0  0  0  0  0  0  0
   61.8165   28.7405   49.3364 H   0  0  0  0  0  0  0  0  0  0  0  0
   61.3836   31.4683   48.8249 H   0  0  0  0  0  0  0  0  0  0  0  0
   61.3242   30.1221   47.6222 H   0  0  0  0  0  0  0  0  0  0  0  0
   58.8190   30.6600   49.1450 H   0  0  0  0  0  0  0  0  0  0  0  0
   59.6875   28.3201   48.0878 H   0  0  0  0  0  0  0  0  0  0  0  0
   59.5613   26.0884   46.9991 H   0  0  0  0  0  0  0  0  0  0  0  0
   58.6489   25.8745   44.6992 H   0  0  0  0  0  0  0  0  0  0  0  0
   57.8355   27.8752   43.4791 H   0  0  0  0  0  0  0  0  0  0  0  0
   56.9312   31.2404   42.6949 H   0  0  0  0  0  0  0  0  0  0  0  0
   57.5232   29.5382   42.5415 H   0  0  0  0  0  0  0  0  0  0  0  0
   55.4210   29.6726   44.5403 H   0  0  0  0  0  0  0  0  0  0  0  0
   54.8527   30.4196   43.0088 H   0  0  0  0  0  0  0  0  0  0  0  0
   55.4781   28.7357   43.0088 H   0  0  0  0  0  0  0  0  0  0  0  0
   57.2977   32.7902   43.2553 H   0  0  0  0  0  0  0  0  0  0  0  0
   57.5085   35.0158   44.3379 H   0  0  0  0  0  0  0  0  0  0  0  0
   58.3127   35.1986   46.6833 H   0  0  0  0  0  0  0  0  0  0  0  0
   58.9776   33.1581   47.9315 H   0  0  0  0  0  0  0  0  0  0  0  0
  1  2  1  0
  2  3  1  0
  3  4  1  0
  4  5  1  0
  3  6  1  0
  6  7  1  0
  7  8  1  0
  8  9  1  0
  9 10  1  0
 10 11  1  0
 11 12  1  0
 12 13  1  0
 13 14  1  0
 14 15  1  0
 15 16  1  0
 16 17  1  0
 17 18  1  0
 18 19  2  0
 19 20  1  0
 20 21  2  0
 21 22  1  0
 22 23  2  0
 23 24  1  0
 24 25  2  0
 25 26  1  0
 26 27  1  0
 25 28  1  0
 28 29  2  0
 29 30  1  0
 30 31  2  0
 31 32  1  0
 32 33  2  0
 33 18  1  0
 24 19  1  0
 33 28  1  0
  1 34  1  0
  1 35  1  0
  1 36  1  0
  2 37  1  0
  2 38  1  0
  4 39  1  0
  4 40  1  0
  5 41  1  0
  5 42  1  0
  5 43  1  0
  6 44  1  0
  6 45  1  0
  7 46  1  0
  7 47  1  0
  9 48  1  0
  9 49  1  0
 10 50  1  0
 10 51  1  0
 12 52  1  0
 12 53  1  0
 13 54  1  0
 13 55  1  0
 15 56  1  0
 15 57  1  0
 16 58  1  0
 16 59  1  0
 17 60  1  0
 20 61  1  0
 21 62  1  0
 22 63  1  0
 23 64  1  0
 26 65  1  0
 26 66  1  0
 27 67  1  0
 27 68  1  0
 27 69  1  0
 29 70  1  0
 30 71  1  0
 31 72  1  0
 32 73  1  0
M  CHG  1  25   1
M  END
>  <UniqueID>  (9) 
9

>  <SMILES>  (9) 
CCN(CC)CCOCCOCCOCCNc1c2ccccc2[n+](CC)c2ccccc12

>  <Energy>  (9) 
93.64526666645769

>  <Genealogy>  (9) 
CCN(CC)CCOCCOCCOCCNc1c2ccccc2[n+](CC)c2ccccc12 (3D coordinates assigned)
CCN(CC)CCOCCOCCOCCNc1c2ccccc2[n+](CC)c2ccccc12 (optimized conformer: 93.64526666645769 kcal/mol)

>  <smiles>  (9) 
CCN(CC)CCOCCOCCOCCNc1c2ccccc2[n+](CC)c2ccccc12

>  <score_type>  (9) 
oracle

>  <origin>  (9) 
adg

>  <m_score__min__energy>  (9) 
-4.8600000000000003

>  <m_primary>  (9) 
energy

$$$$
9:0
     RDKit          3D

 40 42  0  0  0  0  0  0  0  0999 V2000
   58.1400   25.6240   47.1760 C   0  0  0  0  0  0  0  0  0  0  0  0
   56.7470   25.9900   46.6790 C   0  0  0  0  0  0  0  0  0  0  0  0
   56.8410   27.0050   45.6240 N   0  0  0  0  0  0  0  0  0  0  0  0
   58.1970   27.0400   45.0660 C   0  0  0  0  0  0  0  0  0  0  0  0
   58.2340   27.8800   43.7810 C   0  0  0  0  0  0  0  0  0  0  0  0
   57.0040   28.6640   43.5580 N   0  0  0  0  0  0  0  0  0  0  0  0
   57.2740   30.0870   43.4750 C   0  0  0  0  0  0  0  0  0  0  0  0
   57.0040   30.7470   42.2660 C   0  0  0  0  0  0  0  0  0  0  0  0
   57.3000   32.1000   42.1330 C   0  0  0  0  0  0  0  0  0  0  0  0
   57.0680   32.6910   41.0450 O   0  0  0  0  0  0  0  0  0  0  0  0
   57.8310   32.7730   43.1420 O   0  0  0  0  0  0  0  0  0  0  0  0
   58.1060   32.2200   44.3210 C   0  0  0  0  0  0  0  0  0  0  0  0
   57.8320   30.8430   44.5460 C   0  0  0  0  0  0  0  0  0  0  0  0
   58.1260   30.2940   45.8130 C   0  0  0  0  0  0  0  0  0  0  0  0
   58.6900   31.0750   46.8200 C   0  0  0  0  0  0  0  0  0  0  0  0
   58.9660   32.4280   46.6010 C   0  0  0  0  0  0  0  0  0  0  0  0
   59.5240   33.2120   47.6220 C   0  0  0  0  0  0  0  0  0  0  0  0
   59.7920   34.5650   47.4040 C   0  0  0  0  0  0  0  0  0  0  0  0
   59.5060   35.1460   46.1670 C   0  0  0  0  0  0  0  0  0  0  0  0
   58.9490   34.3760   45.1400 C   0  0  0  0  0  0  0  0  0  0  0  0
   58.6710   33.0100   45.3440 C   0  0  0  0  0  0  0  0  0  0  0  0
   58.1480   25.6219   48.2760 H   0  0  0  0  0  0  0  0  0  0  0  0
   58.4106   24.6243   46.8054 H   0  0  0  0  0  0  0  0  0  0  0  0
   58.8671   26.3616   46.8054 H   0  0  0  0  0  0  0  0  0  0  0  0
   56.2559   25.0915   46.2772 H   0  0  0  0  0  0  0  0  0  0  0  0
   56.1593   26.3935   47.5168 H   0  0  0  0  0  0  0  0  0  0  0  0
   56.1800   26.7390   44.8560 H   0  0  0  0  0  0  0  0  0  0  0  0
   58.8806   27.4818   45.8059 H   0  0  0  0  0  0  0  0  0  0  0  0
   58.5070   26.0123   44.8256 H   0  0  0  0  0  0  0  0  0  0  0  0
   59.0842   28.5752   43.8432 H   0  0  0  0  0  0  0  0  0  0  0  0
   58.3303   27.1800   42.9380 H   0  0  0  0  0  0  0  0  0  0  0  0
   56.6000   28.3570   42.6420 H   0  0  0  0  0  0  0  0  0  0  0  0
   56.2760   28.4190   44.2610 H   0  0  0  0  0  0  0  0  0  0  0  0
   56.5590   30.1953   41.4248 H   0  0  0  0  0  0  0  0  0  0  0  0
   57.9066   29.2339   46.0083 H   0  0  0  0  0  0  0  0  0  0  0  0
   58.9201   30.6229   47.7960 H   0  0  0  0  0  0  0  0  0  0  0  0
   59.7513   32.7590   48.5983 H   0  0  0  0  0  0  0  0  0  0  0  0
   60.2294   35.1744   48.2086 H   0  0  0  0  0  0  0  0  0  0  0  0
   59.7192   36.2120   45.9994 H   0  0  0  0  0  0  0  0  0  0  0  0
   58.7269   34.8399   44.1677 H   0  0  0  0  0  0  0  0  0  0  0  0
  1  2  1  0
  2  3  1  0
  3  4  1  0
  4  5  1  0
  5  6  1  0
  6  7  1  0
  7  8  2  0
  8  9  1  0
  9 10  2  0
  9 11  1  0
 11 12  1  0
 12 13  2  0
 13 14  1  0
 14 15  2  0
 15 16  1  0
 16 17  2  0
 17 18  1  0
 18 19  2  0
 19 20  1  0
 20 21  2  0
 13  7  1  0
 21 16  1  0
 21 12  1  0
  1 22  1  0
  1 23  1  0
  1 24  1  0
  2 25  1  0
  2 26  1  0
  3 27  1  0
  4 28  1  0
  4 29  1  0
  5 30  1  0
  5 31  1  0
  6 32  1  0
  6 33  1  0
  8 34  1  0
 14 35  1  0
 15 36  1  0
 17 37  1  0
 18 38  1  0
 19 39  1  0
 20 40  1  0
M  CHG  1   6   1
M  END
>  <UniqueID>  (10) 
10

>  <SMILES>  (10) 
CCNCC[NH2+]c1cc(=O)oc2c1ccc1ccccc12

>  <Energy>  (10) 
48.451996501174975

>  <Genealogy>  (10) 
CCNCC[NH2+]c1cc(=O)oc2c1ccc1ccccc12 (protonated)
CCNCC[NH2+]c1cc(=O)oc2c1ccc1ccccc12 (3D coordinates assigned)
CCNCC[NH2+]c1cc(=O)oc2c1ccc1ccccc12 (optimized conformer: 48.451996501174975 kcal/mol)

>  <smiles>  (10) 
CCNCCNc1cc(=O)oc2c1ccc1ccccc12

>  <score_type>  (10) 
oracle

>  <origin>  (10) 
adg

>  <m_score__min__energy>  (10) 
-5.8600000000000003

>  <m_primary>  (10) 
energy

$$$$
10:0
     RDKit          3D

 60 62  0  0  0  0  0  0  0  0999 V2000
   59.7430   33.4620   50.7750 C   0  0  0  0  0  0  0  0  0  0  0  0
   60.1550   33.7650   49.3340 C   0  0  0  0  0  0  0  0  0  0  0  0
   61.6610   33.5430   49.0740 C   0  0  0  0  0  0  0  0  0  0  0  0
   61.9220   32.2040   48.4910 N   0  0  0  0  0  0  0  0  0  0  0  0
   62.5070   32.2850   47.1290 C   0  0  0  0  0  0  0  0  0  0  0  0
   63.3360   33.5560   46.9980 C   0  0  0  0  0  0  0  0  0  0  0  0
   62.7610   31.3830   49.3960 C   0  0  0  0  0  0  0  0  0  0  0  0
   61.8910   30.5840   50.3820 C   0  0  0  0  0  0  0  0  0  0  0  0
   61.2840   29.3980   49.7530 N   0  0  0  0  0  0  0  0  0  0  0  0
   59.8780   29.2290   50.1530 C   0  0  0  0  0  0  0  0  0  0  0  0
   58.9390   29.8540   49.1150 C   0  0  0  0  0  0  0  0  0  0  0  0
   59.6680   30.2620   47.9160 N   0  0  0  0  0  0  0  0  0  0  0  0
   59.0230   30.2470   46.6360 C   0  0  0  0  0  0  0  0  0  0  0  0
   58.6950   29.0260   46.0250 C   0  0  0  0  0  0  0  0  0  0  0  0
   59.0130   27.8010   46.6460 C   0  0  0  0  0  0  0  0  0  0  0  0
   58.7330   26.5900   46.0170 C   0  0  0  0  0  0  0  0  0  0  0  0
   58.1460   26.5800   44.7580 C   0  0  0  0  0  0  0  0  0  0  0  0
   57.8100   27.7780   44.1290 C   0  0  0  0  0  0  0  0  0  0  0  0
   58.0450   29.0270   44.7620 C   0  0  0  0  0  0  0  0  0  0  0  0
   57.6800   30.2230   44.1720 N   0  0  0  0  0  0  0  0  0  0  0  0
   56.7570   30.2260   43.0170 C   0  0  0  0  0  0  0  0  0  0  0  0
   58.1520   31.4190   44.6830 C   0  0  0  0  0  0  0  0  0  0  0  0
   58.0360   32.6370   43.9630 C   0  0  0  0  0  0  0  0  0  0  0  0
   58.4810   33.8400   44.5060 C   0  0  0  0  0  0  0  0  0  0  0  0
   59.0650   33.8650   45.7700 C   0  0  0  0  0  0  0  0  0  0  0  0
   59.6250   35.3830   46.4460 Cl  0  0  0  0  0  0  0  0  0  0  0  0
   59.2300   32.6780   46.4850 C   0  0  0  0  0  0  0  0  0  0  0  0
   58.7990   31.4480   45.9470 C   0  0  0  0  0  0  0  0  0  0  0  0
   60.4316   33.9684   51.4674 H   0  0  0  0  0  0  0  0  0  0  0  0
   58.7184   33.8234   50.9471 H   0  0  0  0  0  0  0  0  0  0  0  0
   59.7826   32.3763   50.9471 H   0  0  0  0  0  0  0  0  0  0  0  0
   59.5833   33.1088   48.6613 H   0  0  0  0  0  0  0  0  0  0  0  0
   59.9441   34.8288   49.1498 H   0  0  0  0  0  0  0  0  0  0  0  0
   62.0201   34.3129   48.3753 H   0  0  0  0  0  0  0  0  0  0  0  0
   62.1901   33.6089   50.0362 H   0  0  0  0  0  0  0  0  0  0  0  0
   63.1504   31.4099   46.9553 H   0  0  0  0  0  0  0  0  0  0  0  0
   61.6961   32.3023   46.3860 H   0  0  0  0  0  0  0  0  0  0  0  0
   63.5843   33.9367   47.9997 H   0  0  0  0  0  0  0  0  0  0  0  0
   64.2635   33.3340   46.4498 H   0  0  0  0  0  0  0  0  0  0  0  0
   62.7589   34.3153   46.4498 H   0  0  0  0  0  0  0  0  0  0  0  0
   63.3591   30.6824   48.7948 H   0  0  0  0  0  0  0  0  0  0  0  0
   63.4158   32.0541   49.9712 H   0  0  0  0  0  0  0  0  0  0  0  0
   62.5190   30.2564   51.2236 H   0  0  0  0  0  0  0  0  0  0  0  0
   61.0764   31.2402   50.7223 H   0  0  0  0  0  0  0  0  0  0  0  0
   61.8220   28.5660   50.0910 H   0  0  0  0  0  0  0  0  0  0  0  0
   59.6546   28.1556   50.2416 H   0  0  0  0  0  0  0  0  0  0  0  0
   59.7226   29.7329   51.1184 H   0  0  0  0  0  0  0  0  0  0  0  0
   58.1730   29.1160   48.8347 H   0  0  0  0  0  0  0  0  0  0  0  0
   58.4754   30.7469   49.5598 H   0  0  0  0  0  0  0  0  0  0  0  0
   60.6910   30.4880   47.9550 H   0  0  0  0  0  0  0  0  0  0  0  0
   59.4876   27.8014   47.6384 H   0  0  0  0  0  0  0  0  0  0  0  0
   58.9768   25.6413   46.5175 H   0  0  0  0  0  0  0  0  0  0  0  0
   57.9454   25.6225   44.2550 H   0  0  0  0  0  0  0  0  0  0  0  0
   57.3560   27.7552   43.1273 H   0  0  0  0  0  0  0  0  0  0  0  0
   55.7179   30.2294   43.3780 H   0  0  0  0  0  0  0  0  0  0  0  0
   56.9361   31.1236   42.4068 H   0  0  0  0  0  0  0  0  0  0  0  0
   56.9303   29.3273   42.4068 H   0  0  0  0  0  0  0  0  0  0  0  0
   57.5869   32.6306   42.9589 H   0  0  0  0  0  0  0  0  0  0  0  0
   58.3708   34.7734   43.9345 H   0  0  0  0  0  0  0  0  0  0  0  0
   59.7012   32.7022   47.4787 H   0  0  0  0  0  0  0  0  0  0  0  0
  1  2  1  0
  2  3  1  0
  3  4  1  0
  4  5  1  0
  5  6  1  0
  4  7  1  0
  7  8  1  0
  8  9  1  0
  9 10  1  0
 10 11  1  0
 11 12  1  0
 12 13  1  0
 13 14  2  0
 14 15  1  0
 15 16  2  0
 16 17  1  0
 17 18  2  0
 18 19  1  0
 19 20  2  0
 20 21  1  0
 20 22  1  0
 22 23  2  0
 23 24  1  0
 24 25  2  0
 25 26  1  0
 25 27  1  0
 27 28  2  0
 28 13  1  0
 19 14  1  0
 28 22  1  0
  1 29  1  0
  1 30  1  0
  1 31  1  0
  2 32  1  0
  2 33  1  0
  3 34  1  0
  3 35  1  0
  5 36  1  0
  5 37  1  0
  6 38  1  0
  6 39  1  0
  6 40  1  0
  7 41  1  0
  7 42  1  0
  8 43  1  0
  8 44  1  0
  9 45  1  0
 10 46  1  0
 10 47  1  0
 11 48  1  0
 11 49  1  0
 12 50  1  0
 15 51  1  0
 16 52  1  0
 17 53  1  0
 18 54  1  0
 21 55  1  0
 21 56  1  0
 21 57  1  0
 23 58  1  0
 24 59  1  0
 27 60  1  0
M  CHG  1  20   1
M  END
>  <UniqueID>  (11) 
11

>  <SMILES>  (11) 
CCCN(CC)CCNCCNc1c2ccccc2[n+](C)c2ccc(Cl)cc12

>  <Energy>  (11) 
84.63798591491816

>  <Genealogy>  (11) 
CCCN(CC)CCNCCNc1c2ccccc2[n+](C)c2ccc(Cl)cc12 (3D coordinates assigned)
CCCN(CC)CCNCCNc1c2ccccc2[n+](C)c2ccc(Cl)cc12 (optimized conformer: 84.63798591491816 kcal/mol)

>  <smiles>  (11) 
CCCN(CC)CCNCCNc1c2ccccc2[n+](C)c2ccc(Cl)cc12

>  <score_type>  (11) 
oracle

>  <origin>  (11) 
adg

>  <m_score__min__energy>  (11) 
-5.6200000000000001

>  <m_primary>  (11) 
energy

$$$$
11:0
     RDKit          3D

 49 51  0  0  0  0  0  0  0  0999 V2000
   64.1430   32.7850   48.5550 C   0  0  0  0  0  0  0  0  0  0  0  0
   62.6730   32.7530   48.5440 N   0  0  0  0  0  0  0  0  0  0  0  0
   62.1230   33.9530   49.2160 C   0  0  0  0  0  0  0  0  0  0  0  0
   60.6840   34.2260   48.7690 C   0  0  0  0  0  0  0  0  0  0  0  0
   60.6400   34.5280   47.3200 N   0  0  0  0  0  0  0  0  0  0  0  0
   59.2800   34.5370   46.7330 C   0  0  0  0  0  0  0  0  0  0  0  0
   58.7120   33.1600   46.4470 C   0  0  0  0  0  0  0  0  0  0  0  0
   58.7750   32.1090   47.3440 C   0  0  0  0  0  0  0  0  0  0  0  0
   58.1890   31.0250   46.7320 C   0  0  0  0  0  0  0  0  0  0  0  0
   57.7680   31.4550   45.4890 C   0  0  0  0  0  0  0  0  0  0  0  0
   57.1700   30.5460   44.4440 C   0  0  0  0  0  0  0  0  0  0  0  0
   58.2070   29.7970   43.7160 N   0  0  0  0  0  0  0  0  0  0  0  0
   58.7830   28.7620   44.5440 C   0  0  0  0  0  0  0  0  0  0  0  0
   60.1380   28.8150   44.9170 C   0  0  0  0  0  0  0  0  0  0  0  0
   60.6820   27.8310   45.7460 C   0  0  0  0  0  0  0  0  0  0  0  0
   59.8810   26.7870   46.2140 C   0  0  0  0  0  0  0  0  0  0  0  0
   60.4110   25.8330   47.0200 F   0  0  0  0  0  0  0  0  0  0  0  0
   58.5320   26.7250   45.8520 C   0  0  0  0  0  0  0  0  0  0  0  0
   57.9830   27.7080   45.0230 C   0  0  0  0  0  0  0  0  0  0  0  0
   58.0700   32.7660   45.3180 N   0  0  0  0  0  0  0  0  0  0  0  0
   57.7900   33.5660   44.1230 C   0  0  0  0  0  0  0  0  0  0  0  0
   61.6710   33.8390   46.5110 C   0  0  0  0  0  0  0  0  0  0  0  0
   62.1460   32.5360   47.1720 C   0  0  0  0  0  0  0  0  0  0  0  0
   64.5018   32.7928   49.5948 H   0  0  0  0  0  0  0  0  0  0  0  0
   64.5330   31.8951   48.0392 H   0  0  0  0  0  0  0  0  0  0  0  0
   64.4939   33.6910   48.0392 H   0  0  0  0  0  0  0  0  0  0  0  0
   62.1367   33.7930   50.3042 H   0  0  0  0  0  0  0  0  0  0  0  0
   62.7431   34.8200   48.9442 H   0  0  0  0  0  0  0  0  0  0  0  0
   60.0670   33.3384   48.9728 H   0  0  0  0  0  0  0  0  0  0  0  0
   60.2968   35.0925   49.3251 H   0  0  0  0  0  0  0  0  0  0  0  0
   58.6054   35.0483   47.4355 H   0  0  0  0  0  0  0  0  0  0  0  0
   59.3597   35.0512   45.7639 H   0  0  0  0  0  0  0  0  0  0  0  0
   59.2105   32.1349   48.3538 H   0  0  0  0  0  0  0  0  0  0  0  0
   58.0776   30.0139   47.1507 H   0  0  0  0  0  0  0  0  0  0  0  0
   56.4945   29.8317   44.9373 H   0  0  0  0  0  0  0  0  0  0  0  0
   56.6245   31.1686   43.7196 H   0  0  0  0  0  0  0  0  0  0  0  0
   57.7720   29.3550   42.8720 H   0  0  0  0  0  0  0  0  0  0  0  0
   58.9500   30.4480   43.3720 H   0  0  0  0  0  0  0  0  0  0  0  0
   60.7733   29.6363   44.5538 H   0  0  0  0  0  0  0  0  0  0  0  0
   61.7434   27.8785   46.0308 H   0  0  0  0  0  0  0  0  0  0  0  0
   57.9018   25.9019   46.2198 H   0  0  0  0  0  0  0  0  0  0  0  0
   56.9202   27.6572   44.7438 H   0  0  0  0  0  0  0  0  0  0  0  0
   57.4405   34.5646   44.4239 H   0  0  0  0  0  0  0  0  0  0  0  0
   58.7074   33.6637   43.5239 H   0  0  0  0  0  0  0  0  0  0  0  0
   57.0119   33.0703   43.5239 H   0  0  0  0  0  0  0  0  0  0  0  0
   61.2480   33.6025   45.5235 H   0  0  0  0  0  0  0  0  0  0  0  0
   62.5378   34.5104   46.4223 H   0  0  0  0  0  0  0  0  0  0  0  0
   61.2973   31.8383   47.2264 H   0  0  0  0  0  0  0  0  0  0  0  0
   62.9648   32.1300   46.5599 H   0  0  0  0  0  0  0  0  0  0  0  0
  1  2  1  0
  2  3  1  0
  3  4  1  0
  4  5  1  0
  5  6  1  0
  6  7  1  0
  7  8  2  0
  8  9  1  0
  9 10  2  0
 10 11  1  0
 11 12  1  0
 12 13  1  0
 13 14  2  0
 14 15  1  0
 15 16  2  0
 16 17  1  0
 16 18  1  0
 18 19  2  0
 10 20  1  0
 20 21  1  0
  5 22  1  0
 22 23  1  0
 23  2  1  0
 20  7  1  0
 19 13  1  0
  1 24  1  0
  1 25  1  0
  1 26  1  0
  3 27  1  0
  3 28  1  0
  4 29  1  0
  4 30  1  0
  6 31  1  0
  6 32  1  0
  8 33  1  0
  9 34  1  0
 11 35  1  0
 11 36  1  0
 12 37  1  0
 12 38  1  0
 14 39  1  0
 15 40  1  0
 18 41  1  0
 19 42  1  0
 21 43  1  0
 21 44  1  0
 21 45  1  0
 22 46  1  0
 22 47  1  0
 23 48  1  0
 23 49  1  0
M  CHG  1  12   1
M  END
>  <UniqueID>  (12) 
12

>  <SMILES>  (12) 
CN1CCN(Cc2ccc(C[NH2+]c3ccc(F)cc3)n2C)CC1

>  <Energy>  (12) 
90.37845678569013

>  <Genealogy>  (12) 
CN1CCN(Cc2ccc(C[NH2+]c3ccc(F)cc3)n2C)CC1 (protonated)
CN1CCN(Cc2ccc(C[NH2+]c3ccc(F)cc3)n2C)CC1 (3D coordinates assigned)
CN1CCN(Cc2ccc(C[NH2+]c3ccc(F)cc3)n2C)CC1 (nonaromatic ring conformer: 90.37845678569013 kcal/mol)

>  <smiles>  (12) 
CN1CCN(Cc2ccc(CNc3ccc(F)cc3)n2C)CC1

>  <score_type>  (12) 
oracle

>  <origin>  (12) 
adg

>  <m_score__min__energy>  (12) 
-5.9699999999999998

>  <m_primary>  (12) 
energy

$$$$
12:0
     RDKit          3D

 28 29  0  0  0  0  0  0  0  0999 V2000
   55.9620   29.7200   43.0540 C   0  0  0  0  0  0  0  0  0  0  0  0
   56.8240   29.6500   44.1690 O   0  0  0  0  0  0  0  0  0  0  0  0
   58.1070   29.8760   43.7490 N   0  0  0  0  0  0  0  0  0  0  0  0
   58.8480   30.4110   44.8750 C   0  0  0  0  0  0  0  0  0  0  0  0
   58.6830   31.7750   45.2550 C   0  0  0  0  0  0  0  0  0  0  0  0
   57.8870   32.6820   44.5180 C   0  0  0  0  0  0  0  0  0  0  0  0
   57.7370   34.0050   44.9410 C   0  0  0  0  0  0  0  0  0  0  0  0
   58.3800   34.4520   46.0960 C   0  0  0  0  0  0  0  0  0  0  0  0
   59.1870   33.5810   46.8270 C   0  0  0  0  0  0  0  0  0  0  0  0
   59.3500   32.2500   46.4100 C   0  0  0  0  0  0  0  0  0  0  0  0
   60.1810   31.3930   47.1280 C   0  0  0  0  0  0  0  0  0  0  0  0
   60.3760   30.0920   46.6850 C   0  0  0  0  0  0  0  0  0  0  0  0
   59.7490   29.6210   45.5650 N   0  0  0  0  0  0  0  0  0  0  0  0
   60.0500   28.2460   45.1410 C   0  0  0  0  0  0  0  0  0  0  0  0
   54.9212   29.8045   43.3999 H   0  0  0  0  0  0  0  0  0  0  0  0
   56.2191   30.6002   42.4465 H   0  0  0  0  0  0  0  0  0  0  0  0
   56.0737   28.8098   42.4465 H   0  0  0  0  0  0  0  0  0  0  0  0
   58.5640   28.9930   43.4160 H   0  0  0  0  0  0  0  0  0  0  0  0
   58.1190   30.5380   42.9400 H   0  0  0  0  0  0  0  0  0  0  0  0
   57.3808   32.3425   43.6023 H   0  0  0  0  0  0  0  0  0  0  0  0
   57.1092   34.6974   44.3610 H   0  0  0  0  0  0  0  0  0  0  0  0
   58.2502   35.4920   46.4299 H   0  0  0  0  0  0  0  0  0  0  0  0
   59.6978   33.9377   47.7336 H   0  0  0  0  0  0  0  0  0  0  0  0
   60.6806   31.7458   48.0423 H   0  0  0  0  0  0  0  0  0  0  0  0
   61.0485   29.4266   47.2463 H   0  0  0  0  0  0  0  0  0  0  0  0
   60.1890   27.6108   46.0283 H   0  0  0  0  0  0  0  0  0  0  0  0
   59.2157   27.8571   44.5387 H   0  0  0  0  0  0  0  0  0  0  0  0
   60.9705   28.2412   44.5387 H   0  0  0  0  0  0  0  0  0  0  0  0
  1  2  1  0
  2  3  1  0
  3  4  1  0
  4  5  2  0
  5  6  1  0
  6  7  2  0
  7  8  1  0
  8  9  2  0
  9 10  1  0
 10 11  2  0
 11 12  1  0
 12 13  2  0
 13 14  1  0
 13  4  1  0
 10  5  1  0
  1 15  1  0
  1 16  1  0
  1 17  1  0
  3 18  1  0
  3 19  1  0
  6 20  1  0
  7 21  1  0
  8 22  1  0
  9 23  1  0
 11 24  1  0
 12 25  1  0
 14 26  1  0
 14 27  1  0
 14 28  1  0
M  CHG  2   3   1  13   1
M  END
>  <UniqueID>  (13) 
13

>  <SMILES>  (13) 
CO[NH2+]c1c2ccccc2cc[n+]1C

>  <Energy>  (13) 
41.13396847339364

>  <Genealogy>  (13) 
CO[NH2+]c1c2ccccc2cc[n+]1C (protonated)
CO[NH2+]c1c2ccccc2cc[n+]1C (3D coordinates assigned)
CO[NH2+]c1c2ccccc2cc[n+]1C (optimized conformer: 41.13396847339364 kcal/mol)

>  <smiles>  (13) 
CONc1c2ccccc2cc[n+]1C

>  <score_type>  (13) 
oracle

>  <origin>  (13) 
adg

>  <m_score__min__energy>  (13) 
-2.9399999999999999

>  <m_primary>  (13) 
energy

$$$$
13:0
     RDKit          3D

 54 58  0  0  0  0  0  0  0  0999 V2000
   58.5200   32.3440   49.5760 C   0  0  0  0  0  0  0  0  0  0  0  0
   58.1090   31.3880   50.6980 C   0  0  0  0  0  0  0  0  0  0  0  0
   58.4200   29.9850   50.3810 N   0  0  0  0  0  0  0  0  0  0  0  0
   59.2910   29.3360   51.3830 C   0  0  0  0  0  0  0  0  0  0  0  0
   60.7730   29.7260   51.2260 C   0  0  0  0  0  0  0  0  0  0  0  0
   61.3400   29.3950   49.8970 N   0  0  0  0  0  0  0  0  0  0  0  0
   61.7800   30.5740   49.1590 C   0  0  0  0  0  0  0  0  0  0  0  0
   61.0500   31.0770   48.0330 C   0  0  0  0  0  0  0  0  0  0  0  0
   61.4400   32.3170   47.4770 C   0  0  0  0  0  0  0  0  0  0  0  0
   62.7100   32.7920   47.7060 N   0  0  0  0  0  0  0  0  0  0  0  0
   63.3940   33.6060   46.6800 C   0  0  0  0  0  0  0  0  0  0  0  0
   63.3940   32.3990   48.8310 C   0  0  0  0  0  0  0  0  0  0  0  0
   64.5670   33.0770   49.2460 C   0  0  0  0  0  0  0  0  0  0  0  0
   65.2330   32.7140   50.4130 C   0  0  0  0  0  0  0  0  0  0  0  0
   64.7450   31.6790   51.1960 C   0  0  0  0  0  0  0  0  0  0  0  0
   63.6020   30.9860   50.8080 C   0  0  0  0  0  0  0  0  0  0  0  0
   62.9120   31.3160   49.6140 C   0  0  0  0  0  0  0  0  0  0  0  0
   60.4460   33.0830   46.6470 C   0  0  0  0  0  0  0  0  0  0  0  0
   60.5120   34.4870   46.5360 C   0  0  0  0  0  0  0  0  0  0  0  0
   59.6310   35.1840   45.7090 C   0  0  0  0  0  0  0  0  0  0  0  0
   58.6340   34.5050   45.0150 C   0  0  0  0  0  0  0  0  0  0  0  0
   58.4690   33.1270   45.1980 C   0  0  0  0  0  0  0  0  0  0  0  0
   57.4150   32.4530   44.5650 C   0  0  0  0  0  0  0  0  0  0  0  0
   57.2080   31.0960   44.8060 C   0  0  0  0  0  0  0  0  0  0  0  0
   58.0320   30.4070   45.6960 C   0  0  0  0  0  0  0  0  0  0  0  0
   59.1000   31.0640   46.3390 C   0  0  0  0  0  0  0  0  0  0  0  0
   59.3500   32.4170   46.0540 C   0  0  0  0  0  0  0  0  0  0  0  0
   59.9200   30.3630   47.3520 C   0  0  0  0  0  0  0  0  0  0  0  0
   59.6870   29.1440   47.5600 O   0  0  0  0  0  0  0  0  0  0  0  0
   58.9188   33.2716   50.0124 H   0  0  0  0  0  0  0  0  0  0  0  0
   59.2934   31.8690   48.9545 H   0  0  0  0  0  0  0  0  0  0  0  0
   57.6432   32.5785   48.9545 H   0  0  0  0  0  0  0  0  0  0  0  0
   58.6448   31.6699   51.6164 H   0  0  0  0  0  0  0  0  0  0  0  0
   57.0195   31.4696   50.8261 H   0  0  0  0  0  0  0  0  0  0  0  0
   58.8230   29.9320   49.4160 H   0  0  0  0  0  0  0  0  0  0  0  0
   58.9537   29.6328   52.3871 H   0  0  0  0  0  0  0  0  0  0  0  0
   59.2164   28.2488   51.2329 H   0  0  0  0  0  0  0  0  0  0  0  0
   60.8647   30.8110   51.3820 H   0  0  0  0  0  0  0  0  0  0  0  0
   61.3382   29.1451   51.9697 H   0  0  0  0  0  0  0  0  0  0  0  0
   60.6070   28.9050   49.3360 H   0  0  0  0  0  0  0  0  0  0  0  0
   62.0700   28.6590   49.9730 H   0  0  0  0  0  0  0  0  0  0  0  0
   64.0270   34.3593   47.1717 H   0  0  0  0  0  0  0  0  0  0  0  0
   64.0197   32.9545   46.0522 H   0  0  0  0  0  0  0  0  0  0  0  0
   62.6445   34.1101   46.0522 H   0  0  0  0  0  0  0  0  0  0  0  0
   64.9579   33.9043   48.6355 H   0  0  0  0  0  0  0  0  0  0  0  0
   66.1463   33.2481   50.7140 H   0  0  0  0  0  0  0  0  0  0  0  0
   65.2629   31.4047   52.1269 H   0  0  0  0  0  0  0  0  0  0  0  0
   63.2270   30.1670   51.4394 H   0  0  0  0  0  0  0  0  0  0  0  0
   61.2694   35.0409   47.1100 H   0  0  0  0  0  0  0  0  0  0  0  0
   59.7247   36.2750   45.6050 H   0  0  0  0  0  0  0  0  0  0  0  0
   57.9759   35.0509   44.3230 H   0  0  0  0  0  0  0  0  0  0  0  0
   56.7504   32.9961   43.8770 H   0  0  0  0  0  0  0  0  0  0  0  0
   56.3920   30.5664   44.2926 H   0  0  0  0  0  0  0  0  0  0  0  0
   57.8465   29.3417   45.8976 H   0  0  0  0  0  0  0  0  0  0  0  0
  1  2  1  0
  2  3  1  0
  3  4  1  0
  4  5  1  0
  5  6  1  0
  6  7  1  0
  7  8  2  0
  8  9  1  0
  9 10  2  0
 10 11  1  0
 10 12  1  0
 12 13  2  0
 13 14  1  0
 14 15  2  0
 15 16  1  0
 16 17  2  0
  9 18  1  0
 18 19  2  0
 19 20  1  0
 20 21  2  0
 21 22  1  0
 22 23  2  0
 23 24  1  0
 24 25  2  0
 25 26  1  0
 26 27  2  0
 26 28  1  0
 28 29  2  0
 17  7  1  0
 27 18  1  0
 28  8  1  0
 17 12  1  0
 27 22  1  0
  1 30  1  0
  1 31  1  0
  1 32  1  0
  2 33  1  0
  2 34  1  0
  3 35  1  0
  4 36  1  0
  4 37  1  0
  5 38  1  0
  5 39  1  0
  6 40  1  0
  6 41  1  0
 11 42  1  0
 11 43  1  0
 11 44  1  0
 13 45  1  0
 14 46  1  0
 15 47  1  0
 16 48  1  0
 19 49  1  0
 20 50  1  0
 21 51  1  0
 23 52  1  0
 24 53  1  0
 25 54  1  0
M  CHG  2   6   1  10   1
M  END
>  <UniqueID>  (14) 
14

>  <SMILES>  (14) 
CCNCC[NH2+]c1c2c([n+](C)c3ccccc13)-c1cccc3cccc(c13)C2=O

>  <Energy>  (14) 
108.35042364663549

>  <Genealogy>  (14) 
CCNCC[NH2+]c1c2c([n+](C)c3ccccc13)-c1cccc3cccc(c13)C2=O (protonated)
CCNCC[NH2+]c1c2c([n+](C)c3ccccc13)-c1cccc3cccc(c13)C2=O (3D coordinates assigned)
CCNCC[NH2+]c1c2c([n+](C)c3ccccc13)-c1cccc3cccc(c13)C2=O (nonaromatic ring conformer: 108.35042364663549 kcal/mol)

>  <smiles>  (14) 
CCNCCNc1c2c([n+](C)c3ccccc13)-c1cccc3cccc(c13)C2=O

>  <score_type>  (14) 
oracle

>  <origin>  (14) 
adg

>  <m_score__min__energy>  (14) 
-6.1100000000000003

>  <m_primary>  (14) 
energy

$$$$
14:0
     RDKit          3D

 80 84  0  0  0  0  0  0  0  0999 V2000
   59.1590   35.3080   44.9470 C   0  0  0  0  0  0  0  0  0  0  0  0
   59.5100   33.8280   44.8510 C   0  0  0  0  0  0  0  0  0  0  0  0
   58.2840   33.0500   44.5540 N   0  0  0  0  0  0  0  0  0  0  0  0
   57.0580   33.6310   45.1380 C   0  0  0  0  0  0  0  0  0  0  0  0
   57.0630   33.4900   46.6580 C   0  0  0  0  0  0  0  0  0  0  0  0
   58.1390   32.7150   43.1190 C   0  0  0  0  0  0  0  0  0  0  0  0
   57.0230   31.6810   42.8340 C   0  0  0  0  0  0  0  0  0  0  0  0
   57.2730   30.3350   43.5400 C   0  0  0  0  0  0  0  0  0  0  0  0
   58.6630   30.1660   44.0170 N   0  0  0  0  0  0  0  0  0  0  0  0
   58.7390   29.2790   45.1670 C   0  0  0  0  0  0  0  0  0  0  0  0
   59.0600   29.8090   46.4230 C   0  0  0  0  0  0  0  0  0  0  0  0
   59.1870   29.0040   47.5310 C   0  0  0  0  0  0  0  0  0  0  0  0
   59.1620   27.6390   47.4440 N   0  0  0  0  0  0  0  0  0  0  0  0
   59.6830   26.8150   48.5490 C   0  0  0  0  0  0  0  0  0  0  0  0
   58.7110   27.0640   46.2680 C   0  0  0  0  0  0  0  0  0  0  0  0
   58.4310   25.6780   46.1950 C   0  0  0  0  0  0  0  0  0  0  0  0
   57.9950   25.0930   45.0060 C   0  0  0  0  0  0  0  0  0  0  0  0
   57.6610   23.3720   44.9450 Cl  0  0  0  0  0  0  0  0  0  0  0  0
   57.8100   25.8740   43.8730 C   0  0  0  0  0  0  0  0  0  0  0  0
   58.0460   27.2450   43.9160 C   0  0  0  0  0  0  0  0  0  0  0  0
   58.4980   27.8730   45.0980 C   0  0  0  0  0  0  0  0  0  0  0  0
   59.4120   29.8930   48.6770 C   0  0  0  0  0  0  0  0  0  0  0  0
   59.3710   29.6150   50.0490 C   0  0  0  0  0  0  0  0  0  0  0  0
   59.5520   30.6690   50.9760 C   0  0  0  0  0  0  0  0  0  0  0  0
   59.6930   31.9820   50.4740 C   0  0  0  0  0  0  0  0  0  0  0  0
   59.6650   32.2170   49.0930 C   0  0  0  0  0  0  0  0  0  0  0  0
   59.7580   33.3930   48.6450 O   0  0  0  0  0  0  0  0  0  0  0  0
   59.5070   31.1670   48.2440 N   0  0  0  0  0  0  0  0  0  0  0  0
   59.3030   31.2440   46.7990 C   0  0  0  0  0  0  0  0  0  0  0  0
   59.8260   33.0610   51.3450 O   0  0  0  0  0  0  0  0  0  0  0  0
   59.3030   33.0460   52.6690 C   0  0  0  0  0  0  0  0  0  0  0  0
   57.8000   33.3550   52.6170 C   0  0  0  0  0  0  0  0  0  0  0  0
   60.0310   34.1400   53.4660 C   0  0  0  0  0  0  0  0  0  0  0  0
   59.5100   31.6860   53.3100 C   0  0  0  0  0  0  0  0  0  0  0  0
   59.5050   31.6080   54.5330 O   0  0  0  0  0  0  0  0  0  0  0  0
   59.6790   30.3990   52.4880 C   0  0  1  0  0  0  0  0  0  0  0  0
   58.5660   29.4300   52.9620 C   0  0  0  0  0  0  0  0  0  0  0  0
   61.0970   29.8450   52.8290 C   0  0  0  0  0  0  0  0  0  0  0  0
   61.3940   28.4110   52.3770 C   0  0  0  0  0  0  0  0  0  0  0  0
   59.0896   35.6005   46.0051 H   0  0  0  0  0  0  0  0  0  0  0  0
   59.9409   35.9031   44.4526 H   0  0  0  0  0  0  0  0  0  0  0  0
   58.1931   35.4886   44.4526 H   0  0  0  0  0  0  0  0  0  0  0  0
   60.2448   33.6764   44.0466 H   0  0  0  0  0  0  0  0  0  0  0  0
   59.9382   33.4891   45.8059 H   0  0  0  0  0  0  0  0  0  0  0  0
   57.0035   34.6977   44.8748 H   0  0  0  0  0  0  0  0  0  0  0  0
   56.1866   33.0929   44.7365 H   0  0  0  0  0  0  0  0  0  0  0  0
   57.0276   34.4881   47.1189 H   0  0  0  0  0  0  0  0  0  0  0  0
   56.1849   32.9083   46.9752 H   0  0  0  0  0  0  0  0  0  0  0  0
   57.9801   32.9720   46.9752 H   0  0  0  0  0  0  0  0  0  0  0  0
   57.9066   33.6383   42.5681 H   0  0  0  0  0  0  0  0  0  0  0  0
   59.0882   32.2627   42.7957 H   0  0  0  0  0  0  0  0  0  0  0  0
   56.0643   32.0908   43.1847 H   0  0  0  0  0  0  0  0  0  0  0  0
   57.0098   31.4931   41.7503 H   0  0  0  0  0  0  0  0  0  0  0  0
   56.5974   30.2654   44.4053 H   0  0  0  0  0  0  0  0  0  0  0  0
   57.0873   29.5429   42.7997 H   0  0  0  0  0  0  0  0  0  0  0  0
   59.1350   31.0790   44.1770 H   0  0  0  0  0  0  0  0  0  0  0  0
   59.2120   29.7430   43.2350 H   0  0  0  0  0  0  0  0  0  0  0  0
   59.3970   27.2673   49.5101 H   0  0  0  0  0  0  0  0  0  0  0  0
   59.2613   25.8013   48.4809 H   0  0  0  0  0  0  0  0  0  0  0  0
   60.7796   26.7613   48.4809 H   0  0  0  0  0  0  0  0  0  0  0  0
   58.5594   25.0522   47.0905 H   0  0  0  0  0  0  0  0  0  0  0  0
   57.4748   25.4063   42.9355 H   0  0  0  0  0  0  0  0  0  0  0  0
   57.8775   27.8505   43.0133 H   0  0  0  0  0  0  0  0  0  0  0  0
   59.1998   28.5876   50.4026 H   0  0  0  0  0  0  0  0  0  0  0  0
   58.4331   31.8711   46.5540 H   0  0  0  0  0  0  0  0  0  0  0  0
   60.1486   31.6988   46.2623 H   0  0  0  0  0  0  0  0  0  0  0  0
   57.4066   33.4359   53.6411 H   0  0  0  0  0  0  0  0  0  0  0  0
   57.6391   34.3050   52.0863 H   0  0  0  0  0  0  0  0  0  0  0  0
   57.2774   32.5455   52.0863 H   0  0  0  0  0  0  0  0  0  0  0  0
   59.9067   33.9533   54.5429 H   0  0  0  0  0  0  0  0  0  0  0  0
   61.1014   34.1273   53.2128 H   0  0  0  0  0  0  0  0  0  0  0  0
   59.6059   35.1224   53.2128 H   0  0  0  0  0  0  0  0  0  0  0  0
   58.5419   29.4090   54.0615 H   0  0  0  0  0  0  0  0  0  0  0  0
   57.5934   29.7740   52.5804 H   0  0  0  0  0  0  0  0  0  0  0  0
   58.7729   28.4192   52.5804 H   0  0  0  0  0  0  0  0  0  0  0  0
   61.8376   30.5058   52.3548 H   0  0  0  0  0  0  0  0  0  0  0  0
   61.1457   29.8216   53.9277 H   0  0  0  0  0  0  0  0  0  0  0  0
   61.5271   27.7684   53.2598 H   0  0  0  0  0  0  0  0  0  0  0  0
   60.5546   28.0355   51.7734 H   0  0  0  0  0  0  0  0  0  0  0  0
   62.3135   28.3998   51.7734 H   0  0  0  0  0  0  0  0  0  0  0  0
  1  2  1  0
  2  3  1  0
  3  4  1  0
  4  5  1  0
  3  6  1  0
  6  7  1  0
  7  8  1  0
  8  9  1  0
  9 10  1  0
 10 11  2  0
 11 12  1  0
 12 13  2  0
 13 14  1  0
 13 15  1  0
 15 16  2  0
 16 17  1  0
 17 18  1  0
 17 19  2  0
 19 20  1  0
 20 21  2  0
 12 22  1  0
 22 23  2  0
 23 24  1  0
 24 25  2  0
 25 26  1  0
 26 27  2  0
 26 28  1  0
 28 29  1  0
 25 30  1  0
 30 31  1  0
 31 32  1  0
 31 33  1  0
 31 34  1  0
 34 35  2  0
 34 36  1  0
 36 37  1  1
 36 38  1  0
 38 39  1  0
 21 10  1  0
 28 22  1  0
 29 11  1  0
 21 15  1  0
 36 24  1  0
  1 40  1  0
  1 41  1  0
  1 42  1  0
  2 43  1  0
  2 44  1  0
  4 45  1  0
  4 46  1  0
  5 47  1  0
  5 48  1  0
  5 49  1  0
  6 50  1  0
  6 51  1  0
  7 52  1  0
  7 53  1  0
  8 54  1  0
  8 55  1  0
  9 56  1  0
  9 57  1  0
 14 58  1  0
 14 59  1  0
 14 60  1  0
 16 61  1  0
 19 62  1  0
 20 63  1  0
 23 64  1  0
 29 65  1  0
 29 66  1  0
 32 67  1  0
 32 68  1  0
 32 69  1  0
 33 70  1  0
 33 71  1  0
 33 72  1  0
 37 73  1  0
 37 74  1  0
 37 75  1  0
 38 76  1  0
 38 77  1  0
 39 78  1  0
 39 79  1  0
 39 80  1  0
M  CHG  2   9   1  13   1
M  END
>  <UniqueID>  (15) 
15

>  <SMILES>  (15) 
CCN(CC)CCC[NH2+]c1c2c([n+](C)c3cc(Cl)ccc13)-c1cc3c(c(=O)n1C2)OC(C)(C)C(=O)[C@]3(C)CC

>  <Energy>  (15) 
130.9261618647501

>  <Genealogy>  (15) 
CCN(CC)CCC[NH2+]c1c2c([n+](C)c3cc(Cl)ccc13)-c1cc3c(c(=O)n1C2)OC(C)(C)C(=O)C3(C)CC (protonated)
CCN(CC)CCC[NH2+]c1c2c([n+](C)c3cc(Cl)ccc13)-c1cc3c(c(=O)n1C2)OC(C)(C)C(=O)[C@]3(C)CC (chirality)
CCN(CC)CCC[NH2+]c1c2c([n+](C)c3cc(Cl)ccc13)-c1cc3c(c(=O)n1C2)OC(C)(C)C(=O)[C@]3(C)CC (3D coordinates assigned)
CCN(CC)CCC[NH2+]c1c2c([n+](C)c3cc(Cl)ccc13)-c1cc3c(c(=O)n1C2)OC(C)(C)C(=O)[C@]3(C)CC (nonaromatic ring conformer: 130.9261618647501 kcal/mol)

>  <smiles>  (15) 
CCN(CC)CCCNc1c2c([n+](C)c3cc(Cl)ccc13)-c1cc3c(c(=O)n1C2)OC(C)(C)C(=O)C3(C)CC

>  <score_type>  (15) 
oracle

>  <origin>  (15) 
adg

>  <m_score__min__energy>  (15) 
-5.0099999999999998

>  <m_primary>  (15) 
energy

$$$$
15:0
     RDKit          3D

 55 58  0  0  0  0  0  0  0  0999 V2000
   63.0070   33.8450   46.4220 C   0  0  0  0  0  0  0  0  0  0  0  0
   63.7620   32.9060   47.3650 C   0  0  0  0  0  0  0  0  0  0  0  0
   63.1340   32.7690   48.6970 N   0  0  0  0  0  0  0  0  0  0  0  0
   63.9750   32.1450   49.7490 C   0  0  0  0  0  0  0  0  0  0  0  0
   65.4100   32.6860   49.8340 C   0  0  0  0  0  0  0  0  0  0  0  0
   62.2730   33.8990   49.1090 C   0  0  0  0  0  0  0  0  0  0  0  0
   61.2250   33.4350   50.1430 C   0  0  0  0  0  0  0  0  0  0  0  0
   60.1690   32.4930   49.5490 C   0  0  0  0  0  0  0  0  0  0  0  0
   60.6810   31.7930   48.3690 N   0  0  0  0  0  0  0  0  0  0  0  0
   59.8130   31.5220   47.2630 C   0  0  0  0  0  0  0  0  0  0  0  0
   59.3940   30.2220   47.0150 C   0  0  0  0  0  0  0  0  0  0  0  0
   58.5140   29.9310   45.9880 C   0  0  0  0  0  0  0  0  0  0  0  0
   58.0990   30.8920   45.0990 N   0  0  0  0  0  0  0  0  0  0  0  0
   57.4120   30.4960   43.8590 C   0  0  0  0  0  0  0  0  0  0  0  0
   58.4090   32.2190   45.3680 C   0  0  0  0  0  0  0  0  0  0  0  0
   57.8480   33.2820   44.6180 C   0  0  0  0  0  0  0  0  0  0  0  0
   58.2110   34.6070   44.8680 C   0  0  0  0  0  0  0  0  0  0  0  0
   59.1320   34.9080   45.8680 C   0  0  0  0  0  0  0  0  0  0  0  0
   59.6760   33.8900   46.6490 C   0  0  0  0  0  0  0  0  0  0  0  0
   59.3040   32.5480   46.4390 C   0  0  0  0  0  0  0  0  0  0  0  0
   58.1940   28.4840   46.0600 C   0  0  0  0  0  0  0  0  0  0  0  0
   57.2330   27.6970   45.4140 C   0  0  0  0  0  0  0  0  0  0  0  0
   57.1150   26.3830   45.7650 N   0  0  0  0  0  0  0  0  0  0  0  0
   57.8830   25.8180   46.7450 C   0  0  0  0  0  0  0  0  0  0  0  0
   58.8080   26.5950   47.4560 C   0  0  0  0  0  0  0  0  0  0  0  0
   58.9350   27.9330   47.0940 C   0  0  0  0  0  0  0  0  0  0  0  0
   59.7080   28.9870   47.7300 C   0  0  0  0  0  0  0  0  0  0  0  0
   60.4750   28.8600   48.7210 O   0  0  0  0  0  0  0  0  0  0  0  0
   62.4255   34.5682   47.0127 H   0  0  0  0  0  0  0  0  0  0  0  0
   63.7263   34.3838   45.7877 H   0  0  0  0  0  0  0  0  0  0  0  0
   62.3264   33.2582   45.7877 H   0  0  0  0  0  0  0  0  0  0  0  0
   63.8091   31.9105   46.8993 H   0  0  0  0  0  0  0  0  0  0  0  0
   64.7589   33.3432   47.5233 H   0  0  0  0  0  0  0  0  0  0  0  0
   63.4879   32.3137   50.7208 H   0  0  0  0  0  0  0  0  0  0  0  0
   64.0613   31.0807   49.4846 H   0  0  0  0  0  0  0  0  0  0  0  0
   65.6989   32.7949   50.8898 H   0  0  0  0  0  0  0  0  0  0  0  0
   66.0963   31.9849   49.3365 H   0  0  0  0  0  0  0  0  0  0  0  0
   65.4626   33.6657   49.3365 H   0  0  0  0  0  0  0  0  0  0  0  0
   62.8984   34.6856   49.5563 H   0  0  0  0  0  0  0  0  0  0  0  0
   61.7492   34.2870   48.2230 H   0  0  0  0  0  0  0  0  0  0  0  0
   61.7453   32.9088   50.9568 H   0  0  0  0  0  0  0  0  0  0  0  0
   60.6993   34.3320   50.5023 H   0  0  0  0  0  0  0  0  0  0  0  0
   59.8830   31.7512   50.3092 H   0  0  0  0  0  0  0  0  0  0  0  0
   59.3000   33.0949   49.2447 H   0  0  0  0  0  0  0  0  0  0  0  0
   61.5830   31.2670   48.4210 H   0  0  0  0  0  0  0  0  0  0  0  0
   56.4839   29.9610   44.1088 H   0  0  0  0  0  0  0  0  0  0  0  0
   57.1708   31.3936   43.2707 H   0  0  0  0  0  0  0  0  0  0  0  0
   58.0679   29.8374   43.2707 H   0  0  0  0  0  0  0  0  0  0  0  0
   57.1160   33.0604   43.8274 H   0  0  0  0  0  0  0  0  0  0  0  0
   57.7669   35.4176   44.2716 H   0  0  0  0  0  0  0  0  0  0  0  0
   59.4310   35.9522   46.0420 H   0  0  0  0  0  0  0  0  0  0  0  0
   60.4028   34.1370   47.4369 H   0  0  0  0  0  0  0  0  0  0  0  0
   56.5848   28.1296   44.6377 H   0  0  0  0  0  0  0  0  0  0  0  0
   57.7744   24.7482   46.9767 H   0  0  0  0  0  0  0  0  0  0  0  0
   59.4105   26.1638   48.2690 H   0  0  0  0  0  0  0  0  0  0  0  0
  1  2  1  0
  2  3  1  0
  3  4  1  0
  4  5  1  0
  3  6  1  0
  6  7  1  0
  7  8  1  0
  8  9  1  0
  9 10  1  0
 10 11  2  0
 11 12  1  0
 12 13  2  0
 13 14  1  0
 13 15  1  0
 15 16  2  0
 16 17  1  0
 17 18  2  0
 18 19  1  0
 19 20  2  0
 12 21  1  0
 21 22  2  0
 22 23  1  0
 23 24  2  0
 24 25  1  0
 25 26  2  0
 26 27  1  0
 27 28  2  0
 20 10  1  0
 26 21  1  0
 27 11  1  0
 20 15  1  0
  1 29  1  0
  1 30  1  0
  1 31  1  0
  2 32  1  0
  2 33  1  0
  4 34  1  0
  4 35  1  0
  5 36  1  0
  5 37  1  0
  5 38  1  0
  6 39  1  0
  6 40  1  0
  7 41  1  0
  7 42  1  0
  8 43  1  0
  8 44  1  0
  9 45  1  0
 14 46  1  0
 14 47  1  0
 14 48  1  0
 16 49  1  0
 17 50  1  0
 18 51  1  0
 19 52  1  0
 22 53  1  0
 24 54  1  0
 25 55  1  0
M  CHG  1  13   1
M  END
>  <UniqueID>  (16) 
16

>  <SMILES>  (16) 
CCN(CC)CCCNc1c2c([n+](C)c3ccccc13)-c1cnccc1C2=O

>  <Energy>  (16) 
120.44346798559671

>  <Genealogy>  (16) 
CCN(CC)CCCNc1c2c([n+](C)c3ccccc13)-c1cnccc1C2=O (3D coordinates assigned)
CCN(CC)CCCNc1c2c([n+](C)c3ccccc13)-c1cnccc1C2=O (nonaromatic ring conformer: 120.44346798559671 kcal/mol)

>  <smiles>  (16) 
CCN(CC)CCCNc1c2c([n+](C)c3ccccc13)-c1cnccc1C2=O

>  <score_type>  (16) 
oracle

>  <origin>  (16) 
adg

>  <m_score__min__energy>  (16) 
-6.0800000000000001

>  <m_primary>  (16) 
energy

$$$$
16:0
     RDKit          3D

 49 51  0  0  0  0  0  0  0  0999 V2000
   57.1890   33.4880   46.5700 C   0  0  0  0  0  0  0  0  0  0  0  0
   57.3220   32.7380   45.2840 C   0  0  0  0  0  0  0  0  0  0  0  0
   58.0360   33.2890   44.2120 C   0  0  0  0  0  0  0  0  0  0  0  0
   58.1340   32.5770   43.0170 C   0  0  0  0  0  0  0  0  0  0  0  0
   57.5250   31.3270   42.8990 C   0  0  0  0  0  0  0  0  0  0  0  0
   56.8270   30.7970   43.9940 C   0  0  0  0  0  0  0  0  0  0  0  0
   56.1280   29.4760   43.8900 C   0  0  0  0  0  0  0  0  0  0  0  0
   55.8650   28.9490   45.2350 N   0  0  0  0  0  0  0  0  0  0  0  0
   56.8370   27.9130   45.6180 C   0  0  0  0  0  0  0  0  0  0  0  0
   58.2570   28.4310   45.6020 C   0  0  0  0  0  0  0  0  0  0  0  0
   59.1350   28.0690   44.5740 C   0  0  0  0  0  0  0  0  0  0  0  0
   60.4270   28.5940   44.5560 C   0  0  0  0  0  0  0  0  0  0  0  0
   60.8330   29.4530   45.5290 N   0  0  0  0  0  0  0  0  0  0  0  0
   60.0050   29.8220   46.5510 C   0  0  0  0  0  0  0  0  0  0  0  0
   60.4560   30.7630   47.5440 N   0  0  0  0  0  0  0  0  0  0  0  0
   59.5590   31.2620   48.5900 C   0  0  0  0  0  0  0  0  0  0  0  0
   59.4760   32.7990   48.5310 C   0  0  0  0  0  0  0  0  0  0  0  0
   60.7200   33.4520   48.0470 N   0  0  0  0  0  0  0  0  0  0  0  0
   60.5910   33.9130   46.6530 C   0  0  0  0  0  0  0  0  0  0  0  0
   61.9300   32.6210   48.2410 C   0  0  0  0  0  0  0  0  0  0  0  0
   61.8280   31.2790   47.4950 C   0  0  0  0  0  0  0  0  0  0  0  0
   58.6950   29.3170   46.5940 C   0  0  0  0  0  0  0  0  0  0  0  0
   56.7340   31.5170   45.1460 N   0  0  0  0  0  0  0  0  0  0  0  0
   57.3122   32.7934   47.4140 H   0  0  0  0  0  0  0  0  0  0  0  0
   57.9628   34.2681   46.6212 H   0  0  0  0  0  0  0  0  0  0  0  0
   56.1941   33.9545   46.6212 H   0  0  0  0  0  0  0  0  0  0  0  0
   58.5149   34.2742   44.3120 H   0  0  0  0  0  0  0  0  0  0  0  0
   58.6909   33.0003   42.1681 H   0  0  0  0  0  0  0  0  0  0  0  0
   57.5917   30.7631   41.9569 H   0  0  0  0  0  0  0  0  0  0  0  0
   55.1754   29.6072   43.3558 H   0  0  0  0  0  0  0  0  0  0  0  0
   56.7654   28.7685   43.3393 H   0  0  0  0  0  0  0  0  0  0  0  0
   55.9130   29.7380   45.9230 H   0  0  0  0  0  0  0  0  0  0  0  0
   56.5992   27.5615   46.6328 H   0  0  0  0  0  0  0  0  0  0  0  0
   56.7667   27.0955   44.8854 H   0  0  0  0  0  0  0  0  0  0  0  0
   58.8083   27.3751   43.7855 H   0  0  0  0  0  0  0  0  0  0  0  0
   61.1211   28.3118   43.7507 H   0  0  0  0  0  0  0  0  0  0  0  0
   61.8080   29.8240   45.4890 H   0  0  0  0  0  0  0  0  0  0  0  0
   58.5551   30.8379   48.4405 H   0  0  0  0  0  0  0  0  0  0  0  0
   59.9512   30.9612   49.5727 H   0  0  0  0  0  0  0  0  0  0  0  0
   58.6541   33.0756   47.8543 H   0  0  0  0  0  0  0  0  0  0  0  0
   59.3119   33.1492   49.5608 H   0  0  0  0  0  0  0  0  0  0  0  0
   60.2946   34.9723   46.6431 H   0  0  0  0  0  0  0  0  0  0  0  0
   61.5560   33.7974   46.1378 H   0  0  0  0  0  0  0  0  0  0  0  0
   59.8261   33.3134   46.1378 H   0  0  0  0  0  0  0  0  0  0  0  0
   62.8044   33.1720   47.8644 H   0  0  0  0  0  0  0  0  0  0  0  0
   62.0294   32.4078   49.3156 H   0  0  0  0  0  0  0  0  0  0  0  0
   62.1215   31.4260   46.4451 H   0  0  0  0  0  0  0  0  0  0  0  0
   62.4971   30.5527   47.9795 H   0  0  0  0  0  0  0  0  0  0  0  0
   58.0149   29.6168   47.4049 H   0  0  0  0  0  0  0  0  0  0  0  0
  1  2  1  0
  2  3  2  0
  3  4  1  0
  4  5  2  0
  5  6  1  0
  6  7  1  0
  7  8  1  0
  8  9  1  0
  9 10  1  0
 10 11  2  0
 11 12  1  0
 12 13  2  0
 13 14  1  0
 14 15  1  0
 15 16  1  0
 16 17  1  0
 17 18  1  0
 18 19  1  0
 18 20  1  0
 20 21  1  0
 14 22  2  0
  6 23  2  0
 23  2  1  0
 22 10  1  0
 21 15  1  0
  1 24  1  0
  1 25  1  0
  1 26  1  0
  3 27  1  0
  4 28  1  0
  5 29  1  0
  7 30  1  0
  7 31  1  0
  8 32  1  0
  9 33  1  0
  9 34  1  0
 11 35  1  0
 12 36  1  0
 13 37  1  0
 16 38  1  0
 16 39  1  0
 17 40  1  0
 17 41  1  0
 19 42  1  0
 19 43  1  0
 19 44  1  0
 20 45  1  0
 20 46  1  0
 21 47  1  0
 21 48  1  0
 22 49  1  0
M  CHG  1  13   1
M  END
>  <UniqueID>  (17) 
17

>  <SMILES>  (17) 
Cc1cccc(CNCc2cc[nH+]c(N3CCN(C)CC3)c2)n1

>  <Energy>  (17) 
58.46771677890245

>  <Genealogy>  (17) 
Cc1cccc(CNCc2cc[nH+]c(N3CCN(C)CC3)c2)n1 (protonated)
Cc1cccc(CNCc2cc[nH+]c(N3CCN(C)CC3)c2)n1 (3D coordinates assigned)
Cc1cccc(CNCc2cc[nH+]c(N3CCN(C)CC3)c2)n1 (nonaromatic ring conformer: 58.46771677890245 kcal/mol)

>  <smiles>  (17) 
Cc1cccc(CNCc2ccnc(N3CCN(C)CC3)c2)n1

>  <score_type>  (17) 
oracle

>  <origin>  (17) 
adg

>  <m_score__min__energy>  (17) 
-6.4900000000000002

>  <m_primary>  (17) 
energy

$$$$
17:0
     RDKit          3D

 50 52  0  0  0  0  0  0  0  0999 V2000
   60.1670   33.8340   49.6200 C   0  0  0  0  0  0  0  0  0  0  0  0
   61.6880   33.6270   49.5090 C   0  0  0  0  0  0  0  0  0  0  0  0
   62.0600   32.5060   48.6020 N   0  0  0  0  0  0  0  0  0  0  0  0
   63.4270   32.7280   48.0610 C   0  0  0  0  0  0  0  0  0  0  0  0
   63.4310   33.5080   46.7370 C   0  0  0  0  0  0  0  0  0  0  0  0
   61.8800   31.1670   49.2320 C   0  0  0  0  0  0  0  0  0  0  0  0
   60.7400   30.3140   48.6400 C   0  0  0  0  0  0  0  0  0  0  0  0
   60.9700   30.0830   47.2120 N   0  0  0  0  0  0  0  0  0  0  0  0
   59.8770   29.9900   46.2790 C   0  0  0  0  0  0  0  0  0  0  0  0
   59.2580   31.1570   45.7950 C   0  0  0  0  0  0  0  0  0  0  0  0
   59.7080   32.4350   46.1880 C   0  0  0  0  0  0  0  0  0  0  0  0
   59.0320   33.5860   45.7850 C   0  0  0  0  0  0  0  0  0  0  0  0
   59.6400   35.3040   46.3580 Br  0  0  0  0  0  0  0  0  0  0  0  0
   57.8920   33.4830   44.9990 C   0  0  0  0  0  0  0  0  0  0  0  0
   57.4480   32.2330   44.5730 C   0  0  0  0  0  0  0  0  0  0  0  0
   58.1430   31.0470   44.9230 C   0  0  0  0  0  0  0  0  0  0  0  0
   57.7430   29.8080   44.4580 N   0  0  0  0  0  0  0  0  0  0  0  0
   56.7910   29.7140   43.3270 C   0  0  0  0  0  0  0  0  0  0  0  0
   58.2600   28.6570   45.0210 C   0  0  0  0  0  0  0  0  0  0  0  0
   57.7090   27.3790   44.7400 C   0  0  0  0  0  0  0  0  0  0  0  0
   58.2870   26.2170   45.2520 C   0  0  0  0  0  0  0  0  0  0  0  0
   57.5910   24.6500   44.8820 Cl  0  0  0  0  0  0  0  0  0  0  0  0
   59.4200   26.2990   46.0550 C   0  0  0  0  0  0  0  0  0  0  0  0
   59.9600   27.5410   46.3780 C   0  0  0  0  0  0  0  0  0  0  0  0
   59.3690   28.7310   45.9050 C   0  0  0  0  0  0  0  0  0  0  0  0
   59.8787   33.8732   50.6808 H   0  0  0  0  0  0  0  0  0  0  0  0
   59.8887   34.7783   49.1292 H   0  0  0  0  0  0  0  0  0  0  0  0
   59.6465   32.9984   49.1292 H   0  0  0  0  0  0  0  0  0  0  0  0
   62.1403   34.5532   49.1247 H   0  0  0  0  0  0  0  0  0  0  0  0
   62.0588   33.3736   50.5131 H   0  0  0  0  0  0  0  0  0  0  0  0
   61.4030   32.5430   47.7840 H   0  0  0  0  0  0  0  0  0  0  0  0
   64.0096   33.2940   48.8027 H   0  0  0  0  0  0  0  0  0  0  0  0
   63.8656   31.7392   47.8610 H   0  0  0  0  0  0  0  0  0  0  0  0
   63.4365   34.5877   46.9475 H   0  0  0  0  0  0  0  0  0  0  0  0
   64.3278   33.2427   46.1579 H   0  0  0  0  0  0  0  0  0  0  0  0
   62.5315   33.2520   46.1579 H   0  0  0  0  0  0  0  0  0  0  0  0
   62.8198   30.6070   49.1169 H   0  0  0  0  0  0  0  0  0  0  0  0
   61.6085   31.3558   50.2811 H   0  0  0  0  0  0  0  0  0  0  0  0
   60.7007   29.3470   49.1628 H   0  0  0  0  0  0  0  0  0  0  0  0
   59.7876   30.8492   48.7681 H   0  0  0  0  0  0  0  0  0  0  0  0
   61.9380   30.2010   46.8410 H   0  0  0  0  0  0  0  0  0  0  0  0
   60.6036   32.5246   46.8204 H   0  0  0  0  0  0  0  0  0  0  0  0
   57.3387   34.3895   44.7123 H   0  0  0  0  0  0  0  0  0  0  0  0
   56.5415   32.1645   43.9536 H   0  0  0  0  0  0  0  0  0  0  0  0
   55.7674   29.6129   43.7168 H   0  0  0  0  0  0  0  0  0  0  0  0
   56.8611   30.6234   42.7122 H   0  0  0  0  0  0  0  0  0  0  0  0
   57.0376   28.8358   42.7122 H   0  0  0  0  0  0  0  0  0  0  0  0
   56.8117   27.3038   44.1082 H   0  0  0  0  0  0  0  0  0  0  0  0
   59.8904   25.3804   46.4357 H   0  0  0  0  0  0  0  0  0  0  0  0
   60.8587   27.5948   47.0100 H   0  0  0  0  0  0  0  0  0  0  0  0
  1  2  1  0
  2  3  1  0
  3  4  1  0
  4  5  1  0
  3  6  1  0
  6  7  1  0
  7  8  1  0
  8  9  1  0
  9 10  2  0
 10 11  1  0
 11 12  2  0
 12 13  1  0
 12 14  1  0
 14 15  2  0
 15 16  1  0
 16 17  2  0
 17 18  1  0
 17 19  1  0
 19 20  2  0
 20 21  1  0
 21 22  1  0
 21 23  2  0
 23 24  1  0
 24 25  2  0
 25  9  1  0
 16 10  1  0
 25 19  1  0
  1 26  1  0
  1 27  1  0
  1 28  1  0
  2 29  1  0
  2 30  1  0
  3 31  1  0
  4 32  1  0
  4 33  1  0
  5 34  1  0
  5 35  1  0
  5 36  1  0
  6 37  1  0
  6 38  1  0
  7 39  1  0
  7 40  1  0
  8 41  1  0
 11 42  1  0
 14 43  1  0
 15 44  1  0
 18 45  1  0
 18 46  1  0
 18 47  1  0
 20 48  1  0
 23 49  1  0
 24 50  1  0
M  CHG  2   3   1  17   1
M  END
>  <UniqueID>  (18) 
18

>  <SMILES>  (18) 
CC[NH+](CC)CCNc1c2cc(Br)ccc2[n+](C)c2cc(Cl)ccc12

>  <Energy>  (18) 
79.86595890441274

>  <Genealogy>  (18) 
CC[NH+](CC)CCNc1c2cc(Br)ccc2[n+](C)c2cc(Cl)ccc12 (protonated)
CC[NH+](CC)CCNc1c2cc(Br)ccc2[n+](C)c2cc(Cl)ccc12 (3D coordinates assigned)
CC[NH+](CC)CCNc1c2cc(Br)ccc2[n+](C)c2cc(Cl)ccc12 (optimized conformer: 79.86595890441274 kcal/mol)

>  <smiles>  (18) 
CCN(CC)CCNc1c2cc(Br)ccc2[n+](C)c2cc(Cl)ccc12

>  <score_type>  (18) 
oracle

>  <origin>  (18) 
adg

>  <m_score__min__energy>  (18) 
-5.2699999999999996

>  <m_primary>  (18) 
energy

$$$$
18:0
     RDKit          3D

 73 76  0  0  0  0  0  0  0  0999 V2000
   57.0040   24.2460   43.4830 C   0  0  0  0  0  0  0  0  0  0  0  0
   57.6220   25.2130   44.4970 C   0  0  0  0  0  0  0  0  0  0  0  0
   57.5260   26.6210   44.0480 N   0  0  0  0  0  0  0  0  0  0  0  0
   58.7300   27.4130   44.3600 C   0  0  0  0  0  0  0  0  0  0  0  0
   58.8270   27.7610   45.8530 C   0  0  0  0  0  0  0  0  0  0  0  0
   57.8620   28.8050   46.2010 N   0  0  0  0  0  0  0  0  0  0  0  0
   58.1680   30.1990   46.0100 C   0  0  0  0  0  0  0  0  0  0  0  0
   57.8780   30.8260   44.7850 C   0  0  0  0  0  0  0  0  0  0  0  0
   57.1980   30.1310   43.7610 C   0  0  0  0  0  0  0  0  0  0  0  0
   56.9780   30.7280   42.5210 C   0  0  0  0  0  0  0  0  0  0  0  0
   57.4310   32.0180   42.2810 C   0  0  0  0  0  0  0  0  0  0  0  0
   58.0670   32.7390   43.2910 C   0  0  0  0  0  0  0  0  0  0  0  0
   58.2600   32.1790   44.5820 C   0  0  0  0  0  0  0  0  0  0  0  0
   58.8090   32.9090   45.6200 N   0  0  0  0  0  0  0  0  0  0  0  0
   58.9510   34.3790   45.4980 C   0  0  0  0  0  0  0  0  0  0  0  0
   59.1910   32.2730   46.7900 C   0  0  0  0  0  0  0  0  0  0  0  0
   59.9650   32.9330   47.7790 C   0  0  0  0  0  0  0  0  0  0  0  0
   60.2920   32.3080   48.9940 C   0  0  0  0  0  0  0  0  0  0  0  0
   61.0390   32.9570   49.9910 O   0  0  0  0  0  0  0  0  0  0  0  0
   62.0340   33.9460   49.7480 C   0  0  0  0  0  0  0  0  0  0  0  0
   59.8700   30.9990   49.2360 C   0  0  0  0  0  0  0  0  0  0  0  0
   60.2080   30.4160   50.4700 O   0  0  0  0  0  0  0  0  0  0  0  0
   59.4870   30.5630   51.6940 C   0  0  0  0  0  0  0  0  0  0  0  0
   60.1010   31.6420   52.6220 C   0  0  0  0  0  0  0  0  0  0  0  0
   59.2630   32.0960   53.7890 N   0  0  0  0  0  0  0  0  0  0  0  0
   59.2890   31.0540   54.8500 C   0  0  0  0  0  0  0  0  0  0  0  0
   57.8400   32.3560   53.4250 C   0  0  0  0  0  0  0  0  0  0  0  0
   57.6940   33.4720   52.3650 C   0  0  0  0  0  0  0  0  0  0  0  0
   58.8120   34.4280   52.3920 N   0  0  0  0  0  0  0  0  0  0  0  0
   59.2850   34.6520   53.7590 C   0  0  0  0  0  0  0  0  0  0  0  0
   59.8660   33.3500   54.3590 C   0  0  0  0  0  0  0  0  0  0  0  0
   59.1490   30.3120   48.2490 C   0  0  0  0  0  0  0  0  0  0  0  0
   58.8260   30.9230   47.0200 C   0  0  0  0  0  0  0  0  0  0  0  0
   56.4862   23.4359   44.0174 H   0  0  0  0  0  0  0  0  0  0  0  0
   56.2841   24.7874   42.8516 H   0  0  0  0  0  0  0  0  0  0  0  0
   57.7977   23.8201   42.8516 H   0  0  0  0  0  0  0  0  0  0  0  0
   57.0929   25.1088   45.4557 H   0  0  0  0  0  0  0  0  0  0  0  0
   58.6876   24.9610   44.6022 H   0  0  0  0  0  0  0  0  0  0  0  0
   56.7230   27.0680   44.5480 H   0  0  0  0  0  0  0  0  0  0  0  0
   57.3160   26.6910   43.0230 H   0  0  0  0  0  0  0  0  0  0  0  0
   59.6194   26.8327   44.0733 H   0  0  0  0  0  0  0  0  0  0  0  0
   58.6679   28.3563   43.7975 H   0  0  0  0  0  0  0  0  0  0  0  0
   58.6164   26.8606   46.4488 H   0  0  0  0  0  0  0  0  0  0  0  0
   59.8413   28.1293   46.0667 H   0  0  0  0  0  0  0  0  0  0  0  0
   57.0310   28.5440   46.7800 H   0  0  0  0  0  0  0  0  0  0  0  0
   56.8382   29.1077   43.9439 H   0  0  0  0  0  0  0  0  0  0  0  0
   56.4452   30.1767   41.7322 H   0  0  0  0  0  0  0  0  0  0  0  0
   57.2877   32.4734   41.2900 H   0  0  0  0  0  0  0  0  0  0  0  0
   58.4252   33.7583   43.0845 H   0  0  0  0  0  0  0  0  0  0  0  0
   58.9943   34.8277   46.5014 H   0  0  0  0  0  0  0  0  0  0  0  0
   59.8760   34.6139   44.9510 H   0  0  0  0  0  0  0  0  0  0  0  0
   58.0880   34.7866   44.9510 H   0  0  0  0  0  0  0  0  0  0  0  0
   60.3172   33.9578   47.5901 H   0  0  0  0  0  0  0  0  0  0  0  0
   62.4158   34.3255   50.7073 H   0  0  0  0  0  0  0  0  0  0  0  0
   62.8606   33.5013   49.1745 H   0  0  0  0  0  0  0  0  0  0  0  0
   61.5943   34.7753   49.1745 H   0  0  0  0  0  0  0  0  0  0  0  0
   58.4506   30.8478   51.4602 H   0  0  0  0  0  0  0  0  0  0  0  0
   59.5336   29.6010   52.2255 H   0  0  0  0  0  0  0  0  0  0  0  0
   61.0408   31.2371   53.0256 H   0  0  0  0  0  0  0  0  0  0  0  0
   60.2155   32.5335   51.9878 H   0  0  0  0  0  0  0  0  0  0  0  0
   59.2770   31.5367   55.8384 H   0  0  0  0  0  0  0  0  0  0  0  0
   58.4068   30.4049   54.7482 H   0  0  0  0  0  0  0  0  0  0  0  0
   60.2025   30.4497   54.7482 H   0  0  0  0  0  0  0  0  0  0  0  0
   57.4036   31.4294   53.0239 H   0  0  0  0  0  0  0  0  0  0  0  0
   57.3180   32.6886   54.3343 H   0  0  0  0  0  0  0  0  0  0  0  0
   57.6513   33.0080   51.3686 H   0  0  0  0  0  0  0  0  0  0  0  0
   56.7735   34.0295   52.5929 H   0  0  0  0  0  0  0  0  0  0  0  0
   58.4770   35.3410   52.0050 H   0  0  0  0  0  0  0  0  0  0  0  0
   60.0678   35.4247   53.7478 H   0  0  0  0  0  0  0  0  0  0  0  0
   58.4354   34.9770   54.3775 H   0  0  0  0  0  0  0  0  0  0  0  0
   60.9488   33.3326   54.1662 H   0  0  0  0  0  0  0  0  0  0  0  0
   59.6291   33.3592   55.4332 H   0  0  0  0  0  0  0  0  0  0  0  0
   58.8292   29.2765   48.4371 H   0  0  0  0  0  0  0  0  0  0  0  0
  1  2  1  0
  2  3  1  0
  3  4  1  0
  4  5  1  0
  5  6  1  0
  6  7  1  0
  7  8  2  0
  8  9  1  0
  9 10  2  0
 10 11  1  0
 11 12  2  0
 12 13  1  0
 13 14  2  0
 14 15  1  0
 14 16  1  0
 16 17  2  0
 17 18  1  0
 18 19  1  0
 19 20  1  0
 18 21  2  0
 21 22  1  0
 22 23  1  0
 23 24  1  0
 24 25  1  0
 25 26  1  0
 25 27  1  0
 27 28  1  0
 28 29  1  0
 29 30  1  0
 30 31  1  0
 21 32  1  0
 32 33  2  0
 33  7  1  0
 13  8  1  0
 33 16  1  0
 31 25  1  0
  1 34  1  0
  1 35  1  0
  1 36  1  0
  2 37  1  0
  2 38  1  0
  3 39  1  0
  3 40  1  0
  4 41  1  0
  4 42  1  0
  5 43  1  0
  5 44  1  0
  6 45  1  0
  9 46  1  0
 10 47  1  0
 11 48  1  0
 12 49  1  0
 15 50  1  0
 15 51  1  0
 15 52  1  0
 17 53  1  0
 20 54  1  0
 20 55  1  0
 20 56  1  0
 23 57  1  0
 23 58  1  0
 24 59  1  0
 24 60  1  0
 26 61  1  0
 26 62  1  0
 26 63  1  0
 27 64  1  0
 27 65  1  0
 28 66  1  0
 28 67  1  0
 29 68  1  0
 30 69  1  0
 30 70  1  0
 31 71  1  0
 31 72  1  0
 32 73  1  0
M  CHG  3   3   1  14   1  25   1
M  END
>  <UniqueID>  (19) 
19

>  <SMILES>  (19) 
CC[NH2+]CCNc1c2ccccc2[n+](C)c2cc(OC)c(OCC[N+]3(C)CCNCC3)cc12

>  <Energy>  (19) 
118.65540200370933

>  <Genealogy>  (19) 
CC[NH2+]CCNc1c2ccccc2[n+](C)c2cc(OC)c(OCC[N+]3(C)CCNCC3)cc12 (protonated)
CC[NH2+]CCNc1c2ccccc2[n+](C)c2cc(OC)c(OCC[N+]3(C)CCNCC3)cc12 (3D coordinates assigned)
CC[NH2+]CCNc1c2ccccc2[n+](C)c2cc(OC)c(OCC[N+]3(C)CCNCC3)cc12 (nonaromatic ring conformer: 118.65540200370933 kcal/mol)

>  <smiles>  (19) 
CCNCCNc1c2ccccc2[n+](C)c2cc(OC)c(OCC[N+]3(C)CCNCC3)cc12

>  <score_type>  (19) 
oracle

>  <origin>  (19) 
adg

>  <m_score__min__energy>  (19) 
-3.1499999999999999

>  <m_primary>  (19) 
energy

$$$$
19:0
     RDKit          3D

 41 43  0  0  0  0  0  0  0  0999 V2000
   59.5230   28.1800   44.4710 C   0  0  0  0  0  0  0  0  0  0  0  0
   58.1380   27.5700   44.2420 C   0  0  0  0  0  0  0  0  0  0  0  0
   57.4240   28.2200   43.1180 N   0  0  0  0  0  0  0  0  0  0  0  0
   56.5770   29.3480   43.5430 C   0  0  0  0  0  0  0  0  0  0  0  0
   57.4030   30.5550   44.0140 C   0  0  0  0  0  0  0  0  0  0  0  0
   57.3940   30.6480   45.4720 N   0  0  0  0  0  0  0  0  0  0  0  0
   58.4720   31.2520   46.2060 C   0  0  0  0  0  0  0  0  0  0  0  0
   59.1330   30.5630   47.2450 C   0  0  0  0  0  0  0  0  0  0  0  0
   58.7650   29.2460   47.5820 C   0  0  0  0  0  0  0  0  0  0  0  0
   59.3940   28.5780   48.6290 C   0  0  0  0  0  0  0  0  0  0  0  0
   60.3940   29.2100   49.3640 C   0  0  0  0  0  0  0  0  0  0  0  0
   61.1550   28.3710   50.7030 Cl  0  0  0  0  0  0  0  0  0  0  0  0
   60.7890   30.5090   49.0400 C   0  0  0  0  0  0  0  0  0  0  0  0
   60.1950   31.2080   47.9580 C   0  0  0  0  0  0  0  0  0  0  0  0
   60.6080   32.4840   47.6000 N   0  0  0  0  0  0  0  0  0  0  0  0
   61.7910   33.1040   48.2290 C   0  0  0  0  0  0  0  0  0  0  0  0
   59.8890   33.1720   46.6490 C   0  0  0  0  0  0  0  0  0  0  0  0
   60.0610   34.5260   46.2840 C   0  0  0  0  0  0  0  0  0  0  0  0
   59.1690   34.9490   45.3040 C   0  0  0  0  0  0  0  0  0  0  0  0
   58.1580   33.6680   44.8970 S   0  0  0  0  0  0  0  0  0  0  0  0
   58.8570   32.5630   45.9550 C   0  0  0  0  0  0  0  0  0  0  0  0
   59.7128   28.2636   45.5513 H   0  0  0  0  0  0  0  0  0  0  0  0
   60.2878   27.5354   44.0132 H   0  0  0  0  0  0  0  0  0  0  0  0
   59.5638   29.1794   44.0132 H   0  0  0  0  0  0  0  0  0  0  0  0
   58.2542   26.4995   44.0173 H   0  0  0  0  0  0  0  0  0  0  0  0
   57.5443   27.7227   45.1553 H   0  0  0  0  0  0  0  0  0  0  0  0
   58.0840   28.5380   42.3690 H   0  0  0  0  0  0  0  0  0  0  0  0
   56.7940   27.5090   42.6770 H   0  0  0  0  0  0  0  0  0  0  0  0
   55.9500   29.6585   42.6942 H   0  0  0  0  0  0  0  0  0  0  0  0
   55.9659   29.0076   44.3919 H   0  0  0  0  0  0  0  0  0  0  0  0
   58.4401   30.4412   43.6656 H   0  0  0  0  0  0  0  0  0  0  0  0
   56.9597   31.4717   43.5978 H   0  0  0  0  0  0  0  0  0  0  0  0
   56.6440   30.1480   46.0000 H   0  0  0  0  0  0  0  0  0  0  0  0
   57.9721   28.7398   47.0119 H   0  0  0  0  0  0  0  0  0  0  0  0
   59.1001   27.5473   48.8767 H   0  0  0  0  0  0  0  0  0  0  0  0
   61.5745   30.9991   49.6340 H   0  0  0  0  0  0  0  0  0  0  0  0
   61.6934   33.0529   49.3235 H   0  0  0  0  0  0  0  0  0  0  0  0
   62.6974   32.5650   47.9161 H   0  0  0  0  0  0  0  0  0  0  0  0
   61.8636   34.1561   47.9161 H   0  0  0  0  0  0  0  0  0  0  0  0
   60.8242   35.1805   46.7303 H   0  0  0  0  0  0  0  0  0  0  0  0
   59.1310   35.9575   44.8663 H   0  0  0  0  0  0  0  0  0  0  0  0
  1  2  1  0
  2  3  1  0
  3  4  1  0
  4  5  1  0
  5  6  1  0
  6  7  1  0
  7  8  2  0
  8  9  1  0
  9 10  2  0
 10 11  1  0
 11 12  1  0
 11 13  2  0
 13 14  1  0
 14 15  2  0
 15 16  1  0
 15 17  1  0
 17 18  1  0
 18 19  2  0
 19 20  1  0
 20 21  1  0
 21  7  1  0
 14  8  1  0
 21 17  2  0
  1 22  1  0
  1 23  1  0
  1 24  1  0
  2 25  1  0
  2 26  1  0
  3 27  1  0
  3 28  1  0
  4 29  1  0
  4 30  1  0
  5 31  1  0
  5 32  1  0
  6 33  1  0
  9 34  1  0
 10 35  1  0
 13 36  1  0
 16 37  1  0
 16 38  1  0
 16 39  1  0
 18 40  1  0
 19 41  1  0
M  CHG  2   3   1  15   1
M  END
>  <UniqueID>  (20) 
20

>  <SMILES>  (20) 
CC[NH2+]CCNc1c2ccc(Cl)cc2[n+](C)c2ccsc12

>  <Energy>  (20) 
88.5476514805281

>  <Genealogy>  (20) 
CC[NH2+]CCNc1c2ccc(Cl)cc2[n+](C)c2ccsc12 (protonated)
CC[NH2+]CCNc1c2ccc(Cl)cc2[n+](C)c2ccsc12 (3D coordinates assigned)
CC[NH2+]CCNc1c2ccc(Cl)cc2[n+](C)c2ccsc12 (optimized conformer: 88.5476514805281 kcal/mol)

>  <smiles>  (20) 
CCNCCNc1c2ccc(Cl)cc2[n+](C)c2ccsc12

>  <score_type>  (20) 
oracle

>  <origin>  (20) 
adg

>  <m_score__min__energy>  (20) 
-4.2199999999999998

>  <m_primary>  (20) 
energy

$$$$
20:0
     RDKit          3D

 51 53  0  0  0  0  0  0  0  0999 V2000
   63.1680   33.8480   46.3820 C   0  0  0  0  0  0  0  0  0  0  0  0
   63.7590   32.7230   47.2560 C   0  0  0  0  0  0  0  0  0  0  0  0
   63.4520   32.8200   48.7230 N   0  0  0  0  0  0  0  0  0  0  0  0
   62.8900   34.1660   49.0010 C   0  0  0  0  0  0  0  0  0  0  0  0
   64.7150   32.6970   49.4990 C   0  0  0  0  0  0  0  0  0  0  0  0
   62.5090   31.7620   49.2190 C   0  0  0  0  0  0  0  0  0  0  0  0
   61.7920   30.9390   48.1150 C   0  0  0  0  0  0  0  0  0  0  0  0
   60.3280   31.0040   48.2680 N   0  0  0  0  0  0  0  0  0  0  0  0
   59.6630   30.9890   46.9730 C   0  0  0  0  0  0  0  0  0  0  0  0
   59.2930   32.2010   46.3290 C   0  0  0  0  0  0  0  0  0  0  0  0
   59.7240   33.4580   46.8150 C   0  0  0  0  0  0  0  0  0  0  0  0
   59.3820   34.6400   46.1620 C   0  0  0  0  0  0  0  0  0  0  0  0
   58.5900   34.6010   45.0190 C   0  0  0  0  0  0  0  0  0  0  0  0
   58.1460   33.3810   44.5200 C   0  0  0  0  0  0  0  0  0  0  0  0
   58.4810   32.1570   45.1580 C   0  0  0  0  0  0  0  0  0  0  0  0
   58.0450   30.9440   44.6580 N   0  0  0  0  0  0  0  0  0  0  0  0
   56.9680   30.9170   43.6400 C   0  0  0  0  0  0  0  0  0  0  0  0
   58.6210   29.7690   45.1110 C   0  0  0  0  0  0  0  0  0  0  0  0
   58.4740   28.5530   44.4000 C   0  0  0  0  0  0  0  0  0  0  0  0
   59.0340   27.3650   44.8650 C   0  0  0  0  0  0  0  0  0  0  0  0
   59.7630   27.3560   46.0450 C   0  0  0  0  0  0  0  0  0  0  0  0
   60.3230   26.2030   46.4680 F   0  0  0  0  0  0  0  0  0  0  0  0
   59.9630   28.5390   46.7570 C   0  0  0  0  0  0  0  0  0  0  0  0
   59.4150   29.7650   46.2980 C   0  0  0  0  0  0  0  0  0  0  0  0
   62.7542   34.6357   47.0287 H   0  0  0  0  0  0  0  0  0  0  0  0
   63.9593   34.2730   45.7470 H   0  0  0  0  0  0  0  0  0  0  0  0
   62.3690   33.4376   45.7470 H   0  0  0  0  0  0  0  0  0  0  0  0
   63.3635   31.7644   46.8889 H   0  0  0  0  0  0  0  0  0  0  0  0
   64.8518   32.8123   47.1679 H   0  0  0  0  0  0  0  0  0  0  0  0
   62.8260   34.3192   50.0884 H   0  0  0  0  0  0  0  0  0  0  0  0
   63.5426   34.9340   48.5603 H   0  0  0  0  0  0  0  0  0  0  0  0
   61.8850   34.2419   48.5603 H   0  0  0  0  0  0  0  0  0  0  0  0
   64.4878   32.7191   50.5751 H   0  0  0  0  0  0  0  0  0  0  0  0
   65.2085   31.7465   49.2479 H   0  0  0  0  0  0  0  0  0  0  0  0
   65.3826   33.5344   49.2479 H   0  0  0  0  0  0  0  0  0  0  0  0
   63.0825   31.0627   49.8452 H   0  0  0  0  0  0  0  0  0  0  0  0
   61.7155   32.2943   49.7640 H   0  0  0  0  0  0  0  0  0  0  0  0
   62.0681   31.3431   47.1299 H   0  0  0  0  0  0  0  0  0  0  0  0
   62.1053   29.8884   48.2049 H   0  0  0  0  0  0  0  0  0  0  0  0
   59.9920   30.2110   48.8600 H   0  0  0  0  0  0  0  0  0  0  0  0
   60.0530   31.8510   48.8160 H   0  0  0  0  0  0  0  0  0  0  0  0
   60.3403   33.5027   47.7250 H   0  0  0  0  0  0  0  0  0  0  0  0
   59.7386   35.6053   46.5506 H   0  0  0  0  0  0  0  0  0  0  0  0
   58.3146   35.5361   44.5093 H   0  0  0  0  0  0  0  0  0  0  0  0
   57.5232   33.3637   43.6135 H   0  0  0  0  0  0  0  0  0  0  0  0
   55.9895   30.8925   44.1420 H   0  0  0  0  0  0  0  0  0  0  0  0
   57.0351   31.8171   43.0113 H   0  0  0  0  0  0  0  0  0  0  0  0
   57.0801   30.0214   43.0113 H   0  0  0  0  0  0  0  0  0  0  0  0
   57.9045   28.5463   43.4589 H   0  0  0  0  0  0  0  0  0  0  0  0
   58.8979   26.4335   44.2959 H   0  0  0  0  0  0  0  0  0  0  0  0
   60.5526   28.5212   47.6855 H   0  0  0  0  0  0  0  0  0  0  0  0
  1  2  1  0
  2  3  1  0
  3  4  1  0
  3  5  1  0
  3  6  1  0
  6  7  1  0
  7  8  1  0
  8  9  1  0
  9 10  2  0
 10 11  1  0
 11 12  2  0
 12 13  1  0
 13 14  2  0
 14 15  1  0
 15 16  2  0
 16 17  1  0
 16 18  1  0
 18 19  2  0
 19 20  1  0
 20 21  2  0
 21 22  1  0
 21 23  1  0
 23 24  2  0
 24  9  1  0
 15 10  1  0
 24 18  1  0
  1 25  1  0
  1 26  1  0
  1 27  1  0
  2 28  1  0
  2 29  1  0
  4 30  1  0
  4 31  1  0
  4 32  1  0
  5 33  1  0
  5 34  1  0
  5 35  1  0
  6 36  1  0
  6 37  1  0
  7 38  1  0
  7 39  1  0
  8 40  1  0
  8 41  1  0
 11 42  1  0
 12 43  1  0
 13 44  1  0
 14 45  1  0
 17 46  1  0
 17 47  1  0
 17 48  1  0
 19 49  1  0
 20 50  1  0
 23 51  1  0
M  CHG  3   3   1   8   1  16   1
M  END
>  <UniqueID>  (21) 
21

>  <SMILES>  (21) 
CC[N+](C)(C)CC[NH2+]c1c2ccccc2[n+](C)c2ccc(F)cc12

>  <Energy>  (21) 
90.05985041163247

>  <Genealogy>  (21) 
CC[N+](C)(C)CC[NH2+]c1c2ccccc2[n+](C)c2ccc(F)cc12 (protonated)
CC[N+](C)(C)CC[NH2+]c1c2ccccc2[n+](C)c2ccc(F)cc12 (3D coordinates assigned)
CC[N+](C)(C)CC[NH2+]c1c2ccccc2[n+](C)c2ccc(F)cc12 (optimized conformer: 90.05985041163247 kcal/mol)

>  <smiles>  (21) 
CC[N+](C)(C)CCNc1c2ccccc2[n+](C)c2ccc(F)cc12

>  <score_type>  (21) 
oracle

>  <origin>  (21) 
adg

>  <m_score__min__energy>  (21) 
-2.9700000000000002

>  <m_primary>  (21) 
energy

$$$$
21:0
     RDKit          3D

 54 57  0  0  0  0  0  0  0  0999 V2000
   57.2550   26.7700   46.7550 C   0  0  0  0  0  0  0  0  0  0  0  0
   57.0300   26.6210   45.2510 C   0  0  0  0  0  0  0  0  0  0  0  0
   57.5560   27.7830   44.5040 N   0  0  0  0  0  0  0  0  0  0  0  0
   58.1940   27.3740   43.2420 C   0  0  0  0  0  0  0  0  0  0  0  0
   56.6320   28.9380   44.3610 C   0  0  0  0  0  0  0  0  0  0  0  0
   57.2650   30.3470   44.4530 C   0  0  0  0  0  0  0  0  0  0  0  0
   58.7330   30.3140   44.5740 N   0  0  0  0  0  0  0  0  0  0  0  0
   59.1620   30.8700   45.8490 C   0  0  0  0  0  0  0  0  0  0  0  0
   59.5980   30.0210   46.9010 C   0  0  0  0  0  0  0  0  0  0  0  0
   59.7980   28.6310   46.7100 C   0  0  0  0  0  0  0  0  0  0  0  0
   60.1950   27.8080   47.7610 C   0  0  0  0  0  0  0  0  0  0  0  0
   60.4080   28.3440   49.0240 C   0  0  0  0  0  0  0  0  0  0  0  0
   60.9050   27.3010   50.3460 Cl  0  0  0  0  0  0  0  0  0  0  0  0
   60.2420   29.7090   49.2370 C   0  0  0  0  0  0  0  0  0  0  0  0
   59.8490   30.5700   48.1820 C   0  0  0  0  0  0  0  0  0  0  0  0
   59.7090   31.9620   48.3860 C   0  0  0  0  0  0  0  0  0  0  0  0
   59.9500   32.5180   49.7470 C   0  0  0  0  0  0  0  0  0  0  0  0
   58.8850   32.5940   50.6570 C   0  0  0  0  0  0  0  0  0  0  0  0
   59.0910   33.1110   51.9390 C   0  0  0  0  0  0  0  0  0  0  0  0
   60.3600   33.5540   52.3190 C   0  0  0  0  0  0  0  0  0  0  0  0
   61.4260   33.4820   51.4190 C   0  0  0  0  0  0  0  0  0  0  0  0
   61.2290   32.9660   50.1320 C   0  0  0  0  0  0  0  0  0  0  0  0
   62.5950   32.8910   49.0260 Cl  0  0  0  0  0  0  0  0  0  0  0  0
   59.3880   32.7960   47.3340 N   0  0  0  0  0  0  0  0  0  0  0  0
   59.3110   34.1580   47.5350 C   0  0  0  0  0  0  0  0  0  0  0  0
   59.0310   35.0350   46.4940 C   0  0  0  0  0  0  0  0  0  0  0  0
   58.8310   34.5380   45.2200 C   0  0  0  0  0  0  0  0  0  0  0  0
   58.8890   33.1700   44.9990 C   0  0  0  0  0  0  0  0  0  0  0  0
   59.1440   32.2780   46.0700 C   0  0  0  0  0  0  0  0  0  0  0  0
   56.4579   26.2421   47.2991 H   0  0  0  0  0  0  0  0  0  0  0  0
   58.2304   26.3387   47.0243 H   0  0  0  0  0  0  0  0  0  0  0  0
   57.2386   27.8364   47.0243 H   0  0  0  0  0  0  0  0  0  0  0  0
   57.5408   25.7114   44.9021 H   0  0  0  0  0  0  0  0  0  0  0  0
   55.9469   26.5575   45.0699 H   0  0  0  0  0  0  0  0  0  0  0  0
   59.1014   26.7923   43.4616 H   0  0  0  0  0  0  0  0  0  0  0  0
   57.4939   26.7559   42.6607 H   0  0  0  0  0  0  0  0  0  0  0  0
   58.4634   28.2682   42.6607 H   0  0  0  0  0  0  0  0  0  0  0  0
   56.1435   28.8550   43.3789 H   0  0  0  0  0  0  0  0  0  0  0  0
   55.9482   28.8705   45.2200 H   0  0  0  0  0  0  0  0  0  0  0  0
   57.0011   30.9094   43.5452 H   0  0  0  0  0  0  0  0  0  0  0  0
   56.8715   30.8248   45.3623 H   0  0  0  0  0  0  0  0  0  0  0  0
   59.1020   29.3450   44.4560 H   0  0  0  0  0  0  0  0  0  0  0  0
   59.1710   30.8380   43.7880 H   0  0  0  0  0  0  0  0  0  0  0  0
   59.6367   28.1942   45.7134 H   0  0  0  0  0  0  0  0  0  0  0  0
   60.3401   26.7311   47.5902 H   0  0  0  0  0  0  0  0  0  0  0  0
   60.4185   30.1262   50.2394 H   0  0  0  0  0  0  0  0  0  0  0  0
   57.8846   32.2456   50.3606 H   0  0  0  0  0  0  0  0  0  0  0  0
   58.2531   33.1691   52.6493 H   0  0  0  0  0  0  0  0  0  0  0  0
   60.5202   33.9602   53.3286 H   0  0  0  0  0  0  0  0  0  0  0  0
   62.4238   33.8319   51.7223 H   0  0  0  0  0  0  0  0  0  0  0  0
   59.4754   34.5607   48.5453 H   0  0  0  0  0  0  0  0  0  0  0  0
   58.9690   36.1169   46.6826 H   0  0  0  0  0  0  0  0  0  0  0  0
   58.6267   35.2243   44.3850 H   0  0  0  0  0  0  0  0  0  0  0  0
   58.7358   32.7743   43.9841 H   0  0  0  0  0  0  0  0  0  0  0  0
  1  2  1  0
  2  3  1  0
  3  4  1  0
  3  5  1  0
  5  6  1  0
  6  7  1  0
  7  8  1  0
  8  9  2  0
  9 10  1  0
 10 11  2  0
 11 12  1  0
 12 13  1  0
 12 14  2  0
 14 15  1  0
 15 16  2  0
 16 17  1  0
 17 18  2  0
 18 19  1  0
 19 20  2  0
 20 21  1  0
 21 22  2  0
 22 23  1  0
 16 24  1  0
 24 25  2  0
 25 26  1  0
 26 27  2  0
 27 28  1  0
 28 29  2  0
 29  8  1  0
 15  9  1  0
 22 17  1  0
 29 24  1  0
  1 30  1  0
  1 31  1  0
  1 32  1  0
  2 33  1  0
  2 34  1  0
  4 35  1  0
  4 36  1  0
  4 37  1  0
  5 38  1  0
  5 39  1  0
  6 40  1  0
  6 41  1  0
  7 42  1  0
  7 43  1  0
 10 44  1  0
 11 45  1  0
 14 46  1  0
 18 47  1  0
 19 48  1  0
 20 49  1  0
 21 50  1  0
 25 51  1  0
 26 52  1  0
 27 53  1  0
 28 54  1  0
M  CHG  2   7   1  24   1
M  END
>  <UniqueID>  (22) 
22

>  <SMILES>  (22) 
CCN(C)CC[NH2+]c1c2ccc(Cl)cc2c(-c2ccccc2Cl)[n+]2ccccc12

>  <Energy>  (22) 
92.54873246636399

>  <Genealogy>  (22) 
CCN(C)CC[NH2+]c1c2ccc(Cl)cc2c(-c2ccccc2Cl)[n+]2ccccc12 (protonated)
CCN(C)CC[NH2+]c1c2ccc(Cl)cc2c(-c2ccccc2Cl)[n+]2ccccc12 (3D coordinates assigned)
CCN(C)CC[NH2+]c1c2ccc(Cl)cc2c(-c2ccccc2Cl)[n+]2ccccc12 (optimized conformer: 92.54873246636399 kcal/mol)

>  <smiles>  (22) 
CCN(C)CCNc1c2ccc(Cl)cc2c(-c2ccccc2Cl)[n+]2ccccc12

>  <score_type>  (22) 
oracle

>  <origin>  (22) 
adg

>  <m_score__min__energy>  (22) 
-5.0899999999999999

>  <m_primary>  (22) 
energy

$$$$
22:0
     RDKit          3D

 57 60  0  0  0  0  0  0  0  0999 V2000
   58.7730   27.1080   44.8480 C   0  0  0  0  0  0  0  0  0  0  0  0
   57.4350   27.8160   44.6600 C   0  0  0  0  0  0  0  0  0  0  0  0
   57.3480   28.4010   43.3140 N   0  0  0  0  0  0  0  0  0  0  0  0
   56.3770   29.5070   43.2690 C   0  0  0  0  0  0  0  0  0  0  0  0
   57.0910   30.8730   43.3590 C   0  0  0  0  0  0  0  0  0  0  0  0
   58.5140   30.7730   43.7400 N   0  0  0  0  0  0  0  0  0  0  0  0
   58.7530   31.2220   45.1000 C   0  0  0  0  0  0  0  0  0  0  0  0
   58.8880   30.2490   46.0940 C   0  0  0  0  0  0  0  0  0  0  0  0
   59.2270   30.6000   47.3910 C   0  0  0  0  0  0  0  0  0  0  0  0
   59.4370   31.9020   47.7400 N   0  0  0  0  0  0  0  0  0  0  0  0
   59.8980   32.1690   49.1210 C   0  0  0  0  0  0  0  0  0  0  0  0
   61.4200   32.2560   49.2090 C   0  0  0  0  0  0  0  0  0  0  0  0
   62.0770   33.2590   48.4750 C   0  0  0  0  0  0  0  0  0  0  0  0
   63.4450   33.4370   48.6000 C   0  0  0  0  0  0  0  0  0  0  0  0
   64.1710   32.6340   49.4750 C   0  0  0  0  0  0  0  0  0  0  0  0
   65.5440   32.8610   49.6590 C   0  0  0  0  0  0  0  0  0  0  0  0
   66.2710   32.0810   50.5570 C   0  0  0  0  0  0  0  0  0  0  0  0
   65.6330   31.0810   51.2860 C   0  0  0  0  0  0  0  0  0  0  0  0
   64.2670   30.8390   51.1100 C   0  0  0  0  0  0  0  0  0  0  0  0
   63.5090   31.5950   50.1800 C   0  0  0  0  0  0  0  0  0  0  0  0
   62.1610   31.3610   49.9600 N   0  0  0  0  0  0  0  0  0  0  0  0
   61.5150   30.1580   50.5260 C   0  0  0  0  0  0  0  0  0  0  0  0
   59.2640   32.9110   46.8100 C   0  0  0  0  0  0  0  0  0  0  0  0
   59.4480   34.2720   47.1600 C   0  0  0  0  0  0  0  0  0  0  0  0
   59.2950   35.2840   46.2170 C   0  0  0  0  0  0  0  0  0  0  0  0
   58.9570   34.9730   44.9080 C   0  0  0  0  0  0  0  0  0  0  0  0
   58.7670   33.6460   44.5270 C   0  0  0  0  0  0  0  0  0  0  0  0
   58.9160   32.5900   45.4600 C   0  0  0  0  0  0  0  0  0  0  0  0
   58.9816   26.9976   45.9224 H   0  0  0  0  0  0  0  0  0  0  0  0
   58.7310   26.1141   44.3786 H   0  0  0  0  0  0  0  0  0  0  0  0
   59.5712   27.7018   44.3786 H   0  0  0  0  0  0  0  0  0  0  0  0
   56.6193   27.0901   44.7929 H   0  0  0  0  0  0  0  0  0  0  0  0
   57.3503   28.6212   45.4046 H   0  0  0  0  0  0  0  0  0  0  0  0
   57.0200   27.6460   42.6720 H   0  0  0  0  0  0  0  0  0  0  0  0
   55.8164   29.4555   42.3240 H   0  0  0  0  0  0  0  0  0  0  0  0
   55.6952   29.4103   44.1268 H   0  0  0  0  0  0  0  0  0  0  0  0
   57.0278   31.3637   42.3765 H   0  0  0  0  0  0  0  0  0  0  0  0
   56.5858   31.4493   44.1481 H   0  0  0  0  0  0  0  0  0  0  0  0
   59.0550   31.3970   43.0960 H   0  0  0  0  0  0  0  0  0  0  0  0
   58.8750   29.8180   43.5390 H   0  0  0  0  0  0  0  0  0  0  0  0
   58.7230   29.1907   45.8436 H   0  0  0  0  0  0  0  0  0  0  0  0
   59.3287   29.8138   48.1536 H   0  0  0  0  0  0  0  0  0  0  0  0
   59.4675   33.1224   49.4611 H   0  0  0  0  0  0  0  0  0  0  0  0
   59.5680   31.3343   49.7568 H   0  0  0  0  0  0  0  0  0  0  0  0
   61.5012   33.9064   47.7973 H   0  0  0  0  0  0  0  0  0  0  0  0
   63.9564   34.2112   48.0091 H   0  0  0  0  0  0  0  0  0  0  0  0
   66.0483   33.6576   49.0923 H   0  0  0  0  0  0  0  0  0  0  0  0
   67.3489   32.2556   50.6897 H   0  0  0  0  0  0  0  0  0  0  0  0
   66.2069   30.4777   52.0047 H   0  0  0  0  0  0  0  0  0  0  0  0
   63.7743   30.0524   51.7003 H   0  0  0  0  0  0  0  0  0  0  0  0
   61.5426   30.2095   51.6244 H   0  0  0  0  0  0  0  0  0  0  0  0
   60.4695   30.1096   50.1874 H   0  0  0  0  0  0  0  0  0  0  0  0
   62.0521   29.2597   50.1874 H   0  0  0  0  0  0  0  0  0  0  0  0
   59.7163   34.5328   48.1944 H   0  0  0  0  0  0  0  0  0  0  0  0
   59.4425   36.3338   46.5105 H   0  0  0  0  0  0  0  0  0  0  0  0
   58.8384   35.7776   44.1673 H   0  0  0  0  0  0  0  0  0  0  0  0
   58.4972   33.4148   43.4860 H   0  0  0  0  0  0  0  0  0  0  0  0
  1  2  1  0
  2  3  1  0
  3  4  1  0
  4  5  1  0
  5  6  1  0
  6  7  1  0
  7  8  2  0
  8  9  1  0
  9 10  2  0
 10 11  1  0
 11 12  1  0
 12 13  2  0
 13 14  1  0
 14 15  2  0
 15 16  1  0
 16 17  2  0
 17 18  1  0
 18 19  2  0
 19 20  1  0
 20 21  2  0
 21 22  1  0
 10 23  1  0
 23 24  2  0
 24 25  1  0
 25 26  2  0
 26 27  1  0
 27 28  2  0
 28  7  1  0
 21 12  1  0
 28 23  1  0
 20 15  1  0
  1 29  1  0
  1 30  1  0
  1 31  1  0
  2 32  1  0
  2 33  1  0
  3 34  1  0
  4 35  1  0
  4 36  1  0
  5 37  1  0
  5 38  1  0
  6 39  1  0
  6 40  1  0
  8 41  1  0
  9 42  1  0
 11 43  1  0
 11 44  1  0
 13 45  1  0
 14 46  1  0
 16 47  1  0
 17 48  1  0
 18 49  1  0
 19 50  1  0
 22 51  1  0
 22 52  1  0
 22 53  1  0
 24 54  1  0
 25 55  1  0
 26 56  1  0
 27 57  1  0
M  CHG  3   6   1  10   1  21   1
M  END
>  <UniqueID>  (23) 
23

>  <SMILES>  (23) 
CCNCC[NH2+]c1cc[n+](Cc2ccc3ccccc3[n+]2C)c2ccccc12

>  <Energy>  (23) 
84.7271339389816

>  <Genealogy>  (23) 
CCNCC[NH2+]c1cc[n+](Cc2ccc3ccccc3[n+]2C)c2ccccc12 (protonated)
CCNCC[NH2+]c1cc[n+](Cc2ccc3ccccc3[n+]2C)c2ccccc12 (3D coordinates assigned)
CCNCC[NH2+]c1cc[n+](Cc2ccc3ccccc3[n+]2C)c2ccccc12 (optimized conformer: 84.7271339389816 kcal/mol)

>  <smiles>  (23) 
CCNCCNc1cc[n+](Cc2ccc3ccccc3[n+]2C)c2ccccc12

>  <score_type>  (23) 
oracle

>  <origin>  (23) 
adg

>  <m_score__min__energy>  (23) 
-4.4299999999999997

>  <m_primary>  (23) 
energy

$$$$
23:0
     RDKit          3D

 33 35  0  0  0  0  0  0  0  0999 V2000
   64.4780   32.9110   49.2860 C   0  0  0  0  0  0  0  0  0  0  0  0
   63.2770   33.3450   48.4980 C   0  0  0  0  0  0  0  0  0  0  0  0
   62.1150   33.7720   49.1580 C   0  0  0  0  0  0  0  0  0  0  0  0
   61.0100   34.2120   48.4240 C   0  0  0  0  0  0  0  0  0  0  0  0
   61.0520   34.2400   47.0200 C   0  0  0  0  0  0  0  0  0  0  0  0
   59.9250   34.7260   46.2650 N   0  0  0  0  0  0  0  0  0  0  0  0
   59.0810   33.6200   45.8920 C   0  0  0  0  0  0  0  0  0  0  0  0
   58.5460   32.7520   46.8860 C   0  0  0  0  0  0  0  0  0  0  0  0
   57.7690   31.6830   46.5370 N   0  0  0  0  0  0  0  0  0  0  0  0
   57.5220   31.4530   45.2240 C   0  0  0  0  0  0  0  0  0  0  0  0
   56.7770   30.4550   44.7150 N   0  0  0  0  0  0  0  0  0  0  0  0
   56.8510   30.6860   43.3760 C   0  0  0  0  0  0  0  0  0  0  0  0
   57.6090   31.7670   43.0590 N   0  0  0  0  0  0  0  0  0  0  0  0
   57.8600   32.3160   41.7320 C   0  0  0  0  0  0  0  0  0  0  0  0
   58.0190   32.2460   44.2420 C   0  0  0  0  0  0  0  0  0  0  0  0
   58.8120   33.3520   44.5300 C   0  0  0  0  0  0  0  0  0  0  0  0
   62.2280   33.8380   46.3630 C   0  0  0  0  0  0  0  0  0  0  0  0
   63.3340   33.3970   47.0970 C   0  0  0  0  0  0  0  0  0  0  0  0
   64.2593   32.9900   50.3611 H   0  0  0  0  0  0  0  0  0  0  0  0
   64.7223   31.8677   49.0373 H   0  0  0  0  0  0  0  0  0  0  0  0
   65.3328   33.5571   49.0373 H   0  0  0  0  0  0  0  0  0  0  0  0
   62.0734   33.7605   50.2572 H   0  0  0  0  0  0  0  0  0  0  0  0
   60.1006   34.5388   48.9495 H   0  0  0  0  0  0  0  0  0  0  0  0
   59.3810   35.4170   46.8340 H   0  0  0  0  0  0  0  0  0  0  0  0
   60.2530   35.2310   45.4080 H   0  0  0  0  0  0  0  0  0  0  0  0
   58.7606   32.9441   47.9476 H   0  0  0  0  0  0  0  0  0  0  0  0
   56.3470   30.0595   42.6253 H   0  0  0  0  0  0  0  0  0  0  0  0
   58.3156   33.3126   41.8277 H   0  0  0  0  0  0  0  0  0  0  0  0
   58.5437   31.6514   41.1835 H   0  0  0  0  0  0  0  0  0  0  0  0
   56.9100   32.3983   41.1835 H   0  0  0  0  0  0  0  0  0  0  0  0
   59.2135   33.9921   43.7306 H   0  0  0  0  0  0  0  0  0  0  0  0
   62.2787   33.8705   45.2646 H   0  0  0  0  0  0  0  0  0  0  0  0
   64.2517   33.0899   46.5741 H   0  0  0  0  0  0  0  0  0  0  0  0
  1  2  1  0
  2  3  2  0
  3  4  1  0
  4  5  2  0
  5  6  1  0
  6  7  1  0
  7  8  2  0
  8  9  1  0
  9 10  2  0
 10 11  1  0
 11 12  2  0
 12 13  1  0
 13 14  1  0
 13 15  1  0
 15 16  2  0
  5 17  1  0
 17 18  2  0
 18  2  1  0
 16  7  1  0
 15 10  1  0
  1 19  1  0
  1 20  1  0
  1 21  1  0
  3 22  1  0
  4 23  1  0
  6 24  1  0
  6 25  1  0
  8 26  1  0
 12 27  1  0
 14 28  1  0
 14 29  1  0
 14 30  1  0
 16 31  1  0
 17 32  1  0
 18 33  1  0
M  CHG  1   6   1
M  END
>  <UniqueID>  (24) 
24

>  <SMILES>  (24) 
Cc1ccc([NH2+]c2cnc3ncn(C)c3c2)cc1

>  <Energy>  (24) 
74.96577841526303

>  <Genealogy>  (24) 
Cc1ccc([NH2+]c2cnc3ncn(C)c3c2)cc1 (protonated)
Cc1ccc([NH2+]c2cnc3ncn(C)c3c2)cc1 (3D coordinates assigned)
Cc1ccc([NH2+]c2cnc3ncn(C)c3c2)cc1 (optimized conformer: 74.96577841526303 kcal/mol)

>  <smiles>  (24) 
Cc1ccc(Nc2cnc3ncn(C)c3c2)cc1

>  <score_type>  (24) 
oracle

>  <origin>  (24) 
adg

>  <m_score__min__energy>  (24) 
-5.2999999999999998

>  <m_primary>  (24) 
energy

$$$$
24:0
     RDKit          3D

 69 71  0  0  0  0  0  0  0  0999 V2000
   63.3230   31.3060   50.3500 C   0  0  0  0  0  0  0  0  0  0  0  0
   64.2640   31.9780   49.3450 C   0  0  0  0  0  0  0  0  0  0  0  0
   63.7370   31.9590   47.9690 N   0  0  0  0  0  0  0  0  0  0  0  0
   63.3940   33.2960   47.4610 C   0  0  0  0  0  0  0  0  0  0  0  0
   63.0810   34.2750   48.6110 C   0  0  0  0  0  0  0  0  0  0  0  0
   61.5970   34.2180   49.0230 C   0  0  0  0  0  0  0  0  0  0  0  0
   60.9190   33.0190   48.4940 N   0  0  0  0  0  0  0  0  0  0  0  0
   60.2810   33.2750   47.2140 C   0  0  0  0  0  0  0  0  0  0  0  0
   60.0510   34.6180   46.8710 C   0  0  0  0  0  0  0  0  0  0  0  0
   59.2530   34.9580   45.7940 C   0  0  0  0  0  0  0  0  0  0  0  0
   58.6520   33.9710   45.0310 C   0  0  0  0  0  0  0  0  0  0  0  0
   58.8890   32.5990   45.2840 C   0  0  0  0  0  0  0  0  0  0  0  0
   59.7490   32.2370   46.3680 C   0  0  0  0  0  0  0  0  0  0  0  0
   60.0160   30.8560   46.5560 C   0  0  0  0  0  0  0  0  0  0  0  0
   61.1910   30.4100   47.2530 N   0  0  0  0  0  0  0  0  0  0  0  0
   61.1120   29.7730   48.5720 C   0  0  0  0  0  0  0  0  0  0  0  0
   59.7370   29.9490   49.2430 C   0  0  0  0  0  0  0  0  0  0  0  0
   59.8030   30.6340   50.6160 C   0  0  0  0  0  0  0  0  0  0  0  0
   59.4860   32.0770   50.5280 N   0  0  0  0  0  0  0  0  0  0  0  0
   58.1230   32.3170   50.0210 C   0  0  0  0  0  0  0  0  0  0  0  0
   59.7420   32.7950   51.7980 C   0  0  0  0  0  0  0  0  0  0  0  0
   58.5220   33.5500   52.3460 C   0  0  0  0  0  0  0  0  0  0  0  0
   59.1850   29.9030   45.9470 C   0  0  0  0  0  0  0  0  0  0  0  0
   59.2280   28.5480   46.3390 C   0  0  0  0  0  0  0  0  0  0  0  0
   58.3790   27.6110   45.7520 C   0  0  0  0  0  0  0  0  0  0  0  0
   57.4670   28.0110   44.7820 C   0  0  0  0  0  0  0  0  0  0  0  0
   57.4100   29.3440   44.3800 C   0  0  0  0  0  0  0  0  0  0  0  0
   58.2860   30.3120   44.9350 C   0  0  0  0  0  0  0  0  0  0  0  0
   58.2860   31.6230   44.5090 N   0  0  0  0  0  0  0  0  0  0  0  0
   57.6410   31.9800   43.2250 C   0  0  0  0  0  0  0  0  0  0  0  0
   63.6514   31.5405   51.3733 H   0  0  0  0  0  0  0  0  0  0  0  0
   62.2990   31.6784   50.1992 H   0  0  0  0  0  0  0  0  0  0  0  0
   63.3429   30.2166   50.1992 H   0  0  0  0  0  0  0  0  0  0  0  0
   64.4143   33.0243   49.6495 H   0  0  0  0  0  0  0  0  0  0  0  0
   65.2080   31.4133   49.3461 H   0  0  0  0  0  0  0  0  0  0  0  0
   64.4490   31.5280   47.3340 H   0  0  0  0  0  0  0  0  0  0  0  0
   64.2429   33.6863   46.8805 H   0  0  0  0  0  0  0  0  0  0  0  0
   62.4969   33.2059   46.8309 H   0  0  0  0  0  0  0  0  0  0  0  0
   63.7022   34.0135   49.4803 H   0  0  0  0  0  0  0  0  0  0  0  0
   63.2999   35.2947   48.2612 H   0  0  0  0  0  0  0  0  0  0  0  0
   61.5341   34.2054   50.1211 H   0  0  0  0  0  0  0  0  0  0  0  0
   61.0953   35.1029   48.6043 H   0  0  0  0  0  0  0  0  0  0  0  0
   60.2430   32.6450   49.1880 H   0  0  0  0  0  0  0  0  0  0  0  0
   61.6280   32.2530   48.4090 H   0  0  0  0  0  0  0  0  0  0  0  0
   60.5149   35.4147   47.4710 H   0  0  0  0  0  0  0  0  0  0  0  0
   59.0950   36.0171   45.5423 H   0  0  0  0  0  0  0  0  0  0  0  0
   57.9768   34.2592   44.2118 H   0  0  0  0  0  0  0  0  0  0  0  0
   62.0950   30.8760   47.0140 H   0  0  0  0  0  0  0  0  0  0  0  0
   61.3097   28.6973   48.4543 H   0  0  0  0  0  0  0  0  0  0  0  0
   61.8582   30.2590   49.2177 H   0  0  0  0  0  0  0  0  0  0  0  0
   59.1031   30.5577   48.5814 H   0  0  0  0  0  0  0  0  0  0  0  0
   59.3276   28.9411   49.4060 H   0  0  0  0  0  0  0  0  0  0  0  0
   59.0796   30.1513   51.2895 H   0  0  0  0  0  0  0  0  0  0  0  0
   60.8293   30.5329   50.9987 H   0  0  0  0  0  0  0  0  0  0  0  0
   57.4326   32.4386   50.8687 H   0  0  0  0  0  0  0  0  0  0  0  0
   58.1153   33.2303   49.4080 H   0  0  0  0  0  0  0  0  0  0  0  0
   57.8038   31.4612   49.4080 H   0  0  0  0  0  0  0  0  0  0  0  0
   60.0616   32.0607   52.5521 H   0  0  0  0  0  0  0  0  0  0  0  0
   60.5144   33.5492   51.5869 H   0  0  0  0  0  0  0  0  0  0  0  0
   58.5454   33.5355   53.4457 H   0  0  0  0  0  0  0  0  0  0  0  0
   58.5460   34.5913   51.9924 H   0  0  0  0  0  0  0  0  0  0  0  0
   57.6008   33.0639   51.9924 H   0  0  0  0  0  0  0  0  0  0  0  0
   59.9385   28.2280   47.1154 H   0  0  0  0  0  0  0  0  0  0  0  0
   58.4307   26.5552   46.0563 H   0  0  0  0  0  0  0  0  0  0  0  0
   56.7881   27.2727   44.3303 H   0  0  0  0  0  0  0  0  0  0  0  0
   56.6749   29.6502   43.6211 H   0  0  0  0  0  0  0  0  0  0  0  0
   56.6944   32.5039   43.4234 H   0  0  0  0  0  0  0  0  0  0  0  0
   58.3096   32.6364   42.6488 H   0  0  0  0  0  0  0  0  0  0  0  0
   57.4398   31.0648   42.6488 H   0  0  0  0  0  0  0  0  0  0  0  0
  1  2  1  0
  2  3  1  0
  3  4  1  0
  4  5  1  0
  5  6  1  0
  6  7  1  0
  7  8  1  0
  8  9  2  0
  9 10  1  0
 10 11  2  0
 11 12  1  0
 12 13  2  0
 13 14  1  0
 14 15  1  0
 15 16  1  0
 16 17  1  0
 17 18  1  0
 18 19  1  0
 19 20  1  0
 19 21  1  0
 21 22  1  0
 14 23  2  0
 23 24  1  0
 24 25  2  0
 25 26  1  0
 26 27  2  0
 27 28  1  0
 28 29  2  0
 29 30  1  0
 13  8  1  0
 28 23  1  0
 29 12  1  0
  1 31  1  0
  1 32  1  0
  1 33  1  0
  2 34  1  0
  2 35  1  0
  3 36  1  0
  4 37  1  0
  4 38  1  0
  5 39  1  0
  5 40  1  0
  6 41  1  0
  6 42  1  0
  7 43  1  0
  7 44  1  0
  9 45  1  0
 10 46  1  0
 11 47  1  0
 15 48  1  0
 16 49  1  0
 16 50  1  0
 17 51  1  0
 17 52  1  0
 18 53  1  0
 18 54  1  0
 20 55  1  0
 20 56  1  0
 20 57  1  0
 21 58  1  0
 21 59  1  0
 22 60  1  0
 22 61  1  0
 22 62  1  0
 24 63  1  0
 25 64  1  0
 26 65  1  0
 27 66  1  0
 30 67  1  0
 30 68  1  0
 30 69  1  0
M  CHG  2   7   1  29   1
M  END
>  <UniqueID>  (25) 
25

>  <SMILES>  (25) 
CCNCCC[NH2+]c1cccc2c1c(NCCCN(C)CC)c1ccccc1[n+]2C

>  <Energy>  (25) 
106.35230485656076

>  <Genealogy>  (25) 
CCNCCC[NH2+]c1cccc2c1c(NCCCN(C)CC)c1ccccc1[n+]2C (protonated)
CCNCCC[NH2+]c1cccc2c1c(NCCCN(C)CC)c1ccccc1[n+]2C (3D coordinates assigned)
CCNCCC[NH2+]c1cccc2c1c(NCCCN(C)CC)c1ccccc1[n+]2C (optimized conformer: 106.35230485656076 kcal/mol)

>  <smiles>  (25) 
CCNCCCNc1cccc2c1c(NCCCN(C)CC)c1ccccc1[n+]2C

>  <score_type>  (25) 
oracle

>  <origin>  (25) 
adg

>  <m_score__min__energy>  (25) 
-4.6500000000000004

>  <m_primary>  (25) 
energy

$$$$
25:0
     RDKit          3D

 26 27  0  0  0  0  0  0  0  0999 V2000
   58.1350   27.0830   42.8810 C   0  0  0  0  0  0  0  0  0  0  0  0
   57.8260   28.0830   43.9160 N   0  0  0  0  0  0  0  0  0  0  0  0
   59.0570   28.5580   44.5690 C   0  0  0  0  0  0  0  0  0  0  0  0
   57.0020   29.1950   43.3940 C   0  0  0  0  0  0  0  0  0  0  0  0
   57.3620   30.5330   43.9810 C   0  0  0  0  0  0  0  0  0  0  0  0
   58.1330   31.4520   43.3470 N   0  0  0  0  0  0  0  0  0  0  0  0
   58.2070   32.4560   44.2320 C   0  0  0  0  0  0  0  0  0  0  0  0
   58.8770   33.6700   44.1160 C   0  0  0  0  0  0  0  0  0  0  0  0
   58.7990   34.5610   45.2040 C   0  0  0  0  0  0  0  0  0  0  0  0
   58.0620   34.2170   46.3620 C   0  0  0  0  0  0  0  0  0  0  0  0
   57.3980   32.9780   46.4420 C   0  0  0  0  0  0  0  0  0  0  0  0
   57.4970   32.1230   45.3490 C   0  0  0  0  0  0  0  0  0  0  0  0
   56.9780   30.9310   45.1850 O   0  0  0  0  0  0  0  0  0  0  0  0
   58.4273   26.1372   43.3606 H   0  0  0  0  0  0  0  0  0  0  0  0
   57.2462   26.9171   42.2545 H   0  0  0  0  0  0  0  0  0  0  0  0
   58.9624   27.4474   42.2545 H   0  0  0  0  0  0  0  0  0  0  0  0
   58.9344   28.5107   45.6611 H   0  0  0  0  0  0  0  0  0  0  0  0
   59.9015   27.9212   44.2669 H   0  0  0  0  0  0  0  0  0  0  0  0
   59.2548   29.5970   44.2669 H   0  0  0  0  0  0  0  0  0  0  0  0
   57.1355   29.2456   42.3033 H   0  0  0  0  0  0  0  0  0  0  0  0
   55.9595   28.9867   43.6764 H   0  0  0  0  0  0  0  0  0  0  0  0
   58.5680   31.3900   42.3990 H   0  0  0  0  0  0  0  0  0  0  0  0
   59.4457   33.9241   43.2094 H   0  0  0  0  0  0  0  0  0  0  0  0
   59.3147   35.5313   45.1532 H   0  0  0  0  0  0  0  0  0  0  0  0
   58.0075   34.9218   47.2048 H   0  0  0  0  0  0  0  0  0  0  0  0
   56.8221   32.6964   47.3359 H   0  0  0  0  0  0  0  0  0  0  0  0
  1  2  1  0
  2  3  1  0
  2  4  1  0
  4  5  1  0
  5  6  2  0
  6  7  1  0
  7  8  2  0
  8  9  1  0
  9 10  2  0
 10 11  1  0
 11 12  2  0
 12 13  1  0
 13  5  1  0
 12  7  1  0
  1 14  1  0
  1 15  1  0
  1 16  1  0
  3 17  1  0
  3 18  1  0
  3 19  1  0
  4 20  1  0
  4 21  1  0
  6 22  1  0
  8 23  1  0
  9 24  1  0
 10 25  1  0
 11 26  1  0
M  CHG  1   6   1
M  END
>  <UniqueID>  (26) 
26

>  <SMILES>  (26) 
CN(C)Cc1[nH+]c2ccccc2o1

>  <Energy>  (26) 
65.72961205469791

>  <Genealogy>  (26) 
CN(C)Cc1[nH+]c2ccccc2o1 (protonated)
CN(C)Cc1[nH+]c2ccccc2o1 (3D coordinates assigned)
CN(C)Cc1[nH+]c2ccccc2o1 (optimized conformer: 65.72961205469791 kcal/mol)

>  <smiles>  (26) 
CN(C)Cc1nc2ccccc2o1

>  <score_type>  (26) 
oracle

>  <origin>  (26) 
adg

>  <m_score__min__energy>  (26) 
-3.8399999999999999

>  <m_primary>  (26) 
energy

$$$$
26:0
     RDKit          3D

 61 64  0  0  0  0  0  0  0  0999 V2000
   59.3290   33.1640   50.4760 C   0  0  0  0  0  0  0  0  0  0  0  0
   59.0700   31.7300   50.9440 C   0  0  0  0  0  0  0  0  0  0  0  0
   60.2630   31.1110   51.5500 N   0  0  0  0  0  0  0  0  0  0  0  0
   60.4060   29.6940   51.1750 C   0  0  0  0  0  0  0  0  0  0  0  0
   59.5850   29.3610   49.9220 C   0  0  0  0  0  0  0  0  0  0  0  0
   60.4130   29.4210   48.7180 N   0  0  0  0  0  0  0  0  0  0  0  0
   60.2660   30.5230   47.8110 C   0  0  0  0  0  0  0  0  0  0  0  0
   61.1150   31.6460   47.8540 C   0  0  0  0  0  0  0  0  0  0  0  0
   62.1230   31.7530   48.8320 C   0  0  0  0  0  0  0  0  0  0  0  0
   63.0100   32.8420   48.8530 C   0  0  0  0  0  0  0  0  0  0  0  0
   64.0660   32.9240   49.8450 N   0  0  0  0  0  0  0  0  0  0  0  0
   65.2380   32.0340   49.7880 C   0  0  0  0  0  0  0  0  0  0  0  0
   66.5200   32.7860   50.1380 C   0  0  0  0  0  0  0  0  0  0  0  0
   63.9880   33.9070   50.9390 C   0  0  0  0  0  0  0  0  0  0  0  0
   62.6330   33.8360   51.6400 C   0  0  0  0  0  0  0  0  0  0  0  0
   62.8670   33.8410   47.8780 C   0  0  0  0  0  0  0  0  0  0  0  0
   61.8510   33.7740   46.9260 C   0  0  0  0  0  0  0  0  0  0  0  0
   60.9350   32.7000   46.9070 C   0  0  0  0  0  0  0  0  0  0  0  0
   59.8900   32.6540   45.9950 N   0  0  0  0  0  0  0  0  0  0  0  0
   59.4570   33.8860   45.3130 C   0  0  0  0  0  0  0  0  0  0  0  0
   59.1780   31.4810   45.8560 C   0  0  0  0  0  0  0  0  0  0  0  0
   59.3160   30.4650   46.8000 C   0  0  0  0  0  0  0  0  0  0  0  0
   58.2540   29.1950   46.4850 S   0  0  0  0  0  0  0  0  0  0  0  0
   57.6260   29.8980   45.0960 C   0  0  0  0  0  0  0  0  0  0  0  0
   56.6850   29.3350   44.2370 C   0  0  0  0  0  0  0  0  0  0  0  0
   56.3680   30.0170   43.0580 C   0  0  0  0  0  0  0  0  0  0  0  0
   57.0200   31.2200   42.7420 C   0  0  0  0  0  0  0  0  0  0  0  0
   57.9710   31.7690   43.6160 C   0  0  0  0  0  0  0  0  0  0  0  0
   58.2420   31.1270   44.8400 C   0  0  0  0  0  0  0  0  0  0  0  0
   59.4474   33.8196   51.3513 H   0  0  0  0  0  0  0  0  0  0  0  0
   60.2467   33.1919   49.8702 H   0  0  0  0  0  0  0  0  0  0  0  0
   58.4790   33.5111   49.8702 H   0  0  0  0  0  0  0  0  0  0  0  0
   58.2615   31.7427   51.6898 H   0  0  0  0  0  0  0  0  0  0  0  0
   58.7956   31.1341   50.0610 H   0  0  0  0  0  0  0  0  0  0  0  0
   60.1570   31.1700   52.5890 H   0  0  0  0  0  0  0  0  0  0  0  0
   61.1190   31.6470   51.2720 H   0  0  0  0  0  0  0  0  0  0  0  0
   61.4666   29.4820   50.9747 H   0  0  0  0  0  0  0  0  0  0  0  0
   60.0349   29.0766   52.0063 H   0  0  0  0  0  0  0  0  0  0  0  0
   59.1709   28.3469   50.0230 H   0  0  0  0  0  0  0  0  0  0  0  0
   58.7769   30.1012   49.8272 H   0  0  0  0  0  0  0  0  0  0  0  0
   61.3580   28.9810   48.7690 H   0  0  0  0  0  0  0  0  0  0  0  0
   62.2176   30.9670   49.5957 H   0  0  0  0  0  0  0  0  0  0  0  0
   65.0983   31.2105   50.5038 H   0  0  0  0  0  0  0  0  0  0  0  0
   65.3308   31.6455   48.7631 H   0  0  0  0  0  0  0  0  0  0  0  0
   66.6228   32.8463   51.2315 H   0  0  0  0  0  0  0  0  0  0  0  0
   67.3848   32.2520   49.7173 H   0  0  0  0  0  0  0  0  0  0  0  0
   66.4759   33.8014   49.7173 H   0  0  0  0  0  0  0  0  0  0  0  0
   64.7829   33.6965   51.6696 H   0  0  0  0  0  0  0  0  0  0  0  0
   64.1122   34.9146   50.5156 H   0  0  0  0  0  0  0  0  0  0  0  0
   62.7831   33.8439   52.7297 H   0  0  0  0  0  0  0  0  0  0  0  0
   62.0230   34.7034   51.3476 H   0  0  0  0  0  0  0  0  0  0  0  0
   62.1170   32.9096   51.3476 H   0  0  0  0  0  0  0  0  0  0  0  0
   63.5670   34.6895   47.8648 H   0  0  0  0  0  0  0  0  0  0  0  0
   61.7613   34.5731   46.1754 H   0  0  0  0  0  0  0  0  0  0  0  0
   59.1900   34.6456   46.0625 H   0  0  0  0  0  0  0  0  0  0  0  0
   60.2762   34.2640   44.6836 H   0  0  0  0  0  0  0  0  0  0  0  0
   58.5815   33.6684   44.6836 H   0  0  0  0  0  0  0  0  0  0  0  0
   56.2027   28.3768   44.4803 H   0  0  0  0  0  0  0  0  0  0  0  0
   55.6062   29.6103   42.3766 H   0  0  0  0  0  0  0  0  0  0  0  0
   56.7830   31.7370   41.8004 H   0  0  0  0  0  0  0  0  0  0  0  0
   58.5012   32.6945   43.3469 H   0  0  0  0  0  0  0  0  0  0  0  0
  1  2  1  0
  2  3  1  0
  3  4  1  0
  4  5  1  0
  5  6  1  0
  6  7  1  0
  7  8  2  0
  8  9  1  0
  9 10  2  0
 10 11  1  0
 11 12  1  0
 12 13  1  0
 11 14  1  0
 14 15  1  0
 10 16  1  0
 16 17  2  0
 17 18  1  0
 18 19  2  0
 19 20  1  0
 19 21  1  0
 21 22  2  0
 22 23  1  0
 23 24  1  0
 24 25  2  0
 25 26  1  0
 26 27  2  0
 27 28  1  0
 28 29  2  0
 22  7  1  0
 29 24  1  0
 18  8  1  0
 29 21  1  0
  1 30  1  0
  1 31  1  0
  1 32  1  0
  2 33  1  0
  2 34  1  0
  3 35  1  0
  3 36  1  0
  4 37  1  0
  4 38  1  0
  5 39  1  0
  5 40  1  0
  6 41  1  0
  9 42  1  0
 12 43  1  0
 12 44  1  0
 13 45  1  0
 13 46  1  0
 13 47  1  0
 14 48  1  0
 14 49  1  0
 15 50  1  0
 15 51  1  0
 15 52  1  0
 16 53  1  0
 17 54  1  0
 20 55  1  0
 20 56  1  0
 20 57  1  0
 25 58  1  0
 26 59  1  0
 27 60  1  0
 28 61  1  0
M  CHG  2   3   1  19   1
M  END
>  <UniqueID>  (27) 
27

>  <SMILES>  (27) 
CC[NH2+]CCNc1c2cc(N(CC)CC)ccc2[n+](C)c2c1sc1ccccc12

>  <Energy>  (27) 
117.35845455648885

>  <Genealogy>  (27) 
CC[NH2+]CCNc1c2cc(N(CC)CC)ccc2[n+](C)c2c1sc1ccccc12 (protonated)
CC[NH2+]CCNc1c2cc(N(CC)CC)ccc2[n+](C)c2c1sc1ccccc12 (3D coordinates assigned)
CC[NH2+]CCNc1c2cc(N(CC)CC)ccc2[n+](C)c2c1sc1ccccc12 (optimized conformer: 117.35845455648885 kcal/mol)

>  <smiles>  (27) 
CCNCCNc1c2cc(N(CC)CC)ccc2[n+](C)c2c1sc1ccccc12

>  <score_type>  (27) 
oracle

>  <origin>  (27) 
adg

>  <m_score__min__energy>  (27) 
-5.2699999999999996

>  <m_primary>  (27) 
energy

$$$$
27:0
     RDKit          3D

 45 48  0  0  0  0  0  0  0  0999 V2000
   63.3660   33.9500   46.2560 C   0  0  0  0  0  0  0  0  0  0  0  0
   63.7030   33.8410   47.7480 C   0  0  0  0  0  0  0  0  0  0  0  0
   64.0090   32.4440   48.1500 N   0  0  1  0  0  0  0  0  0  0  0  0
   64.6110   32.4470   49.4980 C   0  0  0  0  0  0  0  0  0  0  0  0
   62.7880   31.5880   48.1260 C   0  0  0  0  0  0  0  0  0  0  0  0
   61.4920   32.3650   48.4410 C   0  0  0  0  0  0  0  0  0  0  0  0
   60.3710   31.9600   47.5640 N   0  0  0  0  0  0  0  0  0  0  0  0
   60.0410   30.6230   47.6130 C   0  0  0  0  0  0  0  0  0  0  0  0
   59.0250   30.1470   46.8110 C   0  0  0  0  0  0  0  0  0  0  0  0
   58.4740   28.9070   46.6190 C   0  0  0  0  0  0  0  0  0  0  0  0
   58.7630   27.6710   47.1920 C   0  0  0  0  0  0  0  0  0  0  0  0
   58.0020   26.5650   46.7730 C   0  0  0  0  0  0  0  0  0  0  0  0
   56.9860   26.7190   45.8050 C   0  0  0  0  0  0  0  0  0  0  0  0
   56.7190   27.9810   45.2430 C   0  0  0  0  0  0  0  0  0  0  0  0
   57.4820   29.0670   45.6690 C   0  0  0  0  0  0  0  0  0  0  0  0
   57.3620   30.3460   45.2340 N   0  0  0  0  0  0  0  0  0  0  0  0
   58.3090   31.0140   45.9340 C   0  0  0  0  0  0  0  0  0  0  0  0
   58.6270   32.3640   45.8770 C   0  0  0  0  0  0  0  0  0  0  0  0
   57.9350   33.2330   45.0200 C   0  0  0  0  0  0  0  0  0  0  0  0
   58.2710   34.5820   44.9740 C   0  0  0  0  0  0  0  0  0  0  0  0
   59.2950   35.0750   45.7800 C   0  0  0  0  0  0  0  0  0  0  0  0
   59.9940   34.2250   46.6410 C   0  0  0  0  0  0  0  0  0  0  0  0
   59.6860   32.8420   46.7180 C   0  0  0  0  0  0  0  0  0  0  0  0
   62.3253   34.2866   46.1388 H   0  0  0  0  0  0  0  0  0  0  0  0
   64.0419   34.6754   45.7795 H   0  0  0  0  0  0  0  0  0  0  0  0
   63.4891   32.9662   45.7795 H   0  0  0  0  0  0  0  0  0  0  0  0
   64.5788   34.4715   47.9610 H   0  0  0  0  0  0  0  0  0  0  0  0
   62.8240   34.1737   48.3195 H   0  0  0  0  0  0  0  0  0  0  0  0
   64.7310   32.0710   47.4940 H   0  0  0  0  0  0  0  0  0  0  0  0
   63.8136   32.4430   50.2557 H   0  0  0  0  0  0  0  0  0  0  0  0
   65.2385   31.5520   49.6214 H   0  0  0  0  0  0  0  0  0  0  0  0
   65.2295   33.3482   49.6214 H   0  0  0  0  0  0  0  0  0  0  0  0
   62.6935   31.1425   47.1247 H   0  0  0  0  0  0  0  0  0  0  0  0
   62.9092   30.8251   48.9091 H   0  0  0  0  0  0  0  0  0  0  0  0
   61.2101   32.1747   49.4871 H   0  0  0  0  0  0  0  0  0  0  0  0
   61.6879   33.4334   48.2675 H   0  0  0  0  0  0  0  0  0  0  0  0
   60.5829   29.9417   48.2855 H   0  0  0  0  0  0  0  0  0  0  0  0
   59.5577   27.5637   47.9450 H   0  0  0  0  0  0  0  0  0  0  0  0
   58.2000   25.5721   47.2029 H   0  0  0  0  0  0  0  0  0  0  0  0
   56.3982   25.8451   45.4875 H   0  0  0  0  0  0  0  0  0  0  0  0
   55.9293   28.1072   44.4877 H   0  0  0  0  0  0  0  0  0  0  0  0
   57.1253   32.8468   44.3834 H   0  0  0  0  0  0  0  0  0  0  0  0
   57.7274   35.2606   44.3002 H   0  0  0  0  0  0  0  0  0  0  0  0
   59.5555   36.1429   45.7382 H   0  0  0  0  0  0  0  0  0  0  0  0
   60.7974   34.6353   47.2704 H   0  0  0  0  0  0  0  0  0  0  0  0
  1  2  1  0
  2  3  1  0
  3  4  1  0
  3  5  1  0
  5  6  1  0
  6  7  1  0
  7  8  1  0
  8  9  2  0
  9 10  1  0
 10 11  2  0
 11 12  1  0
 12 13  2  0
 13 14  1  0
 14 15  2  0
 15 16  1  0
 16 17  2  0
 17 18  1  0
 18 19  2  0
 19 20  1  0
 20 21  2  0
 21 22  1  0
 22 23  2  0
 23  7  1  0
 17  9  1  0
 23 18  1  0
 15 10  1  0
  1 24  1  0
  1 25  1  0
  1 26  1  0
  2 27  1  0
  2 28  1  0
  3 29  1  6
  4 30  1  0
  4 31  1  0
  4 32  1  0
  5 33  1  0
  5 34  1  0
  6 35  1  0
  6 36  1  0
  8 37  1  0
 11 38  1  0
 12 39  1  0
 13 40  1  0
 14 41  1  0
 19 42  1  0
 20 43  1  0
 21 44  1  0
 22 45  1  0
M  CHG  1   3   1
M  END
>  <UniqueID>  (28) 
28

>  <SMILES>  (28) 
CC[N@@H+](C)CCn1cc2c3ccccc3nc-2c2ccccc21

>  <Energy>  (28) 
100.00635126521591

>  <Genealogy>  (28) 
CC[NH+](C)CCn1cc2c3ccccc3nc-2c2ccccc21 (protonated)
CC[N@@H+](C)CCn1cc2c3ccccc3nc-2c2ccccc21 (chirality)
CC[N@@H+](C)CCn1cc2c3ccccc3nc-2c2ccccc21 (3D coordinates assigned)
CC[N@@H+](C)CCn1cc2c3ccccc3nc-2c2ccccc21 (optimized conformer: 100.00635126521591 kcal/mol)

>  <smiles>  (28) 
CCN(C)CCn1cc2c3ccccc3nc-2c2ccccc21

>  <score_type>  (28) 
oracle

>  <origin>  (28) 
adg

>  <m_score__min__energy>  (28) 
-6.8300000000000001

>  <m_primary>  (28) 
energy

$$$$
28:0
     RDKit          3D

 69 71  0  0  0  0  0  0  0  0999 V2000
   63.1860   33.8160   52.6880 C   0  0  0  0  0  0  0  0  0  0  0  0
   61.7350   33.3660   52.8350 C   0  0  0  0  0  0  0  0  0  0  0  0
   61.2110   32.8670   51.5490 N   0  0  0  0  0  0  0  0  0  0  0  0
   60.1650   33.7520   50.9990 C   0  0  0  0  0  0  0  0  0  0  0  0
   59.2290   33.0210   50.0300 C   0  0  0  0  0  0  0  0  0  0  0  0
   59.6090   31.6610   49.9490 O   0  0  0  0  0  0  0  0  0  0  0  0
   58.5210   30.8410   50.3260 C   0  0  0  0  0  0  0  0  0  0  0  0
   59.0060   29.7740   51.3160 C   0  0  0  0  0  0  0  0  0  0  0  0
   60.2560   30.0910   51.9100 O   0  0  0  0  0  0  0  0  0  0  0  0
   61.3470   29.5780   51.1630 C   0  0  0  0  0  0  0  0  0  0  0  0
   62.1080   30.6290   50.6010 O   0  0  0  0  0  0  0  0  0  0  0  0
   63.4840   30.4430   50.8700 C   0  0  0  0  0  0  0  0  0  0  0  0
   64.2620   31.6670   50.4000 C   0  0  0  0  0  0  0  0  0  0  0  0
   63.3770   32.5680   49.7560 O   0  0  0  0  0  0  0  0  0  0  0  0
   63.7860   32.8910   48.4380 C   0  0  0  0  0  0  0  0  0  0  0  0
   62.8340   32.2740   47.4040 C   0  0  0  0  0  0  0  0  0  0  0  0
   61.5610   31.8860   48.0140 N   0  0  0  0  0  0  0  0  0  0  0  0
   60.4410   31.5540   47.1780 C   0  0  0  0  0  0  0  0  0  0  0  0
   59.7750   32.5610   46.4630 C   0  0  0  0  0  0  0  0  0  0  0  0
   60.1120   33.9200   46.6340 C   0  0  0  0  0  0  0  0  0  0  0  0
   59.4150   34.9220   45.9590 C   0  0  0  0  0  0  0  0  0  0  0  0
   58.3490   34.5890   45.1350 C   0  0  0  0  0  0  0  0  0  0  0  0
   57.9980   33.2490   44.9490 C   0  0  0  0  0  0  0  0  0  0  0  0
   58.7310   32.2050   45.5720 C   0  0  0  0  0  0  0  0  0  0  0  0
   58.4600   30.8750   45.3170 N   0  0  0  0  0  0  0  0  0  0  0  0
   57.6340   30.5100   44.1460 C   0  0  0  0  0  0  0  0  0  0  0  0
   58.9880   29.8920   46.1370 C   0  0  0  0  0  0  0  0  0  0  0  0
   58.5420   28.5520   46.0710 C   0  0  0  0  0  0  0  0  0  0  0  0
   59.1100   27.5630   46.8690 C   0  0  0  0  0  0  0  0  0  0  0  0
   60.1470   27.8820   47.7450 C   0  0  0  0  0  0  0  0  0  0  0  0
   60.5960   29.1960   47.8480 C   0  0  0  0  0  0  0  0  0  0  0  0
   60.0110   30.2180   47.0700 C   0  0  0  0  0  0  0  0  0  0  0  0
   63.6300   33.9537   53.6850 H   0  0  0  0  0  0  0  0  0  0  0  0
   63.7529   33.0515   52.1365 H   0  0  0  0  0  0  0  0  0  0  0  0
   63.2208   34.7672   52.1365 H   0  0  0  0  0  0  0  0  0  0  0  0
   61.6804   32.5619   53.5836 H   0  0  0  0  0  0  0  0  0  0  0  0
   61.1284   34.2264   53.1542 H   0  0  0  0  0  0  0  0  0  0  0  0
   60.7850   31.9230   51.7140 H   0  0  0  0  0  0  0  0  0  0  0  0
   61.9940   32.7530   50.8640 H   0  0  0  0  0  0  0  0  0  0  0  0
   59.5681   34.1528   51.8315 H   0  0  0  0  0  0  0  0  0  0  0  0
   60.6665   34.5547   50.4385 H   0  0  0  0  0  0  0  0  0  0  0  0
   58.1938   33.0921   50.3952 H   0  0  0  0  0  0  0  0  0  0  0  0
   59.2968   33.4824   49.0337 H   0  0  0  0  0  0  0  0  0  0  0  0
   57.7445   31.4576   50.8023 H   0  0  0  0  0  0  0  0  0  0  0  0
   58.1034   30.3516   49.4338 H   0  0  0  0  0  0  0  0  0  0  0  0
   58.2558   29.6702   52.1138 H   0  0  0  0  0  0  0  0  0  0  0  0
   59.1394   28.8396   50.7511 H   0  0  0  0  0  0  0  0  0  0  0  0
   61.9903   28.9818   51.8269 H   0  0  0  0  0  0  0  0  0  0  0  0
   60.9538   28.9522   50.3483 H   0  0  0  0  0  0  0  0  0  0  0  0
   63.6314   30.3075   51.9516 H   0  0  0  0  0  0  0  0  0  0  0  0
   63.8452   29.5512   50.3370 H   0  0  0  0  0  0  0  0  0  0  0  0
   64.7246   32.1628   51.2661 H   0  0  0  0  0  0  0  0  0  0  0  0
   65.0468   31.3554   49.6950 H   0  0  0  0  0  0  0  0  0  0  0  0
   63.7877   33.9845   48.3189 H   0  0  0  0  0  0  0  0  0  0  0  0
   64.7953   32.4858   48.2733 H   0  0  0  0  0  0  0  0  0  0  0  0
   62.6407   33.0113   46.6109 H   0  0  0  0  0  0  0  0  0  0  0  0
   63.3091   31.3718   46.9913 H   0  0  0  0  0  0  0  0  0  0  0  0
   61.5470   31.6130   49.0260 H   0  0  0  0  0  0  0  0  0  0  0  0
   60.9362   34.1934   47.3093 H   0  0  0  0  0  0  0  0  0  0  0  0
   59.7098   35.9749   46.0796 H   0  0  0  0  0  0  0  0  0  0  0  0
   57.7793   35.3812   44.6273 H   0  0  0  0  0  0  0  0  0  0  0  0
   57.1391   32.9990   44.3089 H   0  0  0  0  0  0  0  0  0  0  0  0
   56.6780   30.0876   44.4890 H   0  0  0  0  0  0  0  0  0  0  0  0
   57.4418   31.4070   43.5390 H   0  0  0  0  0  0  0  0  0  0  0  0
   58.1678   29.7640   43.5390 H   0  0  0  0  0  0  0  0  0  0  0  0
   57.7315   28.2862   45.3765 H   0  0  0  0  0  0  0  0  0  0  0  0
   58.7404   26.5287   46.8085 H   0  0  0  0  0  0  0  0  0  0  0  0
   60.6113   27.0939   48.3560 H   0  0  0  0  0  0  0  0  0  0  0  0
   61.4140   29.4397   48.5419 H   0  0  0  0  0  0  0  0  0  0  0  0
  1  2  1  0
  2  3  1  0
  3  4  1  0
  4  5  1  0
  5  6  1  0
  6  7  1  0
  7  8  1  0
  8  9  1  0
  9 10  1  0
 10 11  1  0
 11 12  1  0
 12 13  1  0
 13 14  1  0
 14 15  1  0
 15 16  1  0
 16 17  1  0
 17 18  1  0
 18 19  2  0
 19 20  1  0
 20 21  2  0
 21 22  1  0
 22 23  2  0
 23 24  1  0
 24 25  2  0
 25 26  1  0
 25 27  1  0
 27 28  2  0
 28 29  1  0
 29 30  2  0
 30 31  1  0
 31 32  2  0
 32 18  1  0
 24 19  1  0
 32 27  1  0
  1 33  1  0
  1 34  1  0
  1 35  1  0
  2 36  1  0
  2 37  1  0
  3 38  1  0
  3 39  1  0
  4 40  1  0
  4 41  1  0
  5 42  1  0
  5 43  1  0
  7 44  1  0
  7 45  1  0
  8 46  1  0
  8 47  1  0
 10 48  1  0
 10 49  1  0
 12 50  1  0
 12 51  1  0
 13 52  1  0
 13 53  1  0
 15 54  1  0
 15 55  1  0
 16 56  1  0
 16 57  1  0
 17 58  1  0
 20 59  1  0
 21 60  1  0
 22 61  1  0
 23 62  1  0
 26 63  1  0
 26 64  1  0
 26 65  1  0
 28 66  1  0
 29 67  1  0
 30 68  1  0
 31 69  1  0
M  CHG  2   3   1  25   1
M  END
>  <UniqueID>  (29) 
29

>  <SMILES>  (29) 
CC[NH2+]CCOCCOCOCCOCCNc1c2ccccc2[n+](C)c2ccccc12

>  <Energy>  (29) 
97.86613239954204

>  <Genealogy>  (29) 
CC[NH2+]CCOCCOCOCCOCCNc1c2ccccc2[n+](C)c2ccccc12 (protonated)
CC[NH2+]CCOCCOCOCCOCCNc1c2ccccc2[n+](C)c2ccccc12 (3D coordinates assigned)
CC[NH2+]CCOCCOCOCCOCCNc1c2ccccc2[n+](C)c2ccccc12 (optimized conformer: 97.86613239954204 kcal/mol)

>  <smiles>  (29) 
CCNCCOCCOCOCCOCCNc1c2ccccc2[n+](C)c2ccccc12

>  <score_type>  (29) 
oracle

>  <origin>  (29) 
adg

>  <m_score__min__energy>  (29) 
-2.5299999999999998

>  <m_primary>  (29) 
energy

$$$$
29:0
     RDKit          3D

 62 65  0  0  0  0  0  0  0  0999 V2000
   57.7550   31.9320   42.5820 C   0  0  0  0  0  0  0  0  0  0  0  0
   57.8540   31.6920   44.0810 C   0  0  0  0  0  0  0  0  0  0  0  0
   56.6040   31.1240   44.5710 N   0  0  0  0  0  0  0  0  0  0  0  0
   56.3120   29.7240   44.5800 C   0  0  0  0  0  0  0  0  0  0  0  0
   55.1330   29.3520   44.8360 O   0  0  0  0  0  0  0  0  0  0  0  0
   57.3960   28.7030   44.3340 C   0  0  0  0  0  0  0  0  0  0  0  0
   57.9100   28.0910   45.6070 C   0  0  0  0  0  0  0  0  0  0  0  0
   57.5060   26.8980   46.1870 C   0  0  0  0  0  0  0  0  0  0  0  0
   56.4190   25.9940   45.7020 C   0  0  0  0  0  0  0  0  0  0  0  0
   58.2820   26.6260   47.2540 N   0  0  0  0  0  0  0  0  0  0  0  0
   59.1660   27.6070   47.3700 N   0  0  0  0  0  0  0  0  0  0  0  0
   60.1720   27.6520   48.4330 C   0  0  0  0  0  0  0  0  0  0  0  0
   60.0980   28.9600   49.1760 C   0  0  0  0  0  0  0  0  0  0  0  0
   58.8840   29.6620   49.2620 C   0  0  0  0  0  0  0  0  0  0  0  0
   58.8180   30.8690   49.9650 C   0  0  0  0  0  0  0  0  0  0  0  0
   59.9550   31.3840   50.6020 C   0  0  0  0  0  0  0  0  0  0  0  0
   59.8230   32.5620   51.3480 O   0  0  0  0  0  0  0  0  0  0  0  0
   60.2650   33.8400   50.8960 C   0  0  0  0  0  0  0  0  0  0  0  0
   60.4360   33.8280   49.3960 C   0  0  0  0  0  0  0  0  0  0  0  0
   59.3030   34.0230   48.5870 C   0  0  0  0  0  0  0  0  0  0  0  0
   59.4190   34.0040   47.1940 C   0  0  0  0  0  0  0  0  0  0  0  0
   58.2080   34.1770   46.3350 C   0  0  0  0  0  0  0  0  0  0  0  0
   60.6310   33.7890   46.6190 N   0  0  0  0  0  0  0  0  0  0  0  0
   61.7550   33.6000   47.3550 C   0  0  0  0  0  0  0  0  0  0  0  0
   62.9770   33.4000   46.7040 C   0  0  0  0  0  0  0  0  0  0  0  0
   64.1470   33.2270   47.4430 C   0  0  0  0  0  0  0  0  0  0  0  0
   64.0970   33.2280   48.8380 C   0  0  0  0  0  0  0  0  0  0  0  0
   62.8800   33.4060   49.5020 C   0  0  0  0  0  0  0  0  0  0  0  0
   61.6920   33.6120   48.7710 C   0  0  0  0  0  0  0  0  0  0  0  0
   61.1780   30.6950   50.4910 C   0  0  0  0  0  0  0  0  0  0  0  0
   61.2490   29.4990   49.7730 C   0  0  0  0  0  0  0  0  0  0  0  0
   58.9700   28.5180   46.3920 C   0  0  0  0  0  0  0  0  0  0  0  0
   59.8470   29.7110   46.1370 C   0  0  0  0  0  0  0  0  0  0  0  0
   57.3415   32.9345   42.3977 H   0  0  0  0  0  0  0  0  0  0  0  0
   58.7563   31.8600   42.1322 H   0  0  0  0  0  0  0  0  0  0  0  0
   57.0957   31.1750   42.1322 H   0  0  0  0  0  0  0  0  0  0  0  0
   58.6784   30.9931   44.2858 H   0  0  0  0  0  0  0  0  0  0  0  0
   58.0447   32.6477   44.5912 H   0  0  0  0  0  0  0  0  0  0  0  0
   56.9895   27.9034   43.6972 H   0  0  0  0  0  0  0  0  0  0  0  0
   58.2371   29.2190   43.8479 H   0  0  0  0  0  0  0  0  0  0  0  0
   55.8936   25.5571   46.5640 H   0  0  0  0  0  0  0  0  0  0  0  0
   55.7074   26.5704   45.0925 H   0  0  0  0  0  0  0  0  0  0  0  0
   56.8560   25.1893   45.0925 H   0  0  0  0  0  0  0  0  0  0  0  0
   59.9922   26.8257   49.1365 H   0  0  0  0  0  0  0  0  0  0  0  0
   61.1704   27.5560   47.9815 H   0  0  0  0  0  0  0  0  0  0  0  0
   57.9829   29.2610   48.7750 H   0  0  0  0  0  0  0  0  0  0  0  0
   57.8665   31.4183   50.0184 H   0  0  0  0  0  0  0  0  0  0  0  0
   59.5201   34.6011   51.1714 H   0  0  0  0  0  0  0  0  0  0  0  0
   61.2309   34.0747   51.3671 H   0  0  0  0  0  0  0  0  0  0  0  0
   58.3206   34.1913   49.0523 H   0  0  0  0  0  0  0  0  0  0  0  0
   57.3209   34.3037   46.9730 H   0  0  0  0  0  0  0  0  0  0  0  0
   58.3330   35.0664   45.6999 H   0  0  0  0  0  0  0  0  0  0  0  0
   58.0789   33.2882   45.6999 H   0  0  0  0  0  0  0  0  0  0  0  0
   63.0152   33.3791   45.6049 H   0  0  0  0  0  0  0  0  0  0  0  0
   65.1087   33.0898   46.9269 H   0  0  0  0  0  0  0  0  0  0  0  0
   65.0209   33.0879   49.4182 H   0  0  0  0  0  0  0  0  0  0  0  0
   62.8489   33.3852   50.6014 H   0  0  0  0  0  0  0  0  0  0  0  0
   62.0808   31.1001   50.9715 H   0  0  0  0  0  0  0  0  0  0  0  0
   62.2119   28.9764   49.6747 H   0  0  0  0  0  0  0  0  0  0  0  0
   60.1653   30.1440   47.0968 H   0  0  0  0  0  0  0  0  0  0  0  0
   60.7326   29.3993   45.5637 H   0  0  0  0  0  0  0  0  0  0  0  0
   59.2852   30.4632   45.5637 H   0  0  0  0  0  0  0  0  0  0  0  0
  1  2  1  0
  2  3  1  0
  3  4  1  0
  4  5  2  0
  4  6  1  0
  6  7  1  0
  7  8  1  0
  8  9  1  0
  8 10  2  0
 10 11  1  0
 11 12  1  0
 12 13  1  0
 13 14  2  0
 14 15  1  0
 15 16  2  0
 16 17  1  0
 17 18  1  0
 18 19  1  0
 19 20  2  0
 20 21  1  0
 21 22  1  0
 21 23  2  0
 23 24  1  0
 24 25  2  0
 25 26  1  0
 26 27  2  0
 27 28  1  0
 28 29  2  0
 16 30  1  0
 30 31  2  0
 11 32  1  0
 32 33  1  0
 32  7  2  0
 31 13  1  0
 29 19  1  0
 29 24  1  0
  1 34  1  0
  1 35  1  0
  1 36  1  0
  2 37  1  0
  2 38  1  0
  6 39  1  0
  6 40  1  0
  9 41  1  0
  9 42  1  0
  9 43  1  0
 12 44  1  0
 12 45  1  0
 14 46  1  0
 15 47  1  0
 18 48  1  0
 18 49  1  0
 20 50  1  0
 22 51  1  0
 22 52  1  0
 22 53  1  0
 25 54  1  0
 26 55  1  0
 27 56  1  0
 28 57  1  0
 30 58  1  0
 31 59  1  0
 33 60  1  0
 33 61  1  0
 33 62  1  0
M  CHG  1   3  -1
M  END
>  <UniqueID>  (30) 
30

>  <SMILES>  (30) 
CC[N-]C(=O)Cc1c(C)nn(Cc2ccc(OCc3cc(C)nc4ccccc34)cc2)c1C

>  <Energy>  (30) 
91.90704725769783

>  <Genealogy>  (30) 
CC[N-]C(=O)Cc1c(C)nn(Cc2ccc(OCc3cc(C)nc4ccccc34)cc2)c1C (protonated)
CC[N-]C(=O)Cc1c(C)nn(Cc2ccc(OCc3cc(C)nc4ccccc34)cc2)c1C (3D coordinates assigned)
CC[N-]C(=O)Cc1c(C)nn(Cc2ccc(OCc3cc(C)nc4ccccc34)cc2)c1C (optimized conformer: 91.90704725769783 kcal/mol)

>  <smiles>  (30) 
CCNC(=O)Cc1c(C)nn(Cc2ccc(OCc3cc(C)nc4ccccc34)cc2)c1C

>  <score_type>  (30) 
oracle

>  <origin>  (30) 
adg

>  <m_score__min__energy>  (30) 
-11.449999999999999

>  <m_primary>  (30) 
energy

$$$$
30:0
     RDKit          3D

 39 41  0  0  0  0  0  0  0  0999 V2000
   56.4900   30.2640   42.8620 C   0  0  0  0  0  0  0  0  0  0  0  0
   56.3840   29.4490   44.1210 C   0  0  0  0  0  0  0  0  0  0  0  0
   55.4400   29.6710   44.8670 O   0  0  0  0  0  0  0  0  0  0  0  0
   57.2820   28.3280   44.3640 N   0  0  2  0  0  0  0  0  0  0  0  0
   57.1990   27.7120   45.7090 C   0  0  0  0  0  0  0  0  0  0  0  0
   58.6480   27.4550   46.1540 C   0  0  1  0  0  0  0  0  0  0  0  0
   59.4210   27.4640   44.8560 C   0  0  0  0  0  0  0  0  0  0  0  0
   58.7210   28.6130   44.1680 C   0  0  2  0  0  0  0  0  0  0  0  0
   59.2050   29.9330   44.8430 C   0  0  0  0  0  0  0  0  0  0  0  0
   59.1440   29.9370   46.3360 N   0  0  0  0  0  0  0  0  0  0  0  0
   58.1640   30.8840   46.9040 C   0  0  0  0  0  0  0  0  0  0  0  0
   58.2290   32.2020   46.1950 C   0  0  0  0  0  0  0  0  0  0  0  0
   57.3910   32.6190   45.1760 C   0  0  0  0  0  0  0  0  0  0  0  0
   57.8520   33.8760   44.8480 C   0  0  0  0  0  0  0  0  0  0  0  0
   58.9090   34.1590   45.6320 N   0  0  0  0  0  0  0  0  0  0  0  0
   59.6480   35.4140   45.6480 C   0  0  0  0  0  0  0  0  0  0  0  0
   59.1430   33.1550   46.4620 N   0  0  0  0  0  0  0  0  0  0  0  0
   59.1720   28.6150   47.0250 C   0  0  0  0  0  0  0  0  0  0  0  0
   56.6279   31.3239   43.1219 H   0  0  0  0  0  0  0  0  0  0  0  0
   57.3505   29.9163   42.2715 H   0  0  0  0  0  0  0  0  0  0  0  0
   55.5692   30.1480   42.2715 H   0  0  0  0  0  0  0  0  0  0  0  0
   57.0140   27.5940   43.6650 H   0  0  0  0  0  0  0  0  0  0  0  0
   56.7001   28.3959   46.4114 H   0  0  0  0  0  0  0  0  0  0  0  0
   56.6153   26.7799   45.6873 H   0  0  0  0  0  0  0  0  0  0  0  0
   58.7393   26.5280   46.7390 H   0  0  0  0  0  0  0  0  0  0  0  0
   60.4901   27.6686   45.0147 H   0  0  0  0  0  0  0  0  0  0  0  0
   59.4240   26.5137   44.3021 H   0  0  0  0  0  0  0  0  0  0  0  0
   58.9302   28.7251   43.0939 H   0  0  0  0  0  0  0  0  0  0  0  0
   60.2491   30.1067   44.5435 H   0  0  0  0  0  0  0  0  0  0  0  0
   58.5171   30.7219   44.5047 H   0  0  0  0  0  0  0  0  0  0  0  0
   57.1526   30.4652   46.7958 H   0  0  0  0  0  0  0  0  0  0  0  0
   58.3999   31.0421   47.9667 H   0  0  0  0  0  0  0  0  0  0  0  0
   56.5481   32.0716   44.7290 H   0  0  0  0  0  0  0  0  0  0  0  0
   57.4281   34.5358   44.0766 H   0  0  0  0  0  0  0  0  0  0  0  0
   59.8283   35.7201   46.6891 H   0  0  0  0  0  0  0  0  0  0  0  0
   60.6109   35.2791   45.1335 H   0  0  0  0  0  0  0  0  0  0  0  0
   59.0630   36.1906   45.1335 H   0  0  0  0  0  0  0  0  0  0  0  0
   60.2108   28.3936   47.3111 H   0  0  0  0  0  0  0  0  0  0  0  0
   58.5057   28.6909   47.8970 H   0  0  0  0  0  0  0  0  0  0  0  0
  1  2  1  0
  2  3  2  0
  2  4  1  0
  4  5  1  0
  5  6  1  0
  6  7  1  0
  7  8  1  0
  8  9  1  0
  9 10  1  0
 10 11  1  0
 11 12  1  0
 12 13  1  0
 13 14  2  0
 14 15  1  0
 15 16  1  0
 15 17  1  0
 10 18  1  0
  8  4  1  0
 17 12  2  0
 18  6  1  0
  1 19  1  0
  1 20  1  0
  1 21  1  0
  4 22  1  6
  5 23  1  0
  5 24  1  0
  6 25  1  1
  7 26  1  0
  7 27  1  0
  8 28  1  6
  9 29  1  0
  9 30  1  0
 11 31  1  0
 11 32  1  0
 13 33  1  0
 14 34  1  0
 16 35  1  0
 16 36  1  0
 16 37  1  0
 18 38  1  0
 18 39  1  0
M  CHG  1   4   1
M  END
>  <UniqueID>  (31) 
31

>  <SMILES>  (31) 
CC(=O)[N@@H+]1C[C@H]2CC1CN(Cc1ccn(C)n1)C2

>  <Energy>  (31) 
95.30281540892818

>  <Genealogy>  (31) 
CC(=O)[NH+]1CC2CC1CN(Cc1ccn(C)n1)C2 (protonated)
CC(=O)[N@@H+]1C[C@H]2CC1CN(Cc1ccn(C)n1)C2 (chirality)
CC(=O)[N@@H+]1C[C@H]2CC1CN(Cc1ccn(C)n1)C2 (3D coordinates assigned)
CC(=O)[N@@H+]1C[C@H]2CC1CN(Cc1ccn(C)n1)C2 (nonaromatic ring conformer: 95.30281540892818 kcal/mol)

>  <smiles>  (31) 
CC(=O)N1CC2CC1CN(Cc1ccn(C)n1)C2

>  <score_type>  (31) 
oracle

>  <origin>  (31) 
adg

>  <m_score__min__energy>  (31) 
-5.0199999999999996

>  <m_primary>  (31) 
energy

$$$$
31:0
     RDKit          3D

 66 69  0  0  0  0  0  0  0  0999 V2000
   57.7110   33.3500   44.6870 C   0  0  0  0  0  0  0  0  0  0  0  0
   58.6390   32.4410   45.4900 C   0  0  0  0  0  0  0  0  0  0  0  0
   59.1160   33.1430   46.7060 N   0  0  0  0  0  0  0  0  0  0  0  0
   58.9260   34.5990   46.5680 C   0  0  0  0  0  0  0  0  0  0  0  0
   58.4290   32.6660   47.9250 C   0  0  0  0  0  0  0  0  0  0  0  0
   59.2300   33.0090   49.1960 C   0  0  0  0  0  0  0  0  0  0  0  0
   60.2190   33.9810   48.9110 O   0  0  0  0  0  0  0  0  0  0  0  0
   61.1280   34.0860   49.9890 C   0  0  0  0  0  0  0  0  0  0  0  0
   62.5210   34.3840   49.4390 C   0  0  0  0  0  0  0  0  0  0  0  0
   62.5470   34.2210   48.0350 O   0  0  0  0  0  0  0  0  0  0  0  0
   63.6500   33.4330   47.6330 C   0  0  0  0  0  0  0  0  0  0  0  0
   63.1410   32.1140   47.0420 C   0  0  0  0  0  0  0  0  0  0  0  0
   61.7510   31.8390   47.4360 N   0  0  0  0  0  0  0  0  0  0  0  0
   61.3300   30.5650   47.9660 C   0  0  0  0  0  0  0  0  0  0  0  0
   61.5270   30.2520   49.3250 C   0  0  0  0  0  0  0  0  0  0  0  0
   62.2480   31.1180   50.1750 C   0  0  0  0  0  0  0  0  0  0  0  0
   62.4080   30.8180   51.5280 C   0  0  0  0  0  0  0  0  0  0  0  0
   61.8910   29.6380   52.0490 C   0  0  0  0  0  0  0  0  0  0  0  0
   61.2360   28.7360   51.2100 C   0  0  0  0  0  0  0  0  0  0  0  0
   61.0490   29.0170   49.8310 C   0  0  0  0  0  0  0  0  0  0  0  0
   60.4230   28.1180   48.9890 N   0  0  0  0  0  0  0  0  0  0  0  0
   60.4010   26.6880   49.3690 C   0  0  0  0  0  0  0  0  0  0  0  0
   60.0240   28.5150   47.7210 C   0  0  0  0  0  0  0  0  0  0  0  0
   60.6080   29.6760   47.1500 C   0  0  0  0  0  0  0  0  0  0  0  0
   60.4620   29.9260   45.7740 C   0  0  0  0  0  0  0  0  0  0  0  0
   59.7290   29.0660   44.9670 C   0  0  0  0  0  0  0  0  0  0  0  0
   58.9950   28.0150   45.5340 C   0  0  0  0  0  0  0  0  0  0  0  0
   58.1540   27.2060   44.7370 C   0  0  0  0  0  0  0  0  0  0  0  0
   58.1360   27.2980   42.9790 Cl  0  0  0  0  0  0  0  0  0  0  0  0
   57.2970   26.2820   45.3430 C   0  0  0  0  0  0  0  0  0  0  0  0
   57.2300   26.1940   46.7300 C   0  0  0  0  0  0  0  0  0  0  0  0
   58.0910   26.9530   47.5210 C   0  0  0  0  0  0  0  0  0  0  0  0
   59.0600   27.8000   46.9390 C   0  0  0  0  0  0  0  0  0  0  0  0
   57.0986   33.9498   45.3764 H   0  0  0  0  0  0  0  0  0  0  0  0
   58.3115   34.0191   44.0531 H   0  0  0  0  0  0  0  0  0  0  0  0
   57.0545   32.7358   44.0531 H   0  0  0  0  0  0  0  0  0  0  0  0
   58.0925   31.5332   45.7852 H   0  0  0  0  0  0  0  0  0  0  0  0
   59.5051   32.1718   44.8676 H   0  0  0  0  0  0  0  0  0  0  0  0
   58.8662   35.0572   47.5662 H   0  0  0  0  0  0  0  0  0  0  0  0
   59.7756   35.0291   46.0174 H   0  0  0  0  0  0  0  0  0  0  0  0
   57.9944   34.7967   46.0174 H   0  0  0  0  0  0  0  0  0  0  0  0
   57.4393   33.1421   47.9869 H   0  0  0  0  0  0  0  0  0  0  0  0
   58.3342   31.5719   47.8618 H   0  0  0  0  0  0  0  0  0  0  0  0
   58.5445   33.4033   49.9606 H   0  0  0  0  0  0  0  0  0  0  0  0
   59.7229   32.0967   49.5632 H   0  0  0  0  0  0  0  0  0  0  0  0
   60.8138   34.9007   50.6580 H   0  0  0  0  0  0  0  0  0  0  0  0
   61.1458   33.1416   50.5528 H   0  0  0  0  0  0  0  0  0  0  0  0
   62.7938   35.4202   49.6877 H   0  0  0  0  0  0  0  0  0  0  0  0
   63.2381   33.6828   49.8907 H   0  0  0  0  0  0  0  0  0  0  0  0
   64.2320   33.9757   46.8735 H   0  0  0  0  0  0  0  0  0  0  0  0
   64.2905   33.2244   48.5026 H   0  0  0  0  0  0  0  0  0  0  0  0
   63.1954   32.1710   45.9448 H   0  0  0  0  0  0  0  0  0  0  0  0
   63.7729   31.3003   47.4276 H   0  0  0  0  0  0  0  0  0  0  0  0
   61.0790   32.6380   47.4640 H   0  0  0  0  0  0  0  0  0  0  0  0
   62.6885   32.0393   49.7662 H   0  0  0  0  0  0  0  0  0  0  0  0
   62.9453   31.5180   52.1848 H   0  0  0  0  0  0  0  0  0  0  0  0
   61.9980   29.4155   53.1209 H   0  0  0  0  0  0  0  0  0  0  0  0
   60.8576   27.7899   51.6245 H   0  0  0  0  0  0  0  0  0  0  0  0
   60.3996   26.6000   50.4655 H   0  0  0  0  0  0  0  0  0  0  0  0
   59.4955   26.2143   48.9620 H   0  0  0  0  0  0  0  0  0  0  0  0
   61.2915   26.1867   48.9620 H   0  0  0  0  0  0  0  0  0  0  0  0
   60.9348   30.8149   45.3309 H   0  0  0  0  0  0  0  0  0  0  0  0
   59.7243   29.2103   43.8765 H   0  0  0  0  0  0  0  0  0  0  0  0
   56.6738   25.6226   44.7211 H   0  0  0  0  0  0  0  0  0  0  0  0
   56.4965   25.5245   47.2030 H   0  0  0  0  0  0  0  0  0  0  0  0
   58.0145   26.8913   48.6166 H   0  0  0  0  0  0  0  0  0  0  0  0
  1  2  1  0
  2  3  1  0
  3  4  1  0
  3  5  1  0
  5  6  1  0
  6  7  1  0
  7  8  1  0
  8  9  1  0
  9 10  1  0
 10 11  1  0
 11 12  1  0
 12 13  1  0
 13 14  1  0
 14 15  2  0
 15 16  1  0
 16 17  2  0
 17 18  1  0
 18 19  2  0
 19 20  1  0
 20 21  2  0
 21 22  1  0
 21 23  1  0
 23 24  2  0
 24 25  1  0
 25 26  2  0
 26 27  1  0
 27 28  2  0
 28 29  1  0
 28 30  1  0
 30 31  2  0
 31 32  1  0
 32 33  2  0
 24 14  1  0
 33 27  1  0
 20 15  1  0
 33 23  1  0
  1 34  1  0
  1 35  1  0
  1 36  1  0
  2 37  1  0
  2 38  1  0
  4 39  1  0
  4 40  1  0
  4 41  1  0
  5 42  1  0
  5 43  1  0
  6 44  1  0
  6 45  1  0
  8 46  1  0
  8 47  1  0
  9 48  1  0
  9 49  1  0
 11 50  1  0
 11 51  1  0
 12 52  1  0
 12 53  1  0
 13 54  1  0
 16 55  1  0
 17 56  1  0
 18 57  1  0
 19 58  1  0
 22 59  1  0
 22 60  1  0
 22 61  1  0
 25 62  1  0
 26 63  1  0
 30 64  1  0
 31 65  1  0
 32 66  1  0
M  CHG  1  21   1
M  END
>  <UniqueID>  (32) 
32

>  <SMILES>  (32) 
CCN(C)CCOCCOCCNc1c2ccccc2[n+](C)c2c1ccc1c(Cl)cccc12

>  <Energy>  (32) 
113.34462810103926

>  <Genealogy>  (32) 
CCN(C)CCOCCOCCNc1c2ccccc2[n+](C)c2c1ccc1c(Cl)cccc12 (3D coordinates assigned)
CCN(C)CCOCCOCCNc1c2ccccc2[n+](C)c2c1ccc1c(Cl)cccc12 (optimized conformer: 113.34462810103926 kcal/mol)

>  <smiles>  (32) 
CCN(C)CCOCCOCCNc1c2ccccc2[n+](C)c2c1ccc1c(Cl)cccc12

>  <score_type>  (32) 
oracle

>  <origin>  (32) 
adg

>  <m_score__min__energy>  (32) 
-7.5800000000000001

>  <m_primary>  (32) 
energy

$$$$
32:0
     RDKit          3D

 44 46  0  0  0  0  0  0  0  0999 V2000
   57.8870   32.0240   42.5970 C   0  0  0  0  0  0  0  0  0  0  0  0
   58.4150   33.0100   43.6410 C   0  0  0  0  0  0  0  0  0  0  0  0
   57.3820   33.3670   44.6270 N   0  0  0  0  0  0  0  0  0  0  0  0
   57.9160   34.2170   45.7030 C   0  0  0  0  0  0  0  0  0  0  0  0
   58.0670   33.4160   47.0020 C   0  0  0  0  0  0  0  0  0  0  0  0
   59.1580   32.3670   46.8730 C   0  0  0  0  0  0  0  0  0  0  0  0
   60.4740   32.5870   47.3580 C   0  0  0  0  0  0  0  0  0  0  0  0
   60.8330   33.7300   48.1000 C   0  0  0  0  0  0  0  0  0  0  0  0
   62.1540   33.9250   48.5130 C   0  0  0  0  0  0  0  0  0  0  0  0
   63.1450   32.9940   48.1960 C   0  0  0  0  0  0  0  0  0  0  0  0
   64.4620   33.2620   48.5990 O   0  0  0  0  0  0  0  0  0  0  0  0
   65.0960   32.6600   49.7230 C   0  0  0  0  0  0  0  0  0  0  0  0
   62.7940   31.8270   47.5010 C   0  0  0  0  0  0  0  0  0  0  0  0
   61.4710   31.6110   47.1000 C   0  0  0  0  0  0  0  0  0  0  0  0
   61.1460   30.4500   46.4800 N   0  0  0  0  0  0  0  0  0  0  0  0
   59.8800   30.1780   46.0830 C   0  0  0  0  0  0  0  0  0  0  0  0
   59.5740   28.9480   45.4960 C   0  0  0  0  0  0  0  0  0  0  0  0
   58.2620   28.6700   45.1080 C   0  0  0  0  0  0  0  0  0  0  0  0
   57.2720   29.6350   45.3030 C   0  0  0  0  0  0  0  0  0  0  0  0
   55.9590   29.3620   44.9100 O   0  0  0  0  0  0  0  0  0  0  0  0
   55.4350   29.7440   43.6430 C   0  0  0  0  0  0  0  0  0  0  0  0
   57.5910   30.8300   45.8690 N   0  0  0  0  0  0  0  0  0  0  0  0
   58.8580   31.1280   46.2710 C   0  0  0  0  0  0  0  0  0  0  0  0
   57.4264   31.1639   43.1049 H   0  0  0  0  0  0  0  0  0  0  0  0
   57.1357   32.5236   41.9677 H   0  0  0  0  0  0  0  0  0  0  0  0
   58.7193   31.6756   41.9677 H   0  0  0  0  0  0  0  0  0  0  0  0
   59.2653   32.5508   44.1665 H   0  0  0  0  0  0  0  0  0  0  0  0
   58.7220   33.9285   43.1195 H   0  0  0  0  0  0  0  0  0  0  0  0
   56.6400   33.8930   44.1050 H   0  0  0  0  0  0  0  0  0  0  0  0
   58.9001   34.6053   45.4017 H   0  0  0  0  0  0  0  0  0  0  0  0
   57.2158   35.0469   45.8786 H   0  0  0  0  0  0  0  0  0  0  0  0
   58.3249   34.1040   47.8206 H   0  0  0  0  0  0  0  0  0  0  0  0
   57.1149   32.9064   47.2113 H   0  0  0  0  0  0  0  0  0  0  0  0
   60.0663   34.4759   48.3566 H   0  0  0  0  0  0  0  0  0  0  0  0
   62.4157   34.8216   49.0940 H   0  0  0  0  0  0  0  0  0  0  0  0
   64.6656   33.0687   50.6492 H   0  0  0  0  0  0  0  0  0  0  0  0
   64.9376   31.5718   49.6941 H   0  0  0  0  0  0  0  0  0  0  0  0
   66.1745   32.8745   49.6941 H   0  0  0  0  0  0  0  0  0  0  0  0
   63.5643   31.0765   47.2697 H   0  0  0  0  0  0  0  0  0  0  0  0
   60.3652   28.1999   45.3397 H   0  0  0  0  0  0  0  0  0  0  0  0
   58.0108   27.7004   44.6532 H   0  0  0  0  0  0  0  0  0  0  0  0
   54.5540   30.3863   43.7891 H   0  0  0  0  0  0  0  0  0  0  0  0
   56.2021   30.2962   43.0803 H   0  0  0  0  0  0  0  0  0  0  0  0
   55.1439   28.8447   43.0803 H   0  0  0  0  0  0  0  0  0  0  0  0
  1  2  1  0
  2  3  1  0
  3  4  1  0
  4  5  1  0
  5  6  1  0
  6  7  2  0
  7  8  1  0
  8  9  2  0
  9 10  1  0
 10 11  1  0
 11 12  1  0
 10 13  2  0
 13 14  1  0
 14 15  2  0
 15 16  1  0
 16 17  2  0
 17 18  1  0
 18 19  2  0
 19 20  1  0
 20 21  1  0
 19 22  1  0
 22 23  2  0
 23  6  1  0
 14  7  1  0
 23 16  1  0
  1 24  1  0
  1 25  1  0
  1 26  1  0
  2 27  1  0
  2 28  1  0
  3 29  1  0
  4 30  1  0
  4 31  1  0
  5 32  1  0
  5 33  1  0
  8 34  1  0
  9 35  1  0
 12 36  1  0
 12 37  1  0
 12 38  1  0
 13 39  1  0
 17 40  1  0
 18 41  1  0
 21 42  1  0
 21 43  1  0
 21 44  1  0
M  END
>  <UniqueID>  (33) 
33

>  <SMILES>  (33) 
CCNCCc1c2ccc(OC)cc2nc2ccc(OC)nc12

>  <Energy>  (33) 
49.22409954367564

>  <Genealogy>  (33) 
CCNCCc1c2ccc(OC)cc2nc2ccc(OC)nc12 (3D coordinates assigned)
CCNCCc1c2ccc(OC)cc2nc2ccc(OC)nc12 (optimized conformer: 49.22409954367564 kcal/mol)

>  <smiles>  (33) 
CCNCCc1c2ccc(OC)cc2nc2ccc(OC)nc12

>  <score_type>  (33) 
oracle

>  <origin>  (33) 
adg

>  <m_score__min__energy>  (33) 
-7.2300000000000004

>  <m_primary>  (33) 
energy

$$$$
