0:0
     RDKit          3D

 34 36  0  0  0  0  0  0  0  0999 V2000
   59.5540   34.9630   45.7930 C   0  0  0  0  0  0  0  0  0  0  0  0
   58.4870   34.1790   45.9600 C   0  0  0  0  0  0  0  0  0  0  0  0
   57.4650   34.0050   44.8720 C   0  0  0  0  0  0  0  0  0  0  0  0
   57.7760   32.8730   44.0590 O   0  0  0  0  0  0  0  0  0  0  0  0
   57.6960   31.5310   44.4690 C   0  0  0  0  0  0  0  0  0  0  0  0
   56.6130   30.6990   44.1350 C   0  0  0  0  0  0  0  0  0  0  0  0
   56.5770   29.3730   44.5760 C   0  0  0  0  0  0  0  0  0  0  0  0
   57.6190   28.8540   45.3680 C   0  0  0  0  0  0  0  0  0  0  0  0
   58.7210   29.6780   45.6690 C   0  0  0  0  0  0  0  0  0  0  0  0
   58.7410   31.0130   45.2390 C   0  0  0  0  0  0  0  0  0  0  0  0
   59.8450   29.1370   46.5090 C   0  0  0  0  0  0  0  0  0  0  0  0
   60.0700   27.6550   46.1980 C   0  0  0  0  0  0  0  0  0  0  0  0
   58.8130   26.8950   46.3030 N   0  0  0  0  0  0  0  0  0  0  0  0
   58.8600   25.6050   46.7560 C   0  0  0  0  0  0  0  0  0  0  0  0
   57.7010   24.8350   46.8410 C   0  0  0  0  0  0  0  0  0  0  0  0
   57.7660   23.5290   47.3140 O   0  0  0  0  0  0  0  0  0  0  0  0
   56.4830   25.3880   46.4500 C   0  0  0  0  0  0  0  0  0  0  0  0
   55.4230   24.7120   46.5330 O   0  0  0  0  0  0  0  0  0  0  0  0
   56.4400   26.6950   45.9670 C   0  0  0  0  0  0  0  0  0  0  0  0
   57.6280   27.4470   45.8700 C   0  0  0  0  0  0  0  0  0  0  0  0
   60.2877   35.0736   46.6050 H   0  0  0  0  0  0  0  0  0  0  0  0
   59.6997   35.4986   44.8433 H   0  0  0  0  0  0  0  0  0  0  0  0
   58.3527   33.6488   46.9144 H   0  0  0  0  0  0  0  0  0  0  0  0
   56.4744   33.8601   45.3278 H   0  0  0  0  0  0  0  0  0  0  0  0
   57.4680   34.9046   44.2390 H   0  0  0  0  0  0  0  0  0  0  0  0
   55.7888   31.0940   43.5228 H   0  0  0  0  0  0  0  0  0  0  0  0
   55.7277   28.7298   44.3020 H   0  0  0  0  0  0  0  0  0  0  0  0
   59.5885   31.6594   45.5108 H   0  0  0  0  0  0  0  0  0  0  0  0
   60.7653   29.6983   46.2899 H   0  0  0  0  0  0  0  0  0  0  0  0
   59.5837   29.2455   47.5720 H   0  0  0  0  0  0  0  0  0  0  0  0
   60.4641   27.5582   45.1756 H   0  0  0  0  0  0  0  0  0  0  0  0
   60.7858   27.2493   46.9281 H   0  0  0  0  0  0  0  0  0  0  0  0
   59.8244   25.1699   47.0569 H   0  0  0  0  0  0  0  0  0  0  0  0
   55.4806   27.1385   45.6622 H   0  0  0  0  0  0  0  0  0  0  0  0
  1  2  2  0
  2  3  1  0
  3  4  1  0
  4  5  1  0
  5  6  2  0
  6  7  1  0
  7  8  2  0
  8  9  1  0
  9 10  2  0
  9 11  1  0
 11 12  1  0
 12 13  1  0
 13 14  1  0
 14 15  2  0
 15 16  1  0
 15 17  1  0
 17 18  2  0
 17 19  1  0
 19 20  2  0
 10  5  1  0
 20 13  1  0
 20  8  1  0
  1 21  1  0
  1 22  1  0
  2 23  1  0
  3 24  1  0
  3 25  1  0
  6 26  1  0
  7 27  1  0
 10 28  1  0
 11 29  1  0
 11 30  1  0
 12 31  1  0
 12 32  1  0
 14 33  1  0
 19 34  1  0
M  CHG  1  16  -1
M  END
>  <UniqueID>  (1) 
1

>  <SMILES>  (1) 
C=CCOc1ccc2c(c1)CCn1cc([O-])c(=O)cc1-2

>  <Energy>  (1) 
40.666635345626425

>  <Genealogy>  (1) 
C=CCOc1ccc2c(c1)CCn1cc([O-])c(=O)cc1-2 (protonated)
C=CCOc1ccc2c(c1)CCn1cc([O-])c(=O)cc1-2 (3D coordinates assigned)
C=CCOc1ccc2c(c1)CCn1cc([O-])c(=O)cc1-2 (nonaromatic ring conformer: 40.666635345626425 kcal/mol)

>  <smiles>  (1) 
C=CCOc1ccc2c(c1)CCn1cc(O)c(=O)cc1-2

>  <score_type>  (1) 
oracle

>  <origin>  (1) 
adg

>  <m_score__min__energy>  (1) 
-8.9199999999999999

>  <m_primary>  (1) 
energy

$$$$
1:0
     RDKit          3D

 48 51  0  0  0  0  0  0  0  0999 V2000
   57.0570   30.8630   44.2680 C   0  0  0  0  0  0  0  0  0  0  0  0
   57.7000   32.0300   44.9570 C   0  0  0  0  0  0  0  0  0  0  0  0
   58.2170   33.0910   44.2070 C   0  0  0  0  0  0  0  0  0  0  0  0
   58.8470   34.1610   44.8430 C   0  0  0  0  0  0  0  0  0  0  0  0
   59.0100   34.1690   46.2370 C   0  0  0  0  0  0  0  0  0  0  0  0
   59.6950   35.3410   46.8870 C   0  0  0  0  0  0  0  0  0  0  0  0
   58.5250   33.0820   47.0020 C   0  0  0  0  0  0  0  0  0  0  0  0
   58.7180   33.0510   48.4320 N   0  0  0  0  0  0  0  0  0  0  0  0
   58.3900   31.9010   49.2870 C   0  0  2  0  0  0  0  0  0  0  0  0
   57.6510   32.3440   50.3950 O   0  0  0  0  0  0  0  0  0  0  0  0
   59.6690   31.2160   49.8030 C   0  0  0  0  0  0  0  0  0  0  0  0
   60.7530   31.2320   48.8090 N   0  0  0  0  0  0  0  0  0  0  0  0
   60.9130   30.4310   47.7120 C   0  0  0  0  0  0  0  0  0  0  0  0
   60.0480   29.2950   47.3470 C   0  0  0  0  0  0  0  0  0  0  0  0
   59.6120   28.2700   48.1790 C   0  0  0  0  0  0  0  0  0  0  0  0
   58.8310   27.3160   47.5170 C   0  0  0  0  0  0  0  0  0  0  0  0
   58.6590   27.5760   46.1640 C   0  0  0  0  0  0  0  0  0  0  0  0
   59.4870   28.9900   45.7920 S   0  0  0  0  0  0  0  0  0  0  0  0
   61.9240   30.8460   46.9090 N   0  0  0  0  0  0  0  0  0  0  0  0
   62.4230   31.9250   47.5260 C   0  0  0  0  0  0  0  0  0  0  0  0
   63.4470   32.7630   47.0900 C   0  0  0  0  0  0  0  0  0  0  0  0
   63.7640   33.8770   47.8880 C   0  0  0  0  0  0  0  0  0  0  0  0
   63.0570   34.1220   49.0850 C   0  0  0  0  0  0  0  0  0  0  0  0
   62.0230   33.2590   49.4950 C   0  0  0  0  0  0  0  0  0  0  0  0
   61.7270   32.1620   48.6780 C   0  0  0  0  0  0  0  0  0  0  0  0
   57.8560   32.0300   46.3490 C   0  0  0  0  0  0  0  0  0  0  0  0
   56.6699   30.1605   45.0208 H   0  0  0  0  0  0  0  0  0  0  0  0
   56.2281   31.2198   43.6390 H   0  0  0  0  0  0  0  0  0  0  0  0
   57.8014   30.3529   43.6390 H   0  0  0  0  0  0  0  0  0  0  0  0
   58.1265   33.0819   43.1108 H   0  0  0  0  0  0  0  0  0  0  0  0
   59.2196   35.0066   44.2462 H   0  0  0  0  0  0  0  0  0  0  0  0
   59.6359   35.2398   47.9807 H   0  0  0  0  0  0  0  0  0  0  0  0
   60.7503   35.3667   46.5777 H   0  0  0  0  0  0  0  0  0  0  0  0
   59.1995   36.2731   46.5777 H   0  0  0  0  0  0  0  0  0  0  0  0
   59.1670   33.8770   48.8870 H   0  0  0  0  0  0  0  0  0  0  0  0
   57.8099   31.1823   48.6896 H   0  0  0  0  0  0  0  0  0  0  0  0
   56.6980   32.3520   50.1150 H   0  0  0  0  0  0  0  0  0  0  0  0
   60.0109   31.7410   50.7071 H   0  0  0  0  0  0  0  0  0  0  0  0
   59.4243   30.1649   50.0159 H   0  0  0  0  0  0  0  0  0  0  0  0
   59.8564   28.2145   49.2501 H   0  0  0  0  0  0  0  0  0  0  0  0
   58.3941   26.4416   48.0215 H   0  0  0  0  0  0  0  0  0  0  0  0
   58.0806   26.9623   45.4577 H   0  0  0  0  0  0  0  0  0  0  0  0
   62.2320   30.4340   46.0000 H   0  0  0  0  0  0  0  0  0  0  0  0
   63.9887   32.5605   46.1543 H   0  0  0  0  0  0  0  0  0  0  0  0
   64.5674   34.5612   47.5776 H   0  0  0  0  0  0  0  0  0  0  0  0
   63.3162   34.9946   49.7026 H   0  0  0  0  0  0  0  0  0  0  0  0
   61.4665   33.4409   50.4262 H   0  0  0  0  0  0  0  0  0  0  0  0
   57.4499   31.1960   46.9401 H   0  0  0  0  0  0  0  0  0  0  0  0
  1  2  1  0
  2  3  2  0
  3  4  1  0
  4  5  2  0
  5  6  1  0
  5  7  1  0
  7  8  1  0
  8  9  1  0
  9 10  1  0
  9 11  1  0
 11 12  1  0
 12 13  1  0
 13 14  1  0
 14 15  2  0
 15 16  1  0
 16 17  2  0
 17 18  1  0
 13 19  2  0
 19 20  1  0
 20 21  2  0
 21 22  1  0
 22 23  2  0
 23 24  1  0
 24 25  2  0
  7 26  2  0
 26  2  1  0
 25 12  1  0
 18 14  1  0
 25 20  1  0
  1 27  1  0
  1 28  1  0
  1 29  1  0
  3 30  1  0
  4 31  1  0
  6 32  1  0
  6 33  1  0
  6 34  1  0
  8 35  1  0
  9 36  1  6
 10 37  1  0
 11 38  1  0
 11 39  1  0
 15 40  1  0
 16 41  1  0
 17 42  1  0
 19 43  1  0
 21 44  1  0
 22 45  1  0
 23 46  1  0
 24 47  1  0
 26 48  1  0
M  CHG  1  19   1
M  END
>  <UniqueID>  (2) 
2

>  <SMILES>  (2) 
Cc1ccc(C)c(N[C@H](O)Cn2c(-c3cccs3)[nH+]c3ccccc32)c1

>  <Energy>  (2) 
114.58591426322363

>  <Genealogy>  (2) 
Cc1ccc(C)c(NC(O)Cn2c(-c3cccs3)[nH+]c3ccccc32)c1 (protonated)
Cc1ccc(C)c(N[C@H](O)Cn2c(-c3cccs3)[nH+]c3ccccc32)c1 (chirality)
Cc1ccc(C)c(N[C@H](O)Cn2c(-c3cccs3)[nH+]c3ccccc32)c1 (3D coordinates assigned)
Cc1ccc(C)c(N[C@H](O)Cn2c(-c3cccs3)[nH+]c3ccccc32)c1 (optimized conformer: 114.58591426322363 kcal/mol)

>  <smiles>  (2) 
Cc1ccc(C)c(NC(O)Cn2c(-c3cccs3)nc3ccccc32)c1

>  <score_type>  (2) 
oracle

>  <origin>  (2) 
adg

>  <m_score__min__energy>  (2) 
-6.0700000000000003

>  <m_primary>  (2) 
energy

$$$$
2:0
     RDKit          3D

 42 45  0  0  0  0  0  0  0  0999 V2000
   59.6820   30.3390   45.6880 C   0  0  0  0  0  0  0  0  0  0  0  0
   58.2600   30.1230   45.2420 C   0  0  0  0  0  0  0  0  0  0  0  0
   57.5400   31.0850   44.4760 C   0  0  0  0  0  0  0  0  0  0  0  0
   58.0910   32.3690   44.1460 N   0  0  0  0  0  0  0  0  0  0  0  0
   58.0600   33.5380   44.9790 C   0  0  0  0  0  0  0  0  0  0  0  0
   57.4170   34.5440   44.5790 O   0  0  0  0  0  0  0  0  0  0  0  0
   58.7440   33.5890   46.2940 C   0  0  0  0  0  0  0  0  0  0  0  0
   60.0340   34.1350   46.3880 C   0  0  0  0  0  0  0  0  0  0  0  0
   60.7040   34.1680   47.6130 C   0  0  0  0  0  0  0  0  0  0  0  0
   60.0870   33.6640   48.7720 C   0  0  0  0  0  0  0  0  0  0  0  0
   60.7270   33.6690   50.0230 C   0  0  0  0  0  0  0  0  0  0  0  0
   61.9050   34.1180   50.1200 O   0  0  0  0  0  0  0  0  0  0  0  0
   60.0800   33.1880   51.1320 N   0  0  0  0  0  0  0  0  0  0  0  0
   60.7640   33.1700   52.4360 C   0  0  0  0  0  0  0  0  0  0  0  0
   58.8200   32.6540   51.0120 C   0  0  0  0  0  0  0  0  0  0  0  0
   58.2320   32.1640   52.0150 O   0  0  0  0  0  0  0  0  0  0  0  0
   58.1870   32.6430   49.8070 N   0  0  0  0  0  0  0  0  0  0  0  0
   58.7860   33.1360   48.6900 C   0  0  0  0  0  0  0  0  0  0  0  0
   58.1170   33.1110   47.4560 C   0  0  0  0  0  0  0  0  0  0  0  0
   56.2440   30.7820   44.0100 C   0  0  0  0  0  0  0  0  0  0  0  0
   55.6220   29.5760   44.3570 C   0  0  0  0  0  0  0  0  0  0  0  0
   56.3200   28.6810   45.1590 C   0  0  0  0  0  0  0  0  0  0  0  0
   57.5920   28.9360   45.5870 C   0  0  0  0  0  0  0  0  0  0  0  0
   58.0730   27.7890   46.4110 C   0  0  0  0  0  0  0  0  0  0  0  0
   56.8590   26.8310   46.4140 C   0  0  0  0  0  0  0  0  0  0  0  0
   55.8620   27.4640   45.6140 O   0  0  0  0  0  0  0  0  0  0  0  0
   59.7246   30.3455   46.7872 H   0  0  0  0  0  0  0  0  0  0  0  0
   60.3150   29.5267   45.3013 H   0  0  0  0  0  0  0  0  0  0  0  0
   60.0452   31.3026   45.3013 H   0  0  0  0  0  0  0  0  0  0  0  0
   60.5213   34.5403   45.4890 H   0  0  0  0  0  0  0  0  0  0  0  0
   61.7182   34.5898   47.6715 H   0  0  0  0  0  0  0  0  0  0  0  0
   60.0163   33.1897   53.2426 H   0  0  0  0  0  0  0  0  0  0  0  0
   61.3697   32.2556   52.5197 H   0  0  0  0  0  0  0  0  0  0  0  0
   61.4170   34.0513   52.5197 H   0  0  0  0  0  0  0  0  0  0  0  0
   57.2240   32.2370   49.7470 H   0  0  0  0  0  0  0  0  0  0  0  0
   57.0929   32.7136   47.3989 H   0  0  0  0  0  0  0  0  0  0  0  0
   55.7156   31.5010   43.3667 H   0  0  0  0  0  0  0  0  0  0  0  0
   54.6067   29.3431   44.0037 H   0  0  0  0  0  0  0  0  0  0  0  0
   58.9516   27.3127   45.9513 H   0  0  0  0  0  0  0  0  0  0  0  0
   58.3949   28.0847   47.4204 H   0  0  0  0  0  0  0  0  0  0  0  0
   57.1372   25.8589   45.9809 H   0  0  0  0  0  0  0  0  0  0  0  0
   56.4972   26.6394   47.4350 H   0  0  0  0  0  0  0  0  0  0  0  0
  1  2  1  0
  2  3  2  0
  3  4  1  0
  4  5  1  0
  5  6  2  0
  5  7  1  0
  7  8  2  0
  8  9  1  0
  9 10  2  0
 10 11  1  0
 11 12  2  0
 11 13  1  0
 13 14  1  0
 13 15  1  0
 15 16  2  0
 15 17  1  0
 17 18  1  0
 18 19  2  0
  3 20  1  0
 20 21  2  0
 21 22  1  0
 22 23  2  0
 23 24  1  0
 24 25  1  0
 25 26  1  0
 23  2  1  0
 19  7  1  0
 26 22  1  0
 18 10  1  0
  1 27  1  0
  1 28  1  0
  1 29  1  0
  8 30  1  0
  9 31  1  0
 14 32  1  0
 14 33  1  0
 14 34  1  0
 17 35  1  0
 19 36  1  0
 20 37  1  0
 21 38  1  0
 24 39  1  0
 24 40  1  0
 25 41  1  0
 25 42  1  0
M  CHG  1   4  -1
M  END
>  <UniqueID>  (3) 
3

>  <SMILES>  (3) 
Cc1c([N-]C(=O)c2ccc3c(=O)n(C)c(=O)[nH]c3c2)ccc2c1CCO2

>  <Energy>  (3) 
78.85969006257369

>  <Genealogy>  (3) 
Cc1c([N-]C(=O)c2ccc3c(=O)n(C)c(=O)[nH]c3c2)ccc2c1CCO2 (protonated)
Cc1c([N-]C(=O)c2ccc3c(=O)n(C)c(=O)[nH]c3c2)ccc2c1CCO2 (3D coordinates assigned)
Cc1c([N-]C(=O)c2ccc3c(=O)n(C)c(=O)[nH]c3c2)ccc2c1CCO2 (nonaromatic ring conformer: 78.85969006257369 kcal/mol)

>  <smiles>  (3) 
Cc1c(NC(=O)c2ccc3c(=O)n(C)c(=O)[nH]c3c2)ccc2c1CCO2

>  <score_type>  (3) 
oracle

>  <origin>  (3) 
adg

>  <m_score__min__energy>  (3) 
-9.3000000000000007

>  <m_primary>  (3) 
energy

$$$$
3:0
     RDKit          3D

 19 20  0  0  0  0  0  0  0  0999 V2000
   55.5410   25.4830   46.5740 O   0  0  0  0  0  0  0  0  0  0  0  0
   56.3430   26.3840   46.2200 C   0  0  0  0  0  0  0  0  0  0  0  0
   57.7140   26.2270   46.4320 C   0  0  0  0  0  0  0  0  0  0  0  0
   58.5930   27.2370   46.0390 C   0  0  0  0  0  0  0  0  0  0  0  0
   58.1000   28.4140   45.4430 C   0  0  0  0  0  0  0  0  0  0  0  0
   58.9470   29.4720   45.0270 C   0  0  0  0  0  0  0  0  0  0  0  0
   60.3600   29.4590   45.2880 N   0  0  0  0  0  0  0  0  0  0  0  0
   60.8110   30.0120   46.3130 O   0  0  0  0  0  0  0  0  0  0  0  0
   61.1850   28.6290   44.5650 O   0  0  0  0  0  0  0  0  0  0  0  0
   58.3860   30.5780   44.3650 C   0  0  0  0  0  0  0  0  0  0  0  0
   57.0100   30.6580   44.1470 C   0  0  0  0  0  0  0  0  0  0  0  0
   56.1690   29.6340   44.5840 C   0  0  0  0  0  0  0  0  0  0  0  0
   56.7030   28.5120   45.2230 C   0  0  0  0  0  0  0  0  0  0  0  0
   55.8740   27.5100   45.6200 N   0  0  0  0  0  0  0  0  0  0  0  0
   58.0991   25.3122   46.9062 H   0  0  0  0  0  0  0  0  0  0  0  0
   59.6748   27.1135   46.1953 H   0  0  0  0  0  0  0  0  0  0  0  0
   59.0397   31.3903   44.0145 H   0  0  0  0  0  0  0  0  0  0  0  0
   56.5869   31.5313   43.6289 H   0  0  0  0  0  0  0  0  0  0  0  0
   55.0832   29.7102   44.4251 H   0  0  0  0  0  0  0  0  0  0  0  0
  1  2  2  0
  2  3  1  0
  3  4  2  0
  4  5  1  0
  5  6  2  0
  6  7  1  0
  7  8  2  0
  7  9  1  0
  6 10  1  0
 10 11  2  0
 11 12  1  0
 12 13  2  0
 13 14  1  0
 14  2  1  0
 13  5  1  0
  3 15  1  0
  4 16  1  0
 10 17  1  0
 11 18  1  0
 12 19  1  0
M  CHG  3   7   1   9  -1  14  -1
M  END
>  <UniqueID>  (4) 
4

>  <SMILES>  (4) 
O=c1ccc2c([N+](=O)[O-])cccc2[n-]1

>  <Energy>  (4) 
29.981055936381384

>  <Genealogy>  (4) 
O=c1ccc2c([N+](=O)[O-])cccc2[n-]1 (protonated)
O=c1ccc2c([N+](=O)[O-])cccc2[n-]1 (3D coordinates assigned)
O=c1ccc2c([N+](=O)[O-])cccc2[n-]1 (optimized conformer: 29.981055936381384 kcal/mol)

>  <smiles>  (4) 
O=c1ccc2c([N+](=O)[O-])cccc2[nH]1

>  <score_type>  (4) 
oracle

>  <origin>  (4) 
adg

>  <m_score__min__energy>  (4) 
-7.5499999999999998

>  <m_primary>  (4) 
energy

$$$$
4:0
     RDKit          3D

 39 40  0  0  0  0  0  0  0  0999 V2000
   63.4360   33.8130   47.5140 C   0  0  0  0  0  0  0  0  0  0  0  0
   62.2150   33.3050   46.7490 C   0  0  0  0  0  0  0  0  0  0  0  0
   60.8970   33.7900   47.3650 C   0  0  0  0  0  0  0  0  0  0  0  0
   59.7880   33.6670   46.4100 N   0  0  0  0  0  0  0  0  0  0  0  0
   59.2760   32.4500   46.1990 N   0  0  0  0  0  0  0  0  0  0  0  0
   58.2330   32.2300   45.3540 C   0  0  0  0  0  0  0  0  0  0  0  0
   57.7450   30.8880   45.1570 N   0  0  0  0  0  0  0  0  0  0  0  0
   56.7260   30.5830   44.1460 C   0  0  0  0  0  0  0  0  0  0  0  0
   57.1420   29.3380   43.3610 C   0  0  0  0  0  0  0  0  0  0  0  0
   57.5540   28.2450   44.2580 N   0  0  0  0  0  0  0  0  0  0  0  0
   57.7930   26.9390   43.6840 C   0  0  0  0  0  0  0  0  0  0  0  0
   57.8780   25.7050   44.5310 C   0  0  0  0  0  0  0  0  0  0  0  0
   57.9460   26.8230   42.4370 O   0  0  0  0  0  0  0  0  0  0  0  0
   57.5880   28.4620   45.7140 C   0  0  0  0  0  0  0  0  0  0  0  0
   58.2220   29.8210   46.0490 C   0  0  0  0  0  0  0  0  0  0  0  0
   57.6890   33.3150   44.6590 C   0  0  0  0  0  0  0  0  0  0  0  0
   58.2060   34.5880   44.8730 C   0  0  0  0  0  0  0  0  0  0  0  0
   59.2640   34.7570   45.7650 C   0  0  0  0  0  0  0  0  0  0  0  0
   59.7250   35.9150   45.9640 O   0  0  0  0  0  0  0  0  0  0  0  0
   63.2496   33.7354   48.5953 H   0  0  0  0  0  0  0  0  0  0  0  0
   64.3138   33.2054   47.2487 H   0  0  0  0  0  0  0  0  0  0  0  0
   63.6238   34.8639   47.2487 H   0  0  0  0  0  0  0  0  0  0  0  0
   62.2735   33.6646   45.7111 H   0  0  0  0  0  0  0  0  0  0  0  0
   62.2230   32.2060   46.7954 H   0  0  0  0  0  0  0  0  0  0  0  0
   60.6727   33.1843   48.2554 H   0  0  0  0  0  0  0  0  0  0  0  0
   61.0081   34.8504   47.6355 H   0  0  0  0  0  0  0  0  0  0  0  0
   55.7616   30.3984   44.6418 H   0  0  0  0  0  0  0  0  0  0  0  0
   56.6274   31.4346   43.4568 H   0  0  0  0  0  0  0  0  0  0  0  0
   56.2909   28.9988   42.7522 H   0  0  0  0  0  0  0  0  0  0  0  0
   57.9991   29.6027   42.7244 H   0  0  0  0  0  0  0  0  0  0  0  0
   57.8585   25.9877   45.5939 H   0  0  0  0  0  0  0  0  0  0  0  0
   57.0229   25.0492   44.3103 H   0  0  0  0  0  0  0  0  0  0  0  0
   58.8149   25.1726   44.3103 H   0  0  0  0  0  0  0  0  0  0  0  0
   56.5607   28.4369   46.1063 H   0  0  0  0  0  0  0  0  0  0  0  0
   58.1936   27.6676   46.1746 H   0  0  0  0  0  0  0  0  0  0  0  0
   57.9675   30.0853   47.0860 H   0  0  0  0  0  0  0  0  0  0  0  0
   59.3101   29.7294   45.9164 H   0  0  0  0  0  0  0  0  0  0  0  0
   56.8612   33.1630   43.9508 H   0  0  0  0  0  0  0  0  0  0  0  0
   57.7837   35.4544   44.3429 H   0  0  0  0  0  0  0  0  0  0  0  0
  1  2  1  0
  2  3  1  0
  3  4  1  0
  4  5  1  0
  5  6  2  0
  6  7  1  0
  7  8  1  0
  8  9  1  0
  9 10  1  0
 10 11  1  0
 11 12  1  0
 11 13  2  0
 10 14  1  0
 14 15  1  0
  6 16  1  0
 16 17  2  0
 17 18  1  0
 18 19  2  0
 18  4  1  0
 15  7  1  0
  1 20  1  0
  1 21  1  0
  1 22  1  0
  2 23  1  0
  2 24  1  0
  3 25  1  0
  3 26  1  0
  8 27  1  0
  8 28  1  0
  9 29  1  0
  9 30  1  0
 12 31  1  0
 12 32  1  0
 12 33  1  0
 14 34  1  0
 14 35  1  0
 15 36  1  0
 15 37  1  0
 16 38  1  0
 17 39  1  0
M  END
>  <UniqueID>  (5) 
5

>  <SMILES>  (5) 
CCCn1nc(N2CCN(C(C)=O)CC2)ccc1=O

>  <Energy>  (5) 
37.6948116067913

>  <Genealogy>  (5) 
CCCn1nc(N2CCN(C(C)=O)CC2)ccc1=O (3D coordinates assigned)
CCCn1nc(N2CCN(C(C)=O)CC2)ccc1=O (nonaromatic ring conformer: 37.6948116067913 kcal/mol)

>  <smiles>  (5) 
CCCn1nc(N2CCN(C(C)=O)CC2)ccc1=O

>  <score_type>  (5) 
oracle

>  <origin>  (5) 
adg

>  <m_score__min__energy>  (5) 
-6.7199999999999998

>  <m_primary>  (5) 
energy

$$$$
5:0
     RDKit          3D

 38 40  0  0  0  0  0  0  0  0999 V2000
   60.7670   28.7980   48.4650 N   0  0  0  0  0  0  0  0  0  0  0  0
   59.6880   28.7140   47.5220 C   0  0  0  0  0  0  0  0  0  0  0  0
   59.2290   27.4450   47.1430 C   0  0  0  0  0  0  0  0  0  0  0  0
   58.2360   27.3060   46.1770 C   0  0  0  0  0  0  0  0  0  0  0  0
   57.6910   28.4340   45.5660 C   0  0  0  0  0  0  0  0  0  0  0  0
   58.1240   29.7190   45.9320 C   0  0  0  0  0  0  0  0  0  0  0  0
   59.1090   29.8710   46.9340 C   0  0  0  0  0  0  0  0  0  0  0  0
   59.4400   31.2480   47.3790 C   0  0  0  0  0  0  0  0  0  0  0  0
   59.7490   31.4540   48.5830 O   0  0  0  0  0  0  0  0  0  0  0  0
   59.1870   32.3970   46.4690 C   0  0  0  0  0  0  0  0  0  0  0  0
   59.8720   33.6430   46.5710 C   0  0  0  0  0  0  0  0  0  0  0  0
   61.1550   33.8360   47.3620 C   0  0  0  0  0  0  0  0  0  0  0  0
   62.4030   33.8400   46.4560 C   0  0  0  0  0  0  0  0  0  0  0  0
   63.6590   33.2390   47.1120 C   0  0  0  0  0  0  0  0  0  0  0  0
   63.3600   31.9710   47.9130 C   0  0  0  0  0  0  0  0  0  0  0  0
   62.5820   31.1170   47.1540 F   0  0  0  0  0  0  0  0  0  0  0  0
   59.4210   34.7320   45.8040 C   0  0  0  0  0  0  0  0  0  0  0  0
   58.3660   34.5900   44.9070 C   0  0  0  0  0  0  0  0  0  0  0  0
   57.7580   33.3510   44.7360 C   0  0  0  0  0  0  0  0  0  0  0  0
   58.1670   32.2460   45.4990 C   0  0  0  0  0  0  0  0  0  0  0  0
   57.5500   30.9170   45.2760 C   0  0  0  0  0  0  0  0  0  0  0  0
   56.5590   30.8010   44.5030 O   0  0  0  0  0  0  0  0  0  0  0  0
   61.2830   27.9560   48.7970 H   0  0  0  0  0  0  0  0  0  0  0  0
   60.9760   29.7000   48.9470 H   0  0  0  0  0  0  0  0  0  0  0  0
   59.6583   26.5485   47.6142 H   0  0  0  0  0  0  0  0  0  0  0  0
   57.8808   26.3037   45.8954 H   0  0  0  0  0  0  0  0  0  0  0  0
   56.9174   28.3172   44.7928 H   0  0  0  0  0  0  0  0  0  0  0  0
   61.1013   34.7966   47.8952 H   0  0  0  0  0  0  0  0  0  0  0  0
   61.2494   32.9936   48.0631 H   0  0  0  0  0  0  0  0  0  0  0  0
   62.1744   33.2583   45.5508 H   0  0  0  0  0  0  0  0  0  0  0  0
   62.6328   34.8934   46.2380 H   0  0  0  0  0  0  0  0  0  0  0  0
   64.3844   32.9931   46.3225 H   0  0  0  0  0  0  0  0  0  0  0  0
   64.0569   33.9875   47.8130 H   0  0  0  0  0  0  0  0  0  0  0  0
   64.3046   31.4714   48.1740 H   0  0  0  0  0  0  0  0  0  0  0  0
   62.8191   32.2384   48.8328 H   0  0  0  0  0  0  0  0  0  0  0  0
   59.9095   35.7113   45.9146 H   0  0  0  0  0  0  0  0  0  0  0  0
   58.0127   35.4591   44.3326 H   0  0  0  0  0  0  0  0  0  0  0  0
   56.9508   33.2361   43.9976 H   0  0  0  0  0  0  0  0  0  0  0  0
  1  2  1  0
  2  3  2  0
  3  4  1  0
  4  5  2  0
  5  6  1  0
  6  7  2  0
  7  8  1  0
  8  9  2  0
  8 10  1  0
 10 11  2  0
 11 12  1  0
 12 13  1  0
 13 14  1  0
 14 15  1  0
 15 16  1  0
 11 17  1  0
 17 18  2  0
 18 19  1  0
 19 20  2  0
 20 21  1  0
 21 22  2  0
  7  2  1  0
 20 10  1  0
 21  6  1  0
  1 23  1  0
  1 24  1  0
  3 25  1  0
  4 26  1  0
  5 27  1  0
 12 28  1  0
 12 29  1  0
 13 30  1  0
 13 31  1  0
 14 32  1  0
 14 33  1  0
 15 34  1  0
 15 35  1  0
 17 36  1  0
 18 37  1  0
 19 38  1  0
M  END
>  <UniqueID>  (6) 
6

>  <SMILES>  (6) 
Nc1cccc2c1C(=O)c1c(CCCCF)cccc1C2=O

>  <Energy>  (6) 
51.480630947162126

>  <Genealogy>  (6) 
Nc1cccc2c1C(=O)c1c(CCCCF)cccc1C2=O (3D coordinates assigned)
Nc1cccc2c1C(=O)c1c(CCCCF)cccc1C2=O (nonaromatic ring conformer: 51.480630947162126 kcal/mol)

>  <smiles>  (6) 
Nc1cccc2c1C(=O)c1c(CCCCF)cccc1C2=O

>  <score_type>  (6) 
oracle

>  <origin>  (6) 
adg

>  <m_score__min__energy>  (6) 
-7.3499999999999996

>  <m_primary>  (6) 
energy

$$$$
6:0
     RDKit          3D

 35 37  0  0  1  0  0  0  0  0999 V2000
   54.8580   24.8060   45.3070 C   0  0  0  0  0  0  0  0  0  0  0  0
   55.4890   25.5580   46.2660 O   0  0  0  0  0  0  0  0  0  0  0  0
   56.2790   24.8210   47.1340 C   0  0  0  0  0  0  0  0  0  0  0  0
   57.7110   25.3180   47.2410 C   0  0  0  0  0  0  0  0  0  0  0  0
   58.1930   26.1710   46.2750 N   0  0  0  0  0  0  0  0  0  0  0  0
   58.0080   27.3670   46.0450 C   0  0  0  0  0  0  0  0  0  0  0  0
   56.9740   27.7130   45.2460 N   0  0  0  0  0  0  0  0  0  0  0  0
   56.6950   28.9730   44.8900 C   0  0  0  0  0  0  0  0  0  0  0  0
   55.7400   29.5020   44.1230 N   0  0  0  0  0  0  0  0  0  0  0  0
   55.9450   30.8010   44.1170 N   0  0  0  0  0  0  0  0  0  0  0  0
   57.0150   31.1370   44.8610 C   0  0  0  0  0  0  0  0  0  0  0  0
   57.4940   32.5040   45.0460 C   0  0  0  0  0  0  0  0  0  0  0  0
   57.5170   29.9640   45.3720 C   0  0  0  0  0  0  0  0  0  0  0  0
   58.5720   29.6290   46.1890 C   0  0  0  0  0  0  0  0  0  0  0  0
   59.3650   30.6350   46.6540 C   0  0  0  0  0  0  0  0  0  0  0  0
   60.4170   30.2720   47.4780 C   0  0  0  0  0  0  0  0  0  0  0  0
   60.6950   28.9990   47.8420 C   0  0  0  0  0  0  0  0  0  0  0  0
   59.8750   27.9560   47.3610 C   0  0  0  0  0  0  0  0  0  0  0  0
   58.8520   28.3220   46.5530 C   0  0  0  0  0  0  0  0  0  0  0  0
   54.2236   24.0499   45.7926 H   0  0  0  0  0  0  0  0  0  0  0  0
   54.2343   25.4600   44.6798 H   0  0  0  0  0  0  0  0  0  0  0  0
   55.6104   24.3054   44.6798 H   0  0  0  0  0  0  0  0  0  0  0  0
   55.8235   24.8610   48.1345 H   0  0  0  0  0  0  0  0  0  0  0  0
   56.3266   23.7989   46.7302 H   0  0  0  0  0  0  0  0  0  0  0  0
   57.8005   25.8391   48.2056 H   0  0  0  0  0  0  0  0  0  0  0  0
   58.3169   24.4083   47.1172 H   0  0  0  0  0  0  0  0  0  0  0  0
   56.3260   26.9750   44.8610 H   0  0  0  0  0  0  0  0  0  0  0  0
   54.9780   28.9850   43.6280 H   0  0  0  0  0  0  0  0  0  0  0  0
   57.5708   32.7232   46.1212 H   0  0  0  0  0  0  0  0  0  0  0  0
   58.4836   32.6122   44.5781 H   0  0  0  0  0  0  0  0  0  0  0  0
   56.7884   33.2063   44.5781 H   0  0  0  0  0  0  0  0  0  0  0  0
   59.1782   31.6857   46.3874 H   0  0  0  0  0  0  0  0  0  0  0  0
   61.0690   31.0706   47.8615 H   0  0  0  0  0  0  0  0  0  0  0  0
   61.5469   28.7803   48.5026 H   0  0  0  0  0  0  0  0  0  0  0  0
   60.0568   26.9044   47.6276 H   0  0  0  0  0  0  0  0  0  0  0  0
  1  2  1  0
  2  3  1  0
  3  4  1  0
  4  5  1  0
  5  6  2  0
  6  7  1  0
  7  8  1  0
  8  9  1  0
  9 10  1  0
 10 11  2  0
 11 12  1  0
 11 13  1  0
 13 14  1  0
 14 15  2  0
 15 16  1  0
 16 17  2  0
 17 18  1  0
 18 19  2  0
 19  6  1  0
 13  8  2  0
 19 14  1  0
  1 20  1  0
  1 21  1  0
  1 22  1  0
  3 23  1  0
  3 24  1  0
  4 25  1  0
  4 26  1  0
  7 27  1  0
  9 28  1  0
 12 29  1  0
 12 30  1  0
 12 31  1  0
 15 32  1  0
 16 33  1  0
 17 34  1  0
 18 35  1  0
M  END
>  <smiles>  (7) 
COCCN=c1[nH]c2[nH]nc(C)c2c2ccccc12

>  <score_type>  (7) 
oracle

>  <origin>  (7) 
adg

>  <m_score__min__energy>  (7) 
-6.8099999999999996

>  <m_primary>  (7) 
energy

$$$$
7:0
     RDKit          3D

 50 53  0  0  0  0  0  0  0  0999 V2000
   58.1750   27.1520   43.3800 Cl  0  0  0  0  0  0  0  0  0  0  0  0
   58.6030   28.1130   44.7830 C   0  0  0  0  0  0  0  0  0  0  0  0
   57.8070   28.0700   45.9300 C   0  0  0  0  0  0  0  0  0  0  0  0
   58.1580   28.8210   47.0570 C   0  0  0  0  0  0  0  0  0  0  0  0
   59.3170   29.6160   47.0460 C   0  0  0  0  0  0  0  0  0  0  0  0
   59.7100   30.4030   48.2680 C   0  0  0  0  0  0  0  0  0  0  0  0
   60.3170   31.6880   47.8960 N   0  0  0  0  0  0  0  0  0  0  0  0
   59.7120   32.7790   47.3430 C   0  0  0  0  0  0  0  0  0  0  0  0
   58.2390   32.9010   47.0510 C   0  0  0  0  0  0  0  0  0  0  0  0
   57.9340   34.0190   46.0440 C   0  0  0  0  0  0  0  0  0  0  0  0
   57.3220   33.4860   44.7280 C   0  0  0  0  0  0  0  0  0  0  0  0
   57.8830   32.1920   44.2740 N   0  0  0  0  0  0  0  0  0  0  0  0
   58.1150   32.1180   42.8260 C   0  0  0  0  0  0  0  0  0  0  0  0
   57.0150   31.2620   42.2240 C   0  0  0  0  0  0  0  0  0  0  0  0
   56.4730   30.4320   43.3720 C   0  0  0  0  0  0  0  0  0  0  0  0
   57.0630   31.0290   44.6450 C   0  0  0  0  0  0  0  0  0  0  0  0
   60.5800   33.8000   47.1300 N   0  0  0  0  0  0  0  0  0  0  0  0
   61.7590   33.3360   47.5710 C   0  0  0  0  0  0  0  0  0  0  0  0
   62.9850   33.9980   47.5990 C   0  0  0  0  0  0  0  0  0  0  0  0
   64.0870   33.3050   48.1300 C   0  0  0  0  0  0  0  0  0  0  0  0
   63.9360   31.9870   48.6180 C   0  0  0  0  0  0  0  0  0  0  0  0
   62.6840   31.3480   48.5760 C   0  0  0  0  0  0  0  0  0  0  0  0
   61.6080   32.0610   48.0370 C   0  0  0  0  0  0  0  0  0  0  0  0
   60.0980   29.6730   45.8780 C   0  0  0  0  0  0  0  0  0  0  0  0
   59.7460   28.9190   44.7560 C   0  0  0  0  0  0  0  0  0  0  0  0
   56.9024   27.4444   45.9472 H   0  0  0  0  0  0  0  0  0  0  0  0
   57.5242   28.7891   47.9555 H   0  0  0  0  0  0  0  0  0  0  0  0
   58.8139   30.5918   48.8774 H   0  0  0  0  0  0  0  0  0  0  0  0
   60.4483   29.8193   48.8373 H   0  0  0  0  0  0  0  0  0  0  0  0
   57.8801   31.9464   46.6388 H   0  0  0  0  0  0  0  0  0  0  0  0
   57.7291   33.1494   47.9935 H   0  0  0  0  0  0  0  0  0  0  0  0
   57.2234   34.7220   46.5032 H   0  0  0  0  0  0  0  0  0  0  0  0
   58.8863   34.5090   45.7930 H   0  0  0  0  0  0  0  0  0  0  0  0
   56.2398   33.3584   44.8784 H   0  0  0  0  0  0  0  0  0  0  0  0
   57.5616   34.2238   43.9481 H   0  0  0  0  0  0  0  0  0  0  0  0
   58.0849   33.1274   42.3899 H   0  0  0  0  0  0  0  0  0  0  0  0
   59.1018   31.6796   42.6164 H   0  0  0  0  0  0  0  0  0  0  0  0
   56.2224   31.8965   41.8006 H   0  0  0  0  0  0  0  0  0  0  0  0
   57.3912   30.6303   41.4058 H   0  0  0  0  0  0  0  0  0  0  0  0
   55.3748   30.4884   43.3979 H   0  0  0  0  0  0  0  0  0  0  0  0
   56.7452   29.3718   43.2632 H   0  0  0  0  0  0  0  0  0  0  0  0
   56.2522   31.3452   45.3178 H   0  0  0  0  0  0  0  0  0  0  0  0
   57.6803   30.2805   45.1633 H   0  0  0  0  0  0  0  0  0  0  0  0
   60.3740   34.7430   46.7320 H   0  0  0  0  0  0  0  0  0  0  0  0
   63.0868   35.0254   47.2194 H   0  0  0  0  0  0  0  0  0  0  0  0
   65.0729   33.7915   48.1659 H   0  0  0  0  0  0  0  0  0  0  0  0
   64.8052   31.4567   49.0342 H   0  0  0  0  0  0  0  0  0  0  0  0
   62.5553   30.3230   48.9539 H   0  0  0  0  0  0  0  0  0  0  0  0
   60.9909   30.3148   45.8477 H   0  0  0  0  0  0  0  0  0  0  0  0
   60.3685   28.9591   43.8500 H   0  0  0  0  0  0  0  0  0  0  0  0
  1  2  1  0
  2  3  2  0
  3  4  1  0
  4  5  2  0
  5  6  1  0
  6  7  1  0
  7  8  1  0
  8  9  1  0
  9 10  1  0
 10 11  1  0
 11 12  1  0
 12 13  1  0
 13 14  1  0
 14 15  1  0
 15 16  1  0
  8 17  2  0
 17 18  1  0
 18 19  2  0
 19 20  1  0
 20 21  2  0
 21 22  1  0
 22 23  2  0
  5 24  1  0
 24 25  2  0
 25  2  1  0
 23  7  1  0
 16 12  1  0
 23 18  1  0
  3 26  1  0
  4 27  1  0
  6 28  1  0
  6 29  1  0
  9 30  1  0
  9 31  1  0
 10 32  1  0
 10 33  1  0
 11 34  1  0
 11 35  1  0
 13 36  1  0
 13 37  1  0
 14 38  1  0
 14 39  1  0
 15 40  1  0
 15 41  1  0
 16 42  1  0
 16 43  1  0
 17 44  1  0
 19 45  1  0
 20 46  1  0
 21 47  1  0
 22 48  1  0
 24 49  1  0
 25 50  1  0
M  CHG  1  17   1
M  END
>  <UniqueID>  (8) 
7

>  <SMILES>  (8) 
Clc1ccc(Cn2c(CCCN3CCCC3)[nH+]c3ccccc32)cc1

>  <Energy>  (8) 
89.09840597065036

>  <Genealogy>  (8) 
Clc1ccc(Cn2c(CCCN3CCCC3)[nH+]c3ccccc32)cc1 (protonated)
Clc1ccc(Cn2c(CCCN3CCCC3)[nH+]c3ccccc32)cc1 (3D coordinates assigned)
Clc1ccc(Cn2c(CCCN3CCCC3)[nH+]c3ccccc32)cc1 (nonaromatic ring conformer: 89.09840597065036 kcal/mol)

>  <smiles>  (8) 
Clc1ccc(Cn2c(CCCN3CCCC3)nc3ccccc32)cc1

>  <score_type>  (8) 
oracle

>  <origin>  (8) 
adg

>  <m_score__min__energy>  (8) 
-6.8499999999999996

>  <m_primary>  (8) 
energy

$$$$
8:0
     RDKit          3D

 20 21  0  0  0  0  0  0  0  0999 V2000
   56.6460   30.4760   42.6470 C   0  0  0  0  0  0  0  0  0  0  0  0
   57.3930   31.5520   42.1750 C   0  0  0  0  0  0  0  0  0  0  0  0
   57.9530   32.4640   43.0730 C   0  0  0  0  0  0  0  0  0  0  0  0
   57.7600   32.2880   44.4600 C   0  0  0  0  0  0  0  0  0  0  0  0
   58.3270   33.2200   45.4860 C   0  0  0  0  0  0  0  0  0  0  0  0
   59.1340   34.3290   45.1490 C   0  0  0  0  0  0  0  0  0  0  0  0
   59.6380   35.1660   46.1460 C   0  0  0  0  0  0  0  0  0  0  0  0
   59.3400   34.9010   47.4800 C   0  0  0  0  0  0  0  0  0  0  0  0
   58.5640   33.8350   47.8020 N   0  0  0  0  0  0  0  0  0  0  0  0
   58.0590   33.0020   46.8540 C   0  0  0  0  0  0  0  0  0  0  0  0
   57.0220   31.2190   44.8810 N   0  0  0  0  0  0  0  0  0  0  0  0
   56.4690   30.3230   44.0210 C   0  0  0  0  0  0  0  0  0  0  0  0
   56.2012   29.7559   41.9445 H   0  0  0  0  0  0  0  0  0  0  0  0
   57.5425   31.6842   41.0933 H   0  0  0  0  0  0  0  0  0  0  0  0
   58.5417   33.3154   42.7008 H   0  0  0  0  0  0  0  0  0  0  0  0
   59.3669   34.5346   44.0938 H   0  0  0  0  0  0  0  0  0  0  0  0
   60.2661   36.0288   45.8796 H   0  0  0  0  0  0  0  0  0  0  0  0
   59.7331   35.5550   48.2723 H   0  0  0  0  0  0  0  0  0  0  0  0
   57.4345   32.1485   47.1567 H   0  0  0  0  0  0  0  0  0  0  0  0
   55.8821   29.4776   44.4094 H   0  0  0  0  0  0  0  0  0  0  0  0
  1  2  2  0
  2  3  1  0
  3  4  2  0
  4  5  1  0
  5  6  2  0
  6  7  1  0
  7  8  2  0
  8  9  1  0
  9 10  2  0
  4 11  1  0
 11 12  2  0
 12  1  1  0
 10  5  1  0
  1 13  1  0
  2 14  1  0
  3 15  1  0
  6 16  1  0
  7 17  1  0
  8 18  1  0
 10 19  1  0
 12 20  1  0
M  END
>  <UniqueID>  (9) 
8

>  <SMILES>  (9) 
c1ccc(-c2cccnc2)nc1

>  <Energy>  (9) 
27.052734586633697

>  <Genealogy>  (9) 
c1ccc(-c2cccnc2)nc1 (3D coordinates assigned)
c1ccc(-c2cccnc2)nc1 (optimized conformer: 27.052734586633697 kcal/mol)

>  <smiles>  (9) 
c1ccc(-c2cccnc2)nc1

>  <score_type>  (9) 
oracle

>  <origin>  (9) 
adg

>  <m_score__min__energy>  (9) 
-5.7699999999999996

>  <m_primary>  (9) 
energy

$$$$
9:0
     RDKit          3D

 38 40  0  0  0  0  0  0  0  0999 V2000
   57.8120   27.7830   43.6210 C   0  0  0  0  0  0  0  0  0  0  0  0
   57.8650   29.1890   44.1430 C   0  0  0  0  0  0  0  0  0  0  0  0
   57.3060   30.2400   43.4010 C   0  0  0  0  0  0  0  0  0  0  0  0
   57.3870   31.5560   43.8700 C   0  0  0  0  0  0  0  0  0  0  0  0
   58.0440   31.8340   45.0760 C   0  0  0  0  0  0  0  0  0  0  0  0
   58.1220   33.4840   45.6790 S   0  0  0  0  0  0  0  0  0  0  0  0
   58.3190   34.4390   44.5350 O   0  0  0  0  0  0  0  0  0  0  0  0
   56.8340   33.8420   46.3670 O   0  0  0  0  0  0  0  0  0  0  0  0
   59.4600   33.6170   46.8120 C   0  0  0  0  0  0  0  0  0  0  0  0
   59.2710   34.2230   48.0600 C   0  0  0  0  0  0  0  0  0  0  0  0
   60.3380   34.3410   48.9530 C   0  0  0  0  0  0  0  0  0  0  0  0
   61.6070   33.8540   48.6120 C   0  0  0  0  0  0  0  0  0  0  0  0
   61.8120   33.2750   47.3410 C   0  0  0  0  0  0  0  0  0  0  0  0
   60.7310   33.1460   46.4560 C   0  0  0  0  0  0  0  0  0  0  0  0
   63.1570   32.7010   46.9610 C   0  0  0  0  0  0  0  0  0  0  0  0
   64.2490   33.2760   47.7610 N   0  0  0  0  0  0  0  0  0  0  0  0
   63.9600   33.1750   49.1990 C   0  0  0  0  0  0  0  0  0  0  0  0
   62.7550   34.0450   49.5710 C   0  0  0  0  0  0  0  0  0  0  0  0
   58.6090   30.7870   45.8150 C   0  0  0  0  0  0  0  0  0  0  0  0
   58.5290   29.4710   45.3470 C   0  0  0  0  0  0  0  0  0  0  0  0
   57.7855   27.0790   44.4658 H   0  0  0  0  0  0  0  0  0  0  0  0
   56.9083   27.6535   43.0073 H   0  0  0  0  0  0  0  0  0  0  0  0
   58.7034   27.5859   43.0073 H   0  0  0  0  0  0  0  0  0  0  0  0
   56.8018   30.0289   42.4464 H   0  0  0  0  0  0  0  0  0  0  0  0
   56.9339   32.3740   43.2906 H   0  0  0  0  0  0  0  0  0  0  0  0
   58.2786   34.6075   48.3380 H   0  0  0  0  0  0  0  0  0  0  0  0
   60.1813   34.8196   49.9310 H   0  0  0  0  0  0  0  0  0  0  0  0
   60.8822   32.6715   45.4752 H   0  0  0  0  0  0  0  0  0  0  0  0
   63.1360   31.6127   47.1196 H   0  0  0  0  0  0  0  0  0  0  0  0
   63.3444   32.9465   45.9053 H   0  0  0  0  0  0  0  0  0  0  0  0
   65.1300   32.7480   47.5560 H   0  0  0  0  0  0  0  0  0  0  0  0
   64.3960   34.2780   47.4950 H   0  0  0  0  0  0  0  0  0  0  0  0
   63.7402   32.1269   49.4505 H   0  0  0  0  0  0  0  0  0  0  0  0
   64.8374   33.5263   49.7618 H   0  0  0  0  0  0  0  0  0  0  0  0
   62.4210   33.7758   50.5839 H   0  0  0  0  0  0  0  0  0  0  0  0
   63.0673   35.0987   49.5238 H   0  0  0  0  0  0  0  0  0  0  0  0
   59.1175   31.0002   46.7668 H   0  0  0  0  0  0  0  0  0  0  0  0
   58.9879   28.6548   45.9244 H   0  0  0  0  0  0  0  0  0  0  0  0
  1  2  1  0
  2  3  2  0
  3  4  1  0
  4  5  2  0
  5  6  1  0
  6  7  2  0
  6  8  2  0
  6  9  1  0
  9 10  2  0
 10 11  1  0
 11 12  2  0
 12 13  1  0
 13 14  2  0
 13 15  1  0
 15 16  1  0
 16 17  1  0
 17 18  1  0
  5 19  1  0
 19 20  2  0
 20  2  1  0
 14  9  1  0
 18 12  1  0
  1 21  1  0
  1 22  1  0
  1 23  1  0
  3 24  1  0
  4 25  1  0
 10 26  1  0
 11 27  1  0
 14 28  1  0
 15 29  1  0
 15 30  1  0
 16 31  1  0
 16 32  1  0
 17 33  1  0
 17 34  1  0
 18 35  1  0
 18 36  1  0
 19 37  1  0
 20 38  1  0
M  CHG  1  16   1
M  END
>  <UniqueID>  (10) 
9

>  <SMILES>  (10) 
Cc1ccc(S(=O)(=O)c2ccc3c(c2)C[NH2+]CC3)cc1

>  <Energy>  (10) 
42.0483122375894

>  <Genealogy>  (10) 
Cc1ccc(S(=O)(=O)c2ccc3c(c2)C[NH2+]CC3)cc1 (protonated)
Cc1ccc(S(=O)(=O)c2ccc3c(c2)C[NH2+]CC3)cc1 (3D coordinates assigned)
Cc1ccc(S(=O)(=O)c2ccc3c(c2)C[NH2+]CC3)cc1 (nonaromatic ring conformer: 42.0483122375894 kcal/mol)

>  <smiles>  (10) 
Cc1ccc(S(=O)(=O)c2ccc3c(c2)CNCC3)cc1

>  <score_type>  (10) 
oracle

>  <origin>  (10) 
adg

>  <m_score__min__energy>  (10) 
-6.8899999999999997

>  <m_primary>  (10) 
energy

$$$$
10:0
     RDKit          3D

 59 62  0  0  0  0  0  0  0  0999 V2000
   58.8920   34.5970   47.4530 C   0  0  0  0  0  0  0  0  0  0  0  0
   60.3290   34.1770   47.5290 C   0  0  0  0  0  0  0  0  0  0  0  0
   61.0390   33.8470   46.3460 C   0  0  0  0  0  0  0  0  0  0  0  0
   62.3950   33.4800   46.4020 C   0  0  0  0  0  0  0  0  0  0  0  0
   63.0180   33.4690   47.6480 C   0  0  0  0  0  0  0  0  0  0  0  0
   64.2910   33.1340   47.9200 N   0  0  0  0  0  0  0  0  0  0  0  0
   64.4320   33.2590   49.2590 C   0  0  0  0  0  0  0  0  0  0  0  0
   63.2410   33.6880   49.8350 C   0  0  0  0  0  0  0  0  0  0  0  0
   62.9710   33.8800   51.2970 C   0  0  0  0  0  0  0  0  0  0  0  0
   62.4920   32.5710   51.9350 C   0  0  0  0  0  0  0  0  0  0  0  0
   60.9560   32.3730   51.9250 C   0  0  0  0  0  0  0  0  0  0  0  0
   60.3650   31.5440   50.8360 N   0  0  0  0  0  0  0  0  0  0  0  0
   61.3580   30.8840   49.9540 C   0  0  0  0  0  0  0  0  0  0  0  0
   60.7150   29.8350   49.0120 C   0  0  0  0  0  0  0  0  0  0  0  0
   59.2620   30.0310   48.8390 N   0  0  0  0  0  0  0  0  0  0  0  0
   58.9390   31.1670   47.9440 C   0  0  0  0  0  0  0  0  0  0  0  0
   59.5230   30.9020   46.5550 C   0  0  0  0  0  0  0  0  0  0  0  0
   58.4270   30.7410   45.5360 C   0  0  0  0  0  0  0  0  0  0  0  0
   58.3870   31.5650   44.3980 C   0  0  0  0  0  0  0  0  0  0  0  0
   57.3860   31.3920   43.4370 C   0  0  0  0  0  0  0  0  0  0  0  0
   56.4240   30.3900   43.6010 C   0  0  0  0  0  0  0  0  0  0  0  0
   56.4650   29.5580   44.7230 C   0  0  0  0  0  0  0  0  0  0  0  0
   55.5370   28.5810   44.8750 F   0  0  0  0  0  0  0  0  0  0  0  0
   57.4650   29.7280   45.6860 C   0  0  0  0  0  0  0  0  0  0  0  0
   58.5260   30.0250   50.1280 C   0  0  0  0  0  0  0  0  0  0  0  0
   59.3490   30.5850   51.3110 C   0  0  0  0  0  0  0  0  0  0  0  0
   62.3440   33.8060   48.7920 C   0  0  0  0  0  0  0  0  0  0  0  0
   60.9970   34.1690   48.7740 C   0  0  0  0  0  0  0  0  0  0  0  0
   58.4900   34.7145   48.4702 H   0  0  0  0  0  0  0  0  0  0  0  0
   58.8177   35.5544   46.9165 H   0  0  0  0  0  0  0  0  0  0  0  0
   58.3138   33.8303   46.9165 H   0  0  0  0  0  0  0  0  0  0  0  0
   60.5233   33.8786   45.3749 H   0  0  0  0  0  0  0  0  0  0  0  0
   62.9472   33.2098   45.4898 H   0  0  0  0  0  0  0  0  0  0  0  0
   65.0230   32.8290   47.2390 H   0  0  0  0  0  0  0  0  0  0  0  0
   65.3583   33.0507   49.8145 H   0  0  0  0  0  0  0  0  0  0  0  0
   63.8954   34.2076   51.7951 H   0  0  0  0  0  0  0  0  0  0  0  0
   62.1845   34.6400   51.4150 H   0  0  0  0  0  0  0  0  0  0  0  0
   62.9493   31.7345   51.3863 H   0  0  0  0  0  0  0  0  0  0  0  0
   62.7943   32.6105   52.9919 H   0  0  0  0  0  0  0  0  0  0  0  0
   60.6804   31.9028   52.8805 H   0  0  0  0  0  0  0  0  0  0  0  0
   60.5498   33.3810   51.7547 H   0  0  0  0  0  0  0  0  0  0  0  0
   59.8480   32.2390   50.2450 H   0  0  0  0  0  0  0  0  0  0  0  0
   61.8505   31.6530   49.3408 H   0  0  0  0  0  0  0  0  0  0  0  0
   62.0769   30.3566   50.5982 H   0  0  0  0  0  0  0  0  0  0  0  0
   61.1983   29.9056   48.0264 H   0  0  0  0  0  0  0  0  0  0  0  0
   60.8620   28.8460   49.4706 H   0  0  0  0  0  0  0  0  0  0  0  0
   57.8470   31.2755   47.8683 H   0  0  0  0  0  0  0  0  0  0  0  0
   59.3711   32.0918   48.3538 H   0  0  0  0  0  0  0  0  0  0  0  0
   60.1631   31.7484   46.2655 H   0  0  0  0  0  0  0  0  0  0  0  0
   60.1102   29.9725   46.5910 H   0  0  0  0  0  0  0  0  0  0  0  0
   59.1463   32.3493   44.2628 H   0  0  0  0  0  0  0  0  0  0  0  0
   57.3551   32.0442   42.5517 H   0  0  0  0  0  0  0  0  0  0  0  0
   55.6348   30.2568   42.8464 H   0  0  0  0  0  0  0  0  0  0  0  0
   57.4984   29.0662   46.5640 H   0  0  0  0  0  0  0  0  0  0  0  0
   57.6193   30.6372   50.0140 H   0  0  0  0  0  0  0  0  0  0  0  0
   58.2942   28.9757   50.3632 H   0  0  0  0  0  0  0  0  0  0  0  0
   58.6717   31.0950   52.0119 H   0  0  0  0  0  0  0  0  0  0  0  0
   59.8601   29.7493   51.8114 H   0  0  0  0  0  0  0  0  0  0  0  0
   60.4710   34.4408   49.7010 H   0  0  0  0  0  0  0  0  0  0  0  0
  1  2  1  0
  2  3  2  0
  3  4  1  0
  4  5  2  0
  5  6  1  0
  6  7  1  0
  7  8  2  0
  8  9  1  0
  9 10  1  0
 10 11  1  0
 11 12  1  0
 12 13  1  0
 13 14  1  0
 14 15  1  0
 15 16  1  0
 16 17  1  0
 17 18  1  0
 18 19  2  0
 19 20  1  0
 20 21  2  0
 21 22  1  0
 22 23  1  0
 22 24  2  0
 15 25  1  0
 25 26  1  0
  8 27  1  0
 27 28  2  0
 28  2  1  0
 27  5  1  0
 26 12  1  0
 24 18  1  0
  1 29  1  0
  1 30  1  0
  1 31  1  0
  3 32  1  0
  4 33  1  0
  6 34  1  0
  7 35  1  0
  9 36  1  0
  9 37  1  0
 10 38  1  0
 10 39  1  0
 11 40  1  0
 11 41  1  0
 12 42  1  0
 13 43  1  0
 13 44  1  0
 14 45  1  0
 14 46  1  0
 16 47  1  0
 16 48  1  0
 17 49  1  0
 17 50  1  0
 19 51  1  0
 20 52  1  0
 21 53  1  0
 24 54  1  0
 25 55  1  0
 25 56  1  0
 26 57  1  0
 26 58  1  0
 28 59  1  0
M  CHG  1  12   1
M  END
>  <UniqueID>  (11) 
10

>  <SMILES>  (11) 
Cc1ccc2[nH]cc(CCC[NH+]3CCN(CCc4cccc(F)c4)CC3)c2c1

>  <Energy>  (11) 
110.6687708894922

>  <Genealogy>  (11) 
Cc1ccc2[nH]cc(CCC[NH+]3CCN(CCc4cccc(F)c4)CC3)c2c1 (protonated)
Cc1ccc2[nH]cc(CCC[NH+]3CCN(CCc4cccc(F)c4)CC3)c2c1 (3D coordinates assigned)
Cc1ccc2[nH]cc(CCC[NH+]3CCN(CCc4cccc(F)c4)CC3)c2c1 (nonaromatic ring conformer: 110.6687708894922 kcal/mol)

>  <smiles>  (11) 
Cc1ccc2[nH]cc(CCCN3CCN(CCc4cccc(F)c4)CC3)c2c1

>  <score_type>  (11) 
oracle

>  <origin>  (11) 
adg

>  <m_score__min__energy>  (11) 
-7.1799999999999997

>  <m_primary>  (11) 
energy

$$$$
11:0
     RDKit          3D

 40 42  0  0  0  0  0  0  0  0999 V2000
   56.2680   29.6820   42.4790 C   0  0  0  0  0  0  0  0  0  0  0  0
   57.3950   29.9150   43.3740 N   0  0  0  0  0  0  0  0  0  0  0  0
   57.2490   30.6660   44.5900 C   0  0  0  0  0  0  0  0  0  0  0  0
   56.1450   31.2190   44.8490 O   0  0  0  0  0  0  0  0  0  0  0  0
   58.3800   30.7950   45.5420 C   0  0  0  0  0  0  0  0  0  0  0  0
   59.0350   29.6380   45.9990 C   0  0  0  0  0  0  0  0  0  0  0  0
   60.0910   29.7270   46.9050 C   0  0  0  0  0  0  0  0  0  0  0  0
   60.5150   30.9680   47.3760 C   0  0  0  0  0  0  0  0  0  0  0  0
   59.8810   32.1470   46.9400 C   0  0  0  0  0  0  0  0  0  0  0  0
   60.2870   33.4250   47.3920 C   0  0  0  0  0  0  0  0  0  0  0  0
   61.3990   33.6020   48.3580 C   0  0  0  0  0  0  0  0  0  0  0  0
   62.7360   33.6700   47.8980 C   0  0  0  0  0  0  0  0  0  0  0  0
   63.0600   33.5660   46.4300 C   0  0  0  0  0  0  0  0  0  0  0  0
   63.7780   33.8320   48.8250 C   0  0  0  0  0  0  0  0  0  0  0  0
   63.5030   33.9250   50.1890 C   0  0  0  0  0  0  0  0  0  0  0  0
   62.1890   33.8570   50.6470 C   0  0  0  0  0  0  0  0  0  0  0  0
   61.1260   33.6960   49.7440 C   0  0  0  0  0  0  0  0  0  0  0  0
   59.7150   33.6190   50.2670 C   0  0  0  0  0  0  0  0  0  0  0  0
   59.6280   34.5640   46.9160 C   0  0  0  0  0  0  0  0  0  0  0  0
   58.5840   34.4290   46.0050 C   0  0  0  0  0  0  0  0  0  0  0  0
   58.2030   33.1980   45.5810 N   0  0  0  0  0  0  0  0  0  0  0  0
   58.8060   32.0570   46.0180 C   0  0  0  0  0  0  0  0  0  0  0  0
   55.3611   29.4945   43.0726 H   0  0  0  0  0  0  0  0  0  0  0  0
   56.1145   30.5674   41.8446 H   0  0  0  0  0  0  0  0  0  0  0  0
   56.4781   28.8083   41.8446 H   0  0  0  0  0  0  0  0  0  0  0  0
   58.3340   29.5550   43.0920 H   0  0  0  0  0  0  0  0  0  0  0  0
   58.7106   28.6510   45.6376 H   0  0  0  0  0  0  0  0  0  0  0  0
   60.5929   28.8112   47.2504 H   0  0  0  0  0  0  0  0  0  0  0  0
   61.3485   31.0267   48.0914 H   0  0  0  0  0  0  0  0  0  0  0  0
   64.1008   33.2319   46.3070 H   0  0  0  0  0  0  0  0  0  0  0  0
   62.3834   32.8399   45.9557 H   0  0  0  0  0  0  0  0  0  0  0  0
   62.9323   34.5503   45.9557 H   0  0  0  0  0  0  0  0  0  0  0  0
   64.8187   33.8860   48.4728 H   0  0  0  0  0  0  0  0  0  0  0  0
   64.3271   34.0526   50.9064 H   0  0  0  0  0  0  0  0  0  0  0  0
   61.9826   33.9300   51.7250 H   0  0  0  0  0  0  0  0  0  0  0  0
   59.7311   33.6199   51.3669 H   0  0  0  0  0  0  0  0  0  0  0  0
   59.1430   34.4873   49.9080 H   0  0  0  0  0  0  0  0  0  0  0  0
   59.2409   32.6936   49.9080 H   0  0  0  0  0  0  0  0  0  0  0  0
   59.9339   35.5628   47.2606 H   0  0  0  0  0  0  0  0  0  0  0  0
   58.0664   35.3233   45.6278 H   0  0  0  0  0  0  0  0  0  0  0  0
  1  2  1  0
  2  3  1  0
  3  4  2  0
  3  5  1  0
  5  6  2  0
  6  7  1  0
  7  8  2  0
  8  9  1  0
  9 10  2  0
 10 11  1  0
 11 12  2  0
 12 13  1  0
 12 14  1  0
 14 15  2  0
 15 16  1  0
 16 17  2  0
 17 18  1  0
 10 19  1  0
 19 20  2  0
 20 21  1  0
 21 22  2  0
 22  5  1  0
 22  9  1  0
 17 11  1  0
  1 23  1  0
  1 24  1  0
  1 25  1  0
  2 26  1  0
  6 27  1  0
  7 28  1  0
  8 29  1  0
 13 30  1  0
 13 31  1  0
 13 32  1  0
 14 33  1  0
 15 34  1  0
 16 35  1  0
 18 36  1  0
 18 37  1  0
 18 38  1  0
 19 39  1  0
 20 40  1  0
M  END
>  <UniqueID>  (12) 
11

>  <SMILES>  (12) 
CNC(=O)c1cccc2c(-c3c(C)cccc3C)ccnc12

>  <Energy>  (12) 
56.11802379857193

>  <Genealogy>  (12) 
CNC(=O)c1cccc2c(-c3c(C)cccc3C)ccnc12 (3D coordinates assigned)
CNC(=O)c1cccc2c(-c3c(C)cccc3C)ccnc12 (optimized conformer: 56.11802379857193 kcal/mol)

>  <smiles>  (12) 
CNC(=O)c1cccc2c(-c3c(C)cccc3C)ccnc12

>  <score_type>  (12) 
oracle

>  <origin>  (12) 
adg

>  <m_score__min__energy>  (12) 
-8.3800000000000008

>  <m_primary>  (12) 
energy

$$$$
12:0
     RDKit          3D

 47 50  0  0  0  0  0  0  0  0999 V2000
   57.0080   24.3200   43.3820 C   0  0  0  0  0  0  0  0  0  0  0  0
   57.3660   24.7660   44.6860 O   0  0  0  0  0  0  0  0  0  0  0  0
   57.7600   26.0770   44.9940 C   0  0  0  0  0  0  0  0  0  0  0  0
   57.7940   26.5660   46.3140 C   0  0  0  0  0  0  0  0  0  0  0  0
   58.1950   27.8810   46.5680 C   0  0  0  0  0  0  0  0  0  0  0  0
   58.5610   28.7310   45.5100 C   0  0  0  0  0  0  0  0  0  0  0  0
   58.9990   30.1260   45.7730 C   0  0  0  0  0  0  0  0  0  0  0  0
   58.4610   31.1400   45.0470 N   0  0  0  0  0  0  0  0  0  0  0  0
   58.7830   32.4340   45.3000 C   0  0  0  0  0  0  0  0  0  0  0  0
   58.1510   33.4660   44.5910 C   0  0  0  0  0  0  0  0  0  0  0  0
   58.4120   34.7610   44.8890 N   0  0  0  0  0  0  0  0  0  0  0  0
   59.2790   35.1010   45.8750 C   0  0  0  0  0  0  0  0  0  0  0  0
   59.9440   34.1140   46.6030 C   0  0  0  0  0  0  0  0  0  0  0  0
   59.7420   32.7440   46.2970 C   0  0  0  0  0  0  0  0  0  0  0  0
   60.4030   31.7130   46.9480 N   0  0  0  0  0  0  0  0  0  0  0  0
   61.5570   31.9720   47.8610 C   0  0  0  0  0  0  0  0  0  0  0  0
   62.6940   32.6860   47.1020 C   0  0  0  0  0  0  0  0  0  0  0  0
   63.8440   33.0460   48.0520 C   0  0  0  0  0  0  0  0  0  0  0  0
   63.3930   33.8760   49.2750 C   0  0  0  0  0  0  0  0  0  0  0  0
   61.8690   34.0330   49.3930 C   0  0  0  0  0  0  0  0  0  0  0  0
   61.1470   32.6930   49.1860 C   0  0  0  0  0  0  0  0  0  0  0  0
   59.9540   30.4200   46.7640 C   0  0  0  0  0  0  0  0  0  0  0  0
   60.3780   29.4850   47.4980 O   0  0  0  0  0  0  0  0  0  0  0  0
   58.5340   28.2380   44.1970 C   0  0  0  0  0  0  0  0  0  0  0  0
   58.1330   26.9220   43.9430 C   0  0  0  0  0  0  0  0  0  0  0  0
   56.3213   23.4645   43.4628 H   0  0  0  0  0  0  0  0  0  0  0  0
   56.5127   25.1377   42.8379 H   0  0  0  0  0  0  0  0  0  0  0  0
   57.9135   24.0133   42.8379 H   0  0  0  0  0  0  0  0  0  0  0  0
   57.5039   25.9108   47.1486 H   0  0  0  0  0  0  0  0  0  0  0  0
   58.2243   28.2530   47.6028 H   0  0  0  0  0  0  0  0  0  0  0  0
   57.7650   30.9200   44.2980 H   0  0  0  0  0  0  0  0  0  0  0  0
   57.4394   33.2221   43.7884 H   0  0  0  0  0  0  0  0  0  0  0  0
   59.4591   36.1621   46.1022 H   0  0  0  0  0  0  0  0  0  0  0  0
   60.6270   34.3992   47.4167 H   0  0  0  0  0  0  0  0  0  0  0  0
   61.9432   30.9970   48.1929 H   0  0  0  0  0  0  0  0  0  0  0  0
   63.0737   32.0205   46.3127 H   0  0  0  0  0  0  0  0  0  0  0  0
   62.2963   33.6133   46.6639 H   0  0  0  0  0  0  0  0  0  0  0  0
   64.3026   32.1137   48.4133 H   0  0  0  0  0  0  0  0  0  0  0  0
   64.5533   33.6651   47.4832 H   0  0  0  0  0  0  0  0  0  0  0  0
   63.7616   33.3802   50.1851 H   0  0  0  0  0  0  0  0  0  0  0  0
   63.8091   34.8861   49.1464 H   0  0  0  0  0  0  0  0  0  0  0  0
   61.6259   34.4190   50.3939 H   0  0  0  0  0  0  0  0  0  0  0  0
   61.5325   34.7305   48.6118 H   0  0  0  0  0  0  0  0  0  0  0  0
   61.3864   32.0323   50.0323 H   0  0  0  0  0  0  0  0  0  0  0  0
   60.0701   32.9079   49.1220 H   0  0  0  0  0  0  0  0  0  0  0  0
   58.8299   28.8901   43.3620 H   0  0  0  0  0  0  0  0  0  0  0  0
   58.1108   26.5485   42.9086 H   0  0  0  0  0  0  0  0  0  0  0  0
  1  2  1  0
  2  3  1  0
  3  4  2  0
  4  5  1  0
  5  6  2  0
  6  7  1  0
  7  8  2  0
  8  9  1  0
  9 10  2  0
 10 11  1  0
 11 12  2  0
 12 13  1  0
 13 14  2  0
 14 15  1  0
 15 16  1  0
 16 17  1  0
 17 18  1  0
 18 19  1  0
 19 20  1  0
 20 21  1  0
 15 22  1  0
 22 23  2  0
  6 24  1  0
 24 25  2  0
 25  3  1  0
 22  7  1  0
 14  9  1  0
 21 16  1  0
  1 26  1  0
  1 27  1  0
  1 28  1  0
  4 29  1  0
  5 30  1  0
  8 31  1  0
 10 32  1  0
 12 33  1  0
 13 34  1  0
 16 35  1  0
 17 36  1  0
 17 37  1  0
 18 38  1  0
 18 39  1  0
 19 40  1  0
 19 41  1  0
 20 42  1  0
 20 43  1  0
 21 44  1  0
 21 45  1  0
 24 46  1  0
 25 47  1  0
M  CHG  1   8   1
M  END
>  <UniqueID>  (13) 
12

>  <SMILES>  (13) 
COc1ccc(-c2[nH+]c3cnccc3n(C3CCCCC3)c2=O)cc1

>  <Energy>  (13) 
77.40509544815573

>  <Genealogy>  (13) 
COc1ccc(-c2[nH+]c3cnccc3n(C3CCCCC3)c2=O)cc1 (protonated)
COc1ccc(-c2[nH+]c3cnccc3n(C3CCCCC3)c2=O)cc1 (3D coordinates assigned)
COc1ccc(-c2[nH+]c3cnccc3n(C3CCCCC3)c2=O)cc1 (nonaromatic ring conformer: 77.40509544815573 kcal/mol)

>  <smiles>  (13) 
COc1ccc(-c2nc3cnccc3n(C3CCCCC3)c2=O)cc1

>  <score_type>  (13) 
oracle

>  <origin>  (13) 
adg

>  <m_score__min__energy>  (13) 
-5.8700000000000001

>  <m_primary>  (13) 
energy

$$$$
13:0
     RDKit          3D

 55 57  0  0  0  0  0  0  0  0999 V2000
   57.9518   32.3778   48.5527 H   0  0  0  0  0  0  0  0  0  0  0  0
   58.8310   32.1010   49.1530 C   0  0  0  0  0  0  0  0  0  0  0  0
   58.9480   30.7200   49.6500 C   0  0  0  0  0  0  0  0  0  0  0  0
   57.9580   30.1380   50.1740 O   0  0  0  0  0  0  0  0  0  0  0  0
   60.2060   30.0460   49.5500 N   0  0  0  0  0  0  0  0  0  0  0  0
   60.3610   28.6960   49.0170 C   0  0  0  0  0  0  0  0  0  0  0  0
   61.2645   28.2419   49.4500 H   0  0  0  0  0  0  0  0  0  0  0  0
   59.4660   28.1143   49.2825 H   0  0  0  0  0  0  0  0  0  0  0  0
   60.4930   28.7090   47.4810 C   0  0  1  0  0  0  0  0  0  0  0  0
   61.1037   27.8260   47.2414 H   0  0  0  0  0  0  0  0  0  0  0  0
   59.1600   28.6890   46.8140 C   0  0  0  0  0  0  0  0  0  0  0  0
   58.2580   27.6250   46.7660 C   0  0  0  0  0  0  0  0  0  0  0  0
   58.4979   26.6691   47.2546 H   0  0  0  0  0  0  0  0  0  0  0  0
   57.0330   27.7910   46.0820 C   0  0  0  0  0  0  0  0  0  0  0  0
   56.0800   26.7620   46.0060 O   0  0  0  0  0  0  0  0  0  0  0  0
   56.3890   25.4030   45.7170 C   0  0  0  0  0  0  0  0  0  0  0  0
   56.5153   24.8476   46.6580 H   0  0  0  0  0  0  0  0  0  0  0  0
   55.5695   24.9564   45.1348 H   0  0  0  0  0  0  0  0  0  0  0  0
   57.3210   25.3547   45.1348 H   0  0  0  0  0  0  0  0  0  0  0  0
   56.7430   29.0200   45.4510 C   0  0  0  0  0  0  0  0  0  0  0  0
   55.5150   29.1540   44.7850 O   0  0  0  0  0  0  0  0  0  0  0  0
   55.3590   29.7340   43.4950 C   0  0  0  0  0  0  0  0  0  0  0  0
   55.0746   30.7914   43.6003 H   0  0  0  0  0  0  0  0  0  0  0  0
   56.3082   29.6628   42.9437 H   0  0  0  0  0  0  0  0  0  0  0  0
   54.5736   29.1962   42.9437 H   0  0  0  0  0  0  0  0  0  0  0  0
   57.6840   30.0710   45.5030 C   0  0  0  0  0  0  0  0  0  0  0  0
   57.4724   31.0330   45.0133 H   0  0  0  0  0  0  0  0  0  0  0  0
   58.8850   29.8740   46.1830 C   0  0  0  0  0  0  0  0  0  0  0  0
   59.9900   30.8500   46.3210 C   0  0  0  0  0  0  0  0  0  0  0  0
   59.6900   31.6944   46.9590 H   0  0  0  0  0  0  0  0  0  0  0  0
   60.2913   31.2913   45.3595 H   0  0  0  0  0  0  0  0  0  0  0  0
   61.1160   30.0360   46.9820 C   0  0  0  0  0  0  0  0  0  0  0  0
   61.5377   30.5961   47.8297 H   0  0  0  0  0  0  0  0  0  0  0  0
   61.9272   29.8401   46.2654 H   0  0  0  0  0  0  0  0  0  0  0  0
   59.7600   33.0310   49.4080 C   0  0  0  0  0  0  0  0  0  0  0  0
   59.5639   33.7614   50.2068 H   0  0  0  0  0  0  0  0  0  0  0  0
   61.0400   33.1240   48.6660 C   0  0  0  0  0  0  0  0  0  0  0  0
   62.2220   32.8070   49.3560 C   0  0  0  0  0  0  0  0  0  0  0  0
   62.1687   32.5029   50.4118 H   0  0  0  0  0  0  0  0  0  0  0  0
   63.4720   32.8730   48.7160 C   0  0  0  0  0  0  0  0  0  0  0  0
   64.6720   32.5540   49.3690 O   0  0  0  0  0  0  0  0  0  0  0  0
   64.7550   31.8270   50.5910 C   0  0  0  0  0  0  0  0  0  0  0  0
   64.6754   32.5239   51.4384 H   0  0  0  0  0  0  0  0  0  0  0  0
   63.9345   31.0960   50.6392 H   0  0  0  0  0  0  0  0  0  0  0  0
   65.7192   31.2997   50.6392 H   0  0  0  0  0  0  0  0  0  0  0  0
   63.5320   33.2690   47.3780 C   0  0  0  0  0  0  0  0  0  0  0  0
   64.5040   33.3084   46.8644 H   0  0  0  0  0  0  0  0  0  0  0  0
   62.3710   33.6150   46.6870 C   0  0  0  0  0  0  0  0  0  0  0  0
   62.4367   33.9323   45.6358 H   0  0  0  0  0  0  0  0  0  0  0  0
   61.1140   33.5620   47.3230 C   0  0  0  0  0  0  0  0  0  0  0  0
   59.9430   33.9650   46.6590 O   0  0  0  0  0  0  0  0  0  0  0  0
   59.6030   35.3180   46.3700 C   0  0  0  0  0  0  0  0  0  0  0  0
   59.4642   35.8702   47.3111 H   0  0  0  0  0  0  0  0  0  0  0  0
   60.4122   35.7831   45.7879 H   0  0  0  0  0  0  0  0  0  0  0  0
   58.6701   35.3453   45.7879 H   0  0  0  0  0  0  0  0  0  0  0  0
  1  2  1  0
  2  3  1  0
  3  4  2  0
  3  5  1  0
  5  6  1  0
  6  7  1  0
  6  8  1  0
  6  9  1  0
  9 10  1  6
  9 11  1  0
 11 12  2  0
 12 13  1  0
 12 14  1  0
 14 15  1  0
 15 16  1  0
 16 17  1  0
 16 18  1  0
 16 19  1  0
 14 20  2  0
 20 21  1  0
 21 22  1  0
 22 23  1  0
 22 24  1  0
 22 25  1  0
 20 26  1  0
 26 27  1  0
 26 28  2  0
 28 29  1  0
 29 30  1  0
 29 31  1  0
 29 32  1  0
 32 33  1  0
 32 34  1  0
  2 35  2  0
 35 36  1  0
 35 37  1  0
 37 38  2  0
 38 39  1  0
 38 40  1  0
 40 41  1  0
 41 42  1  0
 42 43  1  0
 42 44  1  0
 42 45  1  0
 40 46  2  0
 46 47  1  0
 46 48  1  0
 48 49  1  0
 48 50  2  0
 50 51  1  0
 51 52  1  0
 52 53  1  0
 52 54  1  0
 52 55  1  0
 32  9  1  0
 50 37  1  0
 28 11  1  0
M  CHG  1   5  -1
M  END
>  <UniqueID>  (14) 
13

>  <SMILES>  (14) 
COc1ccc(OC)c(/C=C/C(=O)[N-]C[C@@H]2CCc3cc(OC)c(OC)cc32)c1

>  <Energy>  (14) 
61.14702560607069

>  <Genealogy>  (14) 
COc1ccc(OC)c(C=CC(=O)[N-]CC2CCc3cc(OC)c(OC)cc32)c1 (protonated)
COc1ccc(OC)c(C=CC(=O)[N-]C[C@@H]2CCc3cc(OC)c(OC)cc32)c1 (chirality)
COc1ccc(OC)c(/C=C/C(=O)[N-]C[C@@H]2CCc3cc(OC)c(OC)cc32)c1 (cis-trans isomerization)
COc1ccc(OC)c(/C=C/C(=O)[N-]C[C@@H]2CCc3cc(OC)c(OC)cc32)c1 (3D coordinates assigned)
COc1ccc(OC)c(/C=C/C(=O)[N-]C[C@@H]2CCc3cc(OC)c(OC)cc32)c1 (nonaromatic ring conformer: 61.14702560607069 kcal/mol)

>  <smiles>  (14) 
COc1ccc(OC)c(C=CC(=O)NCC2CCc3cc(OC)c(OC)cc32)c1

>  <score_type>  (14) 
oracle

>  <origin>  (14) 
adg

>  <m_score__min__energy>  (14) 
-9.6699999999999999

>  <m_primary>  (14) 
energy

$$$$
14:0
     RDKit          3D

 52 51  0  0  0  0  0  0  0  0999 V2000
   63.4060   33.8200   47.0790 C   0  0  0  0  0  0  0  0  0  0  0  0
   63.3990   32.2910   47.1060 C   0  0  0  0  0  0  0  0  0  0  0  0
   62.3930   31.7200   48.1180 C   0  0  0  0  0  0  0  0  0  0  0  0
   61.4670   30.6650   47.4950 C   0  0  0  0  0  0  0  0  0  0  0  0
   60.2480   31.3230   46.8320 C   0  0  0  0  0  0  0  0  0  0  0  0
   58.9400   31.0790   47.6150 C   0  0  0  0  0  0  0  0  0  0  0  0
   58.4150   32.3230   48.3570 C   0  0  0  0  0  0  0  0  0  0  0  0
   59.4720   33.4030   48.6600 C   0  0  0  0  0  0  0  0  0  0  0  0
   59.3740   34.6830   47.8020 C   0  0  0  0  0  0  0  0  0  0  0  0
   60.2560   34.6840   46.5380 C   0  0  0  0  0  0  0  0  0  0  0  0
   59.4550   34.6060   45.2180 C   0  0  0  0  0  0  0  0  0  0  0  0
   57.9770   34.2170   45.4170 C   0  0  0  0  0  0  0  0  0  0  0  0
   57.4060   33.2990   44.3230 C   0  0  0  0  0  0  0  0  0  0  0  0
   57.8570   31.8440   44.4710 C   0  0  0  0  0  0  0  0  0  0  0  0
   56.7790   31.0670   44.9810 O   0  0  0  0  0  0  0  0  0  0  0  0
   56.6280   29.7080   44.6930 C   0  0  0  0  0  0  0  0  0  0  0  0
   55.5250   29.1260   44.8820 O   0  0  0  0  0  0  0  0  0  0  0  0
   57.8030   28.9250   44.2020 C   0  0  0  0  0  0  0  0  0  0  0  0
   57.4200   27.5360   43.9850 N   0  0  0  0  0  0  0  0  0  0  0  0
   63.4078   34.2049   48.1095 H   0  0  0  0  0  0  0  0  0  0  0  0
   64.3058   34.1733   46.5541 H   0  0  0  0  0  0  0  0  0  0  0  0
   62.5095   34.1816   46.5541 H   0  0  0  0  0  0  0  0  0  0  0  0
   63.1369   31.9226   46.1032 H   0  0  0  0  0  0  0  0  0  0  0  0
   64.4023   31.9596   47.4119 H   0  0  0  0  0  0  0  0  0  0  0  0
   62.9498   31.2562   48.9456 H   0  0  0  0  0  0  0  0  0  0  0  0
   61.7641   32.5512   48.4695 H   0  0  0  0  0  0  0  0  0  0  0  0
   62.0268   30.0985   46.7362 H   0  0  0  0  0  0  0  0  0  0  0  0
   61.1125   29.9958   48.2928 H   0  0  0  0  0  0  0  0  0  0  0  0
   60.4238   32.4071   46.7695 H   0  0  0  0  0  0  0  0  0  0  0  0
   60.1279   30.8723   45.8358 H   0  0  0  0  0  0  0  0  0  0  0  0
   58.1679   30.7478   46.9049 H   0  0  0  0  0  0  0  0  0  0  0  0
   59.1629   30.3212   48.3805 H   0  0  0  0  0  0  0  0  0  0  0  0
   57.6286   32.7808   47.7390 H   0  0  0  0  0  0  0  0  0  0  0  0
   58.0556   31.9661   49.3335 H   0  0  0  0  0  0  0  0  0  0  0  0
   59.3680   33.6932   49.7159 H   0  0  0  0  0  0  0  0  0  0  0  0
   60.4456   32.9506   48.4204 H   0  0  0  0  0  0  0  0  0  0  0  0
   58.3268   34.8052   47.4884 H   0  0  0  0  0  0  0  0  0  0  0  0
   59.7375   35.5071   48.4334 H   0  0  0  0  0  0  0  0  0  0  0  0
   60.8489   35.6105   46.5296 H   0  0  0  0  0  0  0  0  0  0  0  0
   60.8843   33.7823   46.5851 H   0  0  0  0  0  0  0  0  0  0  0  0
   59.4930   35.5907   44.7292 H   0  0  0  0  0  0  0  0  0  0  0  0
   59.9171   33.8177   44.6056 H   0  0  0  0  0  0  0  0  0  0  0  0
   57.8853   33.6986   46.3828 H   0  0  0  0  0  0  0  0  0  0  0  0
   57.3990   35.1519   45.3739 H   0  0  0  0  0  0  0  0  0  0  0  0
   56.3077   33.3330   44.3743 H   0  0  0  0  0  0  0  0  0  0  0  0
   57.7822   33.6644   43.3561 H   0  0  0  0  0  0  0  0  0  0  0  0
   58.1605   31.4517   43.4892 H   0  0  0  0  0  0  0  0  0  0  0  0
   58.7096   31.7911   45.1641 H   0  0  0  0  0  0  0  0  0  0  0  0
   58.1588   29.3571   43.2551 H   0  0  0  0  0  0  0  0  0  0  0  0
   58.6042   28.9655   44.9546 H   0  0  0  0  0  0  0  0  0  0  0  0
   57.0040   27.4550   43.0270 H   0  0  0  0  0  0  0  0  0  0  0  0
   56.6550   27.3080   44.6610 H   0  0  0  0  0  0  0  0  0  0  0  0
  1  2  1  0
  2  3  1  0
  3  4  1  0
  4  5  1  0
  5  6  1  0
  6  7  1  0
  7  8  1  0
  8  9  1  0
  9 10  1  0
 10 11  1  0
 11 12  1  0
 12 13  1  0
 13 14  1  0
 14 15  1  0
 15 16  1  0
 16 17  2  0
 16 18  1  0
 18 19  1  0
  1 20  1  0
  1 21  1  0
  1 22  1  0
  2 23  1  0
  2 24  1  0
  3 25  1  0
  3 26  1  0
  4 27  1  0
  4 28  1  0
  5 29  1  0
  5 30  1  0
  6 31  1  0
  6 32  1  0
  7 33  1  0
  7 34  1  0
  8 35  1  0
  8 36  1  0
  9 37  1  0
  9 38  1  0
 10 39  1  0
 10 40  1  0
 11 41  1  0
 11 42  1  0
 12 43  1  0
 12 44  1  0
 13 45  1  0
 13 46  1  0
 14 47  1  0
 14 48  1  0
 18 49  1  0
 18 50  1  0
 19 51  1  0
 19 52  1  0
M  END
>  <UniqueID>  (15) 
14

>  <SMILES>  (15) 
CCCCCCCCCCCCCCOC(=O)CN

>  <Energy>  (15) 
26.117828229621185

>  <Genealogy>  (15) 
CCCCCCCCCCCCCCOC(=O)CN (3D coordinates assigned)
CCCCCCCCCCCCCCOC(=O)CN (optimized conformer: 26.117828229621185 kcal/mol)

>  <smiles>  (15) 
CCCCCCCCCCCCCCOC(=O)CN

>  <score_type>  (15) 
oracle

>  <origin>  (15) 
adg

>  <m_score__min__energy>  (15) 
-6.5099999999999998

>  <m_primary>  (15) 
energy

$$$$
15:0
     RDKit          3D

 47 48  0  0  0  0  0  0  0  0999 V2000
   60.8370   26.4250   46.3940 C   0  0  0  0  0  0  0  0  0  0  0  0
   60.2790   27.7620   46.6690 N   0  0  0  0  0  0  0  0  0  0  0  0
   58.8150   27.6690   46.8980 C   0  0  0  0  0  0  0  0  0  0  0  0
   58.1060   28.9830   46.5490 C   0  0  0  0  0  0  0  0  0  0  0  0
   58.2530   29.2970   45.1120 N   0  0  0  0  0  0  0  0  0  0  0  0
   57.9390   30.9930   44.8100 S   0  0  0  0  0  0  0  0  0  0  0  0
   58.4310   31.3440   43.4320 O   0  0  0  0  0  0  0  0  0  0  0  0
   56.4530   31.2320   44.8300 O   0  0  0  0  0  0  0  0  0  0  0  0
   58.6970   32.0350   46.0340 C   0  0  0  0  0  0  0  0  0  0  0  0
   59.6820   31.4670   46.8590 C   0  0  0  0  0  0  0  0  0  0  0  0
   60.3840   32.2480   47.7910 C   0  0  0  0  0  0  0  0  0  0  0  0
   61.4570   31.6710   48.5650 N   0  0  0  0  0  0  0  0  0  0  0  0
   61.1990   30.5360   49.4700 C   0  0  0  0  0  0  0  0  0  0  0  0
   60.1180   30.8640   50.5070 C   0  0  0  0  0  0  0  0  0  0  0  0
   58.5650   30.0900   50.0980 Cl  0  0  0  0  0  0  0  0  0  0  0  0
   62.7900   32.2930   48.5360 C   0  0  0  0  0  0  0  0  0  0  0  0
   63.4000   32.2380   47.1370 C   0  0  0  0  0  0  0  0  0  0  0  0
   63.3760   33.8600   46.3960 Cl  0  0  0  0  0  0  0  0  0  0  0  0
   60.0580   33.6020   47.9310 C   0  0  0  0  0  0  0  0  0  0  0  0
   59.0580   34.1710   47.1430 C   0  0  0  0  0  0  0  0  0  0  0  0
   58.3760   33.4040   46.1930 C   0  0  0  0  0  0  0  0  0  0  0  0
   57.1320   34.2190   45.2490 Cl  0  0  0  0  0  0  0  0  0  0  0  0
   59.5450   28.8610   44.5340 C   0  0  0  0  0  0  0  0  0  0  0  0
   60.6490   28.7260   45.5970 C   0  0  0  0  0  0  0  0  0  0  0  0
   61.0502   25.9141   47.3445 H   0  0  0  0  0  0  0  0  0  0  0  0
   60.1096   25.8359   45.8162 H   0  0  0  0  0  0  0  0  0  0  0  0
   61.7674   26.5277   45.8162 H   0  0  0  0  0  0  0  0  0  0  0  0
   60.7220   28.0980   47.5580 H   0  0  0  0  0  0  0  0  0  0  0  0
   58.4055   26.8643   46.2697 H   0  0  0  0  0  0  0  0  0  0  0  0
   58.6456   27.4586   47.9643 H   0  0  0  0  0  0  0  0  0  0  0  0
   57.0367   28.8900   46.7896 H   0  0  0  0  0  0  0  0  0  0  0  0
   58.5628   29.7947   47.1343 H   0  0  0  0  0  0  0  0  0  0  0  0
   59.9068   30.3936   46.7735 H   0  0  0  0  0  0  0  0  0  0  0  0
   60.8685   29.6733   48.8728 H   0  0  0  0  0  0  0  0  0  0  0  0
   62.1312   30.3121   50.0093 H   0  0  0  0  0  0  0  0  0  0  0  0
   60.4477   30.5049   51.4931 H   0  0  0  0  0  0  0  0  0  0  0  0
   59.9686   31.9538   50.5174 H   0  0  0  0  0  0  0  0  0  0  0  0
   62.7012   33.3445   48.8467 H   0  0  0  0  0  0  0  0  0  0  0  0
   63.4463   31.7375   49.2220 H   0  0  0  0  0  0  0  0  0  0  0  0
   64.4394   31.8848   47.2066 H   0  0  0  0  0  0  0  0  0  0  0  0
   62.8121   31.5480   46.5139 H   0  0  0  0  0  0  0  0  0  0  0  0
   60.5934   34.2205   48.6664 H   0  0  0  0  0  0  0  0  0  0  0  0
   58.8031   35.2335   47.2699 H   0  0  0  0  0  0  0  0  0  0  0  0
   59.4025   27.8849   44.0472 H   0  0  0  0  0  0  0  0  0  0  0  0
   59.8656   29.6284   43.8140 H   0  0  0  0  0  0  0  0  0  0  0  0
   61.5708   28.3769   45.1087 H   0  0  0  0  0  0  0  0  0  0  0  0
   60.7930   29.7120   46.0630 H   0  0  0  0  0  0  0  0  0  0  0  0
  1  2  1  0
  2  3  1  0
  3  4  1  0
  4  5  1  0
  5  6  1  0
  6  7  2  0
  6  8  2  0
  6  9  1  0
  9 10  2  0
 10 11  1  0
 11 12  1  0
 12 13  1  0
 13 14  1  0
 14 15  1  0
 12 16  1  0
 16 17  1  0
 17 18  1  0
 11 19  2  0
 19 20  1  0
 20 21  2  0
 21 22  1  0
  5 23  1  0
 23 24  1  0
 24  2  1  0
 21  9  1  0
  1 25  1  0
  1 26  1  0
  1 27  1  0
  2 28  1  0
  3 29  1  0
  3 30  1  0
  4 31  1  0
  4 32  1  0
 10 33  1  0
 13 34  1  0
 13 35  1  0
 14 36  1  0
 14 37  1  0
 16 38  1  0
 16 39  1  0
 17 40  1  0
 17 41  1  0
 19 42  1  0
 20 43  1  0
 23 44  1  0
 23 45  1  0
 24 46  1  0
 24 47  1  0
M  CHG  1   2   1
M  END
>  <UniqueID>  (16) 
15

>  <SMILES>  (16) 
C[NH+]1CCN(S(=O)(=O)c2cc(N(CCCl)CCCl)ccc2Cl)CC1

>  <Energy>  (16) 
55.388925564286914

>  <Genealogy>  (16) 
C[NH+]1CCN(S(=O)(=O)c2cc(N(CCCl)CCCl)ccc2Cl)CC1 (protonated)
C[NH+]1CCN(S(=O)(=O)c2cc(N(CCCl)CCCl)ccc2Cl)CC1 (3D coordinates assigned)
C[NH+]1CCN(S(=O)(=O)c2cc(N(CCCl)CCCl)ccc2Cl)CC1 (nonaromatic ring conformer: 55.388925564286914 kcal/mol)

>  <smiles>  (16) 
CN1CCN(S(=O)(=O)c2cc(N(CCCl)CCCl)ccc2Cl)CC1

>  <score_type>  (16) 
oracle

>  <origin>  (16) 
adg

>  <m_score__min__energy>  (16) 
-6.3499999999999996

>  <m_primary>  (16) 
energy

$$$$
16:0
     RDKit          3D

 38 41  0  0  0  0  0  0  0  0999 V2000
   57.5362   26.9925   45.9302 H   0  0  0  0  0  0  0  0  0  0  0  0
   57.5220   28.0920   45.9600 C   0  0  0  0  0  0  0  0  0  0  0  0
   58.1520   28.6910   46.9810 C   0  0  0  0  0  0  0  0  0  0  0  0
   58.3615   28.0855   47.8751 H   0  0  0  0  0  0  0  0  0  0  0  0
   58.5860   30.1040   46.9950 C   0  0  0  0  0  0  0  0  0  0  0  0
   58.0780   30.9640   46.0730 N   0  0  0  0  0  0  0  0  0  0  0  0
   58.4610   32.2630   46.0260 C   0  0  0  0  0  0  0  0  0  0  0  0
   57.8980   33.1250   45.0770 C   0  0  0  0  0  0  0  0  0  0  0  0
   57.1417   32.7492   44.3722 H   0  0  0  0  0  0  0  0  0  0  0  0
   58.2980   34.4640   45.0260 C   0  0  0  0  0  0  0  0  0  0  0  0
   57.8535   35.1413   44.2819 H   0  0  0  0  0  0  0  0  0  0  0  0
   59.2610   34.9440   45.9180 C   0  0  0  0  0  0  0  0  0  0  0  0
   59.5730   35.9979   45.8735 H   0  0  0  0  0  0  0  0  0  0  0  0
   59.8290   34.0880   46.8670 C   0  0  0  0  0  0  0  0  0  0  0  0
   60.5877   34.4691   47.5664 H   0  0  0  0  0  0  0  0  0  0  0  0
   59.4310   32.7400   46.9280 C   0  0  0  0  0  0  0  0  0  0  0  0
   59.9690   31.8360   47.8590 C   0  0  0  0  0  0  0  0  0  0  0  0
   60.8660   32.2150   48.6630 O   0  0  0  0  0  0  0  0  0  0  0  0
   59.5240   30.5400   47.8940 N   0  0  0  0  0  0  0  0  0  0  0  0
   60.0680   29.6310   48.8230 N   0  0  0  0  0  0  0  0  0  0  0  0
   59.5730   29.3910   50.0040 C   0  0  0  0  0  0  0  0  0  0  0  0
   59.9003   28.4767   50.5206 H   0  0  0  0  0  0  0  0  0  0  0  0
   58.6020   30.2630   50.6970 C   0  0  0  0  0  0  0  0  0  0  0  0
   57.4870   29.8060   51.2170 O   0  0  0  0  0  0  0  0  0  0  0  0
   56.8170   30.8090   51.7350 C   0  0  0  0  0  0  0  0  0  0  0  0
   55.8460   30.7264   52.2452 H   0  0  0  0  0  0  0  0  0  0  0  0
   57.5160   31.9820   51.5420 C   0  0  0  0  0  0  0  0  0  0  0  0
   57.2161   32.9903   51.8634 H   0  0  0  0  0  0  0  0  0  0  0  0
   58.6650   31.6370   50.8660 C   0  0  0  0  0  0  0  0  0  0  0  0
   59.4662   32.3117   50.5300 H   0  0  0  0  0  0  0  0  0  0  0  0
   56.8110   28.7930   44.8730 C   0  0  0  0  0  0  0  0  0  0  0  0
   55.5450   29.1430   44.8950 O   0  0  0  0  0  0  0  0  0  0  0  0
   55.2470   29.7170   43.7520 C   0  0  0  0  0  0  0  0  0  0  0  0
   54.2587   30.1184   43.4833 H   0  0  0  0  0  0  0  0  0  0  0  0
   56.3610   29.7400   42.9400 C   0  0  0  0  0  0  0  0  0  0  0  0
   56.4298   30.1542   41.9233 H   0  0  0  0  0  0  0  0  0  0  0  0
   57.3710   29.1390   43.6600 C   0  0  0  0  0  0  0  0  0  0  0  0
   58.4083   28.9701   43.3352 H   0  0  0  0  0  0  0  0  0  0  0  0
  1  2  1  0
  2  3  2  3
  3  4  1  0
  3  5  1  0
  5  6  2  0
  6  7  1  0
  7  8  2  0
  8  9  1  0
  8 10  1  0
 10 11  1  0
 10 12  2  0
 12 13  1  0
 12 14  1  0
 14 15  1  0
 14 16  2  0
 16 17  1  0
 17 18  2  0
 17 19  1  0
 19 20  1  0
 20 21  2  0
 21 22  1  0
 21 23  1  0
 23 24  1  0
 24 25  1  0
 25 26  1  0
 25 27  2  0
 27 28  1  0
 27 29  1  0
 29 30  1  0
  2 31  1  0
 31 32  1  0
 32 33  1  0
 33 34  1  0
 33 35  2  0
 35 36  1  0
 35 37  1  0
 37 38  1  0
 19  5  1  0
 29 23  2  0
 37 31  2  0
 16  7  1  0
M  END
>  <UniqueID>  (17) 
16

>  <SMILES>  (17) 
O=c1c2ccccc2nc(C=Cc2ccco2)n1/N=C\c1ccco1

>  <Energy>  (17) 
115.10222091013954

>  <Genealogy>  (17) 
O=c1c2ccccc2nc(C=Cc2ccco2)n1/N=C\c1ccco1 (cis-trans isomerization)
O=c1c2ccccc2nc(C=Cc2ccco2)n1/N=C\c1ccco1 (3D coordinates assigned)
O=c1c2ccccc2nc(C=Cc2ccco2)n1/N=C\c1ccco1 (optimized conformer: 115.10222091013954 kcal/mol)

>  <smiles>  (17) 
O=c1c2ccccc2nc(C=Cc2ccco2)n1N=Cc1ccco1

>  <score_type>  (17) 
oracle

>  <origin>  (17) 
adg

>  <m_score__min__energy>  (17) 
-7.8700000000000001

>  <m_primary>  (17) 
energy

$$$$
17:0
     RDKit          3D

 39 42  0  0  0  0  0  0  0  0999 V2000
   58.9080   33.1660   47.8480 C   0  0  0  0  0  0  0  0  0  0  0  0
   58.9190   31.6600   48.0950 C   0  0  0  0  0  0  0  0  0  0  0  0
   59.9350   30.9120   47.2160 C   0  0  0  0  0  0  0  0  0  0  0  0
   59.2760   29.9080   46.3450 N   0  0  0  0  0  0  0  0  0  0  0  0
   59.4760   28.5740   46.6390 C   0  0  0  0  0  0  0  0  0  0  0  0
   60.2060   28.2200   47.6070 O   0  0  0  0  0  0  0  0  0  0  0  0
   58.8790   27.6310   45.8760 N   0  0  0  0  0  0  0  0  0  0  0  0
   58.9590   26.3190   46.0190 N   0  0  0  0  0  0  0  0  0  0  0  0
   58.1920   25.8190   45.0200 C   0  0  0  0  0  0  0  0  0  0  0  0
   57.9870   24.3840   44.7890 C   0  0  0  0  0  0  0  0  0  0  0  0
   58.7180   23.3590   45.3630 C   0  0  0  0  0  0  0  0  0  0  0  0
   58.1820   22.1900   44.8630 C   0  0  0  0  0  0  0  0  0  0  0  0
   57.1610   22.5860   44.0190 C   0  0  0  0  0  0  0  0  0  0  0  0
   56.3140   21.7150   43.2680 N   0  0  0  0  0  0  0  0  0  0  0  0
   56.2570   20.4970   43.5380 O   0  0  0  0  0  0  0  0  0  0  0  0
   55.5530   22.2170   42.2400 O   0  0  0  0  0  0  0  0  0  0  0  0
   57.0650   23.8950   43.9920 O   0  0  0  0  0  0  0  0  0  0  0  0
   57.6370   26.7920   44.2590 N   0  0  0  0  0  0  0  0  0  0  0  0
   58.0980   27.9170   44.8380 C   0  0  0  0  0  0  0  0  0  0  0  0
   57.8560   29.2380   44.4680 C   0  0  0  0  0  0  0  0  0  0  0  0
   57.0450   29.5680   43.3710 C   0  0  0  0  0  0  0  0  0  0  0  0
   56.8420   30.9030   43.0280 C   0  0  0  0  0  0  0  0  0  0  0  0
   57.4480   31.9140   43.7700 C   0  0  0  0  0  0  0  0  0  0  0  0
   58.2570   31.6040   44.8650 C   0  0  0  0  0  0  0  0  0  0  0  0
   58.4790   30.2580   45.2530 C   0  0  0  0  0  0  0  0  0  0  0  0
   58.9041   33.6957   48.8121 H   0  0  0  0  0  0  0  0  0  0  0  0
   59.8041   33.4505   47.2769 H   0  0  0  0  0  0  0  0  0  0  0  0
   58.0079   33.4373   47.2769 H   0  0  0  0  0  0  0  0  0  0  0  0
   59.1702   31.4802   49.1507 H   0  0  0  0  0  0  0  0  0  0  0  0
   57.9197   31.2783   47.8386 H   0  0  0  0  0  0  0  0  0  0  0  0
   60.4629   31.6406   46.5832 H   0  0  0  0  0  0  0  0  0  0  0  0
   60.6358   30.3827   47.8783 H   0  0  0  0  0  0  0  0  0  0  0  0
   59.5538   23.4560   46.0716 H   0  0  0  0  0  0  0  0  0  0  0  0
   58.4996   21.1612   45.0881 H   0  0  0  0  0  0  0  0  0  0  0  0
   57.0100   26.6780   43.4320 H   0  0  0  0  0  0  0  0  0  0  0  0
   56.5688   28.7711   42.7810 H   0  0  0  0  0  0  0  0  0  0  0  0
   56.2025   31.1588   42.1703 H   0  0  0  0  0  0  0  0  0  0  0  0
   57.2879   32.9659   43.4909 H   0  0  0  0  0  0  0  0  0  0  0  0
   58.7297   32.4168   45.4359 H   0  0  0  0  0  0  0  0  0  0  0  0
  1  2  1  0
  2  3  1  0
  3  4  1  0
  4  5  1  0
  5  6  2  0
  5  7  1  0
  7  8  1  0
  8  9  2  0
  9 10  1  0
 10 11  2  0
 11 12  1  0
 12 13  2  0
 13 14  1  0
 14 15  2  0
 14 16  1  0
 13 17  1  0
  9 18  1  0
 18 19  2  0
 19 20  1  0
 20 21  2  0
 21 22  1  0
 22 23  2  0
 23 24  1  0
 24 25  2  0
 25  4  1  0
 19  7  1  0
 25 20  1  0
 17 10  1  0
  1 26  1  0
  1 27  1  0
  1 28  1  0
  2 29  1  0
  2 30  1  0
  3 31  1  0
  3 32  1  0
 11 33  1  0
 12 34  1  0
 18 35  1  0
 21 36  1  0
 22 37  1  0
 23 38  1  0
 24 39  1  0
M  CHG  3  14   1  16  -1  18   1
M  END
>  <UniqueID>  (18) 
17

>  <SMILES>  (18) 
CCCn1c(=O)n2nc(-c3ccc([N+](=O)[O-])o3)[nH+]c2c2ccccc21

>  <Energy>  (18) 
116.39170991724419

>  <Genealogy>  (18) 
CCCn1c(=O)n2nc(-c3ccc([N+](=O)[O-])o3)[nH+]c2c2ccccc21 (protonated)
CCCn1c(=O)n2nc(-c3ccc([N+](=O)[O-])o3)[nH+]c2c2ccccc21 (3D coordinates assigned)
CCCn1c(=O)n2nc(-c3ccc([N+](=O)[O-])o3)[nH+]c2c2ccccc21 (optimized conformer: 116.39170991724419 kcal/mol)

>  <smiles>  (18) 
CCCn1c(=O)n2nc(-c3ccc([N+](=O)[O-])o3)nc2c2ccccc21

>  <score_type>  (18) 
oracle

>  <origin>  (18) 
adg

>  <m_score__min__energy>  (18) 
-6.9100000000000001

>  <m_primary>  (18) 
energy

$$$$
18:0
     RDKit          3D

 40 43  0  0  0  0  0  0  0  0999 V2000
   56.9220   20.6940   42.8150 N   0  0  0  0  0  0  0  0  0  0  0  0
   56.6810   21.8590   43.6090 C   0  0  0  0  0  0  0  0  0  0  0  0
   57.1670   21.9380   44.9190 C   0  0  0  0  0  0  0  0  0  0  0  0
   56.9230   23.0800   45.6840 C   0  0  0  0  0  0  0  0  0  0  0  0
   56.1780   24.1370   45.1350 C   0  0  0  0  0  0  0  0  0  0  0  0
   55.8980   25.3690   45.9030 C   0  0  0  0  0  0  0  0  0  0  0  0
   54.7910   25.9480   45.7410 O   0  0  0  0  0  0  0  0  0  0  0  0
   56.8600   25.9610   46.7860 N   0  0  0  0  0  0  0  0  0  0  0  0
   57.4990   27.2340   46.6200 C   0  0  0  0  0  0  0  0  0  0  0  0
   58.6730   27.5750   47.3360 C   0  0  0  0  0  0  0  0  0  0  0  0
   59.2790   28.8300   47.1650 C   0  0  0  0  0  0  0  0  0  0  0  0
   58.6820   29.7390   46.2890 C   0  0  0  0  0  0  0  0  0  0  0  0
   57.5230   29.4170   45.5960 C   0  0  0  0  0  0  0  0  0  0  0  0
   56.9100   28.1760   45.7560 C   0  0  0  0  0  0  0  0  0  0  0  0
   57.1060   30.3530   44.8030 N   0  0  0  0  0  0  0  0  0  0  0  0
   58.0700   31.3840   44.9850 C   0  0  0  0  0  0  0  0  0  0  0  0
   58.0530   32.4780   44.3630 O   0  0  0  0  0  0  0  0  0  0  0  0
   59.0650   30.9670   45.9610 C   0  0  0  0  0  0  0  0  0  0  0  0
   60.3080   31.7010   46.3720 C   0  0  0  0  0  0  0  0  0  0  0  0
   59.9460   32.9960   47.0320 C   0  0  0  0  0  0  0  0  0  0  0  0
   60.1990   33.3260   48.3510 C   0  0  0  0  0  0  0  0  0  0  0  0
   59.7420   34.6190   48.5160 C   0  0  0  0  0  0  0  0  0  0  0  0
   59.2430   35.0210   47.2930 C   0  0  0  0  0  0  0  0  0  0  0  0
   59.3720   34.0310   46.3920 N   0  0  0  0  0  0  0  0  0  0  0  0
   55.7340   24.0430   43.8500 N   0  0  0  0  0  0  0  0  0  0  0  0
   55.9640   22.9420   43.0850 C   0  0  0  0  0  0  0  0  0  0  0  0
   56.6680   19.7430   43.1710 H   0  0  0  0  0  0  0  0  0  0  0  0
   57.3570   20.7780   41.8670 H   0  0  0  0  0  0  0  0  0  0  0  0
   57.7404   21.1016   45.3452 H   0  0  0  0  0  0  0  0  0  0  0  0
   57.3117   23.1518   46.7105 H   0  0  0  0  0  0  0  0  0  0  0  0
   59.1148   26.8484   48.0338 H   0  0  0  0  0  0  0  0  0  0  0  0
   60.2001   29.0904   47.7070 H   0  0  0  0  0  0  0  0  0  0  0  0
   55.9818   27.9367   45.2164 H   0  0  0  0  0  0  0  0  0  0  0  0
   60.8805   31.0807   47.0773 H   0  0  0  0  0  0  0  0  0  0  0  0
   60.9153   31.9093   45.4788 H   0  0  0  0  0  0  0  0  0  0  0  0
   60.6689   32.6881   49.1140 H   0  0  0  0  0  0  0  0  0  0  0  0
   59.7701   35.2128   49.4415 H   0  0  0  0  0  0  0  0  0  0  0  0
   58.8037   36.0079   47.0857 H   0  0  0  0  0  0  0  0  0  0  0  0
   59.0870   34.0660   45.3900 H   0  0  0  0  0  0  0  0  0  0  0  0
   55.5861   22.9022   42.0527 H   0  0  0  0  0  0  0  0  0  0  0  0
  1  2  1  0
  2  3  2  0
  3  4  1  0
  4  5  2  0
  5  6  1  0
  6  7  2  0
  6  8  1  0
  8  9  1  0
  9 10  1  0
 10 11  2  0
 11 12  1  0
 12 13  1  0
 13 14  1  0
 13 15  2  0
 15 16  1  0
 16 17  2  0
 16 18  1  0
 18 19  1  0
 19 20  1  0
 20 21  2  0
 21 22  1  0
 22 23  2  0
 23 24  1  0
  5 25  1  0
 25 26  2  0
 26  2  1  0
 14  9  2  0
 24 20  1  0
 18 12  2  0
  1 27  1  0
  1 28  1  0
  3 29  1  0
  4 30  1  0
 10 31  1  0
 11 32  1  0
 14 33  1  0
 19 34  1  0
 19 35  1  0
 21 36  1  0
 22 37  1  0
 23 38  1  0
 24 39  1  0
 26 40  1  0
M  CHG  1   8  -1
M  END
>  <UniqueID>  (19) 
18

>  <SMILES>  (19) 
Nc1ccc(C(=O)[N-]c2ccc3c(c2)=NC(=O)C=3Cc2ccc[nH]2)nc1

>  <Energy>  (19) 
105.06343586328545

>  <Genealogy>  (19) 
Nc1ccc(C(=O)[N-]c2ccc3c(c2)=NC(=O)C=3Cc2ccc[nH]2)nc1 (protonated)
Nc1ccc(C(=O)[N-]c2ccc3c(c2)=NC(=O)C=3Cc2ccc[nH]2)nc1 (3D coordinates assigned)
Nc1ccc(C(=O)[N-]c2ccc3c(c2)=NC(=O)C=3Cc2ccc[nH]2)nc1 (nonaromatic ring conformer: 105.06343586328545 kcal/mol)

>  <smiles>  (19) 
Nc1ccc(C(=O)Nc2ccc3c(c2)=NC(=O)C=3Cc2ccc[nH]2)nc1

>  <score_type>  (19) 
oracle

>  <origin>  (19) 
adg

>  <m_score__min__energy>  (19) 
-9.8000000000000007

>  <m_primary>  (19) 
energy

$$$$
19:0
     RDKit          3D

 51 53  0  0  0  0  0  0  0  0999 V2000
   56.2860   29.8360   42.9930 C   0  0  0  0  0  0  0  0  0  0  0  0
   56.1940   30.1420   44.4830 C   0  0  0  0  0  0  0  0  0  0  0  0
   55.7190   28.9660   45.2150 N   0  0  0  0  0  0  0  0  0  0  0  0
   57.0290   27.8820   45.5810 S   0  0  0  0  0  0  0  0  0  0  0  0
   57.4850   27.2110   44.3160 O   0  0  0  0  0  0  0  0  0  0  0  0
   56.5610   26.8270   46.5470 O   0  0  0  0  0  0  0  0  0  0  0  0
   58.3760   28.7880   46.2650 C   0  0  0  0  0  0  0  0  0  0  0  0
   59.3640   29.3360   45.4400 C   0  0  0  0  0  0  0  0  0  0  0  0
   60.4190   30.0630   45.9930 C   0  0  0  0  0  0  0  0  0  0  0  0
   60.5070   30.2450   47.3870 C   0  0  0  0  0  0  0  0  0  0  0  0
   61.5470   30.9760   47.9870 O   0  0  0  0  0  0  0  0  0  0  0  0
   62.5280   31.7520   47.2980 C   0  0  0  0  0  0  0  0  0  0  0  0
   63.3320   32.6000   48.2780 C   0  0  0  0  0  0  0  0  0  0  0  0
   59.5320   29.6700   48.2200 C   0  0  0  0  0  0  0  0  0  0  0  0
   59.6210   29.8840   49.6370 N   0  0  0  0  0  0  0  0  0  0  0  0
   58.6970   30.6220   50.4460 C   0  0  0  0  0  0  0  0  0  0  0  0
   57.6910   30.0600   50.9560 O   0  0  0  0  0  0  0  0  0  0  0  0
   58.9380   32.0770   50.6920 C   0  0  0  0  0  0  0  0  0  0  0  0
   59.0600   32.8020   49.3800 C   0  0  0  0  0  0  0  0  0  0  0  0
   60.0820   33.7490   49.1860 C   0  0  0  0  0  0  0  0  0  0  0  0
   60.2250   34.3910   47.9510 C   0  0  0  0  0  0  0  0  0  0  0  0
   59.3580   34.0810   46.9010 C   0  0  0  0  0  0  0  0  0  0  0  0
   58.3270   33.1500   47.0920 C   0  0  0  0  0  0  0  0  0  0  0  0
   58.1890   32.4970   48.3190 C   0  0  0  0  0  0  0  0  0  0  0  0
   57.4470   32.8860   46.0380 O   0  0  0  0  0  0  0  0  0  0  0  0
   57.4030   33.7290   44.8830 C   0  0  0  0  0  0  0  0  0  0  0  0
   58.8190   34.1780   44.5010 C   0  0  0  0  0  0  0  0  0  0  0  0
   59.5040   34.6860   45.6490 O   0  0  0  0  0  0  0  0  0  0  0  0
   58.4580   28.9620   47.6510 C   0  0  0  0  0  0  0  0  0  0  0  0
   56.6001   28.7913   42.8519 H   0  0  0  0  0  0  0  0  0  0  0  0
   55.3020   29.9893   42.5258 H   0  0  0  0  0  0  0  0  0  0  0  0
   57.0223   30.5065   42.5258 H   0  0  0  0  0  0  0  0  0  0  0  0
   57.1888   30.4251   44.8574 H   0  0  0  0  0  0  0  0  0  0  0  0
   55.4847   30.9689   44.6353 H   0  0  0  0  0  0  0  0  0  0  0  0
   59.3090   29.1932   44.3507 H   0  0  0  0  0  0  0  0  0  0  0  0
   61.1871   30.4969   45.3359 H   0  0  0  0  0  0  0  0  0  0  0  0
   63.2103   31.0767   46.7610 H   0  0  0  0  0  0  0  0  0  0  0  0
   62.0161   32.4204   46.5901 H   0  0  0  0  0  0  0  0  0  0  0  0
   63.0668   32.3203   49.3082 H   0  0  0  0  0  0  0  0  0  0  0  0
   64.4063   32.4277   48.1163 H   0  0  0  0  0  0  0  0  0  0  0  0
   63.1028   33.6636   48.1163 H   0  0  0  0  0  0  0  0  0  0  0  0
   58.0962   32.4951   51.2634 H   0  0  0  0  0  0  0  0  0  0  0  0
   59.8704   32.1994   51.2627 H   0  0  0  0  0  0  0  0  0  0  0  0
   60.7721   33.9860   50.0092 H   0  0  0  0  0  0  0  0  0  0  0  0
   61.0190   35.1386   47.8074 H   0  0  0  0  0  0  0  0  0  0  0  0
   57.3988   31.7440   48.4554 H   0  0  0  0  0  0  0  0  0  0  0  0
   56.9593   33.1730   44.0440 H   0  0  0  0  0  0  0  0  0  0  0  0
   56.7937   34.6165   45.1092 H   0  0  0  0  0  0  0  0  0  0  0  0
   59.3754   33.3196   44.0965 H   0  0  0  0  0  0  0  0  0  0  0  0
   58.7508   34.9728   43.7436 H   0  0  0  0  0  0  0  0  0  0  0  0
   57.6763   28.5417   48.3008 H   0  0  0  0  0  0  0  0  0  0  0  0
  1  2  1  0
  2  3  1  0
  3  4  1  0
  4  5  2  0
  4  6  2  0
  4  7  1  0
  7  8  2  0
  8  9  1  0
  9 10  2  0
 10 11  1  0
 11 12  1  0
 12 13  1  0
 10 14  1  0
 14 15  1  0
 15 16  1  0
 16 17  2  0
 16 18  1  0
 18 19  1  0
 19 20  2  0
 20 21  1  0
 21 22  2  0
 22 23  1  0
 23 24  2  0
 23 25  1  0
 25 26  1  0
 26 27  1  0
 27 28  1  0
 14 29  2  0
 29  7  1  0
 24 19  1  0
 28 22  1  0
  1 30  1  0
  1 31  1  0
  1 32  1  0
  2 33  1  0
  2 34  1  0
  8 35  1  0
  9 36  1  0
 12 37  1  0
 12 38  1  0
 13 39  1  0
 13 40  1  0
 13 41  1  0
 18 42  1  0
 18 43  1  0
 20 44  1  0
 21 45  1  0
 24 46  1  0
 26 47  1  0
 26 48  1  0
 27 49  1  0
 27 50  1  0
 29 51  1  0
M  CHG  2   3  -1  15  -1
M  END
>  <UniqueID>  (20) 
19

>  <SMILES>  (20) 
CC[N-]S(=O)(=O)c1ccc(OCC)c([N-]C(=O)Cc2ccc3c(c2)OCCO3)c1

>  <Energy>  (20) 
49.5841531100429

>  <Genealogy>  (20) 
CC[N-]S(=O)(=O)c1ccc(OCC)c([N-]C(=O)Cc2ccc3c(c2)OCCO3)c1 (protonated)
CC[N-]S(=O)(=O)c1ccc(OCC)c([N-]C(=O)Cc2ccc3c(c2)OCCO3)c1 (3D coordinates assigned)
CC[N-]S(=O)(=O)c1ccc(OCC)c([N-]C(=O)Cc2ccc3c(c2)OCCO3)c1 (nonaromatic ring conformer: 49.5841531100429 kcal/mol)

>  <smiles>  (20) 
CCNS(=O)(=O)c1ccc(OCC)c(NC(=O)Cc2ccc3c(c2)OCCO3)c1

>  <score_type>  (20) 
oracle

>  <origin>  (20) 
adg

>  <m_score__min__energy>  (20) 
-11.4

>  <m_primary>  (20) 
energy

$$$$
20:0
     RDKit          3D

 45 48  0  0  0  0  0  0  0  0999 V2000
   57.0240   27.8350   45.2630 C   0  0  0  0  0  0  0  0  0  0  0  0
   57.1760   29.1530   44.5620 C   0  0  0  0  0  0  0  0  0  0  0  0
   56.5960   29.3540   43.3010 C   0  0  0  0  0  0  0  0  0  0  0  0
   56.7110   30.5900   42.6640 C   0  0  0  0  0  0  0  0  0  0  0  0
   57.3940   31.6400   43.2840 C   0  0  0  0  0  0  0  0  0  0  0  0
   57.9660   31.4650   44.5570 C   0  0  0  0  0  0  0  0  0  0  0  0
   58.6830   32.5830   45.2200 C   0  0  0  0  0  0  0  0  0  0  0  0
   58.5370   33.8990   44.7530 C   0  0  0  0  0  0  0  0  0  0  0  0
   59.1990   34.9500   45.3870 C   0  0  0  0  0  0  0  0  0  0  0  0
   60.0220   34.7030   46.4860 C   0  0  0  0  0  0  0  0  0  0  0  0
   60.2110   33.3920   46.9640 C   0  0  0  0  0  0  0  0  0  0  0  0
   61.0810   33.1520   48.1960 C   0  0  2  0  0  0  0  0  0  0  0  0
   62.4660   33.8470   48.0320 C   0  0  0  0  0  0  0  0  0  0  0  0
   63.7400   33.0110   47.9780 C   0  0  0  0  0  0  0  0  0  0  0  0
   63.1800   33.6210   46.7030 C   0  0  0  0  0  0  0  0  0  0  0  0
   61.3260   31.7210   48.4030 N   0  0  0  0  0  0  0  0  0  0  0  0
   60.8410   31.3400   49.5440 C   0  0  0  0  0  0  0  0  0  0  0  0
   60.9160   29.9830   49.9800 N   0  0  0  0  0  0  0  0  0  0  0  0
   60.2160   32.3730   50.2980 N   0  0  0  0  0  0  0  0  0  0  0  0
   59.2180   32.1900   51.3460 C   0  0  0  0  0  0  0  0  0  0  0  0
   60.3060   33.4950   49.4370 C   0  0  0  0  0  0  0  0  0  0  0  0
   59.7120   34.5860   49.6520 O   0  0  0  0  0  0  0  0  0  0  0  0
   59.5140   32.3390   46.3300 C   0  0  0  0  0  0  0  0  0  0  0  0
   57.8460   30.2140   45.1920 C   0  0  0  0  0  0  0  0  0  0  0  0
   57.0424   27.9942   46.3513 H   0  0  0  0  0  0  0  0  0  0  0  0
   56.0669   27.3752   44.9758 H   0  0  0  0  0  0  0  0  0  0  0  0
   57.8513   27.1694   44.9758 H   0  0  0  0  0  0  0  0  0  0  0  0
   56.0486   28.5344   42.8125 H   0  0  0  0  0  0  0  0  0  0  0  0
   56.2626   30.7386   41.6706 H   0  0  0  0  0  0  0  0  0  0  0  0
   57.4848   32.6098   42.7729 H   0  0  0  0  0  0  0  0  0  0  0  0
   57.8967   34.1022   43.8819 H   0  0  0  0  0  0  0  0  0  0  0  0
   59.0716   35.9787   45.0188 H   0  0  0  0  0  0  0  0  0  0  0  0
   60.5291   35.5420   46.9849 H   0  0  0  0  0  0  0  0  0  0  0  0
   62.1526   34.7102   48.6375 H   0  0  0  0  0  0  0  0  0  0  0  0
   64.6727   33.4019   48.4108 H   0  0  0  0  0  0  0  0  0  0  0  0
   64.0171   31.9954   48.2970 H   0  0  0  0  0  0  0  0  0  0  0  0
   63.7075   34.4531   46.2139 H   0  0  0  0  0  0  0  0  0  0  0  0
   62.8844   33.2293   45.7185 H   0  0  0  0  0  0  0  0  0  0  0  0
   60.5200   29.6900   50.8990 H   0  0  0  0  0  0  0  0  0  0  0  0
   61.3740   29.2640   49.3780 H   0  0  0  0  0  0  0  0  0  0  0  0
   59.7000   32.2784   52.3308 H   0  0  0  0  0  0  0  0  0  0  0  0
   58.4387   32.9602   51.2487 H   0  0  0  0  0  0  0  0  0  0  0  0
   58.7627   31.1934   51.2487 H   0  0  0  0  0  0  0  0  0  0  0  0
   59.6224   31.3123   46.7097 H   0  0  0  0  0  0  0  0  0  0  0  0
   58.2814   30.0665   46.1913 H   0  0  0  0  0  0  0  0  0  0  0  0
  1  2  1  0
  2  3  2  0
  3  4  1  0
  4  5  2  0
  5  6  1  0
  6  7  1  0
  7  8  2  0
  8  9  1  0
  9 10  2  0
 10 11  1  0
 11 12  1  0
 12 13  1  6
 13 14  1  0
 14 15  1  0
 12 16  1  0
 16 17  2  0
 17 18  1  0
 17 19  1  0
 19 20  1  0
 19 21  1  0
 21 22  2  0
 11 23  2  0
  6 24  2  0
 24  2  1  0
 23  7  1  0
 21 12  1  0
 15 13  1  0
  1 25  1  0
  1 26  1  0
  1 27  1  0
  3 28  1  0
  4 29  1  0
  5 30  1  0
  8 31  1  0
  9 32  1  0
 10 33  1  0
 13 34  1  0
 14 35  1  0
 14 36  1  0
 15 37  1  0
 15 38  1  0
 18 39  1  0
 18 40  1  0
 20 41  1  0
 20 42  1  0
 20 43  1  0
 23 44  1  0
 24 45  1  0
M  END
>  <UniqueID>  (21) 
20

>  <SMILES>  (21) 
Cc1cccc(-c2cccc([C@]3(C4CC4)N=C(N)N(C)C3=O)c2)c1

>  <Energy>  (21) 
341.3021022607541

>  <Genealogy>  (21) 
Cc1cccc(-c2cccc([C@]3(C4CC4)N=C(N)N(C)C3=O)c2)c1 (chirality)
Cc1cccc(-c2cccc([C@]3(C4CC4)N=C(N)N(C)C3=O)c2)c1 (3D coordinates assigned)
Cc1cccc(-c2cccc([C@]3(C4CC4)N=C(N)N(C)C3=O)c2)c1 (nonaromatic ring conformer: 341.3021022607541 kcal/mol)

>  <smiles>  (21) 
Cc1cccc(-c2cccc(C3(C4CC4)N=C(N)N(C)C3=O)c2)c1

>  <score_type>  (21) 
oracle

>  <origin>  (21) 
adg

>  <m_score__min__energy>  (21) 
-8.3499999999999996

>  <m_primary>  (21) 
energy

$$$$
21:0
     RDKit          3D

 23 25  0  0  0  0  0  0  0  0999 V2000
   57.9138   25.8483   42.4390 H   0  0  0  0  0  0  0  0  0  0  0  0
   57.8180   26.7170   43.1070 C   0  0  0  0  0  0  0  0  0  0  0  0
   58.1250   26.5910   44.4350 N   0  0  0  0  0  0  0  0  0  0  0  0
   58.0190   27.6460   45.2930 C   0  0  0  0  0  0  0  0  0  0  0  0
   58.4200   27.4460   46.9880 Cl  0  0  0  0  0  0  0  0  0  0  0  0
   57.5870   28.8700   44.7900 C   0  0  0  0  0  0  0  0  0  0  0  0
   57.4230   30.0120   45.5040 N   0  0  0  0  0  0  0  0  0  0  0  0
   56.9960   31.0160   44.6940 C   0  0  0  0  0  0  0  0  0  0  0  0
   56.7190   32.2170   45.1070 N   0  0  0  0  0  0  0  0  0  0  0  0
   57.6480   33.1720   45.6470 C   0  0  0  0  0  0  0  0  0  0  0  0
   57.9670   33.2170   47.0190 C   0  0  0  0  0  0  0  0  0  0  0  0
   57.4794   32.5219   47.7183 H   0  0  0  0  0  0  0  0  0  0  0  0
   58.9010   34.1420   47.4940 C   0  0  0  0  0  0  0  0  0  0  0  0
   59.1360   34.1819   48.5679 H   0  0  0  0  0  0  0  0  0  0  0  0
   59.5370   35.0160   46.6090 C   0  0  0  0  0  0  0  0  0  0  0  0
   60.2640   35.7501   46.9867 H   0  0  0  0  0  0  0  0  0  0  0  0
   59.2480   34.9560   45.2430 C   0  0  0  0  0  0  0  0  0  0  0  0
   59.7546   35.6376   44.5439 H   0  0  0  0  0  0  0  0  0  0  0  0
   58.3160   34.0310   44.7640 C   0  0  0  0  0  0  0  0  0  0  0  0
   58.1053   33.9769   43.6857 H   0  0  0  0  0  0  0  0  0  0  0  0
   56.7870   30.5250   43.0840 S   0  0  0  0  0  0  0  0  0  0  0  0
   57.2860   28.9670   43.4500 C   0  0  0  0  0  0  0  0  0  0  0  0
   57.3940   27.9130   42.6070 N   0  0  0  0  0  0  0  0  0  0  0  0
  1  2  1  0
  2  3  2  0
  3  4  1  0
  4  5  1  0
  4  6  2  0
  6  7  1  0
  7  8  1  0
  8  9  2  0
  9 10  1  0
 10 11  2  0
 11 12  1  0
 11 13  1  0
 13 14  1  0
 13 15  2  0
 15 16  1  0
 15 17  1  0
 17 18  1  0
 17 19  2  0
 19 20  1  0
  8 21  1  0
 21 22  1  0
 22 23  2  0
 23  2  1  0
 22  6  1  0
 19 10  1  0
M  CHG  1   7  -1
M  END
>  <UniqueID>  (22) 
21

>  <SMILES>  (22) 
Clc1ncnc2s/c(=N/c3ccccc3)[n-]c12

>  <Energy>  (22) 
69.37907015002662

>  <Genealogy>  (22) 
Clc1ncnc2sc(=Nc3ccccc3)[n-]c12 (protonated)
Clc1ncnc2s/c(=N/c3ccccc3)[n-]c12 (cis-trans isomerization)
Clc1ncnc2s/c(=N/c3ccccc3)[n-]c12 (3D coordinates assigned)
Clc1ncnc2s/c(=N/c3ccccc3)[n-]c12 (optimized conformer: 69.37907015002662 kcal/mol)

>  <smiles>  (22) 
Clc1ncnc2sc(=Nc3ccccc3)[nH]c12

>  <score_type>  (22) 
oracle

>  <origin>  (22) 
adg

>  <m_score__min__energy>  (22) 
-8

>  <m_primary>  (22) 
energy

$$$$
22:0
     RDKit          3D

 39 41  0  0  0  0  0  0  0  0999 V2000
   59.5180   35.3150   45.3860 O   0  0  0  0  0  0  0  0  0  0  0  0
   59.5810   34.3090   46.1440 C   0  0  0  0  0  0  0  0  0  0  0  0
   60.7800   34.1120   46.9950 C   0  0  0  0  0  0  0  0  0  0  0  0
   61.9900   33.6610   46.4360 C   0  0  0  0  0  0  0  0  0  0  0  0
   63.1170   33.4820   47.2420 C   0  0  0  0  0  0  0  0  0  0  0  0
   63.0520   33.7580   48.6100 C   0  0  0  0  0  0  0  0  0  0  0  0
   61.8600   34.2190   49.1730 C   0  0  0  0  0  0  0  0  0  0  0  0
   60.7280   34.4000   48.3700 C   0  0  0  0  0  0  0  0  0  0  0  0
   58.4920   33.3660   46.1620 N   0  0  0  0  0  0  0  0  0  0  0  0
   57.8300   33.0530   47.4390 C   0  0  0  0  0  0  0  0  0  0  0  0
   58.6030   32.0070   48.2060 C   0  0  0  0  0  0  0  0  0  0  0  0
   59.4040   31.0710   47.5280 C   0  0  0  0  0  0  0  0  0  0  0  0
   60.1160   30.1030   48.2410 C   0  0  0  0  0  0  0  0  0  0  0  0
   60.0470   30.0670   49.6360 C   0  0  0  0  0  0  0  0  0  0  0  0
   59.2690   31.0040   50.3200 C   0  0  0  0  0  0  0  0  0  0  0  0
   58.5550   31.9750   49.6110 C   0  0  0  0  0  0  0  0  0  0  0  0
   58.1270   32.6720   44.9460 C   0  0  0  0  0  0  0  0  0  0  0  0
   57.3860   31.4780   44.9930 C   0  0  0  0  0  0  0  0  0  0  0  0
   57.0280   30.8400   43.8060 C   0  0  0  0  0  0  0  0  0  0  0  0
   57.4060   31.3880   42.5820 C   0  0  0  0  0  0  0  0  0  0  0  0
   58.1410   32.5730   42.5640 C   0  0  0  0  0  0  0  0  0  0  0  0
   58.4830   33.1870   43.7300 N   0  0  0  0  0  0  0  0  0  0  0  0
   62.0489   33.4482   45.3584 H   0  0  0  0  0  0  0  0  0  0  0  0
   64.0575   33.1230   46.7986 H   0  0  0  0  0  0  0  0  0  0  0  0
   63.9394   33.6122   49.2434 H   0  0  0  0  0  0  0  0  0  0  0  0
   61.8107   34.4402   50.2494 H   0  0  0  0  0  0  0  0  0  0  0  0
   59.7932   34.7694   48.8169 H   0  0  0  0  0  0  0  0  0  0  0  0
   57.7652   33.9689   48.0448 H   0  0  0  0  0  0  0  0  0  0  0  0
   56.8247   32.6605   47.2261 H   0  0  0  0  0  0  0  0  0  0  0  0
   59.4704   31.1010   46.4304 H   0  0  0  0  0  0  0  0  0  0  0  0
   60.7322   29.3677   47.7028 H   0  0  0  0  0  0  0  0  0  0  0  0
   60.6049   29.3014   50.1952 H   0  0  0  0  0  0  0  0  0  0  0  0
   59.2179   30.9780   51.4185 H   0  0  0  0  0  0  0  0  0  0  0  0
   57.9528   32.7175   50.1551 H   0  0  0  0  0  0  0  0  0  0  0  0
   57.0901   31.0492   45.9618 H   0  0  0  0  0  0  0  0  0  0  0  0
   56.4482   29.9057   43.8358 H   0  0  0  0  0  0  0  0  0  0  0  0
   57.1278   30.8916   41.6406 H   0  0  0  0  0  0  0  0  0  0  0  0
   58.4458   33.0136   41.6033 H   0  0  0  0  0  0  0  0  0  0  0  0
   59.0440   34.0660   43.6780 H   0  0  0  0  0  0  0  0  0  0  0  0
  1  2  2  0
  2  3  1  0
  3  4  2  0
  4  5  1  0
  5  6  2  0
  6  7  1  0
  7  8  2  0
  2  9  1  0
  9 10  1  0
 10 11  1  0
 11 12  2  0
 12 13  1  0
 13 14  2  0
 14 15  1  0
 15 16  2  0
  9 17  1  0
 17 18  2  0
 18 19  1  0
 19 20  2  0
 20 21  1  0
 21 22  2  0
  8  3  1  0
 16 11  1  0
 22 17  1  0
  4 23  1  0
  5 24  1  0
  6 25  1  0
  7 26  1  0
  8 27  1  0
 10 28  1  0
 10 29  1  0
 12 30  1  0
 13 31  1  0
 14 32  1  0
 15 33  1  0
 16 34  1  0
 18 35  1  0
 19 36  1  0
 20 37  1  0
 21 38  1  0
 22 39  1  0
M  CHG  1  22   1
M  END
>  <UniqueID>  (23) 
22

>  <SMILES>  (23) 
O=C(c1ccccc1)N(Cc1ccccc1)c1cccc[nH+]1

>  <Energy>  (23) 
49.4177175342727

>  <Genealogy>  (23) 
O=C(c1ccccc1)N(Cc1ccccc1)c1cccc[nH+]1 (protonated)
O=C(c1ccccc1)N(Cc1ccccc1)c1cccc[nH+]1 (3D coordinates assigned)
O=C(c1ccccc1)N(Cc1ccccc1)c1cccc[nH+]1 (optimized conformer: 49.4177175342727 kcal/mol)

>  <smiles>  (23) 
O=C(c1ccccc1)N(Cc1ccccc1)c1ccccn1

>  <score_type>  (23) 
oracle

>  <origin>  (23) 
adg

>  <m_score__min__energy>  (23) 
-5.4500000000000002

>  <m_primary>  (23) 
energy

$$$$
23:0
     RDKit          3D

 44 47  0  0  0  0  0  0  0  0999 V2000
   58.9370   34.5990   45.4220 O   0  0  0  0  0  0  0  0  0  0  0  0
   58.3810   33.4920   45.6630 C   0  0  0  0  0  0  0  0  0  0  0  0
   57.0080   33.2290   45.1250 C   0  0  0  0  0  0  0  0  0  0  0  0
   56.7130   31.8350   45.1590 O   0  0  0  0  0  0  0  0  0  0  0  0
   57.4060   30.8820   44.4000 C   0  0  0  0  0  0  0  0  0  0  0  0
   57.9920   31.2250   43.3360 O   0  0  0  0  0  0  0  0  0  0  0  0
   57.4510   29.4730   44.8510 C   0  0  0  0  0  0  0  0  0  0  0  0
   58.6780   28.7900   44.9230 C   0  0  0  0  0  0  0  0  0  0  0  0
   58.7240   27.4590   45.3500 C   0  0  0  0  0  0  0  0  0  0  0  0
   57.5470   26.7980   45.7080 C   0  0  0  0  0  0  0  0  0  0  0  0
   56.3220   27.4650   45.6410 C   0  0  0  0  0  0  0  0  0  0  0  0
   55.1520   26.8050   45.9960 O   0  0  0  0  0  0  0  0  0  0  0  0
   56.2710   28.7960   45.2160 C   0  0  0  0  0  0  0  0  0  0  0  0
   59.0820   32.4660   46.3810 N   0  0  0  0  0  0  0  0  0  0  0  0
   60.2540   32.6990   47.1800 C   0  0  0  0  0  0  0  0  0  0  0  0
   60.3320   33.7830   48.0700 C   0  0  0  0  0  0  0  0  0  0  0  0
   61.4680   33.9690   48.8630 C   0  0  0  0  0  0  0  0  0  0  0  0
   62.5450   33.0680   48.7880 C   0  0  0  0  0  0  0  0  0  0  0  0
   63.7470   33.2600   49.6290 C   0  0  0  0  0  0  0  0  0  0  0  0
   63.7590   34.0630   50.7280 N   0  0  0  0  0  0  0  0  0  0  0  0
   65.0200   33.9450   51.1660 C   0  0  0  0  0  0  0  0  0  0  0  0
   65.6000   34.5600   52.2720 C   0  0  0  0  0  0  0  0  0  0  0  0
   66.9560   34.2850   52.5350 C   0  0  0  0  0  0  0  0  0  0  0  0
   67.6870   33.4140   51.6940 C   0  0  0  0  0  0  0  0  0  0  0  0
   67.0650   32.8110   50.5840 C   0  0  0  0  0  0  0  0  0  0  0  0
   65.7220   33.1060   50.3560 C   0  0  0  0  0  0  0  0  0  0  0  0
   64.9380   32.6540   49.3680 N   0  0  0  0  0  0  0  0  0  0  0  0
   62.4560   31.9720   47.9120 C   0  0  0  0  0  0  0  0  0  0  0  0
   61.3180   31.7880   47.1230 C   0  0  0  0  0  0  0  0  0  0  0  0
   56.2706   33.7693   45.7368 H   0  0  0  0  0  0  0  0  0  0  0  0
   56.9643   33.5748   44.0817 H   0  0  0  0  0  0  0  0  0  0  0  0
   59.6078   29.3060   44.6416 H   0  0  0  0  0  0  0  0  0  0  0  0
   59.6882   26.9323   45.4039 H   0  0  0  0  0  0  0  0  0  0  0  0
   57.5849   25.7510   46.0431 H   0  0  0  0  0  0  0  0  0  0  0  0
   55.3037   29.3175   45.1664 H   0  0  0  0  0  0  0  0  0  0  0  0
   58.7550   31.4800   46.2640 H   0  0  0  0  0  0  0  0  0  0  0  0
   59.4930   34.4906   48.1434 H   0  0  0  0  0  0  0  0  0  0  0  0
   61.5198   34.8261   49.5505 H   0  0  0  0  0  0  0  0  0  0  0  0
   65.0202   35.2363   52.9172 H   0  0  0  0  0  0  0  0  0  0  0  0
   67.4499   34.7508   53.4005 H   0  0  0  0  0  0  0  0  0  0  0  0
   68.7459   33.2068   51.9080 H   0  0  0  0  0  0  0  0  0  0  0  0
   67.6194   32.1312   49.9203 H   0  0  0  0  0  0  0  0  0  0  0  0
   63.2876   31.2549   47.8475 H   0  0  0  0  0  0  0  0  0  0  0  0
   61.2562   30.9198   46.4504 H   0  0  0  0  0  0  0  0  0  0  0  0
  1  2  2  0
  2  3  1  0
  3  4  1  0
  4  5  1  0
  5  6  2  0
  5  7  1  0
  7  8  2  0
  8  9  1  0
  9 10  2  0
 10 11  1  0
 11 12  1  0
 11 13  2  0
  2 14  1  0
 14 15  1  0
 15 16  2  0
 16 17  1  0
 17 18  2  0
 18 19  1  0
 19 20  2  0
 20 21  1  0
 21 22  2  0
 22 23  1  0
 23 24  2  0
 24 25  1  0
 25 26  2  0
 26 27  1  0
 18 28  1  0
 28 29  2  0
 13  7  1  0
 29 15  1  0
 27 19  1  0
 26 21  1  0
  3 30  1  0
  3 31  1  0
  8 32  1  0
  9 33  1  0
 10 34  1  0
 13 35  1  0
 14 36  1  0
 16 37  1  0
 17 38  1  0
 22 39  1  0
 23 40  1  0
 24 41  1  0
 25 42  1  0
 28 43  1  0
 29 44  1  0
M  CHG  2  12  -1  27  -1
M  END
>  <UniqueID>  (24) 
23

>  <SMILES>  (24) 
O=C(COC(=O)c1cccc([O-])c1)Nc1ccc(-c2nc3ccccc3[n-]2)cc1

>  <Energy>  (24) 
85.87508903228952

>  <Genealogy>  (24) 
O=C(COC(=O)c1cccc([O-])c1)Nc1ccc(-c2nc3ccccc3[n-]2)cc1 (protonated)
O=C(COC(=O)c1cccc([O-])c1)Nc1ccc(-c2nc3ccccc3[n-]2)cc1 (3D coordinates assigned)
O=C(COC(=O)c1cccc([O-])c1)Nc1ccc(-c2nc3ccccc3[n-]2)cc1 (optimized conformer: 85.87508903228952 kcal/mol)

>  <smiles>  (24) 
O=C(COC(=O)c1cccc(O)c1)Nc1ccc(-c2nc3ccccc3[nH]2)cc1

>  <score_type>  (24) 
oracle

>  <origin>  (24) 
adg

>  <m_score__min__energy>  (24) 
-12.58

>  <m_primary>  (24) 
energy

$$$$
24:0
     RDKit          3D

 37 39  0  0  0  0  0  0  0  0999 V2000
   58.0870   28.6500   45.7240 C   0  0  0  0  0  0  0  0  0  0  0  0
   58.2580   30.1360   45.6820 C   0  0  0  0  0  0  0  0  0  0  0  0
   57.2700   30.9580   45.2410 N   0  0  0  0  0  0  0  0  0  0  0  0
   57.8020   32.1830   45.3910 C   0  0  0  0  0  0  0  0  0  0  0  0
   57.2120   33.4040   45.0720 C   0  0  0  0  0  0  0  0  0  0  0  0
   57.9630   34.5720   45.2920 C   0  0  0  0  0  0  0  0  0  0  0  0
   59.2740   34.4920   45.8110 C   0  0  0  0  0  0  0  0  0  0  0  0
   59.8430   33.2430   46.1210 C   0  0  0  0  0  0  0  0  0  0  0  0
   59.0630   32.1000   45.9100 C   0  0  0  0  0  0  0  0  0  0  0  0
   59.3600   30.8050   46.1270 N   0  0  0  0  0  0  0  0  0  0  0  0
   60.6060   30.2400   46.6610 C   0  0  0  0  0  0  0  0  0  0  0  0
   60.9440   30.7150   48.1020 C   0  0  0  0  0  0  0  0  0  0  0  0
   62.1680   31.5380   48.3000 N   0  0  0  0  0  0  0  0  0  0  0  0
   63.0650   31.6490   47.1390 C   0  0  0  0  0  0  0  0  0  0  0  0
   63.7680   32.9870   47.2580 C   0  0  0  0  0  0  0  0  0  0  0  0
   62.7870   33.8640   48.0040 C   0  0  0  0  0  0  0  0  0  0  0  0
   61.9310   32.9000   48.8170 C   0  0  0  0  0  0  0  0  0  0  0  0
   58.0484   28.3148   46.7710 H   0  0  0  0  0  0  0  0  0  0  0  0
   57.1512   28.3741   45.2159 H   0  0  0  0  0  0  0  0  0  0  0  0
   58.9357   28.1687   45.2159 H   0  0  0  0  0  0  0  0  0  0  0  0
   56.1926   33.4526   44.6617 H   0  0  0  0  0  0  0  0  0  0  0  0
   57.5267   35.5544   45.0584 H   0  0  0  0  0  0  0  0  0  0  0  0
   59.8542   35.4122   45.9740 H   0  0  0  0  0  0  0  0  0  0  0  0
   60.8668   33.1673   46.5161 H   0  0  0  0  0  0  0  0  0  0  0  0
   60.5138   29.1439   46.6699 H   0  0  0  0  0  0  0  0  0  0  0  0
   61.4207   30.5890   46.0095 H   0  0  0  0  0  0  0  0  0  0  0  0
   60.0898   31.3091   48.4588 H   0  0  0  0  0  0  0  0  0  0  0  0
   61.1463   29.7863   48.6557 H   0  0  0  0  0  0  0  0  0  0  0  0
   62.7190   31.0390   49.0420 H   0  0  0  0  0  0  0  0  0  0  0  0
   63.8012   30.8317   47.1492 H   0  0  0  0  0  0  0  0  0  0  0  0
   62.5024   31.5801   46.1963 H   0  0  0  0  0  0  0  0  0  0  0  0
   64.7061   32.8846   47.8232 H   0  0  0  0  0  0  0  0  0  0  0  0
   64.0418   33.4048   46.2779 H   0  0  0  0  0  0  0  0  0  0  0  0
   63.3195   34.5613   48.6675 H   0  0  0  0  0  0  0  0  0  0  0  0
   62.1811   34.4778   47.3212 H   0  0  0  0  0  0  0  0  0  0  0  0
   62.2150   32.9517   49.8784 H   0  0  0  0  0  0  0  0  0  0  0  0
   60.8668   33.1640   48.7288 H   0  0  0  0  0  0  0  0  0  0  0  0
  1  2  1  0
  2  3  2  0
  3  4  1  0
  4  5  2  0
  5  6  1  0
  6  7  2  0
  7  8  1  0
  8  9  2  0
  9 10  1  0
 10 11  1  0
 11 12  1  0
 12 13  1  0
 13 14  1  0
 14 15  1  0
 15 16  1  0
 16 17  1  0
 10  2  1  0
 17 13  1  0
  9  4  1  0
  1 18  1  0
  1 19  1  0
  1 20  1  0
  5 21  1  0
  6 22  1  0
  7 23  1  0
  8 24  1  0
 11 25  1  0
 11 26  1  0
 12 27  1  0
 12 28  1  0
 13 29  1  0
 14 30  1  0
 14 31  1  0
 15 32  1  0
 15 33  1  0
 16 34  1  0
 16 35  1  0
 17 36  1  0
 17 37  1  0
M  CHG  1  13   1
M  END
>  <UniqueID>  (25) 
24

>  <SMILES>  (25) 
Cc1nc2ccccc2n1CC[NH+]1CCCC1

>  <Energy>  (25) 
82.81371000823363

>  <Genealogy>  (25) 
Cc1nc2ccccc2n1CC[NH+]1CCCC1 (protonated)
Cc1nc2ccccc2n1CC[NH+]1CCCC1 (3D coordinates assigned)
Cc1nc2ccccc2n1CC[NH+]1CCCC1 (nonaromatic ring conformer: 82.81371000823363 kcal/mol)

>  <smiles>  (25) 
Cc1nc2ccccc2n1CCN1CCCC1

>  <score_type>  (25) 
oracle

>  <origin>  (25) 
adg

>  <m_score__min__energy>  (25) 
-4.6799999999999997

>  <m_primary>  (25) 
energy

$$$$
25:0
     RDKit          3D

 32 33  0  0  0  0  0  0  0  0999 V2000
   60.6580   34.5830   47.1420 C   0  0  0  0  0  0  0  0  0  0  0  0
   59.6480   35.1020   46.1230 C   0  0  0  0  0  0  0  0  0  0  0  0
   58.9230   33.9840   45.4210 C   0  0  0  0  0  0  0  0  0  0  0  0
   58.9220   33.8390   44.0660 N   0  0  0  0  0  0  0  0  0  0  0  0
   58.1270   32.7690   43.8720 C   0  0  0  0  0  0  0  0  0  0  0  0
   57.7780   32.1480   42.6730 C   0  0  0  0  0  0  0  0  0  0  0  0
   58.3200   32.6210   41.3570 C   0  0  0  0  0  0  0  0  0  0  0  0
   56.9500   31.0080   42.7620 C   0  0  0  0  0  0  0  0  0  0  0  0
   56.4880   30.5630   44.0280 C   0  0  0  0  0  0  0  0  0  0  0  0
   55.6170   29.3520   44.1240 C   0  0  0  0  0  0  0  0  0  0  0  0
   56.8600   31.2230   45.1680 N   0  0  0  0  0  0  0  0  0  0  0  0
   57.6660   32.3080   45.0620 C   0  0  0  0  0  0  0  0  0  0  0  0
   58.1380   33.0690   46.0590 N   0  0  0  0  0  0  0  0  0  0  0  0
   57.9130   32.8880   47.4940 C   0  0  0  0  0  0  0  0  0  0  0  0
   58.8390   31.8090   48.0410 C   0  0  0  0  0  0  0  0  0  0  0  0
   60.2847   34.7748   48.1588 H   0  0  0  0  0  0  0  0  0  0  0  0
   60.7983   33.5011   47.0010 H   0  0  0  0  0  0  0  0  0  0  0  0
   61.6193   35.0988   47.0010 H   0  0  0  0  0  0  0  0  0  0  0  0
   58.9106   35.7307   46.6436 H   0  0  0  0  0  0  0  0  0  0  0  0
   60.1988   35.6767   45.3638 H   0  0  0  0  0  0  0  0  0  0  0  0
   59.1381   33.3350   41.5327 H   0  0  0  0  0  0  0  0  0  0  0  0
   58.7002   31.7608   40.7865 H   0  0  0  0  0  0  0  0  0  0  0  0
   57.5191   33.1142   40.7865 H   0  0  0  0  0  0  0  0  0  0  0  0
   56.6628   30.4645   41.8498 H   0  0  0  0  0  0  0  0  0  0  0  0
   55.4422   29.1090   45.1825 H   0  0  0  0  0  0  0  0  0  0  0  0
   54.6548   29.5523   43.6301 H   0  0  0  0  0  0  0  0  0  0  0  0
   56.1130   28.5035   43.6301 H   0  0  0  0  0  0  0  0  0  0  0  0
   58.1123   33.8360   48.0152 H   0  0  0  0  0  0  0  0  0  0  0  0
   56.8694   32.5811   47.6572 H   0  0  0  0  0  0  0  0  0  0  0  0
   58.8194   31.8319   49.1406 H   0  0  0  0  0  0  0  0  0  0  0  0
   58.5016   30.8231   47.6887 H   0  0  0  0  0  0  0  0  0  0  0  0
   59.8647   31.9929   47.6887 H   0  0  0  0  0  0  0  0  0  0  0  0
  1  2  1  0
  2  3  1  0
  3  4  2  0
  4  5  1  0
  5  6  2  0
  6  7  1  0
  6  8  1  0
  8  9  2  0
  9 10  1  0
  9 11  1  0
 11 12  2  0
 12 13  1  0
 13 14  1  0
 14 15  1  0
 13  3  1  0
 12  5  1  0
  1 16  1  0
  1 17  1  0
  1 18  1  0
  2 19  1  0
  2 20  1  0
  7 21  1  0
  7 22  1  0
  7 23  1  0
  8 24  1  0
 10 25  1  0
 10 26  1  0
 10 27  1  0
 14 28  1  0
 14 29  1  0
 15 30  1  0
 15 31  1  0
 15 32  1  0
M  END
>  <UniqueID>  (26) 
25

>  <SMILES>  (26) 
CCc1nc2c(C)cc(C)nc2n1CC

>  <Energy>  (26) 
62.719306577084645

>  <Genealogy>  (26) 
CCc1nc2c(C)cc(C)nc2n1CC (3D coordinates assigned)
CCc1nc2c(C)cc(C)nc2n1CC (optimized conformer: 62.719306577084645 kcal/mol)

>  <smiles>  (26) 
CCc1nc2c(C)cc(C)nc2n1CC

>  <score_type>  (26) 
oracle

>  <origin>  (26) 
adg

>  <m_score__min__energy>  (26) 
-6.04

>  <m_primary>  (26) 
energy

$$$$
26:0
     RDKit          3D

 50 53  0  0  0  0  0  0  0  0999 V2000
   59.0820   28.7040   44.4960 C   0  0  0  0  0  0  0  0  0  0  0  0
   57.6180   28.3320   44.6910 C   0  0  0  0  0  0  0  0  0  0  0  0
   56.4970   29.6720   44.2690 S   0  0  0  0  0  0  0  0  0  0  0  0
   55.1550   29.3380   44.8580 O   0  0  0  0  0  0  0  0  0  0  0  0
   56.3550   29.7160   42.7720 O   0  0  0  0  0  0  0  0  0  0  0  0
   56.9610   31.2600   44.8470 N   0  0  0  0  0  0  0  0  0  0  0  0
   57.5870   32.0760   43.8050 C   0  0  0  0  0  0  0  0  0  0  0  0
   58.5250   33.0420   44.5150 C   0  0  1  0  0  0  0  0  0  0  0  0
   57.8420   34.3510   44.9440 C   0  0  0  0  0  0  0  0  0  0  0  0
   58.2920   34.6060   46.3780 C   0  0  0  0  0  0  0  0  0  0  0  0
   58.8390   33.3460   46.8520 N   0  0  0  0  0  0  0  0  0  0  0  0
   59.3910   33.1960   48.1760 C   0  0  0  0  0  0  0  0  0  0  0  0
   59.1410   32.1460   48.8360 O   0  0  0  0  0  0  0  0  0  0  0  0
   60.1830   34.3040   48.8240 C   0  0  0  0  0  0  0  0  0  0  0  0
   61.6190   33.9060   49.0580 C   0  0  0  0  0  0  0  0  0  0  0  0
   62.3060   33.1500   48.0940 C   0  0  0  0  0  0  0  0  0  0  0  0
   63.6300   32.7570   48.3120 C   0  0  0  0  0  0  0  0  0  0  0  0
   64.2840   33.1080   49.5030 C   0  0  0  0  0  0  0  0  0  0  0  0
   65.6150   32.7200   49.7310 C   0  0  0  0  0  0  0  0  0  0  0  0
   66.2550   33.0750   50.9240 C   0  0  0  0  0  0  0  0  0  0  0  0
   65.5740   33.8160   51.8960 C   0  0  0  0  0  0  0  0  0  0  0  0
   64.2480   34.2080   51.6810 C   0  0  0  0  0  0  0  0  0  0  0  0
   63.5950   33.8600   50.4870 C   0  0  0  0  0  0  0  0  0  0  0  0
   62.2640   34.2490   50.2590 C   0  0  0  0  0  0  0  0  0  0  0  0
   58.9160   32.3390   45.8000 C   0  0  1  0  0  0  0  0  0  0  0  0
   57.8770   31.2270   45.9960 C   0  0  0  0  0  0  0  0  0  0  0  0
   59.5631   28.8263   45.4776 H   0  0  0  0  0  0  0  0  0  0  0  0
   59.5913   27.9067   43.9348 H   0  0  0  0  0  0  0  0  0  0  0  0
   59.1489   29.6477   43.9348 H   0  0  0  0  0  0  0  0  0  0  0  0
   57.3872   27.4664   44.0526 H   0  0  0  0  0  0  0  0  0  0  0  0
   57.4736   28.1026   45.7571 H   0  0  0  0  0  0  0  0  0  0  0  0
   58.1536   31.4371   43.1116 H   0  0  0  0  0  0  0  0  0  0  0  0
   56.8311   32.6168   43.2166 H   0  0  0  0  0  0  0  0  0  0  0  0
   59.3515   33.2963   43.8351 H   0  0  0  0  0  0  0  0  0  0  0  0
   58.1566   35.1786   44.2913 H   0  0  0  0  0  0  0  0  0  0  0  0
   56.7468   34.2781   44.8711 H   0  0  0  0  0  0  0  0  0  0  0  0
   59.0617   35.3915   46.4039 H   0  0  0  0  0  0  0  0  0  0  0  0
   57.4583   34.9480   47.0089 H   0  0  0  0  0  0  0  0  0  0  0  0
   60.1610   35.1872   48.1686 H   0  0  0  0  0  0  0  0  0  0  0  0
   59.7265   34.5234   49.8004 H   0  0  0  0  0  0  0  0  0  0  0  0
   61.7986   32.8650   47.1606 H   0  0  0  0  0  0  0  0  0  0  0  0
   64.1608   32.1707   47.5474 H   0  0  0  0  0  0  0  0  0  0  0  0
   66.1548   32.1364   48.9708 H   0  0  0  0  0  0  0  0  0  0  0  0
   67.2975   32.7702   51.0981 H   0  0  0  0  0  0  0  0  0  0  0  0
   66.0824   34.0912   52.8318 H   0  0  0  0  0  0  0  0  0  0  0  0
   63.7161   34.7897   52.4483 H   0  0  0  0  0  0  0  0  0  0  0  0
   61.7238   34.8252   51.0247 H   0  0  0  0  0  0  0  0  0  0  0  0
   59.9248   31.9004   45.7985 H   0  0  0  0  0  0  0  0  0  0  0  0
   58.3797   30.2498   46.0458 H   0  0  0  0  0  0  0  0  0  0  0  0
   57.3227   31.3802   46.9337 H   0  0  0  0  0  0  0  0  0  0  0  0
  1  2  1  0
  2  3  1  0
  3  4  2  0
  3  5  2  0
  3  6  1  0
  6  7  1  0
  7  8  1  0
  8  9  1  0
  9 10  1  0
 10 11  1  0
 11 12  1  0
 12 13  2  0
 12 14  1  0
 14 15  1  0
 15 16  2  0
 16 17  1  0
 17 18  2  0
 18 19  1  0
 19 20  2  0
 20 21  1  0
 21 22  2  0
 22 23  1  0
 23 24  2  0
 11 25  1  0
 25 26  1  0
 26  6  1  0
 25  8  1  0
 24 15  1  0
 23 18  1  0
  1 27  1  0
  1 28  1  0
  1 29  1  0
  2 30  1  0
  2 31  1  0
  7 32  1  0
  7 33  1  0
  8 34  1  6
  9 35  1  0
  9 36  1  0
 10 37  1  0
 10 38  1  0
 14 39  1  0
 14 40  1  0
 16 41  1  0
 17 42  1  0
 19 43  1  0
 20 44  1  0
 21 45  1  0
 22 46  1  0
 24 47  1  0
 25 48  1  6
 26 49  1  0
 26 50  1  0
M  END
>  <UniqueID>  (27) 
26

>  <SMILES>  (27) 
CCS(=O)(=O)N1C[C@H]2CCN(C(=O)Cc3ccc4ccccc4c3)[C@H]2C1

>  <Energy>  (27) 
53.1601274762605

>  <Genealogy>  (27) 
CCS(=O)(=O)N1C[C@H]2CCN(C(=O)Cc3ccc4ccccc4c3)[C@H]2C1 (chirality)
CCS(=O)(=O)N1C[C@H]2CCN(C(=O)Cc3ccc4ccccc4c3)[C@H]2C1 (3D coordinates assigned)
CCS(=O)(=O)N1C[C@H]2CCN(C(=O)Cc3ccc4ccccc4c3)[C@H]2C1 (nonaromatic ring conformer: 53.1601274762605 kcal/mol)

>  <smiles>  (27) 
CCS(=O)(=O)N1CC2CCN(C(=O)Cc3ccc4ccccc4c3)C2C1

>  <score_type>  (27) 
oracle

>  <origin>  (27) 
adg

>  <m_score__min__energy>  (27) 
-9.8900000000000006

>  <m_primary>  (27) 
energy

$$$$
27:0
     RDKit          3D

 34 35  0  0  0  0  0  0  0  0999 V2000
   55.4850   29.3390   44.9360 N   0  0  0  0  0  0  0  0  0  0  0  0
   57.2060   29.4120   45.0910 S   0  0  0  0  0  0  0  0  0  0  0  0
   57.5990   28.8100   46.4100 O   0  0  0  0  0  0  0  0  0  0  0  0
   57.8230   28.6190   43.9730 O   0  0  0  0  0  0  0  0  0  0  0  0
   57.7790   31.0840   45.0170 C   0  0  0  0  0  0  0  0  0  0  0  0
   58.3500   31.6740   46.1570 C   0  0  0  0  0  0  0  0  0  0  0  0
   58.8080   33.0040   46.1320 C   0  0  0  0  0  0  0  0  0  0  0  0
   59.4120   33.5960   47.3570 C   0  0  0  0  0  0  0  0  0  0  0  0
   58.8830   34.6290   47.8550 O   0  0  0  0  0  0  0  0  0  0  0  0
   60.5720   33.0080   48.0010 N   0  0  0  0  0  0  0  0  0  0  0  0
   61.5400   32.4870   46.9910 C   0  0  0  0  0  0  0  0  0  0  0  0
   62.7060   33.4520   46.7300 C   0  0  0  0  0  0  0  0  0  0  0  0
   63.4970   33.7260   48.0210 C   0  0  0  0  0  0  0  0  0  0  0  0
   62.6180   33.6550   49.2830 C   0  0  0  0  0  0  0  0  0  0  0  0
   61.1570   33.9870   48.9560 C   0  0  0  0  0  0  0  0  0  0  0  0
   58.7060   33.7340   44.9350 C   0  0  0  0  0  0  0  0  0  0  0  0
   58.1450   33.1510   43.7970 C   0  0  0  0  0  0  0  0  0  0  0  0
   57.6800   31.8340   43.8280 C   0  0  0  0  0  0  0  0  0  0  0  0
   56.9950   31.1580   42.3540 Cl  0  0  0  0  0  0  0  0  0  0  0  0
   55.1440   28.6280   45.6210 H   0  0  0  0  0  0  0  0  0  0  0  0
   58.4403   31.0872   47.0830 H   0  0  0  0  0  0  0  0  0  0  0  0
   60.2630   32.1740   48.5530 H   0  0  0  0  0  0  0  0  0  0  0  0
   61.9485   31.5329   47.3554 H   0  0  0  0  0  0  0  0  0  0  0  0
   60.9949   32.3627   46.0437 H   0  0  0  0  0  0  0  0  0  0  0  0
   63.3801   33.0074   45.9830 H   0  0  0  0  0  0  0  0  0  0  0  0
   62.2961   34.4043   46.3623 H   0  0  0  0  0  0  0  0  0  0  0  0
   64.2987   32.9778   48.1080 H   0  0  0  0  0  0  0  0  0  0  0  0
   63.8994   34.7475   47.9535 H   0  0  0  0  0  0  0  0  0  0  0  0
   62.6709   32.6390   49.7012 H   0  0  0  0  0  0  0  0  0  0  0  0
   62.9899   34.3916   50.0104 H   0  0  0  0  0  0  0  0  0  0  0  0
   60.5708   33.9715   49.8866 H   0  0  0  0  0  0  0  0  0  0  0  0
   61.1273   34.9824   48.4887 H   0  0  0  0  0  0  0  0  0  0  0  0
   59.0705   34.7711   44.8946 H   0  0  0  0  0  0  0  0  0  0  0  0
   58.0685   33.7341   42.8674 H   0  0  0  0  0  0  0  0  0  0  0  0
  1  2  1  0
  2  3  2  0
  2  4  2  0
  2  5  1  0
  5  6  2  0
  6  7  1  0
  7  8  1  0
  8  9  2  0
  8 10  1  0
 10 11  1  0
 11 12  1  0
 12 13  1  0
 13 14  1  0
 14 15  1  0
  7 16  2  0
 16 17  1  0
 17 18  2  0
 18 19  1  0
 18  5  1  0
 15 10  1  0
  1 20  1  0
  6 21  1  0
 10 22  1  0
 11 23  1  0
 11 24  1  0
 12 25  1  0
 12 26  1  0
 13 27  1  0
 13 28  1  0
 14 29  1  0
 14 30  1  0
 15 31  1  0
 15 32  1  0
 16 33  1  0
 17 34  1  0
M  CHG  2   1  -1  10   1
M  END
>  <UniqueID>  (28) 
27

>  <SMILES>  (28) 
[NH-]S(=O)(=O)c1cc(C(=O)[NH+]2CCCCC2)ccc1Cl

>  <Energy>  (28) 
46.41311425697265

>  <Genealogy>  (28) 
[NH-]S(=O)(=O)c1cc(C(=O)[NH+]2CCCCC2)ccc1Cl (protonated)
[NH-]S(=O)(=O)c1cc(C(=O)[NH+]2CCCCC2)ccc1Cl (3D coordinates assigned)
[NH-]S(=O)(=O)c1cc(C(=O)[NH+]2CCCCC2)ccc1Cl (nonaromatic ring conformer: 46.41311425697265 kcal/mol)

>  <smiles>  (28) 
NS(=O)(=O)c1cc(C(=O)N2CCCCC2)ccc1Cl

>  <score_type>  (28) 
oracle

>  <origin>  (28) 
adg

>  <m_score__min__energy>  (28) 
-9.7799999999999994

>  <m_primary>  (28) 
energy

$$$$
28:0
     RDKit          3D

 60 63  0  0  0  0  0  0  0  0999 V2000
   60.1360   33.9080   54.5130 C   0  0  0  0  0  0  0  0  0  0  0  0
   59.2830   34.3250   53.4540 O   0  0  0  0  0  0  0  0  0  0  0  0
   58.9640   33.5370   52.3370 C   0  0  0  0  0  0  0  0  0  0  0  0
   58.1640   32.4050   52.5300 C   0  0  0  0  0  0  0  0  0  0  0  0
   57.8180   31.5770   51.4440 C   0  0  0  0  0  0  0  0  0  0  0  0
   57.0060   30.4430   51.5920 O   0  0  0  0  0  0  0  0  0  0  0  0
   55.8160   30.4030   52.3750 C   0  0  0  0  0  0  0  0  0  0  0  0
   58.2930   31.8900   50.1660 C   0  0  0  0  0  0  0  0  0  0  0  0
   59.0930   33.0210   49.9590 C   0  0  0  0  0  0  0  0  0  0  0  0
   59.5880   33.3340   48.6430 N   0  0  0  0  0  0  0  0  0  0  0  0
   60.7670   34.2070   48.5240 C   0  0  0  0  0  0  0  0  0  0  0  0
   61.6040   33.8340   47.2950 C   0  0  0  0  0  0  0  0  0  0  0  0
   62.8790   33.2390   47.7110 N   0  0  0  0  0  0  0  0  0  0  0  0
   62.6870   31.8480   48.1360 C   0  0  0  0  0  0  0  0  0  0  0  0
   62.8710   31.7220   49.6470 C   0  0  0  0  0  0  0  0  0  0  0  0
   62.6600   32.9470   50.2580 F   0  0  0  0  0  0  0  0  0  0  0  0
   61.9610   30.8090   50.1460 F   0  0  0  0  0  0  0  0  0  0  0  0
   64.1540   31.2840   49.9350 F   0  0  0  0  0  0  0  0  0  0  0  0
   58.8520   32.8880   47.4770 C   0  0  0  0  0  0  0  0  0  0  0  0
   58.0550   33.7790   46.7270 C   0  0  0  0  0  0  0  0  0  0  0  0
   57.3440   33.3330   45.6070 C   0  0  0  0  0  0  0  0  0  0  0  0
   57.4150   31.9930   45.2230 C   0  0  0  0  0  0  0  0  0  0  0  0
   56.7250   31.5430   44.1420 N   0  0  0  0  0  0  0  0  0  0  0  0
   56.7860   30.2400   43.7590 C   0  0  0  0  0  0  0  0  0  0  0  0
   57.5740   29.3360   44.4920 C   0  0  0  0  0  0  0  0  0  0  0  0
   57.6750   27.9110   44.1180 C   0  0  0  0  0  0  0  0  0  0  0  0
   57.7760   27.3990   42.8350 C   0  0  0  0  0  0  0  0  0  0  0  0
   57.8210   26.0540   42.8920 N   0  0  0  0  0  0  0  0  0  0  0  0
   57.7650   25.7070   44.1670 N   0  0  0  0  0  0  0  0  0  0  0  0
   57.7220   24.3270   44.6320 C   0  0  0  0  0  0  0  0  0  0  0  0
   57.6640   26.8020   44.9430 C   0  0  0  0  0  0  0  0  0  0  0  0
   58.2620   29.7910   45.5750 N   0  0  0  0  0  0  0  0  0  0  0  0
   58.2040   31.0920   45.9600 C   0  0  0  0  0  0  0  0  0  0  0  0
   58.9200   31.5380   47.0750 C   0  0  0  0  0  0  0  0  0  0  0  0
   59.4220   33.8450   51.0440 C   0  0  0  0  0  0  0  0  0  0  0  0
   59.6622   34.1396   55.4783 H   0  0  0  0  0  0  0  0  0  0  0  0
   60.3083   32.8240   54.4399 H   0  0  0  0  0  0  0  0  0  0  0  0
   61.0972   34.4378   54.4399 H   0  0  0  0  0  0  0  0  0  0  0  0
   57.8019   32.1594   53.5393 H   0  0  0  0  0  0  0  0  0  0  0  0
   56.0793   30.4119   53.4430 H   0  0  0  0  0  0  0  0  0  0  0  0
   55.1949   31.2808   52.1432 H   0  0  0  0  0  0  0  0  0  0  0  0
   55.2552   29.4855   52.1432 H   0  0  0  0  0  0  0  0  0  0  0  0
   58.0358   31.2417   49.3154 H   0  0  0  0  0  0  0  0  0  0  0  0
   60.4336   35.2510   48.4290 H   0  0  0  0  0  0  0  0  0  0  0  0
   61.3885   34.0816   49.4229 H   0  0  0  0  0  0  0  0  0  0  0  0
   61.0474   33.1090   46.6829 H   0  0  0  0  0  0  0  0  0  0  0  0
   61.8065   34.7431   46.7097 H   0  0  0  0  0  0  0  0  0  0  0  0
   63.2310   33.7870   48.5320 H   0  0  0  0  0  0  0  0  0  0  0  0
   61.6710   31.5237   47.8664 H   0  0  0  0  0  0  0  0  0  0  0  0
   63.4323   31.2151   47.6321 H   0  0  0  0  0  0  0  0  0  0  0  0
   57.9919   34.8357   47.0260 H   0  0  0  0  0  0  0  0  0  0  0  0
   56.7291   34.0387   45.0292 H   0  0  0  0  0  0  0  0  0  0  0  0
   56.2216   29.8950   42.8801 H   0  0  0  0  0  0  0  0  0  0  0  0
   57.8136   27.9977   41.9129 H   0  0  0  0  0  0  0  0  0  0  0  0
   57.7215   24.3105   45.7319 H   0  0  0  0  0  0  0  0  0  0  0  0
   56.8083   23.8422   44.2576 H   0  0  0  0  0  0  0  0  0  0  0  0
   58.6037   23.7863   44.2576 H   0  0  0  0  0  0  0  0  0  0  0  0
   57.5864   26.8125   46.0402 H   0  0  0  0  0  0  0  0  0  0  0  0
   59.5414   30.8302   47.6432 H   0  0  0  0  0  0  0  0  0  0  0  0
   60.0427   34.7387   50.8828 H   0  0  0  0  0  0  0  0  0  0  0  0
  1  2  1  0
  2  3  1  0
  3  4  2  0
  4  5  1  0
  5  6  1  0
  6  7  1  0
  5  8  2  0
  8  9  1  0
  9 10  1  0
 10 11  1  0
 11 12  1  0
 12 13  1  0
 13 14  1  0
 14 15  1  0
 15 16  1  0
 15 17  1  0
 15 18  1  0
 10 19  1  0
 19 20  2  0
 20 21  1  0
 21 22  2  0
 22 23  1  0
 23 24  2  0
 24 25  1  0
 25 26  1  0
 26 27  1  0
 27 28  2  0
 28 29  1  0
 29 30  1  0
 29 31  1  0
 25 32  2  0
 32 33  1  0
 33 34  2  0
  9 35  2  0
 35  3  1  0
 34 19  1  0
 33 22  1  0
 31 26  2  0
  1 36  1  0
  1 37  1  0
  1 38  1  0
  4 39  1  0
  7 40  1  0
  7 41  1  0
  7 42  1  0
  8 43  1  0
 11 44  1  0
 11 45  1  0
 12 46  1  0
 12 47  1  0
 13 48  1  0
 14 49  1  0
 14 50  1  0
 20 51  1  0
 21 52  1  0
 24 53  1  0
 27 54  1  0
 30 55  1  0
 30 56  1  0
 30 57  1  0
 31 58  1  0
 34 59  1  0
 35 60  1  0
M  END
>  <UniqueID>  (29) 
28

>  <SMILES>  (29) 
COc1cc(OC)cc(N(CCNCC(F)(F)F)c2ccc3ncc(-c4cnn(C)c4)nc3c2)c1

>  <Energy>  (29) 
97.14388506654109

>  <Genealogy>  (29) 
COc1cc(OC)cc(N(CCNCC(F)(F)F)c2ccc3ncc(-c4cnn(C)c4)nc3c2)c1 (3D coordinates assigned)
COc1cc(OC)cc(N(CCNCC(F)(F)F)c2ccc3ncc(-c4cnn(C)c4)nc3c2)c1 (optimized conformer: 97.14388506654109 kcal/mol)

>  <smiles>  (29) 
COc1cc(OC)cc(N(CCNCC(F)(F)F)c2ccc3ncc(-c4cnn(C)c4)nc3c2)c1

>  <score_type>  (29) 
oracle

>  <origin>  (29) 
adg

>  <m_score__min__energy>  (29) 
-7.4699999999999998

>  <m_primary>  (29) 
energy

$$$$
29:0
     RDKit          3D

 64 67  0  0  0  0  0  0  0  0999 V2000
   57.4450   31.5570   43.8250 C   0  0  0  0  0  0  0  0  0  0  0  0
   57.7990   30.5210   44.8700 C   0  0  0  0  0  0  0  0  0  0  0  0
   58.6270   30.7990   45.9220 C   0  0  0  0  0  0  0  0  0  0  0  0
   59.2800   32.1740   46.0070 C   0  0  0  0  0  0  0  0  0  0  0  0
   59.9630   32.4920   47.3490 C   0  0  2  0  0  0  0  0  0  0  0  0
   60.6150   33.9580   47.4700 C   0  0  0  0  0  0  0  0  0  0  0  0
   59.9160   34.7450   48.6140 C   0  0  0  0  0  0  0  0  0  0  0  0
   60.4390   34.8130   46.1860 C   0  0  0  0  0  0  0  0  0  0  0  0
   62.1390   33.9320   47.7800 C   0  0  0  0  0  0  0  0  0  0  0  0
   62.5770   32.9340   48.8640 C   0  0  0  0  0  0  0  0  0  0  0  0
   61.6090   31.7660   49.1060 C   0  0  0  0  0  0  0  0  0  0  0  0
   60.8400   31.2850   47.8350 C   0  0  2  0  0  0  0  0  0  0  0  0
   61.8860   30.8780   46.7470 C   0  0  0  0  0  0  0  0  0  0  0  0
   59.8780   30.0300   48.1600 C   0  0  1  0  0  0  0  0  0  0  0  0
   60.7360   28.7670   48.5340 C   0  0  0  0  0  0  0  0  0  0  0  0
   58.9490   30.3440   49.3960 C   0  0  0  0  0  0  0  0  0  0  0  0
   58.6920   29.3750   50.4020 C   0  0  0  0  0  0  0  0  0  0  0  0
   57.8780   29.6550   51.5020 C   0  0  0  0  0  0  0  0  0  0  0  0
   57.2940   30.9180   51.6570 C   0  0  0  0  0  0  0  0  0  0  0  0
   56.4590   31.2020   52.7940 N   0  0  0  0  0  0  0  0  0  0  0  0
   56.9620   31.5310   53.8890 O   0  0  0  0  0  0  0  0  0  0  0  0
   55.0890   31.1170   52.6940 O   0  0  0  0  0  0  0  0  0  0  0  0
   57.5510   31.8990   50.6920 C   0  0  0  0  0  0  0  0  0  0  0  0
   58.3630   31.6220   49.5910 C   0  0  0  0  0  0  0  0  0  0  0  0
   58.9560   29.6500   46.8920 C   0  0  2  0  0  0  0  0  0  0  0  0
   59.3590   28.3920   46.0530 C   0  0  0  0  0  0  0  0  0  0  0  0
   58.4220   28.1020   44.8510 C   0  0  0  0  0  0  0  0  0  0  0  0
   57.2730   29.1090   44.6900 C   0  0  1  0  0  0  0  0  0  0  0  0
   56.2640   28.8410   45.6280 O   0  0  0  0  0  0  0  0  0  0  0  0
   57.1277   32.4856   44.3220 H   0  0  0  0  0  0  0  0  0  0  0  0
   58.3249   31.7596   43.1967 H   0  0  0  0  0  0  0  0  0  0  0  0
   56.6251   31.1788   43.1967 H   0  0  0  0  0  0  0  0  0  0  0  0
   60.0398   32.2397   45.2142 H   0  0  0  0  0  0  0  0  0  0  0  0
   58.4665   32.9062   45.8969 H   0  0  0  0  0  0  0  0  0  0  0  0
   59.1632   32.5915   48.0976 H   0  0  0  0  0  0  0  0  0  0  0  0
   60.2579   34.3600   49.5860 H   0  0  0  0  0  0  0  0  0  0  0  0
   60.1692   35.8124   48.5327 H   0  0  0  0  0  0  0  0  0  0  0  0
   58.8262   34.6195   48.5327 H   0  0  0  0  0  0  0  0  0  0  0  0
   60.2245   35.8550   46.4659 H   0  0  0  0  0  0  0  0  0  0  0  0
   61.3636   34.7760   45.5912 H   0  0  0  0  0  0  0  0  0  0  0  0
   59.6042   34.4138   45.5912 H   0  0  0  0  0  0  0  0  0  0  0  0
   62.6696   33.6774   46.8507 H   0  0  0  0  0  0  0  0  0  0  0  0
   62.3845   34.9302   48.1716 H   0  0  0  0  0  0  0  0  0  0  0  0
   63.5496   32.5143   48.5674 H   0  0  0  0  0  0  0  0  0  0  0  0
   62.6126   33.5016   49.8056 H   0  0  0  0  0  0  0  0  0  0  0  0
   62.1874   30.9168   49.4989 H   0  0  0  0  0  0  0  0  0  0  0  0
   60.8480   32.1327   49.8106 H   0  0  0  0  0  0  0  0  0  0  0  0
   62.8041   30.5208   47.2365 H   0  0  0  0  0  0  0  0  0  0  0  0
   61.4693   30.0764   46.1195 H   0  0  0  0  0  0  0  0  0  0  0  0
   62.1207   31.7504   46.1195 H   0  0  0  0  0  0  0  0  0  0  0  0
   60.7975   28.6765   49.6285 H   0  0  0  0  0  0  0  0  0  0  0  0
   60.2625   27.8657   48.1176 H   0  0  0  0  0  0  0  0  0  0  0  0
   61.7484   28.8751   48.1176 H   0  0  0  0  0  0  0  0  0  0  0  0
   59.1462   28.3772   50.3125 H   0  0  0  0  0  0  0  0  0  0  0  0
   57.6937   28.8745   52.2549 H   0  0  0  0  0  0  0  0  0  0  0  0
   57.1079   32.8997   50.8027 H   0  0  0  0  0  0  0  0  0  0  0  0
   58.5541   32.4160   48.8541 H   0  0  0  0  0  0  0  0  0  0  0  0
   58.0474   29.3870   47.4535 H   0  0  0  0  0  0  0  0  0  0  0  0
   60.3774   28.5466   45.6670 H   0  0  0  0  0  0  0  0  0  0  0  0
   59.2855   27.5259   46.7271 H   0  0  0  0  0  0  0  0  0  0  0  0
   59.0257   28.1177   43.9316 H   0  0  0  0  0  0  0  0  0  0  0  0
   57.9591   27.1224   45.0407 H   0  0  0  0  0  0  0  0  0  0  0  0
   56.8476   29.0138   43.6801 H   0  0  0  0  0  0  0  0  0  0  0  0
   55.9330   29.7200   45.9510 H   0  0  0  0  0  0  0  0  0  0  0  0
  1  2  1  0
  2  3  2  0
  3  4  1  0
  4  5  1  0
  5  6  1  0
  6  7  1  0
  6  8  1  0
  6  9  1  0
  9 10  1  0
 10 11  1  0
 11 12  1  0
 12 13  1  6
 12 14  1  0
 14 15  1  1
 14 16  1  0
 16 17  2  0
 17 18  1  0
 18 19  2  0
 19 20  1  0
 20 21  2  0
 20 22  1  0
 19 23  1  0
 23 24  2  0
 14 25  1  0
 25 26  1  0
 26 27  1  0
 27 28  1  0
 28 29  1  0
 28  2  1  0
 25  3  1  0
 12  5  1  0
 24 16  1  0
  1 30  1  0
  1 31  1  0
  1 32  1  0
  4 33  1  0
  4 34  1  0
  5 35  1  1
  7 36  1  0
  7 37  1  0
  7 38  1  0
  8 39  1  0
  8 40  1  0
  8 41  1  0
  9 42  1  0
  9 43  1  0
 10 44  1  0
 10 45  1  0
 11 46  1  0
 11 47  1  0
 13 48  1  0
 13 49  1  0
 13 50  1  0
 15 51  1  0
 15 52  1  0
 15 53  1  0
 17 54  1  0
 18 55  1  0
 23 56  1  0
 24 57  1  0
 25 58  1  1
 26 59  1  0
 26 60  1  0
 27 61  1  0
 27 62  1  0
 28 63  1  6
 29 64  1  0
M  CHG  2  20   1  22  -1
M  END
>  <UniqueID>  (30) 
29

>  <SMILES>  (30) 
CC1=C2C[C@@H]3C(C)(C)CCC[C@@]3(C)C(C)(c3ccc([N+](=O)[O-])cc3)C2CCC1O

>  <Energy>  (30) 
122.2558270287316

>  <Genealogy>  (30) 
CC1=C2C[C@@H]3C(C)(C)CCC[C@@]3(C)C(C)(c3ccc([N+](=O)[O-])cc3)C2CCC1O (chirality)
CC1=C2C[C@@H]3C(C)(C)CCC[C@@]3(C)C(C)(c3ccc([N+](=O)[O-])cc3)C2CCC1O (3D coordinates assigned)
CC1=C2C[C@@H]3C(C)(C)CCC[C@@]3(C)C(C)(c3ccc([N+](=O)[O-])cc3)C2CCC1O (nonaromatic ring conformer: 122.2558270287316 kcal/mol)

>  <smiles>  (30) 
CC1=C2CC3C(C)(C)CCCC3(C)C(C)(c3ccc([N+](=O)[O-])cc3)C2CCC1O

>  <score_type>  (30) 
oracle

>  <origin>  (30) 
adg

>  <m_score__min__energy>  (30) 
-8.8399999999999999

>  <m_primary>  (30) 
energy

$$$$
30:0
     RDKit          3D

 47 50  0  0  0  0  0  0  0  0999 V2000
   59.1830   23.5240   45.8920 F   0  0  0  0  0  0  0  0  0  0  0  0
   58.3280   23.1800   44.8960 C   0  0  0  0  0  0  0  0  0  0  0  0
   58.3610   21.8670   44.4130 C   0  0  0  0  0  0  0  0  0  0  0  0
   57.5000   21.4710   43.3880 C   0  0  0  0  0  0  0  0  0  0  0  0
   56.6020   22.3870   42.8400 C   0  0  0  0  0  0  0  0  0  0  0  0
   56.5620   23.7010   43.3150 C   0  0  0  0  0  0  0  0  0  0  0  0
   57.4240   24.1160   44.3490 C   0  0  0  0  0  0  0  0  0  0  0  0
   57.3750   25.5140   44.8490 C   0  0  0  0  0  0  0  0  0  0  0  0
   57.7850   26.5860   44.1320 N   0  0  0  0  0  0  0  0  0  0  0  0
   57.6340   27.7550   44.8120 C   0  0  0  0  0  0  0  0  0  0  0  0
   58.0180   29.0700   44.2030 C   0  0  0  0  0  0  0  0  0  0  0  0
   57.5330   30.1840   45.0420 N   0  0  0  0  0  0  0  0  0  0  0  0
   58.4040   30.4150   46.2270 C   0  0  0  0  0  0  0  0  0  0  0  0
   59.3690   31.5940   46.0310 C   0  0  0  0  0  0  0  0  0  0  0  0
   58.6060   32.9370   45.7920 C   0  0  0  0  0  0  0  0  0  0  0  0
   58.3280   33.6440   47.1550 C   0  0  0  0  0  0  0  0  0  0  0  0
   59.4620   34.6180   47.5160 C   0  0  0  0  0  0  0  0  0  0  0  0
   59.6240   35.6830   46.5850 O   0  0  0  0  0  0  0  0  0  0  0  0
   59.2680   35.3440   45.2480 C   0  0  0  0  0  0  0  0  0  0  0  0
   59.4920   33.8630   44.9020 C   0  0  0  0  0  0  0  0  0  0  0  0
   57.2420   32.6590   45.0810 C   0  0  0  0  0  0  0  0  0  0  0  0
   57.3060   31.3950   44.2170 C   0  0  0  0  0  0  0  0  0  0  0  0
   57.1000   27.6330   46.0910 C   0  0  0  0  0  0  0  0  0  0  0  0
   56.8100   26.0010   46.3620 S   0  0  0  0  0  0  0  0  0  0  0  0
   59.0690   21.1433   44.8432 H   0  0  0  0  0  0  0  0  0  0  0  0
   57.5297   20.4374   43.0128 H   0  0  0  0  0  0  0  0  0  0  0  0
   55.9238   22.0746   42.0322 H   0  0  0  0  0  0  0  0  0  0  0  0
   55.8511   24.4174   42.8775 H   0  0  0  0  0  0  0  0  0  0  0  0
   59.1136   29.1266   44.1225 H   0  0  0  0  0  0  0  0  0  0  0  0
   57.5624   29.1489   43.2049 H   0  0  0  0  0  0  0  0  0  0  0  0
   57.7655   30.6236   47.0981 H   0  0  0  0  0  0  0  0  0  0  0  0
   59.0107   29.5095   46.3757 H   0  0  0  0  0  0  0  0  0  0  0  0
   59.9943   31.6952   46.9303 H   0  0  0  0  0  0  0  0  0  0  0  0
   59.9836   31.3879   45.1423 H   0  0  0  0  0  0  0  0  0  0  0  0
   57.3835   34.2033   47.0833 H   0  0  0  0  0  0  0  0  0  0  0  0
   58.2645   32.8760   47.9399 H   0  0  0  0  0  0  0  0  0  0  0  0
   59.2457   35.0510   48.5038 H   0  0  0  0  0  0  0  0  0  0  0  0
   60.3970   34.0386   47.5053 H   0  0  0  0  0  0  0  0  0  0  0  0
   58.2026   35.5765   45.1034 H   0  0  0  0  0  0  0  0  0  0  0  0
   59.9211   35.9300   44.5846 H   0  0  0  0  0  0  0  0  0  0  0  0
   59.2350   33.6983   43.8452 H   0  0  0  0  0  0  0  0  0  0  0  0
   60.5483   33.6175   45.0863 H   0  0  0  0  0  0  0  0  0  0  0  0
   56.4606   32.5308   45.8445 H   0  0  0  0  0  0  0  0  0  0  0  0
   57.0138   33.5131   44.4264 H   0  0  0  0  0  0  0  0  0  0  0  0
   56.3557   31.2847   43.6740 H   0  0  0  0  0  0  0  0  0  0  0  0
   58.1476   31.4981   43.5163 H   0  0  0  0  0  0  0  0  0  0  0  0
   56.9037   28.4547   46.7955 H   0  0  0  0  0  0  0  0  0  0  0  0
  1  2  1  0
  2  3  2  0
  3  4  1  0
  4  5  2  0
  5  6  1  0
  6  7  2  0
  7  8  1  0
  8  9  2  0
  9 10  1  0
 10 11  1  0
 11 12  1  0
 12 13  1  0
 13 14  1  0
 14 15  1  0
 15 16  1  0
 16 17  1  0
 17 18  1  0
 18 19  1  0
 19 20  1  0
 15 21  1  0
 21 22  1  0
 10 23  2  0
 23 24  1  0
  7  2  1  0
 24  8  1  0
 22 12  1  0
 20 15  1  0
  3 25  1  0
  4 26  1  0
  5 27  1  0
  6 28  1  0
 11 29  1  0
 11 30  1  0
 13 31  1  0
 13 32  1  0
 14 33  1  0
 14 34  1  0
 16 35  1  0
 16 36  1  0
 17 37  1  0
 17 38  1  0
 19 39  1  0
 19 40  1  0
 20 41  1  0
 20 42  1  0
 21 43  1  0
 21 44  1  0
 22 45  1  0
 22 46  1  0
 23 47  1  0
M  END
>  <UniqueID>  (31) 
30

>  <SMILES>  (31) 
Fc1ccccc1-c1nc(CN2CCC3(CCOCC3)CC2)cs1

>  <Energy>  (31) 
102.17975367502888

>  <Genealogy>  (31) 
Fc1ccccc1-c1nc(CN2CCC3(CCOCC3)CC2)cs1 (3D coordinates assigned)
Fc1ccccc1-c1nc(CN2CCC3(CCOCC3)CC2)cs1 (nonaromatic ring conformer: 102.17975367502888 kcal/mol)

>  <smiles>  (31) 
Fc1ccccc1-c1nc(CN2CCC3(CCOCC3)CC2)cs1

>  <score_type>  (31) 
oracle

>  <origin>  (31) 
adg

>  <m_score__min__energy>  (31) 
-8.6799999999999997

>  <m_primary>  (31) 
energy

$$$$
31:0
     RDKit          3D

 31 32  0  0  0  0  0  0  0  0999 V2000
   57.0550   31.1770   42.5500 C   0  0  0  0  0  0  0  0  0  0  0  0
   56.5000   30.4300   43.5910 C   0  0  0  0  0  0  0  0  0  0  0  0
   56.6850   30.8190   44.8810 N   0  0  0  0  0  0  0  0  0  0  0  0
   57.4020   31.9300   45.1970 C   0  0  0  0  0  0  0  0  0  0  0  0
   57.9730   32.7130   44.1830 C   0  0  0  0  0  0  0  0  0  0  0  0
   58.8080   33.9210   44.5160 C   0  0  0  0  0  0  0  0  0  0  0  0
   59.4900   33.7500   45.8080 N   0  0  0  0  0  0  0  0  0  0  0  0
   59.4260   34.9590   46.6480 C   0  0  0  0  0  0  0  0  0  0  0  0
   59.5860   34.5770   48.1230 C   0  0  0  0  0  0  0  0  0  0  0  0
   60.2790   33.2210   48.2730 C   0  0  0  0  0  0  0  0  0  0  0  0
   61.6940   33.3450   47.9410 N   0  0  0  0  0  0  0  0  0  0  0  0
   62.6760   33.7870   48.7430 C   0  0  0  0  0  0  0  0  0  0  0  0
   63.8510   33.8400   48.0880 N   0  0  0  0  0  0  0  0  0  0  0  0
   63.5140   33.4140   46.8500 C   0  0  0  0  0  0  0  0  0  0  0  0
   62.2040   33.1170   46.7440 N   0  0  0  0  0  0  0  0  0  0  0  0
   57.7970   32.3210   42.8490 C   0  0  0  0  0  0  0  0  0  0  0  0
   56.9090   30.8671   41.5047 H   0  0  0  0  0  0  0  0  0  0  0  0
   55.9131   29.5268   43.3677 H   0  0  0  0  0  0  0  0  0  0  0  0
   57.5347   32.2157   46.2509 H   0  0  0  0  0  0  0  0  0  0  0  0
   59.5615   34.0659   43.7278 H   0  0  0  0  0  0  0  0  0  0  0  0
   58.1463   34.7972   44.5821 H   0  0  0  0  0  0  0  0  0  0  0  0
   60.4970   33.5510   45.6000 H   0  0  0  0  0  0  0  0  0  0  0  0
   60.2343   35.6470   46.3595 H   0  0  0  0  0  0  0  0  0  0  0  0
   58.4519   35.4493   46.5041 H   0  0  0  0  0  0  0  0  0  0  0  0
   60.1887   35.3456   48.6291 H   0  0  0  0  0  0  0  0  0  0  0  0
   58.5854   34.5079   48.5748 H   0  0  0  0  0  0  0  0  0  0  0  0
   60.1775   32.8729   49.3115 H   0  0  0  0  0  0  0  0  0  0  0  0
   59.8096   32.4978   47.5898 H   0  0  0  0  0  0  0  0  0  0  0  0
   62.5384   34.0689   49.7973 H   0  0  0  0  0  0  0  0  0  0  0  0
   64.2304   33.3202   46.0205 H   0  0  0  0  0  0  0  0  0  0  0  0
   58.2435   32.9147   42.0377 H   0  0  0  0  0  0  0  0  0  0  0  0
  1  2  2  0
  2  3  1  0
  3  4  2  0
  4  5  1  0
  5  6  1  0
  6  7  1  0
  7  8  1  0
  8  9  1  0
  9 10  1  0
 10 11  1  0
 11 12  1  0
 12 13  2  0
 13 14  1  0
 14 15  2  0
  5 16  2  0
 16  1  1  0
 15 11  1  0
  1 17  1  0
  2 18  1  0
  4 19  1  0
  6 20  1  0
  6 21  1  0
  7 22  1  0
  8 23  1  0
  8 24  1  0
  9 25  1  0
  9 26  1  0
 10 27  1  0
 10 28  1  0
 12 29  1  0
 14 30  1  0
 16 31  1  0
M  END
>  <UniqueID>  (32) 
31

>  <SMILES>  (32) 
c1cncc(CNCCCn2cncn2)c1

>  <Energy>  (32) 
59.10343247752539

>  <Genealogy>  (32) 
c1cncc(CNCCCn2cncn2)c1 (3D coordinates assigned)
c1cncc(CNCCCn2cncn2)c1 (optimized conformer: 59.10343247752539 kcal/mol)

>  <smiles>  (32) 
c1cncc(CNCCCn2cncn2)c1

>  <score_type>  (32) 
oracle

>  <origin>  (32) 
adg

>  <m_score__min__energy>  (32) 
-5.1699999999999999

>  <m_primary>  (32) 
energy

$$$$
32:0
     RDKit          3D

 31 32  0  0  0  0  0  0  0  0999 V2000
   59.6030   35.3140   46.6840 C   0  0  0  0  0  0  0  0  0  0  0  0
   59.6360   33.9230   46.9820 O   0  0  0  0  0  0  0  0  0  0  0  0
   58.9000   32.9480   46.2940 C   0  0  0  0  0  0  0  0  0  0  0  0
   58.8680   31.5990   46.7000 C   0  0  0  0  0  0  0  0  0  0  0  0
   58.1200   30.6640   45.9780 C   0  0  0  0  0  0  0  0  0  0  0  0
   57.4020   31.0600   44.8420 C   0  0  0  0  0  0  0  0  0  0  0  0
   56.4690   29.8820   43.9230 S   0  0  0  0  0  0  0  0  0  0  0  0
   55.1460   29.6190   44.5870 O   0  0  0  0  0  0  0  0  0  0  0  0
   56.2270   30.4240   42.5440 O   0  0  0  0  0  0  0  0  0  0  0  0
   57.3470   28.3910   43.8010 N   0  0  0  0  0  0  0  0  0  0  0  0
   57.8260   27.6150   44.9080 C   0  0  0  0  0  0  0  0  0  0  0  0
   59.2020   27.4020   45.1210 C   0  0  0  0  0  0  0  0  0  0  0  0
   59.6390   26.6360   46.2050 C   0  0  0  0  0  0  0  0  0  0  0  0
   58.7140   26.0780   47.0870 C   0  0  0  0  0  0  0  0  0  0  0  0
   57.3470   26.2850   46.8890 C   0  0  0  0  0  0  0  0  0  0  0  0
   56.8970   27.0500   45.8060 C   0  0  0  0  0  0  0  0  0  0  0  0
   55.5240   27.2330   45.6400 O   0  0  0  0  0  0  0  0  0  0  0  0
   57.4290   32.4010   44.4400 C   0  0  0  0  0  0  0  0  0  0  0  0
   58.1760   33.3360   45.1600 C   0  0  0  0  0  0  0  0  0  0  0  0
   59.5893   35.8896   47.6213 H   0  0  0  0  0  0  0  0  0  0  0  0
   60.4950   35.5852   46.1002 H   0  0  0  0  0  0  0  0  0  0  0  0
   58.6992   35.5426   46.1002 H   0  0  0  0  0  0  0  0  0  0  0  0
   59.4335   31.2804   47.5881 H   0  0  0  0  0  0  0  0  0  0  0  0
   58.0952   29.6135   46.3032 H   0  0  0  0  0  0  0  0  0  0  0  0
   59.9367   27.8411   44.4301 H   0  0  0  0  0  0  0  0  0  0  0  0
   60.7153   26.4727   46.3630 H   0  0  0  0  0  0  0  0  0  0  0  0
   59.0611   25.4747   47.9388 H   0  0  0  0  0  0  0  0  0  0  0  0
   56.6201   25.8448   47.5875 H   0  0  0  0  0  0  0  0  0  0  0  0
   55.1390   27.8530   44.9370 H   0  0  0  0  0  0  0  0  0  0  0  0
   56.8599   32.7192   43.5541 H   0  0  0  0  0  0  0  0  0  0  0  0
   58.1957   34.3862   44.8334 H   0  0  0  0  0  0  0  0  0  0  0  0
  1  2  1  0
  2  3  1  0
  3  4  2  0
  4  5  1  0
  5  6  2  0
  6  7  1  0
  7  8  2  0
  7  9  2  0
  7 10  1  0
 10 11  1  0
 11 12  2  0
 12 13  1  0
 13 14  2  0
 14 15  1  0
 15 16  2  0
 16 17  1  0
  6 18  1  0
 18 19  2  0
 19  3  1  0
 16 11  1  0
  1 20  1  0
  1 21  1  0
  1 22  1  0
  4 23  1  0
  5 24  1  0
 12 25  1  0
 13 26  1  0
 14 27  1  0
 15 28  1  0
 17 29  1  0
 18 30  1  0
 19 31  1  0
M  CHG  1  10  -1
M  END
>  <UniqueID>  (33) 
32

>  <SMILES>  (33) 
COc1ccc(S(=O)(=O)[N-]c2ccccc2O)cc1

>  <Energy>  (33) 
34.36955264137462

>  <Genealogy>  (33) 
COc1ccc(S(=O)(=O)[N-]c2ccccc2O)cc1 (protonated)
COc1ccc(S(=O)(=O)[N-]c2ccccc2O)cc1 (3D coordinates assigned)
COc1ccc(S(=O)(=O)[N-]c2ccccc2O)cc1 (optimized conformer: 34.36955264137462 kcal/mol)

>  <smiles>  (33) 
COc1ccc(S(=O)(=O)Nc2ccccc2O)cc1

>  <score_type>  (33) 
oracle

>  <origin>  (33) 
adg

>  <m_score__min__energy>  (33) 
-9.3800000000000008

>  <m_primary>  (33) 
energy

$$$$
33:0
     RDKit          3D

 53 57  0  0  0  0  0  0  0  0999 V2000
   60.0430   26.0720   46.2930 C   0  0  0  0  0  0  0  0  0  0  0  0
   58.5490   26.1050   46.1600 C   0  0  0  0  0  0  0  0  0  0  0  0
   57.7850   24.9780   46.4940 C   0  0  0  0  0  0  0  0  0  0  0  0
   56.3910   25.0260   46.4170 C   0  0  0  0  0  0  0  0  0  0  0  0
   55.7470   26.1970   46.0060 C   0  0  0  0  0  0  0  0  0  0  0  0
   54.3920   26.2320   45.9940 F   0  0  0  0  0  0  0  0  0  0  0  0
   56.5060   27.3310   45.6560 C   0  0  0  0  0  0  0  0  0  0  0  0
   55.8860   28.5590   45.2430 N   0  0  0  0  0  0  0  0  0  0  0  0
   56.5250   29.6340   44.5420 C   0  0  0  0  0  0  0  0  0  0  0  0
   56.2120   29.8450   43.3420 O   0  0  0  0  0  0  0  0  0  0  0  0
   57.4910   30.5330   45.2000 C   0  0  0  0  0  0  0  0  0  0  0  0
   58.6350   30.1550   45.8910 C   0  0  0  0  0  0  0  0  0  0  0  0
   59.2030   31.2790   46.3460 N   0  0  0  0  0  0  0  0  0  0  0  0
   60.3330   31.4490   47.0760 C   0  0  0  0  0  0  0  0  0  0  0  0
   60.7090   32.7600   47.4370 C   0  0  0  0  0  0  0  0  0  0  0  0
   61.9380   33.0040   48.2340 C   0  0  0  0  0  0  0  0  0  0  0  0
   61.9050   33.8340   49.3660 C   0  0  0  0  0  0  0  0  0  0  0  0
   63.0610   34.0630   50.1160 C   0  0  0  0  0  0  0  0  0  0  0  0
   64.2850   33.4680   49.7520 C   0  0  0  0  0  0  0  0  0  0  0  0
   65.4830   33.7050   50.5280 N   0  0  0  0  0  0  0  0  0  0  0  0
   66.7780   33.1090   50.2290 C   0  0  0  0  0  0  0  0  0  0  0  0
   67.7680   33.7620   51.1820 C   0  0  0  0  0  0  0  0  0  0  0  0
   66.9270   34.3850   52.2890 C   0  0  0  0  0  0  0  0  0  0  0  0
   65.5360   34.5670   51.6990 C   0  0  0  0  0  0  0  0  0  0  0  0
   64.3150   32.6360   48.6160 C   0  0  0  0  0  0  0  0  0  0  0  0
   63.1570   32.4070   47.8670 C   0  0  0  0  0  0  0  0  0  0  0  0
   59.8870   33.8380   47.0230 C   0  0  0  0  0  0  0  0  0  0  0  0
   58.7260   33.6060   46.2690 C   0  0  0  0  0  0  0  0  0  0  0  0
   58.4150   32.2900   45.9470 C   0  0  0  0  0  0  0  0  0  0  0  0
   57.3420   31.8810   45.2400 N   0  0  0  0  0  0  0  0  0  0  0  0
   57.9010   27.2860   45.7660 C   0  0  0  0  0  0  0  0  0  0  0  0
   60.3162   26.0660   47.3585 H   0  0  0  0  0  0  0  0  0  0  0  0
   60.4343   25.1650   45.8090 H   0  0  0  0  0  0  0  0  0  0  0  0
   60.4739   26.9608   45.8090 H   0  0  0  0  0  0  0  0  0  0  0  0
   58.2847   24.0531   46.8177 H   0  0  0  0  0  0  0  0  0  0  0  0
   55.7972   24.1384   46.6809 H   0  0  0  0  0  0  0  0  0  0  0  0
   59.0038   29.1289   46.0366 H   0  0  0  0  0  0  0  0  0  0  0  0
   60.9423   30.5849   47.3796 H   0  0  0  0  0  0  0  0  0  0  0  0
   60.9590   34.3089   49.6654 H   0  0  0  0  0  0  0  0  0  0  0  0
   63.0151   34.7152   51.0006 H   0  0  0  0  0  0  0  0  0  0  0  0
   66.7466   32.0222   50.3956 H   0  0  0  0  0  0  0  0  0  0  0  0
   67.0632   33.2689   49.1787 H   0  0  0  0  0  0  0  0  0  0  0  0
   68.4528   33.0087   51.5987 H   0  0  0  0  0  0  0  0  0  0  0  0
   68.3869   34.5141   50.6709 H   0  0  0  0  0  0  0  0  0  0  0  0
   66.8884   33.7177   53.1626 H   0  0  0  0  0  0  0  0  0  0  0  0
   67.3506   35.3410   52.6306 H   0  0  0  0  0  0  0  0  0  0  0  0
   64.7689   34.2685   52.4287 H   0  0  0  0  0  0  0  0  0  0  0  0
   65.3435   35.6176   51.4359 H   0  0  0  0  0  0  0  0  0  0  0  0
   65.2603   32.1610   48.3147 H   0  0  0  0  0  0  0  0  0  0  0  0
   63.1999   31.7540   46.9828 H   0  0  0  0  0  0  0  0  0  0  0  0
   60.1619   34.8676   47.2956 H   0  0  0  0  0  0  0  0  0  0  0  0
   58.0838   34.4377   45.9438 H   0  0  0  0  0  0  0  0  0  0  0  0
   58.4946   28.1845   45.5416 H   0  0  0  0  0  0  0  0  0  0  0  0
  1  2  1  0
  2  3  2  0
  3  4  1  0
  4  5  2  0
  5  6  1  0
  5  7  1  0
  7  8  1  0
  8  9  1  0
  9 10  2  0
  9 11  1  0
 11 12  2  0
 12 13  1  0
 13 14  1  0
 14 15  2  0
 15 16  1  0
 16 17  2  0
 17 18  1  0
 18 19  2  0
 19 20  1  0
 20 21  1  0
 21 22  1  0
 22 23  1  0
 23 24  1  0
 19 25  1  0
 25 26  2  0
 15 27  1  0
 27 28  2  0
 28 29  1  0
 29 30  2  0
  7 31  2  0
 31  2  1  0
 30 11  1  0
 29 13  1  0
 26 16  1  0
 24 20  1  0
  1 32  1  0
  1 33  1  0
  1 34  1  0
  3 35  1  0
  4 36  1  0
 12 37  1  0
 14 38  1  0
 17 39  1  0
 18 40  1  0
 21 41  1  0
 21 42  1  0
 22 43  1  0
 22 44  1  0
 23 45  1  0
 23 46  1  0
 24 47  1  0
 24 48  1  0
 25 49  1  0
 26 50  1  0
 27 51  1  0
 28 52  1  0
 31 53  1  0
M  CHG  1   8  -1
M  END
>  <UniqueID>  (34) 
33

>  <SMILES>  (34) 
Cc1ccc(F)c([N-]C(=O)c2cn3cc(-c4ccc(N5CCCC5)cc4)ccc3n2)c1

>  <Energy>  (34) 
104.44813826474383

>  <Genealogy>  (34) 
Cc1ccc(F)c([N-]C(=O)c2cn3cc(-c4ccc(N5CCCC5)cc4)ccc3n2)c1 (protonated)
Cc1ccc(F)c([N-]C(=O)c2cn3cc(-c4ccc(N5CCCC5)cc4)ccc3n2)c1 (3D coordinates assigned)
Cc1ccc(F)c([N-]C(=O)c2cn3cc(-c4ccc(N5CCCC5)cc4)ccc3n2)c1 (nonaromatic ring conformer: 104.44813826474383 kcal/mol)

>  <smiles>  (34) 
Cc1ccc(F)c(NC(=O)c2cn3cc(-c4ccc(N5CCCC5)cc4)ccc3n2)c1

>  <score_type>  (34) 
oracle

>  <origin>  (34) 
adg

>  <m_score__min__energy>  (34) 
-11.43

>  <m_primary>  (34) 
energy

$$$$
34:0
     RDKit          3D

 34 35  0  0  0  0  0  0  0  0999 V2000
   63.7090   33.1290   46.7510 C   0  0  0  0  0  0  0  0  0  0  0  0
   62.3870   33.6260   47.2560 C   0  0  0  0  0  0  0  0  0  0  0  0
   62.1760   33.8050   48.6320 C   0  0  0  0  0  0  0  0  0  0  0  0
   60.9250   34.2100   49.1040 C   0  0  0  0  0  0  0  0  0  0  0  0
   59.8710   34.4210   48.2110 C   0  0  0  0  0  0  0  0  0  0  0  0
   60.0640   34.2330   46.8340 C   0  0  0  0  0  0  0  0  0  0  0  0
   58.9070   34.3780   45.8830 C   0  0  0  0  0  0  0  0  0  0  0  0
   57.4130   33.5500   46.5370 S   0  0  0  0  0  0  0  0  0  0  0  0
   57.7810   31.9620   45.7880 C   0  0  0  0  0  0  0  0  0  0  0  0
   56.9420   31.4480   44.8530 N   0  0  0  0  0  0  0  0  0  0  0  0
   57.2110   30.2640   44.2420 C   0  0  0  0  0  0  0  0  0  0  0  0
   56.2690   29.7230   43.2160 C   0  0  0  0  0  0  0  0  0  0  0  0
   58.3790   29.5690   44.5680 C   0  0  0  0  0  0  0  0  0  0  0  0
   59.2430   30.1160   45.5230 C   0  0  0  0  0  0  0  0  0  0  0  0
   60.4970   29.3920   45.9100 C   0  0  0  0  0  0  0  0  0  0  0  0
   58.9130   31.2890   46.1330 N   0  0  0  0  0  0  0  0  0  0  0  0
   61.3260   33.8330   46.3620 C   0  0  0  0  0  0  0  0  0  0  0  0
   64.3590   32.8846   47.6041 H   0  0  0  0  0  0  0  0  0  0  0  0
   63.5527   32.2282   46.1393 H   0  0  0  0  0  0  0  0  0  0  0  0
   64.1848   33.9096   46.1393 H   0  0  0  0  0  0  0  0  0  0  0  0
   62.9979   33.6259   49.3408 H   0  0  0  0  0  0  0  0  0  0  0  0
   60.7692   34.3633   50.1821 H   0  0  0  0  0  0  0  0  0  0  0  0
   58.8869   34.7355   48.5888 H   0  0  0  0  0  0  0  0  0  0  0  0
   58.6917   35.4470   45.7388 H   0  0  0  0  0  0  0  0  0  0  0  0
   59.1784   33.9070   44.9267 H   0  0  0  0  0  0  0  0  0  0  0  0
   55.4203   29.2356   43.7182 H   0  0  0  0  0  0  0  0  0  0  0  0
   55.8993   30.5464   42.5872 H   0  0  0  0  0  0  0  0  0  0  0  0
   56.7939   28.9887   42.5872 H   0  0  0  0  0  0  0  0  0  0  0  0
   58.6145   28.6102   44.0830 H   0  0  0  0  0  0  0  0  0  0  0  0
   60.5719   29.3488   47.0066 H   0  0  0  0  0  0  0  0  0  0  0  0
   60.4707   28.3701   45.5037 H   0  0  0  0  0  0  0  0  0  0  0  0
   61.3688   29.9258   45.5037 H   0  0  0  0  0  0  0  0  0  0  0  0
   59.5460   31.6940   46.8600 H   0  0  0  0  0  0  0  0  0  0  0  0
   61.4828   33.6812   45.2839 H   0  0  0  0  0  0  0  0  0  0  0  0
  1  2  1  0
  2  3  2  0
  3  4  1  0
  4  5  2  0
  5  6  1  0
  6  7  1  0
  7  8  1  0
  8  9  1  0
  9 10  2  0
 10 11  1  0
 11 12  1  0
 11 13  2  0
 13 14  1  0
 14 15  1  0
 14 16  2  0
  6 17  2  0
 17  2  1  0
 16  9  1  0
  1 18  1  0
  1 19  1  0
  1 20  1  0
  3 21  1  0
  4 22  1  0
  5 23  1  0
  7 24  1  0
  7 25  1  0
 12 26  1  0
 12 27  1  0
 12 28  1  0
 13 29  1  0
 15 30  1  0
 15 31  1  0
 15 32  1  0
 16 33  1  0
 17 34  1  0
M  CHG  1  16   1
M  END
>  <UniqueID>  (35) 
34

>  <SMILES>  (35) 
Cc1cccc(CSc2nc(C)cc(C)[nH+]2)c1

>  <Energy>  (35) 
24.807424466028305

>  <Genealogy>  (35) 
Cc1cccc(CSc2nc(C)cc(C)[nH+]2)c1 (protonated)
Cc1cccc(CSc2nc(C)cc(C)[nH+]2)c1 (3D coordinates assigned)
Cc1cccc(CSc2nc(C)cc(C)[nH+]2)c1 (optimized conformer: 24.807424466028305 kcal/mol)

>  <smiles>  (35) 
Cc1cccc(CSc2nc(C)cc(C)n2)c1

>  <score_type>  (35) 
oracle

>  <origin>  (35) 
adg

>  <m_score__min__energy>  (35) 
-6.0499999999999998

>  <m_primary>  (35) 
energy

$$$$
35:0
     RDKit          3D

 44 45  0  0  0  0  0  0  0  0999 V2000
   55.3960   25.1430   45.6760 C   0  0  0  0  0  0  0  0  0  0  0  0
   55.5020   26.5250   45.9970 O   0  0  0  0  0  0  0  0  0  0  0  0
   56.6950   27.2630   45.9430 C   0  0  0  0  0  0  0  0  0  0  0  0
   57.9090   26.7570   46.4460 C   0  0  0  0  0  0  0  0  0  0  0  0
   59.0800   27.5120   46.3560 C   0  0  0  0  0  0  0  0  0  0  0  0
   59.0590   28.7850   45.7700 C   0  0  0  0  0  0  0  0  0  0  0  0
   60.3360   29.5740   45.6230 C   0  0  0  0  0  0  0  0  0  0  0  0
   60.8080   30.1280   46.9720 C   0  0  0  0  0  0  0  0  0  0  0  0
   60.2500   31.4610   47.2080 N   0  0  0  0  0  0  0  0  0  0  0  0
   61.0660   32.6230   47.4110 C   0  0  0  0  0  0  0  0  0  0  0  0
   62.3200   32.5530   47.2970 O   0  0  0  0  0  0  0  0  0  0  0  0
   60.4310   33.9230   47.8070 C   0  0  0  0  0  0  0  0  0  0  0  0
   59.9480   34.7040   46.5800 C   0  0  0  0  0  0  0  0  0  0  0  0
   58.9230   33.9580   45.8510 N   0  0  0  0  0  0  0  0  0  0  0  0
   58.9200   33.6930   44.5310 C   0  0  0  0  0  0  0  0  0  0  0  0
   57.7760   32.9960   44.1990 C   0  0  0  0  0  0  0  0  0  0  0  0
   57.0540   32.8420   45.3670 C   0  0  0  0  0  0  0  0  0  0  0  0
   57.7870   33.4500   46.3650 C   0  0  0  0  0  0  0  0  0  0  0  0
   57.8530   29.2920   45.2690 C   0  0  0  0  0  0  0  0  0  0  0  0
   56.6660   28.5380   45.3550 C   0  0  0  0  0  0  0  0  0  0  0  0
   55.4420   29.0130   44.8570 O   0  0  0  0  0  0  0  0  0  0  0  0
   55.2960   29.7560   43.6520 C   0  0  0  0  0  0  0  0  0  0  0  0
   55.3508   24.5535   46.6036 H   0  0  0  0  0  0  0  0  0  0  0  0
   54.4821   24.9722   45.0881 H   0  0  0  0  0  0  0  0  0  0  0  0
   56.2731   24.8348   45.0881 H   0  0  0  0  0  0  0  0  0  0  0  0
   57.9349   25.7612   46.9125 H   0  0  0  0  0  0  0  0  0  0  0  0
   60.0243   27.1055   46.7472 H   0  0  0  0  0  0  0  0  0  0  0  0
   61.1173   28.9176   45.2123 H   0  0  0  0  0  0  0  0  0  0  0  0
   60.1444   30.4212   44.9481 H   0  0  0  0  0  0  0  0  0  0  0  0
   60.4795   29.4517   47.7749 H   0  0  0  0  0  0  0  0  0  0  0  0
   61.9055   30.2012   46.9597 H   0  0  0  0  0  0  0  0  0  0  0  0
   59.2130   31.5830   47.1580 H   0  0  0  0  0  0  0  0  0  0  0  0
   59.5714   33.7170   48.4617 H   0  0  0  0  0  0  0  0  0  0  0  0
   61.1830   34.5309   48.3313 H   0  0  0  0  0  0  0  0  0  0  0  0
   59.5268   35.6654   46.9090 H   0  0  0  0  0  0  0  0  0  0  0  0
   60.8049   34.8664   45.9097 H   0  0  0  0  0  0  0  0  0  0  0  0
   59.7097   33.9874   43.8242 H   0  0  0  0  0  0  0  0  0  0  0  0
   57.4940   32.6337   43.1994 H   0  0  0  0  0  0  0  0  0  0  0  0
   56.0847   32.3341   45.4791 H   0  0  0  0  0  0  0  0  0  0  0  0
   57.4883   33.5107   47.4219 H   0  0  0  0  0  0  0  0  0  0  0  0
   57.8326   30.2886   44.8039 H   0  0  0  0  0  0  0  0  0  0  0  0
   55.0891   30.8091   43.8933 H   0  0  0  0  0  0  0  0  0  0  0  0
   56.2243   29.6898   43.0656 H   0  0  0  0  0  0  0  0  0  0  0  0
   54.4617   29.3434   43.0656 H   0  0  0  0  0  0  0  0  0  0  0  0
  1  2  1  0
  2  3  1  0
  3  4  2  0
  4  5  1  0
  5  6  2  0
  6  7  1  0
  7  8  1  0
  8  9  1  0
  9 10  1  0
 10 11  2  0
 10 12  1  0
 12 13  1  0
 13 14  1  0
 14 15  1  0
 15 16  2  0
 16 17  1  0
 17 18  2  0
  6 19  1  0
 19 20  2  0
 20 21  1  0
 21 22  1  0
 20  3  1  0
 18 14  1  0
  1 23  1  0
  1 24  1  0
  1 25  1  0
  4 26  1  0
  5 27  1  0
  7 28  1  0
  7 29  1  0
  8 30  1  0
  8 31  1  0
  9 32  1  0
 12 33  1  0
 12 34  1  0
 13 35  1  0
 13 36  1  0
 15 37  1  0
 16 38  1  0
 17 39  1  0
 18 40  1  0
 19 41  1  0
 22 42  1  0
 22 43  1  0
 22 44  1  0
M  END
>  <UniqueID>  (36) 
35

>  <SMILES>  (36) 
COc1ccc(CCNC(=O)CCn2cccc2)cc1OC

>  <Energy>  (36) 
56.083264051191705

>  <Genealogy>  (36) 
COc1ccc(CCNC(=O)CCn2cccc2)cc1OC (3D coordinates assigned)
COc1ccc(CCNC(=O)CCn2cccc2)cc1OC (optimized conformer: 56.083264051191705 kcal/mol)

>  <smiles>  (36) 
COc1ccc(CCNC(=O)CCn2cccc2)cc1OC

>  <score_type>  (36) 
oracle

>  <origin>  (36) 
adg

>  <m_score__min__energy>  (36) 
-7.21

>  <m_primary>  (36) 
energy

$$$$
36:0
     RDKit          3D

 38 39  0  0  0  0  0  0  0  0999 V2000
   56.6520   30.4880   42.8410 C   0  0  0  0  0  0  0  0  0  0  0  0
   55.5220   29.9800   43.7230 C   0  0  0  0  0  0  0  0  0  0  0  0
   56.0270   29.7170   45.0630 N   0  0  0  0  0  0  0  0  0  0  0  0
   56.9520   28.6660   45.3570 C   0  0  0  0  0  0  0  0  0  0  0  0
   56.5230   27.5670   45.8080 O   0  0  0  0  0  0  0  0  0  0  0  0
   58.3670   28.8970   45.1520 N   0  0  2  0  0  0  0  0  0  0  0  0
   59.1270   27.7360   44.6360 C   0  0  0  0  0  0  0  0  0  0  0  0
   60.4800   27.8660   45.2320 C   0  0  0  0  0  0  0  0  0  0  0  0
   60.4840   28.7800   46.1850 C   0  0  0  0  0  0  0  0  0  0  0  0
   59.1190   29.3880   46.3520 C   0  0  2  0  0  0  0  0  0  0  0  0
   58.5470   28.8920   47.7360 C   0  0  0  0  0  0  0  0  0  0  0  0
   59.5060   28.9720   48.9330 C   0  0  0  0  0  0  0  0  0  0  0  0
   59.2140   30.9320   46.3150 C   0  0  0  0  0  0  0  0  0  0  0  0
   58.2400   31.7120   45.6510 C   0  0  0  0  0  0  0  0  0  0  0  0
   58.3690   33.1010   45.5620 C   0  0  0  0  0  0  0  0  0  0  0  0
   59.4830   33.7400   46.1070 C   0  0  0  0  0  0  0  0  0  0  0  0
   59.6440   35.4820   45.9880 Cl  0  0  0  0  0  0  0  0  0  0  0  0
   60.4790   32.9860   46.7280 C   0  0  0  0  0  0  0  0  0  0  0  0
   60.3570   31.5970   46.8190 C   0  0  0  0  0  0  0  0  0  0  0  0
   57.4730   30.8571   43.4732 H   0  0  0  0  0  0  0  0  0  0  0  0
   57.0184   29.6680   42.2059 H   0  0  0  0  0  0  0  0  0  0  0  0
   56.2819   31.3063   42.2059 H   0  0  0  0  0  0  0  0  0  0  0  0
   54.7279   30.7395   43.7738 H   0  0  0  0  0  0  0  0  0  0  0  0
   55.1166   29.0504   43.2970 H   0  0  0  0  0  0  0  0  0  0  0  0
   58.4220   29.6230   44.3960 H   0  0  0  0  0  0  0  0  0  0  0  0
   58.6547   26.7939   44.9512 H   0  0  0  0  0  0  0  0  0  0  0  0
   59.1600   27.7197   43.5366 H   0  0  0  0  0  0  0  0  0  0  0  0
   61.3588   27.2813   44.9224 H   0  0  0  0  0  0  0  0  0  0  0  0
   61.3677   29.0592   46.7775 H   0  0  0  0  0  0  0  0  0  0  0  0
   57.6633   29.5028   47.9724 H   0  0  0  0  0  0  0  0  0  0  0  0
   58.3338   27.8214   47.6002 H   0  0  0  0  0  0  0  0  0  0  0  0
   58.9295   28.9239   49.8686 H   0  0  0  0  0  0  0  0  0  0  0  0
   60.2124   28.1297   48.8939 H   0  0  0  0  0  0  0  0  0  0  0  0
   60.0630   29.9197   48.8939 H   0  0  0  0  0  0  0  0  0  0  0  0
   57.3676   31.2187   45.1976 H   0  0  0  0  0  0  0  0  0  0  0  0
   57.5891   33.6926   45.0603 H   0  0  0  0  0  0  0  0  0  0  0  0
   61.3639   33.4869   47.1477 H   0  0  0  0  0  0  0  0  0  0  0  0
   61.1611   31.0119   47.2892 H   0  0  0  0  0  0  0  0  0  0  0  0
  1  2  1  0
  2  3  1  0
  3  4  1  0
  4  5  2  0
  4  6  1  0
  6  7  1  0
  7  8  1  0
  8  9  2  0
  9 10  1  0
 10 11  1  1
 11 12  1  0
 10 13  1  0
 13 14  2  0
 14 15  1  0
 15 16  2  0
 16 17  1  0
 16 18  1  0
 18 19  2  0
 10  6  1  0
 19 13  1  0
  1 20  1  0
  1 21  1  0
  1 22  1  0
  2 23  1  0
  2 24  1  0
  6 25  1  6
  7 26  1  0
  7 27  1  0
  8 28  1  0
  9 29  1  0
 11 30  1  0
 11 31  1  0
 12 32  1  0
 12 33  1  0
 12 34  1  0
 14 35  1  0
 15 36  1  0
 18 37  1  0
 19 38  1  0
M  CHG  2   3  -1   6   1
M  END
>  <UniqueID>  (37) 
36

>  <SMILES>  (37) 
CC[N-]C(=O)[N@@H+]1CC=C[C@@]1(CC)c1ccc(Cl)cc1

>  <Energy>  (37) 
54.11647833434732

>  <Genealogy>  (37) 
CC[N-]C(=O)[NH+]1CC=CC1(CC)c1ccc(Cl)cc1 (protonated)
CC[N-]C(=O)[N@@H+]1CC=C[C@@]1(CC)c1ccc(Cl)cc1 (chirality)
CC[N-]C(=O)[N@@H+]1CC=C[C@@]1(CC)c1ccc(Cl)cc1 (3D coordinates assigned)
CC[N-]C(=O)[N@@H+]1CC=C[C@@]1(CC)c1ccc(Cl)cc1 (nonaromatic ring conformer: 54.11647833434732 kcal/mol)

>  <smiles>  (37) 
CCNC(=O)N1CC=CC1(CC)c1ccc(Cl)cc1

>  <score_type>  (37) 
oracle

>  <origin>  (37) 
adg

>  <m_score__min__energy>  (37) 
-6.9500000000000002

>  <m_primary>  (37) 
energy

$$$$
37:0
     RDKit          3D

 36 38  0  0  1  0  0  0  0  0999 V2000
   55.8640   29.7140   43.5450 C   0  0  0  0  0  0  0  0  0  0  0  0
   56.2400   29.8870   44.8930 O   0  0  0  0  0  0  0  0  0  0  0  0
   57.5070   30.3120   45.2670 C   0  0  0  0  0  0  0  0  0  0  0  0
   58.5130   29.4650   45.5390 N   0  0  0  0  0  0  0  0  0  0  0  0
   59.7270   29.9220   45.8990 C   0  0  0  0  0  0  0  0  0  0  0  0
   60.0040   31.2370   46.0060 N   0  0  0  0  0  0  0  0  0  0  0  0
   59.0190   32.1110   45.7400 C   0  0  0  0  0  0  0  0  0  0  0  0
   59.2630   33.4630   45.8390 C   0  0  0  0  0  0  0  0  0  0  0  0
   60.3930   33.9740   46.1750 N   0  0  0  0  0  0  0  0  0  0  0  0
   60.8080   33.8350   47.5270 C   0  0  0  0  0  0  0  0  0  0  0  0
   59.8570   33.9540   48.5510 C   0  0  0  0  0  0  0  0  0  0  0  0
   60.2540   33.8230   49.8770 C   0  0  0  0  0  0  0  0  0  0  0  0
   61.5640   33.5800   50.1920 C   0  0  0  0  0  0  0  0  0  0  0  0
   62.5240   33.4590   49.1890 C   0  0  0  0  0  0  0  0  0  0  0  0
   63.9520   33.1950   49.5350 C   0  0  0  0  0  0  0  0  0  0  0  0
   62.1470   33.5870   47.8640 C   0  0  0  0  0  0  0  0  0  0  0  0
   63.1200   33.4690   46.7450 C   0  0  0  0  0  0  0  0  0  0  0  0
   58.2500   34.3090   45.5640 N   0  0  0  0  0  0  0  0  0  0  0  0
   57.0210   33.8570   45.2010 C   0  0  0  0  0  0  0  0  0  0  0  0
   56.7760   32.5310   45.1020 N   0  0  0  0  0  0  0  0  0  0  0  0
   57.7670   31.6540   45.3700 C   0  0  0  0  0  0  0  0  0  0  0  0
   54.8656   29.2546   43.4989 H   0  0  0  0  0  0  0  0  0  0  0  0
   55.8411   30.6921   43.0423 H   0  0  0  0  0  0  0  0  0  0  0  0
   56.5920   29.0603   43.0423 H   0  0  0  0  0  0  0  0  0  0  0  0
   60.5235   29.1945   46.1141 H   0  0  0  0  0  0  0  0  0  0  0  0
   58.8026   34.1499   48.3063 H   0  0  0  0  0  0  0  0  0  0  0  0
   59.5085   33.9155   50.6806 H   0  0  0  0  0  0  0  0  0  0  0  0
   61.8615   33.4794   51.2462 H   0  0  0  0  0  0  0  0  0  0  0  0
   64.0664   33.1739   50.6288 H   0  0  0  0  0  0  0  0  0  0  0  0
   64.2576   32.2251   49.1156 H   0  0  0  0  0  0  0  0  0  0  0  0
   64.5842   33.9915   49.1156 H   0  0  0  0  0  0  0  0  0  0  0  0
   64.1343   33.3460   47.1525 H   0  0  0  0  0  0  0  0  0  0  0  0
   62.8645   32.5953   46.1275 H   0  0  0  0  0  0  0  0  0  0  0  0
   63.0807   34.3785   46.1275 H   0  0  0  0  0  0  0  0  0  0  0  0
   58.3590   35.3450   45.6170 H   0  0  0  0  0  0  0  0  0  0  0  0
   56.2176   34.5769   44.9856 H   0  0  0  0  0  0  0  0  0  0  0  0
  1  2  1  0
  2  3  1  0
  3  4  2  0
  4  5  1  0
  5  6  2  0
  6  7  1  0
  7  8  1  0
  8  9  2  0
  9 10  1  0
 10 11  2  0
 11 12  1  0
 12 13  2  0
 13 14  1  0
 14 15  1  0
 14 16  2  0
 16 17  1  0
  8 18  1  0
 18 19  1  0
 19 20  2  0
 20 21  1  0
 21  3  1  0
 21  7  2  0
 16 10  1  0
  1 22  1  0
  1 23  1  0
  1 24  1  0
  5 25  1  0
 11 26  1  0
 12 27  1  0
 13 28  1  0
 15 29  1  0
 15 30  1  0
 15 31  1  0
 17 32  1  0
 17 33  1  0
 17 34  1  0
 18 35  1  0
 19 36  1  0
M  END
>  <smiles>  (38) 
COc1ncnc2c(=Nc3cccc(C)c3C)[nH]cnc12

>  <score_type>  (38) 
oracle

>  <origin>  (38) 
adg

>  <m_score__min__energy>  (38) 
-6.7000000000000002

>  <m_primary>  (38) 
energy

$$$$
38:0
     RDKit          3D

 30 32  0  0  0  0  0  0  0  0999 V2000
   57.3500   34.2160   45.5940 C   0  0  0  0  0  0  0  0  0  0  0  0
   58.5350   33.3960   45.8660 N   0  0  0  0  0  0  0  0  0  0  0  0
   59.7730   34.0540   46.2300 C   0  0  0  0  0  0  0  0  0  0  0  0
   59.8470   35.3110   46.1410 O   0  0  0  0  0  0  0  0  0  0  0  0
   60.9800   33.3090   46.6850 C   0  0  0  0  0  0  0  0  0  0  0  0
   62.2530   33.8420   46.4090 C   0  0  0  0  0  0  0  0  0  0  0  0
   63.4090   33.1750   46.8160 C   0  0  0  0  0  0  0  0  0  0  0  0
   63.3160   31.9690   47.5090 C   0  0  0  0  0  0  0  0  0  0  0  0
   62.0640   31.4290   47.8050 C   0  0  0  0  0  0  0  0  0  0  0  0
   60.8850   32.0940   47.4120 C   0  0  0  0  0  0  0  0  0  0  0  0
   59.6030   31.5230   47.7340 N   0  0  0  0  0  0  0  0  0  0  0  0
   58.9940   31.0550   46.5190 C   0  0  0  0  0  0  0  0  0  0  0  0
   58.9510   29.6790   46.2270 C   0  0  0  0  0  0  0  0  0  0  0  0
   58.3830   29.2280   45.0330 C   0  0  0  0  0  0  0  0  0  0  0  0
   57.8630   30.1440   44.1180 C   0  0  0  0  0  0  0  0  0  0  0  0
   57.9130   31.5140   44.3900 C   0  0  0  0  0  0  0  0  0  0  0  0
   58.4850   31.9820   45.5870 C   0  0  0  0  0  0  0  0  0  0  0  0
   56.8955   34.5305   46.5451 H   0  0  0  0  0  0  0  0  0  0  0  0
   57.6439   35.1049   45.0164 H   0  0  0  0  0  0  0  0  0  0  0  0
   56.6217   33.6277   45.0164 H   0  0  0  0  0  0  0  0  0  0  0  0
   62.3376   34.7951   45.8663 H   0  0  0  0  0  0  0  0  0  0  0  0
   64.3970   33.6022   46.5893 H   0  0  0  0  0  0  0  0  0  0  0  0
   64.2298   31.4430   47.8225 H   0  0  0  0  0  0  0  0  0  0  0  0
   61.9964   30.4758   48.3499 H   0  0  0  0  0  0  0  0  0  0  0  0
   58.9960   32.2470   48.1850 H   0  0  0  0  0  0  0  0  0  0  0  0
   59.6990   30.7410   48.4250 H   0  0  0  0  0  0  0  0  0  0  0  0
   59.3669   28.9546   46.9428 H   0  0  0  0  0  0  0  0  0  0  0  0
   58.3457   28.1506   44.8142 H   0  0  0  0  0  0  0  0  0  0  0  0
   57.4125   29.7870   43.1801 H   0  0  0  0  0  0  0  0  0  0  0  0
   57.5025   32.2308   43.6636 H   0  0  0  0  0  0  0  0  0  0  0  0
  1  2  1  0
  2  3  1  0
  3  4  2  0
  3  5  1  0
  5  6  2  0
  6  7  1  0
  7  8  2  0
  8  9  1  0
  9 10  2  0
 10 11  1  0
 11 12  1  0
 12 13  2  0
 13 14  1  0
 14 15  2  0
 15 16  1  0
 16 17  2  0
 17  2  1  0
 10  5  1  0
 17 12  1  0
  1 18  1  0
  1 19  1  0
  1 20  1  0
  6 21  1  0
  7 22  1  0
  8 23  1  0
  9 24  1  0
 11 25  1  0
 11 26  1  0
 13 27  1  0
 14 28  1  0
 15 29  1  0
 16 30  1  0
M  CHG  1  11   1
M  END
>  <UniqueID>  (39) 
37

>  <SMILES>  (39) 
CN1C(=O)c2ccccc2[NH2+]c2ccccc21

>  <Energy>  (39) 
47.629027997348196

>  <Genealogy>  (39) 
CN1C(=O)c2ccccc2[NH2+]c2ccccc21 (protonated)
CN1C(=O)c2ccccc2[NH2+]c2ccccc21 (3D coordinates assigned)
CN1C(=O)c2ccccc2[NH2+]c2ccccc21 (nonaromatic ring conformer: 47.629027997348196 kcal/mol)

>  <smiles>  (39) 
CN1C(=O)c2ccccc2Nc2ccccc21

>  <score_type>  (39) 
oracle

>  <origin>  (39) 
adg

>  <m_score__min__energy>  (39) 
-4.9199999999999999

>  <m_primary>  (39) 
energy

$$$$
39:0
     RDKit          3D

 30 31  0  0  0  0  0  0  0  0999 V2000
   62.0580   33.8450   47.8960 C   0  0  0  0  0  0  0  0  0  0  0  0
   61.0320   33.7380   48.7460 C   0  0  0  0  0  0  0  0  0  0  0  0
   59.6630   34.2460   48.3910 C   0  0  0  0  0  0  0  0  0  0  0  0
   59.1370   33.5320   47.2230 N   0  0  0  0  0  0  0  0  0  0  0  0
   59.4960   32.1530   47.0270 C   0  0  0  0  0  0  0  0  0  0  0  0
   58.8730   31.4220   46.1030 C   0  0  0  0  0  0  0  0  0  0  0  0
   57.7910   32.0020   45.2800 C   0  0  0  0  0  0  0  0  0  0  0  0
   57.0160   31.1050   44.3890 C   0  0  0  0  0  0  0  0  0  0  0  0
   57.2380   30.8540   43.0440 C   0  0  0  0  0  0  0  0  0  0  0  0
   56.2630   29.9600   42.6620 C   0  0  0  0  0  0  0  0  0  0  0  0
   55.5050   29.7150   43.7870 C   0  0  0  0  0  0  0  0  0  0  0  0
   55.9760   30.4100   44.7960 O   0  0  0  0  0  0  0  0  0  0  0  0
   57.5210   33.3170   45.3670 C   0  0  0  0  0  0  0  0  0  0  0  0
   58.3680   34.2550   46.1960 C   0  0  2  0  0  0  0  0  0  0  0  0
   59.3190   35.0310   45.2810 C   0  0  0  0  0  0  0  0  0  0  0  0
   63.0501   33.4648   48.1808 H   0  0  0  0  0  0  0  0  0  0  0  0
   61.9102   34.3133   46.9117 H   0  0  0  0  0  0  0  0  0  0  0  0
   61.1933   33.2676   49.7272 H   0  0  0  0  0  0  0  0  0  0  0  0
   58.9868   34.0911   49.2447 H   0  0  0  0  0  0  0  0  0  0  0  0
   59.7322   35.3174   48.1515 H   0  0  0  0  0  0  0  0  0  0  0  0
   60.2876   31.7001   47.6420 H   0  0  0  0  0  0  0  0  0  0  0  0
   59.1680   30.3733   45.9509 H   0  0  0  0  0  0  0  0  0  0  0  0
   58.0303   31.2812   42.4117 H   0  0  0  0  0  0  0  0  0  0  0  0
   56.1181   29.5282   41.6607 H   0  0  0  0  0  0  0  0  0  0  0  0
   54.6377   29.0400   43.8323 H   0  0  0  0  0  0  0  0  0  0  0  0
   56.6578   33.7218   44.8183 H   0  0  0  0  0  0  0  0  0  0  0  0
   57.6946   34.9534   46.7144 H   0  0  0  0  0  0  0  0  0  0  0  0
   60.0270   35.6087   45.8933 H   0  0  0  0  0  0  0  0  0  0  0  0
   59.8745   34.3250   44.6461 H   0  0  0  0  0  0  0  0  0  0  0  0
   58.7388   35.7168   44.6461 H   0  0  0  0  0  0  0  0  0  0  0  0
  1  2  2  0
  2  3  1  0
  3  4  1  0
  4  5  1  0
  5  6  2  0
  6  7  1  0
  7  8  1  0
  8  9  2  0
  9 10  1  0
 10 11  2  0
 11 12  1  0
  7 13  2  0
 13 14  1  0
 14 15  1  0
 14  4  1  0
 12  8  1  0
  1 16  1  0
  1 17  1  0
  2 18  1  0
  3 19  1  0
  3 20  1  0
  5 21  1  0
  6 22  1  0
  9 23  1  0
 10 24  1  0
 11 25  1  0
 13 26  1  0
 14 27  1  1
 15 28  1  0
 15 29  1  0
 15 30  1  0
M  END
>  <UniqueID>  (40) 
38

>  <SMILES>  (40) 
C=CCN1C=CC(c2ccco2)=C[C@@H]1C

>  <Energy>  (40) 
49.5629864739471

>  <Genealogy>  (40) 
C=CCN1C=CC(c2ccco2)=C[C@@H]1C (chirality)
C=CCN1C=CC(c2ccco2)=C[C@@H]1C (3D coordinates assigned)
C=CCN1C=CC(c2ccco2)=C[C@@H]1C (nonaromatic ring conformer: 49.5629864739471 kcal/mol)

>  <smiles>  (40) 
C=CCN1C=CC(c2ccco2)=CC1C

>  <score_type>  (40) 
oracle

>  <origin>  (40) 
adg

>  <m_score__min__energy>  (40) 
-6.46

>  <m_primary>  (40) 
energy

$$$$
40:0
     RDKit          3D

 64 67  0  0  1  0  0  0  0  0999 V2000
   59.5700   33.8070   50.5700 C   0  0  0  0  0  0  0  0  0  0  0  0
   60.2340   32.4360   50.7300 C   0  0  0  0  0  0  0  0  0  0  0  0
   61.2070   32.2200   49.6030 C   0  0  0  0  0  0  0  0  0  0  0  0
   62.5380   32.5410   49.7780 C   0  0  0  0  0  0  0  0  0  0  0  0
   63.4770   32.3530   48.7600 C   0  0  0  0  0  0  0  0  0  0  0  0
   64.8410   32.6960   48.9410 N   0  0  0  0  0  0  0  0  0  0  0  0
   65.5700   32.4710   50.1370 C   0  0  0  0  0  0  0  0  0  0  0  0
   67.0030   32.8820   50.1870 C   0  0  0  0  0  0  0  0  0  0  0  0
   64.9680   31.9360   51.0940 O   0  0  0  0  0  0  0  0  0  0  0  0
   63.0670   31.8370   47.5540 C   0  0  0  0  0  0  0  0  0  0  0  0
   61.7370   31.5150   47.3740 C   0  0  0  0  0  0  0  0  0  0  0  0
   60.7990   31.7030   48.3890 C   0  0  0  0  0  0  0  0  0  0  0  0
   59.4080   31.3730   48.1860 N   0  0  0  0  0  0  0  0  0  0  0  0
   59.0830   30.2290   47.6460 C   0  0  0  0  0  0  0  0  0  0  0  0
   58.4920   30.2030   46.4060 N   0  0  0  0  0  0  0  0  0  0  0  0
   58.1610   28.9940   45.8640 C   0  0  0  0  0  0  0  0  0  0  0  0
   58.4250   27.8110   46.5700 C   0  0  0  0  0  0  0  0  0  0  0  0
   59.0100   27.8580   47.7980 C   0  0  0  0  0  0  0  0  0  0  0  0
   59.3240   29.0600   48.3070 N   0  0  0  0  0  0  0  0  0  0  0  0
   58.1400   26.4740   46.1100 N   0  0  0  0  0  0  0  0  0  0  0  0
   58.4420   25.4040   47.0300 C   0  0  0  0  0  0  0  0  0  0  0  0
   57.6010   26.1800   44.8280 C   0  0  0  0  0  0  0  0  0  0  0  0
   56.7880   25.1850   44.8650 O   0  0  0  0  0  0  0  0  0  0  0  0
   57.8430   26.8370   43.5560 C   0  0  0  0  0  0  0  0  0  0  0  0
   57.7790   28.2910   43.4260 C   0  0  0  0  0  0  0  0  0  0  0  0
   57.5560   29.1300   44.5570 N   0  0  0  0  0  0  0  0  0  0  0  0
   56.6590   30.2620   44.4820 C   0  0  0  0  0  0  0  0  0  0  0  0
   57.2000   31.4980   43.8390 C   0  0  0  0  0  0  0  0  0  0  0  0
   57.7640   32.5280   44.6980 C   0  0  0  0  0  0  0  0  0  0  0  0
   58.8330   33.3020   44.2150 C   0  0  0  0  0  0  0  0  0  0  0  0
   59.4040   34.2880   44.9790 C   0  0  0  0  0  0  0  0  0  0  0  0
   58.9650   34.5830   46.2750 C   0  0  0  0  0  0  0  0  0  0  0  0
   57.9130   33.8090   46.7290 C   0  0  0  0  0  0  0  0  0  0  0  0
   57.3250   32.8150   45.9780 C   0  0  0  0  0  0  0  0  0  0  0  0
   59.3638   34.2327   51.5631 H   0  0  0  0  0  0  0  0  0  0  0  0
   60.2430   34.4779   50.0160 H   0  0  0  0  0  0  0  0  0  0  0  0
   58.6263   33.6950   50.0160 H   0  0  0  0  0  0  0  0  0  0  0  0
   60.7693   32.3968   51.6902 H   0  0  0  0  0  0  0  0  0  0  0  0
   59.4652   31.6496   50.7088 H   0  0  0  0  0  0  0  0  0  0  0  0
   62.8678   32.9549   50.7423 H   0  0  0  0  0  0  0  0  0  0  0  0
   65.3400   33.1440   48.1380 H   0  0  0  0  0  0  0  0  0  0  0  0
   67.3218   32.9734   51.2358 H   0  0  0  0  0  0  0  0  0  0  0  0
   67.6196   32.1245   49.6810 H   0  0  0  0  0  0  0  0  0  0  0  0
   67.1244   33.8512   49.6810 H   0  0  0  0  0  0  0  0  0  0  0  0
   63.7913   31.6822   46.7407 H   0  0  0  0  0  0  0  0  0  0  0  0
   61.4096   31.1010   46.4089 H   0  0  0  0  0  0  0  0  0  0  0  0
   59.2200   26.9353   48.3588 H   0  0  0  0  0  0  0  0  0  0  0  0
   59.7730   29.0560   49.2540 H   0  0  0  0  0  0  0  0  0  0  0  0
   58.3391   25.7684   48.0628 H   0  0  0  0  0  0  0  0  0  0  0  0
   57.7442   24.5700   46.8643 H   0  0  0  0  0  0  0  0  0  0  0  0
   59.4729   25.0579   46.8643 H   0  0  0  0  0  0  0  0  0  0  0  0
   58.8544   26.5410   43.2407 H   0  0  0  0  0  0  0  0  0  0  0  0
   56.9859   26.5064   42.9510 H   0  0  0  0  0  0  0  0  0  0  0  0
   58.7383   28.6063   42.9898 H   0  0  0  0  0  0  0  0  0  0  0  0
   56.8604   28.4361   42.8386 H   0  0  0  0  0  0  0  0  0  0  0  0
   55.7722   29.9489   43.9115 H   0  0  0  0  0  0  0  0  0  0  0  0
   56.4542   30.5418   45.5259 H   0  0  0  0  0  0  0  0  0  0  0  0
   57.9917   31.1840   43.1429 H   0  0  0  0  0  0  0  0  0  0  0  0
   56.3207   31.9751   43.3816 H   0  0  0  0  0  0  0  0  0  0  0  0
   59.2201   33.1132   43.2028 H   0  0  0  0  0  0  0  0  0  0  0  0
   60.2379   34.8684   44.5575 H   0  0  0  0  0  0  0  0  0  0  0  0
   59.4236   35.3731   46.8877 H   0  0  0  0  0  0  0  0  0  0  0  0
   57.5259   33.9965   47.7414 H   0  0  0  0  0  0  0  0  0  0  0  0
   56.4907   32.2386   46.4042 H   0  0  0  0  0  0  0  0  0  0  0  0
  1  2  1  0
  2  3  1  0
  3  4  2  0
  4  5  1  0
  5  6  1  0
  6  7  1  0
  7  8  1  0
  7  9  2  0
  5 10  2  0
 10 11  1  0
 11 12  2  0
 12 13  1  0
 13 14  2  0
 14 15  1  0
 15 16  2  0
 16 17  1  0
 17 18  2  0
 18 19  1  0
 17 20  1  0
 20 21  1  0
 20 22  1  0
 22 23  2  0
 22 24  1  0
 24 25  1  0
 25 26  1  0
 26 27  1  0
 27 28  1  0
 28 29  1  0
 29 30  2  0
 30 31  1  0
 31 32  2  0
 32 33  1  0
 33 34  2  0
 12  3  1  0
 19 14  1  0
 34 29  1  0
 26 16  1  0
  1 35  1  0
  1 36  1  0
  1 37  1  0
  2 38  1  0
  2 39  1  0
  4 40  1  0
  6 41  1  0
  8 42  1  0
  8 43  1  0
  8 44  1  0
 10 45  1  0
 11 46  1  0
 18 47  1  0
 19 48  1  0
 21 49  1  0
 21 50  1  0
 21 51  1  0
 24 52  1  0
 24 53  1  0
 25 54  1  0
 25 55  1  0
 27 56  1  0
 27 57  1  0
 28 58  1  0
 28 59  1  0
 30 60  1  0
 31 61  1  0
 32 62  1  0
 33 63  1  0
 34 64  1  0
M  END
>  <smiles>  (41) 
CCc1cc(NC(C)=O)ccc1N=c1nc2c(c[nH]1)N(C)C(=O)CCN2CCc1ccccc1

>  <score_type>  (41) 
oracle

>  <origin>  (41) 
adg

>  <m_score__min__energy>  (41) 
-6.96

>  <m_primary>  (41) 
energy

$$$$
41:0
     RDKit          3D

 49 52  0  0  0  0  0  0  0  0999 V2000
   59.6290   35.3420   47.1200 C   0  0  0  0  0  0  0  0  0  0  0  0
   58.9740   34.2730   46.2980 C   0  0  0  0  0  0  0  0  0  0  0  0
   59.0170   34.3330   44.8970 C   0  0  0  0  0  0  0  0  0  0  0  0
   58.4350   33.3200   44.1290 C   0  0  0  0  0  0  0  0  0  0  0  0
   57.8100   32.2310   44.7530 C   0  0  0  0  0  0  0  0  0  0  0  0
   57.0510   30.9650   43.7830 S   0  0  0  0  0  0  0  0  0  0  0  0
   55.6430   30.7560   44.2630 O   0  0  0  0  0  0  0  0  0  0  0  0
   56.9920   31.4140   42.3480 O   0  0  0  0  0  0  0  0  0  0  0  0
   57.9280   29.4550   43.8870 N   0  0  0  0  0  0  0  0  0  0  0  0
   59.2420   29.6670   44.5370 C   0  0  0  0  0  0  0  0  0  0  0  0
   59.7890   28.3530   45.1070 C   0  0  0  0  0  0  0  0  0  0  0  0
   58.9200   27.8350   46.1880 N   0  0  0  0  0  0  0  0  0  0  0  0
   59.1340   26.3870   46.3820 C   0  0  0  0  0  0  0  0  0  0  0  0
   57.9740   25.6050   45.8250 C   0  0  0  0  0  0  0  0  0  0  0  0
   57.9870   25.1950   44.4670 C   0  0  0  0  0  0  0  0  0  0  0  0
   56.9170   24.4530   43.9350 C   0  0  0  0  0  0  0  0  0  0  0  0
   55.8590   24.1410   44.7830 C   0  0  0  0  0  0  0  0  0  0  0  0
   55.8410   24.5290   46.0820 C   0  0  0  0  0  0  0  0  0  0  0  0
   56.8780   25.2650   46.6470 C   0  0  0  0  0  0  0  0  0  0  0  0
   54.6780   24.0810   46.6800 O   0  0  0  0  0  0  0  0  0  0  0  0
   53.9200   23.3660   45.6940 C   0  0  0  0  0  0  0  0  0  0  0  0
   54.7100   23.4290   44.4980 O   0  0  0  0  0  0  0  0  0  0  0  0
   57.4840   28.1730   46.0080 C   0  0  0  0  0  0  0  0  0  0  0  0
   57.1100   28.3940   44.5310 C   0  0  0  0  0  0  0  0  0  0  0  0
   57.7920   32.1560   46.1530 C   0  0  0  0  0  0  0  0  0  0  0  0
   58.3730   33.1690   46.9210 C   0  0  0  0  0  0  0  0  0  0  0  0
   59.4921   35.1186   48.1883 H   0  0  0  0  0  0  0  0  0  0  0  0
   60.7036   35.3767   46.8874 H   0  0  0  0  0  0  0  0  0  0  0  0
   59.1719   36.3151   46.8874 H   0  0  0  0  0  0  0  0  0  0  0  0
   59.5110   35.1811   44.4004 H   0  0  0  0  0  0  0  0  0  0  0  0
   58.4676   33.3776   43.0310 H   0  0  0  0  0  0  0  0  0  0  0  0
   58.1090   29.1570   42.8980 H   0  0  0  0  0  0  0  0  0  0  0  0
   59.9518   30.0605   43.7945 H   0  0  0  0  0  0  0  0  0  0  0  0
   59.1141   30.3821   45.3630 H   0  0  0  0  0  0  0  0  0  0  0  0
   59.8420   27.6067   44.3006 H   0  0  0  0  0  0  0  0  0  0  0  0
   60.7883   28.5442   45.5251 H   0  0  0  0  0  0  0  0  0  0  0  0
   60.0565   26.0846   45.8648 H   0  0  0  0  0  0  0  0  0  0  0  0
   59.2190   26.1803   47.4591 H   0  0  0  0  0  0  0  0  0  0  0  0
   58.8403   25.4594   43.8252 H   0  0  0  0  0  0  0  0  0  0  0  0
   56.9167   24.1301   42.8835 H   0  0  0  0  0  0  0  0  0  0  0  0
   56.8447   25.5726   47.7026 H   0  0  0  0  0  0  0  0  0  0  0  0
   53.7712   22.3211   46.0041 H   0  0  0  0  0  0  0  0  0  0  0  0
   52.9188   23.7984   45.5502 H   0  0  0  0  0  0  0  0  0  0  0  0
   56.8750   27.3481   46.4063 H   0  0  0  0  0  0  0  0  0  0  0  0
   57.2926   29.1136   46.5452 H   0  0  0  0  0  0  0  0  0  0  0  0
   57.2617   27.4516   43.9843 H   0  0  0  0  0  0  0  0  0  0  0  0
   56.0591   28.7174   44.4981 H   0  0  0  0  0  0  0  0  0  0  0  0
   57.3185   31.2960   46.6492 H   0  0  0  0  0  0  0  0  0  0  0  0
   58.3590   33.1003   48.0188 H   0  0  0  0  0  0  0  0  0  0  0  0
  1  2  1  0
  2  3  2  0
  3  4  1  0
  4  5  2  0
  5  6  1  0
  6  7  2  0
  6  8  2  0
  6  9  1  0
  9 10  1  0
 10 11  1  0
 11 12  1  0
 12 13  1  0
 13 14  1  0
 14 15  2  0
 15 16  1  0
 16 17  2  0
 17 18  1  0
 18 19  2  0
 18 20  1  0
 20 21  1  0
 21 22  1  0
 12 23  1  0
 23 24  1  0
  5 25  1  0
 25 26  2  0
 26  2  1  0
 24  9  1  0
 19 14  1  0
 22 17  1  0
  1 27  1  0
  1 28  1  0
  1 29  1  0
  3 30  1  0
  4 31  1  0
  9 32  1  0
 10 33  1  0
 10 34  1  0
 11 35  1  0
 11 36  1  0
 13 37  1  0
 13 38  1  0
 15 39  1  0
 16 40  1  0
 19 41  1  0
 21 42  1  0
 21 43  1  0
 23 44  1  0
 23 45  1  0
 24 46  1  0
 24 47  1  0
 25 48  1  0
 26 49  1  0
M  CHG  1   9   1
M  END
>  <UniqueID>  (42) 
39

>  <SMILES>  (42) 
Cc1ccc(S(=O)(=O)[NH+]2CCN(Cc3ccc4c(c3)OCO4)CC2)cc1

>  <Energy>  (42) 
88.80019890110076

>  <Genealogy>  (42) 
Cc1ccc(S(=O)(=O)[NH+]2CCN(Cc3ccc4c(c3)OCO4)CC2)cc1 (protonated)
Cc1ccc(S(=O)(=O)[NH+]2CCN(Cc3ccc4c(c3)OCO4)CC2)cc1 (3D coordinates assigned)
Cc1ccc(S(=O)(=O)[NH+]2CCN(Cc3ccc4c(c3)OCO4)CC2)cc1 (nonaromatic ring conformer: 88.80019890110076 kcal/mol)

>  <smiles>  (42) 
Cc1ccc(S(=O)(=O)N2CCN(Cc3ccc4c(c3)OCO4)CC2)cc1

>  <score_type>  (42) 
oracle

>  <origin>  (42) 
adg

>  <m_score__min__energy>  (42) 
-7.6699999999999999

>  <m_primary>  (42) 
energy

$$$$
42:0
     RDKit          3D

 34 37  0  0  0  0  0  0  0  0999 V2000
   57.7190   27.7240   47.3840 O   0  0  0  0  0  0  0  0  0  0  0  0
   58.2740   28.7950   47.0210 C   0  0  0  0  0  0  0  0  0  0  0  0
   59.4590   29.2420   47.6270 C   0  0  0  0  0  0  0  0  0  0  0  0
   60.0410   30.4610   47.1830 C   0  0  0  0  0  0  0  0  0  0  0  0
   61.2830   30.9910   47.7830 C   0  0  0  0  0  0  0  0  0  0  0  0
   62.3470   31.6100   47.1260 C   0  0  0  0  0  0  0  0  0  0  0  0
   63.3800   32.0000   47.9890 C   0  0  0  0  0  0  0  0  0  0  0  0
   63.1440   31.6960   49.3220 C   0  0  0  0  0  0  0  0  0  0  0  0
   61.6470   30.9410   49.4270 S   0  0  0  0  0  0  0  0  0  0  0  0
   59.4410   31.1710   46.1780 N   0  0  0  0  0  0  0  0  0  0  0  0
   58.3030   30.6890   45.6250 C   0  0  0  0  0  0  0  0  0  0  0  0
   57.5140   31.2070   44.6360 C   0  0  0  0  0  0  0  0  0  0  0  0
   57.7540   32.7330   43.7280 S   0  0  0  0  0  0  0  0  0  0  0  0
   57.2550   33.8160   45.1120 C   0  0  0  0  0  0  0  0  0  0  0  0
   58.3840   33.9990   46.0880 C   0  0  0  0  0  0  0  0  0  0  0  0
   58.1970   33.6930   47.4470 C   0  0  0  0  0  0  0  0  0  0  0  0
   59.2540   33.8370   48.3520 C   0  0  0  0  0  0  0  0  0  0  0  0
   60.5020   34.2820   47.9080 C   0  0  0  0  0  0  0  0  0  0  0  0
   60.6970   34.5820   46.5570 C   0  0  0  0  0  0  0  0  0  0  0  0
   59.6430   34.4410   45.6480 C   0  0  0  0  0  0  0  0  0  0  0  0
   56.4780   30.3500   44.4640 N   0  0  0  0  0  0  0  0  0  0  0  0
   56.6430   29.3500   45.3290 N   0  0  0  0  0  0  0  0  0  0  0  0
   57.7450   29.5540   46.0320 N   0  0  0  0  0  0  0  0  0  0  0  0
   59.9295   28.6587   48.4322 H   0  0  0  0  0  0  0  0  0  0  0  0
   62.3724   31.7754   46.0388 H   0  0  0  0  0  0  0  0  0  0  0  0
   64.2950   32.5017   47.6411 H   0  0  0  0  0  0  0  0  0  0  0  0
   63.8192   31.9117   50.1632 H   0  0  0  0  0  0  0  0  0  0  0  0
   56.9623   34.7982   44.7125 H   0  0  0  0  0  0  0  0  0  0  0  0
   56.4106   33.3461   45.6375 H   0  0  0  0  0  0  0  0  0  0  0  0
   57.2170   33.3394   47.7999 H   0  0  0  0  0  0  0  0  0  0  0  0
   59.1024   33.5994   49.4153 H   0  0  0  0  0  0  0  0  0  0  0  0
   61.3310   34.3962   48.6219 H   0  0  0  0  0  0  0  0  0  0  0  0
   61.6806   34.9295   46.2079 H   0  0  0  0  0  0  0  0  0  0  0  0
   59.8005   34.6770   44.5852 H   0  0  0  0  0  0  0  0  0  0  0  0
  1  2  2  0
  2  3  1  0
  3  4  2  0
  4  5  1  0
  5  6  2  0
  6  7  1  0
  7  8  2  0
  8  9  1  0
  4 10  1  0
 10 11  1  0
 11 12  2  0
 12 13  1  0
 13 14  1  0
 14 15  1  0
 15 16  2  0
 16 17  1  0
 17 18  2  0
 18 19  1  0
 19 20  2  0
 12 21  1  0
 21 22  2  0
 22 23  1  0
 23  2  1  0
  9  5  1  0
 23 11  1  0
 20 15  1  0
  3 24  1  0
  6 25  1  0
  7 26  1  0
  8 27  1  0
 14 28  1  0
 14 29  1  0
 16 30  1  0
 17 31  1  0
 18 32  1  0
 19 33  1  0
 20 34  1  0
M  CHG  1  10  -1
M  END
>  <UniqueID>  (43) 
40

>  <SMILES>  (43) 
O=c1cc(-c2cccs2)[n-]c2c(SCc3ccccc3)nnn12

>  <Energy>  (43) 
105.99241634359674

>  <Genealogy>  (43) 
O=c1cc(-c2cccs2)[n-]c2c(SCc3ccccc3)nnn12 (protonated)
O=c1cc(-c2cccs2)[n-]c2c(SCc3ccccc3)nnn12 (3D coordinates assigned)
O=c1cc(-c2cccs2)[n-]c2c(SCc3ccccc3)nnn12 (optimized conformer: 105.99241634359674 kcal/mol)

>  <smiles>  (43) 
O=c1cc(-c2cccs2)[nH]c2c(SCc3ccccc3)nnn12

>  <score_type>  (43) 
oracle

>  <origin>  (43) 
adg

>  <m_score__min__energy>  (43) 
-9.0800000000000001

>  <m_primary>  (43) 
energy

$$$$
43:0
     RDKit          3D

 38 40  0  0  0  0  0  0  0  0999 V2000
   58.6655   35.1200   48.1958 H   0  0  0  0  0  0  0  0  0  0  0  0
   59.2870   34.2310   48.0130 C   0  0  0  0  0  0  0  0  0  0  0  0
   60.3490   34.0410   48.8060 C   0  0  0  0  0  0  0  0  0  0  0  0
   60.2650   34.1660   50.1940 O   0  0  0  0  0  0  0  0  0  0  0  0
   61.5120   33.8450   50.7170 C   0  0  0  0  0  0  0  0  0  0  0  0
   61.7830   33.8470   51.9460 O   0  0  0  0  0  0  0  0  0  0  0  0
   62.4350   33.5360   49.6380 C   0  0  0  0  0  0  0  0  0  0  0  0
   63.8000   33.2430   49.6720 C   0  0  0  0  0  0  0  0  0  0  0  0
   64.4500   33.1170   50.9090 O   0  0  0  0  0  0  0  0  0  0  0  0
   65.8260   32.7840   51.0580 C   0  0  0  0  0  0  0  0  0  0  0  0
   66.0749   32.7238   52.1278 H   0  0  0  0  0  0  0  0  0  0  0  0
   66.0219   31.8125   50.5807 H   0  0  0  0  0  0  0  0  0  0  0  0
   66.4444   33.5584   50.5807 H   0  0  0  0  0  0  0  0  0  0  0  0
   64.4660   33.0920   48.4350 C   0  0  0  0  0  0  0  0  0  0  0  0
   65.5344   32.8308   48.4176 H   0  0  0  0  0  0  0  0  0  0  0  0
   63.7700   33.2740   47.2240 C   0  0  0  0  0  0  0  0  0  0  0  0
   64.3044   33.1714   46.2680 H   0  0  0  0  0  0  0  0  0  0  0  0
   62.4010   33.5850   47.2250 C   0  0  0  0  0  0  0  0  0  0  0  0
   61.8623   33.7557   46.2812 H   0  0  0  0  0  0  0  0  0  0  0  0
   61.7370   33.6730   48.4540 C   0  0  0  0  0  0  0  0  0  0  0  0
   58.8920   33.3350   46.9140 C   0  0  0  0  0  0  0  0  0  0  0  0
   58.4680   33.8550   45.6810 C   0  0  0  0  0  0  0  0  0  0  0  0
   58.3936   34.9436   45.5415 H   0  0  0  0  0  0  0  0  0  0  0  0
   58.1400   32.9940   44.6300 C   0  0  0  0  0  0  0  0  0  0  0  0
   57.7795   33.4087   43.6771 H   0  0  0  0  0  0  0  0  0  0  0  0
   58.2670   31.6050   44.7810 C   0  0  0  0  0  0  0  0  0  0  0  0
   57.9010   30.7420   43.6900 N   0  0  0  0  0  0  0  0  0  0  0  0
   58.6370   30.4970   42.9900 H   0  0  0  0  0  0  0  0  0  0  0  0
   56.6200   30.1050   43.5610 C   0  0  0  0  0  0  0  0  0  0  0  0
   55.8190   30.0670   44.5340 O   0  0  0  0  0  0  0  0  0  0  0  0
   56.2690   29.3920   42.2960 C   0  0  0  0  0  0  0  0  0  0  0  0
   55.7950   28.4291   42.5372 H   0  0  0  0  0  0  0  0  0  0  0  0
   55.5710   30.0076   41.7097 H   0  0  0  0  0  0  0  0  0  0  0  0
   57.1826   29.2143   41.7097 H   0  0  0  0  0  0  0  0  0  0  0  0
   58.7030   31.0880   46.0150 C   0  0  0  0  0  0  0  0  0  0  0  0
   58.7869   29.9999   46.1531 H   0  0  0  0  0  0  0  0  0  0  0  0
   59.0300   31.9490   47.0660 C   0  0  0  0  0  0  0  0  0  0  0  0
   59.3975   31.5366   48.0172 H   0  0  0  0  0  0  0  0  0  0  0  0
  1  2  1  0
  2  3  2  0
  3  4  1  0
  4  5  1  0
  5  6  2  0
  5  7  1  0
  7  8  2  0
  8  9  1  0
  9 10  1  0
 10 11  1  0
 10 12  1  0
 10 13  1  0
  8 14  1  0
 14 15  1  0
 14 16  2  0
 16 17  1  0
 16 18  1  0
 18 19  1  0
 18 20  2  0
  2 21  1  0
 21 22  2  0
 22 23  1  0
 22 24  1  0
 24 25  1  0
 24 26  2  0
 26 27  1  0
 27 28  1  0
 27 29  1  0
 29 30  2  0
 29 31  1  0
 31 32  1  0
 31 33  1  0
 31 34  1  0
 26 35  1  0
 35 36  1  0
 35 37  2  0
 37 38  1  0
 20  3  1  0
 37 21  1  0
 20  7  1  0
M  END
>  <UniqueID>  (44) 
41

>  <SMILES>  (44) 
COc1cccc2c1C(=O)O/C2=C/c1ccc(NC(C)=O)cc1

>  <Energy>  (44) 
81.04020221569414

>  <Genealogy>  (44) 
COc1cccc2c1C(=O)O/C2=C/c1ccc(NC(C)=O)cc1 (cis-trans isomerization)
COc1cccc2c1C(=O)O/C2=C/c1ccc(NC(C)=O)cc1 (3D coordinates assigned)
COc1cccc2c1C(=O)O/C2=C/c1ccc(NC(C)=O)cc1 (nonaromatic ring conformer: 81.04020221569414 kcal/mol)

>  <smiles>  (44) 
COc1cccc2c1C(=O)OC2=Cc1ccc(NC(C)=O)cc1

>  <score_type>  (44) 
oracle

>  <origin>  (44) 
adg

>  <m_score__min__energy>  (44) 
-7.7699999999999996

>  <m_primary>  (44) 
energy

$$$$
44:0
     RDKit          3D

 49 52  0  0  0  0  0  0  0  0999 V2000
   60.5030   30.0250   46.1630 C   0  0  0  0  0  0  0  0  0  0  0  0
   60.3910   31.5070   46.3930 C   0  0  0  0  0  0  0  0  0  0  0  0
   61.4370   32.2890   46.9280 C   0  0  0  0  0  0  0  0  0  0  0  0
   62.8040   31.8300   47.3650 C   0  0  0  0  0  0  0  0  0  0  0  0
   63.0570   32.1040   48.8660 C   0  0  0  0  0  0  0  0  0  0  0  0
   63.4010   33.5970   49.1220 C   0  0  0  0  0  0  0  0  0  0  0  0
   63.1190   33.9940   50.5740 C   0  0  0  0  0  0  0  0  0  0  0  0
   61.6240   33.8470   50.9210 C   0  0  0  0  0  0  0  0  0  0  0  0
   60.9090   32.7560   50.0980 C   0  0  0  0  0  0  0  0  0  0  0  0
   61.8620   31.6140   49.7290 C   0  0  0  0  0  0  0  0  0  0  0  0
   60.9430   33.9000   47.0420 S   0  0  0  0  0  0  0  0  0  0  0  0
   59.4250   33.6310   46.3950 C   0  0  0  0  0  0  0  0  0  0  0  0
   58.4620   34.5630   46.2040 N   0  0  0  0  0  0  0  0  0  0  0  0
   57.2760   34.1830   45.6590 C   0  0  0  0  0  0  0  0  0  0  0  0
   57.0740   32.8850   45.2950 N   0  0  0  0  0  0  0  0  0  0  0  0
   58.0280   31.9250   45.4720 C   0  0  0  0  0  0  0  0  0  0  0  0
   57.7580   30.5980   45.0050 N   0  0  0  0  0  0  0  0  0  0  0  0
   57.6160   29.5110   45.9800 C   0  0  0  0  0  0  0  0  0  0  0  0
   56.6580   28.4480   45.4390 C   0  0  0  0  0  0  0  0  0  0  0  0
   55.5370   29.0870   44.8650 O   0  0  0  0  0  0  0  0  0  0  0  0
   55.8810   29.7230   43.6410 C   0  0  0  0  0  0  0  0  0  0  0  0
   57.2760   30.3940   43.6350 C   0  0  0  0  0  0  0  0  0  0  0  0
   59.2560   32.2950   46.0610 C   0  0  0  0  0  0  0  0  0  0  0  0
   60.5423   29.5055   47.1318 H   0  0  0  0  0  0  0  0  0  0  0  0
   59.6287   29.6751   45.5945 H   0  0  0  0  0  0  0  0  0  0  0  0
   61.4199   29.8104   45.5945 H   0  0  0  0  0  0  0  0  0  0  0  0
   62.8904   30.7487   47.1823 H   0  0  0  0  0  0  0  0  0  0  0  0
   63.5515   32.3932   46.7870 H   0  0  0  0  0  0  0  0  0  0  0  0
   63.9385   31.5235   49.1759 H   0  0  0  0  0  0  0  0  0  0  0  0
   64.4673   33.7607   48.9068 H   0  0  0  0  0  0  0  0  0  0  0  0
   62.7711   34.2151   48.4654 H   0  0  0  0  0  0  0  0  0  0  0  0
   63.7061   33.3465   51.2419 H   0  0  0  0  0  0  0  0  0  0  0  0
   63.4008   35.0494   50.7037 H   0  0  0  0  0  0  0  0  0  0  0  0
   61.5369   33.5925   51.9876 H   0  0  0  0  0  0  0  0  0  0  0  0
   61.1391   34.8049   50.6814 H   0  0  0  0  0  0  0  0  0  0  0  0
   60.0767   32.3491   50.6910 H   0  0  0  0  0  0  0  0  0  0  0  0
   60.5411   33.2122   49.1671 H   0  0  0  0  0  0  0  0  0  0  0  0
   62.2532   31.1659   50.6543 H   0  0  0  0  0  0  0  0  0  0  0  0
   61.2963   30.8794   49.1371 H   0  0  0  0  0  0  0  0  0  0  0  0
   58.6230   35.5600   46.4720 H   0  0  0  0  0  0  0  0  0  0  0  0
   56.4773   34.9248   45.5114 H   0  0  0  0  0  0  0  0  0  0  0  0
   58.6001   29.0553   46.1641 H   0  0  0  0  0  0  0  0  0  0  0  0
   57.2128   29.9174   46.9193 H   0  0  0  0  0  0  0  0  0  0  0  0
   57.1701   27.8451   44.6746 H   0  0  0  0  0  0  0  0  0  0  0  0
   56.3314   27.7911   46.2587 H   0  0  0  0  0  0  0  0  0  0  0  0
   55.8606   28.9660   42.8431 H   0  0  0  0  0  0  0  0  0  0  0  0
   55.1465   30.5278   43.4899 H   0  0  0  0  0  0  0  0  0  0  0  0
   57.9848   29.7490   43.0949 H   0  0  0  0  0  0  0  0  0  0  0  0
   57.1962   31.3723   43.1384 H   0  0  0  0  0  0  0  0  0  0  0  0
  1  2  1  0
  2  3  2  0
  3  4  1  0
  4  5  1  0
  5  6  1  0
  6  7  1  0
  7  8  1  0
  8  9  1  0
  9 10  1  0
  3 11  1  0
 11 12  1  0
 12 13  2  0
 13 14  1  0
 14 15  2  0
 15 16  1  0
 16 17  1  0
 17 18  1  0
 18 19  1  0
 19 20  1  0
 20 21  1  0
 21 22  1  0
 16 23  2  0
 23  2  1  0
 10  5  1  0
 23 12  1  0
 22 17  1  0
  1 24  1  0
  1 25  1  0
  1 26  1  0
  4 27  1  0
  4 28  1  0
  5 29  1  0
  6 30  1  0
  6 31  1  0
  7 32  1  0
  7 33  1  0
  8 34  1  0
  8 35  1  0
  9 36  1  0
  9 37  1  0
 10 38  1  0
 10 39  1  0
 13 40  1  0
 14 41  1  0
 18 42  1  0
 18 43  1  0
 19 44  1  0
 19 45  1  0
 21 46  1  0
 21 47  1  0
 22 48  1  0
 22 49  1  0
M  CHG  1  13   1
M  END
>  <UniqueID>  (45) 
42

>  <SMILES>  (45) 
Cc1c(CC2CCCCC2)sc2[nH+]cnc(N3CCOCC3)c12

>  <Energy>  (45) 
99.07310926816304

>  <Genealogy>  (45) 
Cc1c(CC2CCCCC2)sc2[nH+]cnc(N3CCOCC3)c12 (protonated)
Cc1c(CC2CCCCC2)sc2[nH+]cnc(N3CCOCC3)c12 (3D coordinates assigned)
Cc1c(CC2CCCCC2)sc2[nH+]cnc(N3CCOCC3)c12 (nonaromatic ring conformer: 99.07310926816304 kcal/mol)

>  <smiles>  (45) 
Cc1c(CC2CCCCC2)sc2ncnc(N3CCOCC3)c12

>  <score_type>  (45) 
oracle

>  <origin>  (45) 
adg

>  <m_score__min__energy>  (45) 
-6.54

>  <m_primary>  (45) 
energy

$$$$
45:0
     RDKit          3D

 32 33  0  0  0  0  0  0  0  0999 V2000
   56.4470   32.0120   52.3400 C   0  0  0  0  0  0  0  0  0  0  0  0
   55.3910   31.0950   52.6070 O   0  0  0  0  0  0  0  0  0  0  0  0
   55.5600   29.8270   53.1880 C   0  0  0  0  0  0  0  0  0  0  0  0
   56.7100   29.0500   52.9420 C   0  0  0  0  0  0  0  0  0  0  0  0
   56.8630   27.8020   53.5470 C   0  0  0  0  0  0  0  0  0  0  0  0
   55.8800   27.3150   54.4070 C   0  0  0  0  0  0  0  0  0  0  0  0
   54.7350   28.0720   54.6590 C   0  0  0  0  0  0  0  0  0  0  0  0
   54.5540   29.3240   54.0440 C   0  0  0  0  0  0  0  0  0  0  0  0
   53.2940   30.1230   54.3340 C   0  0  0  0  0  0  0  0  0  0  0  0
   52.6840   30.7580   53.1380 N   0  0  0  0  0  0  0  0  0  0  0  0
   52.3630   29.7740   52.0790 C   0  0  0  0  0  0  0  0  0  0  0  0
   51.8530   30.4690   50.8460 C   0  0  0  0  0  0  0  0  0  0  0  0
   51.9930   29.9310   49.7160 O   0  0  0  0  0  0  0  0  0  0  0  0
   51.1610   31.7160   50.9700 N   0  0  0  0  0  0  0  0  0  0  0  0
   50.6790   32.3400   49.8680 O   0  0  0  0  0  0  0  0  0  0  0  0
   50.9970   32.3090   52.2630 C   0  0  0  0  0  0  0  0  0  0  0  0
   50.3880   33.4050   52.3860 O   0  0  0  0  0  0  0  0  0  0  0  0
   51.5040   31.5870   53.4800 C   0  0  0  0  0  0  0  0  0  0  0  0
   56.8658   32.3757   53.2899 H   0  0  0  0  0  0  0  0  0  0  0  0
   57.2344   31.5062   51.7619 H   0  0  0  0  0  0  0  0  0  0  0  0
   56.0566   32.8625   51.7619 H   0  0  0  0  0  0  0  0  0  0  0  0
   57.4922   29.4301   52.2685 H   0  0  0  0  0  0  0  0  0  0  0  0
   57.7617   27.2008   53.3448 H   0  0  0  0  0  0  0  0  0  0  0  0
   56.0069   26.3335   54.8873 H   0  0  0  0  0  0  0  0  0  0  0  0
   53.9667   27.6859   55.3451 H   0  0  0  0  0  0  0  0  0  0  0  0
   52.5515   29.4453   54.7806 H   0  0  0  0  0  0  0  0  0  0  0  0
   53.5877   30.9402   55.0092 H   0  0  0  0  0  0  0  0  0  0  0  0
   53.4180   31.4020   52.7540 H   0  0  0  0  0  0  0  0  0  0  0  0
   53.2710   29.2074   51.8250 H   0  0  0  0  0  0  0  0  0  0  0  0
   51.5819   29.0949   52.4515 H   0  0  0  0  0  0  0  0  0  0  0  0
   51.7889   32.3238   54.2455 H   0  0  0  0  0  0  0  0  0  0  0  0
   50.7076   30.9315   53.8622 H   0  0  0  0  0  0  0  0  0  0  0  0
  1  2  1  0
  2  3  1  0
  3  4  2  0
  4  5  1  0
  5  6  2  0
  6  7  1  0
  7  8  2  0
  8  9  1  0
  9 10  1  0
 10 11  1  0
 11 12  1  0
 12 13  2  0
 12 14  1  0
 14 15  1  0
 14 16  1  0
 16 17  2  0
 16 18  1  0
  8  3  1  0
 18 10  1  0
  1 19  1  0
  1 20  1  0
  1 21  1  0
  4 22  1  0
  5 23  1  0
  6 24  1  0
  7 25  1  0
  9 26  1  0
  9 27  1  0
 10 28  1  0
 11 29  1  0
 11 30  1  0
 18 31  1  0
 18 32  1  0
M  CHG  2  10   1  15  -1
M  END
>  <UniqueID>  (46) 
43

>  <SMILES>  (46) 
COc1ccccc1C[NH+]1CC(=O)N([O-])C(=O)C1

>  <Energy>  (46) 
35.806193855057074

>  <Genealogy>  (46) 
COc1ccccc1C[NH+]1CC(=O)N([O-])C(=O)C1 (protonated)
COc1ccccc1C[NH+]1CC(=O)N([O-])C(=O)C1 (3D coordinates assigned)
COc1ccccc1C[NH+]1CC(=O)N([O-])C(=O)C1 (nonaromatic ring conformer: 35.806193855057074 kcal/mol)

>  <smiles>  (46) 
COc1ccccc1CN1CC(=O)N(O)C(=O)C1

>  <score_type>  (46) 
oracle

>  <origin>  (46) 
adg

>  <m_score__min__energy>  (46) 
-8.1999999999999993

>  <m_primary>  (46) 
energy

$$$$
46:0
     RDKit          3D

 44 47  0  0  0  0  0  0  0  0999 V2000
   58.6640   32.6050   44.7030 O   0  0  0  0  0  0  0  0  0  0  0  0
   58.1430   32.0070   45.6830 C   0  0  0  0  0  0  0  0  0  0  0  0
   57.7920   32.7300   46.8690 N   0  0  0  0  0  0  0  0  0  0  0  0
   58.6930   33.1950   47.8860 C   0  0  0  0  0  0  0  0  0  0  0  0
   59.6970   34.1040   47.5280 C   0  0  0  0  0  0  0  0  0  0  0  0
   60.6070   34.5670   48.4840 C   0  0  0  0  0  0  0  0  0  0  0  0
   60.5290   34.1100   49.8030 C   0  0  0  0  0  0  0  0  0  0  0  0
   59.5470   33.1840   50.1630 C   0  0  0  0  0  0  0  0  0  0  0  0
   58.6350   32.7200   49.2090 C   0  0  0  0  0  0  0  0  0  0  0  0
   57.9210   30.5400   45.6240 C   0  0  0  0  0  0  0  0  0  0  0  0
   58.7450   29.6500   46.2310 C   0  0  0  0  0  0  0  0  0  0  0  0
   59.8300   30.0490   47.1550 C   0  0  0  0  0  0  0  0  0  0  0  0
   59.7650   29.6630   48.5040 C   0  0  0  0  0  0  0  0  0  0  0  0
   60.7630   30.0600   49.4000 C   0  0  0  0  0  0  0  0  0  0  0  0
   61.8230   30.8590   48.9610 C   0  0  0  0  0  0  0  0  0  0  0  0
   63.0720   31.3570   50.0880 Cl  0  0  0  0  0  0  0  0  0  0  0  0
   61.8810   31.2690   47.6260 C   0  0  0  0  0  0  0  0  0  0  0  0
   60.8850   30.8740   46.7270 C   0  0  0  0  0  0  0  0  0  0  0  0
   58.5630   28.2730   46.0320 O   0  0  0  0  0  0  0  0  0  0  0  0
   57.7690   27.7230   44.9780 C   0  0  1  0  0  0  0  0  0  0  0  0
   57.2780   26.3580   45.3820 C   0  0  0  0  0  0  0  0  0  0  0  0
   57.8060   25.2050   44.7820 C   0  0  0  0  0  0  0  0  0  0  0  0
   57.3540   23.9440   45.1730 C   0  0  0  0  0  0  0  0  0  0  0  0
   56.3780   23.8450   46.1670 C   0  0  0  0  0  0  0  0  0  0  0  0
   55.8790   24.9700   46.7450 N   0  0  0  0  0  0  0  0  0  0  0  0
   56.3020   26.2100   46.3810 C   0  0  0  0  0  0  0  0  0  0  0  0
   56.6370   28.5960   44.6830 N   0  0  0  0  0  0  0  0  0  0  0  0
   56.7750   30.0080   44.8550 C   0  0  0  0  0  0  0  0  0  0  0  0
   55.9220   30.7810   44.3420 O   0  0  0  0  0  0  0  0  0  0  0  0
   59.7702   34.4559   46.4884 H   0  0  0  0  0  0  0  0  0  0  0  0
   61.3843   35.2909   48.1980 H   0  0  0  0  0  0  0  0  0  0  0  0
   61.2402   34.4793   50.5566 H   0  0  0  0  0  0  0  0  0  0  0  0
   59.4907   32.8188   51.1991 H   0  0  0  0  0  0  0  0  0  0  0  0
   57.8707   31.9820   49.4940 H   0  0  0  0  0  0  0  0  0  0  0  0
   58.9257   29.0459   48.8573 H   0  0  0  0  0  0  0  0  0  0  0  0
   60.7138   29.7429   50.4522 H   0  0  0  0  0  0  0  0  0  0  0  0
   62.7112   31.9033   47.2819 H   0  0  0  0  0  0  0  0  0  0  0  0
   60.9273   31.2103   45.6805 H   0  0  0  0  0  0  0  0  0  0  0  0
   58.3855   27.6368   44.0711 H   0  0  0  0  0  0  0  0  0  0  0  0
   58.5770   25.2951   44.0026 H   0  0  0  0  0  0  0  0  0  0  0  0
   57.7623   23.0371   44.7030 H   0  0  0  0  0  0  0  0  0  0  0  0
   56.0128   22.8565   46.4824 H   0  0  0  0  0  0  0  0  0  0  0  0
   55.8786   27.0996   46.8703 H   0  0  0  0  0  0  0  0  0  0  0  0
   55.8300   28.2280   44.1300 H   0  0  0  0  0  0  0  0  0  0  0  0
  1  2  2  0
  2  3  1  0
  3  4  1  0
  4  5  2  0
  5  6  1  0
  6  7  2  0
  7  8  1  0
  8  9  2  0
  2 10  1  0
 10 11  2  0
 11 12  1  0
 12 13  2  0
 13 14  1  0
 14 15  2  0
 15 16  1  0
 15 17  1  0
 17 18  2  0
 11 19  1  0
 19 20  1  0
 20 21  1  0
 21 22  2  0
 22 23  1  0
 23 24  2  0
 24 25  1  0
 25 26  2  0
 20 27  1  0
 27 28  1  0
 28 29  2  0
  9  4  1  0
 28 10  1  0
 18 12  1  0
 26 21  1  0
  5 30  1  0
  6 31  1  0
  7 32  1  0
  8 33  1  0
  9 34  1  0
 13 35  1  0
 14 36  1  0
 17 37  1  0
 18 38  1  0
 20 39  1  6
 22 40  1  0
 23 41  1  0
 24 42  1  0
 26 43  1  0
 27 44  1  0
M  CHG  1   3  -1
M  END
>  <UniqueID>  (47) 
44

>  <SMILES>  (47) 
O=C([N-]c1ccccc1)C1=C(c2ccc(Cl)cc2)O[C@@H](c2cccnc2)NC1=O

>  <Energy>  (47) 
64.07375766856897

>  <Genealogy>  (47) 
O=C([N-]c1ccccc1)C1=C(c2ccc(Cl)cc2)OC(c2cccnc2)NC1=O (protonated)
O=C([N-]c1ccccc1)C1=C(c2ccc(Cl)cc2)O[C@@H](c2cccnc2)NC1=O (chirality)
O=C([N-]c1ccccc1)C1=C(c2ccc(Cl)cc2)O[C@@H](c2cccnc2)NC1=O (3D coordinates assigned)
O=C([N-]c1ccccc1)C1=C(c2ccc(Cl)cc2)O[C@@H](c2cccnc2)NC1=O (nonaromatic ring conformer: 64.07375766856897 kcal/mol)

>  <smiles>  (47) 
O=C(Nc1ccccc1)C1=C(c2ccc(Cl)cc2)OC(c2cccnc2)NC1=O

>  <score_type>  (47) 
oracle

>  <origin>  (47) 
adg

>  <m_score__min__energy>  (47) 
-8.9800000000000004

>  <m_primary>  (47) 
energy

$$$$
47:0
     RDKit          3D

 34 36  0  0  0  0  0  0  0  0999 V2000
   58.0790   28.0580   43.1060 O   0  0  0  0  0  0  0  0  0  0  0  0
   57.1660   28.6560   43.7360 C   0  0  0  0  0  0  0  0  0  0  0  0
   56.5620   29.8960   43.1490 C   0  0  0  0  0  0  0  0  0  0  0  0
   57.2920   31.0860   43.6180 N   0  0  0  0  0  0  0  0  0  0  0  0
   57.7490   31.9900   42.6990 C   0  0  0  0  0  0  0  0  0  0  0  0
   58.4030   33.1100   43.0960 N   0  0  0  0  0  0  0  0  0  0  0  0
   58.6170   33.3720   44.4080 C   0  0  0  0  0  0  0  0  0  0  0  0
   59.2940   34.5360   44.7890 C   0  0  0  0  0  0  0  0  0  0  0  0
   59.5120   34.8080   46.1420 C   0  0  0  0  0  0  0  0  0  0  0  0
   59.0530   33.9200   47.1190 C   0  0  0  0  0  0  0  0  0  0  0  0
   58.3750   32.7550   46.7480 C   0  0  0  0  0  0  0  0  0  0  0  0
   58.1530   32.4720   45.3870 C   0  0  0  0  0  0  0  0  0  0  0  0
   57.4770   31.3160   44.9580 C   0  0  0  0  0  0  0  0  0  0  0  0
   57.0390   30.4910   45.8100 O   0  0  0  0  0  0  0  0  0  0  0  0
   56.7640   28.2110   45.0410 N   0  0  0  0  0  0  0  0  0  0  0  0
   57.1840   26.9680   45.6300 C   0  0  0  0  0  0  0  0  0  0  0  0
   58.5450   26.6240   45.7140 C   0  0  0  0  0  0  0  0  0  0  0  0
   58.9320   25.3990   46.2680 C   0  0  0  0  0  0  0  0  0  0  0  0
   60.2460   25.0760   46.3480 F   0  0  0  0  0  0  0  0  0  0  0  0
   57.9640   24.5040   46.7310 C   0  0  0  0  0  0  0  0  0  0  0  0
   56.6090   24.8270   46.6320 C   0  0  0  0  0  0  0  0  0  0  0  0
   56.2170   26.0500   46.0780 C   0  0  0  0  0  0  0  0  0  0  0  0
   54.8960   26.3480   45.9930 F   0  0  0  0  0  0  0  0  0  0  0  0
   56.6184   29.8437   42.0517 H   0  0  0  0  0  0  0  0  0  0  0  0
   55.5115   29.9698   43.4669 H   0  0  0  0  0  0  0  0  0  0  0  0
   57.5845   31.8069   41.6269 H   0  0  0  0  0  0  0  0  0  0  0  0
   59.6549   35.2375   44.0225 H   0  0  0  0  0  0  0  0  0  0  0  0
   60.0459   35.7228   46.4389 H   0  0  0  0  0  0  0  0  0  0  0  0
   59.2258   34.1385   48.1831 H   0  0  0  0  0  0  0  0  0  0  0  0
   58.0148   32.0591   47.5200 H   0  0  0  0  0  0  0  0  0  0  0  0
   56.2010   28.8680   45.6260 H   0  0  0  0  0  0  0  0  0  0  0  0
   59.3095   27.3220   45.3421 H   0  0  0  0  0  0  0  0  0  0  0  0
   58.2694   23.5445   47.1737 H   0  0  0  0  0  0  0  0  0  0  0  0
   55.8482   24.1180   46.9905 H   0  0  0  0  0  0  0  0  0  0  0  0
  1  2  2  0
  2  3  1  0
  3  4  1  0
  4  5  1  0
  5  6  2  0
  6  7  1  0
  7  8  2  0
  8  9  1  0
  9 10  2  0
 10 11  1  0
 11 12  2  0
 12 13  1  0
 13 14  2  0
  2 15  1  0
 15 16  1  0
 16 17  2  0
 17 18  1  0
 18 19  1  0
 18 20  2  0
 20 21  1  0
 21 22  2  0
 22 23  1  0
 13  4  1  0
 22 16  1  0
 12  7  1  0
  3 24  1  0
  3 25  1  0
  5 26  1  0
  8 27  1  0
  9 28  1  0
 10 29  1  0
 11 30  1  0
 15 31  1  0
 17 32  1  0
 20 33  1  0
 21 34  1  0
M  END
>  <UniqueID>  (48) 
45

>  <SMILES>  (48) 
O=C(Cn1cnc2ccccc2c1=O)Nc1cc(F)ccc1F

>  <Energy>  (48) 
45.448260037039965

>  <Genealogy>  (48) 
O=C(Cn1cnc2ccccc2c1=O)Nc1cc(F)ccc1F (3D coordinates assigned)
O=C(Cn1cnc2ccccc2c1=O)Nc1cc(F)ccc1F (optimized conformer: 45.448260037039965 kcal/mol)

>  <smiles>  (48) 
O=C(Cn1cnc2ccccc2c1=O)Nc1cc(F)ccc1F

>  <score_type>  (48) 
oracle

>  <origin>  (48) 
adg

>  <m_score__min__energy>  (48) 
-7.2400000000000002

>  <m_primary>  (48) 
energy

$$$$
48:0
     RDKit          3D

 38 41  0  0  0  0  0  0  0  0999 V2000
   53.6070   24.8260   45.1400 O   0  0  0  0  0  0  0  0  0  0  0  0
   54.6760   25.0420   45.7720 C   0  0  0  0  0  0  0  0  0  0  0  0
   55.1460   26.3800   45.9690 N   0  0  0  0  0  0  0  0  0  0  0  0
   56.4420   26.8890   45.6250 C   0  0  0  0  0  0  0  0  0  0  0  0
   57.4870   26.0450   45.2100 C   0  0  0  0  0  0  0  0  0  0  0  0
   58.7270   26.5840   44.8620 C   0  0  0  0  0  0  0  0  0  0  0  0
   58.9350   27.9640   44.9110 C   0  0  0  0  0  0  0  0  0  0  0  0
   57.8950   28.8280   45.3010 C   0  0  0  0  0  0  0  0  0  0  0  0
   58.0890   30.2990   45.3480 C   0  0  0  0  0  0  0  0  0  0  0  0
   59.2060   30.9760   45.8310 C   0  0  0  0  0  0  0  0  0  0  0  0
   58.9600   32.2840   45.6860 N   0  0  0  0  0  0  0  0  0  0  0  0
   59.7200   33.3630   45.9990 C   0  0  0  0  0  0  0  0  0  0  0  0
   59.1880   34.6320   45.7260 C   0  0  0  0  0  0  0  0  0  0  0  0
   57.9440   34.7370   45.1640 N   0  0  0  0  0  0  0  0  0  0  0  0
   57.1990   33.6340   44.8600 C   0  0  0  0  0  0  0  0  0  0  0  0
   57.7420   32.3830   45.1370 C   0  0  0  0  0  0  0  0  0  0  0  0
   57.1620   31.1890   44.9090 N   0  0  0  0  0  0  0  0  0  0  0  0
   56.6480   28.2740   45.6480 C   0  0  0  0  0  0  0  0  0  0  0  0
   55.4920   23.9510   46.2130 N   0  0  0  0  0  0  0  0  0  0  0  0
   56.3940   23.1790   45.4060 C   0  0  0  0  0  0  0  0  0  0  0  0
   57.6980   22.8690   45.8340 C   0  0  0  0  0  0  0  0  0  0  0  0
   58.5550   22.1350   45.0080 C   0  0  0  0  0  0  0  0  0  0  0  0
   58.1240   21.7170   43.7470 C   0  0  0  0  0  0  0  0  0  0  0  0
   56.8390   22.0410   43.3050 C   0  0  0  0  0  0  0  0  0  0  0  0
   55.9780   22.7760   44.1270 C   0  0  0  0  0  0  0  0  0  0  0  0
   54.7350   23.0880   43.6830 F   0  0  0  0  0  0  0  0  0  0  0  0
   57.3273   24.9578   45.1594 H   0  0  0  0  0  0  0  0  0  0  0  0
   59.5443   25.9182   44.5476 H   0  0  0  0  0  0  0  0  0  0  0  0
   59.9181   28.3783   44.6430 H   0  0  0  0  0  0  0  0  0  0  0  0
   60.1160   30.5229   46.2511 H   0  0  0  0  0  0  0  0  0  0  0  0
   60.7165   33.2473   46.4502 H   0  0  0  0  0  0  0  0  0  0  0  0
   59.7668   35.5372   45.9620 H   0  0  0  0  0  0  0  0  0  0  0  0
   56.2000   33.7312   44.4099 H   0  0  0  0  0  0  0  0  0  0  0  0
   55.8228   28.9394   45.9417 H   0  0  0  0  0  0  0  0  0  0  0  0
   58.0447   23.2054   46.8223 H   0  0  0  0  0  0  0  0  0  0  0  0
   59.5699   21.8865   45.3519 H   0  0  0  0  0  0  0  0  0  0  0  0
   58.7964   21.1326   43.1018 H   0  0  0  0  0  0  0  0  0  0  0  0
   56.5035   21.7176   42.3086 H   0  0  0  0  0  0  0  0  0  0  0  0
  1  2  2  0
  2  3  1  0
  3  4  1  0
  4  5  2  0
  5  6  1  0
  6  7  2  0
  7  8  1  0
  8  9  1  0
  9 10  2  0
 10 11  1  0
 11 12  1  0
 12 13  2  0
 13 14  1  0
 14 15  2  0
 15 16  1  0
 16 17  2  0
  8 18  2  0
  2 19  1  0
 19 20  1  0
 20 21  2  0
 21 22  1  0
 22 23  2  0
 23 24  1  0
 24 25  2  0
 25 26  1  0
 18  4  1  0
 25 20  1  0
 17  9  1  0
 16 11  1  0
  5 27  1  0
  6 28  1  0
  7 29  1  0
 10 30  1  0
 12 31  1  0
 13 32  1  0
 15 33  1  0
 18 34  1  0
 21 35  1  0
 22 36  1  0
 23 37  1  0
 24 38  1  0
M  CHG  2   3  -1  19  -1
M  END
>  <UniqueID>  (49) 
46

>  <SMILES>  (49) 
O=C([N-]c1cccc(-c2cn3ccncc3n2)c1)[N-]c1ccccc1F

>  <Energy>  (49) 
88.04240630252232

>  <Genealogy>  (49) 
O=C([N-]c1cccc(-c2cn3ccncc3n2)c1)[N-]c1ccccc1F (protonated)
O=C([N-]c1cccc(-c2cn3ccncc3n2)c1)[N-]c1ccccc1F (3D coordinates assigned)
O=C([N-]c1cccc(-c2cn3ccncc3n2)c1)[N-]c1ccccc1F (optimized conformer: 88.04240630252232 kcal/mol)

>  <smiles>  (49) 
O=C(Nc1cccc(-c2cn3ccncc3n2)c1)Nc1ccccc1F

>  <score_type>  (49) 
oracle

>  <origin>  (49) 
adg

>  <m_score__min__energy>  (49) 
-11.65

>  <m_primary>  (49) 
energy

$$$$
49:0
     RDKit          3D

 28 29  0  0  0  0  0  0  0  0999 V2000
   60.6510   28.2640   45.2620 C   0  0  0  0  0  0  0  0  0  0  0  0
   60.1720   27.2660   46.2680 C   0  0  0  0  0  0  0  0  0  0  0  0
   58.3930   27.3680   46.5120 S   0  0  0  0  0  0  0  0  0  0  0  0
   57.6890   28.7800   45.7060 C   0  0  0  0  0  0  0  0  0  0  0  0
   56.6180   28.6740   44.8730 N   0  0  0  0  0  0  0  0  0  0  0  0
   56.1390   29.7820   44.2990 C   0  0  0  0  0  0  0  0  0  0  0  0
   55.1230   29.7150   43.5030 N   0  0  0  0  0  0  0  0  0  0  0  0
   56.7090   30.9770   44.5450 N   0  0  0  0  0  0  0  0  0  0  0  0
   57.7650   31.1210   45.3610 C   0  0  0  0  0  0  0  0  0  0  0  0
   58.3310   32.4450   45.5820 C   0  0  0  0  0  0  0  0  0  0  0  0
   58.3600   33.4280   44.6190 C   0  0  0  0  0  0  0  0  0  0  0  0
   58.9080   34.6620   44.8890 C   0  0  0  0  0  0  0  0  0  0  0  0
   59.4460   34.9800   46.1130 C   0  0  0  0  0  0  0  0  0  0  0  0
   59.4230   34.0050   47.0840 C   0  0  0  0  0  0  0  0  0  0  0  0
   60.0890   34.3080   48.6950 Cl  0  0  0  0  0  0  0  0  0  0  0  0
   58.8720   32.7610   46.8120 C   0  0  0  0  0  0  0  0  0  0  0  0
   58.2440   30.0030   45.9350 N   0  0  0  0  0  0  0  0  0  0  0  0
   61.0702   29.1374   45.7829 H   0  0  0  0  0  0  0  0  0  0  0  0
   61.4272   27.8056   44.6316 H   0  0  0  0  0  0  0  0  0  0  0  0
   59.8078   28.5829   44.6316 H   0  0  0  0  0  0  0  0  0  0  0  0
   60.4261   26.2552   45.9162 H   0  0  0  0  0  0  0  0  0  0  0  0
   60.6627   27.4845   47.2280 H   0  0  0  0  0  0  0  0  0  0  0  0
   55.1480   29.1770   42.6070 H   0  0  0  0  0  0  0  0  0  0  0  0
   57.9407   33.2255   43.6224 H   0  0  0  0  0  0  0  0  0  0  0  0
   58.9155   35.4226   44.0944 H   0  0  0  0  0  0  0  0  0  0  0  0
   59.8772   35.9729   46.3085 H   0  0  0  0  0  0  0  0  0  0  0  0
   58.8661   31.9990   47.6053 H   0  0  0  0  0  0  0  0  0  0  0  0
   59.0640   30.0560   46.5770 H   0  0  0  0  0  0  0  0  0  0  0  0
  1  2  1  0
  2  3  1  0
  3  4  1  0
  4  5  2  0
  5  6  1  0
  6  7  2  3
  6  8  1  0
  8  9  2  0
  9 10  1  0
 10 11  2  0
 11 12  1  0
 12 13  2  0
 13 14  1  0
 14 15  1  0
 14 16  2  0
  9 17  1  0
 17  4  1  0
 16 10  1  0
  1 18  1  0
  1 19  1  0
  1 20  1  0
  2 21  1  0
  2 22  1  0
  7 23  1  0
 11 24  1  0
 12 25  1  0
 13 26  1  0
 16 27  1  0
 17 28  1  0
M  END
>  <smiles>  (50) 
CCSc1nc(=N)nc(-c2cccc(Cl)c2)[nH]1

>  <score_type>  (50) 
oracle

>  <origin>  (50) 
adg

>  <m_score__min__energy>  (50) 
-6.9500000000000002

>  <m_primary>  (50) 
energy

$$$$
