0:0
     RDKit          3D

 36 38  0  0  0  0  0  0  0  0999 V2000
   62.9560   34.5760   50.1650 C   0  0  0  0  0  0  0  0  0  0  0  0
   62.0350   34.1730   49.0510 C   0  0  0  0  0  0  0  0  0  0  0  0
   60.6450   34.2110   49.2340 C   0  0  0  0  0  0  0  0  0  0  0  0
   59.7860   33.8710   48.1860 C   0  0  0  0  0  0  0  0  0  0  0  0
   60.3050   33.5050   46.9340 C   0  0  0  0  0  0  0  0  0  0  0  0
   59.3760   33.1050   45.8170 C   0  0  0  0  0  0  0  0  0  0  0  0
   58.9640   31.7000   45.9760 N   0  0  0  0  0  0  0  0  0  0  0  0
   59.8030   30.8340   46.6140 C   0  0  0  0  0  0  0  0  0  0  0  0
   59.4770   29.5250   46.7590 N   0  0  0  0  0  0  0  0  0  0  0  0
   58.3050   29.0170   46.2670 C   0  0  0  0  0  0  0  0  0  0  0  0
   57.4210   29.8870   45.5920 C   0  0  0  0  0  0  0  0  0  0  0  0
   56.2210   29.3530   45.0850 C   0  0  0  0  0  0  0  0  0  0  0  0
   55.3870   30.0720   44.4720 O   0  0  0  0  0  0  0  0  0  0  0  0
   55.9490   28.0410   45.2560 N   0  0  0  0  0  0  0  0  0  0  0  0
   56.7980   27.2090   45.9040 C   0  0  0  0  0  0  0  0  0  0  0  0
   56.4750   25.9970   46.0260 O   0  0  0  0  0  0  0  0  0  0  0  0
   57.9820   27.6820   46.4180 N   0  0  0  0  0  0  0  0  0  0  0  0
   58.8960   26.7630   47.1230 C   0  0  0  0  0  0  0  0  0  0  0  0
   57.7810   31.2470   45.4550 C   0  0  0  0  0  0  0  0  0  0  0  0
   57.0140   32.0480   44.8510 O   0  0  0  0  0  0  0  0  0  0  0  0
   61.6960   33.4780   46.7480 C   0  0  0  0  0  0  0  0  0  0  0  0
   62.5550   33.8190   47.7980 C   0  0  0  0  0  0  0  0  0  0  0  0
   62.4757   34.3658   51.1320 H   0  0  0  0  0  0  0  0  0  0  0  0
   63.8938   34.0060   50.0898 H   0  0  0  0  0  0  0  0  0  0  0  0
   63.1737   35.6516   50.0898 H   0  0  0  0  0  0  0  0  0  0  0  0
   60.2291   34.5100   50.2075 H   0  0  0  0  0  0  0  0  0  0  0  0
   58.6974   33.8902   48.3427 H   0  0  0  0  0  0  0  0  0  0  0  0
   58.4848   33.7494   45.8374 H   0  0  0  0  0  0  0  0  0  0  0  0
   59.9000   33.2187   44.8565 H   0  0  0  0  0  0  0  0  0  0  0  0
   60.7580   31.2024   47.0169 H   0  0  0  0  0  0  0  0  0  0  0  0
   60.1690   28.9280   47.2610 H   0  0  0  0  0  0  0  0  0  0  0  0
   58.7737   26.8860   48.2092 H   0  0  0  0  0  0  0  0  0  0  0  0
   58.6610   25.7256   46.8427 H   0  0  0  0  0  0  0  0  0  0  0  0
   59.9347   26.9923   46.8427 H   0  0  0  0  0  0  0  0  0  0  0  0
   62.1124   33.1874   45.7722 H   0  0  0  0  0  0  0  0  0  0  0  0
   63.6435   33.8094   47.6399 H   0  0  0  0  0  0  0  0  0  0  0  0
  1  2  1  0
  2  3  2  0
  3  4  1  0
  4  5  2  0
  5  6  1  0
  6  7  1  0
  7  8  1  0
  8  9  2  0
  9 10  1  0
 10 11  2  0
 11 12  1  0
 12 13  2  0
 12 14  1  0
 14 15  1  0
 15 16  2  0
 15 17  1  0
 17 18  1  0
 11 19  1  0
 19 20  2  0
  5 21  1  0
 21 22  2  0
 22  2  1  0
 19  7  1  0
 17 10  1  0
  1 23  1  0
  1 24  1  0
  1 25  1  0
  3 26  1  0
  4 27  1  0
  6 28  1  0
  6 29  1  0
  8 30  1  0
  9 31  1  0
 18 32  1  0
 18 33  1  0
 18 34  1  0
 21 35  1  0
 22 36  1  0
M  CHG  2   9   1  14  -1
M  END
>  <UniqueID>  (1) 
1

>  <SMILES>  (1) 
Cc1ccc(Cn2c[nH+]c3c(c(=O)[n-]c(=O)n3C)c2=O)cc1

>  <Energy>  (1) 
51.44723114113093

>  <Genealogy>  (1) 
Cc1ccc(Cn2c[nH+]c3c(c(=O)[n-]c(=O)n3C)c2=O)cc1 (protonated)
Cc1ccc(Cn2c[nH+]c3c(c(=O)[n-]c(=O)n3C)c2=O)cc1 (3D coordinates assigned)
Cc1ccc(Cn2c[nH+]c3c(c(=O)[n-]c(=O)n3C)c2=O)cc1 (optimized conformer: 51.44723114113093 kcal/mol)

>  <smiles>  (1) 
Cc1ccc(Cn2cnc3c(c(=O)[nH]c(=O)n3C)c2=O)cc1

>  <score_type>  (1) 
oracle

>  <origin>  (1) 
adg

>  <m_score__min__energy>  (1) 
-8.3000000000000007

>  <m_primary>  (1) 
energy

$$$$
1:0
     RDKit          3D

 41 43  0  0  0  0  0  0  0  0999 V2000
   56.5060   25.2170   47.1080 C   0  0  0  0  0  0  0  0  0  0  0  0
   55.5190   25.1770   46.1020 O   0  0  0  0  0  0  0  0  0  0  0  0
   55.7510   24.0660   45.2620 C   0  0  0  0  0  0  0  0  0  0  0  0
   56.9420   24.3770   44.3460 C   0  0  0  0  0  0  0  0  0  0  0  0
   57.1100   25.8220   44.0930 N   0  0  0  0  0  0  0  0  0  0  0  0
   58.3240   26.4070   44.6910 C   0  0  0  0  0  0  0  0  0  0  0  0
   58.2380   27.9020   44.8100 C   0  0  0  0  0  0  0  0  0  0  0  0
   57.7420   28.7570   43.8110 C   0  0  0  0  0  0  0  0  0  0  0  0
   57.8460   30.0780   44.2310 C   0  0  0  0  0  0  0  0  0  0  0  0
   58.3900   30.2530   45.4520 C   0  0  0  0  0  0  0  0  0  0  0  0
   58.8080   28.7950   46.1590 S   0  0  0  0  0  0  0  0  0  0  0  0
   58.4820   31.6010   45.6770 C   0  0  0  0  0  0  0  0  0  0  0  0
   59.0030   32.3390   46.7330 C   0  0  0  0  0  0  0  0  0  0  0  0
   58.9750   33.7470   46.6240 C   0  0  0  0  0  0  0  0  0  0  0  0
   59.5550   34.5930   47.7170 C   0  0  0  0  0  0  0  0  0  0  0  0
   58.4630   34.3570   45.4500 C   0  0  0  0  0  0  0  0  0  0  0  0
   57.9520   33.5800   44.3940 C   0  0  0  0  0  0  0  0  0  0  0  0
   57.9660   32.1920   44.5330 C   0  0  0  0  0  0  0  0  0  0  0  0
   57.5550   31.2550   43.6320 N   0  0  0  0  0  0  0  0  0  0  0  0
   57.0600   31.4690   42.2760 C   0  0  0  0  0  0  0  0  0  0  0  0
   56.0233   25.1974   48.0962 H   0  0  0  0  0  0  0  0  0  0  0  0
   57.1687   24.3450   47.0063 H   0  0  0  0  0  0  0  0  0  0  0  0
   57.0960   26.1398   47.0063 H   0  0  0  0  0  0  0  0  0  0  0  0
   55.9772   23.1807   45.8744 H   0  0  0  0  0  0  0  0  0  0  0  0
   54.8562   23.8639   44.6550 H   0  0  0  0  0  0  0  0  0  0  0  0
   57.8583   23.9947   44.8196 H   0  0  0  0  0  0  0  0  0  0  0  0
   56.7491   23.8924   43.3775 H   0  0  0  0  0  0  0  0  0  0  0  0
   56.2750   26.3360   44.4590 H   0  0  0  0  0  0  0  0  0  0  0  0
   57.1370   25.9750   43.0580 H   0  0  0  0  0  0  0  0  0  0  0  0
   58.4648   25.9799   45.6949 H   0  0  0  0  0  0  0  0  0  0  0  0
   59.1715   26.1704   44.0309 H   0  0  0  0  0  0  0  0  0  0  0  0
   57.3334   28.4304   42.8433 H   0  0  0  0  0  0  0  0  0  0  0  0
   59.4221   31.8445   47.6217 H   0  0  0  0  0  0  0  0  0  0  0  0
   59.2693   34.1762   48.6941 H   0  0  0  0  0  0  0  0  0  0  0  0
   60.6515   34.6040   47.6295 H   0  0  0  0  0  0  0  0  0  0  0  0
   59.1699   35.6197   47.6295 H   0  0  0  0  0  0  0  0  0  0  0  0
   58.4655   35.4536   45.3639 H   0  0  0  0  0  0  0  0  0  0  0  0
   57.5529   34.0535   43.4849 H   0  0  0  0  0  0  0  0  0  0  0  0
   56.0511   31.9052   42.3185 H   0  0  0  0  0  0  0  0  0  0  0  0
   57.7343   32.1560   41.7437 H   0  0  0  0  0  0  0  0  0  0  0  0
   57.0215   30.5072   41.7437 H   0  0  0  0  0  0  0  0  0  0  0  0
  1  2  1  0
  2  3  1  0
  3  4  1  0
  4  5  1  0
  5  6  1  0
  6  7  1  0
  7  8  2  0
  8  9  1  0
  9 10  2  0
 10 11  1  0
 10 12  1  0
 12 13  2  0
 13 14  1  0
 14 15  1  0
 14 16  2  0
 16 17  1  0
 17 18  2  0
 18 19  1  0
 19 20  1  0
 11  7  1  0
 18 12  1  0
 19  9  1  0
  1 21  1  0
  1 22  1  0
  1 23  1  0
  3 24  1  0
  3 25  1  0
  4 26  1  0
  4 27  1  0
  5 28  1  0
  5 29  1  0
  6 30  1  0
  6 31  1  0
  8 32  1  0
 13 33  1  0
 15 34  1  0
 15 35  1  0
 15 36  1  0
 16 37  1  0
 17 38  1  0
 20 39  1  0
 20 40  1  0
 20 41  1  0
M  CHG  1   5   1
M  END
>  <UniqueID>  (2) 
2

>  <SMILES>  (2) 
COCC[NH2+]Cc1cc2c(s1)c1cc(C)ccc1n2C

>  <Energy>  (2) 
122.72369956532089

>  <Genealogy>  (2) 
COCC[NH2+]Cc1cc2c(s1)c1cc(C)ccc1n2C (protonated)
COCC[NH2+]Cc1cc2c(s1)c1cc(C)ccc1n2C (3D coordinates assigned)
COCC[NH2+]Cc1cc2c(s1)c1cc(C)ccc1n2C (optimized conformer: 122.72369956532089 kcal/mol)

>  <smiles>  (2) 
COCCNCc1cc2c(s1)c1cc(C)ccc1n2C

>  <score_type>  (2) 
oracle

>  <origin>  (2) 
adg

>  <m_score__min__energy>  (2) 
-5.4699999999999998

>  <m_primary>  (2) 
energy

$$$$
2:0
     RDKit          3D

 53 55  0  0  1  0  0  0  0  0999 V2000
   63.2010   33.8080   46.5890 C   0  0  0  0  0  0  0  0  0  0  0  0
   63.7600   33.0510   47.8150 C   0  0  0  0  0  0  0  0  0  0  0  0
   63.0980   33.5620   48.9010 O   0  0  0  0  0  0  0  0  0  0  0  0
   62.6730   32.7010   49.8670 C   0  0  0  0  0  0  0  0  0  0  0  0
   61.7780   33.2930   50.9080 C   0  0  0  0  0  0  0  0  0  0  0  0
   60.6100   33.8180   50.4070 O   0  0  0  0  0  0  0  0  0  0  0  0
   60.0080   33.7570   49.1970 C   0  0  0  0  0  0  0  0  0  0  0  0
   60.2680   34.5260   48.0920 C   0  0  0  0  0  0  0  0  0  0  0  0
   59.5890   34.3820   46.8870 C   0  0  0  0  0  0  0  0  0  0  0  0
   59.8710   35.1550   45.8200 N   0  0  0  0  0  0  0  0  0  0  0  0
   59.2010   35.0060   44.6450 C   0  0  0  0  0  0  0  0  0  0  0  0
   58.2320   34.0640   44.5410 N   0  0  0  0  0  0  0  0  0  0  0  0
   57.9110   33.2610   45.5840 C   0  0  0  0  0  0  0  0  0  0  0  0
   57.0090   32.3680   45.5210 N   0  0  0  0  0  0  0  0  0  0  0  0
   57.2840   31.1100   44.9180 C   0  0  0  0  0  0  0  0  0  0  0  0
   56.3980   30.6270   43.9490 C   0  0  0  0  0  0  0  0  0  0  0  0
   56.6950   29.4070   43.3870 C   0  0  0  0  0  0  0  0  0  0  0  0
   57.8050   28.6730   43.7430 C   0  0  0  0  0  0  0  0  0  0  0  0
   58.1510   27.1210   43.0060 Cl  0  0  0  0  0  0  0  0  0  0  0  0
   58.6760   29.1620   44.7050 C   0  0  0  0  0  0  0  0  0  0  0  0
   60.1020   28.2510   45.1830 Cl  0  0  0  0  0  0  0  0  0  0  0  0
   58.4030   30.3820   45.2840 C   0  0  0  0  0  0  0  0  0  0  0  0
   58.6020   33.4320   46.7580 C   0  0  0  0  0  0  0  0  0  0  0  0
   58.3190   32.6470   47.8490 C   0  0  0  0  0  0  0  0  0  0  0  0
   58.9960   32.7960   49.0390 C   0  0  0  0  0  0  0  0  0  0  0  0
   58.6610   31.9700   50.1040 O   0  0  0  0  0  0  0  0  0  0  0  0
   58.8170   30.5790   49.9320 C   0  0  0  0  0  0  0  0  0  0  0  0
   60.2040   30.2900   49.3740 C   0  0  0  0  0  0  0  0  0  0  0  0
   60.0580   30.1250   47.9980 O   0  0  0  0  0  0  0  0  0  0  0  0
   61.1580   30.7020   47.3870 C   0  0  0  0  0  0  0  0  0  0  0  0
   62.5797   34.6494   46.9296 H   0  0  0  0  0  0  0  0  0  0  0  0
   64.0352   34.1902   45.9824 H   0  0  0  0  0  0  0  0  0  0  0  0
   62.5902   33.1232   45.9824 H   0  0  0  0  0  0  0  0  0  0  0  0
   63.5662   31.9723   47.7206 H   0  0  0  0  0  0  0  0  0  0  0  0
   64.8488   33.1769   47.9076 H   0  0  0  0  0  0  0  0  0  0  0  0
   62.1261   31.8830   49.3752 H   0  0  0  0  0  0  0  0  0  0  0  0
   63.5783   32.3724   50.3984 H   0  0  0  0  0  0  0  0  0  0  0  0
   61.5211   32.5057   51.6319 H   0  0  0  0  0  0  0  0  0  0  0  0
   62.3306   34.1259   51.3673 H   0  0  0  0  0  0  0  0  0  0  0  0
   61.0520   35.2944   48.1621 H   0  0  0  0  0  0  0  0  0  0  0  0
   59.4444   35.6464   43.7844 H   0  0  0  0  0  0  0  0  0  0  0  0
   57.6910   33.9150   43.6550 H   0  0  0  0  0  0  0  0  0  0  0  0
   55.5054   31.1963   43.6504 H   0  0  0  0  0  0  0  0  0  0  0  0
   56.0178   29.0006   42.6213 H   0  0  0  0  0  0  0  0  0  0  0  0
   59.0844   30.7835   46.0485 H   0  0  0  0  0  0  0  0  0  0  0  0
   57.5332   31.8813   47.7704 H   0  0  0  0  0  0  0  0  0  0  0  0
   58.6993   30.0739   50.9021 H   0  0  0  0  0  0  0  0  0  0  0  0
   58.0547   30.2080   49.2311 H   0  0  0  0  0  0  0  0  0  0  0  0
   60.8800   31.1318   49.5849 H   0  0  0  0  0  0  0  0  0  0  0  0
   60.6356   29.3898   49.8359 H   0  0  0  0  0  0  0  0  0  0  0  0
   61.8547   31.0675   48.1558 H   0  0  0  0  0  0  0  0  0  0  0  0
   61.6639   29.9532   46.7599 H   0  0  0  0  0  0  0  0  0  0  0  0
   60.8295   31.5439   46.7599 H   0  0  0  0  0  0  0  0  0  0  0  0
  1  2  1  0
  2  3  1  0
  3  4  1  0
  4  5  1  0
  5  6  1  0
  6  7  1  0
  7  8  2  0
  8  9  1  0
  9 10  1  0
 10 11  2  0
 11 12  1  0
 12 13  1  0
 13 14  2  0
 14 15  1  0
 15 16  2  0
 16 17  1  0
 17 18  2  0
 18 19  1  0
 18 20  1  0
 20 21  1  0
 20 22  2  0
 13 23  1  0
 23 24  1  0
 24 25  2  0
 25 26  1  0
 26 27  1  0
 27 28  1  0
 28 29  1  0
 29 30  1  0
 25  7  1  0
 23  9  2  0
 22 15  1  0
  1 31  1  0
  1 32  1  0
  1 33  1  0
  2 34  1  0
  2 35  1  0
  4 36  1  0
  4 37  1  0
  5 38  1  0
  5 39  1  0
  8 40  1  0
 11 41  1  0
 12 42  1  0
 16 43  1  0
 17 44  1  0
 22 45  1  0
 24 46  1  0
 27 47  1  0
 27 48  1  0
 28 49  1  0
 28 50  1  0
 30 51  1  0
 30 52  1  0
 30 53  1  0
M  END
>  <smiles>  (3) 
CCOCCOc1cc2nc[nH]c(=Nc3ccc(Cl)c(Cl)c3)c2cc1OCCOC

>  <score_type>  (3) 
oracle

>  <origin>  (3) 
adg

>  <m_score__min__energy>  (3) 
-7.7999999999999998

>  <m_primary>  (3) 
energy

$$$$
3:0
     RDKit          3D

 57 61  0  0  0  0  0  0  0  0999 V2000
   58.1360   33.2480   46.2440 C   0  0  0  0  0  0  0  0  0  0  0  0
   59.2350   34.2800   46.5260 C   0  0  0  0  0  0  0  0  0  0  0  0
   60.4490   33.7180   47.1710 N   0  0  0  0  0  0  0  0  0  0  0  0
   60.6730   34.2070   48.5540 C   0  0  0  0  0  0  0  0  0  0  0  0
   59.7740   33.4930   49.5590 C   0  0  0  0  0  0  0  0  0  0  0  0
   61.6540   33.8800   46.3240 C   0  0  0  0  0  0  0  0  0  0  0  0
   62.9300   33.8150   47.1780 C   0  0  0  0  0  0  0  0  0  0  0  0
   63.4740   32.4470   47.2080 N   0  0  0  0  0  0  0  0  0  0  0  0
   63.0640   31.7620   48.4210 C   0  0  0  0  0  0  0  0  0  0  0  0
   63.7410   31.9550   49.6530 C   0  0  0  0  0  0  0  0  0  0  0  0
   64.7950   32.8920   49.7770 C   0  0  0  0  0  0  0  0  0  0  0  0
   65.4760   33.0530   50.9810 C   0  0  0  0  0  0  0  0  0  0  0  0
   65.1200   32.3000   52.0900 C   0  0  0  0  0  0  0  0  0  0  0  0
   64.0710   31.3890   52.0090 C   0  0  0  0  0  0  0  0  0  0  0  0
   63.3520   31.1970   50.8000 C   0  0  0  0  0  0  0  0  0  0  0  0
   62.2960   30.3040   50.7270 N   0  0  0  0  0  0  0  0  0  0  0  0
   61.9170   29.5080   51.9150 C   0  0  0  0  0  0  0  0  0  0  0  0
   61.5840   30.1670   49.5600 C   0  0  0  0  0  0  0  0  0  0  0  0
   60.5030   29.3200   49.4960 N   0  0  0  0  0  0  0  0  0  0  0  0
   59.8160   29.2140   48.3380 C   0  0  0  0  0  0  0  0  0  0  0  0
   58.7350   28.4370   48.0980 N   0  0  0  0  0  0  0  0  0  0  0  0
   58.4720   28.7370   46.7950 C   0  0  0  0  0  0  0  0  0  0  0  0
   57.4340   28.2040   46.0320 C   0  0  0  0  0  0  0  0  0  0  0  0
   57.3130   28.6350   44.6990 C   0  0  0  0  0  0  0  0  0  0  0  0
   58.2160   29.5790   44.1660 C   0  0  0  0  0  0  0  0  0  0  0  0
   59.2460   30.0850   44.9750 C   0  0  0  0  0  0  0  0  0  0  0  0
   59.3250   29.6370   46.2520 N   0  0  0  0  0  0  0  0  0  0  0  0
   60.1690   29.9250   47.2440 C   0  0  0  0  0  0  0  0  0  0  0  0
   61.2240   30.7660   47.2380 N   0  0  0  0  0  0  0  0  0  0  0  0
   61.9550   30.9030   48.3900 C   0  0  0  0  0  0  0  0  0  0  0  0
   57.7343   32.8708   47.1960 H   0  0  0  0  0  0  0  0  0  0  0  0
   57.3280   33.7213   45.6669 H   0  0  0  0  0  0  0  0  0  0  0  0
   58.5576   32.4118   45.6669 H   0  0  0  0  0  0  0  0  0  0  0  0
   59.5324   34.7366   45.5705 H   0  0  0  0  0  0  0  0  0  0  0  0
   58.8103   35.0077   47.2332 H   0  0  0  0  0  0  0  0  0  0  0  0
   61.7237   34.0313   48.8282 H   0  0  0  0  0  0  0  0  0  0  0  0
   60.4320   35.2799   48.5810 H   0  0  0  0  0  0  0  0  0  0  0  0
   60.0929   33.7463   50.5808 H   0  0  0  0  0  0  0  0  0  0  0  0
   58.7319   33.8123   49.4103 H   0  0  0  0  0  0  0  0  0  0  0  0
   59.8491   32.4057   49.4103 H   0  0  0  0  0  0  0  0  0  0  0  0
   61.6796   33.0753   45.5745 H   0  0  0  0  0  0  0  0  0  0  0  0
   61.6092   34.8611   45.8286 H   0  0  0  0  0  0  0  0  0  0  0  0
   63.6838   34.4929   46.7511 H   0  0  0  0  0  0  0  0  0  0  0  0
   62.6801   34.1161   48.2061 H   0  0  0  0  0  0  0  0  0  0  0  0
   64.5150   32.4440   47.1080 H   0  0  0  0  0  0  0  0  0  0  0  0
   63.1270   31.9290   46.3660 H   0  0  0  0  0  0  0  0  0  0  0  0
   65.0807   33.5029   48.9080 H   0  0  0  0  0  0  0  0  0  0  0  0
   66.2988   33.7796   51.0527 H   0  0  0  0  0  0  0  0  0  0  0  0
   65.6681   32.4231   53.0358 H   0  0  0  0  0  0  0  0  0  0  0  0
   63.7934   30.8060   52.8996 H   0  0  0  0  0  0  0  0  0  0  0  0
   62.1811   30.0626   52.8275 H   0  0  0  0  0  0  0  0  0  0  0  0
   60.8331   29.3208   51.9004 H   0  0  0  0  0  0  0  0  0  0  0  0
   62.4550   28.5486   51.9004 H   0  0  0  0  0  0  0  0  0  0  0  0
   56.7333   27.4710   46.4584 H   0  0  0  0  0  0  0  0  0  0  0  0
   56.5078   28.2329   44.0666 H   0  0  0  0  0  0  0  0  0  0  0  0
   58.1138   29.9162   43.1240 H   0  0  0  0  0  0  0  0  0  0  0  0
   59.9651   30.8206   44.5855 H   0  0  0  0  0  0  0  0  0  0  0  0
  1  2  1  0
  2  3  1  0
  3  4  1  0
  4  5  1  0
  3  6  1  0
  6  7  1  0
  7  8  1  0
  8  9  1  0
  9 10  2  0
 10 11  1  0
 11 12  2  0
 12 13  1  0
 13 14  2  0
 14 15  1  0
 15 16  2  0
 16 17  1  0
 16 18  1  0
 18 19  2  0
 19 20  1  0
 20 21  1  0
 21 22  2  0
 22 23  1  0
 23 24  2  0
 24 25  1  0
 25 26  2  0
 26 27  1  0
 27 28  1  0
 28 29  1  0
 29 30  2  0
 30  9  1  0
 15 10  1  0
 30 18  1  0
 28 20  2  0
 27 22  1  0
  1 31  1  0
  1 32  1  0
  1 33  1  0
  2 34  1  0
  2 35  1  0
  4 36  1  0
  4 37  1  0
  5 38  1  0
  5 39  1  0
  5 40  1  0
  6 41  1  0
  6 42  1  0
  7 43  1  0
  7 44  1  0
  8 45  1  0
  8 46  1  0
 11 47  1  0
 12 48  1  0
 13 49  1  0
 14 50  1  0
 17 51  1  0
 17 52  1  0
 17 53  1  0
 23 54  1  0
 24 55  1  0
 25 56  1  0
 26 57  1  0
M  CHG  2   8   1  16   1
M  END
>  <UniqueID>  (4) 
3

>  <SMILES>  (4) 
CCN(CC)CC[NH2+]c1c2ccccc2[n+](C)c2nc3nc4ccccn4c3nc12

>  <Energy>  (4) 
128.85712217449424

>  <Genealogy>  (4) 
CCN(CC)CC[NH2+]c1c2ccccc2[n+](C)c2nc3nc4ccccn4c3nc12 (protonated)
CCN(CC)CC[NH2+]c1c2ccccc2[n+](C)c2nc3nc4ccccn4c3nc12 (3D coordinates assigned)
CCN(CC)CC[NH2+]c1c2ccccc2[n+](C)c2nc3nc4ccccn4c3nc12 (optimized conformer: 128.85712217449424 kcal/mol)

>  <smiles>  (4) 
CCN(CC)CCNc1c2ccccc2[n+](C)c2nc3nc4ccccn4c3nc12

>  <score_type>  (4) 
oracle

>  <origin>  (4) 
adg

>  <m_score__min__energy>  (4) 
-5

>  <m_primary>  (4) 
energy

$$$$
4:0
     RDKit          3D

 58 60  0  0  0  0  0  0  0  0999 V2000
   59.3370   22.5160   44.8840 C   0  0  0  0  0  0  0  0  0  0  0  0
   58.3710   23.6010   45.3490 C   0  0  0  0  0  0  0  0  0  0  0  0
   59.0450   24.8470   45.5210 O   0  0  0  0  0  0  0  0  0  0  0  0
   58.4830   26.1230   45.3360 C   0  0  0  0  0  0  0  0  0  0  0  0
   58.3560   26.7360   44.0710 C   0  0  0  0  0  0  0  0  0  0  0  0
   57.7610   27.9980   43.9570 C   0  0  0  0  0  0  0  0  0  0  0  0
   57.2650   28.6560   45.0950 C   0  0  0  0  0  0  0  0  0  0  0  0
   56.6120   29.8880   45.0260 O   0  0  0  0  0  0  0  0  0  0  0  0
   56.6880   30.7770   43.9210 C   0  0  0  0  0  0  0  0  0  0  0  0
   58.1310   31.2830   43.7610 C   0  0  0  0  0  0  0  0  0  0  0  0
   58.5140   32.1930   44.8660 N   0  0  0  0  0  0  0  0  0  0  0  0
   57.7020   33.4360   44.8400 C   0  0  0  0  0  0  0  0  0  0  0  0
   57.7510   34.2100   46.1790 C   0  0  0  0  0  0  0  0  0  0  0  0
   58.9640   33.8950   46.9610 N   0  0  0  0  0  0  0  0  0  0  0  0
   60.1920   34.3930   46.2790 C   0  0  0  0  0  0  0  0  0  0  0  0
   61.4460   34.0660   47.0580 C   0  0  0  0  0  0  0  0  0  0  0  0
   62.6060   33.6230   46.3980 C   0  0  0  0  0  0  0  0  0  0  0  0
   63.7630   33.3220   47.1290 C   0  0  0  0  0  0  0  0  0  0  0  0
   63.7730   33.4560   48.5310 C   0  0  0  0  0  0  0  0  0  0  0  0
   64.9060   33.1790   49.3130 O   0  0  0  0  0  0  0  0  0  0  0  0
   65.0750   32.0080   50.1070 C   0  0  0  0  0  0  0  0  0  0  0  0
   62.6090   33.8880   49.1850 C   0  0  0  0  0  0  0  0  0  0  0  0
   61.4530   34.1870   48.4560 C   0  0  0  0  0  0  0  0  0  0  0  0
   59.0350   32.4410   47.2810 C   0  0  0  0  0  0  0  0  0  0  0  0
   58.4140   31.5400   46.1900 C   0  0  0  0  0  0  0  0  0  0  0  0
   57.3960   28.0450   46.3490 C   0  0  0  0  0  0  0  0  0  0  0  0
   58.0120   26.8000   46.4680 C   0  0  0  0  0  0  0  0  0  0  0  0
   59.7794   22.0191   45.7599 H   0  0  0  0  0  0  0  0  0  0  0  0
   58.7933   21.7760   44.2784 H   0  0  0  0  0  0  0  0  0  0  0  0
   60.1349   22.9705   44.2784 H   0  0  0  0  0  0  0  0  0  0  0  0
   57.5774   23.7222   44.5970 H   0  0  0  0  0  0  0  0  0  0  0  0
   57.9430   23.2979   46.3159 H   0  0  0  0  0  0  0  0  0  0  0  0
   58.7256   26.2207   43.1722 H   0  0  0  0  0  0  0  0  0  0  0  0
   57.6813   28.4775   42.9702 H   0  0  0  0  0  0  0  0  0  0  0  0
   56.3820   30.2494   43.0056 H   0  0  0  0  0  0  0  0  0  0  0  0
   56.0192   31.6328   44.0954 H   0  0  0  0  0  0  0  0  0  0  0  0
   58.8136   30.4204   43.7557 H   0  0  0  0  0  0  0  0  0  0  0  0
   58.1977   31.8415   42.8157 H   0  0  0  0  0  0  0  0  0  0  0  0
   58.0842   34.0893   44.0418 H   0  0  0  0  0  0  0  0  0  0  0  0
   56.6560   33.1456   44.6624 H   0  0  0  0  0  0  0  0  0  0  0  0
   57.7375   35.2890   45.9653 H   0  0  0  0  0  0  0  0  0  0  0  0
   56.8770   33.9092   46.7753 H   0  0  0  0  0  0  0  0  0  0  0  0
   58.8640   34.4050   47.8730 H   0  0  0  0  0  0  0  0  0  0  0  0
   60.2599   33.9267   45.2851 H   0  0  0  0  0  0  0  0  0  0  0  0
   60.1167   35.4877   46.2012 H   0  0  0  0  0  0  0  0  0  0  0  0
   62.6052   33.5123   45.3036 H   0  0  0  0  0  0  0  0  0  0  0  0
   64.6677   32.9794   46.6054 H   0  0  0  0  0  0  0  0  0  0  0  0
   65.0359   32.2787   51.1725 H   0  0  0  0  0  0  0  0  0  0  0  0
   64.2708   31.2924   49.8807 H   0  0  0  0  0  0  0  0  0  0  0  0
   66.0487   31.5490   49.8807 H   0  0  0  0  0  0  0  0  0  0  0  0
   62.6055   33.9924   50.2800 H   0  0  0  0  0  0  0  0  0  0  0  0
   60.5451   34.5186   48.9812 H   0  0  0  0  0  0  0  0  0  0  0  0
   60.0921   32.1623   47.4029 H   0  0  0  0  0  0  0  0  0  0  0  0
   58.4537   32.2830   48.2014 H   0  0  0  0  0  0  0  0  0  0  0  0
   58.9512   30.5805   46.1628 H   0  0  0  0  0  0  0  0  0  0  0  0
   57.3530   31.3715   46.4265 H   0  0  0  0  0  0  0  0  0  0  0  0
   57.0100   28.5513   47.2461 H   0  0  0  0  0  0  0  0  0  0  0  0
   58.1294   26.3442   47.4622 H   0  0  0  0  0  0  0  0  0  0  0  0
  1  2  1  0
  2  3  1  0
  3  4  1  0
  4  5  2  0
  5  6  1  0
  6  7  2  0
  7  8  1  0
  8  9  1  0
  9 10  1  0
 10 11  1  0
 11 12  1  0
 12 13  1  0
 13 14  1  0
 14 15  1  0
 15 16  1  0
 16 17  2  0
 17 18  1  0
 18 19  2  0
 19 20  1  0
 20 21  1  0
 19 22  1  0
 22 23  2  0
 14 24  1  0
 24 25  1  0
  7 26  1  0
 26 27  2  0
 27  4  1  0
 25 11  1  0
 23 16  1  0
  1 28  1  0
  1 29  1  0
  1 30  1  0
  2 31  1  0
  2 32  1  0
  5 33  1  0
  6 34  1  0
  9 35  1  0
  9 36  1  0
 10 37  1  0
 10 38  1  0
 12 39  1  0
 12 40  1  0
 13 41  1  0
 13 42  1  0
 14 43  1  0
 15 44  1  0
 15 45  1  0
 17 46  1  0
 18 47  1  0
 21 48  1  0
 21 49  1  0
 21 50  1  0
 22 51  1  0
 23 52  1  0
 24 53  1  0
 24 54  1  0
 25 55  1  0
 25 56  1  0
 26 57  1  0
 27 58  1  0
M  CHG  1  14   1
M  END
>  <UniqueID>  (5) 
4

>  <SMILES>  (5) 
CCOc1ccc(OCCN2CC[NH+](Cc3ccc(OC)cc3)CC2)cc1

>  <Energy>  (5) 
71.59173447911424

>  <Genealogy>  (5) 
CCOc1ccc(OCCN2CC[NH+](Cc3ccc(OC)cc3)CC2)cc1 (protonated)
CCOc1ccc(OCCN2CC[NH+](Cc3ccc(OC)cc3)CC2)cc1 (3D coordinates assigned)
CCOc1ccc(OCCN2CC[NH+](Cc3ccc(OC)cc3)CC2)cc1 (nonaromatic ring conformer: 71.59173447911424 kcal/mol)

>  <smiles>  (5) 
CCOc1ccc(OCCN2CCN(Cc3ccc(OC)cc3)CC2)cc1

>  <score_type>  (5) 
oracle

>  <origin>  (5) 
adg

>  <m_score__min__energy>  (5) 
-5.9900000000000002

>  <m_primary>  (5) 
energy

$$$$
5:0
     RDKit          3D

 65 69  0  0  0  0  0  0  0  0999 V2000
   62.6610   34.2270   49.5600 C   0  0  0  0  0  0  0  0  0  0  0  0
   61.6510   33.9090   48.4570 C   0  0  0  0  0  0  0  0  0  0  0  0
   60.3180   34.4820   48.7800 N   0  0  0  0  0  0  0  0  0  0  0  0
   59.5870   34.8890   47.5490 C   0  0  0  0  0  0  0  0  0  0  0  0
   60.3610   34.4350   46.3130 C   0  0  0  0  0  0  0  0  0  0  0  0
   59.5410   33.5250   49.6050 C   0  0  0  0  0  0  0  0  0  0  0  0
   59.9350   32.0720   49.3280 C   0  0  0  0  0  0  0  0  0  0  0  0
   58.7980   31.3590   48.8660 O   0  0  0  0  0  0  0  0  0  0  0  0
   58.6980   30.7070   47.6440 N   0  0  0  0  0  0  0  0  0  0  0  0
   59.0830   29.4260   47.4820 C   0  0  0  0  0  0  0  0  0  0  0  0
   58.9480   29.0180   46.1550 C   0  0  0  0  0  0  0  0  0  0  0  0
   58.4920   30.1490   45.4730 C   0  0  0  0  0  0  0  0  0  0  0  0
   58.2240   30.3770   44.1170 C   0  0  0  0  0  0  0  0  0  0  0  0
   57.7740   31.6430   43.7230 C   0  0  0  0  0  0  0  0  0  0  0  0
   57.3910   31.9900   41.8840 Br  0  0  0  0  0  0  0  0  0  0  0  0
   57.5940   32.6570   44.6760 C   0  0  0  0  0  0  0  0  0  0  0  0
   57.8670   32.4200   46.0330 C   0  0  0  0  0  0  0  0  0  0  0  0
   58.3320   31.1540   46.4150 C   0  0  0  0  0  0  0  0  0  0  0  0
   59.5510   27.6920   45.7150 C   0  0  2  0  0  0  0  0  0  0  0  0
   58.9720   26.9710   44.4780 C   0  0  0  0  0  0  0  0  0  0  0  0
   57.6010   26.2620   44.6910 C   0  0  1  0  0  0  0  0  0  0  0  0
   57.6470   24.8260   44.1180 C   0  0  0  0  0  0  0  0  0  0  0  0
   56.3250   24.0420   44.2680 C   0  0  0  0  0  0  0  0  0  0  0  0
   55.2890   24.7710   45.1290 C   0  0  0  0  0  0  0  0  0  0  0  0
   55.9360   25.2700   46.4290 C   0  0  0  0  0  0  0  0  0  0  0  0
   57.1190   26.2510   46.1700 C   0  0  1  0  0  0  0  0  0  0  0  0
   58.2960   26.0410   47.1030 C   0  0  0  0  0  0  0  0  0  0  0  0
   58.1980   25.2980   48.1160 O   0  0  0  0  0  0  0  0  0  0  0  0
   59.5040   26.7950   46.8800 N   0  0  0  0  0  0  0  0  0  0  0  0
   60.2550   27.2660   48.0510 C   0  0  0  0  0  0  0  0  0  0  0  0
   59.5770   28.5360   48.6040 C   0  0  0  0  0  0  0  0  0  0  0  0
   62.1896   34.0786   50.5427 H   0  0  0  0  0  0  0  0  0  0  0  0
   63.5297   33.5589   49.4654 H   0  0  0  0  0  0  0  0  0  0  0  0
   62.9903   35.2723   49.4654 H   0  0  0  0  0  0  0  0  0  0  0  0
   62.0069   34.3366   47.5081 H   0  0  0  0  0  0  0  0  0  0  0  0
   61.5539   32.8166   48.3725 H   0  0  0  0  0  0  0  0  0  0  0  0
   58.5898   34.4247   47.5462 H   0  0  0  0  0  0  0  0  0  0  0  0
   59.4862   35.9842   47.5321 H   0  0  0  0  0  0  0  0  0  0  0  0
   61.2707   33.9014   46.6256 H   0  0  0  0  0  0  0  0  0  0  0  0
   59.7304   33.7636   45.7116 H   0  0  0  0  0  0  0  0  0  0  0  0
   60.6393   35.3130   45.7116 H   0  0  0  0  0  0  0  0  0  0  0  0
   59.7217   33.7449   50.6675 H   0  0  0  0  0  0  0  0  0  0  0  0
   58.4779   33.6421   49.3477 H   0  0  0  0  0  0  0  0  0  0  0  0
   60.7229   32.0445   48.5609 H   0  0  0  0  0  0  0  0  0  0  0  0
   60.3106   31.6088   50.2523 H   0  0  0  0  0  0  0  0  0  0  0  0
   58.3644   29.5765   43.3757 H   0  0  0  0  0  0  0  0  0  0  0  0
   57.2357   33.6469   44.3572 H   0  0  0  0  0  0  0  0  0  0  0  0
   57.7188   33.2123   46.7815 H   0  0  0  0  0  0  0  0  0  0  0  0
   60.5607   27.9500   45.3628 H   0  0  0  0  0  0  0  0  0  0  0  0
   58.8464   27.7172   43.6796 H   0  0  0  0  0  0  0  0  0  0  0  0
   59.6881   26.1728   44.2330 H   0  0  0  0  0  0  0  0  0  0  0  0
   56.8574   26.8576   44.1411 H   0  0  0  0  0  0  0  0  0  0  0  0
   57.8908   24.8895   43.0472 H   0  0  0  0  0  0  0  0  0  0  0  0
   58.4062   24.2791   44.6963 H   0  0  0  0  0  0  0  0  0  0  0  0
   55.8978   23.8812   43.2672 H   0  0  0  0  0  0  0  0  0  0  0  0
   56.5615   23.0933   44.7720 H   0  0  0  0  0  0  0  0  0  0  0  0
   54.8904   25.6296   44.5687 H   0  0  0  0  0  0  0  0  0  0  0  0
   54.4751   24.0742   45.3778 H   0  0  0  0  0  0  0  0  0  0  0  0
   55.1720   25.7890   47.0264 H   0  0  0  0  0  0  0  0  0  0  0  0
   56.3386   24.3942   46.9590 H   0  0  0  0  0  0  0  0  0  0  0  0
   56.6936   27.2412   46.3904 H   0  0  0  0  0  0  0  0  0  0  0  0
   60.2605   26.4841   48.8247 H   0  0  0  0  0  0  0  0  0  0  0  0
   61.2914   27.4939   47.7611 H   0  0  0  0  0  0  0  0  0  0  0  0
   58.7227   28.2423   49.2317 H   0  0  0  0  0  0  0  0  0  0  0  0
   60.3168   29.0972   49.1938 H   0  0  0  0  0  0  0  0  0  0  0  0
  1  2  1  0
  2  3  1  0
  3  4  1  0
  4  5  1  0
  3  6  1  0
  6  7  1  0
  7  8  1  0
  8  9  1  0
  9 10  1  0
 10 11  2  0
 11 12  1  0
 12 13  2  0
 13 14  1  0
 14 15  1  0
 14 16  2  0
 16 17  1  0
 17 18  2  0
 11 19  1  0
 19 20  1  0
 20 21  1  0
 21 22  1  0
 22 23  1  0
 23 24  1  0
 24 25  1  0
 25 26  1  0
 26 27  1  0
 27 28  2  0
 27 29  1  0
 29 30  1  0
 30 31  1  0
 18  9  1  0
 29 19  1  0
 31 10  1  0
 18 12  1  0
 26 21  1  0
  1 32  1  0
  1 33  1  0
  1 34  1  0
  2 35  1  0
  2 36  1  0
  4 37  1  0
  4 38  1  0
  5 39  1  0
  5 40  1  0
  5 41  1  0
  6 42  1  0
  6 43  1  0
  7 44  1  0
  7 45  1  0
 13 46  1  0
 16 47  1  0
 17 48  1  0
 19 49  1  6
 20 50  1  0
 20 51  1  0
 21 52  1  6
 22 53  1  0
 22 54  1  0
 23 55  1  0
 23 56  1  0
 24 57  1  0
 24 58  1  0
 25 59  1  0
 25 60  1  0
 26 61  1  1
 30 62  1  0
 30 63  1  0
 31 64  1  0
 31 65  1  0
M  END
>  <UniqueID>  (6) 
5

>  <SMILES>  (6) 
CCN(CC)CCOn1c2c(c3cc(Br)ccc31)[C@@H]1C[C@H]3CCCCC3C(=O)N1CC2

>  <Energy>  (6) 
130.7191411047321

>  <Genealogy>  (6) 
CCN(CC)CCOn1c2c(c3cc(Br)ccc31)[C@@H]1C[C@H]3CCCCC3C(=O)N1CC2 (chirality)
CCN(CC)CCOn1c2c(c3cc(Br)ccc31)[C@@H]1C[C@H]3CCCCC3C(=O)N1CC2 (3D coordinates assigned)
CCN(CC)CCOn1c2c(c3cc(Br)ccc31)[C@@H]1C[C@H]3CCCCC3C(=O)N1CC2 (nonaromatic ring conformer: 130.7191411047321 kcal/mol)

>  <smiles>  (6) 
CCN(CC)CCOn1c2c(c3cc(Br)ccc31)C1CC3CCCCC3C(=O)N1CC2

>  <score_type>  (6) 
oracle

>  <origin>  (6) 
adg

>  <m_score__min__energy>  (6) 
-9.1699999999999999

>  <m_primary>  (6) 
energy

$$$$
6:0
     RDKit          3D

 53 55  0  0  0  0  0  0  0  0999 V2000
   57.6240   33.0910   47.0950 C   0  0  0  0  0  0  0  0  0  0  0  0
   58.8420   32.4010   46.6240 N   0  0  2  0  0  0  0  0  0  0  0  0
   59.3950   31.5020   47.6730 C   0  0  0  0  0  0  0  0  0  0  0  0
   60.6020   30.6720   47.1720 C   0  0  0  0  0  0  0  0  0  0  0  0
   60.2400   29.7470   46.0040 C   0  0  0  0  0  0  0  0  0  0  0  0
   59.1910   30.3420   45.1880 N   0  0  0  0  0  0  0  0  0  0  0  0
   57.8830   29.7780   45.0600 C   0  0  0  0  0  0  0  0  0  0  0  0
   56.8670   30.5130   45.1990 O   0  0  0  0  0  0  0  0  0  0  0  0
   57.7250   28.3330   44.7770 C   0  0  0  0  0  0  0  0  0  0  0  0
   57.9960   27.8190   43.4980 C   0  0  0  0  0  0  0  0  0  0  0  0
   57.8610   26.4550   43.2350 C   0  0  0  0  0  0  0  0  0  0  0  0
   57.4650   25.5650   44.2490 C   0  0  0  0  0  0  0  0  0  0  0  0
   57.3310   24.1110   43.9730 C   0  0  0  0  0  0  0  0  0  0  0  0
   56.4180   23.6450   43.0070 C   0  0  0  0  0  0  0  0  0  0  0  0
   56.2920   22.2750   42.7520 C   0  0  0  0  0  0  0  0  0  0  0  0
   57.0700   21.3570   43.4580 C   0  0  0  0  0  0  0  0  0  0  0  0
   57.9820   21.8050   44.4160 C   0  0  0  0  0  0  0  0  0  0  0  0
   58.1140   23.1720   44.6730 C   0  0  0  0  0  0  0  0  0  0  0  0
   57.1940   26.0800   45.5280 C   0  0  0  0  0  0  0  0  0  0  0  0
   57.3120   27.4500   45.7860 C   0  0  0  0  0  0  0  0  0  0  0  0
   59.8530   33.3610   46.1130 C   0  0  0  0  0  0  0  0  0  0  0  0
   60.9620   33.6680   47.1010 C   0  0  0  0  0  0  0  0  0  0  0  0
   62.3100   33.4560   46.7590 C   0  0  0  0  0  0  0  0  0  0  0  0
   63.3260   33.7070   47.6840 C   0  0  0  0  0  0  0  0  0  0  0  0
   63.0090   34.1830   48.9550 C   0  0  0  0  0  0  0  0  0  0  0  0
   61.6760   34.4150   49.3040 C   0  0  0  0  0  0  0  0  0  0  0  0
   60.6580   34.1690   48.3790 C   0  0  0  0  0  0  0  0  0  0  0  0
   57.6094   33.0993   48.1949 H   0  0  0  0  0  0  0  0  0  0  0  0
   57.6204   34.1253   46.7205 H   0  0  0  0  0  0  0  0  0  0  0  0
   56.7350   32.5623   46.7205 H   0  0  0  0  0  0  0  0  0  0  0  0
   58.5530   31.8250   45.7970 H   0  0  0  0  0  0  0  0  0  0  0  0
   59.7194   32.1151   48.5268 H   0  0  0  0  0  0  0  0  0  0  0  0
   58.6012   30.7959   47.9580 H   0  0  0  0  0  0  0  0  0  0  0  0
   61.3916   31.3631   46.8419 H   0  0  0  0  0  0  0  0  0  0  0  0
   60.9385   30.0383   48.0058 H   0  0  0  0  0  0  0  0  0  0  0  0
   61.1326   29.5825   45.3825 H   0  0  0  0  0  0  0  0  0  0  0  0
   59.8771   28.7902   46.4074 H   0  0  0  0  0  0  0  0  0  0  0  0
   58.3180   28.4987   42.6953 H   0  0  0  0  0  0  0  0  0  0  0  0
   58.0664   26.0724   42.2244 H   0  0  0  0  0  0  0  0  0  0  0  0
   55.7995   24.3634   42.4490 H   0  0  0  0  0  0  0  0  0  0  0  0
   55.5782   21.9211   41.9935 H   0  0  0  0  0  0  0  0  0  0  0  0
   56.9650   20.2801   43.2600 H   0  0  0  0  0  0  0  0  0  0  0  0
   58.5975   21.0804   44.9692 H   0  0  0  0  0  0  0  0  0  0  0  0
   58.8352   23.5179   45.4281 H   0  0  0  0  0  0  0  0  0  0  0  0
   56.8858   25.3988   46.3349 H   0  0  0  0  0  0  0  0  0  0  0  0
   57.0790   27.8381   46.7885 H   0  0  0  0  0  0  0  0  0  0  0  0
   60.3057   32.9367   45.2047 H   0  0  0  0  0  0  0  0  0  0  0  0
   59.3263   34.3071   45.9194 H   0  0  0  0  0  0  0  0  0  0  0  0
   62.5662   33.0893   45.7541 H   0  0  0  0  0  0  0  0  0  0  0  0
   64.3762   33.5290   47.4094 H   0  0  0  0  0  0  0  0  0  0  0  0
   63.8093   34.3763   49.6845 H   0  0  0  0  0  0  0  0  0  0  0  0
   61.4279   34.7915   50.3074 H   0  0  0  0  0  0  0  0  0  0  0  0
   59.6115   34.3687   48.6526 H   0  0  0  0  0  0  0  0  0  0  0  0
  1  2  1  0
  2  3  1  0
  3  4  1  0
  4  5  1  0
  5  6  1  0
  6  7  1  0
  7  8  2  0
  7  9  1  0
  9 10  2  0
 10 11  1  0
 11 12  2  0
 12 13  1  0
 13 14  2  0
 14 15  1  0
 15 16  2  0
 16 17  1  0
 17 18  2  0
 12 19  1  0
 19 20  2  0
  2 21  1  0
 21 22  1  0
 22 23  2  0
 23 24  1  0
 24 25  2  0
 25 26  1  0
 26 27  2  0
 20  9  1  0
 27 22  1  0
 18 13  1  0
  1 28  1  0
  1 29  1  0
  1 30  1  0
  2 31  1  6
  3 32  1  0
  3 33  1  0
  4 34  1  0
  4 35  1  0
  5 36  1  0
  5 37  1  0
 10 38  1  0
 11 39  1  0
 14 40  1  0
 15 41  1  0
 16 42  1  0
 17 43  1  0
 18 44  1  0
 19 45  1  0
 20 46  1  0
 21 47  1  0
 21 48  1  0
 23 49  1  0
 24 50  1  0
 25 51  1  0
 26 52  1  0
 27 53  1  0
M  CHG  2   2   1   6  -1
M  END
>  <UniqueID>  (7) 
6

>  <SMILES>  (7) 
C[N@H+](CCC[N-]C(=O)c1ccc(-c2ccccc2)cc1)Cc1ccccc1

>  <Energy>  (7) 
61.90989070187358

>  <Genealogy>  (7) 
C[NH+](CCC[N-]C(=O)c1ccc(-c2ccccc2)cc1)Cc1ccccc1 (protonated)
C[N@H+](CCC[N-]C(=O)c1ccc(-c2ccccc2)cc1)Cc1ccccc1 (chirality)
C[N@H+](CCC[N-]C(=O)c1ccc(-c2ccccc2)cc1)Cc1ccccc1 (3D coordinates assigned)
C[N@H+](CCC[N-]C(=O)c1ccc(-c2ccccc2)cc1)Cc1ccccc1 (optimized conformer: 61.90989070187358 kcal/mol)

>  <smiles>  (7) 
CN(CCCNC(=O)c1ccc(-c2ccccc2)cc1)Cc1ccccc1

>  <score_type>  (7) 
oracle

>  <origin>  (7) 
adg

>  <m_score__min__energy>  (7) 
-8.3900000000000006

>  <m_primary>  (7) 
energy

$$$$
7:0
     RDKit          3D

 51 53  0  0  0  0  0  0  0  0999 V2000
   56.4010   30.7230   51.9930 C   0  0  0  0  0  0  0  0  0  0  0  0
   57.6710   30.9860   51.2400 C   0  0  0  0  0  0  0  0  0  0  0  0
   58.5140   29.9220   50.8950 C   0  0  0  0  0  0  0  0  0  0  0  0
   59.7280   30.1640   50.2490 C   0  0  0  0  0  0  0  0  0  0  0  0
   60.1250   31.4790   49.9470 C   0  0  0  0  0  0  0  0  0  0  0  0
   61.3620   31.7600   49.3420 O   0  0  0  0  0  0  0  0  0  0  0  0
   62.6360   31.3310   49.8270 C   0  0  0  0  0  0  0  0  0  0  0  0
   63.7660   32.1320   49.1710 C   0  0  0  0  0  0  0  0  0  0  0  0
   63.2420   33.3910   48.6160 N   0  0  0  0  0  0  0  0  0  0  0  0
   63.5260   33.5280   47.1800 C   0  0  0  0  0  0  0  0  0  0  0  0
   62.2130   33.4710   46.3950 C   0  0  0  0  0  0  0  0  0  0  0  0
   61.1010   32.9810   47.2210 N   0  0  0  0  0  0  0  0  0  0  0  0
   59.8660   33.0740   46.4700 C   0  0  0  0  0  0  0  0  0  0  0  0
   59.3500   34.3490   46.1660 C   0  0  0  0  0  0  0  0  0  0  0  0
   58.1280   34.4920   45.5090 C   0  0  0  0  0  0  0  0  0  0  0  0
   57.3850   33.3680   45.1550 C   0  0  0  0  0  0  0  0  0  0  0  0
   57.8610   32.0900   45.4510 C   0  0  0  0  0  0  0  0  0  0  0  0
   57.1130   31.0060   45.1130 N   0  0  0  0  0  0  0  0  0  0  0  0
   57.5200   29.7390   45.3840 C   0  0  0  0  0  0  0  0  0  0  0  0
   58.7360   29.5190   46.0260 C   0  0  0  0  0  0  0  0  0  0  0  0
   59.5310   30.6070   46.3900 C   0  0  0  0  0  0  0  0  0  0  0  0
   59.1070   31.9230   46.1100 C   0  0  0  0  0  0  0  0  0  0  0  0
   59.2670   32.5500   50.2660 C   0  0  0  0  0  0  0  0  0  0  0  0
   59.6790   33.9620   49.9600 C   0  0  0  0  0  0  0  0  0  0  0  0
   58.0560   32.2990   50.9330 C   0  0  0  0  0  0  0  0  0  0  0  0
   56.6004   30.7643   53.0740 H   0  0  0  0  0  0  0  0  0  0  0  0
   55.6534   31.4854   51.7287 H   0  0  0  0  0  0  0  0  0  0  0  0
   56.0177   29.7264   51.7287 H   0  0  0  0  0  0  0  0  0  0  0  0
   58.2180   28.8899   51.1343 H   0  0  0  0  0  0  0  0  0  0  0  0
   60.3783   29.3204   49.9744 H   0  0  0  0  0  0  0  0  0  0  0  0
   62.6752   31.4779   50.9164 H   0  0  0  0  0  0  0  0  0  0  0  0
   62.7678   30.2674   49.5790 H   0  0  0  0  0  0  0  0  0  0  0  0
   64.5348   32.3593   49.9242 H   0  0  0  0  0  0  0  0  0  0  0  0
   64.2025   31.5353   48.3565 H   0  0  0  0  0  0  0  0  0  0  0  0
   63.6980   34.1860   49.1230 H   0  0  0  0  0  0  0  0  0  0  0  0
   64.0232   34.4915   46.9944 H   0  0  0  0  0  0  0  0  0  0  0  0
   64.1843   32.7086   46.8555 H   0  0  0  0  0  0  0  0  0  0  0  0
   61.9699   34.4816   46.0349 H   0  0  0  0  0  0  0  0  0  0  0  0
   62.3477   32.7725   45.5560 H   0  0  0  0  0  0  0  0  0  0  0  0
   61.0340   33.5190   48.1140 H   0  0  0  0  0  0  0  0  0  0  0  0
   61.2840   31.9830   47.4830 H   0  0  0  0  0  0  0  0  0  0  0  0
   59.9196   35.2458   46.4512 H   0  0  0  0  0  0  0  0  0  0  0  0
   57.7493   35.4966   45.2693 H   0  0  0  0  0  0  0  0  0  0  0  0
   56.4202   33.4882   44.6406 H   0  0  0  0  0  0  0  0  0  0  0  0
   56.8884   28.8856   45.0961 H   0  0  0  0  0  0  0  0  0  0  0  0
   59.0682   28.4935   46.2451 H   0  0  0  0  0  0  0  0  0  0  0  0
   60.4922   30.4375   46.8973 H   0  0  0  0  0  0  0  0  0  0  0  0
   59.8387   34.5094   50.9007 H   0  0  0  0  0  0  0  0  0  0  0  0
   60.6122   33.9537   49.3776 H   0  0  0  0  0  0  0  0  0  0  0  0
   58.8878   34.4568   49.3776 H   0  0  0  0  0  0  0  0  0  0  0  0
   57.4049   33.1390   51.2166 H   0  0  0  0  0  0  0  0  0  0  0  0
  1  2  1  0
  2  3  2  0
  3  4  1  0
  4  5  2  0
  5  6  1  0
  6  7  1  0
  7  8  1  0
  8  9  1  0
  9 10  1  0
 10 11  1  0
 11 12  1  0
 12 13  1  0
 13 14  2  0
 14 15  1  0
 15 16  2  0
 16 17  1  0
 17 18  2  0
 18 19  1  0
 19 20  2  0
 20 21  1  0
 21 22  2  0
  5 23  1  0
 23 24  1  0
 23 25  2  0
 25  2  1  0
 22 13  1  0
 22 17  1  0
  1 26  1  0
  1 27  1  0
  1 28  1  0
  3 29  1  0
  4 30  1  0
  7 31  1  0
  7 32  1  0
  8 33  1  0
  8 34  1  0
  9 35  1  0
 10 36  1  0
 10 37  1  0
 11 38  1  0
 11 39  1  0
 12 40  1  0
 12 41  1  0
 14 42  1  0
 15 43  1  0
 16 44  1  0
 19 45  1  0
 20 46  1  0
 21 47  1  0
 24 48  1  0
 24 49  1  0
 24 50  1  0
 25 51  1  0
M  CHG  1  12   1
M  END
>  <UniqueID>  (8) 
7

>  <SMILES>  (8) 
Cc1ccc(OCCNCC[NH2+]c2cccc3ncccc23)c(C)c1

>  <Energy>  (8) 
50.19098412649764

>  <Genealogy>  (8) 
Cc1ccc(OCCNCC[NH2+]c2cccc3ncccc23)c(C)c1 (protonated)
Cc1ccc(OCCNCC[NH2+]c2cccc3ncccc23)c(C)c1 (3D coordinates assigned)
Cc1ccc(OCCNCC[NH2+]c2cccc3ncccc23)c(C)c1 (optimized conformer: 50.19098412649764 kcal/mol)

>  <smiles>  (8) 
Cc1ccc(OCCNCCNc2cccc3ncccc23)c(C)c1

>  <score_type>  (8) 
oracle

>  <origin>  (8) 
adg

>  <m_score__min__energy>  (8) 
-5.7199999999999998

>  <m_primary>  (8) 
energy

$$$$
8:0
     RDKit          3D

 54 56  0  0  0  0  0  0  0  0999 V2000
   59.4880   29.9850   46.0310 C   0  0  0  0  0  0  0  0  0  0  0  0
   58.0810   30.5380   45.7810 C   0  0  0  0  0  0  0  0  0  0  0  0
   58.0630   31.6950   44.8480 N   0  0  0  0  0  0  0  0  0  0  0  0
   58.0260   31.3280   43.4050 C   0  0  0  0  0  0  0  0  0  0  0  0
   56.9080   30.3570   43.0080 C   0  0  0  0  0  0  0  0  0  0  0  0
   57.0600   32.7390   45.2110 C   0  0  0  0  0  0  0  0  0  0  0  0
   57.5140   34.2020   44.9940 C   0  0  0  0  0  0  0  0  0  0  0  0
   58.9360   34.3470   45.3130 N   0  0  0  0  0  0  0  0  0  0  0  0
   59.5560   33.8870   46.5300 C   0  0  0  0  0  0  0  0  0  0  0  0
   59.0690   34.2490   47.8010 C   0  0  0  0  0  0  0  0  0  0  0  0
   59.7030   33.7920   48.9570 C   0  0  0  0  0  0  0  0  0  0  0  0
   60.8380   32.9740   48.8660 C   0  0  0  0  0  0  0  0  0  0  0  0
   61.3210   32.5970   47.6120 C   0  0  0  0  0  0  0  0  0  0  0  0
   60.6920   33.0660   46.4480 C   0  0  0  0  0  0  0  0  0  0  0  0
   62.5440   31.7340   47.5380 C   0  0  0  0  0  0  0  0  0  0  0  0
   63.7750   32.5420   47.9480 C   0  0  0  0  0  0  0  0  0  0  0  0
   63.8950   32.9040   49.4220 C   0  0  0  0  0  0  0  0  0  0  0  0
   65.1710   33.3330   49.8370 C   0  0  0  0  0  0  0  0  0  0  0  0
   65.4130   33.7160   51.1550 C   0  0  0  0  0  0  0  0  0  0  0  0
   64.3830   33.6900   52.0870 C   0  0  0  0  0  0  0  0  0  0  0  0
   63.1060   33.2850   51.7060 C   0  0  0  0  0  0  0  0  0  0  0  0
   62.8300   32.8900   50.3800 C   0  0  0  0  0  0  0  0  0  0  0  0
   61.4810   32.4850   50.0510 N   0  0  0  0  0  0  0  0  0  0  0  0
   60.6790   31.7200   51.0110 C   0  0  0  0  0  0  0  0  0  0  0  0
   59.6672   29.9146   47.1140 H   0  0  0  0  0  0  0  0  0  0  0  0
   59.5749   28.9858   45.5792 H   0  0  0  0  0  0  0  0  0  0  0  0
   60.2320   30.6576   45.5792 H   0  0  0  0  0  0  0  0  0  0  0  0
   57.4608   29.7357   45.3548 H   0  0  0  0  0  0  0  0  0  0  0  0
   57.6927   30.8918   46.7475 H   0  0  0  0  0  0  0  0  0  0  0  0
   58.9910   32.1680   44.9700 H   0  0  0  0  0  0  0  0  0  0  0  0
   57.8976   32.2518   42.8219 H   0  0  0  0  0  0  0  0  0  0  0  0
   58.9720   30.8062   43.1979 H   0  0  0  0  0  0  0  0  0  0  0  0
   56.4379   29.9487   43.9148 H   0  0  0  0  0  0  0  0  0  0  0  0
   56.1531   30.8909   42.4122 H   0  0  0  0  0  0  0  0  0  0  0  0
   57.3309   29.5347   42.4122 H   0  0  0  0  0  0  0  0  0  0  0  0
   56.1593   32.5698   44.6027 H   0  0  0  0  0  0  0  0  0  0  0  0
   56.8907   32.6323   46.2926 H   0  0  0  0  0  0  0  0  0  0  0  0
   57.3478   34.4811   43.9431 H   0  0  0  0  0  0  0  0  0  0  0  0
   56.9306   34.8589   45.6559 H   0  0  0  0  0  0  0  0  0  0  0  0
   59.5370   34.8080   44.5930 H   0  0  0  0  0  0  0  0  0  0  0  0
   58.1832   34.8961   47.8829 H   0  0  0  0  0  0  0  0  0  0  0  0
   59.3103   34.0750   49.9448 H   0  0  0  0  0  0  0  0  0  0  0  0
   61.0929   32.7876   45.4622 H   0  0  0  0  0  0  0  0  0  0  0  0
   62.4273   30.8767   48.2173 H   0  0  0  0  0  0  0  0  0  0  0  0
   62.6728   31.3753   46.5061 H   0  0  0  0  0  0  0  0  0  0  0  0
   64.6648   31.9555   47.6752 H   0  0  0  0  0  0  0  0  0  0  0  0
   63.6790   33.5028   47.4211 H   0  0  0  0  0  0  0  0  0  0  0  0
   65.9926   33.3664   49.1064 H   0  0  0  0  0  0  0  0  0  0  0  0
   66.4200   34.0390   51.4575 H   0  0  0  0  0  0  0  0  0  0  0  0
   64.5764   33.9898   53.1276 H   0  0  0  0  0  0  0  0  0  0  0  0
   62.2981   33.2729   52.4524 H   0  0  0  0  0  0  0  0  0  0  0  0
   60.9698   31.9974   52.0350 H   0  0  0  0  0  0  0  0  0  0  0  0
   59.6129   31.9443   50.8591 H   0  0  0  0  0  0  0  0  0  0  0  0
   60.8527   30.6445   50.8591 H   0  0  0  0  0  0  0  0  0  0  0  0
  1  2  1  0
  2  3  1  0
  3  4  1  0
  4  5  1  0
  3  6  1  0
  6  7  1  0
  7  8  1  0
  8  9  1  0
  9 10  2  0
 10 11  1  0
 11 12  2  0
 12 13  1  0
 13 14  2  0
 13 15  1  0
 15 16  1  0
 16 17  1  0
 17 18  2  0
 18 19  1  0
 19 20  2  0
 20 21  1  0
 21 22  2  0
 22 23  1  0
 23 24  1  0
 14  9  1  0
 22 17  1  0
 23 12  1  0
  1 25  1  0
  1 26  1  0
  1 27  1  0
  2 28  1  0
  2 29  1  0
  3 30  1  0
  4 31  1  0
  4 32  1  0
  5 33  1  0
  5 34  1  0
  5 35  1  0
  6 36  1  0
  6 37  1  0
  7 38  1  0
  7 39  1  0
  8 40  1  0
 10 41  1  0
 11 42  1  0
 14 43  1  0
 15 44  1  0
 15 45  1  0
 16 46  1  0
 16 47  1  0
 18 48  1  0
 19 49  1  0
 20 50  1  0
 21 51  1  0
 24 52  1  0
 24 53  1  0
 24 54  1  0
M  CHG  1   3   1
M  END
>  <UniqueID>  (9) 
8

>  <SMILES>  (9) 
CC[NH+](CC)CCNc1ccc2c(c1)CCc1ccccc1N2C

>  <Energy>  (9) 
78.33897838120838

>  <Genealogy>  (9) 
CC[NH+](CC)CCNc1ccc2c(c1)CCc1ccccc1N2C (protonated)
CC[NH+](CC)CCNc1ccc2c(c1)CCc1ccccc1N2C (3D coordinates assigned)
CC[NH+](CC)CCNc1ccc2c(c1)CCc1ccccc1N2C (nonaromatic ring conformer: 78.33897838120838 kcal/mol)

>  <smiles>  (9) 
CCN(CC)CCNc1ccc2c(c1)CCc1ccccc1N2C

>  <score_type>  (9) 
oracle

>  <origin>  (9) 
adg

>  <m_score__min__energy>  (9) 
-3.8199999999999998

>  <m_primary>  (9) 
energy

$$$$
9:0
     RDKit          3D

 58 60  0  0  0  0  0  0  0  0999 V2000
   58.9250   29.8050   50.3880 C   0  0  0  0  0  0  0  0  0  0  0  0
   57.6890   30.4290   50.8920 N   0  0  0  0  0  0  0  0  0  0  0  0
   57.4170   29.9510   52.2570 C   0  0  0  0  0  0  0  0  0  0  0  0
   57.7810   31.9060   50.8720 C   0  0  0  0  0  0  0  0  0  0  0  0
   58.6570   32.4400   52.0200 C   0  0  0  0  0  0  0  0  0  0  0  0
   59.2680   33.8260   51.7320 C   0  0  0  0  0  0  0  0  0  0  0  0
   60.0320   33.8320   50.4780 N   0  0  0  0  0  0  0  0  0  0  0  0
   59.3860   34.1450   49.3530 N   0  0  0  0  0  0  0  0  0  0  0  0
   59.9760   34.1170   48.1300 C   0  0  0  0  0  0  0  0  0  0  0  0
   59.1270   34.3820   46.9560 C   0  0  0  0  0  0  0  0  0  0  0  0
   59.4380   35.3200   46.1740 O   0  0  0  0  0  0  0  0  0  0  0  0
   57.9150   33.6390   46.7570 N   0  0  0  0  0  0  0  0  0  0  0  0
   57.0230   33.8340   45.6140 C   0  0  0  0  0  0  0  0  0  0  0  0
   57.0260   32.5890   44.7160 C   0  0  0  0  0  0  0  0  0  0  0  0
   58.3940   31.8890   44.6760 C   0  0  0  0  0  0  0  0  0  0  0  0
   58.3370   30.5850   45.3390 N   0  0  0  0  0  0  0  0  0  0  0  0
   58.0310   29.3380   44.6620 C   0  0  0  0  0  0  0  0  0  0  0  0
   58.1100   28.2360   45.7370 C   0  0  0  0  0  0  0  0  0  0  0  0
   58.5550   28.9020   47.0500 C   0  0  0  0  0  0  0  0  0  0  0  0
   58.6460   30.3320   46.6950 C   0  0  0  0  0  0  0  0  0  0  0  0
   58.9810   31.2320   47.5100 O   0  0  0  0  0  0  0  0  0  0  0  0
   61.3420   33.7800   48.0350 C   0  0  0  0  0  0  0  0  0  0  0  0
   62.0430   33.8020   46.8110 C   0  0  0  0  0  0  0  0  0  0  0  0
   63.3940   33.4540   46.7610 C   0  0  0  0  0  0  0  0  0  0  0  0
   64.0690   33.0940   47.9260 C   0  0  0  0  0  0  0  0  0  0  0  0
   63.4010   33.0940   49.1510 C   0  0  0  0  0  0  0  0  0  0  0  0
   62.0380   33.4460   49.2210 C   0  0  0  0  0  0  0  0  0  0  0  0
   61.3540   33.4770   50.4480 C   0  0  0  0  0  0  0  0  0  0  0  0
   61.9570   33.1840   51.5180 O   0  0  0  0  0  0  0  0  0  0  0  0
   59.5492   29.4898   51.2371 H   0  0  0  0  0  0  0  0  0  0  0  0
   58.6695   28.9279   49.7753 H   0  0  0  0  0  0  0  0  0  0  0  0
   59.4790   30.5314   49.7753 H   0  0  0  0  0  0  0  0  0  0  0  0
   57.8250   30.6680   52.9847 H   0  0  0  0  0  0  0  0  0  0  0  0
   56.3307   29.8581   52.4033 H   0  0  0  0  0  0  0  0  0  0  0  0
   57.8920   28.9697   52.4033 H   0  0  0  0  0  0  0  0  0  0  0  0
   58.2183   32.2225   49.9136 H   0  0  0  0  0  0  0  0  0  0  0  0
   56.7670   32.3134   50.9977 H   0  0  0  0  0  0  0  0  0  0  0  0
   58.0373   32.5138   52.9258 H   0  0  0  0  0  0  0  0  0  0  0  0
   59.4934   31.7364   52.1438 H   0  0  0  0  0  0  0  0  0  0  0  0
   58.4567   34.5652   51.6588 H   0  0  0  0  0  0  0  0  0  0  0  0
   59.9552   34.0756   52.5538 H   0  0  0  0  0  0  0  0  0  0  0  0
   57.6400   32.9290   47.4730 H   0  0  0  0  0  0  0  0  0  0  0  0
   56.0011   34.0159   45.9783 H   0  0  0  0  0  0  0  0  0  0  0  0
   57.3745   34.6970   45.0295 H   0  0  0  0  0  0  0  0  0  0  0  0
   56.2781   31.8783   45.0975 H   0  0  0  0  0  0  0  0  0  0  0  0
   56.7909   32.9171   43.6927 H   0  0  0  0  0  0  0  0  0  0  0  0
   58.6943   31.7463   43.6274 H   0  0  0  0  0  0  0  0  0  0  0  0
   59.1249   32.5187   45.2046 H   0  0  0  0  0  0  0  0  0  0  0  0
   57.0206   29.3769   44.2290 H   0  0  0  0  0  0  0  0  0  0  0  0
   58.7336   29.1458   43.8378 H   0  0  0  0  0  0  0  0  0  0  0  0
   57.1231   27.7684   45.8687 H   0  0  0  0  0  0  0  0  0  0  0  0
   58.8233   27.4537   45.4382 H   0  0  0  0  0  0  0  0  0  0  0  0
   57.8120   28.7403   47.8448 H   0  0  0  0  0  0  0  0  0  0  0  0
   59.5002   28.4952   47.4389 H   0  0  0  0  0  0  0  0  0  0  0  0
   61.5208   34.0958   45.8885 H   0  0  0  0  0  0  0  0  0  0  0  0
   63.9275   33.4639   45.7991 H   0  0  0  0  0  0  0  0  0  0  0  0
   65.1305   32.8093   47.8796 H   0  0  0  0  0  0  0  0  0  0  0  0
   63.9417   32.8175   50.0682 H   0  0  0  0  0  0  0  0  0  0  0  0
  1  2  1  0
  2  3  1  0
  2  4  1  0
  4  5  1  0
  5  6  1  0
  6  7  1  0
  7  8  1  0
  8  9  2  0
  9 10  1  0
 10 11  2  0
 10 12  1  0
 12 13  1  0
 13 14  1  0
 14 15  1  0
 15 16  1  0
 16 17  1  0
 17 18  1  0
 18 19  1  0
 19 20  1  0
 20 21  2  0
  9 22  1  0
 22 23  2  0
 23 24  1  0
 24 25  2  0
 25 26  1  0
 26 27  2  0
 27 28  1  0
 28 29  2  0
 28  7  1  0
 20 16  1  0
 27 22  1  0
  1 30  1  0
  1 31  1  0
  1 32  1  0
  3 33  1  0
  3 34  1  0
  3 35  1  0
  4 36  1  0
  4 37  1  0
  5 38  1  0
  5 39  1  0
  6 40  1  0
  6 41  1  0
 12 42  1  0
 13 43  1  0
 13 44  1  0
 14 45  1  0
 14 46  1  0
 15 47  1  0
 15 48  1  0
 17 49  1  0
 17 50  1  0
 18 51  1  0
 18 52  1  0
 19 53  1  0
 19 54  1  0
 23 55  1  0
 24 56  1  0
 25 57  1  0
 26 58  1  0
M  END
>  <UniqueID>  (10) 
9

>  <SMILES>  (10) 
CN(C)CCCn1nc(C(=O)NCCCN2CCCC2=O)c2ccccc2c1=O

>  <Energy>  (10) 
66.65144800184608

>  <Genealogy>  (10) 
CN(C)CCCn1nc(C(=O)NCCCN2CCCC2=O)c2ccccc2c1=O (3D coordinates assigned)
CN(C)CCCn1nc(C(=O)NCCCN2CCCC2=O)c2ccccc2c1=O (nonaromatic ring conformer: 66.65144800184608 kcal/mol)

>  <smiles>  (10) 
CN(C)CCCn1nc(C(=O)NCCCN2CCCC2=O)c2ccccc2c1=O

>  <score_type>  (10) 
oracle

>  <origin>  (10) 
adg

>  <m_score__min__energy>  (10) 
-8.4499999999999993

>  <m_primary>  (10) 
energy

$$$$
10:0
     RDKit          3D

 50 52  0  0  0  0  0  0  0  0999 V2000
   56.3680   29.7110   42.6510 C   0  0  0  0  0  0  0  0  0  0  0  0
   55.5140   30.0030   43.8800 C   0  0  0  0  0  0  0  0  0  0  0  0
   56.2410   29.7250   45.0770 O   0  0  0  0  0  0  0  0  0  0  0  0
   57.1170   28.6420   45.2780 C   0  0  0  0  0  0  0  0  0  0  0  0
   56.6660   27.3900   45.7470 C   0  0  0  0  0  0  0  0  0  0  0  0
   57.5660   26.3390   45.9330 C   0  0  0  0  0  0  0  0  0  0  0  0
   58.9210   26.5170   45.6520 C   0  0  0  0  0  0  0  0  0  0  0  0
   59.3810   27.7480   45.1840 C   0  0  0  0  0  0  0  0  0  0  0  0
   58.4880   28.8160   44.9920 C   0  0  0  0  0  0  0  0  0  0  0  0
   59.0040   30.1390   44.4650 C   0  0  0  0  0  0  0  0  0  0  0  0
   58.3570   31.2880   45.1350 N   0  0  2  0  0  0  0  0  0  0  0  0
   58.2570   32.4630   44.2460 C   0  0  0  0  0  0  0  0  0  0  0  0
   57.4430   33.6150   44.8830 C   0  0  0  0  0  0  0  0  0  0  0  0
   57.7300   33.8570   46.3800 C   0  0  0  0  0  0  0  0  0  0  0  0
   59.1060   33.4750   46.7220 N   0  0  0  0  0  0  0  0  0  0  0  0
   59.5990   34.0040   48.0110 C   0  0  0  0  0  0  0  0  0  0  0  0
   61.0800   33.8020   48.2640 C   0  0  0  0  0  0  0  0  0  0  0  0
   61.5440   33.5050   49.5590 C   0  0  0  0  0  0  0  0  0  0  0  0
   62.9060   33.2900   49.7910 C   0  0  0  0  0  0  0  0  0  0  0  0
   63.8150   33.3480   48.7330 C   0  0  0  0  0  0  0  0  0  0  0  0
   65.1340   33.1380   48.9600 F   0  0  0  0  0  0  0  0  0  0  0  0
   63.3610   33.6110   47.4370 C   0  0  0  0  0  0  0  0  0  0  0  0
   62.0000   33.8270   47.2010 C   0  0  0  0  0  0  0  0  0  0  0  0
   59.2730   31.7500   46.5470 S   0  0  0  0  0  0  0  0  0  0  0  0
   58.7190   31.0180   47.7360 O   0  0  0  0  0  0  0  0  0  0  0  0
   60.7300   31.4100   46.3800 O   0  0  0  0  0  0  0  0  0  0  0  0
   57.3643   29.3703   42.9693 H   0  0  0  0  0  0  0  0  0  0  0  0
   55.8873   28.9262   42.0485 H   0  0  0  0  0  0  0  0  0  0  0  0
   56.4685   30.6258   42.0485 H   0  0  0  0  0  0  0  0  0  0  0  0
   55.2217   31.0634   43.8730 H   0  0  0  0  0  0  0  0  0  0  0  0
   54.6212   29.3610   43.8511 H   0  0  0  0  0  0  0  0  0  0  0  0
   55.5987   27.2411   45.9675 H   0  0  0  0  0  0  0  0  0  0  0  0
   57.2057   25.3675   46.3023 H   0  0  0  0  0  0  0  0  0  0  0  0
   59.6268   25.6863   45.7996 H   0  0  0  0  0  0  0  0  0  0  0  0
   60.4501   27.8837   44.9637 H   0  0  0  0  0  0  0  0  0  0  0  0
   60.0892   30.1917   44.6369 H   0  0  0  0  0  0  0  0  0  0  0  0
   58.7702   30.1936   43.3915 H   0  0  0  0  0  0  0  0  0  0  0  0
   57.3970   31.0160   45.4530 H   0  0  0  0  0  0  0  0  0  0  0  0
   59.2714   32.8268   44.0253 H   0  0  0  0  0  0  0  0  0  0  0  0
   57.7345   32.1484   43.3305 H   0  0  0  0  0  0  0  0  0  0  0  0
   57.6739   34.5409   44.3359 H   0  0  0  0  0  0  0  0  0  0  0  0
   56.3847   33.3231   44.8130 H   0  0  0  0  0  0  0  0  0  0  0  0
   57.5866   34.9240   46.6056 H   0  0  0  0  0  0  0  0  0  0  0  0
   57.0382   33.2406   46.9729 H   0  0  0  0  0  0  0  0  0  0  0  0
   59.3929   35.0842   48.0374 H   0  0  0  0  0  0  0  0  0  0  0  0
   59.0740   33.4389   48.7953 H   0  0  0  0  0  0  0  0  0  0  0  0
   60.8307   33.4416   50.3940 H   0  0  0  0  0  0  0  0  0  0  0  0
   63.2620   33.0747   50.8093 H   0  0  0  0  0  0  0  0  0  0  0  0
   64.0758   33.6480   46.6017 H   0  0  0  0  0  0  0  0  0  0  0  0
   61.6466   34.0178   46.1769 H   0  0  0  0  0  0  0  0  0  0  0  0
  1  2  1  0
  2  3  1  0
  3  4  1  0
  4  5  2  0
  5  6  1  0
  6  7  2  0
  7  8  1  0
  8  9  2  0
  9 10  1  0
 10 11  1  0
 11 12  1  0
 12 13  1  0
 13 14  1  0
 14 15  1  0
 15 16  1  0
 16 17  1  0
 17 18  2  0
 18 19  1  0
 19 20  2  0
 20 21  1  0
 20 22  1  0
 22 23  2  0
 15 24  1  0
 24 25  2  0
 24 26  2  0
  9  4  1  0
 24 11  1  0
 23 17  1  0
  1 27  1  0
  1 28  1  0
  1 29  1  0
  2 30  1  0
  2 31  1  0
  5 32  1  0
  6 33  1  0
  7 34  1  0
  8 35  1  0
 10 36  1  0
 10 37  1  0
 11 38  1  1
 12 39  1  0
 12 40  1  0
 13 41  1  0
 13 42  1  0
 14 43  1  0
 14 44  1  0
 16 45  1  0
 16 46  1  0
 18 47  1  0
 19 48  1  0
 22 49  1  0
 23 50  1  0
M  CHG  1  11   1
M  END
>  <UniqueID>  (11) 
10

>  <SMILES>  (11) 
CCOc1ccccc1C[N@@H+]1CCCN(Cc2ccc(F)cc2)S1(=O)=O

>  <Energy>  (11) 
55.64013250262752

>  <Genealogy>  (11) 
CCOc1ccccc1C[NH+]1CCCN(Cc2ccc(F)cc2)S1(=O)=O (protonated)
CCOc1ccccc1C[N@@H+]1CCCN(Cc2ccc(F)cc2)S1(=O)=O (chirality)
CCOc1ccccc1C[N@@H+]1CCCN(Cc2ccc(F)cc2)S1(=O)=O (3D coordinates assigned)
CCOc1ccccc1C[N@@H+]1CCCN(Cc2ccc(F)cc2)S1(=O)=O (nonaromatic ring conformer: 55.64013250262752 kcal/mol)

>  <smiles>  (11) 
CCOc1ccccc1CN1CCCN(Cc2ccc(F)cc2)S1(=O)=O

>  <score_type>  (11) 
oracle

>  <origin>  (11) 
adg

>  <m_score__min__energy>  (11) 
-6.5999999999999996

>  <m_primary>  (11) 
energy

$$$$
11:0
     RDKit          3D

 53 55  0  0  0  0  0  0  0  0999 V2000
   59.5190   33.1510   50.0370 C   0  0  0  0  0  0  0  0  0  0  0  0
   59.7850   34.2450   49.0040 C   0  0  0  0  0  0  0  0  0  0  0  0
   59.3340   33.8420   47.6510 N   0  0  0  0  0  0  0  0  0  0  0  0
   58.9420   34.9810   46.7840 C   0  0  0  0  0  0  0  0  0  0  0  0
   59.2880   34.7920   45.2990 C   0  0  0  0  0  0  0  0  0  0  0  0
   58.2850   32.8010   47.7160 C   0  0  0  0  0  0  0  0  0  0  0  0
   58.5590   31.7070   46.6660 C   0  0  0  0  0  0  0  0  0  0  0  0
   59.9440   31.7550   46.1550 N   0  0  0  0  0  0  0  0  0  0  0  0
   60.9000   31.1660   47.0840 C   0  0  0  0  0  0  0  0  0  0  0  0
   61.9530   31.9410   47.6170 C   0  0  0  0  0  0  0  0  0  0  0  0
   62.5020   33.0270   46.9010 C   0  0  0  0  0  0  0  0  0  0  0  0
   63.5470   33.7770   47.4390 C   0  0  0  0  0  0  0  0  0  0  0  0
   64.0690   33.4520   48.6850 C   0  0  0  0  0  0  0  0  0  0  0  0
   63.5400   32.3850   49.4110 C   0  0  0  0  0  0  0  0  0  0  0  0
   62.4580   31.6230   48.9030 C   0  0  0  0  0  0  0  0  0  0  0  0
   61.8840   30.6010   49.6300 N   0  0  0  0  0  0  0  0  0  0  0  0
   62.1180   30.5040   51.0870 C   0  0  0  0  0  0  0  0  0  0  0  0
   61.1080   29.6580   48.9830 C   0  0  0  0  0  0  0  0  0  0  0  0
   60.7550   28.4390   49.6060 C   0  0  0  0  0  0  0  0  0  0  0  0
   60.0090   27.4780   48.9360 C   0  0  0  0  0  0  0  0  0  0  0  0
   59.6610   27.6520   47.5960 C   0  0  0  0  0  0  0  0  0  0  0  0
   58.9650   26.5320   46.8710 C   0  0  0  0  0  0  0  0  0  0  0  0
   60.0530   28.8280   46.9240 C   0  0  0  0  0  0  0  0  0  0  0  0
   60.0510   28.8010   44.9840 Br  0  0  0  0  0  0  0  0  0  0  0  0
   60.6710   29.8870   47.6480 C   0  0  0  0  0  0  0  0  0  0  0  0
   59.6208   33.5698   51.0491 H   0  0  0  0  0  0  0  0  0  0  0  0
   58.4996   32.7600   49.9028 H   0  0  0  0  0  0  0  0  0  0  0  0
   60.2451   32.3356   49.9028 H   0  0  0  0  0  0  0  0  0  0  0  0
   59.2461   35.1562   49.3028 H   0  0  0  0  0  0  0  0  0  0  0  0
   60.8697   34.4237   48.9651 H   0  0  0  0  0  0  0  0  0  0  0  0
   57.8543   35.1209   46.8694 H   0  0  0  0  0  0  0  0  0  0  0  0
   59.5133   35.8540   47.1325 H   0  0  0  0  0  0  0  0  0  0  0  0
   60.2502   34.2664   45.2107 H   0  0  0  0  0  0  0  0  0  0  0  0
   58.5002   34.1989   44.8115 H   0  0  0  0  0  0  0  0  0  0  0  0
   59.3613   35.7754   44.8115 H   0  0  0  0  0  0  0  0  0  0  0  0
   58.2818   32.3498   48.7192 H   0  0  0  0  0  0  0  0  0  0  0  0
   57.3075   33.2614   47.5096 H   0  0  0  0  0  0  0  0  0  0  0  0
   58.3858   30.7232   47.1266 H   0  0  0  0  0  0  0  0  0  0  0  0
   57.8809   31.8780   45.8169 H   0  0  0  0  0  0  0  0  0  0  0  0
   59.9190   31.2430   45.2480 H   0  0  0  0  0  0  0  0  0  0  0  0
   60.2120   32.7430   45.9460 H   0  0  0  0  0  0  0  0  0  0  0  0
   62.1014   33.2838   45.9092 H   0  0  0  0  0  0  0  0  0  0  0  0
   63.9589   34.6275   46.8760 H   0  0  0  0  0  0  0  0  0  0  0  0
   64.9021   34.0381   49.1002 H   0  0  0  0  0  0  0  0  0  0  0  0
   63.9685   32.1312   50.3918 H   0  0  0  0  0  0  0  0  0  0  0  0
   61.2321   30.8712   51.6259 H   0  0  0  0  0  0  0  0  0  0  0  0
   62.3040   29.4546   51.3594 H   0  0  0  0  0  0  0  0  0  0  0  0
   62.9919   31.1140   51.3594 H   0  0  0  0  0  0  0  0  0  0  0  0
   61.0771   28.2482   50.6403 H   0  0  0  0  0  0  0  0  0  0  0  0
   59.6890   26.5697   49.4676 H   0  0  0  0  0  0  0  0  0  0  0  0
   58.5317   25.8347   47.6031 H   0  0  0  0  0  0  0  0  0  0  0  0
   58.1644   26.9453   46.2399 H   0  0  0  0  0  0  0  0  0  0  0  0
   59.6901   25.9972   46.2399 H   0  0  0  0  0  0  0  0  0  0  0  0
  1  2  1  0
  2  3  1  0
  3  4  1  0
  4  5  1  0
  3  6  1  0
  6  7  1  0
  7  8  1  0
  8  9  1  0
  9 10  2  0
 10 11  1  0
 11 12  2  0
 12 13  1  0
 13 14  2  0
 14 15  1  0
 15 16  2  0
 16 17  1  0
 16 18  1  0
 18 19  2  0
 19 20  1  0
 20 21  2  0
 21 22  1  0
 21 23  1  0
 23 24  1  0
 23 25  2  0
 25  9  1  0
 15 10  1  0
 25 18  1  0
  1 26  1  0
  1 27  1  0
  1 28  1  0
  2 29  1  0
  2 30  1  0
  4 31  1  0
  4 32  1  0
  5 33  1  0
  5 34  1  0
  5 35  1  0
  6 36  1  0
  6 37  1  0
  7 38  1  0
  7 39  1  0
  8 40  1  0
  8 41  1  0
 11 42  1  0
 12 43  1  0
 13 44  1  0
 14 45  1  0
 17 46  1  0
 17 47  1  0
 17 48  1  0
 19 49  1  0
 20 50  1  0
 22 51  1  0
 22 52  1  0
 22 53  1  0
M  CHG  2   8   1  16   1
M  END
>  <UniqueID>  (12) 
11

>  <SMILES>  (12) 
CCN(CC)CC[NH2+]c1c2ccccc2[n+](C)c2ccc(C)c(Br)c12

>  <Energy>  (12) 
96.88564713148708

>  <Genealogy>  (12) 
CCN(CC)CC[NH2+]c1c2ccccc2[n+](C)c2ccc(C)c(Br)c12 (protonated)
CCN(CC)CC[NH2+]c1c2ccccc2[n+](C)c2ccc(C)c(Br)c12 (3D coordinates assigned)
CCN(CC)CC[NH2+]c1c2ccccc2[n+](C)c2ccc(C)c(Br)c12 (optimized conformer: 96.88564713148708 kcal/mol)

>  <smiles>  (12) 
CCN(CC)CCNc1c2ccccc2[n+](C)c2ccc(C)c(Br)c12

>  <score_type>  (12) 
oracle

>  <origin>  (12) 
adg

>  <m_score__min__energy>  (12) 
-4.9000000000000004

>  <m_primary>  (12) 
energy

$$$$
12:0
     RDKit          3D

 52 55  0  0  1  0  0  0  0  0999 V2000
   60.7780   26.4750   46.4060 C   0  0  0  0  0  0  0  0  0  0  0  0
   59.4950   26.8040   46.9270 O   0  0  0  0  0  0  0  0  0  0  0  0
   58.8180   27.8530   46.3180 C   0  0  0  0  0  0  0  0  0  0  0  0
   58.2960   27.6750   45.0600 C   0  0  0  0  0  0  0  0  0  0  0  0
   57.6280   28.7210   44.4690 C   0  0  0  0  0  0  0  0  0  0  0  0
   57.1230   28.5380   43.2460 N   0  0  0  0  0  0  0  0  0  0  0  0
   56.4640   29.5590   42.6520 C   0  0  0  0  0  0  0  0  0  0  0  0
   56.2860   30.7550   43.2290 N   0  0  0  0  0  0  0  0  0  0  0  0
   56.8050   30.9200   44.4670 C   0  0  0  0  0  0  0  0  0  0  0  0
   56.6310   32.0820   45.0210 N   0  0  0  0  0  0  0  0  0  0  0  0
   57.7730   32.9030   45.3520 C   0  0  0  0  0  0  0  0  0  0  0  0
   58.5010   33.4600   44.3220 C   0  0  0  0  0  0  0  0  0  0  0  0
   59.6040   34.2510   44.6460 C   0  0  0  0  0  0  0  0  0  0  0  0
   59.9740   34.4820   45.9570 C   0  0  0  0  0  0  0  0  0  0  0  0
   59.2050   33.8960   46.9360 C   0  0  0  0  0  0  0  0  0  0  0  0
   59.7170   34.2160   48.7510 Br  0  0  0  0  0  0  0  0  0  0  0  0
   58.1040   33.1060   46.6840 C   0  0  0  0  0  0  0  0  0  0  0  0
   57.4890   29.9220   45.1310 C   0  0  0  0  0  0  0  0  0  0  0  0
   58.0140   30.1020   46.3950 C   0  0  0  0  0  0  0  0  0  0  0  0
   58.6890   29.0680   47.0130 C   0  0  0  0  0  0  0  0  0  0  0  0
   59.2150   29.1720   48.2170 O   0  0  0  0  0  0  0  0  0  0  0  0
   59.7840   29.9990   49.0970 C   0  0  0  0  0  0  0  0  0  0  0  0
   61.2580   29.7140   49.2590 C   0  0  0  0  0  0  0  0  0  0  0  0
   62.0800   30.8340   48.8680 N   0  0  0  0  0  0  0  0  0  0  0  0
   62.1650   31.8660   49.8790 C   0  0  0  0  0  0  0  0  0  0  0  0
   63.1480   32.9140   49.3440 C   0  0  0  0  0  0  0  0  0  0  0  0
   63.7160   32.5280   48.1360 O   0  0  0  0  0  0  0  0  0  0  0  0
   62.7620   32.3340   47.1440 C   0  0  0  0  0  0  0  0  0  0  0  0
   61.6520   31.4110   47.6080 C   0  0  0  0  0  0  0  0  0  0  0  0
   61.4763   26.2959   47.2369 H   0  0  0  0  0  0  0  0  0  0  0  0
   60.7016   25.5674   45.7892 H   0  0  0  0  0  0  0  0  0  0  0  0
   61.1478   27.3074   45.7892 H   0  0  0  0  0  0  0  0  0  0  0  0
   58.4102   26.7146   44.5360 H   0  0  0  0  0  0  0  0  0  0  0  0
   57.2420   27.6260   42.7730 H   0  0  0  0  0  0  0  0  0  0  0  0
   56.0534   29.3993   41.6441 H   0  0  0  0  0  0  0  0  0  0  0  0
   58.2198   33.2855   43.2730 H   0  0  0  0  0  0  0  0  0  0  0  0
   60.1949   34.7029   43.8357 H   0  0  0  0  0  0  0  0  0  0  0  0
   60.8444   35.1064   46.2069 H   0  0  0  0  0  0  0  0  0  0  0  0
   57.5165   32.6583   47.4991 H   0  0  0  0  0  0  0  0  0  0  0  0
   57.8948   31.0673   46.9089 H   0  0  0  0  0  0  0  0  0  0  0  0
   59.6574   31.0341   48.7469 H   0  0  0  0  0  0  0  0  0  0  0  0
   59.2968   29.8503   50.0720 H   0  0  0  0  0  0  0  0  0  0  0  0
   61.4588   29.4797   50.3148 H   0  0  0  0  0  0  0  0  0  0  0  0
   61.5104   28.8672   48.6038 H   0  0  0  0  0  0  0  0  0  0  0  0
   61.1767   32.3200   50.0436 H   0  0  0  0  0  0  0  0  0  0  0  0
   62.5038   31.4552   50.8415 H   0  0  0  0  0  0  0  0  0  0  0  0
   62.6103   33.8622   49.1964 H   0  0  0  0  0  0  0  0  0  0  0  0
   63.9583   33.0256   50.0795 H   0  0  0  0  0  0  0  0  0  0  0  0
   62.3267   33.3070   46.8725 H   0  0  0  0  0  0  0  0  0  0  0  0
   63.2563   31.8687   46.2784 H   0  0  0  0  0  0  0  0  0  0  0  0
   60.7216   31.9804   47.7498 H   0  0  0  0  0  0  0  0  0  0  0  0
   61.4566   30.6259   46.8627 H   0  0  0  0  0  0  0  0  0  0  0  0
  1  2  1  0
  2  3  1  0
  3  4  2  0
  4  5  1  0
  5  6  1  0
  6  7  1  0
  7  8  2  0
  8  9  1  0
  9 10  2  0
 10 11  1  0
 11 12  2  0
 12 13  1  0
 13 14  2  0
 14 15  1  0
 15 16  1  0
 15 17  2  0
  9 18  1  0
 18 19  1  0
 19 20  2  0
 20 21  1  0
 21 22  1  0
 22 23  1  0
 23 24  1  0
 24 25  1  0
 25 26  1  0
 26 27  1  0
 27 28  1  0
 28 29  1  0
 20  3  1  0
 29 24  1  0
 18  5  2  0
 17 11  1  0
  1 30  1  0
  1 31  1  0
  1 32  1  0
  4 33  1  0
  6 34  1  0
  7 35  1  0
 12 36  1  0
 13 37  1  0
 14 38  1  0
 17 39  1  0
 19 40  1  0
 22 41  1  0
 22 42  1  0
 23 43  1  0
 23 44  1  0
 25 45  1  0
 25 46  1  0
 26 47  1  0
 26 48  1  0
 28 49  1  0
 28 50  1  0
 29 51  1  0
 29 52  1  0
M  END
>  <smiles>  (13) 
COc1cc2[nH]cnc(=Nc3cccc(Br)c3)c2cc1OCCN1CCOCC1

>  <score_type>  (13) 
oracle

>  <origin>  (13) 
adg

>  <m_score__min__energy>  (13) 
-8.4399999999999995

>  <m_primary>  (13) 
energy

$$$$
13:0
     RDKit          3D

 56 58  0  0  0  0  0  0  0  0999 V2000
   57.2620   24.5740   47.4760 C   0  0  0  0  0  0  0  0  0  0  0  0
   56.1990   24.7150   46.3840 C   0  0  0  0  0  0  0  0  0  0  0  0
   56.5530   25.8070   45.4510 N   0  0  0  0  0  0  0  0  0  0  0  0
   57.4730   25.4660   44.3410 C   0  0  0  0  0  0  0  0  0  0  0  0
   56.9770   24.3270   43.4380 C   0  0  0  0  0  0  0  0  0  0  0  0
   56.6970   27.1610   46.0400 C   0  0  0  0  0  0  0  0  0  0  0  0
   56.7400   28.3160   45.0280 C   0  0  0  0  0  0  0  0  0  0  0  0
   55.4960   28.9870   44.9820 O   0  0  0  0  0  0  0  0  0  0  0  0
   55.5730   30.1160   44.1350 C   0  0  0  0  0  0  0  0  0  0  0  0
   56.5890   29.8500   43.0230 C   0  0  0  0  0  0  0  0  0  0  0  0
   57.9090   30.2600   43.4030 O   0  0  0  0  0  0  0  0  0  0  0  0
   58.2330   31.3450   44.2420 C   0  0  0  0  0  0  0  0  0  0  0  0
   57.9450   32.6210   43.7520 C   0  0  0  0  0  0  0  0  0  0  0  0
   58.1520   33.7560   44.5300 C   0  0  0  0  0  0  0  0  0  0  0  0
   58.6880   33.6410   45.8150 C   0  0  0  0  0  0  0  0  0  0  0  0
   58.8920   34.7930   46.5920 C   0  0  0  0  0  0  0  0  0  0  0  0
   59.4630   34.6960   47.8600 C   0  0  0  0  0  0  0  0  0  0  0  0
   59.8430   33.4520   48.3610 C   0  0  0  0  0  0  0  0  0  0  0  0
   59.6470   32.2960   47.6020 C   0  0  0  0  0  0  0  0  0  0  0  0
   59.0520   32.3670   46.3200 C   0  0  0  0  0  0  0  0  0  0  0  0
   58.8290   31.2060   45.5250 C   0  0  0  0  0  0  0  0  0  0  0  0
   59.3020   29.8850   45.9910 C   0  0  0  0  0  0  0  0  0  0  0  0
   58.8910   29.3950   47.2400 C   0  0  0  0  0  0  0  0  0  0  0  0
   59.3360   28.1450   47.6840 C   0  0  0  0  0  0  0  0  0  0  0  0
   60.1900   27.3810   46.8840 C   0  0  0  0  0  0  0  0  0  0  0  0
   60.5990   27.8630   45.6360 C   0  0  0  0  0  0  0  0  0  0  0  0
   60.1570   29.1120   45.1890 C   0  0  0  0  0  0  0  0  0  0  0  0
   56.7831   24.6375   48.4643 H   0  0  0  0  0  0  0  0  0  0  0  0
   57.7654   23.6012   47.3743 H   0  0  0  0  0  0  0  0  0  0  0  0
   58.0015   25.3819   47.3743 H   0  0  0  0  0  0  0  0  0  0  0  0
   56.1277   23.7705   45.8247 H   0  0  0  0  0  0  0  0  0  0  0  0
   55.2341   24.9510   46.8566 H   0  0  0  0  0  0  0  0  0  0  0  0
   57.6112   26.3632   43.7198 H   0  0  0  0  0  0  0  0  0  0  0  0
   58.4090   25.1181   44.8024 H   0  0  0  0  0  0  0  0  0  0  0  0
   56.6151   23.4960   44.0613 H   0  0  0  0  0  0  0  0  0  0  0  0
   56.1569   24.6932   42.8030 H   0  0  0  0  0  0  0  0  0  0  0  0
   57.8038   23.9760   42.8030 H   0  0  0  0  0  0  0  0  0  0  0  0
   55.8442   27.3310   46.7137 H   0  0  0  0  0  0  0  0  0  0  0  0
   57.6709   27.1682   46.5514 H   0  0  0  0  0  0  0  0  0  0  0  0
   57.5236   29.0282   45.3260 H   0  0  0  0  0  0  0  0  0  0  0  0
   56.9570   27.9048   44.0311 H   0  0  0  0  0  0  0  0  0  0  0  0
   54.5854   30.3094   43.6909 H   0  0  0  0  0  0  0  0  0  0  0  0
   55.8898   30.9923   44.7195 H   0  0  0  0  0  0  0  0  0  0  0  0
   56.6003   28.7728   42.8004 H   0  0  0  0  0  0  0  0  0  0  0  0
   56.2901   30.4317   42.1385 H   0  0  0  0  0  0  0  0  0  0  0  0
   57.5472   32.7306   42.7323 H   0  0  0  0  0  0  0  0  0  0  0  0
   57.8925   34.7479   44.1316 H   0  0  0  0  0  0  0  0  0  0  0  0
   58.5995   35.7774   46.1978 H   0  0  0  0  0  0  0  0  0  0  0  0
   59.6138   35.6018   48.4656 H   0  0  0  0  0  0  0  0  0  0  0  0
   60.2996   33.3803   49.3592 H   0  0  0  0  0  0  0  0  0  0  0  0
   59.9582   31.3208   48.0047 H   0  0  0  0  0  0  0  0  0  0  0  0
   58.2181   29.9944   47.8708 H   0  0  0  0  0  0  0  0  0  0  0  0
   59.0133   27.7632   48.6638 H   0  0  0  0  0  0  0  0  0  0  0  0
   60.5409   26.3997   47.2359 H   0  0  0  0  0  0  0  0  0  0  0  0
   61.2687   27.2591   45.0060 H   0  0  0  0  0  0  0  0  0  0  0  0
   60.4796   29.4896   44.2075 H   0  0  0  0  0  0  0  0  0  0  0  0
  1  2  1  0
  2  3  1  0
  3  4  1  0
  4  5  1  0
  3  6  1  0
  6  7  1  0
  7  8  1  0
  8  9  1  0
  9 10  1  0
 10 11  1  0
 11 12  1  0
 12 13  2  0
 13 14  1  0
 14 15  2  0
 15 16  1  0
 16 17  2  0
 17 18  1  0
 18 19  2  0
 19 20  1  0
 20 21  2  0
 21 22  1  0
 22 23  2  0
 23 24  1  0
 24 25  2  0
 25 26  1  0
 26 27  2  0
 21 12  1  0
 27 22  1  0
 20 15  1  0
  1 28  1  0
  1 29  1  0
  1 30  1  0
  2 31  1  0
  2 32  1  0
  4 33  1  0
  4 34  1  0
  5 35  1  0
  5 36  1  0
  5 37  1  0
  6 38  1  0
  6 39  1  0
  7 40  1  0
  7 41  1  0
  9 42  1  0
  9 43  1  0
 10 44  1  0
 10 45  1  0
 13 46  1  0
 14 47  1  0
 16 48  1  0
 17 49  1  0
 18 50  1  0
 19 51  1  0
 23 52  1  0
 24 53  1  0
 25 54  1  0
 26 55  1  0
 27 56  1  0
M  END
>  <UniqueID>  (14) 
12

>  <SMILES>  (14) 
CCN(CC)CCOCCOc1ccc2ccccc2c1-c1ccccc1

>  <Energy>  (14) 
81.79668362304596

>  <Genealogy>  (14) 
CCN(CC)CCOCCOc1ccc2ccccc2c1-c1ccccc1 (3D coordinates assigned)
CCN(CC)CCOCCOc1ccc2ccccc2c1-c1ccccc1 (optimized conformer: 81.79668362304596 kcal/mol)

>  <smiles>  (14) 
CCN(CC)CCOCCOc1ccc2ccccc2c1-c1ccccc1

>  <score_type>  (14) 
oracle

>  <origin>  (14) 
adg

>  <m_score__min__energy>  (14) 
-7.54

>  <m_primary>  (14) 
energy

$$$$
14:0
     RDKit          3D

 30 32  0  0  0  0  0  0  0  0999 V2000
   56.3990   29.7050   42.8260 C   0  0  0  0  0  0  0  0  0  0  0  0
   57.3240   28.8600   43.5750 N   0  0  0  0  0  0  0  0  0  0  0  0
   57.7840   27.6410   43.1950 C   0  0  0  0  0  0  0  0  0  0  0  0
   58.6610   27.1250   44.1470 C   0  0  0  0  0  0  0  0  0  0  0  0
   58.7160   28.0900   45.1260 C   0  0  0  0  0  0  0  0  0  0  0  0
   59.4300   28.0980   46.2780 N   0  0  0  0  0  0  0  0  0  0  0  0
   59.3240   29.1860   47.0960 C   0  0  0  0  0  0  0  0  0  0  0  0
   58.5160   30.2380   46.7530 N   0  0  0  0  0  0  0  0  0  0  0  0
   57.7930   30.2360   45.5910 C   0  0  0  0  0  0  0  0  0  0  0  0
   56.9700   31.3140   45.2460 O   0  0  0  0  0  0  0  0  0  0  0  0
   57.4210   32.4390   44.4970 C   0  0  0  0  0  0  0  0  0  0  0  0
   58.2090   33.3710   45.3770 C   0  0  0  0  0  0  0  0  0  0  0  0
   58.1620   33.2330   46.7720 C   0  0  0  0  0  0  0  0  0  0  0  0
   58.8800   34.1120   47.5850 C   0  0  0  0  0  0  0  0  0  0  0  0
   59.6390   35.1240   46.9940 C   0  0  0  0  0  0  0  0  0  0  0  0
   59.6720   35.2490   45.6410 N   0  0  0  0  0  0  0  0  0  0  0  0
   58.9820   34.4050   44.8270 C   0  0  0  0  0  0  0  0  0  0  0  0
   57.9060   29.1220   44.7620 C   0  0  0  0  0  0  0  0  0  0  0  0
   55.7737   30.2762   43.5280 H   0  0  0  0  0  0  0  0  0  0  0  0
   56.9688   30.4009   42.1928 H   0  0  0  0  0  0  0  0  0  0  0  0
   55.7573   29.0747   42.1928 H   0  0  0  0  0  0  0  0  0  0  0  0
   57.5028   27.1299   42.2624 H   0  0  0  0  0  0  0  0  0  0  0  0
   59.1909   26.1614   44.1215 H   0  0  0  0  0  0  0  0  0  0  0  0
   59.8917   29.2182   48.0377 H   0  0  0  0  0  0  0  0  0  0  0  0
   58.0600   32.0926   43.6714 H   0  0  0  0  0  0  0  0  0  0  0  0
   56.5480   32.9764   44.0982 H   0  0  0  0  0  0  0  0  0  0  0  0
   57.5594   32.4322   47.2255 H   0  0  0  0  0  0  0  0  0  0  0  0
   58.8481   34.0084   48.6796 H   0  0  0  0  0  0  0  0  0  0  0  0
   60.2109   35.8210   47.6242 H   0  0  0  0  0  0  0  0  0  0  0  0
   59.0302   34.5334   43.7356 H   0  0  0  0  0  0  0  0  0  0  0  0
  1  2  1  0
  2  3  1  0
  3  4  2  0
  4  5  1  0
  5  6  2  0
  6  7  1  0
  7  8  2  0
  8  9  1  0
  9 10  1  0
 10 11  1  0
 11 12  1  0
 12 13  2  0
 13 14  1  0
 14 15  2  0
 15 16  1  0
 16 17  2  0
  9 18  2  0
 18  2  1  0
 18  5  1  0
 17 12  1  0
  1 19  1  0
  1 20  1  0
  1 21  1  0
  3 22  1  0
  4 23  1  0
  7 24  1  0
 11 25  1  0
 11 26  1  0
 13 27  1  0
 14 28  1  0
 15 29  1  0
 17 30  1  0
M  END
>  <UniqueID>  (15) 
13

>  <SMILES>  (15) 
Cn1ccc2ncnc(OCc3cccnc3)c21

>  <Energy>  (15) 
67.9629481915146

>  <Genealogy>  (15) 
Cn1ccc2ncnc(OCc3cccnc3)c21 (3D coordinates assigned)
Cn1ccc2ncnc(OCc3cccnc3)c21 (optimized conformer: 67.9629481915146 kcal/mol)

>  <smiles>  (15) 
Cn1ccc2ncnc(OCc3cccnc3)c21

>  <score_type>  (15) 
oracle

>  <origin>  (15) 
adg

>  <m_score__min__energy>  (15) 
-5.75

>  <m_primary>  (15) 
energy

$$$$
15:0
     RDKit          3D

 43 45  0  0  0  0  0  0  0  0999 V2000
   59.7540   35.0460   48.3750 H   0  0  0  0  0  0  0  0  0  0  0  0
   59.3010   34.2880   47.7190 C   0  0  0  0  0  0  0  0  0  0  0  0
   59.2550   34.4940   46.3770 N   0  0  0  0  0  0  0  0  0  0  0  0
   58.7060   33.5810   45.5290 C   0  0  0  0  0  0  0  0  0  0  0  0
   58.6810   33.8380   44.1540 C   0  0  0  0  0  0  0  0  0  0  0  0
   59.1061   34.7747   43.7644 H   0  0  0  0  0  0  0  0  0  0  0  0
   58.1190   32.9110   43.2740 C   0  0  0  0  0  0  0  0  0  0  0  0
   58.1028   33.1199   42.1941 H   0  0  0  0  0  0  0  0  0  0  0  0
   57.5750   31.7140   43.7630 C   0  0  0  0  0  0  0  0  0  0  0  0
   57.0060   30.7750   42.8940 C   0  0  0  0  0  0  0  0  0  0  0  0
   56.9826   30.9703   41.8117 H   0  0  0  0  0  0  0  0  0  0  0  0
   56.4680   29.5900   43.4020 C   0  0  0  0  0  0  0  0  0  0  0  0
   56.0200   28.8494   42.7231 H   0  0  0  0  0  0  0  0  0  0  0  0
   56.5030   29.3520   44.7790 C   0  0  0  0  0  0  0  0  0  0  0  0
   56.0020   28.2480   45.2510 N   0  0  0  0  0  0  0  0  0  0  0  0
   56.6930   26.9580   45.2800 C   0  0  0  0  0  0  0  0  0  0  0  0
   56.5219   26.4402   44.3247 H   0  0  0  0  0  0  0  0  0  0  0  0
   56.2935   26.3734   46.1218 H   0  0  0  0  0  0  0  0  0  0  0  0
   58.2050   27.1290   45.4900 C   0  0  0  0  0  0  0  0  0  0  0  0
   58.5099   28.0984   45.0688 H   0  0  0  0  0  0  0  0  0  0  0  0
   58.7041   26.2874   44.9874 H   0  0  0  0  0  0  0  0  0  0  0  0
   58.6140   27.0880   46.9690 C   0  0  0  0  0  0  0  0  0  0  0  0
   59.0620   26.1092   47.1953 H   0  0  0  0  0  0  0  0  0  0  0  0
   57.7219   27.2456   47.5930 H   0  0  0  0  0  0  0  0  0  0  0  0
   59.6030   28.1590   47.2570 N   0  0  0  0  0  0  0  0  0  0  0  0
   59.0740   29.1050   48.2550 C   0  0  0  0  0  0  0  0  0  0  0  0
   59.2852   28.7273   49.2663 H   0  0  0  0  0  0  0  0  0  0  0  0
   59.5548   30.0854   48.1219 H   0  0  0  0  0  0  0  0  0  0  0  0
   57.9870   29.2086   48.1219 H   0  0  0  0  0  0  0  0  0  0  0  0
   60.0150   28.8890   46.0380 C   0  0  0  0  0  0  0  0  0  0  0  0
   59.1197   29.1440   45.4520 H   0  0  0  0  0  0  0  0  0  0  0  0
   60.6878   28.2434   45.4544 H   0  0  0  0  0  0  0  0  0  0  0  0
   60.7620   30.1740   46.3930 C   0  0  0  0  0  0  0  0  0  0  0  0
   60.8202   30.2740   47.4869 H   0  0  0  0  0  0  0  0  0  0  0  0
   61.7783   30.1351   45.9738 H   0  0  0  0  0  0  0  0  0  0  0  0
   60.2253   31.0379   45.9738 H   0  0  0  0  0  0  0  0  0  0  0  0
   57.0630   30.2750   45.6110 N   0  0  0  0  0  0  0  0  0  0  0  0
   57.5950   31.4420   45.1500 C   0  0  0  0  0  0  0  0  0  0  0  0
   58.1610   32.3790   46.0390 C   0  0  0  0  0  0  0  0  0  0  0  0
   58.2040   32.1600   47.4280 C   0  0  0  0  0  0  0  0  0  0  0  0
   57.7875   31.2344   47.8520 H   0  0  0  0  0  0  0  0  0  0  0  0
   58.7750   33.1170   48.2680 C   0  0  0  0  0  0  0  0  0  0  0  0
   58.8104   32.9500   49.3547 H   0  0  0  0  0  0  0  0  0  0  0  0
  1  2  1  0
  2  3  2  0
  3  4  1  0
  4  5  2  0
  5  6  1  0
  5  7  1  0
  7  8  1  0
  7  9  2  0
  9 10  1  0
 10 11  1  0
 10 12  2  0
 12 13  1  0
 12 14  1  0
 14 15  2  0
 15 16  1  0
 16 17  1  0
 16 18  1  0
 16 19  1  0
 19 20  1  0
 19 21  1  0
 19 22  1  0
 22 23  1  0
 22 24  1  0
 22 25  1  0
 25 26  1  0
 26 27  1  0
 26 28  1  0
 26 29  1  0
 25 30  1  0
 30 31  1  0
 30 32  1  0
 30 33  1  0
 33 34  1  0
 33 35  1  0
 33 36  1  0
 14 37  1  0
 37 38  1  0
 38 39  2  0
 39 40  1  0
 40 41  1  0
 40 42  2  0
 42 43  1  0
 42  2  1  0
 39  4  1  0
 38  9  1  0
M  CHG  1  37  -1
M  END
>  <UniqueID>  (16) 
14

>  <SMILES>  (16) 
CCN(C)CCC/N=c1/ccc2ccc3ncccc3c2[n-]1

>  <Energy>  (16) 
49.043078998605345

>  <Genealogy>  (16) 
CCN(C)CCCN=c1ccc2ccc3ncccc3c2[n-]1 (protonated)
CCN(C)CCC/N=c1/ccc2ccc3ncccc3c2[n-]1 (cis-trans isomerization)
CCN(C)CCC/N=c1/ccc2ccc3ncccc3c2[n-]1 (3D coordinates assigned)
CCN(C)CCC/N=c1/ccc2ccc3ncccc3c2[n-]1 (optimized conformer: 49.043078998605345 kcal/mol)

>  <smiles>  (16) 
CCN(C)CCCN=c1ccc2ccc3ncccc3c2[nH]1

>  <score_type>  (16) 
oracle

>  <origin>  (16) 
adg

>  <m_score__min__energy>  (16) 
-9.1400000000000006

>  <m_primary>  (16) 
energy

$$$$
16:0
     RDKit          3D

 71 74  0  0  0  0  0  0  0  0999 V2000
   62.7520   32.2170   47.6710 C   0  0  0  0  0  0  0  0  0  0  0  0
   61.8800   31.0580   48.1770 C   0  0  0  0  0  0  0  0  0  0  0  0
   61.6140   31.1290   49.6370 N   0  0  0  0  0  0  0  0  0  0  0  0
   61.4470   29.8110   50.3130 C   0  0  0  0  0  0  0  0  0  0  0  0
   60.6660   28.7570   49.5200 C   0  0  0  0  0  0  0  0  0  0  0  0
   62.5200   32.0600   50.3660 C   0  0  0  0  0  0  0  0  0  0  0  0
   61.8410   33.2160   51.1280 C   0  0  0  0  0  0  0  0  0  0  0  0
   60.5150   32.8640   51.4740 O   0  0  0  0  0  0  0  0  0  0  0  0
   59.6090   33.8630   51.0390 C   0  0  0  0  0  0  0  0  0  0  0  0
   59.9030   34.2800   49.5930 C   0  0  0  0  0  0  0  0  0  0  0  0
   59.6780   33.1720   48.6620 N   0  0  0  0  0  0  0  0  0  0  0  0
   59.3830   33.3950   47.2720 C   0  0  0  0  0  0  0  0  0  0  0  0
   59.5950   34.6730   46.7280 C   0  0  0  0  0  0  0  0  0  0  0  0
   59.2790   34.9480   45.4020 C   0  0  0  0  0  0  0  0  0  0  0  0
   58.7520   33.9520   44.5890 C   0  0  0  0  0  0  0  0  0  0  0  0
   58.5410   32.6560   45.0920 C   0  0  0  0  0  0  0  0  0  0  0  0
   58.8510   32.3610   46.4450 C   0  0  0  0  0  0  0  0  0  0  0  0
   58.6530   30.9620   46.9340 C   0  0  0  0  0  0  0  0  0  0  0  0
   58.8770   30.6640   48.1380 O   0  0  0  0  0  0  0  0  0  0  0  0
   58.2030   29.8960   46.0050 C   0  0  0  0  0  0  0  0  0  0  0  0
   58.1080   28.5600   46.4410 C   0  0  0  0  0  0  0  0  0  0  0  0
   57.7220   27.5400   45.5590 C   0  0  0  0  0  0  0  0  0  0  0  0
   57.6390   26.1750   46.0100 N   0  0  0  0  0  0  0  0  0  0  0  0
   58.8360   25.3370   46.1270 C   0  0  0  0  0  0  0  0  0  0  0  0
   58.6760   24.0600   45.2820 C   0  0  0  0  0  0  0  0  0  0  0  0
   57.2800   23.5480   45.2220 N   0  0  0  0  0  0  0  0  0  0  0  0
   56.6730   23.7710   43.8980 C   0  0  0  0  0  0  0  0  0  0  0  0
   56.4160   24.0460   46.3150 C   0  0  0  0  0  0  0  0  0  0  0  0
   56.3340   25.5840   46.3260 C   0  0  0  0  0  0  0  0  0  0  0  0
   57.3970   27.8680   44.2350 C   0  0  0  0  0  0  0  0  0  0  0  0
   57.4820   29.1890   43.7940 C   0  0  0  0  0  0  0  0  0  0  0  0
   57.8930   30.2100   44.6680 C   0  0  0  0  0  0  0  0  0  0  0  0
   58.0130   31.6030   44.1920 C   0  0  0  0  0  0  0  0  0  0  0  0
   57.6740   31.8950   43.0120 O   0  0  0  0  0  0  0  0  0  0  0  0
   63.1655   32.7666   48.5294 H   0  0  0  0  0  0  0  0  0  0  0  0
   63.5751   31.8172   47.0606 H   0  0  0  0  0  0  0  0  0  0  0  0
   62.1398   32.8971   47.0606 H   0  0  0  0  0  0  0  0  0  0  0  0
   60.9184   31.0834   47.6434 H   0  0  0  0  0  0  0  0  0  0  0  0
   62.4294   30.1242   47.9867 H   0  0  0  0  0  0  0  0  0  0  0  0
   60.6690   31.5780   49.7220 H   0  0  0  0  0  0  0  0  0  0  0  0
   62.4489   29.4064   50.5191 H   0  0  0  0  0  0  0  0  0  0  0  0
   60.8539   30.0088   51.2181 H   0  0  0  0  0  0  0  0  0  0  0  0
   60.1598   28.0738   50.2178 H   0  0  0  0  0  0  0  0  0  0  0  0
   59.9173   29.2551   48.8865 H   0  0  0  0  0  0  0  0  0  0  0  0
   61.3605   28.1857   48.8865 H   0  0  0  0  0  0  0  0  0  0  0  0
   63.0925   31.4682   51.0954 H   0  0  0  0  0  0  0  0  0  0  0  0
   63.1337   32.5404   49.5898 H   0  0  0  0  0  0  0  0  0  0  0  0
   62.4104   33.4305   52.0444 H   0  0  0  0  0  0  0  0  0  0  0  0
   61.8180   34.1058   50.4817 H   0  0  0  0  0  0  0  0  0  0  0  0
   58.5837   33.4691   51.0983 H   0  0  0  0  0  0  0  0  0  0  0  0
   59.7216   34.7443   51.6875 H   0  0  0  0  0  0  0  0  0  0  0  0
   59.2428   35.1165   49.3203 H   0  0  0  0  0  0  0  0  0  0  0  0
   60.9594   34.5794   49.5266 H   0  0  0  0  0  0  0  0  0  0  0  0
   59.4790   32.2250   49.0590 H   0  0  0  0  0  0  0  0  0  0  0  0
   60.0172   35.4678   47.3604 H   0  0  0  0  0  0  0  0  0  0  0  0
   59.4466   35.9564   44.9958 H   0  0  0  0  0  0  0  0  0  0  0  0
   58.4977   34.1793   43.5432 H   0  0  0  0  0  0  0  0  0  0  0  0
   58.3397   28.3132   47.4876 H   0  0  0  0  0  0  0  0  0  0  0  0
   59.7106   25.9011   45.7709 H   0  0  0  0  0  0  0  0  0  0  0  0
   58.9748   25.0547   47.1811 H   0  0  0  0  0  0  0  0  0  0  0  0
   59.0090   24.2791   44.2568 H   0  0  0  0  0  0  0  0  0  0  0  0
   59.2821   23.2794   45.7650 H   0  0  0  0  0  0  0  0  0  0  0  0
   55.6472   24.1478   44.0237 H   0  0  0  0  0  0  0  0  0  0  0  0
   57.2690   24.5089   43.3410 H   0  0  0  0  0  0  0  0  0  0  0  0
   56.6496   22.8228   43.3410 H   0  0  0  0  0  0  0  0  0  0  0  0
   55.4036   23.6367   46.1827 H   0  0  0  0  0  0  0  0  0  0  0  0
   56.8531   23.7208   47.2706 H   0  0  0  0  0  0  0  0  0  0  0  0
   55.5982   25.9118   45.5769 H   0  0  0  0  0  0  0  0  0  0  0  0
   56.0297   25.9148   47.3300 H   0  0  0  0  0  0  0  0  0  0  0  0
   57.0732   27.0793   43.5400 H   0  0  0  0  0  0  0  0  0  0  0  0
   57.2250   29.4336   42.7528 H   0  0  0  0  0  0  0  0  0  0  0  0
  1  2  1  0
  2  3  1  0
  3  4  1  0
  4  5  1  0
  3  6  1  0
  6  7  1  0
  7  8  1  0
  8  9  1  0
  9 10  1  0
 10 11  1  0
 11 12  1  0
 12 13  2  0
 13 14  1  0
 14 15  2  0
 15 16  1  0
 16 17  2  0
 17 18  1  0
 18 19  2  0
 18 20  1  0
 20 21  2  0
 21 22  1  0
 22 23  1  0
 23 24  1  0
 24 25  1  0
 25 26  1  0
 26 27  1  0
 26 28  1  0
 28 29  1  0
 22 30  2  0
 30 31  1  0
 31 32  2  0
 32 33  1  0
 33 34  2  0
 17 12  1  0
 32 20  1  0
 33 16  1  0
 29 23  1  0
  1 35  1  0
  1 36  1  0
  1 37  1  0
  2 38  1  0
  2 39  1  0
  3 40  1  0
  4 41  1  0
  4 42  1  0
  5 43  1  0
  5 44  1  0
  5 45  1  0
  6 46  1  0
  6 47  1  0
  7 48  1  0
  7 49  1  0
  9 50  1  0
  9 51  1  0
 10 52  1  0
 10 53  1  0
 11 54  1  0
 13 55  1  0
 14 56  1  0
 15 57  1  0
 21 58  1  0
 24 59  1  0
 24 60  1  0
 25 61  1  0
 25 62  1  0
 27 63  1  0
 27 64  1  0
 27 65  1  0
 28 66  1  0
 28 67  1  0
 29 68  1  0
 29 69  1  0
 30 70  1  0
 31 71  1  0
M  CHG  1   3   1
M  END
>  <UniqueID>  (17) 
15

>  <SMILES>  (17) 
CC[NH+](CC)CCOCCNc1cccc2c1C(=O)c1cc(N3CCN(C)CC3)ccc1C2=O

>  <Energy>  (17) 
100.9533288797299

>  <Genealogy>  (17) 
CC[NH+](CC)CCOCCNc1cccc2c1C(=O)c1cc(N3CCN(C)CC3)ccc1C2=O (protonated)
CC[NH+](CC)CCOCCNc1cccc2c1C(=O)c1cc(N3CCN(C)CC3)ccc1C2=O (3D coordinates assigned)
CC[NH+](CC)CCOCCNc1cccc2c1C(=O)c1cc(N3CCN(C)CC3)ccc1C2=O (nonaromatic ring conformer: 100.9533288797299 kcal/mol)

>  <smiles>  (17) 
CCN(CC)CCOCCNc1cccc2c1C(=O)c1cc(N3CCN(C)CC3)ccc1C2=O

>  <score_type>  (17) 
oracle

>  <origin>  (17) 
adg

>  <m_score__min__energy>  (17) 
-7.1900000000000004

>  <m_primary>  (17) 
energy

$$$$
17:0
     RDKit          3D

 40 42  0  0  0  0  0  0  0  0999 V2000
   57.5660   23.1730   45.8370 C   0  0  0  0  0  0  0  0  0  0  0  0
   57.4660   24.2190   46.9190 C   0  0  0  0  0  0  0  0  0  0  0  0
   57.7610   25.5460   46.4370 N   0  0  0  0  0  0  0  0  0  0  0  0
   56.7290   26.3640   46.1040 C   0  0  0  0  0  0  0  0  0  0  0  0
   55.5490   25.9810   46.2120 O   0  0  0  0  0  0  0  0  0  0  0  0
   57.0160   27.6310   45.6430 C   0  0  0  0  0  0  0  0  0  0  0  0
   56.1950   28.6240   45.2520 N   0  0  0  0  0  0  0  0  0  0  0  0
   56.9440   29.6810   44.8820 C   0  0  0  0  0  0  0  0  0  0  0  0
   56.3430   30.9500   44.3950 C   0  0  0  0  0  0  0  0  0  0  0  0
   57.4210   31.8210   43.8150 C   0  0  0  0  0  0  0  0  0  0  0  0
   57.9590   32.7960   44.7940 C   0  0  0  0  0  0  0  0  0  0  0  0
   57.5730   32.6490   46.1300 C   0  0  0  0  0  0  0  0  0  0  0  0
   58.0450   33.5310   47.0940 C   0  0  0  0  0  0  0  0  0  0  0  0
   58.8990   34.5510   46.7120 C   0  0  0  0  0  0  0  0  0  0  0  0
   59.2920   34.7060   45.3820 C   0  0  0  0  0  0  0  0  0  0  0  0
   58.8090   33.8230   44.4650 C   0  0  0  0  0  0  0  0  0  0  0  0
   58.2630   29.3760   45.0330 N   0  0  0  0  0  0  0  0  0  0  0  0
   58.3020   28.1130   45.5020 C   0  0  0  0  0  0  0  0  0  0  0  0
   59.2940   27.2530   45.8490 N   0  0  0  0  0  0  0  0  0  0  0  0
   60.6840   27.6740   45.7320 C   0  0  0  0  0  0  0  0  0  0  0  0
   59.0170   26.0170   46.2980 C   0  0  0  0  0  0  0  0  0  0  0  0
   59.9530   25.2480   46.6090 O   0  0  0  0  0  0  0  0  0  0  0  0
   57.6611   22.1781   46.2965 H   0  0  0  0  0  0  0  0  0  0  0  0
   56.6608   23.2035   45.2127 H   0  0  0  0  0  0  0  0  0  0  0  0
   58.4490   23.3745   45.2127 H   0  0  0  0  0  0  0  0  0  0  0  0
   56.4432   24.2105   47.3237 H   0  0  0  0  0  0  0  0  0  0  0  0
   58.2099   23.9720   47.6908 H   0  0  0  0  0  0  0  0  0  0  0  0
   55.1500   28.5680   45.2430 H   0  0  0  0  0  0  0  0  0  0  0  0
   55.5939   30.7281   43.6207 H   0  0  0  0  0  0  0  0  0  0  0  0
   55.8585   31.4729   45.2327 H   0  0  0  0  0  0  0  0  0  0  0  0
   58.2444   31.1786   43.4697 H   0  0  0  0  0  0  0  0  0  0  0  0
   56.9760   32.3930   42.9875 H   0  0  0  0  0  0  0  0  0  0  0  0
   56.8940   31.8330   46.4183 H   0  0  0  0  0  0  0  0  0  0  0  0
   57.7442   33.4202   48.1463 H   0  0  0  0  0  0  0  0  0  0  0  0
   59.2750   35.2527   47.4711 H   0  0  0  0  0  0  0  0  0  0  0  0
   59.9719   35.5175   45.0833 H   0  0  0  0  0  0  0  0  0  0  0  0
   59.1132   33.9374   43.4141 H   0  0  0  0  0  0  0  0  0  0  0  0
   61.1135   27.8041   46.7363 H   0  0  0  0  0  0  0  0  0  0  0  0
   61.2543   26.9083   45.1857 H   0  0  0  0  0  0  0  0  0  0  0  0
   60.7336   28.6275   45.1857 H   0  0  0  0  0  0  0  0  0  0  0  0
  1  2  1  0
  2  3  1  0
  3  4  1  0
  4  5  2  0
  4  6  1  0
  6  7  1  0
  7  8  1  0
  8  9  1  0
  9 10  1  0
 10 11  1  0
 11 12  2  0
 12 13  1  0
 13 14  2  0
 14 15  1  0
 15 16  2  0
  8 17  2  0
 17 18  1  0
 18 19  1  0
 19 20  1  0
 19 21  1  0
 21 22  2  0
 21  3  1  0
 18  6  2  0
 16 11  1  0
  1 23  1  0
  1 24  1  0
  1 25  1  0
  2 26  1  0
  2 27  1  0
  7 28  1  0
  9 29  1  0
  9 30  1  0
 10 31  1  0
 10 32  1  0
 12 33  1  0
 13 34  1  0
 14 35  1  0
 15 36  1  0
 16 37  1  0
 20 38  1  0
 20 39  1  0
 20 40  1  0
M  END
>  <smiles>  (18) 
CCn1c(=O)c2[nH]c(CCc3ccccc3)nc2n(C)c1=O

>  <score_type>  (18) 
oracle

>  <origin>  (18) 
adg

>  <m_score__min__energy>  (18) 
-7.7800000000000002

>  <m_primary>  (18) 
energy

$$$$
18:0
     RDKit          3D

 42 43  0  0  0  0  0  0  0  0999 V2000
   63.0140   33.8900   49.5150 C   0  0  0  0  0  0  0  0  0  0  0  0
   63.8150   33.4620   48.5360 C   0  0  0  0  0  0  0  0  0  0  0  0
   63.3210   33.3090   47.1230 C   0  0  0  0  0  0  0  0  0  0  0  0
   62.0460   32.5630   47.0860 N   0  0  0  0  0  0  0  0  0  0  0  0
   62.0980   31.2250   47.3560 C   0  0  0  0  0  0  0  0  0  0  0  0
   60.9550   30.4410   47.3440 C   0  0  0  0  0  0  0  0  0  0  0  0
   59.7070   30.9990   47.0480 C   0  0  0  0  0  0  0  0  0  0  0  0
   58.5500   30.1210   47.0490 N   0  0  0  0  0  0  0  0  0  0  0  0
   58.7350   28.9630   46.1550 C   0  0  0  0  0  0  0  0  0  0  0  0
   57.6900   28.9320   45.0130 C   0  0  0  0  0  0  0  0  0  0  0  0
   56.9100   30.1820   44.8660 N   0  0  0  0  0  0  0  0  0  0  0  0
   57.5720   31.1760   44.0070 C   0  0  0  0  0  0  0  0  0  0  0  0
   55.5210   29.9500   44.4400 C   0  0  0  0  0  0  0  0  0  0  0  0
   59.6370   32.3870   46.7440 C   0  0  0  0  0  0  0  0  0  0  0  0
   58.4200   33.0260   46.4100 C   0  0  0  0  0  0  0  0  0  0  0  0
   58.3830   34.3860   46.1110 C   0  0  0  0  0  0  0  0  0  0  0  0
   59.5470   35.1400   46.1340 C   0  0  0  0  0  0  0  0  0  0  0  0
   60.7630   34.5420   46.4560 C   0  0  0  0  0  0  0  0  0  0  0  0
   60.8400   33.1630   46.7700 C   0  0  0  0  0  0  0  0  0  0  0  0
   63.4030   33.9921   50.5388 H   0  0  0  0  0  0  0  0  0  0  0  0
   61.9652   34.1404   49.2976 H   0  0  0  0  0  0  0  0  0  0  0  0
   64.8615   33.2153   48.7682 H   0  0  0  0  0  0  0  0  0  0  0  0
   63.1670   34.3065   46.6857 H   0  0  0  0  0  0  0  0  0  0  0  0
   64.0723   32.7480   46.5478 H   0  0  0  0  0  0  0  0  0  0  0  0
   63.0675   30.7599   47.5879 H   0  0  0  0  0  0  0  0  0  0  0  0
   61.0303   29.3671   47.5700 H   0  0  0  0  0  0  0  0  0  0  0  0
   57.6560   30.6130   46.8430 H   0  0  0  0  0  0  0  0  0  0  0  0
   58.4250   29.7500   48.0210 H   0  0  0  0  0  0  0  0  0  0  0  0
   59.7410   29.0140   45.7131 H   0  0  0  0  0  0  0  0  0  0  0  0
   58.6065   28.0499   46.7547 H   0  0  0  0  0  0  0  0  0  0  0  0
   58.2189   28.7429   44.0672 H   0  0  0  0  0  0  0  0  0  0  0  0
   56.9702   28.1398   45.2665 H   0  0  0  0  0  0  0  0  0  0  0  0
   58.0727   31.9278   44.6348 H   0  0  0  0  0  0  0  0  0  0  0  0
   58.3167   30.6739   43.3719 H   0  0  0  0  0  0  0  0  0  0  0  0
   56.8216   31.6696   43.3719 H   0  0  0  0  0  0  0  0  0  0  0  0
   54.8787   29.8427   45.3265 H   0  0  0  0  0  0  0  0  0  0  0  0
   55.1750   30.8028   43.8375 H   0  0  0  0  0  0  0  0  0  0  0  0
   55.4709   29.0310   43.8375 H   0  0  0  0  0  0  0  0  0  0  0  0
   57.4892   32.4403   46.3860 H   0  0  0  0  0  0  0  0  0  0  0  0
   57.4260   34.8644   45.8554 H   0  0  0  0  0  0  0  0  0  0  0  0
   59.5096   36.2136   45.8972 H   0  0  0  0  0  0  0  0  0  0  0  0
   61.6790   35.1510   46.4666 H   0  0  0  0  0  0  0  0  0  0  0  0
  1  2  2  0
  2  3  1  0
  3  4  1  0
  4  5  2  0
  5  6  1  0
  6  7  2  0
  7  8  1  0
  8  9  1  0
  9 10  1  0
 10 11  1  0
 11 12  1  0
 11 13  1  0
  7 14  1  0
 14 15  2  0
 15 16  1  0
 16 17  2  0
 17 18  1  0
 18 19  2  0
 19  4  1  0
 19 14  1  0
  1 20  1  0
  1 21  1  0
  2 22  1  0
  3 23  1  0
  3 24  1  0
  5 25  1  0
  6 26  1  0
  8 27  1  0
  8 28  1  0
  9 29  1  0
  9 30  1  0
 10 31  1  0
 10 32  1  0
 12 33  1  0
 12 34  1  0
 12 35  1  0
 13 36  1  0
 13 37  1  0
 13 38  1  0
 15 39  1  0
 16 40  1  0
 17 41  1  0
 18 42  1  0
M  CHG  2   4   1   8   1
M  END
>  <UniqueID>  (19) 
16

>  <SMILES>  (19) 
C=CC[n+]1ccc([NH2+]CCN(C)C)c2ccccc21

>  <Energy>  (19) 
53.9403876622219

>  <Genealogy>  (19) 
C=CC[n+]1ccc([NH2+]CCN(C)C)c2ccccc21 (protonated)
C=CC[n+]1ccc([NH2+]CCN(C)C)c2ccccc21 (3D coordinates assigned)
C=CC[n+]1ccc([NH2+]CCN(C)C)c2ccccc21 (optimized conformer: 53.9403876622219 kcal/mol)

>  <smiles>  (19) 
C=CC[n+]1ccc(NCCN(C)C)c2ccccc21

>  <score_type>  (19) 
oracle

>  <origin>  (19) 
adg

>  <m_score__min__energy>  (19) 
-3.0299999999999998

>  <m_primary>  (19) 
energy

$$$$
19:0
     RDKit          3D

 59 62  0  0  0  0  0  0  0  0999 V2000
   66.0310   32.7520   50.1240 C   0  0  0  0  0  0  0  0  0  0  0  0
   64.6580   32.1870   49.7110 C   0  0  0  0  0  0  0  0  0  0  0  0
   63.5710   33.1960   49.5370 N   0  0  0  0  0  0  0  0  0  0  0  0
   63.6000   33.8520   48.2010 C   0  0  0  0  0  0  0  0  0  0  0  0
   63.7680   32.9020   47.0100 C   0  0  0  0  0  0  0  0  0  0  0  0
   62.2350   32.6960   49.9570 C   0  0  0  0  0  0  0  0  0  0  0  0
   62.1550   31.1540   50.0420 C   0  0  0  0  0  0  0  0  0  0  0  0
   61.0750   30.5650   49.1150 C   0  0  0  0  0  0  0  0  0  0  0  0
   61.3090   30.9030   47.7080 N   0  0  0  0  0  0  0  0  0  0  0  0
   60.2350   31.0600   46.7650 C   0  0  0  0  0  0  0  0  0  0  0  0
   59.8030   32.3460   46.4010 C   0  0  0  0  0  0  0  0  0  0  0  0
   60.2850   33.4900   47.0720 C   0  0  0  0  0  0  0  0  0  0  0  0
   59.8430   34.7620   46.7160 C   0  0  0  0  0  0  0  0  0  0  0  0
   58.9100   34.9140   45.6970 C   0  0  0  0  0  0  0  0  0  0  0  0
   58.4350   33.8000   45.0080 C   0  0  0  0  0  0  0  0  0  0  0  0
   58.8970   32.4960   45.3180 C   0  0  0  0  0  0  0  0  0  0  0  0
   58.4990   31.3900   44.5910 N   0  0  0  0  0  0  0  0  0  0  0  0
   57.8420   31.5660   43.2780 C   0  0  0  0  0  0  0  0  0  0  0  0
   58.7440   30.1190   45.0780 C   0  0  0  0  0  0  0  0  0  0  0  0
   58.1130   28.9770   44.5270 C   0  0  0  0  0  0  0  0  0  0  0  0
   58.3920   27.6900   45.0030 C   0  0  0  0  0  0  0  0  0  0  0  0
   57.7690   26.5660   44.4350 C   0  0  0  0  0  0  0  0  0  0  0  0
   58.0490   25.2860   44.9220 C   0  0  0  0  0  0  0  0  0  0  0  0
   58.9460   25.1190   45.9790 C   0  0  0  0  0  0  0  0  0  0  0  0
   59.5670   26.2300   46.5560 C   0  0  0  0  0  0  0  0  0  0  0  0
   59.2960   27.5200   46.0710 C   0  0  0  0  0  0  0  0  0  0  0  0
   59.9000   28.6390   46.6520 C   0  0  0  0  0  0  0  0  0  0  0  0
   59.6380   29.9350   46.1670 C   0  0  0  0  0  0  0  0  0  0  0  0
   66.1006   32.7807   51.2214 H   0  0  0  0  0  0  0  0  0  0  0  0
   66.8280   32.1087   49.7227 H   0  0  0  0  0  0  0  0  0  0  0  0
   66.1444   33.7699   49.7227 H   0  0  0  0  0  0  0  0  0  0  0  0
   64.7837   31.6568   48.7554 H   0  0  0  0  0  0  0  0  0  0  0  0
   64.3374   31.5392   50.5402 H   0  0  0  0  0  0  0  0  0  0  0  0
   63.8080   33.9640   50.2110 H   0  0  0  0  0  0  0  0  0  0  0  0
   62.6542   34.3982   48.0697 H   0  0  0  0  0  0  0  0  0  0  0  0
   64.4873   34.5022   48.1998 H   0  0  0  0  0  0  0  0  0  0  0  0
   63.9485   31.8812   47.3779 H   0  0  0  0  0  0  0  0  0  0  0  0
   62.8536   32.9151   46.3987 H   0  0  0  0  0  0  0  0  0  0  0  0
   64.6224   33.2279   46.3987 H   0  0  0  0  0  0  0  0  0  0  0  0
   62.0028   33.1123   50.9483 H   0  0  0  0  0  0  0  0  0  0  0  0
   61.5130   33.0168   49.1916 H   0  0  0  0  0  0  0  0  0  0  0  0
   63.1310   30.7343   49.7570 H   0  0  0  0  0  0  0  0  0  0  0  0
   61.8865   30.8908   51.0757 H   0  0  0  0  0  0  0  0  0  0  0  0
   61.0756   29.4701   49.2212 H   0  0  0  0  0  0  0  0  0  0  0  0
   60.1062   30.9950   49.4091 H   0  0  0  0  0  0  0  0  0  0  0  0
   62.2930   30.9410   47.3580 H   0  0  0  0  0  0  0  0  0  0  0  0
   61.0175   33.3760   47.8847 H   0  0  0  0  0  0  0  0  0  0  0  0
   60.2324   35.6465   47.2414 H   0  0  0  0  0  0  0  0  0  0  0  0
   58.5452   35.9177   45.4335 H   0  0  0  0  0  0  0  0  0  0  0  0
   57.6894   33.9345   44.2105 H   0  0  0  0  0  0  0  0  0  0  0  0
   56.7896   31.8479   43.4295 H   0  0  0  0  0  0  0  0  0  0  0  0
   58.3562   32.3581   42.7139 H   0  0  0  0  0  0  0  0  0  0  0  0
   57.8914   30.6229   42.7139 H   0  0  0  0  0  0  0  0  0  0  0  0
   57.3891   29.1036   43.7085 H   0  0  0  0  0  0  0  0  0  0  0  0
   57.0589   26.6937   43.6047 H   0  0  0  0  0  0  0  0  0  0  0  0
   57.5618   24.4086   44.4717 H   0  0  0  0  0  0  0  0  0  0  0  0
   59.1645   24.1100   46.3586 H   0  0  0  0  0  0  0  0  0  0  0  0
   60.2694   26.0940   47.3916 H   0  0  0  0  0  0  0  0  0  0  0  0
   60.5889   28.5054   47.4991 H   0  0  0  0  0  0  0  0  0  0  0  0
  1  2  1  0
  2  3  1  0
  3  4  1  0
  4  5  1  0
  3  6  1  0
  6  7  1  0
  7  8  1  0
  8  9  1  0
  9 10  1  0
 10 11  2  0
 11 12  1  0
 12 13  2  0
 13 14  1  0
 14 15  2  0
 15 16  1  0
 16 17  2  0
 17 18  1  0
 17 19  1  0
 19 20  2  0
 20 21  1  0
 21 22  2  0
 22 23  1  0
 23 24  2  0
 24 25  1  0
 25 26  2  0
 26 27  1  0
 27 28  2  0
 28 10  1  0
 16 11  1  0
 28 19  1  0
 26 21  1  0
  1 29  1  0
  1 30  1  0
  1 31  1  0
  2 32  1  0
  2 33  1  0
  3 34  1  0
  4 35  1  0
  4 36  1  0
  5 37  1  0
  5 38  1  0
  5 39  1  0
  6 40  1  0
  6 41  1  0
  7 42  1  0
  7 43  1  0
  8 44  1  0
  8 45  1  0
  9 46  1  0
 12 47  1  0
 13 48  1  0
 14 49  1  0
 15 50  1  0
 18 51  1  0
 18 52  1  0
 18 53  1  0
 20 54  1  0
 22 55  1  0
 23 56  1  0
 24 57  1  0
 25 58  1  0
 27 59  1  0
M  CHG  2   3   1  17   1
M  END
>  <UniqueID>  (20) 
17

>  <SMILES>  (20) 
CC[NH+](CC)CCCNc1c2ccccc2[n+](C)c2cc3ccccc3cc12

>  <Energy>  (20) 
94.1346611845645

>  <Genealogy>  (20) 
CC[NH+](CC)CCCNc1c2ccccc2[n+](C)c2cc3ccccc3cc12 (protonated)
CC[NH+](CC)CCCNc1c2ccccc2[n+](C)c2cc3ccccc3cc12 (3D coordinates assigned)
CC[NH+](CC)CCCNc1c2ccccc2[n+](C)c2cc3ccccc3cc12 (optimized conformer: 94.1346611845645 kcal/mol)

>  <smiles>  (20) 
CCN(CC)CCCNc1c2ccccc2[n+](C)c2cc3ccccc3cc12

>  <score_type>  (20) 
oracle

>  <origin>  (20) 
adg

>  <m_score__min__energy>  (20) 
-5.5800000000000001

>  <m_primary>  (20) 
energy

$$$$
20:0
     RDKit          3D

 47 48  0  0  0  0  0  0  0  0999 V2000
   64.1810   33.8080   50.9910 C   0  0  0  0  0  0  0  0  0  0  0  0
   64.9480   33.0710   49.8990 C   0  0  0  0  0  0  0  0  0  0  0  0
   64.2800   33.2040   48.6570 O   0  0  0  0  0  0  0  0  0  0  0  0
   63.7700   31.9610   48.2070 C   0  0  0  0  0  0  0  0  0  0  0  0
   62.4240   32.1340   47.4730 C   0  0  0  0  0  0  0  0  0  0  0  0
   61.7990   33.4640   47.7010 N   0  0  0  0  0  0  0  0  0  0  0  0
   61.6320   34.1930   46.4120 C   0  0  0  0  0  0  0  0  0  0  0  0
   60.2170   34.0360   45.8390 C   0  0  0  0  0  0  0  0  0  0  0  0
   59.1950   34.6080   46.7510 N   0  0  0  0  0  0  0  0  0  0  0  0
   57.8630   34.0130   46.5110 C   0  0  0  0  0  0  0  0  0  0  0  0
   57.9540   32.8590   45.5410 C   0  0  0  0  0  0  0  0  0  0  0  0
   57.7600   33.0850   44.1680 C   0  0  0  0  0  0  0  0  0  0  0  0
   57.8160   32.0220   43.2620 C   0  0  0  0  0  0  0  0  0  0  0  0
   57.5490   32.3420   41.3980 Br  0  0  0  0  0  0  0  0  0  0  0  0
   58.0640   30.7270   43.7200 C   0  0  0  0  0  0  0  0  0  0  0  0
   58.2530   30.4890   45.0820 C   0  0  0  0  0  0  0  0  0  0  0  0
   58.1960   31.5500   46.0080 C   0  0  0  0  0  0  0  0  0  0  0  0
   58.3720   31.3430   47.3860 O   0  0  0  0  0  0  0  0  0  0  0  0
   59.0780   30.2440   47.9540 C   0  0  0  0  0  0  0  0  0  0  0  0
   59.5790   34.5240   48.1830 C   0  0  0  0  0  0  0  0  0  0  0  0
   60.5240   33.3430   48.4590 C   0  0  0  0  0  0  0  0  0  0  0  0
   64.5322   33.4705   51.9773 H   0  0  0  0  0  0  0  0  0  0  0  0
   64.3510   34.8903   50.8918 H   0  0  0  0  0  0  0  0  0  0  0  0
   63.1064   33.5950   50.8918 H   0  0  0  0  0  0  0  0  0  0  0  0
   65.9591   33.4960   49.8151 H   0  0  0  0  0  0  0  0  0  0  0  0
   65.0095   32.0044   50.1610 H   0  0  0  0  0  0  0  0  0  0  0  0
   64.4965   31.5048   47.5184 H   0  0  0  0  0  0  0  0  0  0  0  0
   63.6045   31.3181   49.0841 H   0  0  0  0  0  0  0  0  0  0  0  0
   62.5957   32.0088   46.3937 H   0  0  0  0  0  0  0  0  0  0  0  0
   61.7342   31.3759   47.8723 H   0  0  0  0  0  0  0  0  0  0  0  0
   62.4650   34.0290   48.2820 H   0  0  0  0  0  0  0  0  0  0  0  0
   61.8297   35.2618   46.5808 H   0  0  0  0  0  0  0  0  0  0  0  0
   62.3403   33.7657   45.6870 H   0  0  0  0  0  0  0  0  0  0  0  0
   60.1635   34.5558   44.8710 H   0  0  0  0  0  0  0  0  0  0  0  0
   60.0103   32.9623   45.7185 H   0  0  0  0  0  0  0  0  0  0  0  0
   57.4538   33.6497   47.4652 H   0  0  0  0  0  0  0  0  0  0  0  0
   57.2070   34.7834   46.0795 H   0  0  0  0  0  0  0  0  0  0  0  0
   57.5629   34.1041   43.8039 H   0  0  0  0  0  0  0  0  0  0  0  0
   58.1106   29.8919   43.0055 H   0  0  0  0  0  0  0  0  0  0  0  0
   58.4479   29.4657   45.4355 H   0  0  0  0  0  0  0  0  0  0  0  0
   59.0362   30.3090   49.0513 H   0  0  0  0  0  0  0  0  0  0  0  0
   58.6158   29.3017   47.6247 H   0  0  0  0  0  0  0  0  0  0  0  0
   60.1272   30.2726   47.6247 H   0  0  0  0  0  0  0  0  0  0  0  0
   60.0846   35.4577   48.4702 H   0  0  0  0  0  0  0  0  0  0  0  0
   58.6625   34.3697   48.7714 H   0  0  0  0  0  0  0  0  0  0  0  0
   60.7513   33.3132   49.5349 H   0  0  0  0  0  0  0  0  0  0  0  0
   60.0206   32.4204   48.1345 H   0  0  0  0  0  0  0  0  0  0  0  0
  1  2  1  0
  2  3  1  0
  3  4  1  0
  4  5  1  0
  5  6  1  0
  6  7  1  0
  7  8  1  0
  8  9  1  0
  9 10  1  0
 10 11  1  0
 11 12  2  0
 12 13  1  0
 13 14  1  0
 13 15  2  0
 15 16  1  0
 16 17  2  0
 17 18  1  0
 18 19  1  0
  9 20  1  0
 20 21  1  0
 21  6  1  0
 17 11  1  0
  1 22  1  0
  1 23  1  0
  1 24  1  0
  2 25  1  0
  2 26  1  0
  4 27  1  0
  4 28  1  0
  5 29  1  0
  5 30  1  0
  6 31  1  0
  7 32  1  0
  7 33  1  0
  8 34  1  0
  8 35  1  0
 10 36  1  0
 10 37  1  0
 12 38  1  0
 15 39  1  0
 16 40  1  0
 19 41  1  0
 19 42  1  0
 19 43  1  0
 20 44  1  0
 20 45  1  0
 21 46  1  0
 21 47  1  0
M  CHG  1   6   1
M  END
>  <UniqueID>  (21) 
18

>  <SMILES>  (21) 
CCOCC[NH+]1CCN(Cc2cc(Br)ccc2OC)CC1

>  <Energy>  (21) 
59.434151468995225

>  <Genealogy>  (21) 
CCOCC[NH+]1CCN(Cc2cc(Br)ccc2OC)CC1 (protonated)
CCOCC[NH+]1CCN(Cc2cc(Br)ccc2OC)CC1 (3D coordinates assigned)
CCOCC[NH+]1CCN(Cc2cc(Br)ccc2OC)CC1 (nonaromatic ring conformer: 59.434151468995225 kcal/mol)

>  <smiles>  (21) 
CCOCCN1CCN(Cc2cc(Br)ccc2OC)CC1

>  <score_type>  (21) 
oracle

>  <origin>  (21) 
adg

>  <m_score__min__energy>  (21) 
-4.8899999999999997

>  <m_primary>  (21) 
energy

$$$$
21:0
     RDKit          3D

 66 67  0  0  0  0  0  0  0  0999 V2000
   58.9610   35.0060   47.1240 C   0  0  0  0  0  0  0  0  0  0  0  0
   58.4040   33.6230   46.7860 C   0  0  0  0  0  0  0  0  0  0  0  0
   59.0480   33.0200   45.5150 C   0  0  2  0  0  0  0  0  0  0  0  0
   59.2320   34.0600   44.4000 C   0  0  0  0  0  0  0  0  0  0  0  0
   58.2830   31.7860   45.0340 C   0  0  0  0  0  0  0  0  0  0  0  0
   57.3630   31.9460   43.9840 C   0  0  0  0  0  0  0  0  0  0  0  0
   56.7230   30.8480   43.4230 C   0  0  0  0  0  0  0  0  0  0  0  0
   57.0280   29.5630   43.8590 C   0  0  0  0  0  0  0  0  0  0  0  0
   57.9490   29.3480   44.9020 C   0  0  0  0  0  0  0  0  0  0  0  0
   58.3220   27.8920   45.1890 C   0  0  0  0  0  0  0  0  0  0  0  0
   57.6260   27.2580   46.4050 C   0  0  0  0  0  0  0  0  0  0  0  0
   58.1960   27.0090   43.9410 C   0  0  0  0  0  0  0  0  0  0  0  0
   58.5070   30.4840   45.5600 C   0  0  0  0  0  0  0  0  0  0  0  0
   59.2890   30.3420   46.7070 O   0  0  0  0  0  0  0  0  0  0  0  0
   60.6940   30.1040   46.6400 C   0  0  0  0  0  0  0  0  0  0  0  0
   61.2670   30.0660   48.0560 C   0  0  0  0  0  0  0  0  0  0  0  0
   60.2330   30.4300   49.1400 C   0  0  0  0  0  0  0  0  0  0  0  0
   59.4300   31.6360   48.8500 N   0  0  0  0  0  0  0  0  0  0  0  0
   59.4220   32.6620   49.9120 C   0  0  0  0  0  0  0  0  0  0  0  0
   60.5200   33.7240   49.7310 C   0  0  0  0  0  0  0  0  0  0  0  0
   61.6290   33.1740   48.9210 N   0  0  0  0  0  0  0  0  0  0  0  0
   61.7940   33.9180   47.6560 C   0  0  0  0  0  0  0  0  0  0  0  0
   62.8430   33.2260   46.7630 C   0  0  0  0  0  0  0  0  0  0  0  0
   63.6740   32.2800   47.5240 N   0  0  0  0  0  0  0  0  0  0  0  0
   64.1100   32.8770   48.7910 C   0  0  0  0  0  0  0  0  0  0  0  0
   62.8950   33.1940   49.6880 C   0  0  0  0  0  0  0  0  0  0  0  0
   59.0089   35.1250   48.2165 H   0  0  0  0  0  0  0  0  0  0  0  0
   59.9705   35.1085   46.6994 H   0  0  0  0  0  0  0  0  0  0  0  0
   58.3043   35.7796   46.6994 H   0  0  0  0  0  0  0  0  0  0  0  0
   58.5965   32.9483   47.6332 H   0  0  0  0  0  0  0  0  0  0  0  0
   57.3265   33.7340   46.5946 H   0  0  0  0  0  0  0  0  0  0  0  0
   60.0597   32.6897   45.7931 H   0  0  0  0  0  0  0  0  0  0  0  0
   59.4071   35.0497   44.8470 H   0  0  0  0  0  0  0  0  0  0  0  0
   60.0948   33.7811   43.7772 H   0  0  0  0  0  0  0  0  0  0  0  0
   58.3259   34.0941   43.7772 H   0  0  0  0  0  0  0  0  0  0  0  0
   57.1466   32.9542   43.6011 H   0  0  0  0  0  0  0  0  0  0  0  0
   55.9730   30.9953   42.6319 H   0  0  0  0  0  0  0  0  0  0  0  0
   56.5414   28.7001   43.3809 H   0  0  0  0  0  0  0  0  0  0  0  0
   59.3828   27.9416   45.4757 H   0  0  0  0  0  0  0  0  0  0  0  0
   58.0663   27.6591   47.3298 H   0  0  0  0  0  0  0  0  0  0  0  0
   56.5521   27.4947   46.3775 H   0  0  0  0  0  0  0  0  0  0  0  0
   57.7618   26.1668   46.3775 H   0  0  0  0  0  0  0  0  0  0  0  0
   58.0467   25.9626   44.2457 H   0  0  0  0  0  0  0  0  0  0  0  0
   57.3363   27.3425   43.3412 H   0  0  0  0  0  0  0  0  0  0  0  0
   59.1146   27.0887   43.3412 H   0  0  0  0  0  0  0  0  0  0  0  0
   60.8804   29.1410   46.1421 H   0  0  0  0  0  0  0  0  0  0  0  0
   61.1777   30.9095   46.0679 H   0  0  0  0  0  0  0  0  0  0  0  0
   61.6394   29.0503   48.2552 H   0  0  0  0  0  0  0  0  0  0  0  0
   62.0690   30.8173   48.1041 H   0  0  0  0  0  0  0  0  0  0  0  0
   59.5444   29.5800   49.2554 H   0  0  0  0  0  0  0  0  0  0  0  0
   60.8058   30.6513   50.0526 H   0  0  0  0  0  0  0  0  0  0  0  0
   58.4430   31.3530   48.6510 H   0  0  0  0  0  0  0  0  0  0  0  0
   59.7980   32.0700   47.9710 H   0  0  0  0  0  0  0  0  0  0  0  0
   58.4437   33.1649   49.9060 H   0  0  0  0  0  0  0  0  0  0  0  0
   59.6147   32.1492   50.8659 H   0  0  0  0  0  0  0  0  0  0  0  0
   60.0969   34.6017   49.2206 H   0  0  0  0  0  0  0  0  0  0  0  0
   60.9055   34.0160   50.7190 H   0  0  0  0  0  0  0  0  0  0  0  0
   60.8308   33.9510   47.1258 H   0  0  0  0  0  0  0  0  0  0  0  0
   62.1338   34.9394   47.8825 H   0  0  0  0  0  0  0  0  0  0  0  0
   62.3232   32.6786   45.9629 H   0  0  0  0  0  0  0  0  0  0  0  0
   63.5031   34.0023   46.3488 H   0  0  0  0  0  0  0  0  0  0  0  0
   64.5260   32.0650   46.9560 H   0  0  0  0  0  0  0  0  0  0  0  0
   64.7716   32.1712   49.3145 H   0  0  0  0  0  0  0  0  0  0  0  0
   64.6463   33.8131   48.5762 H   0  0  0  0  0  0  0  0  0  0  0  0
   62.8381   32.4431   50.4898 H   0  0  0  0  0  0  0  0  0  0  0  0
   63.0289   34.2039   50.1030 H   0  0  0  0  0  0  0  0  0  0  0  0
  1  2  1  0
  2  3  1  0
  3  4  1  0
  3  5  1  0
  5  6  2  0
  6  7  1  0
  7  8  2  0
  8  9  1  0
  9 10  1  0
 10 11  1  0
 10 12  1  0
  9 13  2  0
 13 14  1  0
 14 15  1  0
 15 16  1  0
 16 17  1  0
 17 18  1  0
 18 19  1  0
 19 20  1  0
 20 21  1  0
 21 22  1  0
 22 23  1  0
 23 24  1  0
 24 25  1  0
 25 26  1  0
 13  5  1  0
 26 21  1  0
  1 27  1  0
  1 28  1  0
  1 29  1  0
  2 30  1  0
  2 31  1  0
  3 32  1  1
  4 33  1  0
  4 34  1  0
  4 35  1  0
  6 36  1  0
  7 37  1  0
  8 38  1  0
 10 39  1  0
 11 40  1  0
 11 41  1  0
 11 42  1  0
 12 43  1  0
 12 44  1  0
 12 45  1  0
 15 46  1  0
 15 47  1  0
 16 48  1  0
 16 49  1  0
 17 50  1  0
 17 51  1  0
 18 52  1  0
 18 53  1  0
 19 54  1  0
 19 55  1  0
 20 56  1  0
 20 57  1  0
 22 58  1  0
 22 59  1  0
 23 60  1  0
 23 61  1  0
 24 62  1  0
 25 63  1  0
 25 64  1  0
 26 65  1  0
 26 66  1  0
M  CHG  1  18   1
M  END
>  <UniqueID>  (22) 
19

>  <SMILES>  (22) 
CC[C@H](C)c1cccc(C(C)C)c1OCCC[NH2+]CCN1CCNCC1

>  <Energy>  (22) 
74.8530565344203

>  <Genealogy>  (22) 
CCC(C)c1cccc(C(C)C)c1OCCC[NH2+]CCN1CCNCC1 (protonated)
CC[C@H](C)c1cccc(C(C)C)c1OCCC[NH2+]CCN1CCNCC1 (chirality)
CC[C@H](C)c1cccc(C(C)C)c1OCCC[NH2+]CCN1CCNCC1 (3D coordinates assigned)
CC[C@H](C)c1cccc(C(C)C)c1OCCC[NH2+]CCN1CCNCC1 (nonaromatic ring conformer: 74.8530565344203 kcal/mol)

>  <smiles>  (22) 
CCC(C)c1cccc(C(C)C)c1OCCCNCCN1CCNCC1

>  <score_type>  (22) 
oracle

>  <origin>  (22) 
adg

>  <m_score__min__energy>  (22) 
-5.8399999999999999

>  <m_primary>  (22) 
energy

$$$$
22:0
     RDKit          3D

 42 44  0  0  0  0  0  0  0  0999 V2000
   56.9820   34.6100   44.8730 C   0  0  0  0  0  0  0  0  0  0  0  0
   58.4340   34.1730   45.0610 C   0  0  0  0  0  0  0  0  0  0  0  0
   58.5270   33.0190   45.9880 N   0  0  0  0  0  0  0  0  0  0  0  0
   58.0270   31.7820   45.6070 C   0  0  0  0  0  0  0  0  0  0  0  0
   57.2110   31.5420   44.3450 C   0  0  0  0  0  0  0  0  0  0  0  0
   56.2850   30.4160   44.5460 N   0  0  0  0  0  0  0  0  0  0  0  0
   56.6740   29.2110   43.7960 C   0  0  0  0  0  0  0  0  0  0  0  0
   57.5390   28.2830   44.6210 C   0  0  0  0  0  0  0  0  0  0  0  0
   58.9400   28.3310   44.5130 C   0  0  0  0  0  0  0  0  0  0  0  0
   59.7360   27.4610   45.2640 C   0  0  0  0  0  0  0  0  0  0  0  0
   59.1440   26.5390   46.1280 C   0  0  0  0  0  0  0  0  0  0  0  0
   57.7530   26.4850   46.2470 C   0  0  0  0  0  0  0  0  0  0  0  0
   56.9500   27.3530   45.4990 C   0  0  0  0  0  0  0  0  0  0  0  0
   55.6010   27.2860   45.6330 F   0  0  0  0  0  0  0  0  0  0  0  0
   58.2160   30.6640   46.4300 C   0  0  0  0  0  0  0  0  0  0  0  0
   58.8800   30.7780   47.6400 C   0  0  0  0  0  0  0  0  0  0  0  0
   59.0510   29.7460   48.3460 O   0  0  0  0  0  0  0  0  0  0  0  0
   59.3290   32.0310   48.0680 C   0  0  0  0  0  0  0  0  0  0  0  0
   59.9660   32.1720   49.3170 C   0  0  0  0  0  0  0  0  0  0  0  0
   60.3750   33.4240   49.7660 C   0  0  0  0  0  0  0  0  0  0  0  0
   60.1440   34.5510   48.9870 C   0  0  0  0  0  0  0  0  0  0  0  0
   59.5210   34.4340   47.7430 C   0  0  0  0  0  0  0  0  0  0  0  0
   59.1190   33.1680   47.2370 C   0  0  0  0  0  0  0  0  0  0  0  0
   56.5114   34.7516   45.8571 H   0  0  0  0  0  0  0  0  0  0  0  0
   56.9535   35.5565   44.3133 H   0  0  0  0  0  0  0  0  0  0  0  0
   56.4358   33.8364   44.3133 H   0  0  0  0  0  0  0  0  0  0  0  0
   58.8520   33.8849   44.0852 H   0  0  0  0  0  0  0  0  0  0  0  0
   58.9996   35.0132   45.4902 H   0  0  0  0  0  0  0  0  0  0  0  0
   56.6349   32.4483   44.1068 H   0  0  0  0  0  0  0  0  0  0  0  0
   57.8933   31.3025   43.5161 H   0  0  0  0  0  0  0  0  0  0  0  0
   55.3190   30.7110   44.2710 H   0  0  0  0  0  0  0  0  0  0  0  0
   55.7640   28.6723   43.4931 H   0  0  0  0  0  0  0  0  0  0  0  0
   57.2582   29.5303   42.9203 H   0  0  0  0  0  0  0  0  0  0  0  0
   59.4121   29.0566   43.8343 H   0  0  0  0  0  0  0  0  0  0  0  0
   60.8315   27.5034   45.1736 H   0  0  0  0  0  0  0  0  0  0  0  0
   59.7729   25.8542   46.7158 H   0  0  0  0  0  0  0  0  0  0  0  0
   57.2882   25.7587   46.9300 H   0  0  0  0  0  0  0  0  0  0  0  0
   57.8323   29.6836   46.1112 H   0  0  0  0  0  0  0  0  0  0  0  0
   60.1415   31.2844   49.9427 H   0  0  0  0  0  0  0  0  0  0  0  0
   60.8812   33.5214   50.7377 H   0  0  0  0  0  0  0  0  0  0  0  0
   60.4537   35.5412   49.3525 H   0  0  0  0  0  0  0  0  0  0  0  0
   59.3379   35.3380   47.1436 H   0  0  0  0  0  0  0  0  0  0  0  0
  1  2  1  0
  2  3  1  0
  3  4  1  0
  4  5  1  0
  5  6  1  0
  6  7  1  0
  7  8  1  0
  8  9  2  0
  9 10  1  0
 10 11  2  0
 11 12  1  0
 12 13  2  0
 13 14  1  0
  4 15  2  0
 15 16  1  0
 16 17  2  0
 16 18  1  0
 18 19  2  0
 19 20  1  0
 20 21  2  0
 21 22  1  0
 22 23  2  0
 23  3  1  0
 13  8  1  0
 23 18  1  0
  1 24  1  0
  1 25  1  0
  1 26  1  0
  2 27  1  0
  2 28  1  0
  5 29  1  0
  5 30  1  0
  6 31  1  0
  7 32  1  0
  7 33  1  0
  9 34  1  0
 10 35  1  0
 11 36  1  0
 12 37  1  0
 15 38  1  0
 19 39  1  0
 20 40  1  0
 21 41  1  0
 22 42  1  0
M  END
>  <UniqueID>  (23) 
20

>  <SMILES>  (23) 
CCn1c(CNCc2ccccc2F)cc(=O)c2ccccc21

>  <Energy>  (23) 
59.792993569454666

>  <Genealogy>  (23) 
CCn1c(CNCc2ccccc2F)cc(=O)c2ccccc21 (3D coordinates assigned)
CCn1c(CNCc2ccccc2F)cc(=O)c2ccccc21 (optimized conformer: 59.792993569454666 kcal/mol)

>  <smiles>  (23) 
CCn1c(CNCc2ccccc2F)cc(=O)c2ccccc21

>  <score_type>  (23) 
oracle

>  <origin>  (23) 
adg

>  <m_score__min__energy>  (23) 
-7.5

>  <m_primary>  (23) 
energy

$$$$
23:0
     RDKit          3D

 47 49  0  0  0  0  0  0  0  0999 V2000
   60.7500   30.7440   47.5830 C   0  0  0  0  0  0  0  0  0  0  0  0
   59.7580   29.6150   47.8600 C   0  0  0  0  0  0  0  0  0  0  0  0
   59.0670   29.1540   46.6300 N   0  0  0  0  0  0  0  0  0  0  0  0
   59.8050   29.6580   45.4470 C   0  0  0  0  0  0  0  0  0  0  0  0
   60.7210   28.5880   44.8490 C   0  0  0  0  0  0  0  0  0  0  0  0
   58.9390   27.6710   46.5950 C   0  0  0  0  0  0  0  0  0  0  0  0
   57.5140   27.2210   46.9580 C   0  0  0  0  0  0  0  0  0  0  0  0
   56.6410   26.9050   45.7350 C   0  0  0  0  0  0  0  0  0  0  0  0
   55.9360   28.0930   45.2570 N   0  0  0  0  0  0  0  0  0  0  0  0
   56.5160   29.0490   44.3620 C   0  0  0  0  0  0  0  0  0  0  0  0
   57.4290   28.7060   43.5650 O   0  0  0  0  0  0  0  0  0  0  0  0
   56.0240   30.4610   44.3580 C   0  0  0  0  0  0  0  0  0  0  0  0
   56.9880   31.3280   43.6920 N   0  0  0  0  0  0  0  0  0  0  0  0
   57.1650   31.3920   42.3680 N   0  0  0  0  0  0  0  0  0  0  0  0
   58.0880   32.3630   42.0910 C   0  0  0  0  0  0  0  0  0  0  0  0
   58.4570   32.9010   43.2980 C   0  0  0  0  0  0  0  0  0  0  0  0
   59.2370   33.8440   43.7740 O   0  0  0  0  0  0  0  0  0  0  0  0
   59.0400   33.7910   45.0910 C   0  0  0  0  0  0  0  0  0  0  0  0
   59.6290   34.5910   46.0660 C   0  0  0  0  0  0  0  0  0  0  0  0
   59.2730   34.3660   47.4100 C   0  0  0  0  0  0  0  0  0  0  0  0
   58.3470   33.3530   47.7520 C   0  0  0  0  0  0  0  0  0  0  0  0
   57.7570   32.5510   46.7590 C   0  0  0  0  0  0  0  0  0  0  0  0
   58.1230   32.8000   45.4410 C   0  0  0  0  0  0  0  0  0  0  0  0
   57.7830   32.2590   44.2340 C   0  0  0  0  0  0  0  0  0  0  0  0
   61.1121   31.1561   48.5365 H   0  0  0  0  0  0  0  0  0  0  0  0
   61.6007   30.3514   47.0066 H   0  0  0  0  0  0  0  0  0  0  0  0
   60.2513   31.5371   47.0066 H   0  0  0  0  0  0  0  0  0  0  0  0
   60.3027   28.7659   48.2984 H   0  0  0  0  0  0  0  0  0  0  0  0
   58.9931   30.0024   48.5490 H   0  0  0  0  0  0  0  0  0  0  0  0
   59.0794   29.9730   44.6826 H   0  0  0  0  0  0  0  0  0  0  0  0
   60.4317   30.5024   45.7698 H   0  0  0  0  0  0  0  0  0  0  0  0
   61.2041   28.0237   45.6603 H   0  0  0  0  0  0  0  0  0  0  0  0
   60.1264   27.9015   44.2284 H   0  0  0  0  0  0  0  0  0  0  0  0
   61.4910   29.0696   44.2284 H   0  0  0  0  0  0  0  0  0  0  0  0
   59.1795   27.3150   45.5824 H   0  0  0  0  0  0  0  0  0  0  0  0
   59.6344   27.2464   47.3340 H   0  0  0  0  0  0  0  0  0  0  0  0
   57.5824   26.3163   47.5800 H   0  0  0  0  0  0  0  0  0  0  0  0
   57.0361   28.0574   47.4891 H   0  0  0  0  0  0  0  0  0  0  0  0
   57.2824   26.5214   44.9279 H   0  0  0  0  0  0  0  0  0  0  0  0
   55.8920   26.1556   46.0307 H   0  0  0  0  0  0  0  0  0  0  0  0
   55.0629   30.5094   43.8251 H   0  0  0  0  0  0  0  0  0  0  0  0
   55.8949   30.7991   45.3968 H   0  0  0  0  0  0  0  0  0  0  0  0
   58.4604   32.6545   41.0978 H   0  0  0  0  0  0  0  0  0  0  0  0
   60.3509   35.3755   45.7949 H   0  0  0  0  0  0  0  0  0  0  0  0
   59.7199   34.9847   48.2022 H   0  0  0  0  0  0  0  0  0  0  0  0
   58.0851   33.1905   48.8079 H   0  0  0  0  0  0  0  0  0  0  0  0
   57.0364   31.7601   47.0142 H   0  0  0  0  0  0  0  0  0  0  0  0
  1  2  1  0
  2  3  1  0
  3  4  1  0
  4  5  1  0
  3  6  1  0
  6  7  1  0
  7  8  1  0
  8  9  1  0
  9 10  1  0
 10 11  2  0
 10 12  1  0
 12 13  1  0
 13 14  1  0
 14 15  2  0
 15 16  1  0
 16 17  1  0
 17 18  1  0
 18 19  2  0
 19 20  1  0
 20 21  2  0
 21 22  1  0
 22 23  2  0
 23 24  1  0
 24 13  1  0
 24 16  2  0
 23 18  1  0
  1 25  1  0
  1 26  1  0
  1 27  1  0
  2 28  1  0
  2 29  1  0
  4 30  1  0
  4 31  1  0
  5 32  1  0
  5 33  1  0
  5 34  1  0
  6 35  1  0
  6 36  1  0
  7 37  1  0
  7 38  1  0
  8 39  1  0
  8 40  1  0
 12 41  1  0
 12 42  1  0
 15 43  1  0
 19 44  1  0
 20 45  1  0
 21 46  1  0
 22 47  1  0
M  CHG  1   9  -1
M  END
>  <UniqueID>  (24) 
21

>  <SMILES>  (24) 
CCN(CC)CCC[N-]C(=O)Cn1ncc2oc3ccccc3c21

>  <Energy>  (24) 
137.5146540029795

>  <Genealogy>  (24) 
CCN(CC)CCC[N-]C(=O)Cn1ncc2oc3ccccc3c21 (protonated)
CCN(CC)CCC[N-]C(=O)Cn1ncc2oc3ccccc3c21 (3D coordinates assigned)
CCN(CC)CCC[N-]C(=O)Cn1ncc2oc3ccccc3c21 (optimized conformer: 137.5146540029795 kcal/mol)

>  <smiles>  (24) 
CCN(CC)CCCNC(=O)Cn1ncc2oc3ccccc3c21

>  <score_type>  (24) 
oracle

>  <origin>  (24) 
adg

>  <m_score__min__energy>  (24) 
-8.9100000000000001

>  <m_primary>  (24) 
energy

$$$$
24:0
     RDKit          3D

 59 62  0  0  0  0  0  0  0  0999 V2000
   63.3090   33.8290   46.4440 C   0  0  0  0  0  0  0  0  0  0  0  0
   63.4000   32.4820   47.1560 C   0  0  0  0  0  0  0  0  0  0  0  0
   62.9520   32.5880   48.6150 C   0  0  0  0  0  0  0  0  0  0  0  0
   61.4840   32.7800   48.6670 N   0  0  0  0  0  0  0  0  0  0  0  0
   61.0990   34.2120   48.7140 C   0  0  0  0  0  0  0  0  0  0  0  0
   59.6590   34.4580   49.1840 C   0  0  0  0  0  0  0  0  0  0  0  0
   60.8600   31.9430   49.7190 C   0  0  0  0  0  0  0  0  0  0  0  0
   59.8540   30.9460   49.1300 C   0  0  0  0  0  0  0  0  0  0  0  0
   60.5360   29.8790   48.2560 C   0  0  0  0  0  0  0  0  0  0  0  0
   60.6450   30.2870   46.8480 N   0  0  0  0  0  0  0  0  0  0  0  0
   59.5070   30.3890   45.9780 C   0  0  0  0  0  0  0  0  0  0  0  0
   58.9620   31.6400   45.6000 C   0  0  0  0  0  0  0  0  0  0  0  0
   59.3230   32.8190   46.2810 C   0  0  0  0  0  0  0  0  0  0  0  0
   58.7800   34.0480   45.9180 C   0  0  0  0  0  0  0  0  0  0  0  0
   57.8450   34.1240   44.8910 C   0  0  0  0  0  0  0  0  0  0  0  0
   57.4360   32.9700   44.2240 C   0  0  0  0  0  0  0  0  0  0  0  0
   57.9780   31.7030   44.5550 C   0  0  0  0  0  0  0  0  0  0  0  0
   57.5580   30.5450   43.9190 N   0  0  0  0  0  0  0  0  0  0  0  0
   56.6460   30.5850   42.7610 C   0  0  0  0  0  0  0  0  0  0  0  0
   57.9800   29.3420   44.4190 C   0  0  0  0  0  0  0  0  0  0  0  0
   57.5510   28.1170   44.0270 N   0  0  0  0  0  0  0  0  0  0  0  0
   58.2280   27.2440   44.7980 C   0  0  0  0  0  0  0  0  0  0  0  0
   58.1100   25.8560   44.7770 C   0  0  0  0  0  0  0  0  0  0  0  0
   58.8810   25.1140   45.6880 C   0  0  0  0  0  0  0  0  0  0  0  0
   59.7360   25.7680   46.5990 C   0  0  0  0  0  0  0  0  0  0  0  0
   59.8310   27.1700   46.6080 C   0  0  0  0  0  0  0  0  0  0  0  0
   59.0760   27.8900   45.6760 C   0  0  0  0  0  0  0  0  0  0  0  0
   58.9200   29.2480   45.4290 C   0  0  0  0  0  0  0  0  0  0  0  0
   63.2545   34.6353   47.1903 H   0  0  0  0  0  0  0  0  0  0  0  0
   64.1995   33.9718   45.8143 H   0  0  0  0  0  0  0  0  0  0  0  0
   62.4073   33.8507   45.8143 H   0  0  0  0  0  0  0  0  0  0  0  0
   62.7553   31.7583   46.6357 H   0  0  0  0  0  0  0  0  0  0  0  0
   64.4496   32.1533   47.1401 H   0  0  0  0  0  0  0  0  0  0  0  0
   63.2204   31.6646   49.1492 H   0  0  0  0  0  0  0  0  0  0  0  0
   63.4514   33.4447   49.0911 H   0  0  0  0  0  0  0  0  0  0  0  0
   61.7810   34.7307   49.4038 H   0  0  0  0  0  0  0  0  0  0  0  0
   61.1662   34.5927   47.6842 H   0  0  0  0  0  0  0  0  0  0  0  0
   59.6280   34.4633   50.2835 H   0  0  0  0  0  0  0  0  0  0  0  0
   59.3096   35.4288   48.8027 H   0  0  0  0  0  0  0  0  0  0  0  0
   59.0071   33.6582   48.8027 H   0  0  0  0  0  0  0  0  0  0  0  0
   61.6487   31.3848   50.2446 H   0  0  0  0  0  0  0  0  0  0  0  0
   60.3195   32.6073   50.4093 H   0  0  0  0  0  0  0  0  0  0  0  0
   59.3280   30.4442   49.9555 H   0  0  0  0  0  0  0  0  0  0  0  0
   59.1555   31.5081   48.4927 H   0  0  0  0  0  0  0  0  0  0  0  0
   61.5469   29.6953   48.6489 H   0  0  0  0  0  0  0  0  0  0  0  0
   59.9153   28.9716   48.2929 H   0  0  0  0  0  0  0  0  0  0  0  0
   61.5910   30.5030   46.4640 H   0  0  0  0  0  0  0  0  0  0  0  0
   60.0435   32.7677   47.1106 H   0  0  0  0  0  0  0  0  0  0  0  0
   59.0912   34.9621   46.4449 H   0  0  0  0  0  0  0  0  0  0  0  0
   57.4261   35.0996   44.6036 H   0  0  0  0  0  0  0  0  0  0  0  0
   56.6804   33.0441   43.4280 H   0  0  0  0  0  0  0  0  0  0  0  0
   55.6056   30.6306   43.1151 H   0  0  0  0  0  0  0  0  0  0  0  0
   56.8654   31.4744   42.1520 H   0  0  0  0  0  0  0  0  0  0  0  0
   56.7867   29.6798   42.1520 H   0  0  0  0  0  0  0  0  0  0  0  0
   56.8250   27.8700   43.3200 H   0  0  0  0  0  0  0  0  0  0  0  0
   57.4335   25.3558   44.0684 H   0  0  0  0  0  0  0  0  0  0  0  0
   58.8171   24.0159   45.6905 H   0  0  0  0  0  0  0  0  0  0  0  0
   60.3333   25.1760   47.3081 H   0  0  0  0  0  0  0  0  0  0  0  0
   60.4815   27.6874   47.3285 H   0  0  0  0  0  0  0  0  0  0  0  0
  1  2  1  0
  2  3  1  0
  3  4  1  0
  4  5  1  0
  5  6  1  0
  4  7  1  0
  7  8  1  0
  8  9  1  0
  9 10  1  0
 10 11  1  0
 11 12  2  0
 12 13  1  0
 13 14  2  0
 14 15  1  0
 15 16  2  0
 16 17  1  0
 17 18  2  0
 18 19  1  0
 18 20  1  0
 20 21  1  0
 21 22  1  0
 22 23  2  0
 23 24  1  0
 24 25  2  0
 25 26  1  0
 26 27  2  0
 27 28  1  0
 28 11  1  0
 17 12  1  0
 28 20  2  0
 27 22  1  0
  1 29  1  0
  1 30  1  0
  1 31  1  0
  2 32  1  0
  2 33  1  0
  3 34  1  0
  3 35  1  0
  5 36  1  0
  5 37  1  0
  6 38  1  0
  6 39  1  0
  6 40  1  0
  7 41  1  0
  7 42  1  0
  8 43  1  0
  8 44  1  0
  9 45  1  0
  9 46  1  0
 10 47  1  0
 13 48  1  0
 14 49  1  0
 15 50  1  0
 16 51  1  0
 19 52  1  0
 19 53  1  0
 19 54  1  0
 21 55  1  0
 23 56  1  0
 24 57  1  0
 25 58  1  0
 26 59  1  0
M  CHG  1  18   1
M  END
>  <UniqueID>  (25) 
22

>  <SMILES>  (25) 
CCCN(CC)CCCNc1c2ccccc2[n+](C)c2[nH]c3ccccc3c12

>  <Energy>  (25) 
114.78160399668423

>  <Genealogy>  (25) 
CCCN(CC)CCCNc1c2ccccc2[n+](C)c2[nH]c3ccccc3c12 (3D coordinates assigned)
CCCN(CC)CCCNc1c2ccccc2[n+](C)c2[nH]c3ccccc3c12 (optimized conformer: 114.78160399668423 kcal/mol)

>  <smiles>  (25) 
CCCN(CC)CCCNc1c2ccccc2[n+](C)c2[nH]c3ccccc3c12

>  <score_type>  (25) 
oracle

>  <origin>  (25) 
adg

>  <m_score__min__energy>  (25) 
-6.6600000000000001

>  <m_primary>  (25) 
energy

$$$$
25:0
     RDKit          3D

 39 40  0  0  0  0  0  0  0  0999 V2000
   57.8900   28.7180   45.8280 C   0  0  0  0  0  0  0  0  0  0  0  0
   58.1440   29.8760   44.8660 C   0  0  0  0  0  0  0  0  0  0  0  0
   57.0150   30.8340   44.9090 N   0  0  0  0  0  0  0  0  0  0  0  0
   55.8720   30.3510   44.1020 C   0  0  0  0  0  0  0  0  0  0  0  0
   56.3660   29.7690   42.7800 C   0  0  0  0  0  0  0  0  0  0  0  0
   57.4440   32.1850   44.4770 C   0  0  0  0  0  0  0  0  0  0  0  0
   56.6750   33.2570   45.2570 C   0  0  0  0  0  0  0  0  0  0  0  0
   57.3710   33.6060   46.4960 N   0  0  0  0  0  0  0  0  0  0  0  0
   58.8060   33.5860   46.6000 C   0  0  0  0  0  0  0  0  0  0  0  0
   59.6290   34.6080   46.1110 C   0  0  0  0  0  0  0  0  0  0  0  0
   61.2390   34.2110   46.4230 S   0  0  0  0  0  0  0  0  0  0  0  0
   60.9100   32.7470   47.1780 C   0  0  0  0  0  0  0  0  0  0  0  0
   61.8080   31.8250   47.7240 C   0  0  0  0  0  0  0  0  0  0  0  0
   63.2900   32.0610   47.6930 C   0  0  0  0  0  0  0  0  0  0  0  0
   61.2630   30.6660   48.3030 C   0  0  0  0  0  0  0  0  0  0  0  0
   59.9120   30.4700   48.3200 N   0  0  0  0  0  0  0  0  0  0  0  0
   59.0380   31.3720   47.7870 C   0  0  0  0  0  0  0  0  0  0  0  0
   59.5380   32.5410   47.2000 C   0  0  0  0  0  0  0  0  0  0  0  0
   57.9690   29.0782   46.8643 H   0  0  0  0  0  0  0  0  0  0  0  0
   56.8817   28.3132   45.6564 H   0  0  0  0  0  0  0  0  0  0  0  0
   58.6363   27.9283   45.6564 H   0  0  0  0  0  0  0  0  0  0  0  0
   59.0705   30.3930   45.1564 H   0  0  0  0  0  0  0  0  0  0  0  0
   58.2395   29.4795   43.8444 H   0  0  0  0  0  0  0  0  0  0  0  0
   55.3348   29.5723   44.6632 H   0  0  0  0  0  0  0  0  0  0  0  0
   55.1994   31.1958   43.8923 H   0  0  0  0  0  0  0  0  0  0  0  0
   57.0658   28.9445   42.9811 H   0  0  0  0  0  0  0  0  0  0  0  0
   55.5093   29.3904   42.2032 H   0  0  0  0  0  0  0  0  0  0  0  0
   56.8788   30.5528   42.2032 H   0  0  0  0  0  0  0  0  0  0  0  0
   58.5216   32.3017   44.6644 H   0  0  0  0  0  0  0  0  0  0  0  0
   57.2357   32.3024   43.4033 H   0  0  0  0  0  0  0  0  0  0  0  0
   56.5799   34.1573   44.6322 H   0  0  0  0  0  0  0  0  0  0  0  0
   55.6823   32.8586   45.5135 H   0  0  0  0  0  0  0  0  0  0  0  0
   56.8050   33.8830   47.3290 H   0  0  0  0  0  0  0  0  0  0  0  0
   59.2822   35.5214   45.6055 H   0  0  0  0  0  0  0  0  0  0  0  0
   63.6732   32.1220   48.7223 H   0  0  0  0  0  0  0  0  0  0  0  0
   63.7827   31.2300   47.1670 H   0  0  0  0  0  0  0  0  0  0  0  0
   63.5002   33.0039   47.1670 H   0  0  0  0  0  0  0  0  0  0  0  0
   61.9298   29.9114   48.7456 H   0  0  0  0  0  0  0  0  0  0  0  0
   57.9547   31.1834   47.8180 H   0  0  0  0  0  0  0  0  0  0  0  0
  1  2  1  0
  2  3  1  0
  3  4  1  0
  4  5  1  0
  3  6  1  0
  6  7  1  0
  7  8  1  0
  8  9  1  0
  9 10  2  0
 10 11  1  0
 11 12  1  0
 12 13  2  0
 13 14  1  0
 13 15  1  0
 15 16  2  0
 16 17  1  0
 17 18  2  0
 18  9  1  0
 18 12  1  0
  1 19  1  0
  1 20  1  0
  1 21  1  0
  2 22  1  0
  2 23  1  0
  4 24  1  0
  4 25  1  0
  5 26  1  0
  5 27  1  0
  5 28  1  0
  6 29  1  0
  6 30  1  0
  7 31  1  0
  7 32  1  0
  8 33  1  0
 10 34  1  0
 14 35  1  0
 14 36  1  0
 14 37  1  0
 15 38  1  0
 17 39  1  0
M  END
>  <UniqueID>  (26) 
23

>  <SMILES>  (26) 
CCN(CC)CCNc1csc2c(C)cncc12

>  <Energy>  (26) 
66.7596157336067

>  <Genealogy>  (26) 
CCN(CC)CCNc1csc2c(C)cncc12 (3D coordinates assigned)
CCN(CC)CCNc1csc2c(C)cncc12 (optimized conformer: 66.7596157336067 kcal/mol)

>  <smiles>  (26) 
CCN(CC)CCNc1csc2c(C)cncc12

>  <score_type>  (26) 
oracle

>  <origin>  (26) 
adg

>  <m_score__min__energy>  (26) 
-5.7699999999999996

>  <m_primary>  (26) 
energy

$$$$
26:0
     RDKit          3D

 43 45  0  0  0  0  0  0  0  0999 V2000
   56.2760   29.7330   42.6140 C   0  0  0  0  0  0  0  0  0  0  0  0
   55.5230   29.7770   43.9390 C   0  0  0  0  0  0  0  0  0  0  0  0
   56.2100   30.5950   44.8670 O   0  0  0  0  0  0  0  0  0  0  0  0
   57.2990   31.2470   44.2470 C   0  0  0  0  0  0  0  0  0  0  0  0
   58.4880   31.1910   45.1650 C   0  0  0  0  0  0  0  0  0  0  0  0
   59.1610   32.2710   45.7160 C   0  0  0  0  0  0  0  0  0  0  0  0
   58.8720   33.7250   45.4880 C   0  0  0  0  0  0  0  0  0  0  0  0
   58.5450   34.5100   46.7510 C   0  0  0  0  0  0  0  0  0  0  0  0
   57.4380   34.1440   45.7790 C   0  0  0  0  0  0  0  0  0  0  0  0
   60.0640   31.8090   46.6030 N   0  0  0  0  0  0  0  0  0  0  0  0
   59.9490   30.4690   46.5760 C   0  0  0  0  0  0  0  0  0  0  0  0
   59.0050   30.0630   45.7010 N   0  0  0  0  0  0  0  0  0  0  0  0
   58.6000   28.7060   45.4670 C   0  0  0  0  0  0  0  0  0  0  0  0
   58.1670   27.9050   46.5350 C   0  0  0  0  0  0  0  0  0  0  0  0
   57.7410   26.5940   46.3060 C   0  0  0  0  0  0  0  0  0  0  0  0
   57.7570   26.0680   45.0080 C   0  0  0  0  0  0  0  0  0  0  0  0
   57.2020   24.4320   44.7140 S   0  0  0  0  0  0  0  0  0  0  0  0
   58.5170   23.2520   44.9070 C   0  0  0  0  0  0  0  0  0  0  0  0
   56.4870   24.3110   43.1990 O   0  0  0  0  0  0  0  0  0  0  0  0
   58.2110   26.8540   43.9440 C   0  0  0  0  0  0  0  0  0  0  0  0
   58.6340   28.1660   44.1720 C   0  0  0  0  0  0  0  0  0  0  0  0
   57.3568   29.6698   42.8084 H   0  0  0  0  0  0  0  0  0  0  0  0
   55.9548   28.8521   42.0388 H   0  0  0  0  0  0  0  0  0  0  0  0
   56.0596   30.6453   42.0388 H   0  0  0  0  0  0  0  0  0  0  0  0
   54.5158   30.1860   43.7707 H   0  0  0  0  0  0  0  0  0  0  0  0
   55.4524   28.7570   44.3446 H   0  0  0  0  0  0  0  0  0  0  0  0
   57.5402   30.7429   43.2995 H   0  0  0  0  0  0  0  0  0  0  0  0
   57.0369   32.2952   44.0408 H   0  0  0  0  0  0  0  0  0  0  0  0
   59.5658   33.8535   44.6442 H   0  0  0  0  0  0  0  0  0  0  0  0
   58.5989   34.0182   47.7334 H   0  0  0  0  0  0  0  0  0  0  0  0
   58.9072   35.4467   47.1997 H   0  0  0  0  0  0  0  0  0  0  0  0
   56.6899   33.3871   46.0575 H   0  0  0  0  0  0  0  0  0  0  0  0
   56.6665   34.7061   45.2324 H   0  0  0  0  0  0  0  0  0  0  0  0
   60.7020   32.3720   47.2090 H   0  0  0  0  0  0  0  0  0  0  0  0
   60.5518   29.7863   47.1929 H   0  0  0  0  0  0  0  0  0  0  0  0
   58.1630   28.3112   47.5573 H   0  0  0  0  0  0  0  0  0  0  0  0
   57.3928   25.9746   47.1457 H   0  0  0  0  0  0  0  0  0  0  0  0
   58.7045   23.0838   45.9778 H   0  0  0  0  0  0  0  0  0  0  0  0
   58.2304   22.3025   44.4313 H   0  0  0  0  0  0  0  0  0  0  0  0
   59.4300   23.6394   44.4313 H   0  0  0  0  0  0  0  0  0  0  0  0
   56.1850   25.2310   42.9930 H   0  0  0  0  0  0  0  0  0  0  0  0
   58.2351   26.4385   42.9258 H   0  0  0  0  0  0  0  0  0  0  0  0
   58.9953   28.7784   43.3327 H   0  0  0  0  0  0  0  0  0  0  0  0
  1  2  1  0
  2  3  1  0
  3  4  1  0
  4  5  1  0
  5  6  2  0
  6  7  1  0
  7  8  1  0
  8  9  1  0
  6 10  1  0
 10 11  2  0
 11 12  1  0
 12 13  1  0
 13 14  2  0
 14 15  1  0
 15 16  2  0
 16 17  1  0
 17 18  1  0
 17 19  1  6
 16 20  1  0
 20 21  2  0
 12  5  1  0
 21 13  1  0
  9  7  1  0
  1 22  1  0
  1 23  1  0
  1 24  1  0
  2 25  1  0
  2 26  1  0
  4 27  1  0
  4 28  1  0
  7 29  1  0
  8 30  1  0
  8 31  1  0
  9 32  1  0
  9 33  1  0
 10 34  1  0
 11 35  1  0
 14 36  1  0
 15 37  1  0
 18 38  1  0
 18 39  1  0
 18 40  1  0
 19 41  1  0
 20 42  1  0
 21 43  1  0
M  CHG  2  10   1  17   1
M  END
>  <UniqueID>  (27) 
24

>  <SMILES>  (27) 
CCOCc1c(C2CC2)[nH+]cn1-c1ccc([S@+](C)O)cc1

>  <Energy>  (27) 
335.7097252463715

>  <Genealogy>  (27) 
CCOCc1c(C2CC2)[nH+]cn1-c1ccc([S+](C)O)cc1 (protonated)
CCOCc1c(C2CC2)[nH+]cn1-c1ccc([S@+](C)O)cc1 (chirality)
CCOCc1c(C2CC2)[nH+]cn1-c1ccc([S@+](C)O)cc1 (3D coordinates assigned)
CCOCc1c(C2CC2)[nH+]cn1-c1ccc([S@+](C)O)cc1 (nonaromatic ring conformer: 335.7097252463715 kcal/mol)

>  <smiles>  (27) 
CCOCc1c(C2CC2)ncn1-c1ccc([S+](C)[O-])cc1

>  <score_type>  (27) 
oracle

>  <origin>  (27) 
adg

>  <m_score__min__energy>  (27) 
-4.3499999999999996

>  <m_primary>  (27) 
energy

$$$$
27:0
     RDKit          3D

 40 42  0  0  0  0  0  0  0  0999 V2000
   56.6190   30.4440   42.4370 C   0  0  0  0  0  0  0  0  0  0  0  0
   55.7550   30.0700   43.6460 C   0  0  0  0  0  0  0  0  0  0  0  0
   56.1580   30.7800   44.8690 N   0  0  0  0  0  0  0  0  0  0  0  0
   57.4550   31.4590   44.7210 C   0  0  0  0  0  0  0  0  0  0  0  0
   57.4000   32.8690   45.3470 C   0  0  2  0  0  0  0  0  0  0  0  0
   58.2430   33.8700   44.5390 C   0  0  0  0  0  0  0  0  0  0  0  0
   59.5620   34.0100   45.2840 C   0  0  0  0  0  0  0  0  0  0  0  0
   59.3070   33.5230   46.6280 N   0  0  0  0  0  0  0  0  0  0  0  0
   60.2730   33.6340   47.6920 C   0  0  0  0  0  0  0  0  0  0  0  0
   59.9050   34.0970   48.9690 C   0  0  0  0  0  0  0  0  0  0  0  0
   60.8690   34.1920   49.9760 C   0  0  0  0  0  0  0  0  0  0  0  0
   62.1930   33.8290   49.7100 C   0  0  0  0  0  0  0  0  0  0  0  0
   63.1850   33.9120   50.6990 C   0  0  0  0  0  0  0  0  0  0  0  0
   64.5010   33.5420   50.4010 C   0  0  0  0  0  0  0  0  0  0  0  0
   64.8310   33.0900   49.1190 C   0  0  0  0  0  0  0  0  0  0  0  0
   63.8470   33.0040   48.1280 C   0  0  0  0  0  0  0  0  0  0  0  0
   62.5290   33.3710   48.4180 C   0  0  0  0  0  0  0  0  0  0  0  0
   61.5700   33.2890   47.4580 N   0  0  0  0  0  0  0  0  0  0  0  0
   57.9960   32.9060   46.7630 C   0  0  0  0  0  0  0  0  0  0  0  0
   57.5767   30.8585   42.7849 H   0  0  0  0  0  0  0  0  0  0  0  0
   56.8071   29.5467   41.8291 H   0  0  0  0  0  0  0  0  0  0  0  0
   56.0935   31.1952   41.8291 H   0  0  0  0  0  0  0  0  0  0  0  0
   54.7076   30.3206   43.4218 H   0  0  0  0  0  0  0  0  0  0  0  0
   55.8839   28.9928   43.8277 H   0  0  0  0  0  0  0  0  0  0  0  0
   56.2090   30.0920   45.6550 H   0  0  0  0  0  0  0  0  0  0  0  0
   58.2330   30.8682   45.2267 H   0  0  0  0  0  0  0  0  0  0  0  0
   57.6877   31.5534   43.6500 H   0  0  0  0  0  0  0  0  0  0  0  0
   56.3318   33.1312   45.3574 H   0  0  0  0  0  0  0  0  0  0  0  0
   58.4177   33.4885   43.5222 H   0  0  0  0  0  0  0  0  0  0  0  0
   57.7318   34.8392   44.4420 H   0  0  0  0  0  0  0  0  0  0  0  0
   60.3427   33.4059   44.7987 H   0  0  0  0  0  0  0  0  0  0  0  0
   59.9169   35.0512   45.2897 H   0  0  0  0  0  0  0  0  0  0  0  0
   58.8627   34.3829   49.1736 H   0  0  0  0  0  0  0  0  0  0  0  0
   60.5869   34.5518   50.9765 H   0  0  0  0  0  0  0  0  0  0  0  0
   62.9282   34.2677   51.7077 H   0  0  0  0  0  0  0  0  0  0  0  0
   65.2781   33.6067   51.1768 H   0  0  0  0  0  0  0  0  0  0  0  0
   65.8673   32.8013   48.8893 H   0  0  0  0  0  0  0  0  0  0  0  0
   64.1100   32.6478   47.1210 H   0  0  0  0  0  0  0  0  0  0  0  0
   58.0925   31.8864   47.1643 H   0  0  0  0  0  0  0  0  0  0  0  0
   57.3542   33.4690   47.4567 H   0  0  0  0  0  0  0  0  0  0  0  0
  1  2  1  0
  2  3  1  0
  3  4  1  0
  4  5  1  0
  5  6  1  0
  6  7  1  0
  7  8  1  0
  8  9  1  0
  9 10  2  0
 10 11  1  0
 11 12  2  0
 12 13  1  0
 13 14  2  0
 14 15  1  0
 15 16  2  0
 16 17  1  0
 17 18  2  0
  8 19  1  0
 19  5  1  0
 18  9  1  0
 17 12  1  0
  1 20  1  0
  1 21  1  0
  1 22  1  0
  2 23  1  0
  2 24  1  0
  3 25  1  0
  4 26  1  0
  4 27  1  0
  5 28  1  1
  6 29  1  0
  6 30  1  0
  7 31  1  0
  7 32  1  0
 10 33  1  0
 11 34  1  0
 13 35  1  0
 14 36  1  0
 15 37  1  0
 16 38  1  0
 19 39  1  0
 19 40  1  0
M  END
>  <UniqueID>  (28) 
25

>  <SMILES>  (28) 
CCNC[C@@H]1CCN(c2ccc3ccccc3n2)C1

>  <Energy>  (28) 
42.61709173243588

>  <Genealogy>  (28) 
CCNC[C@@H]1CCN(c2ccc3ccccc3n2)C1 (chirality)
CCNC[C@@H]1CCN(c2ccc3ccccc3n2)C1 (3D coordinates assigned)
CCNC[C@@H]1CCN(c2ccc3ccccc3n2)C1 (nonaromatic ring conformer: 42.61709173243588 kcal/mol)

>  <smiles>  (28) 
CCNCC1CCN(c2ccc3ccccc3n2)C1

>  <score_type>  (28) 
oracle

>  <origin>  (28) 
adg

>  <m_score__min__energy>  (28) 
-7.2800000000000002

>  <m_primary>  (28) 
energy

$$$$
28:0
     RDKit          3D

 53 56  0  0  0  0  0  0  0  0999 V2000
   59.7060   22.6500   45.2050 C   0  0  0  0  0  0  0  0  0  0  0  0
   58.3540   23.1620   45.6890 C   0  0  0  0  0  0  0  0  0  0  0  0
   57.3230   23.0660   44.5940 C   0  0  0  0  0  0  0  0  0  0  0  0
   57.5030   22.1340   43.6180 N   0  0  0  0  0  0  0  0  0  0  0  0
   56.5830   21.9480   42.6380 C   0  0  0  0  0  0  0  0  0  0  0  0
   55.4420   22.6840   42.6260 N   0  0  0  0  0  0  0  0  0  0  0  0
   55.2050   23.6180   43.5830 C   0  0  0  0  0  0  0  0  0  0  0  0
   56.1450   23.8440   44.5930 C   0  0  0  0  0  0  0  0  0  0  0  0
   55.8690   24.8660   45.6200 C   0  0  0  0  0  0  0  0  0  0  0  0
   54.7480   25.4360   45.6310 O   0  0  0  0  0  0  0  0  0  0  0  0
   56.8510   25.2340   46.5960 N   0  0  0  0  0  0  0  0  0  0  0  0
   58.0170   26.0770   46.3330 C   0  0  0  0  0  0  0  0  0  0  0  0
   58.2320   27.0200   47.5340 C   0  0  0  0  0  0  0  0  0  0  0  0
   59.0180   28.2730   47.1390 C   0  0  0  0  0  0  0  0  0  0  0  0
   58.3200   29.0030   46.0670 N   0  0  0  0  0  0  0  0  0  0  0  0
   58.3850   30.4420   46.0030 C   0  0  0  0  0  0  0  0  0  0  0  0
   57.4070   31.0880   45.5380 O   0  0  0  0  0  0  0  0  0  0  0  0
   59.5880   31.1810   46.4470 C   0  0  0  0  0  0  0  0  0  0  0  0
   60.7530   30.5760   46.9150 C   0  0  0  0  0  0  0  0  0  0  0  0
   61.6350   31.6100   47.1320 C   0  0  0  0  0  0  0  0  0  0  0  0
   62.9570   31.5830   47.5750 C   0  0  0  0  0  0  0  0  0  0  0  0
   63.6400   32.8080   47.6770 C   0  0  0  0  0  0  0  0  0  0  0  0
   62.9960   34.0160   47.3310 C   0  0  0  0  0  0  0  0  0  0  0  0
   61.6640   34.0110   46.8820 C   0  0  0  0  0  0  0  0  0  0  0  0
   61.0020   32.7800   46.7970 C   0  0  0  0  0  0  0  0  0  0  0  0
   59.7400   32.5320   46.3870 N   0  0  0  0  0  0  0  0  0  0  0  0
   58.7590   33.5140   45.9180 C   0  0  0  0  0  0  0  0  0  0  0  0
   57.3960   28.2850   45.1780 C   0  0  0  0  0  0  0  0  0  0  0  0
   57.8470   26.8330   44.9900 C   0  0  0  0  0  0  0  0  0  0  0  0
   60.3391   22.4103   46.0720 H   0  0  0  0  0  0  0  0  0  0  0  0
   59.5591   21.7452   44.5969 H   0  0  0  0  0  0  0  0  0  0  0  0
   60.1953   23.4251   44.5969 H   0  0  0  0  0  0  0  0  0  0  0  0
   58.0257   22.5578   46.5476 H   0  0  0  0  0  0  0  0  0  0  0  0
   58.4604   24.2169   45.9820 H   0  0  0  0  0  0  0  0  0  0  0  0
   56.7619   21.1996   41.8519 H   0  0  0  0  0  0  0  0  0  0  0  0
   54.2708   24.1984   43.5635 H   0  0  0  0  0  0  0  0  0  0  0  0
   58.9216   25.4607   46.2240 H   0  0  0  0  0  0  0  0  0  0  0  0
   57.2511   27.3244   47.9279 H   0  0  0  0  0  0  0  0  0  0  0  0
   58.8125   26.4778   48.2950 H   0  0  0  0  0  0  0  0  0  0  0  0
   59.1194   28.9284   48.0166 H   0  0  0  0  0  0  0  0  0  0  0  0
   60.0109   27.9702   46.7751 H   0  0  0  0  0  0  0  0  0  0  0  0
   60.9297   29.5023   47.0763 H   0  0  0  0  0  0  0  0  0  0  0  0
   63.4494   30.6346   47.8361 H   0  0  0  0  0  0  0  0  0  0  0  0
   64.6822   32.8252   48.0284 H   0  0  0  0  0  0  0  0  0  0  0  0
   63.5407   34.9681   47.4134 H   0  0  0  0  0  0  0  0  0  0  0  0
   61.1564   34.9469   46.6054 H   0  0  0  0  0  0  0  0  0  0  0  0
   58.2789   33.9946   46.7831 H   0  0  0  0  0  0  0  0  0  0  0  0
   59.2662   34.2771   45.3094 H   0  0  0  0  0  0  0  0  0  0  0  0
   57.9954   33.0076   45.3094 H   0  0  0  0  0  0  0  0  0  0  0  0
   56.3883   28.2963   45.6188 H   0  0  0  0  0  0  0  0  0  0  0  0
   57.3882   28.7835   44.1975 H   0  0  0  0  0  0  0  0  0  0  0  0
   57.0947   26.3072   44.3837 H   0  0  0  0  0  0  0  0  0  0  0  0
   58.8292   26.8531   44.4951 H   0  0  0  0  0  0  0  0  0  0  0  0
  1  2  1  0
  2  3  1  0
  3  4  2  0
  4  5  1  0
  5  6  2  0
  6  7  1  0
  7  8  2  0
  8  9  1  0
  9 10  2  0
  9 11  1  0
 11 12  1  0
 12 13  1  0
 13 14  1  0
 14 15  1  0
 15 16  1  0
 16 17  2  0
 16 18  1  0
 18 19  2  0
 19 20  1  0
 20 21  2  0
 21 22  1  0
 22 23  2  0
 23 24  1  0
 24 25  2  0
 25 26  1  0
 26 27  1  0
 15 28  1  0
 28 29  1  0
  8  3  1  0
 29 12  1  0
 26 18  1  0
 25 20  1  0
  1 30  1  0
  1 31  1  0
  1 32  1  0
  2 33  1  0
  2 34  1  0
  5 35  1  0
  7 36  1  0
 12 37  1  0
 13 38  1  0
 13 39  1  0
 14 40  1  0
 14 41  1  0
 19 42  1  0
 21 43  1  0
 22 44  1  0
 23 45  1  0
 24 46  1  0
 27 47  1  0
 27 48  1  0
 27 49  1  0
 28 50  1  0
 28 51  1  0
 29 52  1  0
 29 53  1  0
M  CHG  1  11  -1
M  END
>  <UniqueID>  (29) 
26

>  <SMILES>  (29) 
CCc1ncncc1C(=O)[N-]C1CCN(C(=O)c2cc3ccccc3n2C)CC1

>  <Energy>  (29) 
99.68436747717402

>  <Genealogy>  (29) 
CCc1ncncc1C(=O)[N-]C1CCN(C(=O)c2cc3ccccc3n2C)CC1 (protonated)
CCc1ncncc1C(=O)[N-]C1CCN(C(=O)c2cc3ccccc3n2C)CC1 (3D coordinates assigned)
CCc1ncncc1C(=O)[N-]C1CCN(C(=O)c2cc3ccccc3n2C)CC1 (nonaromatic ring conformer: 99.68436747717402 kcal/mol)

>  <smiles>  (29) 
CCc1ncncc1C(=O)NC1CCN(C(=O)c2cc3ccccc3n2C)CC1

>  <score_type>  (29) 
oracle

>  <origin>  (29) 
adg

>  <m_score__min__energy>  (29) 
-10.800000000000001

>  <m_primary>  (29) 
energy

$$$$
29:0
     RDKit          3D

 50 52  0  0  0  0  0  0  0  0999 V2000
   60.9140   29.7680   46.0410 C   0  0  0  0  0  0  0  0  0  0  0  0
   60.2580   28.6150   45.2920 C   0  0  0  0  0  0  0  0  0  0  0  0
   58.9260   28.3290   45.8860 N   0  0  0  0  0  0  0  0  0  0  0  0
   59.0350   27.6170   47.1780 C   0  0  0  0  0  0  0  0  0  0  0  0
   58.9620   28.5900   48.3550 C   0  0  0  0  0  0  0  0  0  0  0  0
   58.0560   27.5810   44.9490 C   0  0  0  0  0  0  0  0  0  0  0  0
   57.7750   28.3910   43.6760 C   0  0  0  0  0  0  0  0  0  0  0  0
   56.6690   29.7570   43.9950 S   0  0  0  0  0  0  0  0  0  0  0  0
   55.5260   29.3670   45.1630 O   0  0  0  0  0  0  0  0  0  0  0  0
   57.5160   31.2300   44.4170 C   0  0  0  0  0  0  0  0  0  0  0  0
   57.7310   32.2180   43.4530 C   0  0  0  0  0  0  0  0  0  0  0  0
   58.4440   33.3650   43.8020 C   0  0  0  0  0  0  0  0  0  0  0  0
   58.9270   33.5150   45.1040 C   0  0  0  0  0  0  0  0  0  0  0  0
   58.6850   32.5060   46.0500 C   0  0  0  0  0  0  0  0  0  0  0  0
   59.2160   32.6150   47.4290 C   0  0  0  0  0  0  0  0  0  0  0  0
   58.3370   32.3780   48.5000 C   0  0  0  0  0  0  0  0  0  0  0  0
   58.7600   32.5310   49.8200 C   0  0  0  0  0  0  0  0  0  0  0  0
   60.0660   32.9270   50.0980 C   0  0  0  0  0  0  0  0  0  0  0  0
   60.9720   33.1570   49.0530 C   0  0  0  0  0  0  0  0  0  0  0  0
   62.2910   33.5390   49.3430 C   0  0  0  0  0  0  0  0  0  0  0  0
   63.2070   33.7440   48.3120 C   0  0  0  0  0  0  0  0  0  0  0  0
   62.8210   33.5590   46.9840 C   0  0  0  0  0  0  0  0  0  0  0  0
   61.5110   33.1810   46.6780 C   0  0  0  0  0  0  0  0  0  0  0  0
   60.5580   32.9920   47.7030 C   0  0  0  0  0  0  0  0  0  0  0  0
   57.9980   31.3910   45.6780 N   0  0  0  0  0  0  0  0  0  0  0  0
   60.8197   29.6023   47.1244 H   0  0  0  0  0  0  0  0  0  0  0  0
   61.9786   29.8230   45.7697 H   0  0  0  0  0  0  0  0  0  0  0  0
   60.4173   30.7113   45.7697 H   0  0  0  0  0  0  0  0  0  0  0  0
   60.1359   28.8883   44.2335 H   0  0  0  0  0  0  0  0  0  0  0  0
   60.8928   27.7201   45.3701 H   0  0  0  0  0  0  0  0  0  0  0  0
   58.2105   26.8934   47.2593 H   0  0  0  0  0  0  0  0  0  0  0  0
   60.0073   27.1036   47.2111 H   0  0  0  0  0  0  0  0  0  0  0  0
   59.0042   28.0272   49.2992 H   0  0  0  0  0  0  0  0  0  0  0  0
   59.8103   29.2886   48.3063 H   0  0  0  0  0  0  0  0  0  0  0  0
   58.0190   29.1543   48.3063 H   0  0  0  0  0  0  0  0  0  0  0  0
   58.5544   26.6404   44.6717 H   0  0  0  0  0  0  0  0  0  0  0  0
   57.0976   27.3824   45.4510 H   0  0  0  0  0  0  0  0  0  0  0  0
   58.7254   28.7849   43.2867 H   0  0  0  0  0  0  0  0  0  0  0  0
   57.2958   27.7247   42.9436 H   0  0  0  0  0  0  0  0  0  0  0  0
   55.8980   29.7320   46.0040 H   0  0  0  0  0  0  0  0  0  0  0  0
   57.3428   32.0930   42.4314 H   0  0  0  0  0  0  0  0  0  0  0  0
   58.6256   34.1500   43.0531 H   0  0  0  0  0  0  0  0  0  0  0  0
   59.4920   34.4157   45.3858 H   0  0  0  0  0  0  0  0  0  0  0  0
   57.3019   32.0678   48.2942 H   0  0  0  0  0  0  0  0  0  0  0  0
   58.0590   32.3380   50.6454 H   0  0  0  0  0  0  0  0  0  0  0  0
   60.3879   33.0598   51.1414 H   0  0  0  0  0  0  0  0  0  0  0  0
   62.6036   33.6773   50.3885 H   0  0  0  0  0  0  0  0  0  0  0  0
   64.2366   34.0524   48.5462 H   0  0  0  0  0  0  0  0  0  0  0  0
   63.5506   33.7113   46.1750 H   0  0  0  0  0  0  0  0  0  0  0  0
   61.2191   33.0291   45.6284 H   0  0  0  0  0  0  0  0  0  0  0  0
  1  2  1  0
  2  3  1  0
  3  4  1  0
  4  5  1  0
  3  6  1  0
  6  7  1  0
  7  8  1  0
  8  9  1  1
  8 10  1  0
 10 11  2  0
 11 12  1  0
 12 13  2  0
 13 14  1  0
 14 15  1  0
 15 16  2  0
 16 17  1  0
 17 18  2  0
 18 19  1  0
 19 20  2  0
 20 21  1  0
 21 22  2  0
 22 23  1  0
 23 24  2  0
 14 25  2  0
 25 10  1  0
 24 15  1  0
 24 19  1  0
  1 26  1  0
  1 27  1  0
  1 28  1  0
  2 29  1  0
  2 30  1  0
  4 31  1  0
  4 32  1  0
  5 33  1  0
  5 34  1  0
  5 35  1  0
  6 36  1  0
  6 37  1  0
  7 38  1  0
  7 39  1  0
  9 40  1  0
 11 41  1  0
 12 42  1  0
 13 43  1  0
 16 44  1  0
 17 45  1  0
 18 46  1  0
 20 47  1  0
 21 48  1  0
 22 49  1  0
 23 50  1  0
M  CHG  1   8   1
M  END
>  <UniqueID>  (30) 
27

>  <SMILES>  (30) 
CCN(CC)CC[S@@+](O)c1cccc(-c2cccc3ccccc23)n1

>  <Energy>  (30) 
55.37328510167201

>  <Genealogy>  (30) 
CCN(CC)CC[S+](O)c1cccc(-c2cccc3ccccc23)n1 (protonated)
CCN(CC)CC[S@@+](O)c1cccc(-c2cccc3ccccc23)n1 (chirality)
CCN(CC)CC[S@@+](O)c1cccc(-c2cccc3ccccc23)n1 (3D coordinates assigned)
CCN(CC)CC[S@@+](O)c1cccc(-c2cccc3ccccc23)n1 (optimized conformer: 55.37328510167201 kcal/mol)

>  <smiles>  (30) 
CCN(CC)CC[S+]([O-])c1cccc(-c2cccc3ccccc23)n1

>  <score_type>  (30) 
oracle

>  <origin>  (30) 
adg

>  <m_score__min__energy>  (30) 
-6.9800000000000004

>  <m_primary>  (30) 
energy

$$$$
30:0
     RDKit          3D

 44 47  0  0  0  0  0  0  0  0999 V2000
   57.4180   31.6580   42.4750 C   0  0  0  0  0  0  0  0  0  0  0  0
   57.5700   31.5880   43.9290 N   0  0  0  0  0  0  0  0  0  0  0  0
   57.4020   30.5100   44.7470 C   0  0  0  0  0  0  0  0  0  0  0  0
   56.9050   29.1540   44.2920 C   0  0  0  0  0  0  0  0  0  0  0  0
   57.8200   28.0360   44.6240 N   0  0  0  0  0  0  0  0  0  0  0  0
   59.1910   28.2170   44.1210 C   0  0  0  0  0  0  0  0  0  0  0  0
   60.1230   28.2070   45.3200 C   0  0  0  0  0  0  0  0  0  0  0  0
   59.3700   27.4190   46.3650 C   0  0  0  0  0  0  0  0  0  0  0  0
   57.9030   27.7140   46.0610 C   0  0  2  0  0  0  0  0  0  0  0  0
   56.9880   26.5230   46.3850 C   0  0  0  0  0  0  0  0  0  0  0  0
   57.2100   25.4300   45.4400 N   0  0  0  0  0  0  0  0  0  0  0  0
   57.5530   24.1650   45.7500 C   0  0  0  0  0  0  0  0  0  0  0  0
   57.6070   23.4280   44.5820 C   0  0  0  0  0  0  0  0  0  0  0  0
   57.2730   24.3210   43.5800 C   0  0  0  0  0  0  0  0  0  0  0  0
   57.0350   25.5240   44.1320 N   0  0  0  0  0  0  0  0  0  0  0  0
   57.7380   30.7620   46.0400 N   0  0  0  0  0  0  0  0  0  0  0  0
   58.1360   32.0450   46.0110 C   0  0  0  0  0  0  0  0  0  0  0  0
   58.6080   32.8090   47.0750 C   0  0  0  0  0  0  0  0  0  0  0  0
   59.0030   34.1330   46.8060 C   0  0  0  0  0  0  0  0  0  0  0  0
   58.9240   34.6500   45.4930 C   0  0  0  0  0  0  0  0  0  0  0  0
   58.4440   33.8500   44.4390 C   0  0  0  0  0  0  0  0  0  0  0  0
   58.0510   32.5440   44.7440 C   0  0  0  0  0  0  0  0  0  0  0  0
   56.4441   32.1065   42.2293 H   0  0  0  0  0  0  0  0  0  0  0  0
   58.2235   32.2758   42.0514 H   0  0  0  0  0  0  0  0  0  0  0  0
   57.4721   30.6443   42.0514 H   0  0  0  0  0  0  0  0  0  0  0  0
   55.9346   28.9617   44.7729 H   0  0  0  0  0  0  0  0  0  0  0  0
   56.8328   29.1922   43.1950 H   0  0  0  0  0  0  0  0  0  0  0  0
   59.4512   27.3962   43.4364 H   0  0  0  0  0  0  0  0  0  0  0  0
   59.2792   29.1650   43.5700 H   0  0  0  0  0  0  0  0  0  0  0  0
   61.0748   27.7151   45.0707 H   0  0  0  0  0  0  0  0  0  0  0  0
   60.3831   29.2199   45.6611 H   0  0  0  0  0  0  0  0  0  0  0  0
   59.5805   26.3434   46.2711 H   0  0  0  0  0  0  0  0  0  0  0  0
   59.6544   27.6951   47.3911 H   0  0  0  0  0  0  0  0  0  0  0  0
   57.5591   28.5489   46.6892 H   0  0  0  0  0  0  0  0  0  0  0  0
   57.2031   26.1689   47.4040 H   0  0  0  0  0  0  0  0  0  0  0  0
   55.9406   26.8501   46.3083 H   0  0  0  0  0  0  0  0  0  0  0  0
   57.7558   23.7831   46.7614 H   0  0  0  0  0  0  0  0  0  0  0  0
   57.8604   22.3631   44.4731 H   0  0  0  0  0  0  0  0  0  0  0  0
   57.2120   24.0857   42.5072 H   0  0  0  0  0  0  0  0  0  0  0  0
   56.7500   26.3910   43.6250 H   0  0  0  0  0  0  0  0  0  0  0  0
   58.6701   32.3922   48.0911 H   0  0  0  0  0  0  0  0  0  0  0  0
   59.3754   34.7691   47.6226 H   0  0  0  0  0  0  0  0  0  0  0  0
   59.2398   35.6846   45.2934 H   0  0  0  0  0  0  0  0  0  0  0  0
   58.3805   34.2389   43.4120 H   0  0  0  0  0  0  0  0  0  0  0  0
  1  2  1  0
  2  3  1  0
  3  4  1  0
  4  5  1  0
  5  6  1  0
  6  7  1  0
  7  8  1  0
  8  9  1  0
  9 10  1  0
 10 11  1  0
 11 12  1  0
 12 13  2  0
 13 14  1  0
 14 15  2  0
  3 16  2  0
 16 17  1  0
 17 18  2  0
 18 19  1  0
 19 20  2  0
 20 21  1  0
 21 22  2  0
 22  2  1  0
  9  5  1  0
 15 11  1  0
 22 17  1  0
  1 23  1  0
  1 24  1  0
  1 25  1  0
  4 26  1  0
  4 27  1  0
  6 28  1  0
  6 29  1  0
  7 30  1  0
  7 31  1  0
  8 32  1  0
  8 33  1  0
  9 34  1  1
 10 35  1  0
 10 36  1  0
 12 37  1  0
 13 38  1  0
 14 39  1  0
 15 40  1  0
 18 41  1  0
 19 42  1  0
 20 43  1  0
 21 44  1  0
M  CHG  1  15   1
M  END
>  <UniqueID>  (31) 
28

>  <SMILES>  (31) 
Cn1c(CN2CCC[C@@H]2Cn2ccc[nH+]2)nc2ccccc21

>  <Energy>  (31) 
115.70310880885889

>  <Genealogy>  (31) 
Cn1c(CN2CCCC2Cn2ccc[nH+]2)nc2ccccc21 (protonated)
Cn1c(CN2CCC[C@@H]2Cn2ccc[nH+]2)nc2ccccc21 (chirality)
Cn1c(CN2CCC[C@@H]2Cn2ccc[nH+]2)nc2ccccc21 (3D coordinates assigned)
Cn1c(CN2CCC[C@@H]2Cn2ccc[nH+]2)nc2ccccc21 (nonaromatic ring conformer: 115.70310880885889 kcal/mol)

>  <smiles>  (31) 
Cn1c(CN2CCCC2Cn2cccn2)nc2ccccc21

>  <score_type>  (31) 
oracle

>  <origin>  (31) 
adg

>  <m_score__min__energy>  (31) 
-6.4100000000000001

>  <m_primary>  (31) 
energy

$$$$
