0:0
     RDKit          3D

 53 56  0  0  0  0  0  0  0  0999 V2000
   58.3590   26.1790   46.2400 C   0  0  0  0  0  0  0  0  0  0  0  0
   57.9000   25.5160   45.0410 N   0  0  0  0  0  0  0  0  0  0  0  0
   57.8540   26.0550   43.7910 C   0  0  0  0  0  0  0  0  0  0  0  0
   58.2480   27.4030   43.3640 C   0  0  0  0  0  0  0  0  0  0  0  0
   57.9970   28.4360   44.3470 N   0  0  0  0  0  0  0  0  0  0  0  0
   59.3080   29.0810   44.5340 C   0  0  0  0  0  0  0  0  0  0  0  0
   59.2820   29.8500   45.8200 C   0  0  0  0  0  0  0  0  0  0  0  0
   58.2340   30.8700   45.6740 N   0  0  0  0  0  0  0  0  0  0  0  0
   58.2240   32.0760   46.4660 C   0  0  0  0  0  0  0  0  0  0  0  0
   58.3690   33.2650   45.5350 C   0  0  0  0  0  0  0  0  0  0  0  0
   58.5050   34.4780   46.4590 C   0  0  0  0  0  0  0  0  0  0  0  0
   59.9620   34.7110   46.6870 C   0  0  0  0  0  0  0  0  0  0  0  0
   60.8690   33.5920   46.2920 C   0  0  0  0  0  0  0  0  0  0  0  0
   60.6530   32.3010   47.0420 C   0  0  0  0  0  0  0  0  0  0  0  0
   59.2470   32.1300   47.5430 C   0  0  0  0  0  0  0  0  0  0  0  0
   57.1930   30.6600   44.7160 C   0  0  0  0  0  0  0  0  0  0  0  0
   56.2610   31.5220   44.5670 O   0  0  0  0  0  0  0  0  0  0  0  0
   57.1160   29.4660   43.8500 C   0  0  0  0  0  0  0  0  0  0  0  0
   57.3610   25.1130   42.9360 N   0  0  0  0  0  0  0  0  0  0  0  0
   57.1160   24.0140   43.6910 C   0  0  0  0  0  0  0  0  0  0  0  0
   56.6110   22.7770   43.3280 C   0  0  0  0  0  0  0  0  0  0  0  0
   56.4230   21.7550   44.2370 C   0  0  0  0  0  0  0  0  0  0  0  0
   56.7580   22.0070   45.5490 C   0  0  0  0  0  0  0  0  0  0  0  0
   57.2670   23.2390   45.9410 C   0  0  0  0  0  0  0  0  0  0  0  0
   57.4480   24.2550   45.0080 C   0  0  0  0  0  0  0  0  0  0  0  0
   57.9856   25.6397   47.1230 H   0  0  0  0  0  0  0  0  0  0  0  0
   59.4588   26.1898   46.2549 H   0  0  0  0  0  0  0  0  0  0  0  0
   57.9820   27.2123   46.2549 H   0  0  0  0  0  0  0  0  0  0  0  0
   59.3253   27.3930   43.1420 H   0  0  0  0  0  0  0  0  0  0  0  0
   57.6330   27.6477   42.4854 H   0  0  0  0  0  0  0  0  0  0  0  0
   60.0958   28.3144   44.5762 H   0  0  0  0  0  0  0  0  0  0  0  0
   59.5168   29.7597   43.6939 H   0  0  0  0  0  0  0  0  0  0  0  0
   59.0456   29.1794   46.6593 H   0  0  0  0  0  0  0  0  0  0  0  0
   60.2591   30.3101   46.0287 H   0  0  0  0  0  0  0  0  0  0  0  0
   57.2619   32.0952   46.9989 H   0  0  0  0  0  0  0  0  0  0  0  0
   59.2646   33.1562   44.9056 H   0  0  0  0  0  0  0  0  0  0  0  0
   57.5129   33.3608   44.8510 H   0  0  0  0  0  0  0  0  0  0  0  0
   58.0533   35.3624   45.9859 H   0  0  0  0  0  0  0  0  0  0  0  0
   57.9890   34.2964   47.4133 H   0  0  0  0  0  0  0  0  0  0  0  0
   60.2553   35.6020   46.1124 H   0  0  0  0  0  0  0  0  0  0  0  0
   60.0802   34.8213   47.7751 H   0  0  0  0  0  0  0  0  0  0  0  0
   60.7191   33.3933   45.2205 H   0  0  0  0  0  0  0  0  0  0  0  0
   61.8893   33.9225   46.5365 H   0  0  0  0  0  0  0  0  0  0  0  0
   60.8876   31.4632   46.3688 H   0  0  0  0  0  0  0  0  0  0  0  0
   61.3112   32.3233   47.9231 H   0  0  0  0  0  0  0  0  0  0  0  0
   59.1956   31.1926   48.1162 H   0  0  0  0  0  0  0  0  0  0  0  0
   59.0177   33.0142   48.1558 H   0  0  0  0  0  0  0  0  0  0  0  0
   56.0829   29.0884   43.8417 H   0  0  0  0  0  0  0  0  0  0  0  0
   57.4220   29.7405   42.8297 H   0  0  0  0  0  0  0  0  0  0  0  0
   56.3493   22.6016   42.2741 H   0  0  0  0  0  0  0  0  0  0  0  0
   56.0219   20.7791   43.9260 H   0  0  0  0  0  0  0  0  0  0  0  0
   56.6198   21.2169   46.3017 H   0  0  0  0  0  0  0  0  0  0  0  0
   57.5284   23.4121   46.9954 H   0  0  0  0  0  0  0  0  0  0  0  0
  1  2  1  0
  2  3  1  0
  3  4  1  0
  4  5  1  0
  5  6  1  0
  6  7  1  0
  7  8  1  0
  8  9  1  0
  9 10  1  0
 10 11  1  0
 11 12  1  0
 12 13  1  0
 13 14  1  0
 14 15  1  0
  8 16  1  0
 16 17  2  0
 16 18  1  0
  3 19  2  0
 19 20  1  0
 20 21  2  0
 21 22  1  0
 22 23  2  0
 23 24  1  0
 24 25  2  0
 25  2  1  0
 18  5  1  0
 25 20  1  0
 15  9  1  0
  1 26  1  0
  1 27  1  0
  1 28  1  0
  4 29  1  0
  4 30  1  0
  6 31  1  0
  6 32  1  0
  7 33  1  0
  7 34  1  0
  9 35  1  0
 10 36  1  0
 10 37  1  0
 11 38  1  0
 11 39  1  0
 12 40  1  0
 12 41  1  0
 13 42  1  0
 13 43  1  0
 14 44  1  0
 14 45  1  0
 15 46  1  0
 15 47  1  0
 18 48  1  0
 18 49  1  0
 21 50  1  0
 22 51  1  0
 23 52  1  0
 24 53  1  0
M  END
>  <smiles>  (1) 
Cn1c(CN2CCN(C3CCCCCC3)C(=O)C2)nc2ccccc21

>  <score_type>  (1) 
oracle

>  <origin>  (1) 
adg

>  <m_score__min__energy>  (1) 
-5.9699999999999998

>  <m_primary>  (1) 
energy

$$$$
1:0
     RDKit          3D

 64 66  0  0  0  0  0  0  0  0999 V2000
   57.0300   31.1850   42.6970 C   0  0  0  0  0  0  0  0  0  0  0  0
   56.2300   30.0430   43.2260 C   0  0  0  0  0  0  0  0  0  0  0  0
   56.9750   29.0020   43.7990 O   0  0  0  0  0  0  0  0  0  0  0  0
   57.7410   29.0880   44.9470 C   0  0  0  0  0  0  0  0  0  0  0  0
   58.8060   29.9540   45.0910 C   0  0  0  0  0  0  0  0  0  0  0  0
   59.5590   30.0240   46.2480 C   0  0  0  0  0  0  0  0  0  0  0  0
   60.6230   30.8890   46.3890 C   0  0  0  0  0  0  0  0  0  0  0  0
   61.3760   30.9400   47.5730 C   0  0  0  0  0  0  0  0  0  0  0  0
   62.5130   31.8630   47.6150 C   0  0  0  0  0  0  0  0  0  0  0  0
   62.1590   33.2070   47.5930 N   0  0  0  0  0  0  0  0  0  0  0  0
   61.7520   33.8470   46.4220 C   0  0  0  0  0  0  0  0  0  0  0  0
   60.4320   34.5810   46.5330 C   0  0  0  0  0  0  0  0  0  0  0  0
   59.4340   33.9410   45.5940 C   0  0  0  0  0  0  0  0  0  0  0  0
   58.1370   33.9690   46.1950 N   0  0  0  0  0  0  0  0  0  0  0  0
   57.0940   33.8900   45.2070 C   0  0  0  0  0  0  0  0  0  0  0  0
   57.9820   32.9500   47.2290 C   0  0  0  0  0  0  0  0  0  0  0  0
   62.3270   33.9840   48.7730 C   0  0  0  0  0  0  0  0  0  0  0  0
   61.3380   33.7460   49.8410 C   0  0  0  0  0  0  0  0  0  0  0  0
   59.9690   33.7080   49.7950 C   0  0  0  0  0  0  0  0  0  0  0  0
   59.2870   33.4720   50.9070 C   0  0  0  0  0  0  0  0  0  0  0  0
   59.9720   33.2700   52.0800 C   0  0  0  0  0  0  0  0  0  0  0  0
   61.7700   33.4360   51.5380 S   0  0  0  0  0  0  0  0  0  0  0  0
   60.9790   30.0830   48.5640 C   0  0  0  0  0  0  0  0  0  0  0  0
   61.5600   30.0290   49.6750 O   0  0  0  0  0  0  0  0  0  0  0  0
   59.9250   29.2260   48.4220 N   0  0  0  0  0  0  0  0  0  0  0  0
   59.2050   29.1800   47.2780 C   0  0  0  0  0  0  0  0  0  0  0  0
   58.1470   28.3010   47.1710 C   0  0  0  0  0  0  0  0  0  0  0  0
   57.4080   28.2510   46.0010 C   0  0  0  0  0  0  0  0  0  0  0  0
   56.3460   27.3890   45.8530 O   0  0  0  0  0  0  0  0  0  0  0  0
   56.3830   25.9970   45.8520 C   0  0  0  0  0  0  0  0  0  0  0  0
   57.4150   25.5430   44.8440 C   0  0  0  0  0  0  0  0  0  0  0  0
   57.4378   31.7671   43.5366 H   0  0  0  0  0  0  0  0  0  0  0  0
   57.8568   30.7998   42.0821 H   0  0  0  0  0  0  0  0  0  0  0  0
   56.3856   31.8304   42.0821 H   0  0  0  0  0  0  0  0  0  0  0  0
   55.5466   30.4341   43.9941 H   0  0  0  0  0  0  0  0  0  0  0  0
   55.7149   29.6055   42.3581 H   0  0  0  0  0  0  0  0  0  0  0  0
   59.0660   30.6151   44.2512 H   0  0  0  0  0  0  0  0  0  0  0  0
   60.8883   31.5548   45.5545 H   0  0  0  0  0  0  0  0  0  0  0  0
   63.0790   31.6708   48.5384 H   0  0  0  0  0  0  0  0  0  0  0  0
   63.1035   31.6775   46.7056 H   0  0  0  0  0  0  0  0  0  0  0  0
   62.5273   34.5751   46.1413 H   0  0  0  0  0  0  0  0  0  0  0  0
   61.6088   33.0586   45.6684 H   0  0  0  0  0  0  0  0  0  0  0  0
   60.0600   34.5173   47.5662 H   0  0  0  0  0  0  0  0  0  0  0  0
   60.5705   35.6387   46.2645 H   0  0  0  0  0  0  0  0  0  0  0  0
   59.4120   34.4978   44.6456 H   0  0  0  0  0  0  0  0  0  0  0  0
   59.7275   32.8992   45.3975 H   0  0  0  0  0  0  0  0  0  0  0  0
   56.1181   33.8161   45.7092 H   0  0  0  0  0  0  0  0  0  0  0  0
   57.1154   34.7923   44.5783 H   0  0  0  0  0  0  0  0  0  0  0  0
   57.2511   33.0012   44.5783 H   0  0  0  0  0  0  0  0  0  0  0  0
   58.0535   33.4202   48.2209 H   0  0  0  0  0  0  0  0  0  0  0  0
   56.9999   32.4661   47.1226 H   0  0  0  0  0  0  0  0  0  0  0  0
   58.7758   32.1959   47.1226 H   0  0  0  0  0  0  0  0  0  0  0  0
   63.3249   33.7666   49.1817 H   0  0  0  0  0  0  0  0  0  0  0  0
   62.1899   35.0310   48.4649 H   0  0  0  0  0  0  0  0  0  0  0  0
   59.4408   33.8718   48.8441 H   0  0  0  0  0  0  0  0  0  0  0  0
   58.1876   33.4384   50.8904 H   0  0  0  0  0  0  0  0  0  0  0  0
   59.5721   33.0633   53.0837 H   0  0  0  0  0  0  0  0  0  0  0  0
   59.6510   28.5810   49.2050 H   0  0  0  0  0  0  0  0  0  0  0  0
   57.8911   27.6414   48.0132 H   0  0  0  0  0  0  0  0  0  0  0  0
   56.6573   25.6328   46.8530 H   0  0  0  0  0  0  0  0  0  0  0  0
   55.3945   25.5948   45.5853 H   0  0  0  0  0  0  0  0  0  0  0  0
   58.2979   25.1546   45.3728 H   0  0  0  0  0  0  0  0  0  0  0  0
   56.9872   24.7500   44.2130 H   0  0  0  0  0  0  0  0  0  0  0  0
   57.7105   26.3942   44.2130 H   0  0  0  0  0  0  0  0  0  0  0  0
  1  2  1  0
  2  3  1  0
  3  4  1  0
  4  5  2  0
  5  6  1  0
  6  7  1  0
  7  8  2  0
  8  9  1  0
  9 10  1  0
 10 11  1  0
 11 12  1  0
 12 13  1  0
 13 14  1  0
 14 15  1  0
 14 16  1  0
 10 17  1  0
 17 18  1  0
 18 19  2  0
 19 20  1  0
 20 21  2  0
 21 22  1  0
  8 23  1  0
 23 24  2  0
 23 25  1  0
 25 26  1  0
 26 27  1  0
 27 28  2  0
 28 29  1  0
 29 30  1  0
 30 31  1  0
 28  4  1  0
 26  6  2  0
 22 18  1  0
  1 32  1  0
  1 33  1  0
  1 34  1  0
  2 35  1  0
  2 36  1  0
  5 37  1  0
  7 38  1  0
  9 39  1  0
  9 40  1  0
 11 41  1  0
 11 42  1  0
 12 43  1  0
 12 44  1  0
 13 45  1  0
 13 46  1  0
 15 47  1  0
 15 48  1  0
 15 49  1  0
 16 50  1  0
 16 51  1  0
 16 52  1  0
 17 53  1  0
 17 54  1  0
 19 55  1  0
 20 56  1  0
 21 57  1  0
 25 58  1  0
 27 59  1  0
 30 60  1  0
 30 61  1  0
 31 62  1  0
 31 63  1  0
 31 64  1  0
M  END
>  <smiles>  (2) 
CCOc1cc2cc(CN(CCCN(C)C)Cc3cccs3)c(=O)[nH]c2cc1OCC

>  <score_type>  (2) 
oracle

>  <origin>  (2) 
adg

>  <m_score__min__energy>  (2) 
-7.5599999999999996

>  <m_primary>  (2) 
energy

$$$$
2:0
     RDKit          3D

 48 52  0  0  0  0  0  0  0  0999 V2000
   59.7960   30.1200   50.2120 C   0  0  0  0  0  0  0  0  0  0  0  0
   60.0650   28.7710   49.7760 N   0  0  0  0  0  0  0  0  0  0  0  0
   60.7140   27.8560   50.5570 C   0  0  0  0  0  0  0  0  0  0  0  0
   60.7900   26.7020   49.8250 C   0  0  0  0  0  0  0  0  0  0  0  0
   60.2030   26.9520   48.6650 N   0  0  0  0  0  0  0  0  0  0  0  0
   59.7420   28.2370   48.6100 C   0  0  0  0  0  0  0  0  0  0  0  0
   59.0620   28.7460   47.4360 C   0  0  0  0  0  0  0  0  0  0  0  0
   59.0020   30.0530   47.0510 C   0  0  0  0  0  0  0  0  0  0  0  0
   58.3300   30.4800   45.8980 C   0  0  0  0  0  0  0  0  0  0  0  0
   58.3060   31.8950   45.5470 C   0  0  0  0  0  0  0  0  0  0  0  0
   58.8740   32.8110   46.4310 C   0  0  0  0  0  0  0  0  0  0  0  0
   58.8760   34.1600   46.1440 C   0  0  0  0  0  0  0  0  0  0  0  0
   58.3050   34.5930   44.9620 C   0  0  0  0  0  0  0  0  0  0  0  0
   57.7610   33.6950   44.1170 N   0  0  0  0  0  0  0  0  0  0  0  0
   57.7500   32.3730   44.3810 C   0  0  0  0  0  0  0  0  0  0  0  0
   57.6880   29.5740   45.0880 C   0  0  0  0  0  0  0  0  0  0  0  0
   57.7390   28.2530   45.4620 C   0  0  0  0  0  0  0  0  0  0  0  0
   57.2130   27.1680   44.8750 N   0  0  0  0  0  0  0  0  0  0  0  0
   57.5160   26.0750   45.5930 C   0  0  0  0  0  0  0  0  0  0  0  0
   57.1000   24.7040   45.2410 C   0  0  0  0  0  0  0  0  0  0  0  0
   57.3920   24.4310   43.8040 C   0  0  0  0  0  0  0  0  0  0  0  0
   56.6370   23.2850   43.2070 C   0  0  0  0  0  0  0  0  0  0  0  0
   55.3450   23.1370   43.6770 O   0  0  0  0  0  0  0  0  0  0  0  0
   55.2390   23.1660   45.0580 C   0  0  0  0  0  0  0  0  0  0  0  0
   55.6190   24.5620   45.5630 C   0  0  0  0  0  0  0  0  0  0  0  0
   58.2340   26.5000   46.6280 N   0  0  0  0  0  0  0  0  0  0  0  0
   58.4010   27.8430   46.5930 C   0  0  0  0  0  0  0  0  0  0  0  0
   59.7889   30.1555   51.3114 H   0  0  0  0  0  0  0  0  0  0  0  0
   60.5778   30.7921   49.8285 H   0  0  0  0  0  0  0  0  0  0  0  0
   58.8162   30.4408   49.8285 H   0  0  0  0  0  0  0  0  0  0  0  0
   61.0997   28.0158   51.5747 H   0  0  0  0  0  0  0  0  0  0  0  0
   61.2489   25.7529   50.1390 H   0  0  0  0  0  0  0  0  0  0  0  0
   59.5045   30.8070   47.6746 H   0  0  0  0  0  0  0  0  0  0  0  0
   59.3258   32.4538   47.3682 H   0  0  0  0  0  0  0  0  0  0  0  0
   59.3248   34.8797   46.8444 H   0  0  0  0  0  0  0  0  0  0  0  0
   58.2947   35.6643   44.7125 H   0  0  0  0  0  0  0  0  0  0  0  0
   57.2957   31.6741   43.6632 H   0  0  0  0  0  0  0  0  0  0  0  0
   57.1562   29.8929   44.1794 H   0  0  0  0  0  0  0  0  0  0  0  0
   56.6550   27.1710   43.9920 H   0  0  0  0  0  0  0  0  0  0  0  0
   57.6633   23.9612   45.8249 H   0  0  0  0  0  0  0  0  0  0  0  0
   57.1472   25.3362   43.2290 H   0  0  0  0  0  0  0  0  0  0  0  0
   58.4555   24.1541   43.7558 H   0  0  0  0  0  0  0  0  0  0  0  0
   56.5905   23.4353   42.1183 H   0  0  0  0  0  0  0  0  0  0  0  0
   57.1789   22.3721   43.4950 H   0  0  0  0  0  0  0  0  0  0  0  0
   54.2041   22.9372   45.3525 H   0  0  0  0  0  0  0  0  0  0  0  0
   55.9153   22.4175   45.4965 H   0  0  0  0  0  0  0  0  0  0  0  0
   55.0338   25.3346   45.0427 H   0  0  0  0  0  0  0  0  0  0  0  0
   55.4147   24.6842   46.6369 H   0  0  0  0  0  0  0  0  0  0  0  0
  1  2  1  0
  2  3  1  0
  3  4  2  0
  4  5  1  0
  5  6  2  0
  6  7  1  0
  7  8  2  0
  8  9  1  0
  9 10  1  0
 10 11  2  0
 11 12  1  0
 12 13  2  0
 13 14  1  0
 14 15  2  0
  9 16  2  0
 16 17  1  0
 17 18  1  0
 18 19  1  0
 19 20  1  0
 20 21  1  0
 21 22  1  0
 22 23  1  0
 23 24  1  0
 24 25  1  0
 19 26  2  0
 26 27  1  0
  6  2  1  0
 27  7  1  0
 15 10  1  0
 27 17  2  0
 25 20  1  0
  1 28  1  0
  1 29  1  0
  1 30  1  0
  3 31  1  0
  4 32  1  0
  8 33  1  0
 11 34  1  0
 12 35  1  0
 13 36  1  0
 15 37  1  0
 16 38  1  0
 18 39  1  0
 20 40  1  0
 21 41  1  0
 21 42  1  0
 22 43  1  0
 22 44  1  0
 24 45  1  0
 24 46  1  0
 25 47  1  0
 25 48  1  0
M  END
>  <smiles>  (3) 
Cn1ccnc1-c1cc(-c2cccnc2)cc2[nH]c(C3CCOCC3)nc12

>  <score_type>  (3) 
oracle

>  <origin>  (3) 
adg

>  <m_score__min__energy>  (3) 
-7.7999999999999998

>  <m_primary>  (3) 
energy

$$$$
3:0
     RDKit          3D

 44 45  0  0  0  0  0  0  0  0999 V2000
   62.5080   31.6100   47.4980 C   0  0  0  0  0  0  0  0  0  0  0  0
   61.2810   30.8570   47.1350 C   0  0  0  0  0  0  0  0  0  0  0  0
   60.0300   31.5520   47.3110 N   0  0  0  0  0  0  0  0  0  0  0  0
   59.2830   31.2200   48.5390 C   0  0  0  0  0  0  0  0  0  0  0  0
   58.5380   32.3780   49.1050 C   0  0  0  0  0  0  0  0  0  0  0  0
   59.4860   32.5290   46.4520 C   0  0  0  0  0  0  0  0  0  0  0  0
   60.0370   33.8140   46.5940 C   0  0  0  0  0  0  0  0  0  0  0  0
   59.6490   34.8790   45.8300 C   0  0  0  0  0  0  0  0  0  0  0  0
   58.6760   34.7010   44.8750 C   0  0  0  0  0  0  0  0  0  0  0  0
   58.1410   33.4450   44.7410 C   0  0  0  0  0  0  0  0  0  0  0  0
   58.5270   32.3550   45.5120 C   0  0  0  0  0  0  0  0  0  0  0  0
   57.7660   30.8280   45.2600 S   0  0  0  0  0  0  0  0  0  0  0  0
   56.3230   30.9030   44.8700 O   0  0  0  0  0  0  0  0  0  0  0  0
   57.7420   30.1080   46.6150 O   0  0  0  0  0  0  0  0  0  0  0  0
   58.6680   29.7670   44.2380 N   0  0  0  0  0  0  0  0  0  0  0  0
   59.8530   29.3200   44.8770 C   0  0  0  0  0  0  0  0  0  0  0  0
   59.8230   27.9880   45.5250 C   0  0  0  0  0  0  0  0  0  0  0  0
   58.9310   26.9680   44.9000 C   0  0  0  0  0  0  0  0  0  0  0  0
   57.5590   27.6050   44.7020 C   0  0  0  0  0  0  0  0  0  0  0  0
   57.7810   28.7510   43.7560 C   0  0  0  0  0  0  0  0  0  0  0  0
   62.5949   31.6633   48.5933 H   0  0  0  0  0  0  0  0  0  0  0  0
   63.3889   31.0968   47.0848 H   0  0  0  0  0  0  0  0  0  0  0  0
   62.4493   32.6278   47.0848 H   0  0  0  0  0  0  0  0  0  0  0  0
   61.3618   30.5755   46.0747 H   0  0  0  0  0  0  0  0  0  0  0  0
   61.2435   30.0047   47.8293 H   0  0  0  0  0  0  0  0  0  0  0  0
   58.5630   30.4220   48.3049 H   0  0  0  0  0  0  0  0  0  0  0  0
   60.0189   30.9052   49.2935 H   0  0  0  0  0  0  0  0  0  0  0  0
   58.5678   32.3316   50.2036 H   0  0  0  0  0  0  0  0  0  0  0  0
   59.0032   33.3149   48.7648 H   0  0  0  0  0  0  0  0  0  0  0  0
   57.4925   32.3431   48.7648 H   0  0  0  0  0  0  0  0  0  0  0  0
   60.8161   33.9699   47.3547 H   0  0  0  0  0  0  0  0  0  0  0  0
   60.1098   35.8669   45.9775 H   0  0  0  0  0  0  0  0  0  0  0  0
   58.3390   35.5350   44.2418 H   0  0  0  0  0  0  0  0  0  0  0  0
   57.3619   33.2918   43.9798 H   0  0  0  0  0  0  0  0  0  0  0  0
   60.6483   29.2984   44.1174 H   0  0  0  0  0  0  0  0  0  0  0  0
   60.0088   30.0289   45.7035 H   0  0  0  0  0  0  0  0  0  0  0  0
   60.8476   27.5878   45.5157 H   0  0  0  0  0  0  0  0  0  0  0  0
   59.4115   28.1605   46.5304 H   0  0  0  0  0  0  0  0  0  0  0  0
   59.3424   26.6564   43.9286 H   0  0  0  0  0  0  0  0  0  0  0  0
   58.8524   26.0803   45.5448 H   0  0  0  0  0  0  0  0  0  0  0  0
   56.8569   26.8783   44.2674 H   0  0  0  0  0  0  0  0  0  0  0  0
   57.1238   27.9409   45.6548 H   0  0  0  0  0  0  0  0  0  0  0  0
   58.1991   28.3472   42.8221 H   0  0  0  0  0  0  0  0  0  0  0  0
   56.8021   29.2343   43.6213 H   0  0  0  0  0  0  0  0  0  0  0  0
  1  2  1  0
  2  3  1  0
  3  4  1  0
  4  5  1  0
  3  6  1  0
  6  7  2  0
  7  8  1  0
  8  9  2  0
  9 10  1  0
 10 11  2  0
 11 12  1  0
 12 13  2  0
 12 14  2  0
 12 15  1  0
 15 16  1  0
 16 17  1  0
 17 18  1  0
 18 19  1  0
 19 20  1  0
 11  6  1  0
 20 15  1  0
  1 21  1  0
  1 22  1  0
  1 23  1  0
  2 24  1  0
  2 25  1  0
  4 26  1  0
  4 27  1  0
  5 28  1  0
  5 29  1  0
  5 30  1  0
  7 31  1  0
  8 32  1  0
  9 33  1  0
 10 34  1  0
 16 35  1  0
 16 36  1  0
 17 37  1  0
 17 38  1  0
 18 39  1  0
 18 40  1  0
 19 41  1  0
 19 42  1  0
 20 43  1  0
 20 44  1  0
M  END
>  <smiles>  (4) 
CCN(CC)c1ccccc1S(=O)(=O)N1CCCCC1

>  <score_type>  (4) 
oracle

>  <origin>  (4) 
adg

>  <m_score__min__energy>  (4) 
-6.8600000000000003

>  <m_primary>  (4) 
energy

$$$$
4:0
     RDKit          3D

 95 99  0  0  1  0  0  0  0  0999 V2000
   58.1680   27.1060   43.0650 C   0  0  0  0  0  0  0  0  0  0  0  0
   57.7320   28.1630   44.0780 C   0  0  0  0  0  0  0  0  0  0  0  0
   58.7420   28.2130   45.0810 N   0  0  0  0  0  0  0  0  0  0  0  0
   60.0370   28.2330   44.4870 C   0  0  0  0  0  0  0  0  0  0  0  0
   58.6130   27.2490   46.1430 C   0  0  0  0  0  0  0  0  0  0  0  0
   59.9430   26.5810   46.3030 C   0  0  0  0  0  0  0  0  0  0  0  0
   60.8120   27.1480   47.1860 O   0  0  0  0  0  0  0  0  0  0  0  0
   60.2930   27.5880   48.3800 C   0  0  0  0  0  0  0  0  0  0  0  0
   60.2280   29.0970   48.4580 C   0  0  0  0  0  0  0  0  0  0  0  0
   60.2490   29.7960   47.2350 N   0  0  0  0  0  0  0  0  0  0  0  0
   60.1870   31.1240   46.8340 C   0  0  0  0  0  0  0  0  0  0  0  0
   59.1810   31.7470   46.1400 C   0  0  0  0  0  0  0  0  0  0  0  0
   58.1340   31.0260   45.6210 C   0  0  0  0  0  0  0  0  0  0  0  0
   57.1040   31.5730   44.8910 C   0  0  0  0  0  0  0  0  0  0  0  0
   57.0690   32.9200   44.6330 C   0  0  0  0  0  0  0  0  0  0  0  0
   58.1060   33.6790   45.1360 C   0  0  0  0  0  0  0  0  0  0  0  0
   59.1510   33.1120   45.8780 C   0  0  0  0  0  0  0  0  0  0  0  0
   60.1520   33.9340   46.3100 N   0  0  0  0  0  0  0  0  0  0  0  0
   60.0090   35.3190   45.9940 C   0  0  0  0  0  0  0  0  0  0  0  0
   61.1500   33.3610   46.9870 C   0  0  0  0  0  0  0  0  0  0  0  0
   62.1700   34.2030   47.4280 C   0  0  0  0  0  0  0  0  0  0  0  0
   63.2570   33.7210   48.1470 C   0  0  0  0  0  0  0  0  0  0  0  0
   63.3310   32.3880   48.4310 C   0  0  0  0  0  0  0  0  0  0  0  0
   64.3340   31.8110   49.1210 O   0  0  0  0  0  0  0  0  0  0  0  0
   64.9180   32.0130   50.3370 C   0  0  0  0  0  0  0  0  0  0  0  0
   65.0830   30.8510   51.2510 C   0  0  0  0  0  0  0  0  0  0  0  0
   63.9170   30.3790   51.9180 N   0  0  2  0  0  0  0  0  0  0  0  0
   64.0560   28.9120   52.0230 C   0  0  0  0  0  0  0  0  0  0  0  0
   62.7050   30.5720   51.1360 C   0  0  0  0  0  0  0  0  0  0  0  0
   61.5910   29.8080   51.8180 C   0  0  0  0  0  0  0  0  0  0  0  0
   61.2310   30.4350   53.0560 N   0  0  2  0  0  0  0  0  0  0  0  0
   61.1980   29.4290   54.1260 C   0  0  0  0  0  0  0  0  0  0  0  0
   59.9490   31.0990   53.0530 C   0  0  0  0  0  0  0  0  0  0  0  0
   59.6620   31.8490   51.8130 C   0  0  0  0  0  0  0  0  0  0  0  0
   58.7910   31.2880   50.9020 C   0  0  0  0  0  0  0  0  0  0  0  0
   58.4530   31.8860   49.7070 C   0  0  0  0  0  0  0  0  0  0  0  0
   59.0110   33.1100   49.3990 C   0  0  0  0  0  0  0  0  0  0  0  0
   59.8850   33.6810   50.3020 C   0  0  0  0  0  0  0  0  0  0  0  0
   60.2210   33.0740   51.5050 C   0  0  0  0  0  0  0  0  0  0  0  0
   62.2440   31.4270   53.4010 C   0  0  0  0  0  0  0  0  0  0  0  0
   63.6570   30.8850   53.2240 C   0  0  0  0  0  0  0  0  0  0  0  0
   62.2960   31.5520   47.9780 C   0  0  0  0  0  0  0  0  0  0  0  0
   61.2150   32.0060   47.2670 C   0  0  0  0  0  0  0  0  0  0  0  0
   58.5349   26.2165   43.5981 H   0  0  0  0  0  0  0  0  0  0  0  0
   57.3112   26.8277   42.4337 H   0  0  0  0  0  0  0  0  0  0  0  0
   58.9718   27.5127   42.4337 H   0  0  0  0  0  0  0  0  0  0  0  0
   57.6377   29.1425   43.5864 H   0  0  0  0  0  0  0  0  0  0  0  0
   56.7542   27.9116   44.5147 H   0  0  0  0  0  0  0  0  0  0  0  0
   60.8025   28.2448   45.2768 H   0  0  0  0  0  0  0  0  0  0  0  0
   60.1680   27.3368   43.8628 H   0  0  0  0  0  0  0  0  0  0  0  0
   60.1402   29.1328   43.8628 H   0  0  0  0  0  0  0  0  0  0  0  0
   58.3311   27.7549   47.0782 H   0  0  0  0  0  0  0  0  0  0  0  0
   57.8329   26.5107   45.9057 H   0  0  0  0  0  0  0  0  0  0  0  0
   59.7592   25.5480   46.6334 H   0  0  0  0  0  0  0  0  0  0  0  0
   60.4305   26.6704   45.3210 H   0  0  0  0  0  0  0  0  0  0  0  0
   59.2762   27.1841   48.4937 H   0  0  0  0  0  0  0  0  0  0  0  0
   60.9572   27.2384   49.1841 H   0  0  0  0  0  0  0  0  0  0  0  0
   59.2963   29.3639   48.9783 H   0  0  0  0  0  0  0  0  0  0  0  0
   61.1485   29.3991   48.9790 H   0  0  0  0  0  0  0  0  0  0  0  0
   60.2800   29.1050   46.3910 H   0  0  0  0  0  0  0  0  0  0  0  0
   58.1177   29.9409   45.8005 H   0  0  0  0  0  0  0  0  0  0  0  0
   56.3011   30.9243   44.5107 H   0  0  0  0  0  0  0  0  0  0  0  0
   56.2524   33.3739   44.0523 H   0  0  0  0  0  0  0  0  0  0  0  0
   58.1126   34.7629   44.9487 H   0  0  0  0  0  0  0  0  0  0  0  0
   59.9487   35.9030   46.9242 H   0  0  0  0  0  0  0  0  0  0  0  0
   60.8775   35.6528   45.4072 H   0  0  0  0  0  0  0  0  0  0  0  0
   59.0907   35.4683   45.4072 H   0  0  0  0  0  0  0  0  0  0  0  0
   62.1127   35.2777   47.2007 H   0  0  0  0  0  0  0  0  0  0  0  0
   64.0491   34.4061   48.4836 H   0  0  0  0  0  0  0  0  0  0  0  0
   65.9214   32.4234   50.1504 H   0  0  0  0  0  0  0  0  0  0  0  0
   64.2135   32.6716   50.8661 H   0  0  0  0  0  0  0  0  0  0  0  0
   65.4854   30.0170   50.6572 H   0  0  0  0  0  0  0  0  0  0  0  0
   65.7430   31.2120   52.0535 H   0  0  0  0  0  0  0  0  0  0  0  0
   64.0835   28.6213   53.0835 H   0  0  0  0  0  0  0  0  0  0  0  0
   63.1998   28.4265   51.5318 H   0  0  0  0  0  0  0  0  0  0  0  0
   64.9881   28.5959   51.5318 H   0  0  0  0  0  0  0  0  0  0  0  0
   62.8524   30.1883   50.1157 H   0  0  0  0  0  0  0  0  0  0  0  0
   62.4550   31.6412   51.0704 H   0  0  0  0  0  0  0  0  0  0  0  0
   61.9279   28.7802   52.0183 H   0  0  0  0  0  0  0  0  0  0  0  0
   60.7118   29.7993   51.1570 H   0  0  0  0  0  0  0  0  0  0  0  0
   61.2145   29.9329   55.1037 H   0  0  0  0  0  0  0  0  0  0  0  0
   60.2797   28.8299   54.0378 H   0  0  0  0  0  0  0  0  0  0  0  0
   62.0750   28.7710   54.0378 H   0  0  0  0  0  0  0  0  0  0  0  0
   59.1655   30.3384   53.1860 H   0  0  0  0  0  0  0  0  0  0  0  0
   59.9702   31.8341   53.8711 H   0  0  0  0  0  0  0  0  0  0  0  0
   58.3428   30.3125   51.1418 H   0  0  0  0  0  0  0  0  0  0  0  0
   57.7529   31.3977   49.0132 H   0  0  0  0  0  0  0  0  0  0  0  0
   58.7649   33.6190   48.4554 H   0  0  0  0  0  0  0  0  0  0  0  0
   60.3332   34.6557   50.0590 H   0  0  0  0  0  0  0  0  0  0  0  0
   60.9204   33.5605   52.2008 H   0  0  0  0  0  0  0  0  0  0  0  0
   62.1067   31.7245   54.4511 H   0  0  0  0  0  0  0  0  0  0  0  0
   62.1224   32.2862   52.7250 H   0  0  0  0  0  0  0  0  0  0  0  0
   63.8102   30.0715   53.9484 H   0  0  0  0  0  0  0  0  0  0  0  0
   64.3466   31.7266   53.3858 H   0  0  0  0  0  0  0  0  0  0  0  0
   62.3563   30.4775   48.2057 H   0  0  0  0  0  0  0  0  0  0  0  0
  1  2  1  0
  2  3  1  0
  3  4  1  0
  3  5  1  0
  5  6  1  0
  6  7  1  0
  7  8  1  0
  8  9  1  0
  9 10  1  0
 10 11  1  0
 11 12  2  0
 12 13  1  0
 13 14  2  0
 14 15  1  0
 15 16  2  0
 16 17  1  0
 17 18  2  0
 18 19  1  0
 18 20  1  0
 20 21  2  0
 21 22  1  0
 22 23  2  0
 23 24  1  0
 24 25  1  0
 25 26  1  0
 27 26  1  6
 27 28  1  0
 27 29  1  0
 29 30  1  0
 30 31  1  0
 31 32  1  1
 31 33  1  0
 33 34  1  0
 34 35  2  0
 35 36  1  0
 36 37  2  0
 37 38  1  0
 38 39  2  0
 31 40  1  0
 40 41  1  0
 23 42  1  0
 42 43  2  0
 43 11  1  0
 17 12  1  0
 43 20  1  0
 41 27  1  0
 39 34  1  0
  1 44  1  0
  1 45  1  0
  1 46  1  0
  2 47  1  0
  2 48  1  0
  4 49  1  0
  4 50  1  0
  4 51  1  0
  5 52  1  0
  5 53  1  0
  6 54  1  0
  6 55  1  0
  8 56  1  0
  8 57  1  0
  9 58  1  0
  9 59  1  0
 10 60  1  0
 13 61  1  0
 14 62  1  0
 15 63  1  0
 16 64  1  0
 19 65  1  0
 19 66  1  0
 19 67  1  0
 21 68  1  0
 22 69  1  0
 25 70  1  0
 25 71  1  0
 26 72  1  0
 26 73  1  0
 28 74  1  0
 28 75  1  0
 28 76  1  0
 29 77  1  0
 29 78  1  0
 30 79  1  0
 30 80  1  0
 32 81  1  0
 32 82  1  0
 32 83  1  0
 33 84  1  0
 33 85  1  0
 35 86  1  0
 36 87  1  0
 37 88  1  0
 38 89  1  0
 39 90  1  0
 40 91  1  0
 40 92  1  0
 41 93  1  0
 41 94  1  0
 42 95  1  0
M  CHG  3  18   1  27   1  31   1
M  END
>  <smiles>  (5) 
CCN(C)CCOCCNc1c2ccccc2[n+](C)c2ccc(OCC[N+]3(C)CC[N+](C)(Cc4ccccc4)CC3)cc12

>  <score_type>  (5) 
oracle

>  <origin>  (5) 
adg

>  <m_score__min__energy>  (5) 
-5.8700000000000001

>  <m_primary>  (5) 
energy

$$$$
5:0
     RDKit          3D

 49 51  0  0  0  0  0  0  0  0999 V2000
   57.8120   26.4530   45.0240 C   0  0  0  0  0  0  0  0  0  0  0  0
   57.5220   27.6110   45.7520 O   0  0  0  0  0  0  0  0  0  0  0  0
   57.5770   28.9110   45.3640 C   0  0  0  0  0  0  0  0  0  0  0  0
   56.6500   29.3800   44.4340 C   0  0  0  0  0  0  0  0  0  0  0  0
   56.6400   30.6830   43.9900 C   0  0  0  0  0  0  0  0  0  0  0  0
   57.5950   31.5290   44.5060 C   0  0  0  0  0  0  0  0  0  0  0  0
   57.6210   32.8850   44.0780 N   0  0  0  0  0  0  0  0  0  0  0  0
   57.0570   33.9710   44.8630 C   0  0  0  0  0  0  0  0  0  0  0  0
   57.5080   33.8480   46.3170 C   0  0  0  0  0  0  0  0  0  0  0  0
   58.8660   34.2710   46.4000 N   0  0  0  0  0  0  0  0  0  0  0  0
   59.3060   35.1030   45.3310 C   0  0  0  0  0  0  0  0  0  0  0  0
   59.3600   34.5830   47.6970 C   0  0  0  0  0  0  0  0  0  0  0  0
   58.5220   31.0520   45.4390 C   0  0  0  0  0  0  0  0  0  0  0  0
   59.5200   31.6750   46.0670 N   0  0  0  0  0  0  0  0  0  0  0  0
   60.1800   30.8280   46.9020 C   0  0  0  0  0  0  0  0  0  0  0  0
   61.3170   31.2630   47.6870 C   0  0  0  0  0  0  0  0  0  0  0  0
   61.6520   30.8290   48.9300 C   0  0  0  0  0  0  0  0  0  0  0  0
   62.7870   31.2750   49.6250 C   0  0  0  0  0  0  0  0  0  0  0  0
   63.6260   32.2010   49.0490 C   0  0  0  0  0  0  0  0  0  0  0  0
   64.7110   32.6090   49.7480 F   0  0  0  0  0  0  0  0  0  0  0  0
   63.3120   32.6520   47.8050 C   0  0  0  0  0  0  0  0  0  0  0  0
   64.1310   33.5620   47.2300 F   0  0  0  0  0  0  0  0  0  0  0  0
   62.2000   32.2100   47.1320 C   0  0  0  0  0  0  0  0  0  0  0  0
   59.5580   29.6480   46.7730 N   0  0  0  0  0  0  0  0  0  0  0  0
   59.9100   28.4300   47.4460 C   0  0  0  0  0  0  0  0  0  0  0  0
   58.5330   29.7600   45.8780 C   0  0  0  0  0  0  0  0  0  0  0  0
   58.0192   25.6255   45.7185 H   0  0  0  0  0  0  0  0  0  0  0  0
   56.9512   26.1930   44.3904 H   0  0  0  0  0  0  0  0  0  0  0  0
   58.6937   26.6294   44.3904 H   0  0  0  0  0  0  0  0  0  0  0  0
   55.8973   28.6815   44.0397 H   0  0  0  0  0  0  0  0  0  0  0  0
   55.9006   31.0329   43.2545 H   0  0  0  0  0  0  0  0  0  0  0  0
   58.0640   33.1050   43.1630 H   0  0  0  0  0  0  0  0  0  0  0  0
   57.4000   34.9330   44.4546 H   0  0  0  0  0  0  0  0  0  0  0  0
   55.9591   33.9191   44.8180 H   0  0  0  0  0  0  0  0  0  0  0  0
   56.8799   34.4853   46.9567 H   0  0  0  0  0  0  0  0  0  0  0  0
   57.4135   32.8061   46.6569 H   0  0  0  0  0  0  0  0  0  0  0  0
   59.7832   36.0053   45.7411 H   0  0  0  0  0  0  0  0  0  0  0  0
   60.0313   34.5533   44.7131 H   0  0  0  0  0  0  0  0  0  0  0  0
   58.4434   35.3930   44.7131 H   0  0  0  0  0  0  0  0  0  0  0  0
   58.6879   34.1585   48.4573 H   0  0  0  0  0  0  0  0  0  0  0  0
   60.3667   34.1565   47.8183 H   0  0  0  0  0  0  0  0  0  0  0  0
   59.4075   35.6753   47.8183 H   0  0  0  0  0  0  0  0  0  0  0  0
   59.7170   32.7010   45.8930 H   0  0  0  0  0  0  0  0  0  0  0  0
   60.9997   30.0894   49.4173 H   0  0  0  0  0  0  0  0  0  0  0  0
   63.0057   30.8844   50.6298 H   0  0  0  0  0  0  0  0  0  0  0  0
   61.9920   32.6078   46.1278 H   0  0  0  0  0  0  0  0  0  0  0  0
   59.8649   28.5860   48.5339 H   0  0  0  0  0  0  0  0  0  0  0  0
   59.2046   27.6359   47.1599 H   0  0  0  0  0  0  0  0  0  0  0  0
   60.9303   28.1347   47.1599 H   0  0  0  0  0  0  0  0  0  0  0  0
  1  2  1  0
  2  3  1  0
  3  4  2  0
  4  5  1  0
  5  6  2  0
  6  7  1  0
  7  8  1  0
  8  9  1  0
  9 10  1  0
 10 11  1  0
 10 12  1  0
  6 13  1  0
 13 14  1  0
 14 15  1  0
 15 16  1  0
 16 17  2  0
 17 18  1  0
 18 19  2  0
 19 20  1  0
 19 21  1  0
 21 22  1  0
 21 23  2  0
 15 24  2  0
 24 25  1  0
 24 26  1  0
 26  3  1  0
 26 13  2  0
 23 16  1  0
  1 27  1  0
  1 28  1  0
  1 29  1  0
  4 30  1  0
  5 31  1  0
  7 32  1  0
  8 33  1  0
  8 34  1  0
  9 35  1  0
  9 36  1  0
 11 37  1  0
 11 38  1  0
 11 39  1  0
 12 40  1  0
 12 41  1  0
 12 42  1  0
 14 43  1  0
 17 44  1  0
 18 45  1  0
 23 46  1  0
 25 47  1  0
 25 48  1  0
 25 49  1  0
M  CHG  1  24   1
M  END
>  <smiles>  (6) 
COc1ccc(NCCN(C)C)c2[nH]c(-c3ccc(F)c(F)c3)[n+](C)c12

>  <score_type>  (6) 
oracle

>  <origin>  (6) 
adg

>  <m_score__min__energy>  (6) 
-4.8099999999999996

>  <m_primary>  (6) 
energy

$$$$
7:0
     RDKit          3D

 79 81  0  0  0  0  0  0  0  0999 V2000
   59.8070   35.2110   46.1000 C   0  0  0  0  0  0  0  0  0  0  0  0
   59.3880   34.5590   47.4250 C   0  0  0  0  0  0  0  0  0  0  0  0
   58.4570   33.5060   47.1240 N   0  0  0  0  0  0  0  0  0  0  0  0
   57.4310   33.8680   46.2130 C   0  0  0  0  0  0  0  0  0  0  0  0
   56.9940   32.7920   45.2480 C   0  0  0  0  0  0  0  0  0  0  0  0
   57.5510   31.5740   45.4560 O   0  0  0  0  0  0  0  0  0  0  0  0
   58.4450   31.1590   44.4830 C   0  0  0  0  0  0  0  0  0  0  0  0
   58.8500   29.7250   44.6230 C   0  0  0  0  0  0  0  0  0  0  0  0
   57.7940   28.7650   44.3880 N   0  0  0  0  0  0  0  0  0  0  0  0
   56.8120   29.4050   43.5230 C   0  0  0  0  0  0  0  0  0  0  0  0
   58.3490   27.6750   43.5620 C   0  0  0  0  0  0  0  0  0  0  0  0
   57.2450   28.1430   45.5370 C   0  0  0  0  0  0  0  0  0  0  0  0
   57.7000   26.6920   45.7430 C   0  0  0  0  0  0  0  0  0  0  0  0
   57.9010   26.5100   47.0770 O   0  0  0  0  0  0  0  0  0  0  0  0
   59.1730   26.2240   47.4320 C   0  0  0  0  0  0  0  0  0  0  0  0
   60.2600   26.9040   46.6630 C   0  0  0  0  0  0  0  0  0  0  0  0
   60.2940   28.2650   46.8080 O   0  0  0  0  0  0  0  0  0  0  0  0
   60.1710   28.7010   48.1100 C   0  0  0  0  0  0  0  0  0  0  0  0
   58.8750   29.4060   48.3030 C   0  0  0  0  0  0  0  0  0  0  0  0
   59.0260   30.8670   48.1130 N   0  0  0  0  0  0  0  0  0  0  0  0
   59.8650   31.6060   48.9900 C   0  0  0  0  0  0  0  0  0  0  0  0
   59.3810   32.0500   50.2200 C   0  0  0  0  0  0  0  0  0  0  0  0
   58.0710   31.7270   50.5010 C   0  0  0  0  0  0  0  0  0  0  0  0
   57.4980   32.1240   51.6900 C   0  0  0  0  0  0  0  0  0  0  0  0
   58.2610   32.8430   52.5810 C   0  0  0  0  0  0  0  0  0  0  0  0
   59.5900   33.1600   52.2790 C   0  0  0  0  0  0  0  0  0  0  0  0
   60.1820   32.7730   51.0970 C   0  0  0  0  0  0  0  0  0  0  0  0
   61.4730   33.0800   50.7920 N   0  0  0  0  0  0  0  0  0  0  0  0
   62.2320   33.8200   51.7500 C   0  0  0  0  0  0  0  0  0  0  0  0
   61.9290   32.6480   49.6060 C   0  0  0  0  0  0  0  0  0  0  0  0
   63.2250   32.9330   49.2430 C   0  0  0  0  0  0  0  0  0  0  0  0
   63.7290   32.5030   48.0200 C   0  0  0  0  0  0  0  0  0  0  0  0
   62.9690   31.7820   47.1220 C   0  0  0  0  0  0  0  0  0  0  0  0
   61.6710   31.4970   47.4840 C   0  0  0  0  0  0  0  0  0  0  0  0
   61.1730   31.9290   48.7060 C   0  0  0  0  0  0  0  0  0  0  0  0
   60.3910   36.1198   46.3071 H   0  0  0  0  0  0  0  0  0  0  0  0
   60.4207   34.5046   45.5217 H   0  0  0  0  0  0  0  0  0  0  0  0
   58.9095   35.4758   45.5217 H   0  0  0  0  0  0  0  0  0  0  0  0
   60.2709   34.1435   47.9328 H   0  0  0  0  0  0  0  0  0  0  0  0
   58.9234   35.3034   48.0884 H   0  0  0  0  0  0  0  0  0  0  0  0
   58.9360   32.6240   46.9230 H   0  0  0  0  0  0  0  0  0  0  0  0
   56.5514   34.1716   46.7997 H   0  0  0  0  0  0  0  0  0  0  0  0
   57.8553   34.6701   45.5912 H   0  0  0  0  0  0  0  0  0  0  0  0
   55.9020   32.6857   45.3275 H   0  0  0  0  0  0  0  0  0  0  0  0
   57.3305   33.1174   44.2526 H   0  0  0  0  0  0  0  0  0  0  0  0
   57.9758   31.2945   43.4974 H   0  0  0  0  0  0  0  0  0  0  0  0
   59.3548   31.7667   44.5965 H   0  0  0  0  0  0  0  0  0  0  0  0
   59.6576   29.5268   43.9029 H   0  0  0  0  0  0  0  0  0  0  0  0
   59.1568   29.5935   45.6711 H   0  0  0  0  0  0  0  0  0  0  0  0
   56.0489   29.9023   44.1397 H   0  0  0  0  0  0  0  0  0  0  0  0
   57.3132   30.1504   42.8880 H   0  0  0  0  0  0  0  0  0  0  0  0
   56.3324   28.6455   42.8880 H   0  0  0  0  0  0  0  0  0  0  0  0
   58.7502   26.8870   44.2163 H   0  0  0  0  0  0  0  0  0  0  0  0
   57.5548   27.2553   42.9271 H   0  0  0  0  0  0  0  0  0  0  0  0
   59.1556   28.0703   42.9271 H   0  0  0  0  0  0  0  0  0  0  0  0
   57.5420   28.7267   46.4208 H   0  0  0  0  0  0  0  0  0  0  0  0
   56.1549   28.1156   45.3920 H   0  0  0  0  0  0  0  0  0  0  0  0
   56.9240   26.0006   45.3827 H   0  0  0  0  0  0  0  0  0  0  0  0
   58.6251   26.4935   45.1819 H   0  0  0  0  0  0  0  0  0  0  0  0
   59.2924   26.4995   48.4902 H   0  0  0  0  0  0  0  0  0  0  0  0
   59.2966   25.1525   47.2159 H   0  0  0  0  0  0  0  0  0  0  0  0
   61.2250   26.4985   47.0012 H   0  0  0  0  0  0  0  0  0  0  0  0
   60.0592   26.7083   45.5993 H   0  0  0  0  0  0  0  0  0  0  0  0
   60.2168   27.8356   48.7875 H   0  0  0  0  0  0  0  0  0  0  0  0
   60.9921   29.3990   48.3306 H   0  0  0  0  0  0  0  0  0  0  0  0
   58.1461   29.0229   47.5736 H   0  0  0  0  0  0  0  0  0  0  0  0
   58.5287   29.2226   49.3308 H   0  0  0  0  0  0  0  0  0  0  0  0
   58.5240   31.3640   47.3420 H   0  0  0  0  0  0  0  0  0  0  0  0
   57.4806   31.1503   49.7738 H   0  0  0  0  0  0  0  0  0  0  0  0
   56.4528   31.8714   51.9217 H   0  0  0  0  0  0  0  0  0  0  0  0
   57.8239   33.1704   53.5359 H   0  0  0  0  0  0  0  0  0  0  0  0
   60.1798   33.7356   53.0075 H   0  0  0  0  0  0  0  0  0  0  0  0
   61.9289   33.5245   52.7653 H   0  0  0  0  0  0  0  0  0  0  0  0
   63.3027   33.6095   51.6111 H   0  0  0  0  0  0  0  0  0  0  0  0
   62.0487   34.8957   51.6111 H   0  0  0  0  0  0  0  0  0  0  0  0
   63.8687   33.5063   49.9264 H   0  0  0  0  0  0  0  0  0  0  0  0
   64.7697   32.7462   47.7596 H   0  0  0  0  0  0  0  0  0  0  0  0
   63.3820   31.4491   46.1584 H   0  0  0  0  0  0  0  0  0  0  0  0
   61.0257   30.9243   46.8016 H   0  0  0  0  0  0  0  0  0  0  0  0
  1  2  1  0
  2  3  1  0
  3  4  1  0
  4  5  1  0
  5  6  1  0
  6  7  1  0
  7  8  1  0
  8  9  1  0
  9 10  1  0
  9 11  1  0
  9 12  1  0
 12 13  1  0
 13 14  1  0
 14 15  1  0
 15 16  1  0
 16 17  1  0
 17 18  1  0
 18 19  1  0
 19 20  1  0
 20 21  1  0
 21 22  2  0
 22 23  1  0
 23 24  2  0
 24 25  1  0
 25 26  2  0
 26 27  1  0
 27 28  2  0
 28 29  1  0
 28 30  1  0
 30 31  2  0
 31 32  1  0
 32 33  2  0
 33 34  1  0
 34 35  2  0
 35 21  1  0
 27 22  1  0
 35 30  1  0
  1 36  1  0
  1 37  1  0
  1 38  1  0
  2 39  1  0
  2 40  1  0
  3 41  1  0
  4 42  1  0
  4 43  1  0
  5 44  1  0
  5 45  1  0
  7 46  1  0
  7 47  1  0
  8 48  1  0
  8 49  1  0
 10 50  1  0
 10 51  1  0
 10 52  1  0
 11 53  1  0
 11 54  1  0
 11 55  1  0
 12 56  1  0
 12 57  1  0
 13 58  1  0
 13 59  1  0
 15 60  1  0
 15 61  1  0
 16 62  1  0
 16 63  1  0
 18 64  1  0
 18 65  1  0
 19 66  1  0
 19 67  1  0
 20 68  1  0
 23 69  1  0
 24 70  1  0
 25 71  1  0
 26 72  1  0
 29 73  1  0
 29 74  1  0
 29 75  1  0
 31 76  1  0
 32 77  1  0
 33 78  1  0
 34 79  1  0
M  CHG  2   9   1  28   1
M  END
>  <smiles>  (7) 
CCNCCOCC[N+](C)(C)CCOCCOCCNc1c2ccccc2[n+](C)c2ccccc12

>  <score_type>  (7) 
oracle

>  <origin>  (7) 
adg

>  <m_score__min__energy>  (7) 
-4.2300000000000004

>  <m_primary>  (7) 
energy

$$$$
8:0
     RDKit          3D

 66 68  0  0  0  0  0  0  0  0999 V2000
   64.7940   32.6280   49.4050 C   0  0  0  0  0  0  0  0  0  0  0  0
   63.8530   33.4680   48.5680 C   0  0  0  0  0  0  0  0  0  0  0  0
   62.4790   33.4640   49.0980 C   0  0  0  0  0  0  0  0  0  0  0  0
   61.3780   33.1180   48.3100 C   0  0  0  0  0  0  0  0  0  0  0  0
   61.3820   32.7230   46.8780 C   0  0  0  0  0  0  0  0  0  0  0  0
   60.2940   33.2240   49.1520 C   0  0  0  0  0  0  0  0  0  0  0  0
   58.8730   32.9400   48.7410 C   0  0  0  0  0  0  0  0  0  0  0  0
   58.5940   33.7550   47.5280 C   0  0  0  0  0  0  0  0  0  0  0  0
   57.8380   33.0890   46.5190 N   0  0  0  0  0  0  0  0  0  0  0  0
   58.1530   33.5700   45.2020 C   0  0  0  0  0  0  0  0  0  0  0  0
   57.4020   32.8340   44.1280 C   0  0  0  0  0  0  0  0  0  0  0  0
   57.1090   31.4550   44.5110 N   0  0  0  0  0  0  0  0  0  0  0  0
   56.9950   30.6490   43.3230 C   0  0  0  0  0  0  0  0  0  0  0  0
   56.1120   29.4500   43.6800 C   0  0  0  0  0  0  0  0  0  0  0  0
   55.4740   29.6660   44.8750 O   0  0  0  0  0  0  0  0  0  0  0  0
   58.2630   31.0130   45.2930 C   0  0  0  0  0  0  0  0  0  0  0  0
   58.0970   31.6580   46.6510 C   0  0  0  0  0  0  0  0  0  0  0  0
   60.6990   33.6210   50.4110 C   0  0  0  0  0  0  0  0  0  0  0  0
   59.5890   33.8460   51.7710 S   0  0  0  0  0  0  0  0  0  0  0  0
   58.3130   32.5850   51.9020 C   0  0  0  0  0  0  0  0  0  0  0  0
   58.9660   31.2790   52.3130 C   0  0  0  0  0  0  0  0  0  0  0  0
   59.4670   30.5460   51.1010 C   0  0  0  0  0  0  0  0  0  0  0  0
   58.5130   30.0820   50.1950 C   0  0  0  0  0  0  0  0  0  0  0  0
   58.9310   29.3950   49.0670 C   0  0  0  0  0  0  0  0  0  0  0  0
   60.2730   29.1620   48.8280 C   0  0  0  0  0  0  0  0  0  0  0  0
   61.2010   29.6350   49.7480 C   0  0  0  0  0  0  0  0  0  0  0  0
   60.8130   30.3260   50.8830 C   0  0  0  0  0  0  0  0  0  0  0  0
   62.0420   33.7620   50.3560 N   0  0  0  0  0  0  0  0  0  0  0  0
   62.8720   34.1590   51.4760 C   0  0  0  0  0  0  0  0  0  0  0  0
   64.5941   32.8064   50.4719 H   0  0  0  0  0  0  0  0  0  0  0  0
   64.6377   31.5636   49.1757 H   0  0  0  0  0  0  0  0  0  0  0  0
   65.8339   32.9036   49.1757 H   0  0  0  0  0  0  0  0  0  0  0  0
   64.2229   34.5038   48.5518 H   0  0  0  0  0  0  0  0  0  0  0  0
   63.8250   33.0356   47.5569 H   0  0  0  0  0  0  0  0  0  0  0  0
   61.3931   31.6258   46.8003 H   0  0  0  0  0  0  0  0  0  0  0  0
   60.4798   33.1163   46.3866 H   0  0  0  0  0  0  0  0  0  0  0  0
   62.2760   33.1344   46.3866 H   0  0  0  0  0  0  0  0  0  0  0  0
   58.7535   31.8707   48.5122 H   0  0  0  0  0  0  0  0  0  0  0  0
   58.1741   33.1945   49.5514 H   0  0  0  0  0  0  0  0  0  0  0  0
   58.0354   34.6503   47.8387 H   0  0  0  0  0  0  0  0  0  0  0  0
   59.5715   33.9860   47.0796 H   0  0  0  0  0  0  0  0  0  0  0  0
   57.8951   34.6378   45.1449 H   0  0  0  0  0  0  0  0  0  0  0  0
   59.2273   33.4051   45.0329 H   0  0  0  0  0  0  0  0  0  0  0  0
   56.4542   33.3578   43.9350 H   0  0  0  0  0  0  0  0  0  0  0  0
   58.0339   32.8094   43.2280 H   0  0  0  0  0  0  0  0  0  0  0  0
   56.5314   31.2321   42.5137 H   0  0  0  0  0  0  0  0  0  0  0  0
   57.9850   30.3185   42.9758 H   0  0  0  0  0  0  0  0  0  0  0  0
   55.3613   29.3043   42.8893 H   0  0  0  0  0  0  0  0  0  0  0  0
   56.7446   28.5546   43.7696 H   0  0  0  0  0  0  0  0  0  0  0  0
   55.5960   30.5840   45.2440 H   0  0  0  0  0  0  0  0  0  0  0  0
   58.2686   29.9169   45.3854 H   0  0  0  0  0  0  0  0  0  0  0  0
   59.2133   31.2977   44.8177 H   0  0  0  0  0  0  0  0  0  0  0  0
   57.2521   31.1856   47.1734 H   0  0  0  0  0  0  0  0  0  0  0  0
   59.0269   31.5199   47.2221 H   0  0  0  0  0  0  0  0  0  0  0  0
   57.5726   32.8837   52.6587 H   0  0  0  0  0  0  0  0  0  0  0  0
   57.8034   32.4631   50.9348 H   0  0  0  0  0  0  0  0  0  0  0  0
   59.8109   31.4907   52.9847 H   0  0  0  0  0  0  0  0  0  0  0  0
   58.2234   30.6532   52.8297 H   0  0  0  0  0  0  0  0  0  0  0  0
   57.4423   30.2594   50.3741 H   0  0  0  0  0  0  0  0  0  0  0  0
   58.1825   29.0285   48.3490 H   0  0  0  0  0  0  0  0  0  0  0  0
   60.5983   28.6151   47.9307 H   0  0  0  0  0  0  0  0  0  0  0  0
   62.2715   29.4557   49.5697 H   0  0  0  0  0  0  0  0  0  0  0  0
   61.5633   30.6934   51.5986 H   0  0  0  0  0  0  0  0  0  0  0  0
   62.3590   33.9136   52.4176 H   0  0  0  0  0  0  0  0  0  0  0  0
   63.8310   33.6221   51.4302 H   0  0  0  0  0  0  0  0  0  0  0  0
   63.0559   35.2426   51.4302 H   0  0  0  0  0  0  0  0  0  0  0  0
  1  2  1  0
  2  3  1  0
  3  4  2  0
  4  5  1  0
  4  6  1  0
  6  7  1  0
  7  8  1  0
  8  9  1  0
  9 10  1  0
 10 11  1  0
 11 12  1  0
 12 13  1  0
 13 14  1  0
 14 15  1  0
 12 16  1  0
 16 17  1  0
  6 18  2  0
 18 19  1  0
 19 20  1  0
 20 21  1  0
 21 22  1  0
 22 23  2  0
 23 24  1  0
 24 25  2  0
 25 26  1  0
 26 27  2  0
 18 28  1  0
 28 29  1  0
 28  3  1  0
 17  9  1  0
 27 22  1  0
  1 30  1  0
  1 31  1  0
  1 32  1  0
  2 33  1  0
  2 34  1  0
  5 35  1  0
  5 36  1  0
  5 37  1  0
  7 38  1  0
  7 39  1  0
  8 40  1  0
  8 41  1  0
 10 42  1  0
 10 43  1  0
 11 44  1  0
 11 45  1  0
 13 46  1  0
 13 47  1  0
 14 48  1  0
 14 49  1  0
 15 50  1  0
 16 51  1  0
 16 52  1  0
 17 53  1  0
 17 54  1  0
 20 55  1  0
 20 56  1  0
 21 57  1  0
 21 58  1  0
 23 59  1  0
 24 60  1  0
 25 61  1  0
 26 62  1  0
 27 63  1  0
 29 64  1  0
 29 65  1  0
 29 66  1  0
M  END
>  <smiles>  (8) 
CCc1c(C)c(CCN2CCN(CCO)CC2)c(SCCc2ccccc2)n1C

>  <score_type>  (8) 
oracle

>  <origin>  (8) 
adg

>  <m_score__min__energy>  (8) 
-9.0199999999999996

>  <m_primary>  (8) 
energy

$$$$
9:0
     RDKit          3D

 52 56  0  0  0  0  0  0  0  0999 V2000
   59.9800   32.5620   51.2740 C   0  0  0  0  0  0  0  0  0  0  0  0
   59.9560   33.2110   49.9740 N   0  0  0  0  0  0  0  0  0  0  0  0
   61.0200   33.9330   49.6550 N   0  0  0  0  0  0  0  0  0  0  0  0
   61.1040   34.5780   48.4720 C   0  0  0  0  0  0  0  0  0  0  0  0
   60.0590   34.4670   47.6130 C   0  0  0  0  0  0  0  0  0  0  0  0
   58.9240   33.7120   47.9260 C   0  0  0  0  0  0  0  0  0  0  0  0
   58.8920   33.0700   49.1560 C   0  0  0  0  0  0  0  0  0  0  0  0
   57.8980   32.3890   49.4670 O   0  0  0  0  0  0  0  0  0  0  0  0
   57.8070   33.6230   46.9510 C   0  0  0  0  0  0  0  0  0  0  0  0
   58.1850   33.7270   45.5890 N   0  0  0  0  0  0  0  0  0  0  0  0
   57.5880   32.8070   44.6790 C   0  0  0  0  0  0  0  0  0  0  0  0
   57.7840   31.4280   45.2540 C   0  0  0  0  0  0  0  0  0  0  0  0
   56.8830   30.4700   44.9570 N   0  0  0  0  0  0  0  0  0  0  0  0
   57.0200   29.2320   45.4470 C   0  0  0  0  0  0  0  0  0  0  0  0
   56.2450   28.2850   45.2310 O   0  0  0  0  0  0  0  0  0  0  0  0
   58.1210   28.9780   46.2670 C   0  0  0  0  0  0  0  0  0  0  0  0
   58.5400   27.8500   46.9120 C   0  0  0  0  0  0  0  0  0  0  0  0
   59.6700   28.1290   47.5810 N   0  0  0  0  0  0  0  0  0  0  0  0
   59.9850   29.4420   47.3700 C   0  0  0  0  0  0  0  0  0  0  0  0
   61.1450   30.0950   47.9390 C   0  0  0  0  0  0  0  0  0  0  0  0
   61.4570   31.3370   47.1110 C   0  0  0  0  0  0  0  0  0  0  0  0
   62.9240   31.6600   47.4300 C   0  0  0  0  0  0  0  0  0  0  0  0
   62.9540   32.0160   48.7710 O   0  0  0  0  0  0  0  0  0  0  0  0
   62.6240   30.9620   49.6110 C   0  0  0  0  0  0  0  0  0  0  0  0
   61.1870   30.4610   49.3480 C   0  0  0  0  0  0  0  0  0  0  0  0
   59.0240   29.9300   46.5680 N   0  0  0  0  0  0  0  0  0  0  0  0
   58.8180   31.1260   46.0450 N   0  0  0  0  0  0  0  0  0  0  0  0
   59.5340   34.0660   45.3070 C   0  0  0  0  0  0  0  0  0  0  0  0
   60.0160   35.1300   46.2660 C   0  0  0  0  0  0  0  0  0  0  0  0
   59.9518   33.3254   52.0655 H   0  0  0  0  0  0  0  0  0  0  0  0
   59.1057   31.9015   51.3703 H   0  0  0  0  0  0  0  0  0  0  0  0
   60.9007   31.9679   51.3703 H   0  0  0  0  0  0  0  0  0  0  0  0
   61.9911   35.1745   48.2125 H   0  0  0  0  0  0  0  0  0  0  0  0
   57.3082   32.6529   47.0926 H   0  0  0  0  0  0  0  0  0  0  0  0
   57.1555   34.4858   47.1537 H   0  0  0  0  0  0  0  0  0  0  0  0
   56.5146   33.0231   44.5733 H   0  0  0  0  0  0  0  0  0  0  0  0
   58.0481   32.8858   43.6830 H   0  0  0  0  0  0  0  0  0  0  0  0
   58.0348   26.8732   46.8875 H   0  0  0  0  0  0  0  0  0  0  0  0
   61.8909   29.2876   47.8977 H   0  0  0  0  0  0  0  0  0  0  0  0
   61.3298   31.1300   46.0382 H   0  0  0  0  0  0  0  0  0  0  0  0
   60.7852   32.1750   47.3486 H   0  0  0  0  0  0  0  0  0  0  0  0
   63.5567   30.7774   47.2545 H   0  0  0  0  0  0  0  0  0  0  0  0
   63.3072   32.4682   46.7897 H   0  0  0  0  0  0  0  0  0  0  0  0
   63.3284   30.1345   49.4407 H   0  0  0  0  0  0  0  0  0  0  0  0
   62.6824   31.3163   50.6507 H   0  0  0  0  0  0  0  0  0  0  0  0
   60.9652   29.5866   49.9775 H   0  0  0  0  0  0  0  0  0  0  0  0
   60.4397   31.2316   49.5881 H   0  0  0  0  0  0  0  0  0  0  0  0
   59.4980   31.8880   46.2570 H   0  0  0  0  0  0  0  0  0  0  0  0
   60.1634   33.1700   45.4121 H   0  0  0  0  0  0  0  0  0  0  0  0
   59.5997   34.4526   44.2793 H   0  0  0  0  0  0  0  0  0  0  0  0
   61.0179   35.4813   45.9784 H   0  0  0  0  0  0  0  0  0  0  0  0
   59.3553   36.0095   46.2651 H   0  0  0  0  0  0  0  0  0  0  0  0
  1  2  1  0
  2  3  1  0
  3  4  2  0
  4  5  1  0
  5  6  2  0
  6  7  1  0
  7  8  2  0
  6  9  1  0
  9 10  1  0
 10 11  1  0
 11 12  1  0
 12 13  2  0
 13 14  1  0
 14 15  2  0
 14 16  1  0
 16 17  2  0
 17 18  1  0
 18 19  2  0
 19 20  1  0
 20 21  1  0
 21 22  1  0
 22 23  1  0
 23 24  1  0
 24 25  1  0
 19 26  1  0
 26 27  1  0
 10 28  1  0
 28 29  1  0
  7  2  1  0
 27 12  1  0
 29  5  1  0
 26 16  1  0
 25 20  1  0
  1 30  1  0
  1 31  1  0
  1 32  1  0
  4 33  1  0
  9 34  1  0
  9 35  1  0
 11 36  1  0
 11 37  1  0
 17 38  1  0
 20 39  1  0
 21 40  1  0
 21 41  1  0
 22 42  1  0
 22 43  1  0
 24 44  1  0
 24 45  1  0
 25 46  1  0
 25 47  1  0
 27 48  1  0
 28 49  1  0
 28 50  1  0
 29 51  1  0
 29 52  1  0
M  END
>  <smiles>  (9) 
Cn1ncc2c(c1=O)CN(Cc1nc(=O)c3cnc(C4CCOCC4)n3[nH]1)CC2

>  <score_type>  (9) 
oracle

>  <origin>  (9) 
adg

>  <m_score__min__energy>  (9) 
-8.9199999999999999

>  <m_primary>  (9) 
energy

$$$$
11:0
     RDKit          3D

 49 52  0  0  0  0  0  0  0  0999 V2000
   57.3720   28.9200   44.1520 C   0  0  0  0  0  0  0  0  0  0  0  0
   56.7840   29.9690   44.8880 O   0  0  0  0  0  0  0  0  0  0  0  0
   57.4200   31.2080   44.8590 C   0  0  0  0  0  0  0  0  0  0  0  0
   57.4500   31.9360   43.6890 C   0  0  0  0  0  0  0  0  0  0  0  0
   58.0990   33.1670   43.7450 C   0  0  0  0  0  0  0  0  0  0  0  0
   58.6840   33.6440   44.9030 C   0  0  0  0  0  0  0  0  0  0  0  0
   59.2590   34.8910   44.8750 C   0  0  0  0  0  0  0  0  0  0  0  0
   59.7930   35.3610   46.0730 C   0  0  0  0  0  0  0  0  0  0  0  0
   59.7490   34.6090   47.2340 C   0  0  0  0  0  0  0  0  0  0  0  0
   59.1690   33.3410   47.2710 C   0  0  0  0  0  0  0  0  0  0  0  0
   59.2000   32.6090   48.5230 C   0  0  0  0  0  0  0  0  0  0  0  0
   60.3620   31.6810   48.5850 N   0  0  0  0  0  0  0  0  0  0  0  0
   61.5060   32.1650   49.2650 C   0  0  0  0  0  0  0  0  0  0  0  0
   62.4440   33.1190   48.6310 C   0  0  0  0  0  0  0  0  0  0  0  0
   63.9170   32.7910   48.7170 C   0  0  0  0  0  0  0  0  0  0  0  0
   64.0430   33.1390   47.3120 N   0  0  0  0  0  0  0  0  0  0  0  0
   62.6890   32.7210   47.1370 C   0  0  0  0  0  0  0  0  0  0  0  0
   60.1210   30.4290   47.9660 C   0  0  0  0  0  0  0  0  0  0  0  0
   59.2720   29.5090   48.5980 C   0  0  0  0  0  0  0  0  0  0  0  0
   59.0130   28.2560   48.0420 C   0  0  0  0  0  0  0  0  0  0  0  0
   59.5680   27.8440   46.8550 C   0  0  0  0  0  0  0  0  0  0  0  0
   59.2270   26.1550   46.0840 Br  0  0  0  0  0  0  0  0  0  0  0  0
   60.4050   28.7350   46.2270 C   0  0  0  0  0  0  0  0  0  0  0  0
   60.6630   29.9950   46.7910 C   0  0  0  0  0  0  0  0  0  0  0  0
   58.6460   32.8960   46.0760 C   0  0  0  0  0  0  0  0  0  0  0  0
   58.0110   31.6770   46.0400 C   0  0  0  0  0  0  0  0  0  0  0  0
   57.7896   28.1749   44.8452 H   0  0  0  0  0  0  0  0  0  0  0  0
   56.6091   28.4442   43.5183 H   0  0  0  0  0  0  0  0  0  0  0  0
   58.1760   29.3225   43.5183 H   0  0  0  0  0  0  0  0  0  0  0  0
   56.9871   31.5653   42.7625 H   0  0  0  0  0  0  0  0  0  0  0  0
   58.1478   33.7822   42.8344 H   0  0  0  0  0  0  0  0  0  0  0  0
   59.2961   35.4890   43.9525 H   0  0  0  0  0  0  0  0  0  0  0  0
   60.2618   36.3558   46.0967 H   0  0  0  0  0  0  0  0  0  0  0  0
   60.1844   35.0237   48.1551 H   0  0  0  0  0  0  0  0  0  0  0  0
   59.2706   33.3259   49.3543 H   0  0  0  0  0  0  0  0  0  0  0  0
   58.2785   32.0128   48.5965 H   0  0  0  0  0  0  0  0  0  0  0  0
   61.1383   32.6544   50.1789 H   0  0  0  0  0  0  0  0  0  0  0  0
   62.1225   31.2589   49.3590 H   0  0  0  0  0  0  0  0  0  0  0  0
   62.0258   34.0568   49.0255 H   0  0  0  0  0  0  0  0  0  0  0  0
   64.4875   33.4393   49.3983 H   0  0  0  0  0  0  0  0  0  0  0  0
   64.2609   31.8165   49.0939 H   0  0  0  0  0  0  0  0  0  0  0  0
   64.7950   32.6710   46.8040 H   0  0  0  0  0  0  0  0  0  0  0  0
   62.1177   33.3113   46.4055 H   0  0  0  0  0  0  0  0  0  0  0  0
   62.4374   31.7200   46.7565 H   0  0  0  0  0  0  0  0  0  0  0  0
   58.7998   29.7814   49.5534 H   0  0  0  0  0  0  0  0  0  0  0  0
   58.3376   27.5708   48.5753 H   0  0  0  0  0  0  0  0  0  0  0  0
   60.8776   28.4584   45.2730 H   0  0  0  0  0  0  0  0  0  0  0  0
   61.3426   30.6727   46.2536 H   0  0  0  0  0  0  0  0  0  0  0  0
   57.9663   31.0615   46.9506 H   0  0  0  0  0  0  0  0  0  0  0  0
  1  2  1  0
  2  3  1  0
  3  4  2  0
  4  5  1  0
  5  6  2  0
  6  7  1  0
  7  8  2  0
  8  9  1  0
  9 10  2  0
 10 11  1  0
 11 12  1  0
 12 13  1  0
 13 14  1  0
 14 15  1  0
 15 16  1  0
 16 17  1  0
 12 18  1  0
 18 19  2  0
 19 20  1  0
 20 21  2  0
 21 22  1  0
 21 23  1  0
 23 24  2  0
 10 25  1  0
 25 26  2  0
 26  3  1  0
 25  6  1  0
 17 14  1  0
 24 18  1  0
  1 27  1  0
  1 28  1  0
  1 29  1  0
  4 30  1  0
  5 31  1  0
  7 32  1  0
  8 33  1  0
  9 34  1  0
 11 35  1  0
 11 36  1  0
 13 37  1  0
 13 38  1  0
 14 39  1  0
 15 40  1  0
 15 41  1  0
 16 42  1  0
 17 43  1  0
 17 44  1  0
 19 45  1  0
 20 46  1  0
 23 47  1  0
 24 48  1  0
 26 49  1  0
M  END
>  <smiles>  (10) 
COc1ccc2cccc(CN(CC3CNC3)c3ccc(Br)cc3)c2c1

>  <score_type>  (10) 
oracle

>  <origin>  (10) 
adg

>  <m_score__min__energy>  (10) 
-9.1600000000000001

>  <m_primary>  (10) 
energy

$$$$
12:0
     RDKit          3D

 44 46  0  0  0  0  0  0  0  0999 V2000
   57.8670   27.7980   46.6800 C   0  0  0  0  0  0  0  0  0  0  0  0
   57.0210   28.3720   45.6920 N   0  0  0  0  0  0  0  0  0  0  0  0
   57.4650   28.3480   44.3670 C   0  0  0  0  0  0  0  0  0  0  0  0
   57.0130   29.3440   43.3650 C   0  0  0  0  0  0  0  0  0  0  0  0
   56.1460   30.4650   43.7590 C   0  0  0  0  0  0  0  0  0  0  0  0
   56.4710   31.2220   44.8690 O   0  0  0  0  0  0  0  0  0  0  0  0
   57.6340   31.7710   45.2930 C   0  0  0  0  0  0  0  0  0  0  0  0
   57.8440   33.1230   44.9900 C   0  0  0  0  0  0  0  0  0  0  0  0
   58.9650   33.8040   45.3540 C   0  0  0  0  0  0  0  0  0  0  0  0
   59.9620   33.1670   46.0560 C   0  0  0  0  0  0  0  0  0  0  0  0
   61.0820   33.8070   46.4310 N   0  0  0  0  0  0  0  0  0  0  0  0
   62.0730   33.2060   47.1180 C   0  0  0  0  0  0  0  0  0  0  0  0
   63.3090   33.9180   47.5270 C   0  0  0  0  0  0  0  0  0  0  0  0
   63.7830   33.5260   48.8380 N   0  0  0  0  0  0  0  0  0  0  0  0
   63.2260   33.8010   50.0550 C   0  0  0  0  0  0  0  0  0  0  0  0
   63.9810   33.2510   51.0200 N   0  0  0  0  0  0  0  0  0  0  0  0
   65.0110   32.6290   50.4220 C   0  0  0  0  0  0  0  0  0  0  0  0
   64.8840   32.8020   49.0950 N   0  0  0  0  0  0  0  0  0  0  0  0
   61.9090   31.8640   47.4430 C   0  0  0  0  0  0  0  0  0  0  0  0
   60.7760   31.1630   47.0800 C   0  0  0  0  0  0  0  0  0  0  0  0
   60.5780   29.7200   47.4150 C   0  0  0  0  0  0  0  0  0  0  0  0
   59.7790   31.8380   46.3660 C   0  0  0  0  0  0  0  0  0  0  0  0
   58.6370   31.1590   45.9900 C   0  0  0  0  0  0  0  0  0  0  0  0
   57.4888   28.0546   47.6806 H   0  0  0  0  0  0  0  0  0  0  0  0
   57.8791   26.7044   46.5619 H   0  0  0  0  0  0  0  0  0  0  0  0
   58.8876   28.1909   46.5619 H   0  0  0  0  0  0  0  0  0  0  0  0
   56.6560   29.2970   45.9580 H   0  0  0  0  0  0  0  0  0  0  0  0
   58.5611   28.4300   44.4088 H   0  0  0  0  0  0  0  0  0  0  0  0
   57.0102   27.4203   43.9895 H   0  0  0  0  0  0  0  0  0  0  0  0
   57.9213   29.7869   42.9304 H   0  0  0  0  0  0  0  0  0  0  0  0
   56.3624   28.7507   42.7057 H   0  0  0  0  0  0  0  0  0  0  0  0
   56.1061   31.1543   42.9027 H   0  0  0  0  0  0  0  0  0  0  0  0
   55.2057   29.9734   44.0492 H   0  0  0  0  0  0  0  0  0  0  0  0
   57.0644   33.6605   44.4303 H   0  0  0  0  0  0  0  0  0  0  0  0
   59.0739   34.8654   45.0864 H   0  0  0  0  0  0  0  0  0  0  0  0
   64.0973   33.7021   46.7908 H   0  0  0  0  0  0  0  0  0  0  0  0
   63.0699   34.9908   47.5719 H   0  0  0  0  0  0  0  0  0  0  0  0
   62.3055   34.3807   50.2184 H   0  0  0  0  0  0  0  0  0  0  0  0
   65.8157   32.0761   50.9287 H   0  0  0  0  0  0  0  0  0  0  0  0
   62.7021   31.3476   48.0036 H   0  0  0  0  0  0  0  0  0  0  0  0
   60.5610   29.5963   48.5079 H   0  0  0  0  0  0  0  0  0  0  0  0
   59.6238   29.3729   46.9918 H   0  0  0  0  0  0  0  0  0  0  0  0
   61.4034   29.1287   46.9918 H   0  0  0  0  0  0  0  0  0  0  0  0
   58.5321   30.0975   46.2587 H   0  0  0  0  0  0  0  0  0  0  0  0
  1  2  1  0
  2  3  1  0
  3  4  1  0
  4  5  1  0
  5  6  1  0
  6  7  1  0
  7  8  2  0
  8  9  1  0
  9 10  2  0
 10 11  1  0
 11 12  2  0
 12 13  1  0
 13 14  1  0
 14 15  1  0
 15 16  2  0
 16 17  1  0
 17 18  2  0
 12 19  1  0
 19 20  2  0
 20 21  1  0
 20 22  1  0
 22 23  2  0
 23  7  1  0
 22 10  1  0
 18 14  1  0
  1 24  1  0
  1 25  1  0
  1 26  1  0
  2 27  1  0
  3 28  1  0
  3 29  1  0
  4 30  1  0
  4 31  1  0
  5 32  1  0
  5 33  1  0
  8 34  1  0
  9 35  1  0
 13 36  1  0
 13 37  1  0
 15 38  1  0
 17 39  1  0
 19 40  1  0
 21 41  1  0
 21 42  1  0
 21 43  1  0
 23 44  1  0
M  END
>  <smiles>  (11) 
CNCCCOc1ccc2nc(Cn3cncn3)cc(C)c2c1

>  <score_type>  (11) 
oracle

>  <origin>  (11) 
adg

>  <m_score__min__energy>  (11) 
-6.7000000000000002

>  <m_primary>  (11) 
energy

$$$$
13:0
     RDKit          3D

 43 46  0  0  0  0  0  0  0  0999 V2000
   58.5020   32.0120   47.5380 C   0  0  0  0  0  0  0  0  0  0  0  0
   58.6900   32.7770   46.3320 N   0  0  0  0  0  0  0  0  0  0  0  0
   59.1670   34.0490   46.3630 C   0  0  0  0  0  0  0  0  0  0  0  0
   59.5150   34.9140   47.5130 C   0  0  0  0  0  0  0  0  0  0  0  0
   60.2460   34.2050   48.5440 N   0  0  0  0  0  0  0  0  0  0  0  0
   59.7460   34.2170   49.9030 C   0  0  0  0  0  0  0  0  0  0  0  0
   60.4630   33.2410   50.7830 C   0  0  0  0  0  0  0  0  0  0  0  0
   60.9620   32.0310   50.0380 C   0  0  0  0  0  0  0  0  0  0  0  0
   61.8430   32.4050   48.9010 C   0  0  0  0  0  0  0  0  0  0  0  0
   62.9900   31.7150   48.5720 C   0  0  0  0  0  0  0  0  0  0  0  0
   63.7610   32.1410   47.4940 C   0  0  0  0  0  0  0  0  0  0  0  0
   63.3770   33.2560   46.7520 C   0  0  0  0  0  0  0  0  0  0  0  0
   62.2180   33.9330   47.1030 C   0  0  0  0  0  0  0  0  0  0  0  0
   61.4490   33.5180   48.1690 C   0  0  0  0  0  0  0  0  0  0  0  0
   59.2950   34.4720   45.0870 N   0  0  0  0  0  0  0  0  0  0  0  0
   58.9060   33.4890   44.3060 N   0  0  0  0  0  0  0  0  0  0  0  0
   58.5150   32.4030   45.0580 C   0  0  0  0  0  0  0  0  0  0  0  0
   58.1060   31.1860   44.4090 C   0  0  0  0  0  0  0  0  0  0  0  0
   57.0540   31.2960   43.4880 C   0  0  0  0  0  0  0  0  0  0  0  0
   56.5230   30.2150   42.8270 C   0  0  0  0  0  0  0  0  0  0  0  0
   57.0100   28.9460   43.0440 C   0  0  0  0  0  0  0  0  0  0  0  0
   58.0420   28.8240   43.9460 C   0  0  0  0  0  0  0  0  0  0  0  0
   58.5800   29.9240   44.6190 C   0  0  0  0  0  0  0  0  0  0  0  0
   59.8150   29.5560   45.7960 Cl  0  0  0  0  0  0  0  0  0  0  0  0
   58.6614   32.6605   48.4121 H   0  0  0  0  0  0  0  0  0  0  0  0
   57.4783   31.6100   47.5614 H   0  0  0  0  0  0  0  0  0  0  0  0
   59.2227   31.1813   47.5614 H   0  0  0  0  0  0  0  0  0  0  0  0
   60.1352   35.7475   47.1516 H   0  0  0  0  0  0  0  0  0  0  0  0
   58.5742   35.2706   47.9577 H   0  0  0  0  0  0  0  0  0  0  0  0
   59.8746   35.2276   50.3179 H   0  0  0  0  0  0  0  0  0  0  0  0
   58.6857   33.9258   49.8731 H   0  0  0  0  0  0  0  0  0  0  0  0
   61.3238   33.7496   51.2415 H   0  0  0  0  0  0  0  0  0  0  0  0
   59.7437   32.8888   51.5371 H   0  0  0  0  0  0  0  0  0  0  0  0
   61.5292   31.3943   50.7329 H   0  0  0  0  0  0  0  0  0  0  0  0
   60.0902   31.4966   49.6325 H   0  0  0  0  0  0  0  0  0  0  0  0
   63.2939   30.8343   49.1569 H   0  0  0  0  0  0  0  0  0  0  0  0
   64.6776   31.5948   47.2268 H   0  0  0  0  0  0  0  0  0  0  0  0
   63.9843   33.5948   45.8997 H   0  0  0  0  0  0  0  0  0  0  0  0
   61.9081   34.8141   46.5219 H   0  0  0  0  0  0  0  0  0  0  0  0
   56.6352   32.2928   43.2858 H   0  0  0  0  0  0  0  0  0  0  0  0
   55.6980   30.3655   42.1152 H   0  0  0  0  0  0  0  0  0  0  0  0
   56.5943   28.0717   42.5216 H   0  0  0  0  0  0  0  0  0  0  0  0
   58.4581   27.8252   44.1442 H   0  0  0  0  0  0  0  0  0  0  0  0
  1  2  1  0
  2  3  1  0
  3  4  1  0
  4  5  1  0
  5  6  1  0
  6  7  1  0
  7  8  1  0
  8  9  1  0
  9 10  2  0
 10 11  1  0
 11 12  2  0
 12 13  1  0
 13 14  2  0
  3 15  2  0
 15 16  1  0
 16 17  2  0
 17 18  1  0
 18 19  2  0
 19 20  1  0
 20 21  2  0
 21 22  1  0
 22 23  2  0
 23 24  1  0
 17  2  1  0
 23 18  1  0
 14  5  1  0
 14  9  1  0
  1 25  1  0
  1 26  1  0
  1 27  1  0
  4 28  1  0
  4 29  1  0
  6 30  1  0
  6 31  1  0
  7 32  1  0
  7 33  1  0
  8 34  1  0
  8 35  1  0
 10 36  1  0
 11 37  1  0
 12 38  1  0
 13 39  1  0
 19 40  1  0
 20 41  1  0
 21 42  1  0
 22 43  1  0
M  END
>  <smiles>  (12) 
Cn1c(CN2CCCc3ccccc32)nnc1-c1ccccc1Cl

>  <score_type>  (12) 
oracle

>  <origin>  (12) 
adg

>  <m_score__min__energy>  (12) 
-8.4700000000000006

>  <m_primary>  (12) 
energy

$$$$
14:0
     RDKit          3D

 51 54  0  0  1  0  0  0  0  0999 V2000
   57.7780   27.4700   47.0260 C   0  0  0  0  0  0  0  0  0  0  0  0
   58.2250   28.7370   46.4660 N   0  0  0  0  0  0  0  0  0  0  0  0
   59.1880   29.5150   47.0120 C   0  0  0  0  0  0  0  0  0  0  0  0
   59.3650   30.6540   46.2210 C   0  0  0  0  0  0  0  0  0  0  0  0
   60.3420   31.7330   46.5220 C   0  0  0  0  0  0  0  0  0  0  0  0
   61.0550   31.4900   47.7560 N   0  0  0  0  0  0  0  0  0  0  0  0
   62.3440   30.8620   47.5190 C   0  0  0  0  0  0  0  0  0  0  0  0
   63.3860   31.9390   47.3870 C   0  0  0  0  0  0  0  0  0  0  0  0
   62.9160   33.1390   46.9040 O   0  0  0  0  0  0  0  0  0  0  0  0
   61.9570   33.7440   47.7110 C   0  0  0  0  0  0  0  0  0  0  0  0
   61.2350   32.7090   48.5210 C   0  0  1  0  0  0  0  0  0  0  0  0
   59.9440   33.1660   49.1140 C   0  0  0  0  0  0  0  0  0  0  0  0
   59.6490   34.5670   48.5770 C   0  0  0  0  0  0  0  0  0  0  0  0
   58.9150   34.4460   47.2670 C   0  0  0  0  0  0  0  0  0  0  0  0
   59.4260   35.0280   46.1290 C   0  0  0  0  0  0  0  0  0  0  0  0
   58.7800   34.9390   44.8940 C   0  0  0  0  0  0  0  0  0  0  0  0
   57.5830   34.2350   44.8280 C   0  0  0  0  0  0  0  0  0  0  0  0
   57.0680   33.6500   45.9690 C   0  0  0  0  0  0  0  0  0  0  0  0
   57.7150   33.7400   47.2020 C   0  0  0  0  0  0  0  0  0  0  0  0
   58.4750   30.5410   45.1730 C   0  0  0  0  0  0  0  0  0  0  0  0
   58.2140   31.3650   44.0970 C   0  0  0  0  0  0  0  0  0  0  0  0
   57.2380   30.9790   43.1820 C   0  0  0  0  0  0  0  0  0  0  0  0
   56.5320   29.7840   43.3430 C   0  0  0  0  0  0  0  0  0  0  0  0
   56.8000   28.9620   44.4250 C   0  0  0  0  0  0  0  0  0  0  0  0
   57.7710   29.3450   45.3350 C   0  0  0  0  0  0  0  0  0  0  0  0
   57.7981   27.5271   48.1243 H   0  0  0  0  0  0  0  0  0  0  0  0
   56.7520   27.2615   46.6884 H   0  0  0  0  0  0  0  0  0  0  0  0
   58.4460   26.6639   46.6884 H   0  0  0  0  0  0  0  0  0  0  0  0
   59.7441   29.2871   47.9333 H   0  0  0  0  0  0  0  0  0  0  0  0
   61.0685   31.7940   45.6983 H   0  0  0  0  0  0  0  0  0  0  0  0
   59.7845   32.6749   46.6318 H   0  0  0  0  0  0  0  0  0  0  0  0
   62.5963   30.2038   48.3635 H   0  0  0  0  0  0  0  0  0  0  0  0
   62.3057   30.2616   46.5981 H   0  0  0  0  0  0  0  0  0  0  0  0
   63.8222   32.1172   48.3810 H   0  0  0  0  0  0  0  0  0  0  0  0
   64.1181   31.5739   46.6517 H   0  0  0  0  0  0  0  0  0  0  0  0
   62.4495   34.4572   48.3884 H   0  0  0  0  0  0  0  0  0  0  0  0
   61.2320   34.2713   47.0736 H   0  0  0  0  0  0  0  0  0  0  0  0
   61.8880   32.5084   49.3832 H   0  0  0  0  0  0  0  0  0  0  0  0
   59.1360   32.4776   48.8256 H   0  0  0  0  0  0  0  0  0  0  0  0
   60.0118   33.1832   50.2118 H   0  0  0  0  0  0  0  0  0  0  0  0
   59.0263   35.1152   49.2993 H   0  0  0  0  0  0  0  0  0  0  0  0
   60.5919   35.1129   48.4255 H   0  0  0  0  0  0  0  0  0  0  0  0
   60.3744   35.5814   46.1945 H   0  0  0  0  0  0  0  0  0  0  0  0
   59.2067   35.4131   43.9978 H   0  0  0  0  0  0  0  0  0  0  0  0
   57.0480   34.1440   43.8712 H   0  0  0  0  0  0  0  0  0  0  0  0
   56.1195   33.0968   45.9033 H   0  0  0  0  0  0  0  0  0  0  0  0
   57.2893   33.2663   48.0989 H   0  0  0  0  0  0  0  0  0  0  0  0
   58.7658   32.3074   43.9650 H   0  0  0  0  0  0  0  0  0  0  0  0
   57.0193   31.6249   42.3189 H   0  0  0  0  0  0  0  0  0  0  0  0
   55.7635   29.4961   42.6105 H   0  0  0  0  0  0  0  0  0  0  0  0
   56.2498   28.0190   44.5595 H   0  0  0  0  0  0  0  0  0  0  0  0
  1  2  1  0
  2  3  1  0
  3  4  2  0
  4  5  1  0
  5  6  1  0
  6  7  1  0
  7  8  1  0
  8  9  1  0
  9 10  1  0
 10 11  1  0
 11 12  1  0
 12 13  1  0
 13 14  1  0
 14 15  2  0
 15 16  1  0
 16 17  2  0
 17 18  1  0
 18 19  2  0
  4 20  1  0
 20 21  2  0
 21 22  1  0
 22 23  2  0
 23 24  1  0
 24 25  2  0
 25  2  1  0
 11  6  1  0
 19 14  1  0
 25 20  1  0
  1 26  1  0
  1 27  1  0
  1 28  1  0
  3 29  1  0
  5 30  1  0
  5 31  1  0
  7 32  1  0
  7 33  1  0
  8 34  1  0
  8 35  1  0
 10 36  1  0
 10 37  1  0
 11 38  1  1
 12 39  1  0
 12 40  1  0
 13 41  1  0
 13 42  1  0
 15 43  1  0
 16 44  1  0
 17 45  1  0
 18 46  1  0
 19 47  1  0
 21 48  1  0
 22 49  1  0
 23 50  1  0
 24 51  1  0
M  END
>  <smiles>  (13) 
Cn1cc(CN2CCOCC2CCc2ccccc2)c2ccccc21

>  <score_type>  (13) 
oracle

>  <origin>  (13) 
adg

>  <m_score__min__energy>  (13) 
-8.0299999999999994

>  <m_primary>  (13) 
energy

$$$$
15:0
     RDKit          3D

 60 62  0  0  0  0  0  0  0  0999 V2000
   58.1260   27.3680   43.3650 C   0  0  0  0  0  0  0  0  0  0  0  0
   57.4130   28.1780   44.4390 C   0  0  0  0  0  0  0  0  0  0  0  0
   56.7820   29.4240   43.8410 C   0  0  0  0  0  0  0  0  0  0  0  0
   56.6040   30.4570   44.8280 N   0  0  0  0  0  0  0  0  0  0  0  0
   57.7460   31.3180   44.9150 C   0  0  0  0  0  0  0  0  0  0  0  0
   58.6810   30.7770   45.9980 C   0  0  0  0  0  0  0  0  0  0  0  0
   57.9960   29.8880   46.7740 O   0  0  0  0  0  0  0  0  0  0  0  0
   58.8010   29.1140   47.6350 C   0  0  0  0  0  0  0  0  0  0  0  0
   59.8700   29.9300   48.2820 C   0  0  0  0  0  0  0  0  0  0  0  0
   59.6360   30.8760   49.1480 O   0  0  0  0  0  0  0  0  0  0  0  0
   58.5480   31.2340   49.8280 C   0  0  0  0  0  0  0  0  0  0  0  0
   58.7380   32.3340   50.7850 C   0  0  0  0  0  0  0  0  0  0  0  0
   59.2970   33.5720   50.2770 N   0  0  0  0  0  0  0  0  0  0  0  0
   60.2030   33.6570   49.2010 C   0  0  0  0  0  0  0  0  0  0  0  0
   61.5670   33.5210   49.4910 C   0  0  0  0  0  0  0  0  0  0  0  0
   61.9530   33.3270   50.8020 C   0  0  0  0  0  0  0  0  0  0  0  0
   63.2810   33.1810   51.1800 C   0  0  0  0  0  0  0  0  0  0  0  0
   64.2250   33.2370   50.1850 C   0  0  0  0  0  0  0  0  0  0  0  0
   63.8420   33.4330   48.8590 C   0  0  0  0  0  0  0  0  0  0  0  0
   62.5220   33.5790   48.4840 C   0  0  0  0  0  0  0  0  0  0  0  0
   62.1800   33.7710   47.1810 N   0  0  0  0  0  0  0  0  0  0  0  0
   63.1900   33.8500   46.1430 C   0  0  0  0  0  0  0  0  0  0  0  0
   60.8660   33.9050   46.8850 C   0  0  0  0  0  0  0  0  0  0  0  0
   60.4340   34.1090   45.5960 C   0  0  0  0  0  0  0  0  0  0  0  0
   59.0880   34.2610   45.2620 C   0  0  0  0  0  0  0  0  0  0  0  0
   58.1290   34.2090   46.2440 C   0  0  0  0  0  0  0  0  0  0  0  0
   58.5620   34.0030   47.5370 C   0  0  0  0  0  0  0  0  0  0  0  0
   59.8850   33.8490   47.8830 C   0  0  0  0  0  0  0  0  0  0  0  0
   58.7811   26.6238   43.8414 H   0  0  0  0  0  0  0  0  0  0  0  0
   57.3819   26.8541   42.7388 H   0  0  0  0  0  0  0  0  0  0  0  0
   58.7302   28.0409   42.7388 H   0  0  0  0  0  0  0  0  0  0  0  0
   56.6270   27.5589   44.8961 H   0  0  0  0  0  0  0  0  0  0  0  0
   58.1480   28.4832   45.1984 H   0  0  0  0  0  0  0  0  0  0  0  0
   57.4335   29.8043   43.0404 H   0  0  0  0  0  0  0  0  0  0  0  0
   55.7916   29.1516   43.4474 H   0  0  0  0  0  0  0  0  0  0  0  0
   56.2490   30.0950   45.7180 H   0  0  0  0  0  0  0  0  0  0  0  0
   58.2703   31.3376   43.9482 H   0  0  0  0  0  0  0  0  0  0  0  0
   57.4285   32.3404   45.1678 H   0  0  0  0  0  0  0  0  0  0  0  0
   59.5373   30.2719   45.5271 H   0  0  0  0  0  0  0  0  0  0  0  0
   59.0481   31.6068   46.6199 H   0  0  0  0  0  0  0  0  0  0  0  0
   58.1648   28.6762   48.4183 H   0  0  0  0  0  0  0  0  0  0  0  0
   59.2869   28.3309   47.0344 H   0  0  0  0  0  0  0  0  0  0  0  0
   60.5264   29.2111   48.7943 H   0  0  0  0  0  0  0  0  0  0  0  0
   60.2379   30.5139   47.4254 H   0  0  0  0  0  0  0  0  0  0  0  0
   57.7807   31.5432   49.1030 H   0  0  0  0  0  0  0  0  0  0  0  0
   58.2613   30.3567   50.4265 H   0  0  0  0  0  0  0  0  0  0  0  0
   57.7540   32.5691   51.2169 H   0  0  0  0  0  0  0  0  0  0  0  0
   59.4866   31.9595   51.4987 H   0  0  0  0  0  0  0  0  0  0  0  0
   59.0340   34.5140   50.7170 H   0  0  0  0  0  0  0  0  0  0  0  0
   61.1761   33.2864   51.5797 H   0  0  0  0  0  0  0  0  0  0  0  0
   63.5645   33.0271   52.2316 H   0  0  0  0  0  0  0  0  0  0  0  0
   65.2904   33.1265   50.4355 H   0  0  0  0  0  0  0  0  0  0  0  0
   64.6207   33.4727   48.0830 H   0  0  0  0  0  0  0  0  0  0  0  0
   64.1852   33.9278   46.6050 H   0  0  0  0  0  0  0  0  0  0  0  0
   63.1454   32.9456   45.5184 H   0  0  0  0  0  0  0  0  0  0  0  0
   63.0053   34.7364   45.5184 H   0  0  0  0  0  0  0  0  0  0  0  0
   61.1832   34.1544   44.7918 H   0  0  0  0  0  0  0  0  0  0  0  0
   58.7952   34.4222   44.2140 H   0  0  0  0  0  0  0  0  0  0  0  0
   57.0609   34.3267   46.0090 H   0  0  0  0  0  0  0  0  0  0  0  0
   57.8077   33.9593   48.3365 H   0  0  0  0  0  0  0  0  0  0  0  0
  1  2  1  0
  2  3  1  0
  3  4  1  0
  4  5  1  0
  5  6  1  0
  6  7  1  0
  7  8  1  0
  8  9  1  0
  9 10  1  0
 10 11  1  0
 11 12  1  0
 12 13  1  0
 13 14  1  0
 14 15  2  0
 15 16  1  0
 16 17  2  0
 17 18  1  0
 18 19  2  0
 19 20  1  0
 20 21  2  0
 21 22  1  0
 21 23  1  0
 23 24  2  0
 24 25  1  0
 25 26  2  0
 26 27  1  0
 27 28  2  0
 28 14  1  0
 20 15  1  0
 28 23  1  0
  1 29  1  0
  1 30  1  0
  1 31  1  0
  2 32  1  0
  2 33  1  0
  3 34  1  0
  3 35  1  0
  4 36  1  0
  5 37  1  0
  5 38  1  0
  6 39  1  0
  6 40  1  0
  8 41  1  0
  8 42  1  0
  9 43  1  0
  9 44  1  0
 11 45  1  0
 11 46  1  0
 12 47  1  0
 12 48  1  0
 13 49  1  0
 16 50  1  0
 17 51  1  0
 18 52  1  0
 19 53  1  0
 22 54  1  0
 22 55  1  0
 22 56  1  0
 24 57  1  0
 25 58  1  0
 26 59  1  0
 27 60  1  0
M  CHG  1  21   1
M  END
>  <smiles>  (14) 
CCCNCCOCCOCCNc1c2ccccc2[n+](C)c2ccccc12

>  <score_type>  (14) 
oracle

>  <origin>  (14) 
adg

>  <m_score__min__energy>  (14) 
-5.3700000000000001

>  <m_primary>  (14) 
energy

$$$$
16:0
     RDKit          3D

 60 62  0  0  0  0  0  0  0  0999 V2000
   63.0220   33.7570   46.7460 C   0  0  0  0  0  0  0  0  0  0  0  0
   63.3780   33.5390   48.2250 C   0  0  0  0  0  0  0  0  0  0  0  0
   62.9380   32.2520   48.5860 N   0  0  0  0  0  0  0  0  0  0  0  0
   62.6420   31.4440   47.4480 C   0  0  0  0  0  0  0  0  0  0  0  0
   63.4510   31.6010   49.7190 C   0  0  0  0  0  0  0  0  0  0  0  0
   62.5150   31.0140   50.6960 C   0  0  0  0  0  0  0  0  0  0  0  0
   61.2300   31.4420   50.7280 O   0  0  0  0  0  0  0  0  0  0  0  0
   60.9030   32.3650   51.7050 C   0  0  0  0  0  0  0  0  0  0  0  0
   59.5500   32.9690   51.2790 C   0  0  0  0  0  0  0  0  0  0  0  0
   59.0520   32.1820   50.1200 C   0  0  0  0  0  0  0  0  0  0  0  0
   59.8160   32.2400   48.9200 N   0  0  0  0  0  0  0  0  0  0  0  0
   59.2280   32.0630   47.6320 C   0  0  0  0  0  0  0  0  0  0  0  0
   58.8430   33.1090   46.8280 C   0  0  0  0  0  0  0  0  0  0  0  0
   58.3010   32.9210   45.5520 C   0  0  0  0  0  0  0  0  0  0  0  0
   58.1450   31.6650   45.0840 N   0  0  0  0  0  0  0  0  0  0  0  0
   57.5800   31.4160   43.7920 C   0  0  0  0  0  0  0  0  0  0  0  0
   58.5170   30.6290   45.8590 C   0  0  0  0  0  0  0  0  0  0  0  0
   58.3900   29.3030   45.4370 C   0  0  0  0  0  0  0  0  0  0  0  0
   58.7740   28.2390   46.2280 C   0  0  0  0  0  0  0  0  0  0  0  0
   59.3050   28.4410   47.4790 C   0  0  0  0  0  0  0  0  0  0  0  0
   59.4430   29.7370   47.9220 C   0  0  0  0  0  0  0  0  0  0  0  0
   59.0560   30.7910   47.1250 C   0  0  0  0  0  0  0  0  0  0  0  0
   57.9560   34.1370   44.8010 C   0  0  0  0  0  0  0  0  0  0  0  0
   59.1770   35.0650   44.8680 C   0  0  0  0  0  0  0  0  0  0  0  0
   59.6740   35.2980   46.2520 C   0  0  0  0  0  0  0  0  0  0  0  0
   58.9490   34.5070   47.2970 C   0  0  0  0  0  0  0  0  0  0  0  0
   62.0859   34.3302   46.6748 H   0  0  0  0  0  0  0  0  0  0  0  0
   63.8317   34.3143   46.2523 H   0  0  0  0  0  0  0  0  0  0  0  0
   62.8936   32.7825   46.2523 H   0  0  0  0  0  0  0  0  0  0  0  0
   64.4666   33.6153   48.3634 H   0  0  0  0  0  0  0  0  0  0  0  0
   62.8952   34.3016   48.8538 H   0  0  0  0  0  0  0  0  0  0  0  0
   62.2814   30.4596   47.7811 H   0  0  0  0  0  0  0  0  0  0  0  0
   61.8649   31.9337   46.8428 H   0  0  0  0  0  0  0  0  0  0  0  0
   63.5515   31.3158   46.8428 H   0  0  0  0  0  0  0  0  0  0  0  0
   64.0927   30.7840   49.3574 H   0  0  0  0  0  0  0  0  0  0  0  0
   63.9465   32.4059   50.2818 H   0  0  0  0  0  0  0  0  0  0  0  0
   62.4871   29.9316   50.5022 H   0  0  0  0  0  0  0  0  0  0  0  0
   62.9192   31.3359   51.6671 H   0  0  0  0  0  0  0  0  0  0  0  0
   60.8103   31.8704   52.6831 H   0  0  0  0  0  0  0  0  0  0  0  0
   61.6778   33.1395   51.8048 H   0  0  0  0  0  0  0  0  0  0  0  0
   58.8328   32.9068   52.1107 H   0  0  0  0  0  0  0  0  0  0  0  0
   59.6684   34.0278   51.0051 H   0  0  0  0  0  0  0  0  0  0  0  0
   59.0037   31.1281   50.4314 H   0  0  0  0  0  0  0  0  0  0  0  0
   58.0836   32.6360   49.8629 H   0  0  0  0  0  0  0  0  0  0  0  0
   60.8540   32.4150   48.9170 H   0  0  0  0  0  0  0  0  0  0  0  0
   56.5791   30.9749   43.9083 H   0  0  0  0  0  0  0  0  0  0  0  0
   57.5013   32.3628   43.2376 H   0  0  0  0  0  0  0  0  0  0  0  0
   58.2257   30.7191   43.2376 H   0  0  0  0  0  0  0  0  0  0  0  0
   57.9698   29.1002   44.4408 H   0  0  0  0  0  0  0  0  0  0  0  0
   58.6529   27.2128   45.8507 H   0  0  0  0  0  0  0  0  0  0  0  0
   59.6109   27.5920   48.1081 H   0  0  0  0  0  0  0  0  0  0  0  0
   59.8651   29.9318   48.9189 H   0  0  0  0  0  0  0  0  0  0  0  0
   57.7304   33.8839   43.7546 H   0  0  0  0  0  0  0  0  0  0  0  0
   57.0674   34.6245   45.2285 H   0  0  0  0  0  0  0  0  0  0  0  0
   59.9889   34.6144   44.2783 H   0  0  0  0  0  0  0  0  0  0  0  0
   58.8623   36.0410   44.4699 H   0  0  0  0  0  0  0  0  0  0  0  0
   60.7392   35.0258   46.2882 H   0  0  0  0  0  0  0  0  0  0  0  0
   59.5024   36.3606   46.4788 H   0  0  0  0  0  0  0  0  0  0  0  0
   59.5079   34.5407   48.2438 H   0  0  0  0  0  0  0  0  0  0  0  0
   57.9468   34.9283   47.4649 H   0  0  0  0  0  0  0  0  0  0  0  0
  1  2  1  0
  2  3  1  0
  3  4  1  0
  3  5  1  0
  5  6  1  0
  6  7  1  0
  7  8  1  0
  8  9  1  0
  9 10  1  0
 10 11  1  0
 11 12  1  0
 12 13  2  0
 13 14  1  0
 14 15  2  0
 15 16  1  0
 15 17  1  0
 17 18  2  0
 18 19  1  0
 19 20  2  0
 20 21  1  0
 21 22  2  0
 14 23  1  0
 23 24  1  0
 24 25  1  0
 25 26  1  0
 22 12  1  0
 26 13  1  0
 22 17  1  0
  1 27  1  0
  1 28  1  0
  1 29  1  0
  2 30  1  0
  2 31  1  0
  4 32  1  0
  4 33  1  0
  4 34  1  0
  5 35  1  0
  5 36  1  0
  6 37  1  0
  6 38  1  0
  8 39  1  0
  8 40  1  0
  9 41  1  0
  9 42  1  0
 10 43  1  0
 10 44  1  0
 11 45  1  0
 16 46  1  0
 16 47  1  0
 16 48  1  0
 18 49  1  0
 19 50  1  0
 20 51  1  0
 21 52  1  0
 23 53  1  0
 23 54  1  0
 24 55  1  0
 24 56  1  0
 25 57  1  0
 25 58  1  0
 26 59  1  0
 26 60  1  0
M  CHG  1  15   1
M  END
>  <smiles>  (15) 
CCN(C)CCOCCCNc1c2c([n+](C)c3ccccc13)CCCC2

>  <score_type>  (15) 
oracle

>  <origin>  (15) 
adg

>  <m_score__min__energy>  (15) 
-5.46

>  <m_primary>  (15) 
energy

$$$$
17:0
     RDKit          3D

 53 56  0  0  0  0  0  0  0  0999 V2000
   60.3020   34.2010   49.0470 C   0  0  0  0  0  0  0  0  0  0  0  0
   61.6430   33.5060   49.1770 C   0  0  0  0  0  0  0  0  0  0  0  0
   61.9260   32.6760   48.0240 N   0  0  0  0  0  0  0  0  0  0  0  0
   63.2690   32.8850   47.5240 C   0  0  0  0  0  0  0  0  0  0  0  0
   63.3570   33.8340   46.3760 C   0  0  0  0  0  0  0  0  0  0  0  0
   61.7890   31.2670   48.3200 C   0  0  0  0  0  0  0  0  0  0  0  0
   61.2240   30.4560   47.1820 C   0  0  0  0  0  0  0  0  0  0  0  0
   59.7620   30.2840   47.4290 N   0  0  0  0  0  0  0  0  0  0  0  0
   58.9760   30.2510   46.2770 C   0  0  0  0  0  0  0  0  0  0  0  0
   58.6850   31.5300   45.7480 C   0  0  0  0  0  0  0  0  0  0  0  0
   59.1080   32.6760   46.4100 C   0  0  0  0  0  0  0  0  0  0  0  0
   58.8530   33.9490   45.9530 C   0  0  0  0  0  0  0  0  0  0  0  0
   58.1420   34.0610   44.7810 C   0  0  0  0  0  0  0  0  0  0  0  0
   57.7170   32.9310   44.1190 C   0  0  0  0  0  0  0  0  0  0  0  0
   57.9810   31.6810   44.5900 C   0  0  0  0  0  0  0  0  0  0  0  0
   57.5440   30.6260   43.9150 N   0  0  0  0  0  0  0  0  0  0  0  0
   56.8140   30.8190   42.7010 C   0  0  0  0  0  0  0  0  0  0  0  0
   57.8010   29.3960   44.3930 C   0  0  0  0  0  0  0  0  0  0  0  0
   57.4390   28.2200   43.8690 N   0  0  0  0  0  0  0  0  0  0  0  0
   57.9080   27.2760   44.7040 C   0  0  0  0  0  0  0  0  0  0  0  0
   57.7700   25.9170   44.5960 C   0  0  0  0  0  0  0  0  0  0  0  0
   58.3020   25.1150   45.5670 C   0  0  0  0  0  0  0  0  0  0  0  0
   58.9540   25.6950   46.6160 C   0  0  0  0  0  0  0  0  0  0  0  0
   59.0980   27.0730   46.7310 C   0  0  0  0  0  0  0  0  0  0  0  0
   59.8820   27.6260   48.1740 Cl  0  0  0  0  0  0  0  0  0  0  0  0
   58.5690   27.8640   45.7570 C   0  0  0  0  0  0  0  0  0  0  0  0
   58.5170   29.1930   45.5780 C   0  0  0  0  0  0  0  0  0  0  0  0
   59.8987   34.4100   50.0488 H   0  0  0  0  0  0  0  0  0  0  0  0
   60.4304   35.1461   48.4989 H   0  0  0  0  0  0  0  0  0  0  0  0
   59.6039   33.5512   48.4989 H   0  0  0  0  0  0  0  0  0  0  0  0
   62.4319   34.2667   49.2718 H   0  0  0  0  0  0  0  0  0  0  0  0
   61.6117   32.8604   50.0671 H   0  0  0  0  0  0  0  0  0  0  0  0
   63.8846   33.2803   48.3455 H   0  0  0  0  0  0  0  0  0  0  0  0
   63.6223   31.9109   47.1547 H   0  0  0  0  0  0  0  0  0  0  0  0
   63.4523   34.8617   46.7563 H   0  0  0  0  0  0  0  0  0  0  0  0
   64.2361   33.5870   45.7627 H   0  0  0  0  0  0  0  0  0  0  0  0
   62.4475   33.7529   45.7627 H   0  0  0  0  0  0  0  0  0  0  0  0
   62.7829   30.8674   48.5701 H   0  0  0  0  0  0  0  0  0  0  0  0
   61.0780   31.1838   49.1552 H   0  0  0  0  0  0  0  0  0  0  0  0
   61.3835   30.9841   46.2303 H   0  0  0  0  0  0  0  0  0  0  0  0
   61.7223   29.4772   47.1221 H   0  0  0  0  0  0  0  0  0  0  0  0
   59.3980   30.2380   48.4190 H   0  0  0  0  0  0  0  0  0  0  0  0
   59.6747   32.5602   47.3456 H   0  0  0  0  0  0  0  0  0  0  0  0
   59.2022   34.8369   46.5005 H   0  0  0  0  0  0  0  0  0  0  0  0
   57.9123   35.0558   44.3715 H   0  0  0  0  0  0  0  0  0  0  0  0
   57.1485   33.0411   43.1838 H   0  0  0  0  0  0  0  0  0  0  0  0
   55.7754   31.0936   42.9374 H   0  0  0  0  0  0  0  0  0  0  0  0
   57.2820   31.6243   42.1158 H   0  0  0  0  0  0  0  0  0  0  0  0
   56.8229   29.8876   42.1158 H   0  0  0  0  0  0  0  0  0  0  0  0
   56.8940   28.0530   42.9780 H   0  0  0  0  0  0  0  0  0  0  0  0
   57.2382   25.4772   43.7394 H   0  0  0  0  0  0  0  0  0  0  0  0
   58.2061   24.0210   45.5037 H   0  0  0  0  0  0  0  0  0  0  0  0
   59.3806   25.0497   47.3980 H   0  0  0  0  0  0  0  0  0  0  0  0
  1  2  1  0
  2  3  1  0
  3  4  1  0
  4  5  1  0
  3  6  1  0
  6  7  1  0
  7  8  1  0
  8  9  1  0
  9 10  2  0
 10 11  1  0
 11 12  2  0
 12 13  1  0
 13 14  2  0
 14 15  1  0
 15 16  2  0
 16 17  1  0
 16 18  1  0
 18 19  1  0
 19 20  1  0
 20 21  2  0
 21 22  1  0
 22 23  2  0
 23 24  1  0
 24 25  1  0
 24 26  2  0
 26 27  1  0
 27  9  1  0
 15 10  1  0
 27 18  2  0
 26 20  1  0
  1 28  1  0
  1 29  1  0
  1 30  1  0
  2 31  1  0
  2 32  1  0
  4 33  1  0
  4 34  1  0
  5 35  1  0
  5 36  1  0
  5 37  1  0
  6 38  1  0
  6 39  1  0
  7 40  1  0
  7 41  1  0
  8 42  1  0
 11 43  1  0
 12 44  1  0
 13 45  1  0
 14 46  1  0
 17 47  1  0
 17 48  1  0
 17 49  1  0
 19 50  1  0
 21 51  1  0
 22 52  1  0
 23 53  1  0
M  CHG  1  16   1
M  END
>  <smiles>  (16) 
CCN(CC)CCNc1c2ccccc2[n+](C)c2[nH]c3cccc(Cl)c3c12

>  <score_type>  (16) 
oracle

>  <origin>  (16) 
adg

>  <m_score__min__energy>  (16) 
-6.9299999999999997

>  <m_primary>  (16) 
energy

$$$$
18:0
     RDKit          3D

 27 30  0  0  0  0  0  0  0  0999 V2000
   59.2980   34.5710   47.4220 C   0  0  0  0  0  0  0  0  0  0  0  0
   59.6410   35.3070   46.3520 C   0  0  0  0  0  0  0  0  0  0  0  0
   59.0070   34.2580   44.9170 S   0  0  0  0  0  0  0  0  0  0  0  0
   58.3930   33.0210   45.9530 C   0  0  0  0  0  0  0  0  0  0  0  0
   57.7150   31.8000   45.4740 C   0  0  0  0  0  0  0  0  0  0  0  0
   56.6080   31.7450   44.7420 N   0  0  0  0  0  0  0  0  0  0  0  0
   56.3200   30.4510   44.5200 N   0  0  0  0  0  0  0  0  0  0  0  0
   57.2700   29.7250   45.1280 C   0  0  0  0  0  0  0  0  0  0  0  0
   57.3230   28.2640   45.1280 C   0  0  0  0  0  0  0  0  0  0  0  0
   57.0370   27.3620   46.1600 C   0  0  0  0  0  0  0  0  0  0  0  0
   57.1750   26.0650   45.8650 C   0  0  0  0  0  0  0  0  0  0  0  0
   56.9420   24.9730   46.7450 C   0  0  0  0  0  0  0  0  0  0  0  0
   57.1260   23.6930   46.3050 C   0  0  0  0  0  0  0  0  0  0  0  0
   57.5310   23.3440   45.0370 C   0  0  0  0  0  0  0  0  0  0  0  0
   57.7610   24.4200   44.1690 C   0  0  0  0  0  0  0  0  0  0  0  0
   57.5750   25.7080   44.6190 C   0  0  0  0  0  0  0  0  0  0  0  0
   57.7950   27.2290   43.7280 S   0  0  0  0  0  0  0  0  0  0  0  0
   58.0770   30.5560   45.6820 O   0  0  0  0  0  0  0  0  0  0  0  0
   58.6610   33.4020   47.2270 C   0  0  0  0  0  0  0  0  0  0  0  0
   59.5336   34.9176   48.4390 H   0  0  0  0  0  0  0  0  0  0  0  0
   60.1602   36.2762   46.3202 H   0  0  0  0  0  0  0  0  0  0  0  0
   56.7171   27.7009   47.1564 H   0  0  0  0  0  0  0  0  0  0  0  0
   56.6141   25.1585   47.7785 H   0  0  0  0  0  0  0  0  0  0  0  0
   56.9358   22.8784   47.0193 H   0  0  0  0  0  0  0  0  0  0  0  0
   57.6645   22.2970   44.7273 H   0  0  0  0  0  0  0  0  0  0  0  0
   58.0880   24.2368   43.1348 H   0  0  0  0  0  0  0  0  0  0  0  0
   58.3652   32.7716   48.0786 H   0  0  0  0  0  0  0  0  0  0  0  0
  1  2  2  0
  2  3  1  0
  3  4  1  0
  4  5  1  0
  5  6  2  0
  6  7  1  0
  7  8  2  0
  8  9  1  0
  9 10  2  0
 10 11  1  0
 11 12  2  0
 12 13  1  0
 13 14  2  0
 14 15  1  0
 15 16  2  0
 16 17  1  0
  8 18  1  0
  4 19  2  0
 19  1  1  0
 18  5  1  0
 17  9  1  0
 16 11  1  0
  1 20  1  0
  2 21  1  0
 10 22  1  0
 12 23  1  0
 13 24  1  0
 14 25  1  0
 15 26  1  0
 19 27  1  0
M  END
>  <smiles>  (17) 
c1csc(-c2nnc(-c3cc4ccccc4s3)o2)c1

>  <score_type>  (17) 
oracle

>  <origin>  (17) 
adg

>  <m_score__min__energy>  (17) 
-7.2599999999999998

>  <m_primary>  (17) 
energy

$$$$
19:0
     RDKit          3D

 58 60  0  0  0  0  0  0  0  0999 V2000
   59.3990   34.8950   46.0010 C   0  0  0  0  0  0  0  0  0  0  0  0
   58.1510   34.2220   46.5470 C   0  0  0  0  0  0  0  0  0  0  0  0
   57.6880   33.1590   45.7790 N   0  0  0  0  0  0  0  0  0  0  0  0
   58.0740   32.8530   44.4940 C   0  0  0  0  0  0  0  0  0  0  0  0
   57.3990   31.7680   43.7340 C   0  0  0  0  0  0  0  0  0  0  0  0
   57.3960   30.4120   44.2980 C   0  0  0  0  0  0  0  0  0  0  0  0
   57.4080   30.3330   45.7500 N   0  0  0  0  0  0  0  0  0  0  0  0
   58.4500   29.5030   46.2510 C   0  0  0  0  0  0  0  0  0  0  0  0
   59.3580   30.0680   47.2630 C   0  0  0  0  0  0  0  0  0  0  0  0
   59.1800   31.4200   47.6830 N   0  0  0  0  0  0  0  0  0  0  0  0
   60.0440   32.0490   48.6040 C   0  0  0  0  0  0  0  0  0  0  0  0
   59.6130   32.0540   49.9310 C   0  0  0  0  0  0  0  0  0  0  0  0
   60.3840   32.6550   50.9380 C   0  0  0  0  0  0  0  0  0  0  0  0
   61.5610   33.2450   50.6640 N   0  0  0  0  0  0  0  0  0  0  0  0
   62.3770   33.8500   51.6650 C   0  0  0  0  0  0  0  0  0  0  0  0
   61.9880   33.2470   49.3800 C   0  0  0  0  0  0  0  0  0  0  0  0
   63.1980   33.8580   49.0190 C   0  0  0  0  0  0  0  0  0  0  0  0
   63.6380   33.8790   47.7090 C   0  0  0  0  0  0  0  0  0  0  0  0
   62.8930   33.2940   46.7070 C   0  0  0  0  0  0  0  0  0  0  0  0
   61.7120   32.7000   47.0750 C   0  0  0  0  0  0  0  0  0  0  0  0
   61.2380   32.6560   48.3570 C   0  0  0  0  0  0  0  0  0  0  0  0
   59.7950   32.5890   52.3000 C   0  0  0  0  0  0  0  0  0  0  0  0
   58.3520   33.1000   52.1480 C   0  0  0  0  0  0  0  0  0  0  0  0
   57.5470   32.1500   51.3350 C   0  0  0  0  0  0  0  0  0  0  0  0
   58.3030   31.4020   50.2930 C   0  0  0  0  0  0  0  0  0  0  0  0
   60.0282   35.2343   46.8371 H   0  0  0  0  0  0  0  0  0  0  0  0
   59.9625   34.1784   45.3853 H   0  0  0  0  0  0  0  0  0  0  0  0
   59.1099   35.7595   45.3853 H   0  0  0  0  0  0  0  0  0  0  0  0
   58.3768   33.8450   47.5554 H   0  0  0  0  0  0  0  0  0  0  0  0
   57.3564   34.9827   46.5411 H   0  0  0  0  0  0  0  0  0  0  0  0
   57.1910   32.4080   46.3310 H   0  0  0  0  0  0  0  0  0  0  0  0
   57.9525   33.7725   43.9027 H   0  0  0  0  0  0  0  0  0  0  0  0
   59.0911   32.4575   44.6325 H   0  0  0  0  0  0  0  0  0  0  0  0
   56.3486   32.0677   43.6046 H   0  0  0  0  0  0  0  0  0  0  0  0
   57.9943   31.6746   42.8137 H   0  0  0  0  0  0  0  0  0  0  0  0
   56.4918   29.8987   43.9391 H   0  0  0  0  0  0  0  0  0  0  0  0
   58.3352   29.9465   43.9646 H   0  0  0  0  0  0  0  0  0  0  0  0
   56.4460   30.0930   46.0120 H   0  0  0  0  0  0  0  0  0  0  0  0
   57.9760   28.6157   46.6959 H   0  0  0  0  0  0  0  0  0  0  0  0
   59.0938   29.3142   45.3793 H   0  0  0  0  0  0  0  0  0  0  0  0
   59.2695   29.4386   48.1608 H   0  0  0  0  0  0  0  0  0  0  0  0
   60.3359   30.0779   46.7594 H   0  0  0  0  0  0  0  0  0  0  0  0
   58.3720   31.9870   47.2940 H   0  0  0  0  0  0  0  0  0  0  0  0
   62.0021   33.5720   52.6611 H   0  0  0  0  0  0  0  0  0  0  0  0
   63.4141   33.5008   51.5530 H   0  0  0  0  0  0  0  0  0  0  0  0
   62.3442   34.9438   51.5530 H   0  0  0  0  0  0  0  0  0  0  0  0
   63.8123   34.3325   49.7984 H   0  0  0  0  0  0  0  0  0  0  0  0
   64.5924   34.3675   47.4632 H   0  0  0  0  0  0  0  0  0  0  0  0
   63.2301   33.3031   45.6600 H   0  0  0  0  0  0  0  0  0  0  0  0
   61.1067   32.2282   46.2869 H   0  0  0  0  0  0  0  0  0  0  0  0
   59.7992   31.5535   52.6711 H   0  0  0  0  0  0  0  0  0  0  0  0
   60.3672   33.1901   53.0220 H   0  0  0  0  0  0  0  0  0  0  0  0
   57.8965   33.2004   53.1442 H   0  0  0  0  0  0  0  0  0  0  0  0
   58.3713   34.0757   51.6403 H   0  0  0  0  0  0  0  0  0  0  0  0
   57.0951   31.4164   52.0188 H   0  0  0  0  0  0  0  0  0  0  0  0
   56.8103   32.7623   50.7943 H   0  0  0  0  0  0  0  0  0  0  0  0
   58.5082   30.3888   50.6689 H   0  0  0  0  0  0  0  0  0  0  0  0
   57.6823   31.3863   49.3850 H   0  0  0  0  0  0  0  0  0  0  0  0
  1  2  1  0
  2  3  1  0
  3  4  1  0
  4  5  1  0
  5  6  1  0
  6  7  1  0
  7  8  1  0
  8  9  1  0
  9 10  1  0
 10 11  1  0
 11 12  2  0
 12 13  1  0
 13 14  2  0
 14 15  1  0
 14 16  1  0
 16 17  2  0
 17 18  1  0
 18 19  2  0
 19 20  1  0
 20 21  2  0
 13 22  1  0
 22 23  1  0
 23 24  1  0
 24 25  1  0
 21 11  1  0
 25 12  1  0
 21 16  1  0
  1 26  1  0
  1 27  1  0
  1 28  1  0
  2 29  1  0
  2 30  1  0
  3 31  1  0
  4 32  1  0
  4 33  1  0
  5 34  1  0
  5 35  1  0
  6 36  1  0
  6 37  1  0
  7 38  1  0
  8 39  1  0
  8 40  1  0
  9 41  1  0
  9 42  1  0
 10 43  1  0
 15 44  1  0
 15 45  1  0
 15 46  1  0
 17 47  1  0
 18 48  1  0
 19 49  1  0
 20 50  1  0
 22 51  1  0
 22 52  1  0
 23 53  1  0
 23 54  1  0
 24 55  1  0
 24 56  1  0
 25 57  1  0
 25 58  1  0
M  CHG  1  14   1
M  END
>  <smiles>  (18) 
CCNCCCNCCNc1c2c([n+](C)c3ccccc13)CCCC2

>  <score_type>  (18) 
oracle

>  <origin>  (18) 
adg

>  <m_score__min__energy>  (18) 
-5.7300000000000004

>  <m_primary>  (18) 
energy

$$$$
20:0
     RDKit          3D

 36 39  0  0  0  0  0  0  0  0999 V2000
   62.5510   33.7970   46.7700 C   0  0  0  0  0  0  0  0  0  0  0  0
   61.2540   33.1350   46.8200 N   0  0  0  0  0  0  0  0  0  0  0  0
   61.0620   31.9120   47.2740 N   0  0  0  0  0  0  0  0  0  0  0  0
   59.7580   31.5760   47.1940 C   0  0  0  0  0  0  0  0  0  0  0  0
   59.1360   32.6820   46.6540 C   0  0  0  0  0  0  0  0  0  0  0  0
   60.0890   33.6740   46.4150 C   0  0  0  0  0  0  0  0  0  0  0  0
   59.6720   34.9800   45.8280 C   0  0  0  0  0  0  0  0  0  0  0  0
   58.5140   34.8490   44.8970 C   0  0  0  0  0  0  0  0  0  0  0  0
   57.7380   33.6620   45.0140 N   0  0  0  0  0  0  0  0  0  0  0  0
   57.8850   32.7090   43.9590 C   0  0  0  0  0  0  0  0  0  0  0  0
   57.4230   31.3600   44.3870 C   0  0  0  0  0  0  0  0  0  0  0  0
   58.1960   30.2960   44.7400 N   0  0  0  0  0  0  0  0  0  0  0  0
   57.3960   29.2640   45.0610 C   0  0  0  0  0  0  0  0  0  0  0  0
   57.8250   27.9030   45.5050 C   0  0  0  0  0  0  0  0  0  0  0  0
   56.9850   27.0060   45.9920 C   0  0  0  0  0  0  0  0  0  0  0  0
   57.5050   25.7600   46.3760 C   0  0  0  0  0  0  0  0  0  0  0  0
   59.2790   25.8620   46.0300 S   0  0  0  0  0  0  0  0  0  0  0  0
   59.1710   27.5740   45.3970 C   0  0  0  0  0  0  0  0  0  0  0  0
   56.1340   29.7010   44.9040 N   0  0  0  0  0  0  0  0  0  0  0  0
   56.1690   30.9510   44.5020 O   0  0  0  0  0  0  0  0  0  0  0  0
   57.7400   33.0220   46.2900 C   0  0  0  0  0  0  0  0  0  0  0  0
   62.9091   33.9798   47.7939 H   0  0  0  0  0  0  0  0  0  0  0  0
   63.2699   33.1555   46.2392 H   0  0  0  0  0  0  0  0  0  0  0  0
   62.4532   34.7555   46.2392 H   0  0  0  0  0  0  0  0  0  0  0  0
   59.2919   30.6260   47.4943 H   0  0  0  0  0  0  0  0  0  0  0  0
   59.3909   35.6597   46.6459 H   0  0  0  0  0  0  0  0  0  0  0  0
   60.5217   35.3703   45.2486 H   0  0  0  0  0  0  0  0  0  0  0  0
   57.8452   35.7045   45.0726 H   0  0  0  0  0  0  0  0  0  0  0  0
   58.9528   34.8125   43.8890 H   0  0  0  0  0  0  0  0  0  0  0  0
   57.2885   33.0354   43.0943 H   0  0  0  0  0  0  0  0  0  0  0  0
   58.9502   32.6450   43.6919 H   0  0  0  0  0  0  0  0  0  0  0  0
   55.9126   27.2289   46.0931 H   0  0  0  0  0  0  0  0  0  0  0  0
   56.9536   24.9060   46.7964 H   0  0  0  0  0  0  0  0  0  0  0  0
   59.9888   28.2031   45.0158 H   0  0  0  0  0  0  0  0  0  0  0  0
   57.3166   33.7013   47.0445 H   0  0  0  0  0  0  0  0  0  0  0  0
   57.1319   32.1063   46.2488 H   0  0  0  0  0  0  0  0  0  0  0  0
  1  2  1  0
  2  3  1  0
  3  4  2  0
  4  5  1  0
  5  6  2  0
  6  7  1  0
  7  8  1  0
  8  9  1  0
  9 10  1  0
 10 11  1  0
 11 12  2  0
 12 13  1  0
 13 14  1  0
 14 15  1  0
 15 16  2  0
 16 17  1  0
 17 18  1  0
 13 19  2  0
 19 20  1  0
  9 21  1  0
  6  2  1  0
 20 11  1  0
 21  5  1  0
 18 14  2  0
  1 22  1  0
  1 23  1  0
  1 24  1  0
  4 25  1  0
  7 26  1  0
  7 27  1  0
  8 28  1  0
  8 29  1  0
 10 30  1  0
 10 31  1  0
 15 32  1  0
 16 33  1  0
 18 34  1  0
 21 35  1  0
 21 36  1  0
M  END
>  <smiles>  (19) 
Cn1ncc2c1CCN(Cc1nc(-c3ccsc3)no1)C2

>  <score_type>  (19) 
oracle

>  <origin>  (19) 
adg

>  <m_score__min__energy>  (19) 
-7.8499999999999996

>  <m_primary>  (19) 
energy

$$$$
21:0
     RDKit          3D

 49 51  0  0  1  0  0  0  0  0999 V2000
   58.0610   28.2270   43.7590 C   0  0  0  0  0  0  0  0  0  0  0  0
   57.0210   28.3930   44.8530 C   0  0  1  0  0  0  0  0  0  0  0  0
   57.4860   27.8980   46.1710 C   0  0  0  0  0  0  0  0  0  0  0  0
   57.7770   26.4260   46.0970 C   0  0  0  0  0  0  0  0  0  0  0  0
   57.1200   25.5740   47.1210 C   0  0  0  0  0  0  0  0  0  0  0  0
   55.8850   24.9670   46.6580 N   0  0  0  0  0  0  0  0  0  0  0  0
   55.8360   24.8610   45.2170 C   0  0  0  0  0  0  0  0  0  0  0  0
   55.5670   23.7280   47.3180 C   0  0  0  0  0  0  0  0  0  0  0  0
   56.4670   29.7140   44.8200 N   0  0  0  0  0  0  0  0  0  0  0  0
   57.0670   30.8250   44.8570 C   0  0  0  0  0  0  0  0  0  0  0  0
   57.1400   31.5680   43.7440 N   0  0  0  0  0  0  0  0  0  0  0  0
   57.7740   32.7500   43.7860 C   0  0  0  0  0  0  0  0  0  0  0  0
   58.3650   33.2370   44.9640 C   0  0  0  0  0  0  0  0  0  0  0  0
   58.2620   32.4420   46.0700 C   0  0  0  0  0  0  0  0  0  0  0  0
   57.6330   31.2760   46.0170 N   0  0  0  0  0  0  0  0  0  0  0  0
   58.8650   32.9290   47.3000 C   0  0  0  0  0  0  0  0  0  0  0  0
   58.7880   32.1750   48.4500 C   0  0  0  0  0  0  0  0  0  0  0  0
   59.3580   32.6420   49.6230 C   0  0  0  0  0  0  0  0  0  0  0  0
   59.9990   33.8630   49.6270 C   0  0  0  0  0  0  0  0  0  0  0  0
   60.0510   34.5820   48.4580 C   0  0  0  0  0  0  0  0  0  0  0  0
   59.4920   34.1470   47.2580 C   0  0  0  0  0  0  0  0  0  0  0  0
   59.6430   35.0350   46.1120 C   0  0  0  0  0  0  0  0  0  0  0  0
   59.0190   34.5440   44.8640 C   0  0  0  0  0  0  0  0  0  0  0  0
   59.0499   28.0692   44.2141 H   0  0  0  0  0  0  0  0  0  0  0  0
   57.8016   27.3589   43.1352 H   0  0  0  0  0  0  0  0  0  0  0  0
   58.0848   29.1327   43.1352 H   0  0  0  0  0  0  0  0  0  0  0  0
   56.1695   27.7267   44.6506 H   0  0  0  0  0  0  0  0  0  0  0  0
   58.4014   28.4357   46.4591 H   0  0  0  0  0  0  0  0  0  0  0  0
   56.6983   28.0718   46.9189 H   0  0  0  0  0  0  0  0  0  0  0  0
   57.4547   26.0698   45.1074 H   0  0  0  0  0  0  0  0  0  0  0  0
   58.8567   26.3303   46.2840 H   0  0  0  0  0  0  0  0  0  0  0  0
   57.8168   24.7725   47.4073 H   0  0  0  0  0  0  0  0  0  0  0  0
   56.8643   26.2247   47.9702 H   0  0  0  0  0  0  0  0  0  0  0  0
   55.3898   23.8958   44.9353 H   0  0  0  0  0  0  0  0  0  0  0  0
   55.2252   25.6801   44.8096 H   0  0  0  0  0  0  0  0  0  0  0  0
   56.8557   24.9264   44.8096 H   0  0  0  0  0  0  0  0  0  0  0  0
   55.6042   23.8730   48.4078 H   0  0  0  0  0  0  0  0  0  0  0  0
   54.5569   23.4054   47.0253 H   0  0  0  0  0  0  0  0  0  0  0  0
   56.2968   22.9588   47.0253 H   0  0  0  0  0  0  0  0  0  0  0  0
   57.8328   33.3562   42.8700 H   0  0  0  0  0  0  0  0  0  0  0  0
   57.5280   30.6380   46.8250 H   0  0  0  0  0  0  0  0  0  0  0  0
   58.2741   31.2025   48.4370 H   0  0  0  0  0  0  0  0  0  0  0  0
   59.2998   32.0435   50.5441 H   0  0  0  0  0  0  0  0  0  0  0  0
   60.4589   34.2528   50.5470 H   0  0  0  0  0  0  0  0  0  0  0  0
   60.5625   35.5557   48.4697 H   0  0  0  0  0  0  0  0  0  0  0  0
   59.1862   36.0029   46.3659 H   0  0  0  0  0  0  0  0  0  0  0  0
   60.7226   35.1053   45.9131 H   0  0  0  0  0  0  0  0  0  0  0  0
   58.2634   35.2791   44.5496 H   0  0  0  0  0  0  0  0  0  0  0  0
   59.8394   34.4195   44.1419 H   0  0  0  0  0  0  0  0  0  0  0  0
  1  2  1  0
  2  3  1  0
  3  4  1  0
  4  5  1  0
  5  6  1  0
  6  7  1  0
  6  8  1  0
  2  9  1  0
  9 10  2  0
 10 11  1  0
 11 12  2  0
 12 13  1  0
 13 14  2  0
 14 15  1  0
 14 16  1  0
 16 17  2  0
 17 18  1  0
 18 19  2  0
 19 20  1  0
 20 21  2  0
 21 22  1  0
 22 23  1  0
 15 10  1  0
 21 16  1  0
 23 13  1  0
  1 24  1  0
  1 25  1  0
  1 26  1  0
  2 27  1  6
  3 28  1  0
  3 29  1  0
  4 30  1  0
  4 31  1  0
  5 32  1  0
  5 33  1  0
  7 34  1  0
  7 35  1  0
  7 36  1  0
  8 37  1  0
  8 38  1  0
  8 39  1  0
 12 40  1  0
 15 41  1  0
 17 42  1  0
 18 43  1  0
 19 44  1  0
 20 45  1  0
 22 46  1  0
 22 47  1  0
 23 48  1  0
 23 49  1  0
M  END
>  <smiles>  (20) 
CC(CCCN(C)C)N=c1ncc2c([nH]1)-c1ccccc1CC2

>  <score_type>  (20) 
oracle

>  <origin>  (20) 
adg

>  <m_score__min__energy>  (20) 
-7.9000000000000004

>  <m_primary>  (20) 
energy

$$$$
22:0
     RDKit          3D

 69 71  0  0  0  0  0  0  0  0999 V2000
   57.7690   27.2110   46.3790 C   0  0  0  0  0  0  0  0  0  0  0  0
   58.4540   28.5360   46.6230 C   0  0  0  0  0  0  0  0  0  0  0  0
   58.3420   29.3550   45.4850 N   0  0  0  0  0  0  0  0  0  0  0  0
   59.5360   29.6510   44.7870 C   0  0  0  0  0  0  0  0  0  0  0  0
   60.7810   28.9580   45.2830 C   0  0  0  0  0  0  0  0  0  0  0  0
   57.1850   29.1910   44.6880 C   0  0  0  0  0  0  0  0  0  0  0  0
   56.5960   30.4570   44.1110 C   0  0  0  0  0  0  0  0  0  0  0  0
   57.0260   31.4900   44.9370 O   0  0  0  0  0  0  0  0  0  0  0  0
   57.6560   32.5230   44.2990 C   0  0  0  0  0  0  0  0  0  0  0  0
   57.4200   33.8850   44.9060 C   0  0  0  0  0  0  0  0  0  0  0  0
   58.6600   34.4300   45.5480 C   0  0  0  0  0  0  0  0  0  0  0  0
   58.6480   34.3780   47.0550 C   0  0  0  0  0  0  0  0  0  0  0  0
   58.0890   33.0500   47.4970 C   0  0  0  0  0  0  0  0  0  0  0  0
   58.9780   31.9460   47.1060 N   0  0  0  0  0  0  0  0  0  0  0  0
   60.1110   31.7300   47.9000 C   0  0  0  0  0  0  0  0  0  0  0  0
   59.9970   30.8650   48.9740 C   0  0  0  0  0  0  0  0  0  0  0  0
   61.0820   30.5960   49.8140 C   0  0  0  0  0  0  0  0  0  0  0  0
   62.2920   31.1760   49.6030 N   0  0  0  0  0  0  0  0  0  0  0  0
   63.3750   30.8640   50.4790 C   0  0  0  0  0  0  0  0  0  0  0  0
   62.3880   32.0150   48.5560 C   0  0  0  0  0  0  0  0  0  0  0  0
   63.5940   32.6470   48.2820 C   0  0  0  0  0  0  0  0  0  0  0  0
   63.7200   33.5180   47.2100 C   0  0  0  0  0  0  0  0  0  0  0  0
   62.6650   33.7980   46.3700 C   0  0  0  0  0  0  0  0  0  0  0  0
   61.4660   33.1730   46.6390 C   0  0  0  0  0  0  0  0  0  0  0  0
   61.3440   32.3070   47.7050 C   0  0  0  0  0  0  0  0  0  0  0  0
   60.8160   29.6570   50.9290 C   0  0  0  0  0  0  0  0  0  0  0  0
   59.5590   30.1370   51.6330 C   0  0  0  0  0  0  0  0  0  0  0  0
   58.3970   30.3720   50.7330 C   0  0  0  0  0  0  0  0  0  0  0  0
   58.7060   30.1840   49.2730 C   0  0  0  0  0  0  0  0  0  0  0  0
   57.5259   26.7408   47.3433 H   0  0  0  0  0  0  0  0  0  0  0  0
   56.8434   27.3764   45.8081 H   0  0  0  0  0  0  0  0  0  0  0  0
   58.4391   26.5515   45.8081 H   0  0  0  0  0  0  0  0  0  0  0  0
   57.9811   29.0376   47.4802 H   0  0  0  0  0  0  0  0  0  0  0  0
   59.5186   28.3573   46.8345 H   0  0  0  0  0  0  0  0  0  0  0  0
   59.3896   29.3674   43.7343 H   0  0  0  0  0  0  0  0  0  0  0  0
   59.7124   30.7255   44.9432 H   0  0  0  0  0  0  0  0  0  0  0  0
   60.7857   28.9554   46.3830 H   0  0  0  0  0  0  0  0  0  0  0  0
   60.7957   27.9219   44.9138 H   0  0  0  0  0  0  0  0  0  0  0  0
   61.6693   29.4914   44.9138 H   0  0  0  0  0  0  0  0  0  0  0  0
   57.4444   28.5276   43.8498 H   0  0  0  0  0  0  0  0  0  0  0  0
   56.4155   28.7845   45.3607 H   0  0  0  0  0  0  0  0  0  0  0  0
   56.9572   30.6132   43.0838 H   0  0  0  0  0  0  0  0  0  0  0  0
   55.4981   30.4070   44.0661 H   0  0  0  0  0  0  0  0  0  0  0  0
   58.7379   32.3250   44.3146 H   0  0  0  0  0  0  0  0  0  0  0  0
   57.2343   32.5610   43.2838 H   0  0  0  0  0  0  0  0  0  0  0  0
   57.0954   34.5764   44.1144 H   0  0  0  0  0  0  0  0  0  0  0  0
   56.6482   33.7842   45.6833 H   0  0  0  0  0  0  0  0  0  0  0  0
   59.5200   33.8455   45.1892 H   0  0  0  0  0  0  0  0  0  0  0  0
   58.7210   35.4921   45.2682 H   0  0  0  0  0  0  0  0  0  0  0  0
   59.6737   34.4913   47.4359 H   0  0  0  0  0  0  0  0  0  0  0  0
   58.0237   35.1932   47.4495 H   0  0  0  0  0  0  0  0  0  0  0  0
   57.9791   33.0526   48.5915 H   0  0  0  0  0  0  0  0  0  0  0  0
   57.1132   32.9021   47.0113 H   0  0  0  0  0  0  0  0  0  0  0  0
   58.7740   31.3490   46.2720 H   0  0  0  0  0  0  0  0  0  0  0  0
   63.0416   30.9600   51.5229 H   0  0  0  0  0  0  0  0  0  0  0  0
   63.7103   29.8327   50.2946 H   0  0  0  0  0  0  0  0  0  0  0  0
   64.2076   31.5588   50.2946 H   0  0  0  0  0  0  0  0  0  0  0  0
   64.4643   32.4534   48.9263 H   0  0  0  0  0  0  0  0  0  0  0  0
   64.6916   33.9996   47.0251 H   0  0  0  0  0  0  0  0  0  0  0  0
   62.7743   34.4899   45.5218 H   0  0  0  0  0  0  0  0  0  0  0  0
   60.5957   33.3676   45.9951 H   0  0  0  0  0  0  0  0  0  0  0  0
   60.6632   28.6407   50.5370 H   0  0  0  0  0  0  0  0  0  0  0  0
   61.6664   29.6291   51.6261 H   0  0  0  0  0  0  0  0  0  0  0  0
   59.2703   29.3783   52.3753 H   0  0  0  0  0  0  0  0  0  0  0  0
   59.8060   31.1093   52.0842 H   0  0  0  0  0  0  0  0  0  0  0  0
   57.5971   29.6698   51.0104 H   0  0  0  0  0  0  0  0  0  0  0  0
   58.1015   31.4236   50.8629 H   0  0  0  0  0  0  0  0  0  0  0  0
   58.7908   29.1109   49.0464 H   0  0  0  0  0  0  0  0  0  0  0  0
   57.9011   30.6130   48.6581 H   0  0  0  0  0  0  0  0  0  0  0  0
  1  2  1  0
  2  3  1  0
  3  4  1  0
  4  5  1  0
  3  6  1  0
  6  7  1  0
  7  8  1  0
  8  9  1  0
  9 10  1  0
 10 11  1  0
 11 12  1  0
 12 13  1  0
 13 14  1  0
 14 15  1  0
 15 16  2  0
 16 17  1  0
 17 18  2  0
 18 19  1  0
 18 20  1  0
 20 21  2  0
 21 22  1  0
 22 23  2  0
 23 24  1  0
 24 25  2  0
 17 26  1  0
 26 27  1  0
 27 28  1  0
 28 29  1  0
 25 15  1  0
 29 16  1  0
 25 20  1  0
  1 30  1  0
  1 31  1  0
  1 32  1  0
  2 33  1  0
  2 34  1  0
  4 35  1  0
  4 36  1  0
  5 37  1  0
  5 38  1  0
  5 39  1  0
  6 40  1  0
  6 41  1  0
  7 42  1  0
  7 43  1  0
  9 44  1  0
  9 45  1  0
 10 46  1  0
 10 47  1  0
 11 48  1  0
 11 49  1  0
 12 50  1  0
 12 51  1  0
 13 52  1  0
 13 53  1  0
 14 54  1  0
 19 55  1  0
 19 56  1  0
 19 57  1  0
 21 58  1  0
 22 59  1  0
 23 60  1  0
 24 61  1  0
 26 62  1  0
 26 63  1  0
 27 64  1  0
 27 65  1  0
 28 66  1  0
 28 67  1  0
 29 68  1  0
 29 69  1  0
M  CHG  1  18   1
M  END
>  <smiles>  (21) 
CCN(CC)CCOCCCCCNc1c2c([n+](C)c3ccccc13)CCCC2

>  <score_type>  (21) 
oracle

>  <origin>  (21) 
adg

>  <m_score__min__energy>  (21) 
-6.2000000000000002

>  <m_primary>  (21) 
energy

$$$$
23:0
     RDKit          3D

 40 41  0  0  0  0  0  0  0  0999 V2000
   58.8220   34.3580   44.9750 C   0  0  0  0  0  0  0  0  0  0  0  0
   57.7540   33.4510   44.4380 C   0  0  0  0  0  0  0  0  0  0  0  0
   58.2860   32.2120   43.9400 N   0  0  0  0  0  0  0  0  0  0  0  0
   57.4120   31.6720   42.9090 C   0  0  0  0  0  0  0  0  0  0  0  0
   56.6380   30.4800   43.4310 C   0  0  0  0  0  0  0  0  0  0  0  0
   56.6710   30.4220   44.8680 N   0  0  0  0  0  0  0  0  0  0  0  0
   57.3280   29.2140   45.3410 C   0  0  0  0  0  0  0  0  0  0  0  0
   58.5350   29.6330   46.0910 C   0  0  0  0  0  0  0  0  0  0  0  0
   59.2990   28.7650   46.8710 C   0  0  0  0  0  0  0  0  0  0  0  0
   60.2850   29.4470   47.3850 O   0  0  0  0  0  0  0  0  0  0  0  0
   60.2210   30.7120   46.9950 C   0  0  0  0  0  0  0  0  0  0  0  0
   61.1480   31.7750   47.3640 C   0  0  0  0  0  0  0  0  0  0  0  0
   62.5150   31.6390   47.1500 C   0  0  0  0  0  0  0  0  0  0  0  0
   63.3930   32.6570   47.5000 C   0  0  0  0  0  0  0  0  0  0  0  0
   62.9090   33.8160   48.0660 C   0  0  0  0  0  0  0  0  0  0  0  0
   61.5510   33.9530   48.2790 C   0  0  0  0  0  0  0  0  0  0  0  0
   60.6500   32.9370   47.9320 C   0  0  0  0  0  0  0  0  0  0  0  0
   59.1790   33.1090   48.1740 C   0  0  0  0  0  0  0  0  0  0  0  0
   59.1320   30.8310   46.1880 N   0  0  0  0  0  0  0  0  0  0  0  0
   58.8001   34.3394   46.0746 H   0  0  0  0  0  0  0  0  0  0  0  0
   59.8058   34.0152   44.6220 H   0  0  0  0  0  0  0  0  0  0  0  0
   58.6430   35.3843   44.6220 H   0  0  0  0  0  0  0  0  0  0  0  0
   57.0400   33.2298   45.2450 H   0  0  0  0  0  0  0  0  0  0  0  0
   57.2663   33.9679   43.5984 H   0  0  0  0  0  0  0  0  0  0  0  0
   58.5090   31.5500   44.6830 H   0  0  0  0  0  0  0  0  0  0  0  0
   56.7035   32.4515   42.5922 H   0  0  0  0  0  0  0  0  0  0  0  0
   58.0289   31.3469   42.0583 H   0  0  0  0  0  0  0  0  0  0  0  0
   55.5920   30.5594   43.0998 H   0  0  0  0  0  0  0  0  0  0  0  0
   57.1036   29.5648   43.0365 H   0  0  0  0  0  0  0  0  0  0  0  0
   57.1390   31.2510   45.2770 H   0  0  0  0  0  0  0  0  0  0  0  0
   56.6513   28.6514   46.0010 H   0  0  0  0  0  0  0  0  0  0  0  0
   57.6006   28.5633   44.4970 H   0  0  0  0  0  0  0  0  0  0  0  0
   59.1042   27.6935   47.0255 H   0  0  0  0  0  0  0  0  0  0  0  0
   62.9056   30.7151   46.6986 H   0  0  0  0  0  0  0  0  0  0  0  0
   64.4725   32.5379   47.3256 H   0  0  0  0  0  0  0  0  0  0  0  0
   63.5985   34.6260   48.3461 H   0  0  0  0  0  0  0  0  0  0  0  0
   61.1683   34.8800   48.7309 H   0  0  0  0  0  0  0  0  0  0  0  0
   58.9857   33.1316   49.2566 H   0  0  0  0  0  0  0  0  0  0  0  0
   58.8408   34.0528   47.7214 H   0  0  0  0  0  0  0  0  0  0  0  0
   58.6322   32.2687   47.7214 H   0  0  0  0  0  0  0  0  0  0  0  0
  1  2  1  0
  2  3  1  0
  3  4  1  0
  4  5  1  0
  5  6  1  0
  6  7  1  0
  7  8  1  0
  8  9  2  0
  9 10  1  0
 10 11  1  0
 11 12  1  0
 12 13  2  0
 13 14  1  0
 14 15  2  0
 15 16  1  0
 16 17  2  0
 17 18  1  0
 11 19  2  0
 19  8  1  0
 17 12  1  0
  1 20  1  0
  1 21  1  0
  1 22  1  0
  2 23  1  0
  2 24  1  0
  3 25  1  0
  4 26  1  0
  4 27  1  0
  5 28  1  0
  5 29  1  0
  6 30  1  0
  7 31  1  0
  7 32  1  0
  9 33  1  0
 13 34  1  0
 14 35  1  0
 15 36  1  0
 16 37  1  0
 18 38  1  0
 18 39  1  0
 18 40  1  0
M  END
>  <smiles>  (22) 
CCNCCNCc1coc(-c2ccccc2C)n1

>  <score_type>  (22) 
oracle

>  <origin>  (22) 
adg

>  <m_score__min__energy>  (22) 
-6.75

>  <m_primary>  (22) 
energy

$$$$
