0:0
     RDKit          3D

 35 36  0  0  0  0  0  0  0  0999 V2000
   59.3050   26.3460   46.1530 C   0  0  0  0  0  0  0  0  0  0  0  0
   59.0550   27.6930   46.6560 N   0  0  0  0  0  0  0  0  0  0  0  0
   59.7040   28.2970   47.6660 C   0  0  0  0  0  0  0  0  0  0  0  0
   59.1450   29.5410   47.8480 C   0  0  0  0  0  0  0  0  0  0  0  0
   58.1420   29.7230   46.9640 N   0  0  0  0  0  0  0  0  0  0  0  0
   58.1070   28.5710   46.2590 C   0  0  0  0  0  0  0  0  0  0  0  0
   57.1340   28.3380   45.1380 C   0  0  0  0  0  0  0  0  0  0  0  0
   56.0890   29.3700   45.1430 N   0  0  0  0  0  0  0  0  0  0  0  0
   56.0560   30.1580   43.8950 C   0  0  0  0  0  0  0  0  0  0  0  0
   57.0270   31.3520   43.9170 C   0  0  0  0  0  0  0  0  0  0  0  0
   57.3490   31.7560   45.2870 N   0  0  0  0  0  0  0  0  0  0  0  0
   58.1020   32.9350   45.6360 C   0  0  0  0  0  0  0  0  0  0  0  0
   58.5190   33.8710   44.6690 C   0  0  0  0  0  0  0  0  0  0  0  0
   59.2560   34.9970   45.0470 C   0  0  0  0  0  0  0  0  0  0  0  0
   59.5840   35.2030   46.3890 C   0  0  0  0  0  0  0  0  0  0  0  0
   59.1730   34.2840   47.3570 C   0  0  0  0  0  0  0  0  0  0  0  0
   59.4930   34.4830   48.6590 F   0  0  0  0  0  0  0  0  0  0  0  0
   58.4330   33.1580   46.9840 C   0  0  0  0  0  0  0  0  0  0  0  0
   59.4330   25.6561   47.0002 H   0  0  0  0  0  0  0  0  0  0  0  0
   58.4521   26.0194   45.5399 H   0  0  0  0  0  0  0  0  0  0  0  0
   60.2183   26.3472   45.5399 H   0  0  0  0  0  0  0  0  0  0  0  0
   60.5364   27.8714   48.2457 H   0  0  0  0  0  0  0  0  0  0  0  0
   59.4671   30.2760   48.6004 H   0  0  0  0  0  0  0  0  0  0  0  0
   57.6716   28.3714   44.1789 H   0  0  0  0  0  0  0  0  0  0  0  0
   56.6630   27.3532   45.2738 H   0  0  0  0  0  0  0  0  0  0  0  0
   56.2380   29.9950   45.9710 H   0  0  0  0  0  0  0  0  0  0  0  0
   56.3275   29.4997   43.0566 H   0  0  0  0  0  0  0  0  0  0  0  0
   55.0384   30.5610   43.7849 H   0  0  0  0  0  0  0  0  0  0  0  0
   57.9556   31.0672   43.4006 H   0  0  0  0  0  0  0  0  0  0  0  0
   56.5425   32.2004   43.4116 H   0  0  0  0  0  0  0  0  0  0  0  0
   57.0210   31.1290   46.0560 H   0  0  0  0  0  0  0  0  0  0  0  0
   58.2632   33.7148   43.6106 H   0  0  0  0  0  0  0  0  0  0  0  0
   59.5784   35.7226   44.2858 H   0  0  0  0  0  0  0  0  0  0  0  0
   60.1659   36.0889   46.6834 H   0  0  0  0  0  0  0  0  0  0  0  0
   58.1071   32.4407   47.7516 H   0  0  0  0  0  0  0  0  0  0  0  0
  1  2  1  0
  2  3  1  0
  3  4  2  0
  4  5  1  0
  5  6  2  0
  6  7  1  0
  7  8  1  0
  8  9  1  0
  9 10  1  0
 10 11  1  0
 11 12  1  0
 12 13  2  0
 13 14  1  0
 14 15  2  0
 15 16  1  0
 16 17  1  0
 16 18  2  0
  6  2  1  0
 18 12  1  0
  1 19  1  0
  1 20  1  0
  1 21  1  0
  3 22  1  0
  4 23  1  0
  7 24  1  0
  7 25  1  0
  8 26  1  0
  9 27  1  0
  9 28  1  0
 10 29  1  0
 10 30  1  0
 11 31  1  0
 13 32  1  0
 14 33  1  0
 15 34  1  0
 18 35  1  0
M  END
>  <UniqueID>  (1) 
1

>  <SMILES>  (1) 
Cn1ccnc1CNCCNc1cccc(F)c1

>  <Energy>  (1) 
60.79696106683345

>  <Genealogy>  (1) 
Cn1ccnc1CNCCNc1cccc(F)c1 (3D coordinates assigned)
Cn1ccnc1CNCCNc1cccc(F)c1 (optimized conformer: 60.79696106683345 kcal/mol)

>  <smiles>  (1) 
Cn1ccnc1CNCCNc1cccc(F)c1

>  <score_type>  (1) 
oracle

>  <origin>  (1) 
adg

>  <m_score__min__energy>  (1) 
-5.4699999999999998

>  <m_primary>  (1) 
energy

$$$$
1:0
     RDKit          3D

 84 89  0  0  0  0  0  0  0  0999 V2000
   67.1450   33.1620   50.5010 C   0  0  0  0  0  0  0  0  0  0  0  0
   67.0240   31.6920   50.9330 C   0  0  0  0  0  0  0  0  0  0  0  0
   65.6620   31.2530   51.3690 N   0  0  2  0  0  0  0  0  0  0  0  0
   65.6030   29.7850   51.6150 C   0  0  0  0  0  0  0  0  0  0  0  0
   64.1940   29.3730   52.1190 C   0  0  0  0  0  0  0  0  0  0  0  0
   63.3070   30.5640   52.2310 N   0  0  2  0  0  0  0  0  0  0  0  0
   61.9550   30.2280   52.7920 C   0  0  0  0  0  0  0  0  0  0  0  0
   61.2890   28.9110   52.3140 C   0  0  0  0  0  0  0  0  0  0  0  0
   60.7430   28.9640   50.9120 C   0  0  0  0  0  0  0  0  0  0  0  0
   60.0180   30.0840   50.4770 C   0  0  0  0  0  0  0  0  0  0  0  0
   59.5140   30.1400   49.1760 C   0  0  0  0  0  0  0  0  0  0  0  0
   59.7520   29.0900   48.2720 C   0  0  0  0  0  0  0  0  0  0  0  0
   60.3890   27.9270   48.7390 C   0  0  0  0  0  0  0  0  0  0  0  0
   60.9040   27.8730   50.0430 C   0  0  0  0  0  0  0  0  0  0  0  0
   60.4670   26.7370   47.8310 C   0  0  0  0  0  0  0  0  0  0  0  0
   59.1410   26.5970   47.0720 C   0  0  0  0  0  0  0  0  0  0  0  0
   58.7890   27.8790   46.3180 C   0  0  0  0  0  0  0  0  0  0  0  0
   58.0150   27.8780   45.1230 C   0  0  0  0  0  0  0  0  0  0  0  0
   57.4480   26.6290   44.6200 N   0  0  0  0  0  0  0  0  0  0  0  0
   56.6020   25.9160   45.6020 C   0  0  0  0  0  0  0  0  0  0  0  0
   56.7150   24.3780   45.5450 C   0  0  0  0  0  0  0  0  0  0  0  0
   57.5490   23.9190   44.4120 N   0  0  0  0  0  0  0  0  0  0  0  0
   58.4730   22.8500   44.8280 C   0  0  0  0  0  0  0  0  0  0  0  0
   56.6880   23.4200   43.3260 C   0  0  0  0  0  0  0  0  0  0  0  0
   57.7870   29.1260   44.4610 C   0  0  0  0  0  0  0  0  0  0  0  0
   57.0140   29.2360   43.2740 C   0  0  0  0  0  0  0  0  0  0  0  0
   56.8120   30.4630   42.6500 C   0  0  0  0  0  0  0  0  0  0  0  0
   57.3660   31.6170   43.1810 C   0  0  0  0  0  0  0  0  0  0  0  0
   58.1370   31.5480   44.3350 C   0  0  0  0  0  0  0  0  0  0  0  0
   58.3800   30.3130   44.9880 C   0  0  0  0  0  0  0  0  0  0  0  0
   59.1640   30.2600   46.1210 N   0  0  0  0  0  0  0  0  0  0  0  0
   60.0390   31.4040   46.4620 C   0  0  0  0  0  0  0  0  0  0  0  0
   59.2120   29.1090   46.8730 C   0  0  0  0  0  0  0  0  0  0  0  0
   63.2070   31.2240   50.8990 C   0  0  0  0  0  0  0  0  0  0  0  0
   64.6140   31.6250   50.3780 C   0  0  0  0  0  0  0  0  0  0  0  0
   63.9520   31.5320   53.1640 C   0  0  0  0  0  0  0  0  0  0  0  0
   65.3480   31.9460   52.6480 C   0  0  0  0  0  0  0  0  0  0  0  0
   67.1978   33.8032   51.3932 H   0  0  0  0  0  0  0  0  0  0  0  0
   68.0570   33.2938   49.9003 H   0  0  0  0  0  0  0  0  0  0  0  0
   66.2668   33.4411   49.9003 H   0  0  0  0  0  0  0  0  0  0  0  0
   67.3249   31.0639   50.0816 H   0  0  0  0  0  0  0  0  0  0  0  0
   67.6701   31.5856   51.8169 H   0  0  0  0  0  0  0  0  0  0  0  0
   65.8221   29.2521   50.6780 H   0  0  0  0  0  0  0  0  0  0  0  0
   66.3455   29.5235   52.3833 H   0  0  0  0  0  0  0  0  0  0  0  0
   63.7513   28.6583   51.4096 H   0  0  0  0  0  0  0  0  0  0  0  0
   64.2943   28.9115   53.1125 H   0  0  0  0  0  0  0  0  0  0  0  0
   62.0577   30.1674   53.8855 H   0  0  0  0  0  0  0  0  0  0  0  0
   61.2929   31.0263   52.4254 H   0  0  0  0  0  0  0  0  0  0  0  0
   62.0402   28.1088   52.3607 H   0  0  0  0  0  0  0  0  0  0  0  0
   60.4308   28.7336   52.9789 H   0  0  0  0  0  0  0  0  0  0  0  0
   59.8455   30.9240   51.1660 H   0  0  0  0  0  0  0  0  0  0  0  0
   58.9260   31.0128   48.8558 H   0  0  0  0  0  0  0  0  0  0  0  0
   61.4356   26.9730   50.3856 H   0  0  0  0  0  0  0  0  0  0  0  0
   61.2894   26.8744   47.1135 H   0  0  0  0  0  0  0  0  0  0  0  0
   60.6520   25.8295   48.4245 H   0  0  0  0  0  0  0  0  0  0  0  0
   59.2273   25.7706   46.3511 H   0  0  0  0  0  0  0  0  0  0  0  0
   58.3441   26.3970   47.8035 H   0  0  0  0  0  0  0  0  0  0  0  0
   56.9140   26.7340   43.7360 H   0  0  0  0  0  0  0  0  0  0  0  0
   58.2220   25.9940   44.3280 H   0  0  0  0  0  0  0  0  0  0  0  0
   56.8939   26.2450   46.6102 H   0  0  0  0  0  0  0  0  0  0  0  0
   55.5590   26.1629   45.3547 H   0  0  0  0  0  0  0  0  0  0  0  0
   57.1650   24.0211   46.4832 H   0  0  0  0  0  0  0  0  0  0  0  0
   55.7028   23.9706   45.4052 H   0  0  0  0  0  0  0  0  0  0  0  0
   58.5115   22.8055   45.9264 H   0  0  0  0  0  0  0  0  0  0  0  0
   58.1193   21.8858   44.4341 H   0  0  0  0  0  0  0  0  0  0  0  0
   59.4783   23.0604   44.4341 H   0  0  0  0  0  0  0  0  0  0  0  0
   55.8121   22.9124   43.7563 H   0  0  0  0  0  0  0  0  0  0  0  0
   56.3541   24.2646   42.7053 H   0  0  0  0  0  0  0  0  0  0  0  0
   57.2548   22.7104   42.7053 H   0  0  0  0  0  0  0  0  0  0  0  0
   56.5653   28.3309   42.8387 H   0  0  0  0  0  0  0  0  0  0  0  0
   56.2099   30.5174   41.7311 H   0  0  0  0  0  0  0  0  0  0  0  0
   57.1956   32.5863   42.6896 H   0  0  0  0  0  0  0  0  0  0  0  0
   58.5679   32.4708   44.7507 H   0  0  0  0  0  0  0  0  0  0  0  0
   60.1106   31.4976   47.5557 H   0  0  0  0  0  0  0  0  0  0  0  0
   61.0417   31.2367   46.0419 H   0  0  0  0  0  0  0  0  0  0  0  0
   59.6150   32.3280   46.0419 H   0  0  0  0  0  0  0  0  0  0  0  0
   62.7425   30.5279   50.1851 H   0  0  0  0  0  0  0  0  0  0  0  0
   62.5950   32.1325   50.9995 H   0  0  0  0  0  0  0  0  0  0  0  0
   64.8111   31.1038   49.4296 H   0  0  0  0  0  0  0  0  0  0  0  0
   64.6398   32.7139   50.2243 H   0  0  0  0  0  0  0  0  0  0  0  0
   63.3189   32.4275   53.2486 H   0  0  0  0  0  0  0  0  0  0  0  0
   64.0682   31.0504   54.1461 H   0  0  0  0  0  0  0  0  0  0  0  0
   65.3643   33.0334   52.4831 H   0  0  0  0  0  0  0  0  0  0  0  0
   66.1010   31.6628   53.3982 H   0  0  0  0  0  0  0  0  0  0  0  0
  1  2  1  0
  3  2  1  6
  3  4  1  0
  4  5  1  0
  5  6  1  0
  6  7  1  1
  7  8  1  0
  8  9  1  0
  9 10  2  0
 10 11  1  0
 11 12  2  0
 12 13  1  0
 13 14  2  0
 13 15  1  0
 15 16  1  0
 16 17  1  0
 17 18  2  0
 18 19  1  0
 19 20  1  0
 20 21  1  0
 21 22  1  0
 22 23  1  0
 22 24  1  0
 18 25  1  0
 25 26  2  0
 26 27  1  0
 27 28  2  0
 28 29  1  0
 29 30  2  0
 30 31  1  0
 31 32  1  0
 31 33  2  0
  6 34  1  0
 34 35  1  0
  6 36  1  0
 36 37  1  0
 35  3  1  0
 37  3  1  0
 14  9  1  0
 33 17  1  0
 33 12  1  0
 30 25  1  0
  1 38  1  0
  1 39  1  0
  1 40  1  0
  2 41  1  0
  2 42  1  0
  4 43  1  0
  4 44  1  0
  5 45  1  0
  5 46  1  0
  7 47  1  0
  7 48  1  0
  8 49  1  0
  8 50  1  0
 10 51  1  0
 11 52  1  0
 14 53  1  0
 15 54  1  0
 15 55  1  0
 16 56  1  0
 16 57  1  0
 19 58  1  0
 19 59  1  0
 20 60  1  0
 20 61  1  0
 21 62  1  0
 21 63  1  0
 23 64  1  0
 23 65  1  0
 23 66  1  0
 24 67  1  0
 24 68  1  0
 24 69  1  0
 26 70  1  0
 27 71  1  0
 28 72  1  0
 29 73  1  0
 32 74  1  0
 32 75  1  0
 32 76  1  0
 34 77  1  0
 34 78  1  0
 35 79  1  0
 35 80  1  0
 36 81  1  0
 36 82  1  0
 37 83  1  0
 37 84  1  0
M  CHG  4   3   1   6   1  19   1  31   1
M  END
>  <UniqueID>  (2) 
2

>  <SMILES>  (2) 
CC[N+]12CC[N+](CCc3ccc4c(c3)CCc3c([NH2+]CCN(C)C)c5ccccc5[n+](C)c3-4)(CC1)CC2

>  <Energy>  (2) 
152.51137967325525

>  <Genealogy>  (2) 
CC[N+]12CC[N+](CCc3ccc4c(c3)CCc3c([NH2+]CCN(C)C)c5ccccc5[n+](C)c3-4)(CC1)CC2 (protonated)
CC[N+]12CC[N+](CCc3ccc4c(c3)CCc3c([NH2+]CCN(C)C)c5ccccc5[n+](C)c3-4)(CC1)CC2 (3D coordinates assigned)
CC[N+]12CC[N+](CCc3ccc4c(c3)CCc3c([NH2+]CCN(C)C)c5ccccc5[n+](C)c3-4)(CC1)CC2 (nonaromatic ring conformer: 152.51137967325525 kcal/mol)

>  <smiles>  (2) 
CC[N+]12CC[N+](CCc3ccc4c(c3)CCc3c(NCCN(C)C)c5ccccc5[n+](C)c3-4)(CC1)CC2

>  <score_type>  (2) 
oracle

>  <origin>  (2) 
adg

>  <m_score__min__energy>  (2) 
-3.4399999999999999

>  <m_primary>  (2) 
energy

$$$$
2:0
     RDKit          3D

 49 50  0  0  0  0  0  0  0  0999 V2000
   63.4380   33.8590   46.7110 C   0  0  0  0  0  0  0  0  0  0  0  0
   62.1780   33.0010   46.7850 C   0  0  0  0  0  0  0  0  0  0  0  0
   61.8050   32.7520   48.1930 N   0  0  0  0  0  0  0  0  0  0  0  0
   62.2560   33.8440   49.0800 C   0  0  0  0  0  0  0  0  0  0  0  0
   61.4980   33.8300   50.4020 C   0  0  0  0  0  0  0  0  0  0  0  0
   59.9990   34.0460   50.1510 C   0  0  0  0  0  0  0  0  0  0  0  0
   59.5250   33.4640   48.8700 N   0  0  0  0  0  0  0  0  0  0  0  0
   59.2150   34.4770   47.8390 C   0  0  0  0  0  0  0  0  0  0  0  0
   58.8180   33.8030   46.5510 C   0  0  0  0  0  0  0  0  0  0  0  0
   59.2970   34.2720   45.3200 C   0  0  0  0  0  0  0  0  0  0  0  0
   58.9110   33.6510   44.1290 C   0  0  0  0  0  0  0  0  0  0  0  0
   58.0370   32.5490   44.1460 C   0  0  0  0  0  0  0  0  0  0  0  0
   57.6250   31.9120   42.9140 N   0  0  0  0  0  0  0  0  0  0  0  0
   58.1820   32.3420   41.6210 C   0  0  0  0  0  0  0  0  0  0  0  0
   57.0670   32.6970   40.6420 C   0  0  0  0  0  0  0  0  0  0  0  0
   56.6400   30.8190   42.9380 C   0  0  0  0  0  0  0  0  0  0  0  0
   57.2580   29.5350   43.4880 C   0  0  0  0  0  0  0  0  0  0  0  0
   57.5640   32.0800   45.3850 C   0  0  0  0  0  0  0  0  0  0  0  0
   57.9490   32.7030   46.5750 C   0  0  0  0  0  0  0  0  0  0  0  0
   60.3770   32.3650   48.3630 C   0  0  0  0  0  0  0  0  0  0  0  0
   63.7823   34.0934   47.7291 H   0  0  0  0  0  0  0  0  0  0  0  0
   64.2255   33.3086   46.1753 H   0  0  0  0  0  0  0  0  0  0  0  0
   63.2144   34.7934   46.1753 H   0  0  0  0  0  0  0  0  0  0  0  0
   61.3533   33.5241   46.2789 H   0  0  0  0  0  0  0  0  0  0  0  0
   62.3738   32.0371   46.2924 H   0  0  0  0  0  0  0  0  0  0  0  0
   63.3305   33.7219   49.2814 H   0  0  0  0  0  0  0  0  0  0  0  0
   62.0616   34.8031   48.5776 H   0  0  0  0  0  0  0  0  0  0  0  0
   61.6481   32.8595   50.8975 H   0  0  0  0  0  0  0  0  0  0  0  0
   61.8766   34.6394   51.0435 H   0  0  0  0  0  0  0  0  0  0  0  0
   59.4372   33.5807   50.9743 H   0  0  0  0  0  0  0  0  0  0  0  0
   59.8326   35.1319   50.0952 H   0  0  0  0  0  0  0  0  0  0  0  0
   58.3859   35.1097   48.1888 H   0  0  0  0  0  0  0  0  0  0  0  0
   60.1084   35.0937   47.6612 H   0  0  0  0  0  0  0  0  0  0  0  0
   59.9804   35.1335   45.2912 H   0  0  0  0  0  0  0  0  0  0  0  0
   59.2943   34.0276   43.1692 H   0  0  0  0  0  0  0  0  0  0  0  0
   58.8185   33.2252   41.7783 H   0  0  0  0  0  0  0  0  0  0  0  0
   58.7720   31.5152   41.1987 H   0  0  0  0  0  0  0  0  0  0  0  0
   56.1649   32.9842   41.2021 H   0  0  0  0  0  0  0  0  0  0  0  0
   57.3886   33.5372   40.0090 H   0  0  0  0  0  0  0  0  0  0  0  0
   56.8436   31.8256   40.0090 H   0  0  0  0  0  0  0  0  0  0  0  0
   55.7932   31.1122   43.5759 H   0  0  0  0  0  0  0  0  0  0  0  0
   56.3010   30.6310   41.9086 H   0  0  0  0  0  0  0  0  0  0  0  0
   57.2444   29.5633   44.5876 H   0  0  0  0  0  0  0  0  0  0  0  0
   56.6780   28.6690   43.1363 H   0  0  0  0  0  0  0  0  0  0  0  0
   58.2966   29.4480   43.1363 H   0  0  0  0  0  0  0  0  0  0  0  0
   56.8850   31.2152   45.4173 H   0  0  0  0  0  0  0  0  0  0  0  0
   57.5680   32.3282   47.5364 H   0  0  0  0  0  0  0  0  0  0  0  0
   60.3253   31.5275   49.0743 H   0  0  0  0  0  0  0  0  0  0  0  0
   59.9949   32.0911   47.3685 H   0  0  0  0  0  0  0  0  0  0  0  0
  1  2  1  0
  2  3  1  0
  3  4  1  0
  4  5  1  0
  5  6  1  0
  6  7  1  0
  7  8  1  0
  8  9  1  0
  9 10  2  0
 10 11  1  0
 11 12  2  0
 12 13  1  0
 13 14  1  0
 14 15  1  0
 13 16  1  0
 16 17  1  0
 12 18  1  0
 18 19  2  0
  7 20  1  0
 20  3  1  0
 19  9  1  0
  1 21  1  0
  1 22  1  0
  1 23  1  0
  2 24  1  0
  2 25  1  0
  4 26  1  0
  4 27  1  0
  5 28  1  0
  5 29  1  0
  6 30  1  0
  6 31  1  0
  8 32  1  0
  8 33  1  0
 10 34  1  0
 11 35  1  0
 14 36  1  0
 14 37  1  0
 15 38  1  0
 15 39  1  0
 15 40  1  0
 16 41  1  0
 16 42  1  0
 17 43  1  0
 17 44  1  0
 17 45  1  0
 18 46  1  0
 19 47  1  0
 20 48  1  0
 20 49  1  0
M  END
>  <UniqueID>  (3) 
3

>  <SMILES>  (3) 
CCN1CCCN(Cc2ccc(N(CC)CC)cc2)C1

>  <Energy>  (3) 
57.13546229869186

>  <Genealogy>  (3) 
CCN1CCCN(Cc2ccc(N(CC)CC)cc2)C1 (3D coordinates assigned)
CCN1CCCN(Cc2ccc(N(CC)CC)cc2)C1 (nonaromatic ring conformer: 57.13546229869186 kcal/mol)

>  <smiles>  (3) 
CCN1CCCN(Cc2ccc(N(CC)CC)cc2)C1

>  <score_type>  (3) 
oracle

>  <origin>  (3) 
adg

>  <m_score__min__energy>  (3) 
-6.2999999999999998

>  <m_primary>  (3) 
energy

$$$$
3:0
     RDKit          3D

 67 69  0  0  0  0  0  0  0  0999 V2000
   59.2510   35.0650   54.7880 C   0  0  0  0  0  0  0  0  0  0  0  0
   59.9710   34.1370   55.4280 C   0  0  0  0  0  0  0  0  0  0  0  0
   60.7710   33.1030   54.6860 C   0  0  0  0  0  0  0  0  0  0  0  0
   60.3890   33.0630   53.2230 C   0  0  0  0  0  0  0  0  0  0  0  0
   61.1850   33.7680   52.3050 C   0  0  0  0  0  0  0  0  0  0  0  0
   60.8680   33.7840   50.9470 C   0  0  0  0  0  0  0  0  0  0  0  0
   59.7400   33.1000   50.4710 C   0  0  0  0  0  0  0  0  0  0  0  0
   59.4160   33.0980   49.0210 C   0  0  0  0  0  0  0  0  0  0  0  0
   58.4790   32.1900   48.4970 C   0  0  0  0  0  0  0  0  0  0  0  0
   58.1780   32.1890   47.1310 C   0  0  0  0  0  0  0  0  0  0  0  0
   58.8000   33.1030   46.2690 C   0  0  0  0  0  0  0  0  0  0  0  0
   58.5160   33.0680   44.7890 C   0  0  0  0  0  0  0  0  0  0  0  0
   57.0440   32.7550   44.4950 C   0  0  0  0  0  0  0  0  0  0  0  0
   56.6900   31.4310   45.0260 N   0  0  0  0  0  0  0  0  0  0  0  0
   57.5010   30.3730   44.4090 C   0  0  0  0  0  0  0  0  0  0  0  0
   57.0170   28.9740   44.8380 C   0  0  2  0  0  0  0  0  0  0  0  0
   55.6800   29.0520   45.2650 O   0  0  0  0  0  0  0  0  0  0  0  0
   57.9020   28.3900   45.9390 C   0  0  0  0  0  0  0  0  0  0  0  0
   58.9020   29.2140   46.4980 C   0  0  0  0  0  0  0  0  0  0  0  0
   59.7680   28.7310   47.4760 C   0  0  0  0  0  0  0  0  0  0  0  0
   59.6530   27.4190   47.9220 C   0  0  0  0  0  0  0  0  0  0  0  0
   58.6720   26.5820   47.3920 C   0  0  0  0  0  0  0  0  0  0  0  0
   57.7860   27.0410   46.3930 C   0  0  0  0  0  0  0  0  0  0  0  0
   56.7120   26.1020   45.8720 C   0  0  0  0  0  0  0  0  0  0  0  0
   56.9700   25.7600   44.5580 F   0  0  0  0  0  0  0  0  0  0  0  0
   55.4770   26.7190   45.9550 F   0  0  0  0  0  0  0  0  0  0  0  0
   56.6520   24.9290   46.6070 F   0  0  0  0  0  0  0  0  0  0  0  0
   59.7410   34.0060   46.7860 C   0  0  0  0  0  0  0  0  0  0  0  0
   60.0440   34.0060   48.1490 C   0  0  0  0  0  0  0  0  0  0  0  0
   58.9270   32.4090   51.3840 C   0  0  0  0  0  0  0  0  0  0  0  0
   59.2340   32.3800   52.7560 C   0  0  0  0  0  0  0  0  0  0  0  0
   58.3390   31.5820   53.6790 C   0  0  0  0  0  0  0  0  0  0  0  0
   56.9470   31.6550   53.2340 N   0  0  0  0  0  0  0  0  0  0  0  0
   56.3420   30.6500   52.4070 C   0  0  0  0  0  0  0  0  0  0  0  0
   54.9120   30.7830   51.9980 C   0  0  0  0  0  0  0  0  0  0  0  0
   57.0230   29.6790   51.9800 O   0  0  0  0  0  0  0  0  0  0  0  0
   58.6766   35.8075   55.3613 H   0  0  0  0  0  0  0  0  0  0  0  0
   59.2333   35.0856   53.6883 H   0  0  0  0  0  0  0  0  0  0  0  0
   59.9779   34.1303   56.5280 H   0  0  0  0  0  0  0  0  0  0  0  0
   61.8402   33.3472   54.7712 H   0  0  0  0  0  0  0  0  0  0  0  0
   60.5622   32.1175   55.1279 H   0  0  0  0  0  0  0  0  0  0  0  0
   62.0702   34.3148   52.6621 H   0  0  0  0  0  0  0  0  0  0  0  0
   61.5077   34.3374   50.2438 H   0  0  0  0  0  0  0  0  0  0  0  0
   57.9787   31.4748   49.1665 H   0  0  0  0  0  0  0  0  0  0  0  0
   57.4499   31.4678   46.7313 H   0  0  0  0  0  0  0  0  0  0  0  0
   58.7641   34.0484   44.3563 H   0  0  0  0  0  0  0  0  0  0  0  0
   59.1290   32.2705   44.3437 H   0  0  0  0  0  0  0  0  0  0  0  0
   56.4088   33.5180   44.9686 H   0  0  0  0  0  0  0  0  0  0  0  0
   56.8872   32.7584   43.4062 H   0  0  0  0  0  0  0  0  0  0  0  0
   55.6870   31.2540   44.7810 H   0  0  0  0  0  0  0  0  0  0  0  0
   57.4277   30.4575   43.3147 H   0  0  0  0  0  0  0  0  0  0  0  0
   58.5427   30.4965   44.7401 H   0  0  0  0  0  0  0  0  0  0  0  0
   57.0845   28.2991   43.9720 H   0  0  0  0  0  0  0  0  0  0  0  0
   55.6500   29.7370   45.9860 H   0  0  0  0  0  0  0  0  0  0  0  0
   58.9991   30.2549   46.1557 H   0  0  0  0  0  0  0  0  0  0  0  0
   60.5437   29.3881   47.8960 H   0  0  0  0  0  0  0  0  0  0  0  0
   60.3379   27.0404   48.6951 H   0  0  0  0  0  0  0  0  0  0  0  0
   58.5869   25.5481   47.7578 H   0  0  0  0  0  0  0  0  0  0  0  0
   60.2428   34.7178   46.1140 H   0  0  0  0  0  0  0  0  0  0  0  0
   60.7798   34.7218   48.5442 H   0  0  0  0  0  0  0  0  0  0  0  0
   58.0337   31.8808   51.0193 H   0  0  0  0  0  0  0  0  0  0  0  0
   58.6642   30.5312   53.6790 H   0  0  0  0  0  0  0  0  0  0  0  0
   58.4103   32.0015   54.6934 H   0  0  0  0  0  0  0  0  0  0  0  0
   56.3900   32.5020   53.4830 H   0  0  0  0  0  0  0  0  0  0  0  0
   54.2780   30.8420   52.8950 H   0  0  0  0  0  0  0  0  0  0  0  0
   54.7855   31.6968   51.3989 H   0  0  0  0  0  0  0  0  0  0  0  0
   54.6191   29.9082   51.3989 H   0  0  0  0  0  0  0  0  0  0  0  0
  1  2  2  0
  2  3  1  0
  3  4  1  0
  4  5  2  0
  5  6  1  0
  6  7  2  0
  7  8  1  0
  8  9  2  0
  9 10  1  0
 10 11  2  0
 11 12  1  0
 12 13  1  0
 13 14  1  0
 14 15  1  0
 15 16  1  0
 16 17  1  0
 16 18  1  0
 18 19  2  0
 19 20  1  0
 20 21  2  0
 21 22  1  0
 22 23  2  0
 23 24  1  0
 24 25  1  0
 24 26  1  0
 24 27  1  0
 11 28  1  0
 28 29  2  0
  7 30  1  0
 30 31  2  0
 31 32  1  0
 32 33  1  0
 33 34  1  0
 34 35  1  0
 34 36  2  0
 31  4  1  0
 29  8  1  0
 23 18  1  0
  1 37  1  0
  1 38  1  0
  2 39  1  0
  3 40  1  0
  3 41  1  0
  5 42  1  0
  6 43  1  0
  9 44  1  0
 10 45  1  0
 12 46  1  0
 12 47  1  0
 13 48  1  0
 13 49  1  0
 14 50  1  0
 15 51  1  0
 15 52  1  0
 16 53  1  6
 17 54  1  0
 19 55  1  0
 20 56  1  0
 21 57  1  0
 22 58  1  0
 28 59  1  0
 29 60  1  0
 30 61  1  0
 32 62  1  0
 32 63  1  0
 33 64  1  0
 35 65  1  0
 35 66  1  0
 35 67  1  0
M  END
>  <UniqueID>  (4) 
4

>  <SMILES>  (4) 
C=CCc1ccc(-c2ccc(CCNC[C@H](O)c3ccccc3C(F)(F)F)cc2)cc1CNC(C)=O

>  <Energy>  (4) 
67.29638085919125

>  <Genealogy>  (4) 
C=CCc1ccc(-c2ccc(CCNC[C@H](O)c3ccccc3C(F)(F)F)cc2)cc1CNC(C)=O (chirality)
C=CCc1ccc(-c2ccc(CCNC[C@H](O)c3ccccc3C(F)(F)F)cc2)cc1CNC(C)=O (3D coordinates assigned)
C=CCc1ccc(-c2ccc(CCNC[C@H](O)c3ccccc3C(F)(F)F)cc2)cc1CNC(C)=O (optimized conformer: 67.29638085919125 kcal/mol)

>  <smiles>  (4) 
C=CCc1ccc(-c2ccc(CCNCC(O)c3ccccc3C(F)(F)F)cc2)cc1CNC(C)=O

>  <score_type>  (4) 
oracle

>  <origin>  (4) 
adg

>  <m_score__min__energy>  (4) 
-9.6600000000000001

>  <m_primary>  (4) 
energy

$$$$
4:0
     RDKit          3D

 63 66  0  0  0  0  0  0  0  0999 V2000
   63.3800   33.6350   46.3770 C   0  0  0  0  0  0  0  0  0  0  0  0
   63.5330   32.3850   47.2360 C   0  0  0  0  0  0  0  0  0  0  0  0
   63.2750   32.7200   48.6620 N   0  0  0  0  0  0  0  0  0  0  0  0
   64.3940   32.2830   49.5330 C   0  0  0  0  0  0  0  0  0  0  0  0
   63.9510   31.2360   50.5580 C   0  0  0  0  0  0  0  0  0  0  0  0
   63.0360   34.1720   48.8480 C   0  0  0  0  0  0  0  0  0  0  0  0
   62.2410   34.4670   50.1280 C   0  0  0  0  0  0  0  0  0  0  0  0
   60.8260   34.1370   49.9640 N   0  0  0  0  0  0  0  0  0  0  0  0
   60.4050   32.9120   49.3360 C   0  0  0  0  0  0  0  0  0  0  0  0
   60.2760   31.7300   50.0910 C   0  0  0  0  0  0  0  0  0  0  0  0
   60.6310   31.6910   51.4580 C   0  0  0  0  0  0  0  0  0  0  0  0
   60.5020   30.5160   52.1960 C   0  0  0  0  0  0  0  0  0  0  0  0
   60.8330   30.4980   53.5100 F   0  0  0  0  0  0  0  0  0  0  0  0
   60.0370   29.3580   51.5840 C   0  0  0  0  0  0  0  0  0  0  0  0
   59.7130   29.3630   50.2280 C   0  0  0  0  0  0  0  0  0  0  0  0
   59.8410   30.5400   49.4500 C   0  0  0  0  0  0  0  0  0  0  0  0
   59.5720   30.5390   48.0970 N   0  0  0  0  0  0  0  0  0  0  0  0
   59.6530   29.2540   47.3670 C   0  0  0  0  0  0  0  0  0  0  0  0
   59.4700   31.7350   47.4080 C   0  0  0  0  0  0  0  0  0  0  0  0
   60.0440   32.9050   47.9740 C   0  0  0  0  0  0  0  0  0  0  0  0
   60.2280   34.0470   47.1740 C   0  0  0  0  0  0  0  0  0  0  0  0
   59.8070   34.0640   45.8510 C   0  0  0  0  0  0  0  0  0  0  0  0
   59.0590   33.0020   45.3380 C   0  0  0  0  0  0  0  0  0  0  0  0
   58.4930   33.1090   44.0580 C   0  0  0  0  0  0  0  0  0  0  0  0
   57.6160   32.1230   43.5790 C   0  0  0  0  0  0  0  0  0  0  0  0
   57.0380   32.1970   42.3010 O   0  0  0  0  0  0  0  0  0  0  0  0
   57.7700   32.3400   41.0870 C   0  0  0  0  0  0  0  0  0  0  0  0
   57.2740   31.0460   44.4040 C   0  0  0  0  0  0  0  0  0  0  0  0
   56.3400   30.1130   43.9250 O   0  0  0  0  0  0  0  0  0  0  0  0
   56.4880   29.3620   42.7270 C   0  0  0  0  0  0  0  0  0  0  0  0
   57.8550   30.9310   45.6810 C   0  0  0  0  0  0  0  0  0  0  0  0
   58.8210   31.8540   46.1340 C   0  0  0  0  0  0  0  0  0  0  0  0
   63.2722   34.5157   47.0271 H   0  0  0  0  0  0  0  0  0  0  0  0
   64.2702   33.7547   45.7420 H   0  0  0  0  0  0  0  0  0  0  0  0
   62.4872   33.5365   45.7420 H   0  0  0  0  0  0  0  0  0  0  0  0
   62.8127   31.6229   46.9037 H   0  0  0  0  0  0  0  0  0  0  0  0
   64.5569   31.9964   47.1333 H   0  0  0  0  0  0  0  0  0  0  0  0
   65.1854   31.8503   48.9034 H   0  0  0  0  0  0  0  0  0  0  0  0
   64.7583   33.1629   50.0835 H   0  0  0  0  0  0  0  0  0  0  0  0
   64.1155   31.6248   51.5738 H   0  0  0  0  0  0  0  0  0  0  0  0
   62.8824   31.0154   50.4184 H   0  0  0  0  0  0  0  0  0  0  0  0
   64.5367   30.3154   50.4184 H   0  0  0  0  0  0  0  0  0  0  0  0
   64.0064   34.6866   48.9066 H   0  0  0  0  0  0  0  0  0  0  0  0
   62.4453   34.5305   47.9921 H   0  0  0  0  0  0  0  0  0  0  0  0
   62.6551   33.8683   50.9527 H   0  0  0  0  0  0  0  0  0  0  0  0
   62.3231   35.5418   50.3471 H   0  0  0  0  0  0  0  0  0  0  0  0
   60.1160   34.7200   50.4640 H   0  0  0  0  0  0  0  0  0  0  0  0
   61.0140   32.5995   51.9458 H   0  0  0  0  0  0  0  0  0  0  0  0
   59.9243   28.4348   52.1713 H   0  0  0  0  0  0  0  0  0  0  0  0
   59.3521   28.4380   49.7545 H   0  0  0  0  0  0  0  0  0  0  0  0
   59.7052   28.4252   48.0883 H   0  0  0  0  0  0  0  0  0  0  0  0
   58.7606   29.1344   46.7351 H   0  0  0  0  0  0  0  0  0  0  0  0
   60.5533   29.2474   46.7351 H   0  0  0  0  0  0  0  0  0  0  0  0
   60.7114   34.9377   47.6017 H   0  0  0  0  0  0  0  0  0  0  0  0
   60.0634   34.9166   45.2049 H   0  0  0  0  0  0  0  0  0  0  0  0
   58.7390   33.9737   43.4242 H   0  0  0  0  0  0  0  0  0  0  0  0
   58.8256   32.5462   41.3175 H   0  0  0  0  0  0  0  0  0  0  0  0
   57.6970   31.4106   40.5031 H   0  0  0  0  0  0  0  0  0  0  0  0
   57.3525   33.1736   40.5031 H   0  0  0  0  0  0  0  0  0  0  0  0
   56.6951   28.3109   42.9764 H   0  0  0  0  0  0  0  0  0  0  0  0
   55.5605   29.4234   42.1388 H   0  0  0  0  0  0  0  0  0  0  0  0
   57.3229   29.7707   42.1388 H   0  0  0  0  0  0  0  0  0  0  0  0
   57.5495   30.1044   46.3393 H   0  0  0  0  0  0  0  0  0  0  0  0
  1  2  1  0
  2  3  1  0
  3  4  1  0
  4  5  1  0
  3  6  1  0
  6  7  1  0
  7  8  1  0
  8  9  1  0
  9 10  2  0
 10 11  1  0
 11 12  2  0
 12 13  1  0
 12 14  1  0
 14 15  2  0
 15 16  1  0
 16 17  2  0
 17 18  1  0
 17 19  1  0
 19 20  2  0
 20 21  1  0
 21 22  2  0
 22 23  1  0
 23 24  2  0
 24 25  1  0
 25 26  1  0
 26 27  1  0
 25 28  2  0
 28 29  1  0
 29 30  1  0
 28 31  1  0
 31 32  2  0
 20  9  1  0
 32 23  1  0
 16 10  1  0
 32 19  1  0
  1 33  1  0
  1 34  1  0
  1 35  1  0
  2 36  1  0
  2 37  1  0
  4 38  1  0
  4 39  1  0
  5 40  1  0
  5 41  1  0
  5 42  1  0
  6 43  1  0
  6 44  1  0
  7 45  1  0
  7 46  1  0
  8 47  1  0
 11 48  1  0
 14 49  1  0
 15 50  1  0
 18 51  1  0
 18 52  1  0
 18 53  1  0
 21 54  1  0
 22 55  1  0
 24 56  1  0
 27 57  1  0
 27 58  1  0
 27 59  1  0
 30 60  1  0
 30 61  1  0
 30 62  1  0
 31 63  1  0
M  CHG  1  17   1
M  END
>  <UniqueID>  (5) 
5

>  <SMILES>  (5) 
CCN(CC)CCNc1c2cc(F)ccc2[n+](C)c2c1ccc1cc(OC)c(OC)cc12

>  <Energy>  (5) 
101.67962936772778

>  <Genealogy>  (5) 
CCN(CC)CCNc1c2cc(F)ccc2[n+](C)c2c1ccc1cc(OC)c(OC)cc12 (3D coordinates assigned)
CCN(CC)CCNc1c2cc(F)ccc2[n+](C)c2c1ccc1cc(OC)c(OC)cc12 (optimized conformer: 101.67962936772778 kcal/mol)

>  <smiles>  (5) 
CCN(CC)CCNc1c2cc(F)ccc2[n+](C)c2c1ccc1cc(OC)c(OC)cc12

>  <score_type>  (5) 
oracle

>  <origin>  (5) 
adg

>  <m_score__min__energy>  (5) 
-5.7000000000000002

>  <m_primary>  (5) 
energy

$$$$
5:0
     RDKit          3D

 54 56  0  0  0  0  0  0  0  0999 V2000
   57.7700   28.1660   44.0080 C   0  0  0  0  0  0  0  0  0  0  0  0
   56.8930   28.4670   45.2160 C   0  0  0  0  0  0  0  0  0  0  0  0
   55.8230   29.3990   44.8410 N   0  0  0  0  0  0  0  0  0  0  0  0
   56.1930   30.1400   43.6300 C   0  0  0  0  0  0  0  0  0  0  0  0
   57.2160   31.2210   43.9680 C   0  0  0  0  0  0  0  0  0  0  0  0
   56.8350   31.8620   45.1680 O   0  0  0  0  0  0  0  0  0  0  0  0
   57.3150   33.1930   45.2000 C   0  0  0  0  0  0  0  0  0  0  0  0
   58.5880   33.2930   46.0450 C   0  0  0  0  0  0  0  0  0  0  0  0
   59.3710   32.0600   45.9650 N   0  0  0  0  0  0  0  0  0  0  0  0
   60.2380   31.6530   47.0370 C   0  0  0  0  0  0  0  0  0  0  0  0
   61.3040   32.4790   47.4320 C   0  0  0  0  0  0  0  0  0  0  0  0
   62.1730   32.0550   48.4550 C   0  0  0  0  0  0  0  0  0  0  0  0
   61.9080   30.9030   49.1680 N   0  0  0  0  0  0  0  0  0  0  0  0
   62.6550   30.6240   50.4130 C   0  0  0  0  0  0  0  0  0  0  0  0
   60.9320   30.0290   48.7280 C   0  0  0  0  0  0  0  0  0  0  0  0
   60.7760   28.7390   49.2940 C   0  0  0  0  0  0  0  0  0  0  0  0
   59.7390   27.8970   48.8900 C   0  0  0  0  0  0  0  0  0  0  0  0
   58.8390   28.3130   47.9170 C   0  0  0  0  0  0  0  0  0  0  0  0
   58.9900   29.5590   47.3130 C   0  0  0  0  0  0  0  0  0  0  0  0
   60.0530   30.4120   47.6770 C   0  0  0  0  0  0  0  0  0  0  0  0
   63.3850   32.9300   48.7360 C   0  0  0  0  0  0  0  0  0  0  0  0
   64.0020   33.4300   47.4240 C   0  0  0  0  0  0  0  0  0  0  0  0
   62.9880   34.1170   46.4860 C   0  0  0  0  0  0  0  0  0  0  0  0
   61.5150   33.8610   46.8480 C   0  0  0  0  0  0  0  0  0  0  0  0
   58.7593   27.8265   44.3486 H   0  0  0  0  0  0  0  0  0  0  0  0
   57.3005   27.3776   43.4014 H   0  0  0  0  0  0  0  0  0  0  0  0
   57.8837   29.0766   43.4014 H   0  0  0  0  0  0  0  0  0  0  0  0
   56.4480   27.5312   45.5851 H   0  0  0  0  0  0  0  0  0  0  0  0
   57.5094   28.9239   46.0043 H   0  0  0  0  0  0  0  0  0  0  0  0
   55.7130   30.0910   45.6200 H   0  0  0  0  0  0  0  0  0  0  0  0
   56.6274   29.4447   42.8966 H   0  0  0  0  0  0  0  0  0  0  0  0
   55.2939   30.6143   43.2096 H   0  0  0  0  0  0  0  0  0  0  0  0
   58.2077   30.7623   44.0947 H   0  0  0  0  0  0  0  0  0  0  0  0
   57.2581   31.9580   43.1525 H   0  0  0  0  0  0  0  0  0  0  0  0
   57.5369   33.5209   44.1737 H   0  0  0  0  0  0  0  0  0  0  0  0
   56.5429   33.8350   45.6492 H   0  0  0  0  0  0  0  0  0  0  0  0
   59.1985   34.1308   45.6772 H   0  0  0  0  0  0  0  0  0  0  0  0
   58.2994   33.4563   47.0938 H   0  0  0  0  0  0  0  0  0  0  0  0
   59.1200   31.3610   45.2300 H   0  0  0  0  0  0  0  0  0  0  0  0
   62.0221   30.8604   51.2811 H   0  0  0  0  0  0  0  0  0  0  0  0
   62.9351   29.5607   50.4421 H   0  0  0  0  0  0  0  0  0  0  0  0
   63.5636   31.2434   50.4421 H   0  0  0  0  0  0  0  0  0  0  0  0
   61.4832   28.3962   50.0636 H   0  0  0  0  0  0  0  0  0  0  0  0
   59.6339   26.9004   49.3436 H   0  0  0  0  0  0  0  0  0  0  0  0
   58.0060   27.6575   47.6231 H   0  0  0  0  0  0  0  0  0  0  0  0
   58.2727   29.8813   46.5439 H   0  0  0  0  0  0  0  0  0  0  0  0
   63.0751   33.7937   49.3426 H   0  0  0  0  0  0  0  0  0  0  0  0
   64.1351   32.3355   49.2782 H   0  0  0  0  0  0  0  0  0  0  0  0
   64.7959   34.1519   47.6661 H   0  0  0  0  0  0  0  0  0  0  0  0
   64.3865   32.5474   46.8918 H   0  0  0  0  0  0  0  0  0  0  0  0
   63.1674   35.2017   46.5202 H   0  0  0  0  0  0  0  0  0  0  0  0
   63.1450   33.6885   45.4851 H   0  0  0  0  0  0  0  0  0  0  0  0
   61.1957   34.6109   47.5868 H   0  0  0  0  0  0  0  0  0  0  0  0
   60.9216   33.9330   45.9246 H   0  0  0  0  0  0  0  0  0  0  0  0
  1  2  1  0
  2  3  1  0
  3  4  1  0
  4  5  1  0
  5  6  1  0
  6  7  1  0
  7  8  1  0
  8  9  1  0
  9 10  1  0
 10 11  2  0
 11 12  1  0
 12 13  2  0
 13 14  1  0
 13 15  1  0
 15 16  2  0
 16 17  1  0
 17 18  2  0
 18 19  1  0
 19 20  2  0
 12 21  1  0
 21 22  1  0
 22 23  1  0
 23 24  1  0
 20 10  1  0
 24 11  1  0
 20 15  1  0
  1 25  1  0
  1 26  1  0
  1 27  1  0
  2 28  1  0
  2 29  1  0
  3 30  1  0
  4 31  1  0
  4 32  1  0
  5 33  1  0
  5 34  1  0
  7 35  1  0
  7 36  1  0
  8 37  1  0
  8 38  1  0
  9 39  1  0
 14 40  1  0
 14 41  1  0
 14 42  1  0
 16 43  1  0
 17 44  1  0
 18 45  1  0
 19 46  1  0
 21 47  1  0
 21 48  1  0
 22 49  1  0
 22 50  1  0
 23 51  1  0
 23 52  1  0
 24 53  1  0
 24 54  1  0
M  CHG  1  13   1
M  END
>  <UniqueID>  (6) 
6

>  <SMILES>  (6) 
CCNCCOCCNc1c2c([n+](C)c3ccccc13)CCCC2

>  <Energy>  (6) 
72.52231263681406

>  <Genealogy>  (6) 
CCNCCOCCNc1c2c([n+](C)c3ccccc13)CCCC2 (3D coordinates assigned)
CCNCCOCCNc1c2c([n+](C)c3ccccc13)CCCC2 (nonaromatic ring conformer: 72.52231263681406 kcal/mol)

>  <smiles>  (6) 
CCNCCOCCNc1c2c([n+](C)c3ccccc13)CCCC2

>  <score_type>  (6) 
oracle

>  <origin>  (6) 
adg

>  <m_score__min__energy>  (6) 
-6.0800000000000001

>  <m_primary>  (6) 
energy

$$$$
6:0
     RDKit          3D

 44 46  0  0  0  0  0  0  0  0999 V2000
   61.8160   30.8400   48.9170 C   0  0  0  0  0  0  0  0  0  0  0  0
   62.4930   31.9730   48.2890 N   0  0  0  0  0  0  0  0  0  0  0  0
   63.1970   31.9210   47.1400 C   0  0  0  0  0  0  0  0  0  0  0  0
   63.7590   33.1540   46.8760 C   0  0  0  0  0  0  0  0  0  0  0  0
   63.3910   33.9890   47.9120 C   0  0  0  0  0  0  0  0  0  0  0  0
   62.6130   33.2310   48.7690 C   0  0  0  0  0  0  0  0  0  0  0  0
   62.0500   33.7240   50.0790 C   0  0  0  0  0  0  0  0  0  0  0  0
   60.5820   33.6560   50.1150 N   0  0  0  0  0  0  0  0  0  0  0  0
   59.9640   34.5990   49.1750 C   0  0  0  0  0  0  0  0  0  0  0  0
   59.4730   33.8540   47.9650 C   0  0  0  0  0  0  0  0  0  0  0  0
   59.0100   32.5390   48.0840 C   0  0  0  0  0  0  0  0  0  0  0  0
   58.5180   31.8570   46.9690 C   0  0  0  0  0  0  0  0  0  0  0  0
   58.4670   32.4740   45.6960 C   0  0  0  0  0  0  0  0  0  0  0  0
   57.9550   31.7620   44.5270 N   0  0  0  0  0  0  0  0  0  0  0  0
   57.8500   32.4720   43.2340 C   0  0  0  0  0  0  0  0  0  0  0  0
   57.3790   31.5820   42.0810 C   0  0  0  0  0  0  0  0  0  0  0  0
   56.3930   30.6760   42.5130 O   0  0  0  0  0  0  0  0  0  0  0  0
   56.9970   29.7390   43.3720 C   0  0  0  0  0  0  0  0  0  0  0  0
   57.4190   30.3940   44.6900 C   0  0  0  0  0  0  0  0  0  0  0  0
   58.9170   33.8140   45.6010 C   0  0  0  0  0  0  0  0  0  0  0  0
   59.4070   34.4910   46.7200 C   0  0  0  0  0  0  0  0  0  0  0  0
   61.8747   30.9383   50.0110 H   0  0  0  0  0  0  0  0  0  0  0  0
   60.7609   30.8252   48.6063 H   0  0  0  0  0  0  0  0  0  0  0  0
   62.3029   29.9038   48.6063 H   0  0  0  0  0  0  0  0  0  0  0  0
   63.3071   31.0283   46.5068 H   0  0  0  0  0  0  0  0  0  0  0  0
   64.3801   33.4198   46.0079 H   0  0  0  0  0  0  0  0  0  0  0  0
   63.6627   35.0481   48.0324 H   0  0  0  0  0  0  0  0  0  0  0  0
   62.4531   33.1039   50.8932 H   0  0  0  0  0  0  0  0  0  0  0  0
   62.3415   34.7783   50.1956 H   0  0  0  0  0  0  0  0  0  0  0  0
   60.2490   33.8770   51.0830 H   0  0  0  0  0  0  0  0  0  0  0  0
   59.1168   35.1018   49.6643 H   0  0  0  0  0  0  0  0  0  0  0  0
   60.7078   35.3484   48.8664 H   0  0  0  0  0  0  0  0  0  0  0  0
   59.0337   32.0385   49.0633 H   0  0  0  0  0  0  0  0  0  0  0  0
   58.1637   30.8218   47.0820 H   0  0  0  0  0  0  0  0  0  0  0  0
   57.1343   33.2994   43.3490 H   0  0  0  0  0  0  0  0  0  0  0  0
   58.8600   32.8241   42.9771 H   0  0  0  0  0  0  0  0  0  0  0  0
   56.9610   32.2158   41.2850 H   0  0  0  0  0  0  0  0  0  0  0  0
   58.2403   31.0097   41.7060 H   0  0  0  0  0  0  0  0  0  0  0  0
   56.2804   28.9320   43.5848 H   0  0  0  0  0  0  0  0  0  0  0  0
   57.8940   29.3379   42.8774 H   0  0  0  0  0  0  0  0  0  0  0  0
   56.5413   30.4411   45.3514 H   0  0  0  0  0  0  0  0  0  0  0  0
   58.2281   29.7790   45.1109 H   0  0  0  0  0  0  0  0  0  0  0  0
   58.8799   34.3296   44.6301 H   0  0  0  0  0  0  0  0  0  0  0  0
   59.7439   35.5336   46.6223 H   0  0  0  0  0  0  0  0  0  0  0  0
  1  2  1  0
  2  3  1  0
  3  4  2  0
  4  5  1  0
  5  6  2  0
  6  7  1  0
  7  8  1  0
  8  9  1  0
  9 10  1  0
 10 11  2  0
 11 12  1  0
 12 13  2  0
 13 14  1  0
 14 15  1  0
 15 16  1  0
 16 17  1  0
 17 18  1  0
 18 19  1  0
 13 20  1  0
 20 21  2  0
  6  2  1  0
 21 10  1  0
 19 14  1  0
  1 22  1  0
  1 23  1  0
  1 24  1  0
  3 25  1  0
  4 26  1  0
  5 27  1  0
  7 28  1  0
  7 29  1  0
  8 30  1  0
  9 31  1  0
  9 32  1  0
 11 33  1  0
 12 34  1  0
 15 35  1  0
 15 36  1  0
 16 37  1  0
 16 38  1  0
 18 39  1  0
 18 40  1  0
 19 41  1  0
 19 42  1  0
 20 43  1  0
 21 44  1  0
M  END
>  <UniqueID>  (7) 
7

>  <SMILES>  (7) 
Cn1cccc1CNCc1ccc(N2CCOCC2)cc1

>  <Energy>  (7) 
76.36371896365416

>  <Genealogy>  (7) 
Cn1cccc1CNCc1ccc(N2CCOCC2)cc1 (3D coordinates assigned)
Cn1cccc1CNCc1ccc(N2CCOCC2)cc1 (nonaromatic ring conformer: 76.36371896365416 kcal/mol)

>  <smiles>  (7) 
Cn1cccc1CNCc1ccc(N2CCOCC2)cc1

>  <score_type>  (7) 
oracle

>  <origin>  (7) 
adg

>  <m_score__min__energy>  (7) 
-6.5800000000000001

>  <m_primary>  (7) 
energy

$$$$
7:0
     RDKit          3D

 43 45  0  0  0  0  0  0  0  0999 V2000
   59.2650   30.0670   47.6680 C   0  0  0  0  0  0  0  0  0  0  0  0
   58.9020   30.8380   46.4770 N   0  0  0  0  0  0  0  0  0  0  0  0
   58.1900   30.4270   45.3950 C   0  0  0  0  0  0  0  0  0  0  0  0
   57.8710   31.5080   44.5950 C   0  0  0  0  0  0  0  0  0  0  0  0
   58.4660   32.6090   45.1640 C   0  0  0  0  0  0  0  0  0  0  0  0
   58.4860   33.9460   44.7770 C   0  0  0  0  0  0  0  0  0  0  0  0
   59.2020   34.8510   45.5760 C   0  0  0  0  0  0  0  0  0  0  0  0
   59.8710   34.4030   46.7370 C   0  0  0  0  0  0  0  0  0  0  0  0
   59.8150   33.0480   47.1170 C   0  0  0  0  0  0  0  0  0  0  0  0
   59.0960   32.1670   46.3020 C   0  0  0  0  0  0  0  0  0  0  0  0
   57.0180   31.4130   43.3790 C   0  0  0  0  0  0  0  0  0  0  0  0
   56.1540   30.1520   43.5010 C   0  0  0  0  0  0  0  0  0  0  0  0
   56.9930   28.9720   43.7800 N   0  0  0  0  0  0  0  0  0  0  0  0
   57.7200   29.0170   45.0760 C   0  0  1  0  0  0  0  0  0  0  0  0
   58.9360   28.0670   44.9600 C   0  0  0  0  0  0  0  0  0  0  0  0
   58.5160   26.5790   44.8540 C   0  0  0  0  0  0  0  0  0  0  0  0
   57.6770   26.2590   43.6690 N   0  0  0  0  0  0  0  0  0  0  0  0
   58.2890   26.7140   42.4040 C   0  0  0  0  0  0  0  0  0  0  0  0
   57.3090   24.8300   43.6010 C   0  0  0  0  0  0  0  0  0  0  0  0
   58.9966   30.6370   48.5697 H   0  0  0  0  0  0  0  0  0  0  0  0
   58.7229   29.1098   47.6645 H   0  0  0  0  0  0  0  0  0  0  0  0
   60.3481   29.8750   47.6645 H   0  0  0  0  0  0  0  0  0  0  0  0
   57.9572   34.2828   43.8732 H   0  0  0  0  0  0  0  0  0  0  0  0
   59.2425   35.9142   45.2969 H   0  0  0  0  0  0  0  0  0  0  0  0
   60.4401   35.1182   47.3490 H   0  0  0  0  0  0  0  0  0  0  0  0
   60.3212   32.6932   48.0269 H   0  0  0  0  0  0  0  0  0  0  0  0
   56.3732   32.3012   43.3055 H   0  0  0  0  0  0  0  0  0  0  0  0
   57.6449   31.3598   42.4767 H   0  0  0  0  0  0  0  0  0  0  0  0
   55.4338   30.2855   44.3216 H   0  0  0  0  0  0  0  0  0  0  0  0
   55.6235   29.9928   42.5506 H   0  0  0  0  0  0  0  0  0  0  0  0
   56.3630   28.1360   43.7740 H   0  0  0  0  0  0  0  0  0  0  0  0
   57.0502   28.7038   45.8904 H   0  0  0  0  0  0  0  0  0  0  0  0
   59.5104   28.3367   44.0615 H   0  0  0  0  0  0  0  0  0  0  0  0
   59.5386   28.1809   45.8732 H   0  0  0  0  0  0  0  0  0  0  0  0
   59.4286   25.9669   44.8044 H   0  0  0  0  0  0  0  0  0  0  0  0
   57.9015   26.3631   45.7404 H   0  0  0  0  0  0  0  0  0  0  0  0
   56.7830   26.7950   43.7770 H   0  0  0  0  0  0  0  0  0  0  0  0
   59.1537   27.3569   42.6254 H   0  0  0  0  0  0  0  0  0  0  0  0
   58.6204   25.8412   41.8223 H   0  0  0  0  0  0  0  0  0  0  0  0
   57.5487   27.2828   41.8223 H   0  0  0  0  0  0  0  0  0  0  0  0
   57.2057   24.4291   44.6201 H   0  0  0  0  0  0  0  0  0  0  0  0
   56.3538   24.7224   43.0661 H   0  0  0  0  0  0  0  0  0  0  0  0
   58.0934   24.2744   43.0661 H   0  0  0  0  0  0  0  0  0  0  0  0
  1  2  1  0
  2  3  1  0
  3  4  2  0
  4  5  1  0
  5  6  2  0
  6  7  1  0
  7  8  2  0
  8  9  1  0
  9 10  2  0
  4 11  1  0
 11 12  1  0
 12 13  1  0
 13 14  1  0
 14 15  1  0
 15 16  1  0
 16 17  1  0
 17 18  1  0
 17 19  1  0
 10  2  1  0
 14  3  1  0
 10  5  1  0
  1 20  1  0
  1 21  1  0
  1 22  1  0
  6 23  1  0
  7 24  1  0
  8 25  1  0
  9 26  1  0
 11 27  1  0
 11 28  1  0
 12 29  1  0
 12 30  1  0
 13 31  1  0
 14 32  1  1
 15 33  1  0
 15 34  1  0
 16 35  1  0
 16 36  1  0
 17 37  1  0
 18 38  1  0
 18 39  1  0
 18 40  1  0
 19 41  1  0
 19 42  1  0
 19 43  1  0
M  CHG  1  17   1
M  END
>  <UniqueID>  (8) 
8

>  <SMILES>  (8) 
Cn1c2c(c3ccccc31)CCN[C@H]2CC[NH+](C)C

>  <Energy>  (8) 
86.32765448912895

>  <Genealogy>  (8) 
Cn1c2c(c3ccccc31)CCNC2CC[NH+](C)C (protonated)
Cn1c2c(c3ccccc31)CCN[C@H]2CC[NH+](C)C (chirality)
Cn1c2c(c3ccccc31)CCN[C@H]2CC[NH+](C)C (3D coordinates assigned)
Cn1c2c(c3ccccc31)CCN[C@H]2CC[NH+](C)C (nonaromatic ring conformer: 86.32765448912895 kcal/mol)

>  <smiles>  (8) 
CN(C)CCC1NCCc2c1n(C)c1ccccc21

>  <score_type>  (8) 
oracle

>  <origin>  (8) 
adg

>  <m_score__min__energy>  (8) 
-5.9100000000000001

>  <m_primary>  (8) 
energy

$$$$
8:0
     RDKit          3D

 52 54  0  0  0  0  0  0  0  0999 V2000
   59.4870   22.0840   44.5080 C   0  0  0  0  0  0  0  0  0  0  0  0
   58.0950   21.5090   44.7590 C   0  0  0  0  0  0  0  0  0  0  0  0
   57.1440   21.9270   43.7070 N   0  0  0  0  0  0  0  0  0  0  0  0
   57.0080   20.8620   42.6990 C   0  0  0  0  0  0  0  0  0  0  0  0
   55.8160   22.3110   44.2510 C   0  0  0  0  0  0  0  0  0  0  0  0
   55.5220   23.8000   43.9830 C   0  0  0  0  0  0  0  0  0  0  0  0
   56.6510   24.5100   43.3440 N   0  0  0  0  0  0  0  0  0  0  0  0
   57.7640   24.7370   44.2820 C   0  0  0  0  0  0  0  0  0  0  0  0
   58.0370   26.2380   44.4890 C   0  0  1  0  0  0  0  0  0  0  0  0
   57.7740   26.9210   43.2900 O   0  0  0  0  0  0  0  0  0  0  0  0
   57.1650   26.8330   45.6130 C   0  0  0  0  0  0  0  0  0  0  0  0
   56.4510   27.9900   45.1700 O   0  0  0  0  0  0  0  0  0  0  0  0
   56.9000   29.3200   45.2300 C   0  0  0  0  0  0  0  0  0  0  0  0
   56.5130   30.1950   44.1850 C   0  0  0  0  0  0  0  0  0  0  0  0
   56.9740   31.5220   44.1420 C   0  0  0  0  0  0  0  0  0  0  0  0
   57.8120   31.9470   45.1660 C   0  0  0  0  0  0  0  0  0  0  0  0
   58.1750   31.1190   46.2070 C   0  0  0  0  0  0  0  0  0  0  0  0
   57.7260   29.8040   46.2780 C   0  0  0  0  0  0  0  0  0  0  0  0
   58.9790   31.7370   47.0490 O   0  0  0  0  0  0  0  0  0  0  0  0
   59.1560   32.9540   46.5740 C   0  0  0  0  0  0  0  0  0  0  0  0
   59.9430   33.9690   47.1130 C   0  0  0  0  0  0  0  0  0  0  0  0
   59.9990   35.1950   46.4230 C   0  0  0  0  0  0  0  0  0  0  0  0
   59.2770   35.3780   45.2220 C   0  0  0  0  0  0  0  0  0  0  0  0
   58.4890   34.3370   44.6960 C   0  0  0  0  0  0  0  0  0  0  0  0
   58.4520   33.1380   45.4030 C   0  0  0  0  0  0  0  0  0  0  0  0
   59.9789   22.2872   45.4707 H   0  0  0  0  0  0  0  0  0  0  0  0
   60.0854   21.3594   43.9362 H   0  0  0  0  0  0  0  0  0  0  0  0
   59.3996   23.0197   43.9362 H   0  0  0  0  0  0  0  0  0  0  0  0
   58.1575   20.4108   44.7699 H   0  0  0  0  0  0  0  0  0  0  0  0
   57.7319   21.8875   45.7259 H   0  0  0  0  0  0  0  0  0  0  0  0
   56.8842   19.8927   43.2041 H   0  0  0  0  0  0  0  0  0  0  0  0
   56.1282   21.0627   42.0700 H   0  0  0  0  0  0  0  0  0  0  0  0
   57.9100   20.8351   42.0700 H   0  0  0  0  0  0  0  0  0  0  0  0
   55.0390   21.6983   43.7705 H   0  0  0  0  0  0  0  0  0  0  0  0
   55.8195   22.1434   45.3382 H   0  0  0  0  0  0  0  0  0  0  0  0
   54.6456   23.8700   43.3219 H   0  0  0  0  0  0  0  0  0  0  0  0
   55.3435   24.2788   44.9571 H   0  0  0  0  0  0  0  0  0  0  0  0
   56.9910   23.9800   42.5070 H   0  0  0  0  0  0  0  0  0  0  0  0
   56.3000   25.4400   43.0140 H   0  0  0  0  0  0  0  0  0  0  0  0
   57.5110   24.2836   45.2518 H   0  0  0  0  0  0  0  0  0  0  0  0
   58.6694   24.2792   43.8570 H   0  0  0  0  0  0  0  0  0  0  0  0
   59.0907   26.3545   44.7825 H   0  0  0  0  0  0  0  0  0  0  0  0
   56.9240   27.4180   43.4210 H   0  0  0  0  0  0  0  0  0  0  0  0
   56.4422   26.0728   45.9442 H   0  0  0  0  0  0  0  0  0  0  0  0
   57.8267   27.1329   46.4390 H   0  0  0  0  0  0  0  0  0  0  0  0
   55.8408   29.8298   43.3945 H   0  0  0  0  0  0  0  0  0  0  0  0
   56.6819   32.2002   43.3267 H   0  0  0  0  0  0  0  0  0  0  0  0
   58.0036   29.1571   47.1232 H   0  0  0  0  0  0  0  0  0  0  0  0
   60.5028   33.8176   48.0477 H   0  0  0  0  0  0  0  0  0  0  0  0
   60.6102   36.0178   46.8223 H   0  0  0  0  0  0  0  0  0  0  0  0
   59.3313   36.3415   44.6941 H   0  0  0  0  0  0  0  0  0  0  0  0
   57.9235   34.4659   43.7613 H   0  0  0  0  0  0  0  0  0  0  0  0
  1  2  1  0
  2  3  1  0
  3  4  1  0
  3  5  1  0
  5  6  1  0
  6  7  1  0
  7  8  1  0
  8  9  1  0
  9 10  1  0
  9 11  1  0
 11 12  1  0
 12 13  1  0
 13 14  2  0
 14 15  1  0
 15 16  2  0
 16 17  1  0
 17 18  2  0
 17 19  1  0
 19 20  1  0
 20 21  2  0
 21 22  1  0
 22 23  2  0
 23 24  1  0
 24 25  2  0
 18 13  1  0
 25 20  1  0
 25 16  1  0
  1 26  1  0
  1 27  1  0
  1 28  1  0
  2 29  1  0
  2 30  1  0
  4 31  1  0
  4 32  1  0
  4 33  1  0
  5 34  1  0
  5 35  1  0
  6 36  1  0
  6 37  1  0
  7 38  1  0
  7 39  1  0
  8 40  1  0
  8 41  1  0
  9 42  1  1
 10 43  1  0
 11 44  1  0
 11 45  1  0
 14 46  1  0
 15 47  1  0
 18 48  1  0
 21 49  1  0
 22 50  1  0
 23 51  1  0
 24 52  1  0
M  CHG  1   7   1
M  END
>  <UniqueID>  (9) 
9

>  <SMILES>  (9) 
CCN(C)CC[NH2+]C[C@@H](O)COc1ccc2c(c1)oc1ccccc12

>  <Energy>  (9) 
90.35199519704302

>  <Genealogy>  (9) 
CCN(C)CC[NH2+]CC(O)COc1ccc2c(c1)oc1ccccc12 (protonated)
CCN(C)CC[NH2+]C[C@@H](O)COc1ccc2c(c1)oc1ccccc12 (chirality)
CCN(C)CC[NH2+]C[C@@H](O)COc1ccc2c(c1)oc1ccccc12 (3D coordinates assigned)
CCN(C)CC[NH2+]C[C@@H](O)COc1ccc2c(c1)oc1ccccc12 (optimized conformer: 90.35199519704302 kcal/mol)

>  <smiles>  (9) 
CCN(C)CCNCC(O)COc1ccc2c(c1)oc1ccccc12

>  <score_type>  (9) 
oracle

>  <origin>  (9) 
adg

>  <m_score__min__energy>  (9) 
-6.2599999999999998

>  <m_primary>  (9) 
energy

$$$$
9:0
     RDKit          3D

 52 54  0  0  0  0  0  0  0  0999 V2000
   63.3710   33.8710   46.0250 C   0  0  0  0  0  0  0  0  0  0  0  0
   63.2020   33.6290   47.5220 C   0  0  0  0  0  0  0  0  0  0  0  0
   63.6910   32.2920   47.8900 N   0  0  0  0  0  0  0  0  0  0  0  0
   63.9610   32.1930   49.3300 C   0  0  0  0  0  0  0  0  0  0  0  0
   63.0020   31.1850   49.9660 C   0  0  0  0  0  0  0  0  0  0  0  0
   61.5420   31.6500   49.8530 C   0  0  0  0  0  0  0  0  0  0  0  0
   60.7290   30.7620   48.9000 C   0  0  0  0  0  0  0  0  0  0  0  0
   61.0470   31.0580   47.5000 N   0  0  0  0  0  0  0  0  0  0  0  0
   60.0460   31.0290   46.4660 C   0  0  0  0  0  0  0  0  0  0  0  0
   59.4360   32.2210   46.0330 C   0  0  0  0  0  0  0  0  0  0  0  0
   59.8460   33.4720   46.5430 C   0  0  0  0  0  0  0  0  0  0  0  0
   59.1910   34.6440   46.1700 C   0  0  0  0  0  0  0  0  0  0  0  0
   58.1190   34.5910   45.2890 C   0  0  0  0  0  0  0  0  0  0  0  0
   57.7250   33.3720   44.7370 C   0  0  0  0  0  0  0  0  0  0  0  0
   58.4050   32.1680   45.0570 C   0  0  0  0  0  0  0  0  0  0  0  0
   58.0820   30.9670   44.4520 N   0  0  0  0  0  0  0  0  0  0  0  0
   57.2210   30.9550   43.2470 C   0  0  0  0  0  0  0  0  0  0  0  0
   58.5940   29.7820   44.9460 C   0  0  0  0  0  0  0  0  0  0  0  0
   58.0980   28.5220   44.5210 C   0  0  0  0  0  0  0  0  0  0  0  0
   58.6520   27.3320   44.9910 C   0  0  0  0  0  0  0  0  0  0  0  0
   59.6980   27.3540   45.9110 C   0  0  0  0  0  0  0  0  0  0  0  0
   60.3220   26.0710   46.3770 C   0  0  0  0  0  0  0  0  0  0  0  0
   60.1910   28.5820   46.3610 C   0  0  0  0  0  0  0  0  0  0  0  0
   59.6280   29.8000   45.9200 C   0  0  0  0  0  0  0  0  0  0  0  0
   63.9942   34.7634   45.8659 H   0  0  0  0  0  0  0  0  0  0  0  0
   63.8567   32.9978   45.5649 H   0  0  0  0  0  0  0  0  0  0  0  0
   62.3840   34.0263   45.5649 H   0  0  0  0  0  0  0  0  0  0  0  0
   63.7727   34.3879   48.0773 H   0  0  0  0  0  0  0  0  0  0  0  0
   62.1332   33.6965   47.7731 H   0  0  0  0  0  0  0  0  0  0  0  0
   64.5980   32.1380   47.3880 H   0  0  0  0  0  0  0  0  0  0  0  0
   64.9977   31.8599   49.4856 H   0  0  0  0  0  0  0  0  0  0  0  0
   63.8158   33.1785   49.7966 H   0  0  0  0  0  0  0  0  0  0  0  0
   63.1097   30.2171   49.4546 H   0  0  0  0  0  0  0  0  0  0  0  0
   63.2541   31.0937   51.0328 H   0  0  0  0  0  0  0  0  0  0  0  0
   61.0801   31.6165   50.8508 H   0  0  0  0  0  0  0  0  0  0  0  0
   61.5410   32.6731   49.4489 H   0  0  0  0  0  0  0  0  0  0  0  0
   60.9623   29.7069   49.1058 H   0  0  0  0  0  0  0  0  0  0  0  0
   59.6598   30.9616   49.0644 H   0  0  0  0  0  0  0  0  0  0  0  0
   62.0530   31.0620   47.2200 H   0  0  0  0  0  0  0  0  0  0  0  0
   60.6928   33.5221   47.2433 H   0  0  0  0  0  0  0  0  0  0  0  0
   59.5234   35.6118   46.5737 H   0  0  0  0  0  0  0  0  0  0  0  0
   57.5791   35.5125   45.0257 H   0  0  0  0  0  0  0  0  0  0  0  0
   56.8729   33.3434   44.0420 H   0  0  0  0  0  0  0  0  0  0  0  0
   56.1641   30.9403   43.5516 H   0  0  0  0  0  0  0  0  0  0  0  0
   57.4172   31.8560   42.6472 H   0  0  0  0  0  0  0  0  0  0  0  0
   57.4422   30.0599   42.6472 H   0  0  0  0  0  0  0  0  0  0  0  0
   57.2613   28.4836   43.8079 H   0  0  0  0  0  0  0  0  0  0  0  0
   58.2603   26.3686   44.6327 H   0  0  0  0  0  0  0  0  0  0  0  0
   60.3336   26.0471   47.4767 H   0  0  0  0  0  0  0  0  0  0  0  0
   59.7372   25.2199   45.9979 H   0  0  0  0  0  0  0  0  0  0  0  0
   61.3525   26.0056   45.9979 H   0  0  0  0  0  0  0  0  0  0  0  0
   61.0315   28.6002   47.0704 H   0  0  0  0  0  0  0  0  0  0  0  0
  1  2  1  0
  2  3  1  0
  3  4  1  0
  4  5  1  0
  5  6  1  0
  6  7  1  0
  7  8  1  0
  8  9  1  0
  9 10  2  0
 10 11  1  0
 11 12  2  0
 12 13  1  0
 13 14  2  0
 14 15  1  0
 15 16  2  0
 16 17  1  0
 16 18  1  0
 18 19  2  0
 19 20  1  0
 20 21  2  0
 21 22  1  0
 21 23  1  0
 23 24  2  0
 24  9  1  0
 15 10  1  0
 24 18  1  0
  1 25  1  0
  1 26  1  0
  1 27  1  0
  2 28  1  0
  2 29  1  0
  3 30  1  0
  4 31  1  0
  4 32  1  0
  5 33  1  0
  5 34  1  0
  6 35  1  0
  6 36  1  0
  7 37  1  0
  7 38  1  0
  8 39  1  0
 11 40  1  0
 12 41  1  0
 13 42  1  0
 14 43  1  0
 17 44  1  0
 17 45  1  0
 17 46  1  0
 19 47  1  0
 20 48  1  0
 22 49  1  0
 22 50  1  0
 22 51  1  0
 23 52  1  0
M  CHG  1  16   1
M  END
>  <UniqueID>  (10) 
10

>  <SMILES>  (10) 
CCNCCCCNc1c2ccccc2[n+](C)c2ccc(C)cc12

>  <Energy>  (10) 
68.46526872879137

>  <Genealogy>  (10) 
CCNCCCCNc1c2ccccc2[n+](C)c2ccc(C)cc12 (3D coordinates assigned)
CCNCCCCNc1c2ccccc2[n+](C)c2ccc(C)cc12 (optimized conformer: 68.46526872879137 kcal/mol)

>  <smiles>  (10) 
CCNCCCCNc1c2ccccc2[n+](C)c2ccc(C)cc12

>  <score_type>  (10) 
oracle

>  <origin>  (10) 
adg

>  <m_score__min__energy>  (10) 
-6.1600000000000001

>  <m_primary>  (10) 
energy

$$$$
10:0
     RDKit          3D

 63 64  0  0  0  0  0  0  0  0999 V2000
   58.5191   35.7814   47.1195 H   0  0  0  0  0  0  0  0  0  0  0  0
   58.9280   34.8720   46.6550 C   0  0  0  0  0  0  0  0  0  0  0  0
   58.2460   34.3210   45.6430 C   0  0  0  0  0  0  0  0  0  0  0  0
   58.5314   34.5651   44.6091 H   0  0  0  0  0  0  0  0  0  0  0  0
   57.0950   33.3730   45.8840 C   0  0  0  0  0  0  0  0  0  0  0  0
   56.2605   33.6616   45.2280 H   0  0  0  0  0  0  0  0  0  0  0  0
   56.8267   33.4466   46.9482 H   0  0  0  0  0  0  0  0  0  0  0  0
   57.4400   31.9620   45.6130 N   0  0  0  0  0  0  0  0  0  0  0  0
   57.3080   31.6070   44.1830 C   0  0  0  0  0  0  0  0  0  0  0  0
   57.7019   32.4382   43.5797 H   0  0  0  0  0  0  0  0  0  0  0  0
   56.2405   31.4232   43.9915 H   0  0  0  0  0  0  0  0  0  0  0  0
   58.0690   30.3180   43.7970 C   0  0  0  0  0  0  0  0  0  0  0  0
   59.0357   30.5969   43.3524 H   0  0  0  0  0  0  0  0  0  0  0  0
   57.4466   29.7590   43.0827 H   0  0  0  0  0  0  0  0  0  0  0  0
   58.3150   29.4480   44.9610 N   0  0  0  0  0  0  0  0  0  0  0  0
   58.2910   28.0110   44.8040 C   0  0  0  0  0  0  0  0  0  0  0  0
   58.1000   27.5070   43.6630 O   0  0  0  0  0  0  0  0  0  0  0  0
   58.4970   27.0940   45.9810 C   0  0  0  0  0  0  0  0  0  0  0  0
   59.2700   27.5158   46.6402 H   0  0  0  0  0  0  0  0  0  0  0  0
   58.8148   26.1059   45.6168 H   0  0  0  0  0  0  0  0  0  0  0  0
   57.2910   26.9550   46.7040 O   0  0  0  0  0  0  0  0  0  0  0  0
   56.4780   25.9800   46.0860 C   0  0  0  0  0  0  0  0  0  0  0  0
   56.4801   26.1363   44.9972 H   0  0  0  0  0  0  0  0  0  0  0  0
   55.4487   26.0648   46.4646 H   0  0  0  0  0  0  0  0  0  0  0  0
   57.0270   24.5900   46.4030 C   0  0  0  0  0  0  0  0  0  0  0  0
   56.2223   23.9711   46.8265 H   0  0  0  0  0  0  0  0  0  0  0  0
   57.8500   24.6894   47.1260 H   0  0  0  0  0  0  0  0  0  0  0  0
   57.5220   23.9710   45.2280 O   0  0  0  0  0  0  0  0  0  0  0  0
   57.0410   24.6130   44.0620 C   0  0  0  0  0  0  0  0  0  0  0  0
   57.8140   25.2992   43.6856 H   0  0  0  0  0  0  0  0  0  0  0  0
   56.1251   25.1643   44.3211 H   0  0  0  0  0  0  0  0  0  0  0  0
   56.7010   23.5950   42.9680 C   0  0  0  0  0  0  0  0  0  0  0  0
   57.6325   23.1687   42.5673 H   0  0  0  0  0  0  0  0  0  0  0  0
   56.1435   24.1037   42.1677 H   0  0  0  0  0  0  0  0  0  0  0  0
   55.8630   22.5050   43.5200 N   0  0  0  0  0  0  0  0  0  0  0  0
   54.8990   22.9910   44.5240 C   0  0  0  0  0  0  0  0  0  0  0  0
   55.2899   22.7939   45.5331 H   0  0  0  0  0  0  0  0  0  0  0  0
   54.7482   24.0728   44.3940 H   0  0  0  0  0  0  0  0  0  0  0  0
   53.9396   22.4689   44.3940 H   0  0  0  0  0  0  0  0  0  0  0  0
   56.6570   21.3580   44.0170 C   0  0  0  0  0  0  0  0  0  0  0  0
   56.2739   20.4415   43.5446 H   0  0  0  0  0  0  0  0  0  0  0  0
   56.5495   21.3470   45.1117 H   0  0  0  0  0  0  0  0  0  0  0  0
   58.1600   21.4630   43.7190 C   0  0  0  0  0  0  0  0  0  0  0  0
   58.7196   21.5021   44.6652 H   0  0  0  0  0  0  0  0  0  0  0  0
   58.4811   20.5851   43.1392 H   0  0  0  0  0  0  0  0  0  0  0  0
   58.3559   22.3770   43.1392 H   0  0  0  0  0  0  0  0  0  0  0  0
   58.8040   30.0410   46.2170 C   0  0  0  0  0  0  0  0  0  0  0  0
   59.8469   29.7302   46.3774 H   0  0  0  0  0  0  0  0  0  0  0  0
   58.1618   29.6908   47.0385 H   0  0  0  0  0  0  0  0  0  0  0  0
   58.7410   31.5660   46.1740 C   0  0  0  0  0  0  0  0  0  0  0  0
   59.5522   31.9535   45.5401 H   0  0  0  0  0  0  0  0  0  0  0  0
   58.8562   31.9775   47.1876 H   0  0  0  0  0  0  0  0  0  0  0  0
   60.2010   34.3300   47.1870 C   0  0  0  0  0  0  0  0  0  0  0  0
   61.2620   33.9240   46.3510 C   0  0  0  0  0  0  0  0  0  0  0  0
   61.1556   33.9957   45.2585 H   0  0  0  0  0  0  0  0  0  0  0  0
   62.4480   33.4310   46.9030 C   0  0  0  0  0  0  0  0  0  0  0  0
   63.2668   33.1081   46.2433 H   0  0  0  0  0  0  0  0  0  0  0  0
   62.5970   33.3470   48.2900 C   0  0  0  0  0  0  0  0  0  0  0  0
   64.0890   32.7310   48.9770 Cl  0  0  0  0  0  0  0  0  0  0  0  0
   61.5600   33.7620   49.1280 C   0  0  0  0  0  0  0  0  0  0  0  0
   61.6784   33.7011   50.2199 H   0  0  0  0  0  0  0  0  0  0  0  0
   60.3710   34.2550   48.5810 C   0  0  0  0  0  0  0  0  0  0  0  0
   59.5613   34.5872   49.2473 H   0  0  0  0  0  0  0  0  0  0  0  0
  1  2  1  0
  2  3  2  0
  3  4  1  0
  3  5  1  0
  5  6  1  0
  5  7  1  0
  5  8  1  0
  8  9  1  0
  9 10  1  0
  9 11  1  0
  9 12  1  0
 12 13  1  0
 12 14  1  0
 12 15  1  0
 15 16  1  0
 16 17  2  0
 16 18  1  0
 18 19  1  0
 18 20  1  0
 18 21  1  0
 21 22  1  0
 22 23  1  0
 22 24  1  0
 22 25  1  0
 25 26  1  0
 25 27  1  0
 25 28  1  0
 28 29  1  0
 29 30  1  0
 29 31  1  0
 29 32  1  0
 32 33  1  0
 32 34  1  0
 32 35  1  0
 35 36  1  0
 36 37  1  0
 36 38  1  0
 36 39  1  0
 35 40  1  0
 40 41  1  0
 40 42  1  0
 40 43  1  0
 43 44  1  0
 43 45  1  0
 43 46  1  0
 15 47  1  0
 47 48  1  0
 47 49  1  0
 47 50  1  0
 50 51  1  0
 50 52  1  0
  2 53  1  0
 53 54  2  0
 54 55  1  0
 54 56  1  0
 56 57  1  0
 56 58  2  0
 58 59  1  0
 58 60  1  0
 60 61  1  0
 60 62  2  0
 62 63  1  0
 50  8  1  0
 62 53  1  0
M  END
>  <UniqueID>  (11) 
11

>  <SMILES>  (11) 
CCN(C)CCOCCOCC(=O)N1CCN(C/C=C/c2ccc(Cl)cc2)CC1

>  <Energy>  (11) 
73.39711524575257

>  <Genealogy>  (11) 
CCN(C)CCOCCOCC(=O)N1CCN(C/C=C/c2ccc(Cl)cc2)CC1 (cis-trans isomerization)
CCN(C)CCOCCOCC(=O)N1CCN(C/C=C/c2ccc(Cl)cc2)CC1 (3D coordinates assigned)
CCN(C)CCOCCOCC(=O)N1CCN(C/C=C/c2ccc(Cl)cc2)CC1 (nonaromatic ring conformer: 73.39711524575257 kcal/mol)

>  <smiles>  (11) 
CCN(C)CCOCCOCC(=O)N1CCN(CC=Cc2ccc(Cl)cc2)CC1

>  <score_type>  (11) 
oracle

>  <origin>  (11) 
adg

>  <m_score__min__energy>  (11) 
-7.3499999999999996

>  <m_primary>  (11) 
energy

$$$$
11:0
     RDKit          3D

 49 51  0  0  0  0  0  0  0  0999 V2000
   57.3379   23.0801   45.2039 H   0  0  0  0  0  0  0  0  0  0  0  0
   57.1180   23.6040   44.2620 C   0  0  0  0  0  0  0  0  0  0  0  0
   56.6370   22.8800   43.2420 C   0  0  0  0  0  0  0  0  0  0  0  0
   55.9368   23.3680   42.5480 H   0  0  0  0  0  0  0  0  0  0  0  0
   56.9940   21.4460   42.9880 C   0  0  0  0  0  0  0  0  0  0  0  0
   57.1237   20.9249   43.9480 H   0  0  0  0  0  0  0  0  0  0  0  0
   56.1885   20.9636   42.4148 H   0  0  0  0  0  0  0  0  0  0  0  0
   57.9316   21.3975   42.4148 H   0  0  0  0  0  0  0  0  0  0  0  0
   57.3730   25.0590   44.2070 C   0  0  0  0  0  0  0  0  0  0  0  0
   57.1630   25.8330   45.3550 C   0  0  0  0  0  0  0  0  0  0  0  0
   56.8307   25.3507   46.2861 H   0  0  0  0  0  0  0  0  0  0  0  0
   57.3730   27.2140   45.3250 C   0  0  0  0  0  0  0  0  0  0  0  0
   57.2262   27.8061   46.2403 H   0  0  0  0  0  0  0  0  0  0  0  0
   57.7700   27.8560   44.1380 C   0  0  0  0  0  0  0  0  0  0  0  0
   58.0140   29.3590   44.1520 C   0  0  2  0  0  0  0  0  0  0  0  0
   58.5442   29.4655   43.1941 H   0  0  0  0  0  0  0  0  0  0  0  0
   58.8800   29.8740   45.3050 C   0  0  0  0  0  0  0  0  0  0  0  0
   58.7402   29.2510   46.2007 H   0  0  0  0  0  0  0  0  0  0  0  0
   59.9520   29.8415   45.0607 H   0  0  0  0  0  0  0  0  0  0  0  0
   58.4180   31.2340   45.5510 N   0  0  0  0  0  0  0  0  0  0  0  0
   59.0880   32.1660   46.4310 C   0  0  0  0  0  0  0  0  0  0  0  0
   59.5100   31.7760   47.7170 C   0  0  0  0  0  0  0  0  0  0  0  0
   59.3307   30.7471   48.0621 H   0  0  0  0  0  0  0  0  0  0  0  0
   60.1370   32.6620   48.5340 N   0  0  0  0  0  0  0  0  0  0  0  0
   60.3870   33.9440   48.1540 C   0  0  0  0  0  0  0  0  0  0  0  0
   61.0350   34.8380   49.0140 O   0  0  0  0  0  0  0  0  0  0  0  0
   62.2800   34.5590   49.6520 C   0  0  0  0  0  0  0  0  0  0  0  0
   62.7468   35.5053   49.9627 H   0  0  0  0  0  0  0  0  0  0  0  0
   62.0938   33.9203   50.5280 H   0  0  0  0  0  0  0  0  0  0  0  0
   63.2190   33.8260   48.7010 C   0  0  0  0  0  0  0  0  0  0  0  0
   63.9549   33.2515   49.2827 H   0  0  0  0  0  0  0  0  0  0  0  0
   62.6372   33.1408   48.0670 H   0  0  0  0  0  0  0  0  0  0  0  0
   63.7425   34.5567   48.0670 H   0  0  0  0  0  0  0  0  0  0  0  0
   59.9870   34.3790   46.8890 C   0  0  0  0  0  0  0  0  0  0  0  0
   60.1812   35.4144   46.5724 H   0  0  0  0  0  0  0  0  0  0  0  0
   59.3390   33.4910   46.0290 C   0  0  0  0  0  0  0  0  0  0  0  0
   59.0226   33.8289   45.0311 H   0  0  0  0  0  0  0  0  0  0  0  0
   57.2070   31.5520   44.8010 C   0  0  0  0  0  0  0  0  0  0  0  0
   56.4318   31.9462   45.4746 H   0  0  0  0  0  0  0  0  0  0  0  0
   57.3943   32.3210   44.0371 H   0  0  0  0  0  0  0  0  0  0  0  0
   56.7460   30.2310   44.1710 C   0  0  2  0  0  0  0  0  0  0  0  0
   56.3260   30.3618   43.1628 H   0  0  0  0  0  0  0  0  0  0  0  0
   55.6660   29.6210   44.9570 N   0  0  0  0  0  0  0  0  0  0  0  0
   54.7860   30.1560   44.7770 H   0  0  0  0  0  0  0  0  0  0  0  0
   55.8770   29.7130   45.9780 H   0  0  0  0  0  0  0  0  0  0  0  0
   57.9630   27.0720   42.9820 C   0  0  0  0  0  0  0  0  0  0  0  0
   58.2821   27.5522   42.0452 H   0  0  0  0  0  0  0  0  0  0  0  0
   57.7530   25.6920   43.0150 C   0  0  0  0  0  0  0  0  0  0  0  0
   57.8866   25.0972   42.0994 H   0  0  0  0  0  0  0  0  0  0  0  0
  1  2  1  0
  2  3  2  0
  3  4  1  0
  3  5  1  0
  5  6  1  0
  5  7  1  0
  5  8  1  0
  2  9  1  0
  9 10  2  0
 10 11  1  0
 10 12  1  0
 12 13  1  0
 12 14  2  0
 14 15  1  0
 15 16  1  6
 15 17  1  0
 17 18  1  0
 17 19  1  0
 17 20  1  0
 20 21  1  0
 21 22  2  0
 22 23  1  0
 22 24  1  0
 24 25  2  0
 25 26  1  0
 26 27  1  0
 27 28  1  0
 27 29  1  0
 27 30  1  0
 30 31  1  0
 30 32  1  0
 30 33  1  0
 25 34  1  0
 34 35  1  0
 34 36  2  0
 36 37  1  0
 20 38  1  0
 38 39  1  0
 38 40  1  0
 38 41  1  0
 41 42  1  6
 41 43  1  0
 43 44  1  0
 43 45  1  0
 14 46  1  0
 46 47  1  0
 46 48  2  0
 48 49  1  0
 48  9  1  0
 41 15  1  0
 36 21  1  0
M  END
>  <UniqueID>  (12) 
12

>  <SMILES>  (12) 
C/C=C\c1ccc([C@@H]2CN(c3ccc(OCC)nc3)C[C@@H]2N)cc1

>  <Energy>  (12) 
57.86971453623199

>  <Genealogy>  (12) 
CC=Cc1ccc([C@@H]2CN(c3ccc(OCC)nc3)C[C@@H]2N)cc1 (chirality)
C/C=C\c1ccc([C@@H]2CN(c3ccc(OCC)nc3)C[C@@H]2N)cc1 (cis-trans isomerization)
C/C=C\c1ccc([C@@H]2CN(c3ccc(OCC)nc3)C[C@@H]2N)cc1 (3D coordinates assigned)
C/C=C\c1ccc([C@@H]2CN(c3ccc(OCC)nc3)C[C@@H]2N)cc1 (nonaromatic ring conformer: 57.86971453623199 kcal/mol)

>  <smiles>  (12) 
CC=Cc1ccc(C2CN(c3ccc(OCC)nc3)CC2N)cc1

>  <score_type>  (12) 
oracle

>  <origin>  (12) 
adg

>  <m_score__min__energy>  (12) 
-7.79

>  <m_primary>  (12) 
energy

$$$$
12:0
     RDKit          3D

 79 82  0  0  0  0  0  0  0  0999 V2000
   55.9150   30.4840   52.3810 C   0  0  0  0  0  0  0  0  0  0  0  0
   56.6780   31.5790   51.6200 C   0  0  0  0  0  0  0  0  0  0  0  0
   58.1380   31.5450   51.9000 N   0  0  0  0  0  0  0  0  0  0  0  0
   58.5580   32.6160   52.8430 C   0  0  0  0  0  0  0  0  0  0  0  0
   58.1760   34.0390   52.4170 C   0  0  0  0  0  0  0  0  0  0  0  0
   58.7030   30.2040   52.2350 C   0  0  0  0  0  0  0  0  0  0  0  0
   59.4830   29.4960   51.0980 C   0  0  0  0  0  0  0  0  0  0  0  0
   58.8190   29.7020   49.7280 C   0  0  0  0  0  0  0  0  0  0  0  0
   59.6890   30.4490   48.8130 N   0  0  0  0  0  0  0  0  0  0  0  0
   59.1600   30.9500   47.5750 C   0  0  0  0  0  0  0  0  0  0  0  0
   58.7150   30.0310   46.6050 C   0  0  0  0  0  0  0  0  0  0  0  0
   58.6960   28.6430   46.8760 C   0  0  0  0  0  0  0  0  0  0  0  0
   58.3090   27.7300   45.9000 C   0  0  0  0  0  0  0  0  0  0  0  0
   57.9480   28.1750   44.6350 C   0  0  0  0  0  0  0  0  0  0  0  0
   57.9510   29.5390   44.3440 C   0  0  0  0  0  0  0  0  0  0  0  0
   58.3020   30.4980   45.3300 C   0  0  0  0  0  0  0  0  0  0  0  0
   58.2830   31.8520   45.0620 N   0  0  0  0  0  0  0  0  0  0  0  0
   57.6040   32.3530   43.8450 C   0  0  0  0  0  0  0  0  0  0  0  0
   58.8580   32.7440   45.9490 C   0  0  0  0  0  0  0  0  0  0  0  0
   59.1210   34.0820   45.5700 C   0  0  0  0  0  0  0  0  0  0  0  0
   59.6170   35.0030   46.4840 C   0  0  0  0  0  0  0  0  0  0  0  0
   59.8370   34.6320   47.8010 C   0  0  0  0  0  0  0  0  0  0  0  0
   59.6200   33.3070   48.2190 C   0  0  0  0  0  0  0  0  0  0  0  0
   59.7620   32.9610   49.5760 O   0  0  0  0  0  0  0  0  0  0  0  0
   60.8010   33.4360   50.4320 C   0  0  0  0  0  0  0  0  0  0  0  0
   61.8540   32.3380   50.6940 C   0  0  0  0  0  0  0  0  0  0  0  0
   62.9910   32.2330   49.7170 N   0  0  0  0  0  0  0  0  0  0  0  0
   64.0270   31.3900   50.3790 C   0  0  0  0  0  0  0  0  0  0  0  0
   62.5440   31.5190   48.4720 C   0  0  0  0  0  0  0  0  0  0  0  0
   63.4280   31.8330   47.2540 C   0  0  0  0  0  0  0  0  0  0  0  0
   63.3940   33.3300   46.9070 C   0  0  0  0  0  0  0  0  0  0  0  0
   63.1120   34.2210   48.1280 C   0  0  0  0  0  0  0  0  0  0  0  0
   63.6140   33.5710   49.4290 C   0  0  0  0  0  0  0  0  0  0  0  0
   59.2180   32.3280   47.2630 C   0  0  0  0  0  0  0  0  0  0  0  0
   56.0266   30.6441   53.4635 H   0  0  0  0  0  0  0  0  0  0  0  0
   54.8492   30.5254   52.1122 H   0  0  0  0  0  0  0  0  0  0  0  0
   56.3229   29.4985   52.1122 H   0  0  0  0  0  0  0  0  0  0  0  0
   56.5209   31.4353   50.5408 H   0  0  0  0  0  0  0  0  0  0  0  0
   56.2928   32.5535   51.9546 H   0  0  0  0  0  0  0  0  0  0  0  0
   58.6040   31.8210   51.0000 H   0  0  0  0  0  0  0  0  0  0  0  0
   58.0911   32.4146   53.8184 H   0  0  0  0  0  0  0  0  0  0  0  0
   59.6573   32.5876   52.8717 H   0  0  0  0  0  0  0  0  0  0  0  0
   58.0100   34.6574   53.3114 H   0  0  0  0  0  0  0  0  0  0  0  0
   58.9894   34.4730   51.8170 H   0  0  0  0  0  0  0  0  0  0  0  0
   57.2546   34.0072   51.8170 H   0  0  0  0  0  0  0  0  0  0  0  0
   59.3881   30.3298   53.0864 H   0  0  0  0  0  0  0  0  0  0  0  0
   57.8368   29.5603   52.4481 H   0  0  0  0  0  0  0  0  0  0  0  0
   60.5046   29.9023   51.0620 H   0  0  0  0  0  0  0  0  0  0  0  0
   59.4906   28.4171   51.3125 H   0  0  0  0  0  0  0  0  0  0  0  0
   58.5976   28.7188   49.2872 H   0  0  0  0  0  0  0  0  0  0  0  0
   57.8966   30.2826   49.8766 H   0  0  0  0  0  0  0  0  0  0  0  0
   60.5480   30.9140   49.1820 H   0  0  0  0  0  0  0  0  0  0  0  0
   58.9911   28.2804   47.8717 H   0  0  0  0  0  0  0  0  0  0  0  0
   58.2890   26.6546   46.1306 H   0  0  0  0  0  0  0  0  0  0  0  0
   57.6589   27.4496   43.8603 H   0  0  0  0  0  0  0  0  0  0  0  0
   57.6769   29.8772   43.3338 H   0  0  0  0  0  0  0  0  0  0  0  0
   56.7501   32.9831   44.1346 H   0  0  0  0  0  0  0  0  0  0  0  0
   58.3120   32.9467   43.2482 H   0  0  0  0  0  0  0  0  0  0  0  0
   57.2455   31.5013   43.2482 H   0  0  0  0  0  0  0  0  0  0  0  0
   58.9294   34.3980   44.5339 H   0  0  0  0  0  0  0  0  0  0  0  0
   59.8361   36.0314   46.1610 H   0  0  0  0  0  0  0  0  0  0  0  0
   60.1850   35.3817   48.5269 H   0  0  0  0  0  0  0  0  0  0  0  0
   61.2919   34.2978   49.9563 H   0  0  0  0  0  0  0  0  0  0  0  0
   60.3540   33.7267   51.3941 H   0  0  0  0  0  0  0  0  0  0  0  0
   62.2872   32.5246   51.6878 H   0  0  0  0  0  0  0  0  0  0  0  0
   61.3062   31.3891   50.5962 H   0  0  0  0  0  0  0  0  0  0  0  0
   63.9246   31.4733   51.4710 H   0  0  0  0  0  0  0  0  0  0  0  0
   63.8936   30.3407   50.0772 H   0  0  0  0  0  0  0  0  0  0  0  0
   65.0273   31.7340   50.0772 H   0  0  0  0  0  0  0  0  0  0  0  0
   62.5747   30.4353   48.6583 H   0  0  0  0  0  0  0  0  0  0  0  0
   61.5260   31.8649   48.2398 H   0  0  0  0  0  0  0  0  0  0  0  0
   64.4644   31.5414   47.4794 H   0  0  0  0  0  0  0  0  0  0  0  0
   63.0423   31.2691   46.3919 H   0  0  0  0  0  0  0  0  0  0  0  0
   64.3683   33.6141   46.4827 H   0  0  0  0  0  0  0  0  0  0  0  0
   62.5744   33.4840   46.1896 H   0  0  0  0  0  0  0  0  0  0  0  0
   63.6213   35.1863   47.9912 H   0  0  0  0  0  0  0  0  0  0  0  0
   62.0239   34.3601   48.2095 H   0  0  0  0  0  0  0  0  0  0  0  0
   64.7032   33.4375   49.3525 H   0  0  0  0  0  0  0  0  0  0  0  0
   63.3297   34.2416   50.2533 H   0  0  0  0  0  0  0  0  0  0  0  0
  1  2  1  0
  2  3  1  0
  3  4  1  0
  4  5  1  0
  3  6  1  0
  6  7  1  0
  7  8  1  0
  8  9  1  0
  9 10  1  0
 10 11  2  0
 11 12  1  0
 12 13  2  0
 13 14  1  0
 14 15  2  0
 15 16  1  0
 16 17  2  0
 17 18  1  0
 17 19  1  0
 19 20  2  0
 20 21  1  0
 21 22  2  0
 22 23  1  0
 23 24  1  0
 24 25  1  0
 25 26  1  0
 26 27  1  0
 27 28  1  0
 27 29  1  0
 29 30  1  0
 30 31  1  0
 31 32  1  0
 32 33  1  0
 23 34  2  0
 34 10  1  0
 16 11  1  0
 34 19  1  0
 33 27  1  0
  1 35  1  0
  1 36  1  0
  1 37  1  0
  2 38  1  0
  2 39  1  0
  3 40  1  0
  4 41  1  0
  4 42  1  0
  5 43  1  0
  5 44  1  0
  5 45  1  0
  6 46  1  0
  6 47  1  0
  7 48  1  0
  7 49  1  0
  8 50  1  0
  8 51  1  0
  9 52  1  0
 12 53  1  0
 13 54  1  0
 14 55  1  0
 15 56  1  0
 18 57  1  0
 18 58  1  0
 18 59  1  0
 20 60  1  0
 21 61  1  0
 22 62  1  0
 25 63  1  0
 25 64  1  0
 26 65  1  0
 26 66  1  0
 28 67  1  0
 28 68  1  0
 28 69  1  0
 29 70  1  0
 29 71  1  0
 30 72  1  0
 30 73  1  0
 31 74  1  0
 31 75  1  0
 32 76  1  0
 32 77  1  0
 33 78  1  0
 33 79  1  0
M  CHG  3   3   1  17   1  27   1
M  END
>  <UniqueID>  (13) 
13

>  <SMILES>  (13) 
CC[NH+](CC)CCCNc1c2ccccc2[n+](C)c2cccc(OCC[N+]3(C)CCCCC3)c12

>  <Energy>  (13) 
130.37830677213142

>  <Genealogy>  (13) 
CC[NH+](CC)CCCNc1c2ccccc2[n+](C)c2cccc(OCC[N+]3(C)CCCCC3)c12 (protonated)
CC[NH+](CC)CCCNc1c2ccccc2[n+](C)c2cccc(OCC[N+]3(C)CCCCC3)c12 (3D coordinates assigned)
CC[NH+](CC)CCCNc1c2ccccc2[n+](C)c2cccc(OCC[N+]3(C)CCCCC3)c12 (nonaromatic ring conformer: 130.37830677213142 kcal/mol)

>  <smiles>  (13) 
CCN(CC)CCCNc1c2ccccc2[n+](C)c2cccc(OCC[N+]3(C)CCCCC3)c12

>  <score_type>  (13) 
oracle

>  <origin>  (13) 
adg

>  <m_score__min__energy>  (13) 
-4.6399999999999997

>  <m_primary>  (13) 
energy

$$$$
13:0
     RDKit          3D

 49 50  0  0  0  0  0  0  0  0999 V2000
   57.3880   33.2560   45.1350 C   0  0  0  0  0  0  0  0  0  0  0  0
   57.7990   31.9270   44.5030 C   0  0  0  0  0  0  0  0  0  0  0  0
   57.0020   30.8090   45.0570 N   0  0  0  0  0  0  0  0  0  0  0  0
   55.9160   30.4330   44.1230 C   0  0  0  0  0  0  0  0  0  0  0  0
   56.4680   29.7030   42.8990 C   0  0  0  0  0  0  0  0  0  0  0  0
   57.8560   29.6440   45.4110 C   0  0  0  0  0  0  0  0  0  0  0  0
   59.3210   30.0790   45.4510 C   0  0  0  0  0  0  0  0  0  0  0  0
   59.6220   30.6850   46.6950 O   0  0  0  0  0  0  0  0  0  0  0  0
   58.8650   30.1110   47.7450 C   0  0  0  0  0  0  0  0  0  0  0  0
   59.7120   29.1200   48.5410 C   0  0  0  0  0  0  0  0  0  0  0  0
   60.1480   29.7320   49.7360 O   0  0  0  0  0  0  0  0  0  0  0  0
   59.3620   30.8760   49.9920 C   0  0  0  0  0  0  0  0  0  0  0  0
   60.2150   32.0040   50.1600 O   0  0  0  0  0  0  0  0  0  0  0  0
   61.4570   32.1250   49.5270 C   0  0  0  0  0  0  0  0  0  0  0  0
   62.5690   31.5340   50.0580 N   0  0  0  0  0  0  0  0  0  0  0  0
   63.7920   31.6380   49.4590 C   0  0  0  0  0  0  0  0  0  0  0  0
   63.9330   32.3420   48.3010 N   0  0  0  0  0  0  0  0  0  0  0  0
   62.8420   32.9350   47.7600 C   0  0  0  0  0  0  0  0  0  0  0  0
   62.7810   33.8430   46.3520 S   0  0  0  0  0  0  0  0  0  0  0  0
   61.1210   34.1540   46.4560 C   0  0  0  0  0  0  0  0  0  0  0  0
   60.6040   33.5410   47.6020 C   0  0  0  0  0  0  0  0  0  0  0  0
   59.1560   33.6270   47.9800 C   0  0  0  0  0  0  0  0  0  0  0  0
   61.5890   32.8520   48.3370 C   0  0  0  0  0  0  0  0  0  0  0  0
   57.4161   33.1651   46.2309 H   0  0  0  0  0  0  0  0  0  0  0  0
   58.0841   34.0452   44.8146 H   0  0  0  0  0  0  0  0  0  0  0  0
   56.3680   33.5145   44.8146 H   0  0  0  0  0  0  0  0  0  0  0  0
   57.6379   31.9801   43.4162 H   0  0  0  0  0  0  0  0  0  0  0  0
   58.8608   31.7456   44.7259 H   0  0  0  0  0  0  0  0  0  0  0  0
   55.2066   29.7736   44.6444 H   0  0  0  0  0  0  0  0  0  0  0  0
   55.4144   31.3514   43.7841 H   0  0  0  0  0  0  0  0  0  0  0  0
   57.1014   28.8654   43.2264 H   0  0  0  0  0  0  0  0  0  0  0  0
   55.6336   29.3174   42.2948 H   0  0  0  0  0  0  0  0  0  0  0  0
   57.0663   30.4008   42.2948 H   0  0  0  0  0  0  0  0  0  0  0  0
   57.5607   29.2595   46.3984 H   0  0  0  0  0  0  0  0  0  0  0  0
   57.7288   28.8537   44.6565 H   0  0  0  0  0  0  0  0  0  0  0  0
   59.9647   29.1979   45.3118 H   0  0  0  0  0  0  0  0  0  0  0  0
   59.4990   30.8079   44.6466 H   0  0  0  0  0  0  0  0  0  0  0  0
   58.5160   30.9091   48.4168 H   0  0  0  0  0  0  0  0  0  0  0  0
   58.0076   29.5755   47.3114 H   0  0  0  0  0  0  0  0  0  0  0  0
   59.1090   28.2321   48.7819 H   0  0  0  0  0  0  0  0  0  0  0  0
   60.5842   28.8177   47.9428 H   0  0  0  0  0  0  0  0  0  0  0  0
   58.6822   31.0520   49.1453 H   0  0  0  0  0  0  0  0  0  0  0  0
   58.7714   30.7206   50.9069 H   0  0  0  0  0  0  0  0  0  0  0  0
   64.6673   31.1511   49.9136 H   0  0  0  0  0  0  0  0  0  0  0  0
   64.8680   32.4220   47.8420 H   0  0  0  0  0  0  0  0  0  0  0  0
   60.5389   34.7462   45.7345 H   0  0  0  0  0  0  0  0  0  0  0  0
   59.0629   33.6325   49.0760 H   0  0  0  0  0  0  0  0  0  0  0  0
   58.7245   34.5524   47.5707 H   0  0  0  0  0  0  0  0  0  0  0  0
   58.6180   32.7592   47.5707 H   0  0  0  0  0  0  0  0  0  0  0  0
  1  2  1  0
  2  3  1  0
  3  4  1  0
  4  5  1  0
  3  6  1  0
  6  7  1  0
  7  8  1  0
  8  9  1  0
  9 10  1  0
 10 11  1  0
 11 12  1  0
 12 13  1  0
 13 14  1  0
 14 15  2  0
 15 16  1  0
 16 17  2  0
 17 18  1  0
 18 19  1  0
 19 20  1  0
 20 21  2  0
 21 22  1  0
 21 23  1  0
 23 14  1  0
 23 18  2  0
  1 24  1  0
  1 25  1  0
  1 26  1  0
  2 27  1  0
  2 28  1  0
  4 29  1  0
  4 30  1  0
  5 31  1  0
  5 32  1  0
  5 33  1  0
  6 34  1  0
  6 35  1  0
  7 36  1  0
  7 37  1  0
  9 38  1  0
  9 39  1  0
 10 40  1  0
 10 41  1  0
 12 42  1  0
 12 43  1  0
 16 44  1  0
 17 45  1  0
 20 46  1  0
 22 47  1  0
 22 48  1  0
 22 49  1  0
M  CHG  1  17   1
M  END
>  <UniqueID>  (14) 
14

>  <SMILES>  (14) 
CCN(CC)CCOCCOCOc1nc[nH+]c2scc(C)c12

>  <Energy>  (14) 
79.17595215365279

>  <Genealogy>  (14) 
CCN(CC)CCOCCOCOc1nc[nH+]c2scc(C)c12 (protonated)
CCN(CC)CCOCCOCOc1nc[nH+]c2scc(C)c12 (3D coordinates assigned)
CCN(CC)CCOCCOCOc1nc[nH+]c2scc(C)c12 (optimized conformer: 79.17595215365279 kcal/mol)

>  <smiles>  (14) 
CCN(CC)CCOCCOCOc1ncnc2scc(C)c12

>  <score_type>  (14) 
oracle

>  <origin>  (14) 
adg

>  <m_score__min__energy>  (14) 
-4.8499999999999996

>  <m_primary>  (14) 
energy

$$$$
14:0
     RDKit          3D

 66 68  0  0  0  0  0  0  0  0999 V2000
   62.8300   33.8450   51.4250 C   0  0  0  0  0  0  0  0  0  0  0  0
   63.2120   33.8370   49.9470 C   0  0  0  0  0  0  0  0  0  0  0  0
   62.8210   32.5530   49.3160 N   0  0  0  0  0  0  0  0  0  0  0  0
   63.2410   31.4190   50.1660 C   0  0  0  0  0  0  0  0  0  0  0  0
   63.4080   32.4410   47.9600 C   0  0  0  0  0  0  0  0  0  0  0  0
   62.6930   31.3740   47.1190 C   0  0  0  0  0  0  0  0  0  0  0  0
   61.3740   31.0730   47.6750 N   0  0  0  0  0  0  0  0  0  0  0  0
   60.2100   31.1320   46.8370 C   0  0  0  0  0  0  0  0  0  0  0  0
   59.7900   29.9590   46.1860 C   0  0  0  0  0  0  0  0  0  0  0  0
   60.3680   28.7110   46.5100 C   0  0  0  0  0  0  0  0  0  0  0  0
   59.9820   27.5510   45.8420 C   0  0  0  0  0  0  0  0  0  0  0  0
   59.0310   27.6150   44.8320 C   0  0  0  0  0  0  0  0  0  0  0  0
   58.4490   28.8360   44.4930 C   0  0  0  0  0  0  0  0  0  0  0  0
   58.7950   30.0300   45.1790 C   0  0  0  0  0  0  0  0  0  0  0  0
   58.2290   31.2460   44.8520 N   0  0  0  0  0  0  0  0  0  0  0  0
   57.0490   31.2930   43.9580 C   0  0  0  0  0  0  0  0  0  0  0  0
   58.7420   32.4160   45.3810 C   0  0  0  0  0  0  0  0  0  0  0  0
   58.4350   33.6710   44.8070 C   0  0  0  0  0  0  0  0  0  0  0  0
   58.9160   34.8490   45.3620 C   0  0  0  0  0  0  0  0  0  0  0  0
   59.6370   34.8190   46.5450 C   0  0  0  0  0  0  0  0  0  0  0  0
   59.9240   33.6000   47.1910 C   0  0  0  0  0  0  0  0  0  0  0  0
   60.5160   33.5980   48.5250 N   0  0  0  0  0  0  0  0  0  0  0  0
   59.7090   34.2760   49.5690 C   0  0  0  0  0  0  0  0  0  0  0  0
   59.2600   33.2970   50.6730 C   0  0  0  0  0  0  0  0  0  0  0  0
   58.5950   32.0390   50.0950 C   0  0  0  0  0  0  0  0  0  0  0  0
   59.5750   30.9470   49.8950 N   0  0  0  0  0  0  0  0  0  0  0  0
   60.3000   30.6840   51.1490 C   0  0  0  0  0  0  0  0  0  0  0  0
   58.9100   29.7100   49.4460 C   0  0  0  0  0  0  0  0  0  0  0  0
   59.6300   32.3790   46.4930 C   0  0  0  0  0  0  0  0  0  0  0  0
   63.7421   33.8259   52.0396 H   0  0  0  0  0  0  0  0  0  0  0  0
   62.2551   34.7554   51.6502 H   0  0  0  0  0  0  0  0  0  0  0  0
   62.2175   32.9595   51.6502 H   0  0  0  0  0  0  0  0  0  0  0  0
   62.6967   34.6633   49.4355 H   0  0  0  0  0  0  0  0  0  0  0  0
   64.3019   33.9582   49.8607 H   0  0  0  0  0  0  0  0  0  0  0  0
   63.1381   31.6970   51.2253 H   0  0  0  0  0  0  0  0  0  0  0  0
   62.6065   30.5461   49.9526 H   0  0  0  0  0  0  0  0  0  0  0  0
   64.2910   31.1700   49.9526 H   0  0  0  0  0  0  0  0  0  0  0  0
   63.3207   33.4129   47.4522 H   0  0  0  0  0  0  0  0  0  0  0  0
   64.4622   32.1452   48.0657 H   0  0  0  0  0  0  0  0  0  0  0  0
   62.5747   31.7451   46.0903 H   0  0  0  0  0  0  0  0  0  0  0  0
   63.2974   30.4550   47.1271 H   0  0  0  0  0  0  0  0  0  0  0  0
   61.2860   30.6330   48.6190 H   0  0  0  0  0  0  0  0  0  0  0  0
   61.1321   28.6547   47.2993 H   0  0  0  0  0  0  0  0  0  0  0  0
   60.4305   26.5843   46.1146 H   0  0  0  0  0  0  0  0  0  0  0  0
   58.7360   26.6998   44.2978 H   0  0  0  0  0  0  0  0  0  0  0  0
   57.7090   28.8748   43.6800 H   0  0  0  0  0  0  0  0  0  0  0  0
   56.1314   31.3295   44.5636 H   0  0  0  0  0  0  0  0  0  0  0  0
   57.1054   32.1896   43.3232 H   0  0  0  0  0  0  0  0  0  0  0  0
   57.0339   30.3947   43.3232 H   0  0  0  0  0  0  0  0  0  0  0  0
   57.8050   33.7147   43.9063 H   0  0  0  0  0  0  0  0  0  0  0  0
   58.7242   35.8094   44.8611 H   0  0  0  0  0  0  0  0  0  0  0  0
   59.9910   35.7620   46.9869 H   0  0  0  0  0  0  0  0  0  0  0  0
   61.4750   34.0090   48.4710 H   0  0  0  0  0  0  0  0  0  0  0  0
   60.5950   32.6080   48.8490 H   0  0  0  0  0  0  0  0  0  0  0  0
   60.3144   35.0732   50.0250 H   0  0  0  0  0  0  0  0  0  0  0  0
   58.8081   34.6877   49.0905 H   0  0  0  0  0  0  0  0  0  0  0  0
   60.1407   32.9952   51.2589 H   0  0  0  0  0  0  0  0  0  0  0  0
   58.5194   33.8127   51.3020 H   0  0  0  0  0  0  0  0  0  0  0  0
   57.8152   31.6958   50.7908 H   0  0  0  0  0  0  0  0  0  0  0  0
   58.1630   32.2969   49.1168 H   0  0  0  0  0  0  0  0  0  0  0  0
   59.6501   30.9197   52.0046 H   0  0  0  0  0  0  0  0  0  0  0  0
   60.5895   29.6236   51.1897 H   0  0  0  0  0  0  0  0  0  0  0  0
   61.2021   31.3122   51.1897 H   0  0  0  0  0  0  0  0  0  0  0  0
   58.5951   29.1242   50.3222 H   0  0  0  0  0  0  0  0  0  0  0  0
   58.0283   29.9667   48.8404 H   0  0  0  0  0  0  0  0  0  0  0  0
   59.6105   29.1162   48.8404 H   0  0  0  0  0  0  0  0  0  0  0  0
  1  2  1  0
  2  3  1  0
  3  4  1  0
  3  5  1  0
  5  6  1  0
  6  7  1  0
  7  8  1  0
  8  9  2  0
  9 10  1  0
 10 11  2  0
 11 12  1  0
 12 13  2  0
 13 14  1  0
 14 15  2  0
 15 16  1  0
 15 17  1  0
 17 18  2  0
 18 19  1  0
 19 20  2  0
 20 21  1  0
 21 22  1  0
 22 23  1  0
 23 24  1  0
 24 25  1  0
 25 26  1  0
 26 27  1  0
 26 28  1  0
 21 29  2  0
 29  8  1  0
 14  9  1  0
 29 17  1  0
  1 30  1  0
  1 31  1  0
  1 32  1  0
  2 33  1  0
  2 34  1  0
  4 35  1  0
  4 36  1  0
  4 37  1  0
  5 38  1  0
  5 39  1  0
  6 40  1  0
  6 41  1  0
  7 42  1  0
 10 43  1  0
 11 44  1  0
 12 45  1  0
 13 46  1  0
 16 47  1  0
 16 48  1  0
 16 49  1  0
 18 50  1  0
 19 51  1  0
 20 52  1  0
 22 53  1  0
 22 54  1  0
 23 55  1  0
 23 56  1  0
 24 57  1  0
 24 58  1  0
 25 59  1  0
 25 60  1  0
 27 61  1  0
 27 62  1  0
 27 63  1  0
 28 64  1  0
 28 65  1  0
 28 66  1  0
M  CHG  2  15   1  22   1
M  END
>  <UniqueID>  (15) 
15

>  <SMILES>  (15) 
CCN(C)CCNc1c2ccccc2[n+](C)c2cccc([NH2+]CCCN(C)C)c12

>  <Energy>  (15) 
106.02468551109448

>  <Genealogy>  (15) 
CCN(C)CCNc1c2ccccc2[n+](C)c2cccc([NH2+]CCCN(C)C)c12 (protonated)
CCN(C)CCNc1c2ccccc2[n+](C)c2cccc([NH2+]CCCN(C)C)c12 (3D coordinates assigned)
CCN(C)CCNc1c2ccccc2[n+](C)c2cccc([NH2+]CCCN(C)C)c12 (optimized conformer: 106.02468551109448 kcal/mol)

>  <smiles>  (15) 
CCN(C)CCNc1c2ccccc2[n+](C)c2cccc(NCCCN(C)C)c12

>  <score_type>  (15) 
oracle

>  <origin>  (15) 
adg

>  <m_score__min__energy>  (15) 
-3.3900000000000001

>  <m_primary>  (15) 
energy

$$$$
15:0
     RDKit          3D

 55 57  0  0  0  0  0  0  0  0999 V2000
   57.7910   31.9030   42.8730 C   0  0  0  0  0  0  0  0  0  0  0  0
   56.7040   30.8380   42.9490 C   0  0  0  0  0  0  0  0  0  0  0  0
   57.1610   29.6740   43.7700 C   0  0  0  0  0  0  0  0  0  0  0  0
   57.3060   29.6600   45.1420 C   0  0  0  0  0  0  0  0  0  0  0  0
   57.6810   28.3610   45.4380 C   0  0  0  0  0  0  0  0  0  0  0  0
   57.9020   27.8290   46.8390 C   0  0  0  0  0  0  0  0  0  0  0  0
   59.1340   28.3300   47.4910 N   0  0  0  0  0  0  0  0  0  0  0  0
   58.9070   29.4600   48.4250 C   0  0  0  0  0  0  0  0  0  0  0  0
   60.2050   30.2030   48.7510 C   0  0  0  0  0  0  0  0  0  0  0  0
   60.8330   30.6740   47.5100 N   0  0  0  0  0  0  0  0  0  0  0  0
   61.7690   31.7650   47.5470 C   0  0  0  0  0  0  0  0  0  0  0  0
   62.9330   31.6540   48.3280 C   0  0  0  0  0  0  0  0  0  0  0  0
   63.9030   32.6590   48.3010 C   0  0  0  0  0  0  0  0  0  0  0  0
   63.7260   33.7800   47.4910 C   0  0  0  0  0  0  0  0  0  0  0  0
   62.5700   33.9080   46.7180 C   0  0  0  0  0  0  0  0  0  0  0  0
   61.5760   32.9230   46.7580 C   0  0  0  0  0  0  0  0  0  0  0  0
   60.4080   33.1260   46.0140 O   0  0  0  0  0  0  0  0  0  0  0  0
   59.4670   34.1620   46.3060 C   0  0  0  0  0  0  0  0  0  0  0  0
   58.1130   33.8420   45.6690 C   0  0  0  0  0  0  0  0  0  0  0  0
   59.3280   34.2890   47.8200 C   0  0  0  0  0  0  0  0  0  0  0  0
   60.6370   29.9180   46.2670 C   0  0  0  0  0  0  0  0  0  0  0  0
   60.3010   28.4580   46.5880 C   0  0  0  0  0  0  0  0  0  0  0  0
   57.7060   27.6530   44.2820 N   0  0  0  0  0  0  0  0  0  0  0  0
   58.0250   26.2410   44.0920 C   0  0  0  0  0  0  0  0  0  0  0  0
   57.3990   28.4480   43.2690 N   0  0  0  0  0  0  0  0  0  0  0  0
   58.0895   32.1955   43.8905 H   0  0  0  0  0  0  0  0  0  0  0  0
   58.6627   31.4996   42.3368 H   0  0  0  0  0  0  0  0  0  0  0  0
   57.4056   32.7827   42.3368 H   0  0  0  0  0  0  0  0  0  0  0  0
   55.8040   31.2727   43.4083 H   0  0  0  0  0  0  0  0  0  0  0  0
   56.4810   30.4868   41.9307 H   0  0  0  0  0  0  0  0  0  0  0  0
   57.1570   30.4942   45.8434 H   0  0  0  0  0  0  0  0  0  0  0  0
   57.0409   28.1202   47.4585 H   0  0  0  0  0  0  0  0  0  0  0  0
   58.0128   26.7383   46.7493 H   0  0  0  0  0  0  0  0  0  0  0  0
   58.2000   30.1654   47.9640 H   0  0  0  0  0  0  0  0  0  0  0  0
   58.5048   29.0502   49.3633 H   0  0  0  0  0  0  0  0  0  0  0  0
   59.9803   31.0648   49.3966 H   0  0  0  0  0  0  0  0  0  0  0  0
   60.8937   29.5206   49.2706 H   0  0  0  0  0  0  0  0  0  0  0  0
   63.0809   30.7694   48.9649 H   0  0  0  0  0  0  0  0  0  0  0  0
   64.8077   32.5658   48.9197 H   0  0  0  0  0  0  0  0  0  0  0  0
   64.4972   34.5638   47.4608 H   0  0  0  0  0  0  0  0  0  0  0  0
   62.4395   34.7894   46.0729 H   0  0  0  0  0  0  0  0  0  0  0  0
   59.8233   35.1156   45.8891 H   0  0  0  0  0  0  0  0  0  0  0  0
   57.3684   33.6660   46.4593 H   0  0  0  0  0  0  0  0  0  0  0  0
   57.7921   34.6890   45.0449 H   0  0  0  0  0  0  0  0  0  0  0  0
   58.2052   32.9409   45.0449 H   0  0  0  0  0  0  0  0  0  0  0  0
   60.0544   33.6253   48.3118 H   0  0  0  0  0  0  0  0  0  0  0  0
   59.5205   35.3297   48.1199 H   0  0  0  0  0  0  0  0  0  0  0  0
   58.3089   34.0036   48.1199 H   0  0  0  0  0  0  0  0  0  0  0  0
   59.8100   30.3648   45.6956 H   0  0  0  0  0  0  0  0  0  0  0  0
   61.5626   29.9531   45.6737 H   0  0  0  0  0  0  0  0  0  0  0  0
   60.0788   27.9322   45.6477 H   0  0  0  0  0  0  0  0  0  0  0  0
   61.1700   28.0199   47.1007 H   0  0  0  0  0  0  0  0  0  0  0  0
   58.1349   25.7547   45.0726 H   0  0  0  0  0  0  0  0  0  0  0  0
   57.2142   25.7543   43.5301 H   0  0  0  0  0  0  0  0  0  0  0  0
   58.9663   26.1501   43.5301 H   0  0  0  0  0  0  0  0  0  0  0  0
  1  2  1  0
  2  3  1  0
  3  4  1  0
  4  5  2  0
  5  6  1  0
  6  7  1  0
  7  8  1  0
  8  9  1  0
  9 10  1  0
 10 11  1  0
 11 12  2  0
 12 13  1  0
 13 14  2  0
 14 15  1  0
 15 16  2  0
 16 17  1  0
 17 18  1  0
 18 19  1  0
 18 20  1  0
 10 21  1  0
 21 22  1  0
  5 23  1  0
 23 24  1  0
 23 25  1  0
 25  3  2  0
 22  7  1  0
 16 11  1  0
  1 26  1  0
  1 27  1  0
  1 28  1  0
  2 29  1  0
  2 30  1  0
  4 31  1  0
  6 32  1  0
  6 33  1  0
  8 34  1  0
  8 35  1  0
  9 36  1  0
  9 37  1  0
 12 38  1  0
 13 39  1  0
 14 40  1  0
 15 41  1  0
 18 42  1  0
 19 43  1  0
 19 44  1  0
 19 45  1  0
 20 46  1  0
 20 47  1  0
 20 48  1  0
 21 49  1  0
 21 50  1  0
 22 51  1  0
 22 52  1  0
 24 53  1  0
 24 54  1  0
 24 55  1  0
M  END
>  <UniqueID>  (16) 
16

>  <SMILES>  (16) 
CCc1cc(CN2CCN(c3ccccc3OC(C)C)CC2)n(C)n1

>  <Energy>  (16) 
92.69239754353052

>  <Genealogy>  (16) 
CCc1cc(CN2CCN(c3ccccc3OC(C)C)CC2)n(C)n1 (3D coordinates assigned)
CCc1cc(CN2CCN(c3ccccc3OC(C)C)CC2)n(C)n1 (nonaromatic ring conformer: 92.69239754353052 kcal/mol)

>  <smiles>  (16) 
CCc1cc(CN2CCN(c3ccccc3OC(C)C)CC2)n(C)n1

>  <score_type>  (16) 
oracle

>  <origin>  (16) 
adg

>  <m_score__min__energy>  (16) 
-7.7999999999999998

>  <m_primary>  (16) 
energy

$$$$
16:0
     RDKit          3D

 46 48  0  0  0  0  0  0  0  0999 V2000
   59.7280   29.1430   45.0860 C   0  0  0  0  0  0  0  0  0  0  0  0
   59.9810   30.2420   46.1270 C   0  0  0  0  0  0  0  0  0  0  0  0
   59.0050   30.2660   47.2450 N   0  0  0  0  0  0  0  0  0  0  0  0
   58.8780   28.9820   47.9710 C   0  0  0  0  0  0  0  0  0  0  0  0
   60.1860   28.5800   48.6510 C   0  0  0  0  0  0  0  0  0  0  0  0
   59.2640   31.3830   48.1770 C   0  0  0  0  0  0  0  0  0  0  0  0
   60.1500   32.3660   47.5500 N   0  0  0  0  0  0  0  0  0  0  0  0
   59.8310   33.3920   46.7170 C   0  0  0  0  0  0  0  0  0  0  0  0
   58.1540   33.7970   46.2100 S   0  0  0  0  0  0  0  0  0  0  0  0
   58.4560   33.5060   44.4310 C   0  0  0  0  0  0  0  0  0  0  0  0
   57.6940   32.3030   43.9420 C   0  0  0  0  0  0  0  0  0  0  0  0
   57.0590   31.4480   44.8590 C   0  0  0  0  0  0  0  0  0  0  0  0
   56.3990   30.2990   44.4130 C   0  0  0  0  0  0  0  0  0  0  0  0
   55.7990   29.4730   45.3050 F   0  0  0  0  0  0  0  0  0  0  0  0
   56.3670   29.9950   43.0500 C   0  0  0  0  0  0  0  0  0  0  0  0
   56.9940   30.8400   42.1300 C   0  0  0  0  0  0  0  0  0  0  0  0
   57.6550   31.9910   42.5700 C   0  0  0  0  0  0  0  0  0  0  0  0
   58.2720   32.7900   41.6620 F   0  0  0  0  0  0  0  0  0  0  0  0
   60.9070   34.1080   46.2980 N   0  0  0  0  0  0  0  0  0  0  0  0
   61.9300   33.4890   46.9120 C   0  0  0  0  0  0  0  0  0  0  0  0
   63.2830   33.7990   46.8500 C   0  0  0  0  0  0  0  0  0  0  0  0
   64.1560   33.0280   47.5680 N   0  0  0  0  0  0  0  0  0  0  0  0
   63.7260   31.9710   48.3330 C   0  0  0  0  0  0  0  0  0  0  0  0
   62.3580   31.6490   48.4030 C   0  0  0  0  0  0  0  0  0  0  0  0
   61.4850   32.4460   47.6640 C   0  0  0  0  0  0  0  0  0  0  0  0
   59.5097   28.1949   45.5994 H   0  0  0  0  0  0  0  0  0  0  0  0
   58.8712   29.4247   44.4563 H   0  0  0  0  0  0  0  0  0  0  0  0
   60.6217   29.0217   44.4563 H   0  0  0  0  0  0  0  0  0  0  0  0
   60.9849   30.0900   46.5503 H   0  0  0  0  0  0  0  0  0  0  0  0
   59.8777   31.2022   45.6003 H   0  0  0  0  0  0  0  0  0  0  0  0
   58.0952   29.0826   48.7372 H   0  0  0  0  0  0  0  0  0  0  0  0
   58.6198   28.2014   47.2403 H   0  0  0  0  0  0  0  0  0  0  0  0
   60.0587   28.6191   49.7429 H   0  0  0  0  0  0  0  0  0  0  0  0
   60.4566   27.5572   48.3498 H   0  0  0  0  0  0  0  0  0  0  0  0
   60.9843   29.2743   48.3498 H   0  0  0  0  0  0  0  0  0  0  0  0
   58.3114   31.8666   48.4390 H   0  0  0  0  0  0  0  0  0  0  0  0
   59.7463   30.9905   49.0844 H   0  0  0  0  0  0  0  0  0  0  0  0
   58.1340   34.3909   43.8624 H   0  0  0  0  0  0  0  0  0  0  0  0
   59.5306   33.3225   44.2843 H   0  0  0  0  0  0  0  0  0  0  0  0
   57.0814   31.6840   45.9332 H   0  0  0  0  0  0  0  0  0  0  0  0
   55.8481   29.0902   42.7006 H   0  0  0  0  0  0  0  0  0  0  0  0
   56.9674   30.5990   41.0571 H   0  0  0  0  0  0  0  0  0  0  0  0
   63.6424   34.6411   46.2404 H   0  0  0  0  0  0  0  0  0  0  0  0
   65.1760   33.2480   47.5330 H   0  0  0  0  0  0  0  0  0  0  0  0
   64.4570   31.3715   48.8954 H   0  0  0  0  0  0  0  0  0  0  0  0
   61.9946   30.8082   49.0120 H   0  0  0  0  0  0  0  0  0  0  0  0
  1  2  1  0
  2  3  1  0
  3  4  1  0
  4  5  1  0
  3  6  1  0
  6  7  1  0
  7  8  1  0
  8  9  1  0
  9 10  1  0
 10 11  1  0
 11 12  2  0
 12 13  1  0
 13 14  1  0
 13 15  2  0
 15 16  1  0
 16 17  2  0
 17 18  1  0
  8 19  2  0
 19 20  1  0
 20 21  2  0
 21 22  1  0
 22 23  2  0
 23 24  1  0
 24 25  2  0
 25  7  1  0
 17 11  1  0
 25 20  1  0
  1 26  1  0
  1 27  1  0
  1 28  1  0
  2 29  1  0
  2 30  1  0
  4 31  1  0
  4 32  1  0
  5 33  1  0
  5 34  1  0
  5 35  1  0
  6 36  1  0
  6 37  1  0
 10 38  1  0
 10 39  1  0
 12 40  1  0
 15 41  1  0
 16 42  1  0
 21 43  1  0
 22 44  1  0
 23 45  1  0
 24 46  1  0
M  CHG  1  22   1
M  END
>  <UniqueID>  (17) 
17

>  <SMILES>  (17) 
CCN(CC)Cn1c(SCc2cc(F)ccc2F)nc2c[nH+]ccc21

>  <Energy>  (17) 
79.44238302491542

>  <Genealogy>  (17) 
CCN(CC)Cn1c(SCc2cc(F)ccc2F)nc2c[nH+]ccc21 (protonated)
CCN(CC)Cn1c(SCc2cc(F)ccc2F)nc2c[nH+]ccc21 (3D coordinates assigned)
CCN(CC)Cn1c(SCc2cc(F)ccc2F)nc2c[nH+]ccc21 (optimized conformer: 79.44238302491542 kcal/mol)

>  <smiles>  (17) 
CCN(CC)Cn1c(SCc2cc(F)ccc2F)nc2cnccc21

>  <score_type>  (17) 
oracle

>  <origin>  (17) 
adg

>  <m_score__min__energy>  (17) 
-5.9100000000000001

>  <m_primary>  (17) 
energy

$$$$
17:0
     RDKit          3D

 68 71  0  0  0  0  0  0  0  0999 V2000
   60.8920   28.8940   44.8710 C   0  0  0  0  0  0  0  0  0  0  0  0
   59.9300   27.9850   45.6390 C   0  0  0  0  0  0  0  0  0  0  0  0
   58.6010   28.6240   45.7820 N   0  0  0  0  0  0  0  0  0  0  0  0
   58.4950   29.4920   46.9850 C   0  0  0  0  0  0  0  0  0  0  0  0
   59.3910   29.0770   48.1620 C   0  0  0  0  0  0  0  0  0  0  0  0
   58.1630   29.2720   44.5230 C   0  0  0  0  0  0  0  0  0  0  0  0
   56.7090   29.7650   44.6030 C   0  0  0  0  0  0  0  0  0  0  0  0
   56.6330   31.2210   44.4970 N   0  0  0  0  0  0  0  0  0  0  0  0
   57.7330   32.1390   44.4040 C   0  0  0  0  0  0  0  0  0  0  0  0
   57.9960   32.6430   43.2800 O   0  0  0  0  0  0  0  0  0  0  0  0
   58.6110   32.4850   45.5890 C   0  0  1  0  0  0  0  0  0  0  0  0
   59.5830   33.6480   45.2370 C   0  0  0  0  0  0  0  0  0  0  0  0
   59.2670   34.9450   45.9970 C   0  0  0  0  0  0  0  0  0  0  0  0
   59.2680   34.6950   47.5130 C   0  0  0  0  0  0  0  0  0  0  0  0
   58.5680   33.4450   47.8540 N   0  0  0  0  0  0  0  0  0  0  0  0
   58.9720   32.7070   49.0200 C   0  0  0  0  0  0  0  0  0  0  0  0
   58.0330   32.3480   49.9380 N   0  0  0  0  0  0  0  0  0  0  0  0
   58.3440   31.5750   51.0100 C   0  0  0  0  0  0  0  0  0  0  0  0
   57.3610   31.2100   51.9360 C   0  0  0  0  0  0  0  0  0  0  0  0
   57.6980   30.4000   53.0270 C   0  0  0  0  0  0  0  0  0  0  0  0
   59.0150   29.9540   53.1900 C   0  0  0  0  0  0  0  0  0  0  0  0
   60.0020   30.3170   52.2660 C   0  0  0  0  0  0  0  0  0  0  0  0
   59.6680   31.1260   51.1730 C   0  0  0  0  0  0  0  0  0  0  0  0
   60.6110   31.4930   50.2680 N   0  0  0  0  0  0  0  0  0  0  0  0
   60.3050   32.2780   49.1990 C   0  0  0  0  0  0  0  0  0  0  0  0
   61.3540   32.6860   48.3090 N   0  0  0  0  0  0  0  0  0  0  0  0
   61.7440   31.8180   47.1920 C   0  0  0  0  0  0  0  0  0  0  0  0
   63.2710   31.5910   47.1630 C   0  0  0  0  0  0  0  0  0  0  0  0
   64.0450   32.6530   47.8340 N   0  0  0  0  0  0  0  0  0  0  0  0
   63.3870   33.9600   47.7530 C   0  0  0  0  0  0  0  0  0  0  0  0
   62.1000   33.9210   48.5780 C   0  0  0  0  0  0  0  0  0  0  0  0
   57.7480   32.7880   46.8320 C   0  0  0  0  0  0  0  0  0  0  0  0
   61.5008   29.4693   45.5840 H   0  0  0  0  0  0  0  0  0  0  0  0
   61.5502   28.2803   44.2385 H   0  0  0  0  0  0  0  0  0  0  0  0
   60.3165   29.5859   44.2385 H   0  0  0  0  0  0  0  0  0  0  0  0
   59.8170   27.0367   45.0931 H   0  0  0  0  0  0  0  0  0  0  0  0
   60.3429   27.8033   46.6423 H   0  0  0  0  0  0  0  0  0  0  0  0
   58.7678   30.5167   46.6924 H   0  0  0  0  0  0  0  0  0  0  0  0
   57.4577   29.4026   47.3400 H   0  0  0  0  0  0  0  0  0  0  0  0
   58.8839   29.3119   49.1095 H   0  0  0  0  0  0  0  0  0  0  0  0
   59.5878   27.9960   48.1096 H   0  0  0  0  0  0  0  0  0  0  0  0
   60.3428   29.6260   48.1096 H   0  0  0  0  0  0  0  0  0  0  0  0
   58.8185   30.1316   44.3196 H   0  0  0  0  0  0  0  0  0  0  0  0
   58.2240   28.5249   43.7179 H   0  0  0  0  0  0  0  0  0  0  0  0
   56.1330   29.3157   43.7806 H   0  0  0  0  0  0  0  0  0  0  0  0
   56.2954   29.4667   45.5777 H   0  0  0  0  0  0  0  0  0  0  0  0
   59.2366   31.6146   45.8360 H   0  0  0  0  0  0  0  0  0  0  0  0
   60.6078   33.3361   45.4868 H   0  0  0  0  0  0  0  0  0  0  0  0
   59.4683   33.8593   44.1636 H   0  0  0  0  0  0  0  0  0  0  0  0
   60.0282   35.7012   45.7544 H   0  0  0  0  0  0  0  0  0  0  0  0
   58.2702   35.2996   45.6959 H   0  0  0  0  0  0  0  0  0  0  0  0
   60.3085   34.6292   47.8638 H   0  0  0  0  0  0  0  0  0  0  0  0
   58.7425   35.5292   48.0008 H   0  0  0  0  0  0  0  0  0  0  0  0
   56.3257   31.5586   51.8072 H   0  0  0  0  0  0  0  0  0  0  0  0
   56.9268   30.1136   53.7573 H   0  0  0  0  0  0  0  0  0  0  0  0
   59.2752   29.3159   54.0474 H   0  0  0  0  0  0  0  0  0  0  0  0
   61.0367   29.9678   52.3982 H   0  0  0  0  0  0  0  0  0  0  0  0
   61.2395   30.8465   47.3004 H   0  0  0  0  0  0  0  0  0  0  0  0
   61.4484   32.3080   46.2526 H   0  0  0  0  0  0  0  0  0  0  0  0
   63.4889   30.6353   47.6622 H   0  0  0  0  0  0  0  0  0  0  0  0
   63.5747   31.5933   46.1057 H   0  0  0  0  0  0  0  0  0  0  0  0
   64.9800   32.7250   47.3670 H   0  0  0  0  0  0  0  0  0  0  0  0
   64.0573   34.7358   48.1516 H   0  0  0  0  0  0  0  0  0  0  0  0
   63.1495   34.1924   46.7044 H   0  0  0  0  0  0  0  0  0  0  0  0
   62.3541   33.9648   49.6474 H   0  0  0  0  0  0  0  0  0  0  0  0
   61.4739   34.7821   48.3013 H   0  0  0  0  0  0  0  0  0  0  0  0
   57.3450   31.8474   47.2355 H   0  0  0  0  0  0  0  0  0  0  0  0
   56.9191   33.4527   46.5470 H   0  0  0  0  0  0  0  0  0  0  0  0
  1  2  1  0
  2  3  1  0
  3  4  1  0
  4  5  1  0
  3  6  1  0
  6  7  1  0
  7  8  1  0
  8  9  1  0
  9 10  2  0
  9 11  1  0
 11 12  1  0
 12 13  1  0
 13 14  1  0
 14 15  1  0
 15 16  1  0
 16 17  2  0
 17 18  1  0
 18 19  2  0
 19 20  1  0
 20 21  2  0
 21 22  1  0
 22 23  2  0
 23 24  1  0
 24 25  2  0
 25 26  1  0
 26 27  1  0
 27 28  1  0
 28 29  1  0
 29 30  1  0
 30 31  1  0
 15 32  1  0
 32 11  1  0
 25 16  1  0
 31 26  1  0
 23 18  1  0
  1 33  1  0
  1 34  1  0
  1 35  1  0
  2 36  1  0
  2 37  1  0
  4 38  1  0
  4 39  1  0
  5 40  1  0
  5 41  1  0
  5 42  1  0
  6 43  1  0
  6 44  1  0
  7 45  1  0
  7 46  1  0
 11 47  1  1
 12 48  1  0
 12 49  1  0
 13 50  1  0
 13 51  1  0
 14 52  1  0
 14 53  1  0
 19 54  1  0
 20 55  1  0
 21 56  1  0
 22 57  1  0
 27 58  1  0
 27 59  1  0
 28 60  1  0
 28 61  1  0
 29 62  1  0
 30 63  1  0
 30 64  1  0
 31 65  1  0
 31 66  1  0
 32 67  1  0
 32 68  1  0
M  CHG  1   8  -1
M  END
>  <UniqueID>  (18) 
18

>  <SMILES>  (18) 
CCN(CC)CC[N-]C(=O)[C@H]1CCCN(c2nc3ccccc3nc2N2CCNCC2)C1

>  <Energy>  (18) 
88.06859569997046

>  <Genealogy>  (18) 
CCN(CC)CC[N-]C(=O)C1CCCN(c2nc3ccccc3nc2N2CCNCC2)C1 (protonated)
CCN(CC)CC[N-]C(=O)[C@H]1CCCN(c2nc3ccccc3nc2N2CCNCC2)C1 (chirality)
CCN(CC)CC[N-]C(=O)[C@H]1CCCN(c2nc3ccccc3nc2N2CCNCC2)C1 (3D coordinates assigned)
CCN(CC)CC[N-]C(=O)[C@H]1CCCN(c2nc3ccccc3nc2N2CCNCC2)C1 (nonaromatic ring conformer: 88.06859569997046 kcal/mol)

>  <smiles>  (18) 
CCN(CC)CCNC(=O)C1CCCN(c2nc3ccccc3nc2N2CCNCC2)C1

>  <score_type>  (18) 
oracle

>  <origin>  (18) 
adg

>  <m_score__min__energy>  (18) 
-10.17

>  <m_primary>  (18) 
energy

$$$$
18:0
     RDKit          3D

 56 59  0  0  0  0  0  0  0  0999 V2000
   64.8690   31.4540   50.9340 C   0  0  0  0  0  0  0  0  0  0  0  0
   65.6190   32.5100   50.1310 C   0  0  0  0  0  0  0  0  0  0  0  0
   64.6720   33.4770   49.5590 N   0  0  0  0  0  0  0  0  0  0  0  0
   64.1480   33.0200   48.2610 C   0  0  0  0  0  0  0  0  0  0  0  0
   62.9210   33.8350   47.8500 C   0  0  0  0  0  0  0  0  0  0  0  0
   62.2410   34.3550   49.0490 N   0  0  0  0  0  0  0  0  0  0  0  0
   61.6150   33.2850   49.8380 C   0  0  0  0  0  0  0  0  0  0  0  0
   60.6930   32.4790   48.9620 C   0  0  0  0  0  0  0  0  0  0  0  0
   59.4140   32.9680   48.6600 C   0  0  0  0  0  0  0  0  0  0  0  0
   58.5770   32.2680   47.7870 C   0  0  0  0  0  0  0  0  0  0  0  0
   59.0100   31.0720   47.1890 C   0  0  0  0  0  0  0  0  0  0  0  0
   58.1480   30.3620   46.2070 C   0  0  0  0  0  0  0  0  0  0  0  0
   57.5670   31.0610   45.1340 C   0  0  0  0  0  0  0  0  0  0  0  0
   56.7480   30.3990   44.2180 C   0  0  0  0  0  0  0  0  0  0  0  0
   56.4900   29.0350   44.3640 C   0  0  0  0  0  0  0  0  0  0  0  0
   57.0500   28.3160   45.4330 C   0  0  0  0  0  0  0  0  0  0  0  0
   56.7590   26.8730   45.6020 C   0  0  0  0  0  0  0  0  0  0  0  0
   57.6940   25.9030   45.4190 N   0  0  0  0  0  0  0  0  0  0  0  0
   57.0150   24.7780   45.6920 C   0  0  0  0  0  0  0  0  0  0  0  0
   57.4870   23.4620   45.6710 C   0  0  0  0  0  0  0  0  0  0  0  0
   58.9150   23.1530   45.3340 C   0  0  0  0  0  0  0  0  0  0  0  0
   56.5750   22.4420   46.0260 C   0  0  0  0  0  0  0  0  0  0  0  0
   55.2410   22.7610   46.3680 C   0  0  0  0  0  0  0  0  0  0  0  0
   54.8060   24.0980   46.3690 C   0  0  0  0  0  0  0  0  0  0  0  0
   55.7310   25.0800   46.0240 C   0  0  0  0  0  0  0  0  0  0  0  0
   55.5380   26.4060   45.9780 N   0  0  0  0  0  0  0  0  0  0  0  0
   57.8840   28.9860   46.3470 C   0  0  0  0  0  0  0  0  0  0  0  0
   60.2880   30.5790   47.5050 C   0  0  0  0  0  0  0  0  0  0  0  0
   61.1210   31.2770   48.3850 C   0  0  0  0  0  0  0  0  0  0  0  0
   65.0050   31.6455   52.0086 H   0  0  0  0  0  0  0  0  0  0  0  0
   63.7981   31.4972   50.6865 H   0  0  0  0  0  0  0  0  0  0  0  0
   65.2626   30.4571   50.6865 H   0  0  0  0  0  0  0  0  0  0  0  0
   66.3229   33.0374   50.7916 H   0  0  0  0  0  0  0  0  0  0  0  0
   66.1684   32.0183   49.3146 H   0  0  0  0  0  0  0  0  0  0  0  0
   63.8610   33.5510   50.2160 H   0  0  0  0  0  0  0  0  0  0  0  0
   64.9300   33.1358   47.4961 H   0  0  0  0  0  0  0  0  0  0  0  0
   63.8537   31.9641   48.3530 H   0  0  0  0  0  0  0  0  0  0  0  0
   63.2374   34.6765   47.2162 H   0  0  0  0  0  0  0  0  0  0  0  0
   62.2275   33.1894   47.2912 H   0  0  0  0  0  0  0  0  0  0  0  0
   62.9560   34.8310   49.6500 H   0  0  0  0  0  0  0  0  0  0  0  0
   62.3965   32.6282   50.2477 H   0  0  0  0  0  0  0  0  0  0  0  0
   61.0370   33.7308   50.6610 H   0  0  0  0  0  0  0  0  0  0  0  0
   59.0674   33.9085   49.1131 H   0  0  0  0  0  0  0  0  0  0  0  0
   57.5717   32.6559   47.5661 H   0  0  0  0  0  0  0  0  0  0  0  0
   57.7594   32.1376   45.0157 H   0  0  0  0  0  0  0  0  0  0  0  0
   56.3044   30.9540   43.3783 H   0  0  0  0  0  0  0  0  0  0  0  0
   55.8442   28.5200   43.6375 H   0  0  0  0  0  0  0  0  0  0  0  0
   59.4920   23.0281   46.2621 H   0  0  0  0  0  0  0  0  0  0  0  0
   58.9603   22.2243   44.7463 H   0  0  0  0  0  0  0  0  0  0  0  0
   59.3402   23.9799   44.7463 H   0  0  0  0  0  0  0  0  0  0  0  0
   56.9056   21.3929   46.0362 H   0  0  0  0  0  0  0  0  0  0  0  0
   54.5385   21.9578   46.6352 H   0  0  0  0  0  0  0  0  0  0  0  0
   53.7707   24.3593   46.6332 H   0  0  0  0  0  0  0  0  0  0  0  0
   58.3351   28.4282   47.1809 H   0  0  0  0  0  0  0  0  0  0  0  0
   60.6355   29.6366   47.0565 H   0  0  0  0  0  0  0  0  0  0  0  0
   62.1181   30.8796   48.6253 H   0  0  0  0  0  0  0  0  0  0  0  0
  1  2  1  0
  2  3  1  0
  3  4  1  0
  4  5  1  0
  5  6  1  0
  6  7  1  0
  7  8  1  0
  8  9  2  0
  9 10  1  0
 10 11  2  0
 11 12  1  0
 12 13  2  0
 13 14  1  0
 14 15  2  0
 15 16  1  0
 16 17  1  0
 17 18  2  0
 18 19  1  0
 19 20  2  0
 20 21  1  0
 20 22  1  0
 22 23  2  0
 23 24  1  0
 24 25  2  0
 25 26  1  0
 16 27  2  0
 11 28  1  0
 28 29  2  0
 29  8  1  0
 27 12  1  0
 26 17  1  0
 25 19  1  0
  1 30  1  0
  1 31  1  0
  1 32  1  0
  2 33  1  0
  2 34  1  0
  3 35  1  0
  4 36  1  0
  4 37  1  0
  5 38  1  0
  5 39  1  0
  6 40  1  0
  7 41  1  0
  7 42  1  0
  9 43  1  0
 10 44  1  0
 13 45  1  0
 14 46  1  0
 15 47  1  0
 21 48  1  0
 21 49  1  0
 21 50  1  0
 22 51  1  0
 23 52  1  0
 24 53  1  0
 27 54  1  0
 28 55  1  0
 29 56  1  0
M  CHG  1  26  -1
M  END
>  <UniqueID>  (19) 
19

>  <SMILES>  (19) 
CCNCCNCc1ccc(-c2cccc(-c3nc4c(C)cccc4[n-]3)c2)cc1

>  <Energy>  (19) 
91.3293096144057

>  <Genealogy>  (19) 
CCNCCNCc1ccc(-c2cccc(-c3nc4c(C)cccc4[n-]3)c2)cc1 (protonated)
CCNCCNCc1ccc(-c2cccc(-c3nc4c(C)cccc4[n-]3)c2)cc1 (3D coordinates assigned)
CCNCCNCc1ccc(-c2cccc(-c3nc4c(C)cccc4[n-]3)c2)cc1 (optimized conformer: 91.3293096144057 kcal/mol)

>  <smiles>  (19) 
CCNCCNCc1ccc(-c2cccc(-c3nc4c(C)cccc4[nH]3)c2)cc1

>  <score_type>  (19) 
oracle

>  <origin>  (19) 
adg

>  <m_score__min__energy>  (19) 
-9.4900000000000002

>  <m_primary>  (19) 
energy

$$$$
19:0
     RDKit          3D

 78 80  0  0  0  0  0  0  0  0999 V2000
   58.1050   32.3650   41.5110 C   0  0  0  0  0  0  0  0  0  0  0  0
   57.4160   31.4890   42.5620 C   0  0  0  0  0  0  0  0  0  0  0  0
   57.7180   31.9240   43.9430 N   0  0  0  0  0  0  0  0  0  0  0  0
   57.8980   33.2660   44.1210 C   0  0  0  0  0  0  0  0  0  0  0  0
   58.5500   33.7590   45.2360 C   0  0  0  0  0  0  0  0  0  0  0  0
   59.1100   32.8870   46.1670 C   0  0  0  0  0  0  0  0  0  0  0  0
   59.8710   33.4680   47.2440 N   0  0  0  0  0  0  0  0  0  0  0  0
   59.1320   33.7860   48.4720 C   0  0  0  0  0  0  0  0  0  0  0  0
   61.0360   34.2880   46.8570 C   0  0  0  0  0  0  0  0  0  0  0  0
   62.2550   33.4710   46.3830 C   0  0  0  0  0  0  0  0  0  0  0  0
   62.9040   32.7680   47.5100 N   0  0  0  0  0  0  0  0  0  0  0  0
   64.1040   33.4940   47.9550 C   0  0  0  0  0  0  0  0  0  0  0  0
   63.2800   31.3940   47.1300 C   0  0  0  0  0  0  0  0  0  0  0  0
   58.9070   31.4850   46.0150 C   0  0  0  0  0  0  0  0  0  0  0  0
   59.4790   30.5140   46.8780 C   0  0  0  0  0  0  0  0  0  0  0  0
   60.2580   30.9080   48.0190 N   0  0  0  0  0  0  0  0  0  0  0  0
   59.9490   30.5950   49.4220 C   0  0  0  0  0  0  0  0  0  0  0  0
   60.8530   31.2900   50.4590 C   0  0  0  0  0  0  0  0  0  0  0  0
   62.2790   30.7100   50.4980 C   0  0  0  0  0  0  0  0  0  0  0  0
   63.3170   31.7780   50.5090 N   0  0  0  0  0  0  0  0  0  0  0  0
   64.6330   31.2200   50.9240 C   0  0  0  0  0  0  0  0  0  0  0  0
   65.8080   32.0980   50.4790 C   0  0  0  0  0  0  0  0  0  0  0  0
   62.9150   32.8800   51.4260 C   0  0  0  0  0  0  0  0  0  0  0  0
   62.6030   34.1760   50.6700 C   0  0  0  0  0  0  0  0  0  0  0  0
   59.3420   29.1490   46.5610 C   0  0  0  0  0  0  0  0  0  0  0  0
   60.1110   28.1610   47.2120 C   0  0  0  0  0  0  0  0  0  0  0  0
   59.9070   26.8090   46.9440 C   0  0  0  0  0  0  0  0  0  0  0  0
   58.9410   26.4180   46.0190 C   0  0  0  0  0  0  0  0  0  0  0  0
   58.6880   24.7150   45.6840 Cl  0  0  0  0  0  0  0  0  0  0  0  0
   58.1890   27.3820   45.3460 C   0  0  0  0  0  0  0  0  0  0  0  0
   58.3860   28.7610   45.5960 C   0  0  0  0  0  0  0  0  0  0  0  0
   57.6570   29.7190   44.9340 N   0  0  0  0  0  0  0  0  0  0  0  0
   56.3050   29.3730   44.4580 C   0  0  0  0  0  0  0  0  0  0  0  0
   58.0820   31.0340   44.9410 C   0  0  0  0  0  0  0  0  0  0  0  0
   58.7098   33.1339   42.0140 H   0  0  0  0  0  0  0  0  0  0  0  0
   58.7559   31.7398   40.8822 H   0  0  0  0  0  0  0  0  0  0  0  0
   57.3440   32.8503   40.8822 H   0  0  0  0  0  0  0  0  0  0  0  0
   56.3283   31.5388   42.4056 H   0  0  0  0  0  0  0  0  0  0  0  0
   57.7932   30.4625   42.4432 H   0  0  0  0  0  0  0  0  0  0  0  0
   57.5174   33.9672   43.3637 H   0  0  0  0  0  0  0  0  0  0  0  0
   58.6270   34.8456   45.3888 H   0  0  0  0  0  0  0  0  0  0  0  0
   59.7443   33.5225   49.3470 H   0  0  0  0  0  0  0  0  0  0  0  0
   58.9040   34.8619   48.4945 H   0  0  0  0  0  0  0  0  0  0  0  0
   58.1940   33.2119   48.4945 H   0  0  0  0  0  0  0  0  0  0  0  0
   60.7303   34.9573   46.0393 H   0  0  0  0  0  0  0  0  0  0  0  0
   61.3522   34.8331   47.7586 H   0  0  0  0  0  0  0  0  0  0  0  0
   61.9225   32.7290   45.6421 H   0  0  0  0  0  0  0  0  0  0  0  0
   62.9855   34.1641   45.9403 H   0  0  0  0  0  0  0  0  0  0  0  0
   64.1347   33.5126   49.0544 H   0  0  0  0  0  0  0  0  0  0  0  0
   65.0021   32.9876   47.5716 H   0  0  0  0  0  0  0  0  0  0  0  0
   64.0723   34.5245   47.5716 H   0  0  0  0  0  0  0  0  0  0  0  0
   63.4441   30.7945   48.0375 H   0  0  0  0  0  0  0  0  0  0  0  0
   62.4719   30.9441   46.5345 H   0  0  0  0  0  0  0  0  0  0  0  0
   64.2045   31.4183   46.5345 H   0  0  0  0  0  0  0  0  0  0  0  0
   61.2300   31.2230   47.8140 H   0  0  0  0  0  0  0  0  0  0  0  0
   58.9097   30.8974   49.6182 H   0  0  0  0  0  0  0  0  0  0  0  0
   60.1194   29.5148   49.5406 H   0  0  0  0  0  0  0  0  0  0  0  0
   60.9161   32.3593   50.2086 H   0  0  0  0  0  0  0  0  0  0  0  0
   60.4038   31.1264   51.4497 H   0  0  0  0  0  0  0  0  0  0  0  0
   62.3889   30.0990   51.4061 H   0  0  0  0  0  0  0  0  0  0  0  0
   62.4241   30.1053   49.5907 H   0  0  0  0  0  0  0  0  0  0  0  0
   63.4130   32.1660   49.5400 H   0  0  0  0  0  0  0  0  0  0  0  0
   64.6507   31.1358   52.0206 H   0  0  0  0  0  0  0  0  0  0  0  0
   64.7474   30.2380   50.4417 H   0  0  0  0  0  0  0  0  0  0  0  0
   66.3303   32.4882   51.3650 H   0  0  0  0  0  0  0  0  0  0  0  0
   66.5061   31.4984   49.8763 H   0  0  0  0  0  0  0  0  0  0  0  0
   65.4309   32.9374   49.8763 H   0  0  0  0  0  0  0  0  0  0  0  0
   62.0181   32.5692   51.9818 H   0  0  0  0  0  0  0  0  0  0  0  0
   63.7572   33.0790   52.1051 H   0  0  0  0  0  0  0  0  0  0  0  0
   62.4086   34.9835   51.3912 H   0  0  0  0  0  0  0  0  0  0  0  0
   63.4614   34.4476   50.0381 H   0  0  0  0  0  0  0  0  0  0  0  0
   61.7150   34.0272   50.0381 H   0  0  0  0  0  0  0  0  0  0  0  0
   60.8799   28.4615   47.9390 H   0  0  0  0  0  0  0  0  0  0  0  0
   60.5094   26.0492   47.4634 H   0  0  0  0  0  0  0  0  0  0  0  0
   57.4334   27.0659   44.6117 H   0  0  0  0  0  0  0  0  0  0  0  0
   55.6445   29.2040   45.3212 H   0  0  0  0  0  0  0  0  0  0  0  0
   55.9083   30.1986   43.8488 H   0  0  0  0  0  0  0  0  0  0  0  0
   56.3536   28.4584   43.8488 H   0  0  0  0  0  0  0  0  0  0  0  0
  1  2  1  0
  2  3  1  0
  3  4  2  0
  4  5  1  0
  5  6  2  0
  6  7  1  0
  7  8  1  0
  7  9  1  0
  9 10  1  0
 10 11  1  0
 11 12  1  0
 11 13  1  0
  6 14  1  0
 14 15  2  0
 15 16  1  0
 16 17  1  0
 17 18  1  0
 18 19  1  0
 19 20  1  0
 20 21  1  0
 21 22  1  0
 20 23  1  0
 23 24  1  0
 15 25  1  0
 25 26  2  0
 26 27  1  0
 27 28  2  0
 28 29  1  0
 28 30  1  0
 30 31  2  0
 31 32  1  0
 32 33  1  0
 32 34  2  0
 34  3  1  0
 34 14  1  0
 31 25  1  0
  1 35  1  0
  1 36  1  0
  1 37  1  0
  2 38  1  0
  2 39  1  0
  4 40  1  0
  5 41  1  0
  8 42  1  0
  8 43  1  0
  8 44  1  0
  9 45  1  0
  9 46  1  0
 10 47  1  0
 10 48  1  0
 12 49  1  0
 12 50  1  0
 12 51  1  0
 13 52  1  0
 13 53  1  0
 13 54  1  0
 16 55  1  0
 17 56  1  0
 17 57  1  0
 18 58  1  0
 18 59  1  0
 19 60  1  0
 19 61  1  0
 20 62  1  0
 21 63  1  0
 21 64  1  0
 22 65  1  0
 22 66  1  0
 22 67  1  0
 23 68  1  0
 23 69  1  0
 24 70  1  0
 24 71  1  0
 24 72  1  0
 26 73  1  0
 27 74  1  0
 30 75  1  0
 33 76  1  0
 33 77  1  0
 33 78  1  0
M  CHG  3   3   1  20   1  32   1
M  END
>  <UniqueID>  (20) 
20

>  <SMILES>  (20) 
CC[n+]1ccc(N(C)CCN(C)C)c2c(NCCC[NH+](CC)CC)c3ccc(Cl)cc3[n+](C)c21

>  <Energy>  (20) 
125.73128447713503

>  <Genealogy>  (20) 
CC[n+]1ccc(N(C)CCN(C)C)c2c(NCCC[NH+](CC)CC)c3ccc(Cl)cc3[n+](C)c21 (protonated)
CC[n+]1ccc(N(C)CCN(C)C)c2c(NCCC[NH+](CC)CC)c3ccc(Cl)cc3[n+](C)c21 (3D coordinates assigned)
CC[n+]1ccc(N(C)CCN(C)C)c2c(NCCC[NH+](CC)CC)c3ccc(Cl)cc3[n+](C)c21 (optimized conformer: 125.73128447713503 kcal/mol)

>  <smiles>  (20) 
CCN(CC)CCCNc1c2ccc(Cl)cc2[n+](C)c2c1c(N(C)CCN(C)C)cc[n+]2CC

>  <score_type>  (20) 
oracle

>  <origin>  (20) 
adg

>  <m_score__min__energy>  (20) 
-3.6099999999999999

>  <m_primary>  (20) 
energy

$$$$
20:0
     RDKit          3D

 42 44  0  0  0  0  0  0  0  0999 V2000
   56.9010   26.3860   46.2950 C   0  0  0  0  0  0  0  0  0  0  0  0
   57.3450   27.8050   45.9460 C   0  0  0  0  0  0  0  0  0  0  0  0
   57.1600   28.0910   44.5070 N   0  0  0  0  0  0  0  0  0  0  0  0
   58.3970   27.8290   43.7400 C   0  0  0  0  0  0  0  0  0  0  0  0
   58.1360   26.7620   42.6820 C   0  0  0  0  0  0  0  0  0  0  0  0
   56.6070   29.7390   44.2410 S   0  0  0  0  0  0  0  0  0  0  0  0
   55.2420   29.9110   44.8480 O   0  0  0  0  0  0  0  0  0  0  0  0
   56.4810   30.0080   42.7670 O   0  0  0  0  0  0  0  0  0  0  0  0
   57.7090   30.9340   44.9330 C   0  0  0  0  0  0  0  0  0  0  0  0
   57.6260   32.2950   44.5400 C   0  0  0  0  0  0  0  0  0  0  0  0
   58.4940   33.2560   45.0920 C   0  0  0  0  0  0  0  0  0  0  0  0
   59.4280   32.8190   46.0240 C   0  0  0  0  0  0  0  0  0  0  0  0
   60.3320   33.5110   46.6690 O   0  0  0  0  0  0  0  0  0  0  0  0
   60.9790   32.6470   47.4400 C   0  0  0  0  0  0  0  0  0  0  0  0
   62.0910   33.0410   48.3370 C   0  0  0  0  0  0  0  0  0  0  0  0
   63.4270   32.7030   48.0470 C   0  0  0  0  0  0  0  0  0  0  0  0
   64.4570   33.0890   48.9130 C   0  0  0  0  0  0  0  0  0  0  0  0
   64.1670   33.8110   50.0730 C   0  0  0  0  0  0  0  0  0  0  0  0
   62.8450   34.1510   50.3690 C   0  0  0  0  0  0  0  0  0  0  0  0
   61.8120   33.7690   49.5090 C   0  0  0  0  0  0  0  0  0  0  0  0
   60.5010   31.3810   47.3020 N   0  0  0  0  0  0  0  0  0  0  0  0
   59.5180   31.5140   46.4000 C   0  0  0  0  0  0  0  0  0  0  0  0
   58.6790   30.5330   45.8780 C   0  0  0  0  0  0  0  0  0  0  0  0
   56.8652   26.2715   47.3884 H   0  0  0  0  0  0  0  0  0  0  0  0
   55.9019   26.2004   45.8740 H   0  0  0  0  0  0  0  0  0  0  0  0
   57.6162   25.6640   45.8740 H   0  0  0  0  0  0  0  0  0  0  0  0
   56.7496   28.5204   46.5323 H   0  0  0  0  0  0  0  0  0  0  0  0
   58.4150   27.9004   46.1826 H   0  0  0  0  0  0  0  0  0  0  0  0
   58.7250   28.7570   43.2489 H   0  0  0  0  0  0  0  0  0  0  0  0
   59.1802   27.4744   44.4262 H   0  0  0  0  0  0  0  0  0  0  0  0
   57.9023   25.8066   43.1746 H   0  0  0  0  0  0  0  0  0  0  0  0
   57.2863   27.0683   42.0542 H   0  0  0  0  0  0  0  0  0  0  0  0
   59.0311   26.6415   42.0542 H   0  0  0  0  0  0  0  0  0  0  0  0
   56.8758   32.6022   43.7965 H   0  0  0  0  0  0  0  0  0  0  0  0
   58.4353   34.3140   44.7966 H   0  0  0  0  0  0  0  0  0  0  0  0
   63.6623   32.1332   47.1360 H   0  0  0  0  0  0  0  0  0  0  0  0
   65.4984   32.8228   48.6791 H   0  0  0  0  0  0  0  0  0  0  0  0
   64.9784   34.1113   50.7523 H   0  0  0  0  0  0  0  0  0  0  0  0
   62.6164   34.7210   51.2816 H   0  0  0  0  0  0  0  0  0  0  0  0
   60.7732   34.0392   49.7496 H   0  0  0  0  0  0  0  0  0  0  0  0
   60.8060   30.5010   47.7720 H   0  0  0  0  0  0  0  0  0  0  0  0
   58.7686   29.4822   46.1908 H   0  0  0  0  0  0  0  0  0  0  0  0
  1  2  1  0
  2  3  1  0
  3  4  1  0
  4  5  1  0
  3  6  1  0
  6  7  2  0
  6  8  2  0
  6  9  1  0
  9 10  2  0
 10 11  1  0
 11 12  2  0
 12 13  1  0
 13 14  1  0
 14 15  1  0
 15 16  2  0
 16 17  1  0
 17 18  2  0
 18 19  1  0
 19 20  2  0
 14 21  2  0
 21 22  1  0
 22 23  2  0
 23  9  1  0
 22 12  1  0
 20 15  1  0
  1 24  1  0
  1 25  1  0
  1 26  1  0
  2 27  1  0
  2 28  1  0
  4 29  1  0
  4 30  1  0
  5 31  1  0
  5 32  1  0
  5 33  1  0
 10 34  1  0
 11 35  1  0
 16 36  1  0
 17 37  1  0
 18 38  1  0
 19 39  1  0
 20 40  1  0
 21 41  1  0
 23 42  1  0
M  CHG  1  21   1
M  END
>  <UniqueID>  (21) 
21

>  <SMILES>  (21) 
CCN(CC)S(=O)(=O)c1ccc2oc(-c3ccccc3)[nH+]c2c1

>  <Energy>  (21) 
82.61945125079276

>  <Genealogy>  (21) 
CCN(CC)S(=O)(=O)c1ccc2oc(-c3ccccc3)[nH+]c2c1 (protonated)
CCN(CC)S(=O)(=O)c1ccc2oc(-c3ccccc3)[nH+]c2c1 (3D coordinates assigned)
CCN(CC)S(=O)(=O)c1ccc2oc(-c3ccccc3)[nH+]c2c1 (optimized conformer: 82.61945125079276 kcal/mol)

>  <smiles>  (21) 
CCN(CC)S(=O)(=O)c1ccc2oc(-c3ccccc3)nc2c1

>  <score_type>  (21) 
oracle

>  <origin>  (21) 
adg

>  <m_score__min__energy>  (21) 
-6.2999999999999998

>  <m_primary>  (21) 
energy

$$$$
21:0
     RDKit          3D

 46 48  0  0  0  0  0  0  0  0999 V2000
   57.4470   31.9680   41.6280 C   0  0  0  0  0  0  0  0  0  0  0  0
   56.9950   31.1880   42.7740 N   0  0  0  0  0  0  0  0  0  0  0  0
   56.2430   30.1040   42.7240 N   0  0  0  0  0  0  0  0  0  0  0  0
   56.0430   29.6460   43.9490 N   0  0  0  0  0  0  0  0  0  0  0  0
   56.6710   30.4270   44.8210 N   0  0  0  0  0  0  0  0  0  0  0  0
   57.2660   31.3810   44.0760 C   0  0  0  0  0  0  0  0  0  0  0  0
   58.2490   32.7250   44.7450 S   0  0  0  0  0  0  0  0  0  0  0  0
   58.1420   32.1580   46.4830 C   0  0  0  0  0  0  0  0  0  0  0  0
   59.0100   30.9140   46.7410 C   0  0  0  0  0  0  0  0  0  0  0  0
   59.5790   30.3410   45.5070 N   0  0  0  0  0  0  0  0  0  0  0  0
   60.3600   29.1210   45.7540 C   0  0  0  0  0  0  0  0  0  0  0  0
   59.5500   27.8990   45.4130 C   0  0  0  0  0  0  0  0  0  0  0  0
   59.4720   26.8330   46.3210 C   0  0  0  0  0  0  0  0  0  0  0  0
   58.7100   25.7010   46.0180 C   0  0  0  0  0  0  0  0  0  0  0  0
   58.0200   25.6160   44.7970 C   0  0  0  0  0  0  0  0  0  0  0  0
   57.2310   24.4530   44.4780 N   0  0  0  0  0  0  0  0  0  0  0  0
   55.7940   24.4340   44.7630 C   0  0  0  0  0  0  0  0  0  0  0  0
   55.0890   23.4830   43.7890 C   0  0  0  0  0  0  0  0  0  0  0  0
   55.7050   22.2090   43.7960 O   0  0  0  0  0  0  0  0  0  0  0  0
   57.0260   22.3120   43.3000 C   0  0  0  0  0  0  0  0  0  0  0  0
   57.8920   23.1690   44.2290 C   0  0  0  0  0  0  0  0  0  0  0  0
   58.0950   26.6870   43.8920 C   0  0  0  0  0  0  0  0  0  0  0  0
   58.8530   27.8200   44.1980 C   0  0  0  0  0  0  0  0  0  0  0  0
   57.9693   32.8694   41.9810 H   0  0  0  0  0  0  0  0  0  0  0  0
   58.1334   31.3612   41.0192 H   0  0  0  0  0  0  0  0  0  0  0  0
   56.5792   32.2618   41.0192 H   0  0  0  0  0  0  0  0  0  0  0  0
   55.8610   29.6690   41.8550 H   0  0  0  0  0  0  0  0  0  0  0  0
   58.4815   32.9703   47.1425 H   0  0  0  0  0  0  0  0  0  0  0  0
   57.0952   31.8887   46.6874 H   0  0  0  0  0  0  0  0  0  0  0  0
   59.8365   31.1961   47.4098 H   0  0  0  0  0  0  0  0  0  0  0  0
   58.3609   30.1479   47.1901 H   0  0  0  0  0  0  0  0  0  0  0  0
   58.8170   30.1220   44.8250 H   0  0  0  0  0  0  0  0  0  0  0  0
   61.2669   29.1395   45.1318 H   0  0  0  0  0  0  0  0  0  0  0  0
   60.6319   29.0820   46.8191 H   0  0  0  0  0  0  0  0  0  0  0  0
   60.0135   26.8880   47.2769 H   0  0  0  0  0  0  0  0  0  0  0  0
   58.6502   24.8725   46.7391 H   0  0  0  0  0  0  0  0  0  0  0  0
   55.6299   24.0892   45.7946 H   0  0  0  0  0  0  0  0  0  0  0  0
   55.3846   25.4480   44.6441 H   0  0  0  0  0  0  0  0  0  0  0  0
   54.0359   23.3760   44.0882 H   0  0  0  0  0  0  0  0  0  0  0  0
   55.1582   23.9025   42.7745 H   0  0  0  0  0  0  0  0  0  0  0  0
   57.4631   21.3052   43.2269 H   0  0  0  0  0  0  0  0  0  0  0  0
   56.9939   22.7890   42.3093 H   0  0  0  0  0  0  0  0  0  0  0  0
   58.0367   22.6414   45.1833 H   0  0  0  0  0  0  0  0  0  0  0  0
   58.8676   23.3485   43.7536 H   0  0  0  0  0  0  0  0  0  0  0  0
   57.5535   26.6336   42.9360 H   0  0  0  0  0  0  0  0  0  0  0  0
   58.9036   28.6542   43.4828 H   0  0  0  0  0  0  0  0  0  0  0  0
  1  2  1  0
  2  3  1  0
  3  4  2  0
  4  5  1  0
  5  6  2  0
  6  7  1  0
  7  8  1  0
  8  9  1  0
  9 10  1  0
 10 11  1  0
 11 12  1  0
 12 13  2  0
 13 14  1  0
 14 15  2  0
 15 16  1  0
 16 17  1  0
 17 18  1  0
 18 19  1  0
 19 20  1  0
 20 21  1  0
 15 22  1  0
 22 23  2  0
  6  2  1  0
 23 12  1  0
 21 16  1  0
  1 24  1  0
  1 25  1  0
  1 26  1  0
  3 27  1  0
  8 28  1  0
  8 29  1  0
  9 30  1  0
  9 31  1  0
 10 32  1  0
 11 33  1  0
 11 34  1  0
 13 35  1  0
 14 36  1  0
 17 37  1  0
 17 38  1  0
 18 39  1  0
 18 40  1  0
 20 41  1  0
 20 42  1  0
 21 43  1  0
 21 44  1  0
 22 45  1  0
 23 46  1  0
M  CHG  1   3   1
M  END
>  <UniqueID>  (22) 
22

>  <SMILES>  (22) 
Cn1[nH+]nnc1SCCNCc1ccc(N2CCOCC2)cc1

>  <Energy>  (22) 
88.57645718076071

>  <Genealogy>  (22) 
Cn1[nH+]nnc1SCCNCc1ccc(N2CCOCC2)cc1 (protonated)
Cn1[nH+]nnc1SCCNCc1ccc(N2CCOCC2)cc1 (3D coordinates assigned)
Cn1[nH+]nnc1SCCNCc1ccc(N2CCOCC2)cc1 (nonaromatic ring conformer: 88.57645718076071 kcal/mol)

>  <smiles>  (22) 
Cn1nnnc1SCCNCc1ccc(N2CCOCC2)cc1

>  <score_type>  (22) 
oracle

>  <origin>  (22) 
adg

>  <m_score__min__energy>  (22) 
-7.4400000000000004

>  <m_primary>  (22) 
energy

$$$$
22:0
     RDKit          3D

108111  0  0  0  0  0  0  0  0999 V2000
   59.0200   29.3810   53.1210 C   0  0  0  0  0  0  0  0  0  0  0  0
   57.5130   29.2710   52.9120 C   0  0  0  0  0  0  0  0  0  0  0  0
   57.1160   29.9380   51.6500 N   0  0  0  0  0  0  0  0  0  0  0  0
   56.3170   31.1550   51.9200 C   0  0  0  0  0  0  0  0  0  0  0  0
   54.8310   30.8070   51.9890 C   0  0  0  0  0  0  0  0  0  0  0  0
   58.3020   30.2500   50.8160 C   0  0  0  0  0  0  0  0  0  0  0  0
   58.1580   31.6430   50.1970 C   0  0  0  0  0  0  0  0  0  0  0  0
   59.4020   32.3200   50.2180 O   0  0  0  0  0  0  0  0  0  0  0  0
   59.4760   33.2310   51.2980 C   0  0  0  0  0  0  0  0  0  0  0  0
   60.9240   33.6770   51.5170 C   0  0  0  0  0  0  0  0  0  0  0  0
   61.8140   32.8100   50.8410 O   0  0  0  0  0  0  0  0  0  0  0  0
   62.0000   31.5940   51.5450 C   0  0  0  0  0  0  0  0  0  0  0  0
   63.1690   31.7320   52.5200 C   0  0  0  0  0  0  0  0  0  0  0  0
   64.3630   31.2560   51.9320 O   0  0  0  0  0  0  0  0  0  0  0  0
   64.3110   31.3750   50.5270 C   0  0  0  0  0  0  0  0  0  0  0  0
   65.0220   32.6570   50.1030 C   0  0  0  0  0  0  0  0  0  0  0  0
   64.6680   33.0090   48.7780 O   0  0  0  0  0  0  0  0  0  0  0  0
   63.7020   32.1170   48.2610 C   0  0  0  0  0  0  0  0  0  0  0  0
   62.4690   32.9010   47.7980 C   0  0  0  0  0  0  0  0  0  0  0  0
   61.2160   32.4780   48.4650 N   0  0  0  0  0  0  0  0  0  0  0  0
   60.2560   31.9070   47.5270 C   0  0  0  0  0  0  0  0  0  0  0  0
   59.5410   32.7240   46.6070 C   0  0  0  0  0  0  0  0  0  0  0  0
   59.6600   34.1370   46.6000 C   0  0  0  0  0  0  0  0  0  0  0  0
   58.9060   34.9220   45.7350 C   0  0  0  0  0  0  0  0  0  0  0  0
   58.0090   34.3300   44.8580 C   0  0  0  0  0  0  0  0  0  0  0  0
   57.8870   32.9450   44.8190 C   0  0  0  0  0  0  0  0  0  0  0  0
   58.6730   32.1120   45.6570 C   0  0  0  0  0  0  0  0  0  0  0  0
   58.5940   30.7380   45.5690 N   0  0  0  0  0  0  0  0  0  0  0  0
   57.9860   30.1070   44.3750 C   0  0  0  0  0  0  0  0  0  0  0  0
   59.1080   29.9500   46.5780 C   0  0  0  0  0  0  0  0  0  0  0  0
   58.7670   28.5770   46.6810 C   0  0  0  0  0  0  0  0  0  0  0  0
   59.3260   27.7520   47.6670 C   0  0  0  0  0  0  0  0  0  0  0  0
   59.0160   26.3850   47.7700 O   0  0  0  0  0  0  0  0  0  0  0  0
   58.1900   25.6680   46.8570 C   0  0  0  0  0  0  0  0  0  0  0  0
   60.2270   28.2890   48.5830 C   0  0  0  0  0  0  0  0  0  0  0  0
   60.7840   27.4330   49.5460 O   0  0  0  0  0  0  0  0  0  0  0  0
   61.0930   27.8060   50.8860 C   0  0  0  0  0  0  0  0  0  0  0  0
   61.6340   26.6070   51.6980 C   0  0  0  0  0  0  0  0  0  0  0  0
   62.9450   26.7930   52.4110 N   0  0  0  0  0  0  0  0  0  0  0  0
   62.7250   26.7460   53.8840 C   0  0  0  0  0  0  0  0  0  0  0  0
   63.8380   25.6430   52.0050 C   0  0  0  0  0  0  0  0  0  0  0  0
   65.2940   26.0240   51.6700 C   0  0  0  0  0  0  0  0  0  0  0  0
   65.8290   27.0740   52.6350 C   0  0  0  0  0  0  0  0  0  0  0  0
   64.9570   28.3360   52.6250 C   0  0  0  0  0  0  0  0  0  0  0  0
   63.5490   28.1080   52.0310 C   0  0  0  0  0  0  0  0  0  0  0  0
   60.5460   29.6550   48.5260 C   0  0  0  0  0  0  0  0  0  0  0  0
   59.9790   30.5090   47.5490 C   0  0  0  0  0  0  0  0  0  0  0  0
   59.2405   29.3971   54.1985 H   0  0  0  0  0  0  0  0  0  0  0  0
   59.5185   28.5169   52.6576 H   0  0  0  0  0  0  0  0  0  0  0  0
   59.3877   30.3084   52.6576 H   0  0  0  0  0  0  0  0  0  0  0  0
   57.2303   28.2090   52.8650 H   0  0  0  0  0  0  0  0  0  0  0  0
   56.9997   29.7623   53.7518 H   0  0  0  0  0  0  0  0  0  0  0  0
   56.6327   31.5914   52.8791 H   0  0  0  0  0  0  0  0  0  0  0  0
   56.4786   31.8778   51.1067 H   0  0  0  0  0  0  0  0  0  0  0  0
   54.5200   30.7342   53.0416 H   0  0  0  0  0  0  0  0  0  0  0  0
   54.2468   31.5926   51.4875 H   0  0  0  0  0  0  0  0  0  0  0  0
   54.6563   29.8437   51.4875 H   0  0  0  0  0  0  0  0  0  0  0  0
   59.2053   30.2221   51.4431 H   0  0  0  0  0  0  0  0  0  0  0  0
   58.3822   29.5047   50.0109 H   0  0  0  0  0  0  0  0  0  0  0  0
   57.8159   31.5443   49.1562 H   0  0  0  0  0  0  0  0  0  0  0  0
   57.4259   32.2205   50.7805 H   0  0  0  0  0  0  0  0  0  0  0  0
   58.8550   34.1109   51.0740 H   0  0  0  0  0  0  0  0  0  0  0  0
   59.1118   32.7357   52.2102 H   0  0  0  0  0  0  0  0  0  0  0  0
   61.0507   34.6993   51.1313 H   0  0  0  0  0  0  0  0  0  0  0  0
   61.1472   33.6492   52.5937 H   0  0  0  0  0  0  0  0  0  0  0  0
   61.0844   31.3528   52.1049 H   0  0  0  0  0  0  0  0  0  0  0  0
   62.2194   30.7896   50.8275 H   0  0  0  0  0  0  0  0  0  0  0  0
   63.2945   32.7917   52.7871 H   0  0  0  0  0  0  0  0  0  0  0  0
   62.9538   31.1370   53.4198 H   0  0  0  0  0  0  0  0  0  0  0  0
   64.8088   30.5091   50.0662 H   0  0  0  0  0  0  0  0  0  0  0  0
   63.2617   31.4096   50.1986 H   0  0  0  0  0  0  0  0  0  0  0  0
   64.7333   33.4721   50.7829 H   0  0  0  0  0  0  0  0  0  0  0  0
   66.1085   32.4909   50.1473 H   0  0  0  0  0  0  0  0  0  0  0  0
   64.1292   31.5702   47.4075 H   0  0  0  0  0  0  0  0  0  0  0  0
   63.4070   31.4051   49.0460 H   0  0  0  0  0  0  0  0  0  0  0  0
   62.6341   33.9675   48.0111 H   0  0  0  0  0  0  0  0  0  0  0  0
   62.3456   32.7050   46.7227 H   0  0  0  0  0  0  0  0  0  0  0  0
   61.4050   31.8630   49.2830 H   0  0  0  0  0  0  0  0  0  0  0  0
   60.7770   33.3070   48.9300 H   0  0  0  0  0  0  0  0  0  0  0  0
   60.3632   34.6219   47.2931 H   0  0  0  0  0  0  0  0  0  0  0  0
   59.0211   36.0159   45.7461 H   0  0  0  0  0  0  0  0  0  0  0  0
   57.3945   34.9555   44.1938 H   0  0  0  0  0  0  0  0  0  0  0  0
   57.1672   32.4864   44.1250 H   0  0  0  0  0  0  0  0  0  0  0  0
   57.2553   29.3487   44.6930 H   0  0  0  0  0  0  0  0  0  0  0  0
   57.4788   30.8750   43.7726 H   0  0  0  0  0  0  0  0  0  0  0  0
   58.7723   29.6286   43.7726 H   0  0  0  0  0  0  0  0  0  0  0  0
   58.0458   28.1488   45.9693 H   0  0  0  0  0  0  0  0  0  0  0  0
   57.4756   25.0478   47.4182 H   0  0  0  0  0  0  0  0  0  0  0  0
   57.6396   26.3796   46.2239 H   0  0  0  0  0  0  0  0  0  0  0  0
   58.8171   25.0230   46.2239 H   0  0  0  0  0  0  0  0  0  0  0  0
   61.8549   28.5993   50.8695 H   0  0  0  0  0  0  0  0  0  0  0  0
   60.1693   28.1598   51.3673 H   0  0  0  0  0  0  0  0  0  0  0  0
   60.8785   26.3534   52.4562 H   0  0  0  0  0  0  0  0  0  0  0  0
   61.8274   25.8235   50.9505 H   0  0  0  0  0  0  0  0  0  0  0  0
   63.6734   26.9486   54.4030 H   0  0  0  0  0  0  0  0  0  0  0  0
   61.9819   27.5057   54.1682 H   0  0  0  0  0  0  0  0  0  0  0  0
   62.3572   25.7490   54.1682 H   0  0  0  0  0  0  0  0  0  0  0  0
   63.8583   24.9199   52.8337 H   0  0  0  0  0  0  0  0  0  0  0  0
   63.4088   25.2385   51.0765 H   0  0  0  0  0  0  0  0  0  0  0  0
   65.9235   25.1243   51.7349 H   0  0  0  0  0  0  0  0  0  0  0  0
   65.3172   26.4437   50.6535 H   0  0  0  0  0  0  0  0  0  0  0  0
   65.8398   26.6540   53.6516 H   0  0  0  0  0  0  0  0  0  0  0  0
   66.8450   27.3515   52.3177 H   0  0  0  0  0  0  0  0  0  0  0  0
   64.8449   28.6898   53.6605 H   0  0  0  0  0  0  0  0  0  0  0  0
   65.4627   29.0735   51.9844 H   0  0  0  0  0  0  0  0  0  0  0  0
   62.8869   28.9109   52.3874 H   0  0  0  0  0  0  0  0  0  0  0  0
   63.6563   28.1097   50.9362 H   0  0  0  0  0  0  0  0  0  0  0  0
   61.2534   30.0720   49.2579 H   0  0  0  0  0  0  0  0  0  0  0  0
  1  2  1  0
  2  3  1  0
  3  4  1  0
  4  5  1  0
  3  6  1  0
  6  7  1  0
  7  8  1  0
  8  9  1  0
  9 10  1  0
 10 11  1  0
 11 12  1  0
 12 13  1  0
 13 14  1  0
 14 15  1  0
 15 16  1  0
 16 17  1  0
 17 18  1  0
 18 19  1  0
 19 20  1  0
 20 21  1  0
 21 22  2  0
 22 23  1  0
 23 24  2  0
 24 25  1  0
 25 26  2  0
 26 27  1  0
 27 28  2  0
 28 29  1  0
 28 30  1  0
 30 31  2  0
 31 32  1  0
 32 33  1  0
 33 34  1  0
 32 35  2  0
 35 36  1  0
 36 37  1  0
 37 38  1  0
 38 39  1  0
 39 40  1  0
 39 41  1  0
 41 42  1  0
 42 43  1  0
 43 44  1  0
 44 45  1  0
 35 46  1  0
 46 47  2  0
 47 21  1  0
 27 22  1  0
 47 30  1  0
 45 39  1  0
  1 48  1  0
  1 49  1  0
  1 50  1  0
  2 51  1  0
  2 52  1  0
  4 53  1  0
  4 54  1  0
  5 55  1  0
  5 56  1  0
  5 57  1  0
  6 58  1  0
  6 59  1  0
  7 60  1  0
  7 61  1  0
  9 62  1  0
  9 63  1  0
 10 64  1  0
 10 65  1  0
 12 66  1  0
 12 67  1  0
 13 68  1  0
 13 69  1  0
 15 70  1  0
 15 71  1  0
 16 72  1  0
 16 73  1  0
 18 74  1  0
 18 75  1  0
 19 76  1  0
 19 77  1  0
 20 78  1  0
 20 79  1  0
 23 80  1  0
 24 81  1  0
 25 82  1  0
 26 83  1  0
 29 84  1  0
 29 85  1  0
 29 86  1  0
 31 87  1  0
 34 88  1  0
 34 89  1  0
 34 90  1  0
 37 91  1  0
 37 92  1  0
 38 93  1  0
 38 94  1  0
 40 95  1  0
 40 96  1  0
 40 97  1  0
 41 98  1  0
 41 99  1  0
 42100  1  0
 42101  1  0
 43102  1  0
 43103  1  0
 44104  1  0
 44105  1  0
 45106  1  0
 45107  1  0
 46108  1  0
M  CHG  3  20   1  28   1  39   1
M  END
>  <UniqueID>  (23) 
23

>  <SMILES>  (23) 
CCN(CC)CCOCCOCCOCCOCC[NH2+]c1c2ccccc2[n+](C)c2cc(OC)c(OCC[N+]3(C)CCCCC3)cc12

>  <Energy>  (23) 
155.7932648681285

>  <Genealogy>  (23) 
CCN(CC)CCOCCOCCOCCOCC[NH2+]c1c2ccccc2[n+](C)c2cc(OC)c(OCC[N+]3(C)CCCCC3)cc12 (protonated)
CCN(CC)CCOCCOCCOCCOCC[NH2+]c1c2ccccc2[n+](C)c2cc(OC)c(OCC[N+]3(C)CCCCC3)cc12 (3D coordinates assigned)
CCN(CC)CCOCCOCCOCCOCC[NH2+]c1c2ccccc2[n+](C)c2cc(OC)c(OCC[N+]3(C)CCCCC3)cc12 (nonaromatic ring conformer: 155.7932648681285 kcal/mol)

>  <smiles>  (23) 
CCN(CC)CCOCCOCCOCCOCCNc1c2ccccc2[n+](C)c2cc(OC)c(OCC[N+]3(C)CCCCC3)cc12

>  <score_type>  (23) 
oracle

>  <origin>  (23) 
adg

>  <m_score__min__energy>  (23) 
-3.5499999999999998

>  <m_primary>  (23) 
energy

$$$$
23:0
     RDKit          3D

 51 52  0  0  0  0  0  0  0  0999 V2000
   59.1400   33.8250   51.9490 C   0  0  0  0  0  0  0  0  0  0  0  0
   57.7910   33.1250   52.1850 C   0  0  0  0  0  0  0  0  0  0  0  0
   57.4840   32.0290   51.2290 N   0  0  2  0  0  0  0  0  0  0  0  0
   56.5240   31.0650   51.8060 C   0  0  0  0  0  0  0  0  0  0  0  0
   58.6730   31.3060   50.7110 C   0  0  0  0  0  0  0  0  0  0  0  0
   58.8600   31.4610   49.1930 C   0  0  0  0  0  0  0  0  0  0  0  0
   58.2190   32.7140   48.7550 N   0  0  0  0  0  0  0  0  0  0  0  0
   58.6480   33.1320   47.4030 C   0  0  1  0  0  0  0  0  0  0  0  0
   57.4020   33.4730   46.5580 C   0  0  0  0  0  0  0  0  0  0  0  0
   57.7620   33.8300   45.1000 C   0  0  0  0  0  0  0  0  0  0  0  0
   59.1930   34.3710   44.9350 C   0  0  0  0  0  0  0  0  0  0  0  0
   59.6310   35.1970   46.1520 C   0  0  0  0  0  0  0  0  0  0  0  0
   59.5720   34.3870   47.4830 C   0  0  2  0  0  0  0  0  0  0  0  0
   60.9670   34.0280   47.9750 C   0  0  0  0  0  0  0  0  0  0  0  0
   61.9180   33.5140   47.0740 C   0  0  0  0  0  0  0  0  0  0  0  0
   63.1990   33.1640   47.5150 C   0  0  0  0  0  0  0  0  0  0  0  0
   63.5540   33.3310   48.8610 C   0  0  0  0  0  0  0  0  0  0  0  0
   64.9010   32.8800   49.3470 C   0  0  0  0  0  0  0  0  0  0  0  0
   62.6080   33.8300   49.7650 C   0  0  0  0  0  0  0  0  0  0  0  0
   61.3290   34.1850   49.3270 C   0  0  0  0  0  0  0  0  0  0  0  0
   59.6029   34.0652   52.9175 H   0  0  0  0  0  0  0  0  0  0  0  0
   59.8047   33.1580   51.3803 H   0  0  0  0  0  0  0  0  0  0  0  0
   58.9773   34.7524   51.3803 H   0  0  0  0  0  0  0  0  0  0  0  0
   57.7975   32.7021   53.2004 H   0  0  0  0  0  0  0  0  0  0  0  0
   57.0144   33.8904   52.0398 H   0  0  0  0  0  0  0  0  0  0  0  0
   56.9980   32.4660   50.4080 H   0  0  0  0  0  0  0  0  0  0  0  0
   56.5715   31.1127   52.9039 H   0  0  0  0  0  0  0  0  0  0  0  0
   55.5065   31.3161   51.4718 H   0  0  0  0  0  0  0  0  0  0  0  0
   56.7793   30.0486   51.4718 H   0  0  0  0  0  0  0  0  0  0  0  0
   59.5683   31.6981   51.2157 H   0  0  0  0  0  0  0  0  0  0  0  0
   58.5202   30.2359   50.9147 H   0  0  0  0  0  0  0  0  0  0  0  0
   59.9335   31.4934   48.9553 H   0  0  0  0  0  0  0  0  0  0  0  0
   58.4003   30.6075   48.6733 H   0  0  0  0  0  0  0  0  0  0  0  0
   58.4600   33.4520   49.4600 H   0  0  0  0  0  0  0  0  0  0  0  0
   59.2090   32.3076   46.9387 H   0  0  0  0  0  0  0  0  0  0  0  0
   56.7290   32.6029   46.5532 H   0  0  0  0  0  0  0  0  0  0  0  0
   56.9194   34.3520   47.0101 H   0  0  0  0  0  0  0  0  0  0  0  0
   57.6593   32.9242   44.4844 H   0  0  0  0  0  0  0  0  0  0  0  0
   57.0758   34.6296   44.7842 H   0  0  0  0  0  0  0  0  0  0  0  0
   59.8829   33.5230   44.8127 H   0  0  0  0  0  0  0  0  0  0  0  0
   59.2125   35.0255   44.0511 H   0  0  0  0  0  0  0  0  0  0  0  0
   60.6649   35.5370   45.9927 H   0  0  0  0  0  0  0  0  0  0  0  0
   58.9342   36.0428   46.2471 H   0  0  0  0  0  0  0  0  0  0  0  0
   59.1090   35.0524   48.2265 H   0  0  0  0  0  0  0  0  0  0  0  0
   61.6521   33.3863   46.0143 H   0  0  0  0  0  0  0  0  0  0  0  0
   63.9309   32.7560   46.8023 H   0  0  0  0  0  0  0  0  0  0  0  0
   64.9116   32.8764   50.4469 H   0  0  0  0  0  0  0  0  0  0  0  0
   65.1040   31.8649   48.9751 H   0  0  0  0  0  0  0  0  0  0  0  0
   65.6743   33.5682   48.9751 H   0  0  0  0  0  0  0  0  0  0  0  0
   62.8732   33.9433   50.8265 H   0  0  0  0  0  0  0  0  0  0  0  0
   60.5996   34.5901   50.0438 H   0  0  0  0  0  0  0  0  0  0  0  0
  1  2  1  0
  2  3  1  0
  3  4  1  0
  3  5  1  0
  5  6  1  0
  6  7  1  0
  7  8  1  0
  8  9  1  0
  9 10  1  0
 10 11  1  0
 11 12  1  0
 12 13  1  0
 13 14  1  0
 14 15  2  0
 15 16  1  0
 16 17  2  0
 17 18  1  0
 17 19  1  0
 19 20  2  0
 13  8  1  0
 20 14  1  0
  1 21  1  0
  1 22  1  0
  1 23  1  0
  2 24  1  0
  2 25  1  0
  3 26  1  6
  4 27  1  0
  4 28  1  0
  4 29  1  0
  5 30  1  0
  5 31  1  0
  6 32  1  0
  6 33  1  0
  7 34  1  0
  8 35  1  6
  9 36  1  0
  9 37  1  0
 10 38  1  0
 10 39  1  0
 11 40  1  0
 11 41  1  0
 12 42  1  0
 12 43  1  0
 13 44  1  1
 15 45  1  0
 16 46  1  0
 18 47  1  0
 18 48  1  0
 18 49  1  0
 19 50  1  0
 20 51  1  0
M  CHG  1   3   1
M  END
>  <UniqueID>  (24) 
24

>  <SMILES>  (24) 
CC[N@H+](C)CCN[C@H]1CCCCC1c1ccc(C)cc1

>  <Energy>  (24) 
55.97711774529416

>  <Genealogy>  (24) 
CC[NH+](C)CCNC1CCCCC1c1ccc(C)cc1 (protonated)
CC[N@H+](C)CCN[C@H]1CCCCC1c1ccc(C)cc1 (chirality)
CC[N@H+](C)CCN[C@H]1CCCCC1c1ccc(C)cc1 (3D coordinates assigned)
CC[N@H+](C)CCN[C@H]1CCCCC1c1ccc(C)cc1 (nonaromatic ring conformer: 55.97711774529416 kcal/mol)

>  <smiles>  (24) 
CCN(C)CCNC1CCCCC1c1ccc(C)cc1

>  <score_type>  (24) 
oracle

>  <origin>  (24) 
adg

>  <m_score__min__energy>  (24) 
-5.5899999999999999

>  <m_primary>  (24) 
energy

$$$$
24:0
     RDKit          3D

 37 39  0  0  0  0  0  0  0  0999 V2000
   59.6608   35.4822   44.0937 H   0  0  0  0  0  0  0  0  0  0  0  0
   59.2850   34.8110   44.8800 C   0  0  0  0  0  0  0  0  0  0  0  0
   59.7870   34.9100   46.1810 C   0  0  0  0  0  0  0  0  0  0  0  0
   60.5491   35.6664   46.4200 H   0  0  0  0  0  0  0  0  0  0  0  0
   59.3210   34.0480   47.1790 C   0  0  0  0  0  0  0  0  0  0  0  0
   60.0180   34.1720   48.9530 Br  0  0  0  0  0  0  0  0  0  0  0  0
   58.3450   33.0920   46.8760 C   0  0  0  0  0  0  0  0  0  0  0  0
   57.9978   32.3967   47.6544 H   0  0  0  0  0  0  0  0  0  0  0  0
   57.8070   33.0180   45.5790 C   0  0  0  0  0  0  0  0  0  0  0  0
   56.8350   32.0180   45.2400 N   0  0  0  0  0  0  0  0  0  0  0  0
   56.9970   30.8300   44.7160 C   0  0  0  0  0  0  0  0  0  0  0  0
   56.1220   30.4860   43.6800 C   0  0  0  0  0  0  0  0  0  0  0  0
   55.2498   31.1221   43.4687 H   0  0  0  0  0  0  0  0  0  0  0  0
   56.3460   29.3460   42.9150 C   0  0  0  0  0  0  0  0  0  0  0  0
   55.6617   29.0966   42.0906 H   0  0  0  0  0  0  0  0  0  0  0  0
   57.4040   28.5410   43.1810 N   0  0  0  0  0  0  0  0  0  0  0  0
   57.5530   27.7050   42.5690 H   0  0  0  0  0  0  0  0  0  0  0  0
   58.2270   28.7690   44.2440 C   0  0  0  0  0  0  0  0  0  0  0  0
   59.2590   27.8640   44.5270 C   0  0  0  0  0  0  0  0  0  0  0  0
   59.4520   27.0255   43.8417 H   0  0  0  0  0  0  0  0  0  0  0  0
   60.0420   28.0170   45.6680 C   0  0  0  0  0  0  0  0  0  0  0  0
   60.8737   27.3226   45.8578 H   0  0  0  0  0  0  0  0  0  0  0  0
   59.7760   29.0520   46.5770 C   0  0  0  0  0  0  0  0  0  0  0  0
   60.5240   29.2040   47.8010 N   0  0  0  0  0  0  0  0  0  0  0  0
   60.8450   28.3410   48.2970 H   0  0  0  0  0  0  0  0  0  0  0  0
   60.8580   30.4850   48.4240 C   0  0  0  0  0  0  0  0  0  0  0  0
   61.2523   30.3031   49.4347 H   0  0  0  0  0  0  0  0  0  0  0  0
   59.9484   31.1016   48.4745 H   0  0  0  0  0  0  0  0  0  0  0  0
   61.9090   31.2270   47.6020 C   0  0  0  0  0  0  0  0  0  0  0  0
   62.6176   31.7272   48.2785 H   0  0  0  0  0  0  0  0  0  0  0  0
   62.4513   30.5105   46.9676 H   0  0  0  0  0  0  0  0  0  0  0  0
   61.4153   31.9779   46.9676 H   0  0  0  0  0  0  0  0  0  0  0  0
   58.7500   29.9660   46.2900 C   0  0  0  0  0  0  0  0  0  0  0  0
   58.5116   30.7538   47.0197 H   0  0  0  0  0  0  0  0  0  0  0  0
   58.0160   29.8960   45.0830 C   0  0  0  0  0  0  0  0  0  0  0  0
   58.3060   33.8600   44.5770 C   0  0  0  0  0  0  0  0  0  0  0  0
   57.9263   33.7727   43.5483 H   0  0  0  0  0  0  0  0  0  0  0  0
  1  2  1  0
  2  3  2  0
  3  4  1  0
  3  5  1  0
  5  6  1  0
  5  7  2  0
  7  8  1  0
  7  9  1  0
  9 10  1  0
 10 11  2  0
 11 12  1  0
 12 13  1  0
 12 14  2  0
 14 15  1  0
 14 16  1  0
 16 17  1  0
 16 18  1  0
 18 19  2  0
 19 20  1  0
 19 21  1  0
 21 22  1  0
 21 23  2  0
 23 24  1  0
 24 25  1  0
 24 26  1  0
 26 27  1  0
 26 28  1  0
 26 29  1  0
 29 30  1  0
 29 31  1  0
 29 32  1  0
 23 33  1  0
 33 34  1  0
 33 35  2  0
  9 36  2  0
 36 37  1  0
 36  2  1  0
 35 11  1  0
 35 18  1  0
M  END
>  <UniqueID>  (25) 
25

>  <SMILES>  (25) 
CCNc1ccc2[nH]cc/c(=N/c3cccc(Br)c3)c2c1

>  <Energy>  (25) 
59.366086814022104

>  <Genealogy>  (25) 
CCNc1ccc2[nH]cc/c(=N/c3cccc(Br)c3)c2c1 (cis-trans isomerization)
CCNc1ccc2[nH]cc/c(=N/c3cccc(Br)c3)c2c1 (3D coordinates assigned)
CCNc1ccc2[nH]cc/c(=N/c3cccc(Br)c3)c2c1 (optimized conformer: 59.366086814022104 kcal/mol)

>  <smiles>  (25) 
CCNc1ccc2[nH]ccc(=Nc3cccc(Br)c3)c2c1

>  <score_type>  (25) 
oracle

>  <origin>  (25) 
adg

>  <m_score__min__energy>  (25) 
-7.5599999999999996

>  <m_primary>  (25) 
energy

$$$$
25:0
     RDKit          3D

 53 55  0  0  0  0  0  0  0  0999 V2000
   63.6460   33.5530   47.0480 C   0  0  0  0  0  0  0  0  0  0  0  0
   62.3710   32.7190   47.0070 C   0  0  0  0  0  0  0  0  0  0  0  0
   62.1540   32.0730   48.3280 N   0  0  0  0  0  0  0  0  0  0  0  0
   61.3990   30.8050   48.2060 C   0  0  0  0  0  0  0  0  0  0  0  0
   61.0350   30.5180   46.7500 C   0  0  0  0  0  0  0  0  0  0  0  0
   63.4300   31.8520   49.0480 C   0  0  0  0  0  0  0  0  0  0  0  0
   63.3520   32.3590   50.4980 C   0  0  0  0  0  0  0  0  0  0  0  0
   62.2590   33.3310   50.6680 N   0  0  0  0  0  0  0  0  0  0  0  0
   61.2380   32.8050   51.5870 C   0  0  0  0  0  0  0  0  0  0  0  0
   59.8280   33.2350   51.1570 C   0  0  0  0  0  0  0  0  0  0  0  0
   59.8770   34.2400   50.1430 O   0  0  0  0  0  0  0  0  0  0  0  0
   59.5910   34.0450   48.7820 C   0  0  0  0  0  0  0  0  0  0  0  0
   60.1070   34.9680   47.8650 C   0  0  0  0  0  0  0  0  0  0  0  0
   59.8610   34.8300   46.4970 C   0  0  0  0  0  0  0  0  0  0  0  0
   59.0870   33.7620   46.0230 C   0  0  0  0  0  0  0  0  0  0  0  0
   58.8370   33.6170   44.6490 C   0  0  0  0  0  0  0  0  0  0  0  0
   58.0600   32.5450   44.1870 C   0  0  0  0  0  0  0  0  0  0  0  0
   57.7940   32.3710   42.8260 C   0  0  0  0  0  0  0  0  0  0  0  0
   57.0150   31.2900   42.4130 C   0  0  0  0  0  0  0  0  0  0  0  0
   56.5200   30.4050   43.3760 C   0  0  0  0  0  0  0  0  0  0  0  0
   55.8170   29.4230   43.0240 O   0  0  0  0  0  0  0  0  0  0  0  0
   56.7900   30.5930   44.6650 O   0  0  0  0  0  0  0  0  0  0  0  0
   57.5280   31.6110   45.1020 C   0  0  0  0  0  0  0  0  0  0  0  0
   57.7760   31.7550   46.4700 C   0  0  0  0  0  0  0  0  0  0  0  0
   58.5540   32.8240   46.9410 C   0  0  0  0  0  0  0  0  0  0  0  0
   58.8050   32.9740   48.3130 C   0  0  0  0  0  0  0  0  0  0  0  0
   63.9294   33.7384   48.0946 H   0  0  0  0  0  0  0  0  0  0  0  0
   64.4561   33.0097   46.5395 H   0  0  0  0  0  0  0  0  0  0  0  0
   63.4728   34.5129   46.5395 H   0  0  0  0  0  0  0  0  0  0  0  0
   61.5155   33.3697   46.7729 H   0  0  0  0  0  0  0  0  0  0  0  0
   62.4670   31.9434   46.2329 H   0  0  0  0  0  0  0  0  0  0  0  0
   62.0173   29.9806   48.5907 H   0  0  0  0  0  0  0  0  0  0  0  0
   60.4692   30.8954   48.7868 H   0  0  0  0  0  0  0  0  0  0  0  0
   60.1716   29.8373   46.7152 H   0  0  0  0  0  0  0  0  0  0  0  0
   60.7796   31.4603   46.2433 H   0  0  0  0  0  0  0  0  0  0  0  0
   61.8918   30.0498   46.2433 H   0  0  0  0  0  0  0  0  0  0  0  0
   63.6538   30.7750   49.0571 H   0  0  0  0  0  0  0  0  0  0  0  0
   64.2219   32.4112   48.5281 H   0  0  0  0  0  0  0  0  0  0  0  0
   63.1780   31.5038   51.1675 H   0  0  0  0  0  0  0  0  0  0  0  0
   64.3012   32.8584   50.7422 H   0  0  0  0  0  0  0  0  0  0  0  0
   62.6430   34.2240   51.0570 H   0  0  0  0  0  0  0  0  0  0  0  0
   61.8220   33.5200   49.7360 H   0  0  0  0  0  0  0  0  0  0  0  0
   61.2919   31.7063   51.5921 H   0  0  0  0  0  0  0  0  0  0  0  0
   61.4334   33.2081   52.5917 H   0  0  0  0  0  0  0  0  0  0  0  0
   59.2898   32.3586   50.7668 H   0  0  0  0  0  0  0  0  0  0  0  0
   59.3104   33.6520   52.0335 H   0  0  0  0  0  0  0  0  0  0  0  0
   60.7133   35.8119   48.2259 H   0  0  0  0  0  0  0  0  0  0  0  0
   60.2763   35.5623   45.7890 H   0  0  0  0  0  0  0  0  0  0  0  0
   59.2507   34.3443   43.9350 H   0  0  0  0  0  0  0  0  0  0  0  0
   58.1953   33.0802   42.0871 H   0  0  0  0  0  0  0  0  0  0  0  0
   56.7936   31.1361   41.3466 H   0  0  0  0  0  0  0  0  0  0  0  0
   57.3592   31.0267   47.1812 H   0  0  0  0  0  0  0  0  0  0  0  0
   58.3853   32.2505   49.0274 H   0  0  0  0  0  0  0  0  0  0  0  0
  1  2  1  0
  2  3  1  0
  3  4  1  0
  4  5  1  0
  3  6  1  0
  6  7  1  0
  7  8  1  0
  8  9  1  0
  9 10  1  0
 10 11  1  0
 11 12  1  0
 12 13  2  0
 13 14  1  0
 14 15  2  0
 15 16  1  0
 16 17  2  0
 17 18  1  0
 18 19  2  0
 19 20  1  0
 20 21  2  0
 20 22  1  0
 22 23  1  0
 23 24  2  0
 24 25  1  0
 25 26  2  0
 26 12  1  0
 25 15  1  0
 23 17  1  0
  1 27  1  0
  1 28  1  0
  1 29  1  0
  2 30  1  0
  2 31  1  0
  4 32  1  0
  4 33  1  0
  5 34  1  0
  5 35  1  0
  5 36  1  0
  6 37  1  0
  6 38  1  0
  7 39  1  0
  7 40  1  0
  8 41  1  0
  8 42  1  0
  9 43  1  0
  9 44  1  0
 10 45  1  0
 10 46  1  0
 13 47  1  0
 14 48  1  0
 16 49  1  0
 18 50  1  0
 19 51  1  0
 24 52  1  0
 26 53  1  0
M  CHG  1   8   1
M  END
>  <UniqueID>  (26) 
26

>  <SMILES>  (26) 
CCN(CC)CC[NH2+]CCOc1ccc2cc3ccc(=O)oc3cc2c1

>  <Energy>  (26) 
57.18994477178653

>  <Genealogy>  (26) 
CCN(CC)CC[NH2+]CCOc1ccc2cc3ccc(=O)oc3cc2c1 (protonated)
CCN(CC)CC[NH2+]CCOc1ccc2cc3ccc(=O)oc3cc2c1 (3D coordinates assigned)
CCN(CC)CC[NH2+]CCOc1ccc2cc3ccc(=O)oc3cc2c1 (optimized conformer: 57.18994477178653 kcal/mol)

>  <smiles>  (26) 
CCN(CC)CCNCCOc1ccc2cc3ccc(=O)oc3cc2c1

>  <score_type>  (26) 
oracle

>  <origin>  (26) 
adg

>  <m_score__min__energy>  (26) 
-5.6200000000000001

>  <m_primary>  (26) 
energy

$$$$
26:0
     RDKit          3D

 71 73  0  0  0  0  0  0  0  0999 V2000
   60.2070   29.2870   48.8580 C   0  0  0  0  0  0  0  0  0  0  0  0
   58.8890   29.4620   48.1020 C   0  0  0  0  0  0  0  0  0  0  0  0
   59.0390   29.4280   46.6300 N   0  0  0  0  0  0  0  0  0  0  0  0
   60.3780   29.8230   46.1430 C   0  0  0  0  0  0  0  0  0  0  0  0
   60.8100   28.9440   44.9730 C   0  0  0  0  0  0  0  0  0  0  0  0
   58.3850   28.2760   45.9570 C   0  0  0  0  0  0  0  0  0  0  0  0
   57.0500   28.5930   45.2550 C   0  0  0  0  0  0  0  0  0  0  0  0
   56.7860   29.9790   45.3300 O   0  0  0  0  0  0  0  0  0  0  0  0
   56.2620   30.4560   44.1040 C   0  0  0  0  0  0  0  0  0  0  0  0
   57.3230   31.2750   43.3580 C   0  0  0  0  0  0  0  0  0  0  0  0
   58.5190   31.6280   44.2580 C   0  0  0  0  0  0  0  0  0  0  0  0
   58.5090   33.0450   44.6760 N   0  0  0  0  0  0  0  0  0  0  0  0
   57.3750   33.3730   45.5530 C   0  0  0  0  0  0  0  0  0  0  0  0
   57.8030   33.4830   47.0250 C   0  0  0  0  0  0  0  0  0  0  0  0
   58.7980   32.4660   47.3540 N   0  0  0  0  0  0  0  0  0  0  0  0
   59.7510   32.6940   48.4040 C   0  0  0  0  0  0  0  0  0  0  0  0
   59.3480   32.6030   49.7440 C   0  0  0  0  0  0  0  0  0  0  0  0
   60.2860   32.8760   50.7750 C   0  0  0  0  0  0  0  0  0  0  0  0
   61.6120   33.1200   50.4570 N   0  0  0  0  0  0  0  0  0  0  0  0
   62.6310   33.2160   51.5270 C   0  0  0  0  0  0  0  0  0  0  0  0
   61.9960   33.2900   49.1380 C   0  0  0  0  0  0  0  0  0  0  0  0
   63.3020   33.7210   48.7860 C   0  0  0  0  0  0  0  0  0  0  0  0
   63.6860   33.8460   47.4510 C   0  0  0  0  0  0  0  0  0  0  0  0
   62.7840   33.5570   46.4340 C   0  0  0  0  0  0  0  0  0  0  0  0
   61.4860   33.1620   46.7450 C   0  0  0  0  0  0  0  0  0  0  0  0
   61.0720   33.0440   48.0900 C   0  0  0  0  0  0  0  0  0  0  0  0
   59.8360   32.8310   52.2320 C   0  0  0  0  0  0  0  0  0  0  0  0
   58.3220   32.9130   52.4200 C   0  0  0  0  0  0  0  0  0  0  0  0
   57.6350   31.9160   51.4990 C   0  0  0  0  0  0  0  0  0  0  0  0
   57.8880   32.3070   50.0460 C   0  0  0  0  0  0  0  0  0  0  0  0
   60.0148   29.3125   49.9408 H   0  0  0  0  0  0  0  0  0  0  0  0
   60.6588   28.3210   48.5885 H   0  0  0  0  0  0  0  0  0  0  0  0
   60.8953   30.1016   48.5885 H   0  0  0  0  0  0  0  0  0  0  0  0
   58.2071   28.6521   48.4005 H   0  0  0  0  0  0  0  0  0  0  0  0
   58.4983   30.4567   48.3627 H   0  0  0  0  0  0  0  0  0  0  0  0
   60.3470   30.8721   45.8137 H   0  0  0  0  0  0  0  0  0  0  0  0
   61.1016   29.7001   46.9623 H   0  0  0  0  0  0  0  0  0  0  0  0
   61.2646   28.0191   45.3575 H   0  0  0  0  0  0  0  0  0  0  0  0
   59.9324   28.6935   44.3590 H   0  0  0  0  0  0  0  0  0  0  0  0
   61.5445   29.4858   44.3590 H   0  0  0  0  0  0  0  0  0  0  0  0
   59.0815   27.8841   45.2011 H   0  0  0  0  0  0  0  0  0  0  0  0
   58.1460   27.5552   46.7528 H   0  0  0  0  0  0  0  0  0  0  0  0
   57.1117   28.2898   44.1994 H   0  0  0  0  0  0  0  0  0  0  0  0
   56.2386   28.0417   45.7527 H   0  0  0  0  0  0  0  0  0  0  0  0
   55.9585   29.6014   43.4814 H   0  0  0  0  0  0  0  0  0  0  0  0
   55.3926   31.0975   44.3103 H   0  0  0  0  0  0  0  0  0  0  0  0
   57.6851   30.6891   42.5003 H   0  0  0  0  0  0  0  0  0  0  0  0
   56.8564   32.2156   43.0300 H   0  0  0  0  0  0  0  0  0  0  0  0
   58.4845   30.9942   45.1564 H   0  0  0  0  0  0  0  0  0  0  0  0
   59.4379   31.4552   43.6786 H   0  0  0  0  0  0  0  0  0  0  0  0
   59.4030   33.3360   45.1350 H   0  0  0  0  0  0  0  0  0  0  0  0
   56.9455   34.3343   45.2346 H   0  0  0  0  0  0  0  0  0  0  0  0
   56.6356   32.5626   45.4723 H   0  0  0  0  0  0  0  0  0  0  0  0
   58.2341   34.4795   47.2016 H   0  0  0  0  0  0  0  0  0  0  0  0
   56.9189   33.3296   47.6613 H   0  0  0  0  0  0  0  0  0  0  0  0
   58.8780   31.5880   46.7920 H   0  0  0  0  0  0  0  0  0  0  0  0
   62.1372   33.1695   52.5088 H   0  0  0  0  0  0  0  0  0  0  0  0
   63.3406   32.3807   51.4335 H   0  0  0  0  0  0  0  0  0  0  0  0
   63.1722   34.1691   51.4335 H   0  0  0  0  0  0  0  0  0  0  0  0
   64.0241   33.9607   49.5804 H   0  0  0  0  0  0  0  0  0  0  0  0
   64.7060   34.1744   47.2023 H   0  0  0  0  0  0  0  0  0  0  0  0
   63.0960   33.6405   45.3825 H   0  0  0  0  0  0  0  0  0  0  0  0
   60.7757   32.9396   45.9351 H   0  0  0  0  0  0  0  0  0  0  0  0
   60.1883   31.8870   52.6734 H   0  0  0  0  0  0  0  0  0  0  0  0
   60.2652   33.7163   52.7240 H   0  0  0  0  0  0  0  0  0  0  0  0
   58.0703   32.6788   53.4649 H   0  0  0  0  0  0  0  0  0  0  0  0
   57.9796   33.9295   52.1759 H   0  0  0  0  0  0  0  0  0  0  0  0
   58.0378   30.9091   51.6831 H   0  0  0  0  0  0  0  0  0  0  0  0
   56.5529   31.9201   51.6965 H   0  0  0  0  0  0  0  0  0  0  0  0
   57.5596   31.4792   49.4003 H   0  0  0  0  0  0  0  0  0  0  0  0
   57.3240   33.2323   49.8567 H   0  0  0  0  0  0  0  0  0  0  0  0
  1  2  1  0
  2  3  1  0
  3  4  1  0
  4  5  1  0
  3  6  1  0
  6  7  1  0
  7  8  1  0
  8  9  1  0
  9 10  1  0
 10 11  1  0
 11 12  1  0
 12 13  1  0
 13 14  1  0
 14 15  1  0
 15 16  1  0
 16 17  2  0
 17 18  1  0
 18 19  2  0
 19 20  1  0
 19 21  1  0
 21 22  2  0
 22 23  1  0
 23 24  2  0
 24 25  1  0
 25 26  2  0
 18 27  1  0
 27 28  1  0
 28 29  1  0
 29 30  1  0
 26 16  1  0
 30 17  1  0
 26 21  1  0
  1 31  1  0
  1 32  1  0
  1 33  1  0
  2 34  1  0
  2 35  1  0
  4 36  1  0
  4 37  1  0
  5 38  1  0
  5 39  1  0
  5 40  1  0
  6 41  1  0
  6 42  1  0
  7 43  1  0
  7 44  1  0
  9 45  1  0
  9 46  1  0
 10 47  1  0
 10 48  1  0
 11 49  1  0
 11 50  1  0
 12 51  1  0
 13 52  1  0
 13 53  1  0
 14 54  1  0
 14 55  1  0
 15 56  1  0
 20 57  1  0
 20 58  1  0
 20 59  1  0
 22 60  1  0
 23 61  1  0
 24 62  1  0
 25 63  1  0
 27 64  1  0
 27 65  1  0
 28 66  1  0
 28 67  1  0
 29 68  1  0
 29 69  1  0
 30 70  1  0
 30 71  1  0
M  CHG  1  19   1
M  END
>  <UniqueID>  (27) 
27

>  <SMILES>  (27) 
CCN(CC)CCOCCCNCCNc1c2c([n+](C)c3ccccc13)CCCC2

>  <Energy>  (27) 
95.71578431710981

>  <Genealogy>  (27) 
CCN(CC)CCOCCCNCCNc1c2c([n+](C)c3ccccc13)CCCC2 (3D coordinates assigned)
CCN(CC)CCOCCCNCCNc1c2c([n+](C)c3ccccc13)CCCC2 (nonaromatic ring conformer: 95.71578431710981 kcal/mol)

>  <smiles>  (27) 
CCN(CC)CCOCCCNCCNc1c2c([n+](C)c3ccccc13)CCCC2

>  <score_type>  (27) 
oracle

>  <origin>  (27) 
adg

>  <m_score__min__energy>  (27) 
-6.4000000000000004

>  <m_primary>  (27) 
energy

$$$$
