0:0
     RDKit          3D

 36 36  0  0  0  0  0  0  0  0999 V2000
   56.4320   29.7610   42.7120 C   0  0  0  0  0  0  0  0  0  0  0  0
   55.8730   30.0950   44.0900 C   0  0  0  0  0  0  0  0  0  0  0  0
   56.9330   30.6960   44.9280 N   0  0  0  0  0  0  0  0  0  0  0  0
   58.0320   29.7570   45.2040 C   0  0  0  0  0  0  0  0  0  0  0  0
   57.3960   32.0160   44.4370 C   0  0  0  0  0  0  0  0  0  0  0  0
   57.6330   33.0700   45.5410 C   0  0  0  0  0  0  0  0  0  0  0  0
   58.4710   34.5550   44.8650 S   0  0  0  0  0  0  0  0  0  0  0  0
   59.8010   34.7700   46.1210 C   0  0  0  0  0  0  0  0  0  0  0  0
   59.2530   34.9570   47.5610 C   0  0  0  0  0  0  0  0  0  0  0  0
   59.7110   33.8520   48.5240 C   0  0  0  0  0  0  0  0  0  0  0  0
   61.2450   33.7140   48.5460 C   0  0  0  0  0  0  0  0  0  0  0  0
   61.9030   33.8330   47.1540 C   0  0  0  0  0  0  0  0  0  0  0  0
   60.8930   33.6860   46.0100 C   0  0  0  0  0  0  0  0  0  0  0  0
   57.3714   29.1997   42.8236 H   0  0  0  0  0  0  0  0  0  0  0  0
   55.7033   29.1501   42.1589 H   0  0  0  0  0  0  0  0  0  0  0  0
   56.6247   30.6921   42.1589 H   0  0  0  0  0  0  0  0  0  0  0  0
   55.0425   30.8085   43.9841 H   0  0  0  0  0  0  0  0  0  0  0  0
   55.5106   29.1731   44.5683 H   0  0  0  0  0  0  0  0  0  0  0  0
   58.1579   29.6494   46.2915 H   0  0  0  0  0  0  0  0  0  0  0  0
   57.7963   28.7770   44.7634 H   0  0  0  0  0  0  0  0  0  0  0  0
   58.9632   30.1427   44.7634 H   0  0  0  0  0  0  0  0  0  0  0  0
   58.3425   31.8675   43.8966 H   0  0  0  0  0  0  0  0  0  0  0  0
   56.5903   32.4099   43.8001 H   0  0  0  0  0  0  0  0  0  0  0  0
   56.6639   33.3673   45.9682 H   0  0  0  0  0  0  0  0  0  0  0  0
   58.2766   32.6271   46.3153 H   0  0  0  0  0  0  0  0  0  0  0  0
   60.3007   35.7209   45.8843 H   0  0  0  0  0  0  0  0  0  0  0  0
   59.6034   35.9258   47.9466 H   0  0  0  0  0  0  0  0  0  0  0  0
   58.1554   34.9110   47.5046 H   0  0  0  0  0  0  0  0  0  0  0  0
   59.3605   34.0952   49.5379 H   0  0  0  0  0  0  0  0  0  0  0  0
   59.2862   32.8982   48.1778 H   0  0  0  0  0  0  0  0  0  0  0  0
   61.6548   34.5046   49.1918 H   0  0  0  0  0  0  0  0  0  0  0  0
   61.4699   32.7045   48.9207 H   0  0  0  0  0  0  0  0  0  0  0  0
   62.3840   34.8191   47.0748 H   0  0  0  0  0  0  0  0  0  0  0  0
   62.6340   33.0164   47.0601 H   0  0  0  0  0  0  0  0  0  0  0  0
   61.4154   33.7937   45.0480 H   0  0  0  0  0  0  0  0  0  0  0  0
   60.4218   32.6940   46.0724 H   0  0  0  0  0  0  0  0  0  0  0  0
  1  2  1  0
  2  3  1  0
  3  4  1  0
  3  5  1  0
  5  6  1  0
  6  7  1  0
  7  8  1  0
  8  9  1  0
  9 10  1  0
 10 11  1  0
 11 12  1  0
 12 13  1  0
 13  8  1  0
  1 14  1  0
  1 15  1  0
  1 16  1  0
  2 17  1  0
  2 18  1  0
  4 19  1  0
  4 20  1  0
  4 21  1  0
  5 22  1  0
  5 23  1  0
  6 24  1  0
  6 25  1  0
  8 26  1  0
  9 27  1  0
  9 28  1  0
 10 29  1  0
 10 30  1  0
 11 31  1  0
 11 32  1  0
 12 33  1  0
 12 34  1  0
 13 35  1  0
 13 36  1  0
M  END
>  <UniqueID>  (1) 
1

>  <SMILES>  (1) 
CCN(C)CCSC1CCCCC1

>  <Energy>  (1) 
36.69795213229762

>  <Genealogy>  (1) 
CCN(C)CCSC1CCCCC1 (3D coordinates assigned)
CCN(C)CCSC1CCCCC1 (nonaromatic ring conformer: 36.69795213229762 kcal/mol)

>  <smiles>  (1) 
CCN(C)CCSC1CCCCC1

>  <score_type>  (1) 
oracle

>  <origin>  (1) 
adg

>  <m_score__min__energy>  (1) 
-5.7199999999999998

>  <m_primary>  (1) 
energy

$$$$
1:0
     RDKit          3D

 45 47  0  0  0  0  0  0  0  0999 V2000
   57.7770   32.1690   43.4190 C   0  0  0  0  0  0  0  0  0  0  0  0
   58.5080   32.0180   44.6920 N   0  0  0  0  0  0  0  0  0  0  0  0
   58.9490   33.1270   45.3700 C   0  0  0  0  0  0  0  0  0  0  0  0
   59.6050   33.0330   46.5710 C   0  0  0  0  0  0  0  0  0  0  0  0
   59.8740   31.7920   47.1490 C   0  0  0  0  0  0  0  0  0  0  0  0
   60.6040   31.7040   48.3820 N   0  0  0  0  0  0  0  0  0  0  0  0
   61.9570   31.1520   48.4450 C   0  0  0  0  0  0  0  0  0  0  0  0
   62.7790   31.5630   47.2030 C   0  0  0  0  0  0  0  0  0  0  0  0
   63.7480   32.6510   47.4810 N   0  0  0  0  0  0  0  0  0  0  0  0
   63.3950   33.8460   46.6940 C   0  0  0  0  0  0  0  0  0  0  0  0
   63.7890   32.9980   48.9150 C   0  0  0  0  0  0  0  0  0  0  0  0
   59.4640   30.6310   46.4590 C   0  0  0  0  0  0  0  0  0  0  0  0
   59.7120   29.3490   46.9890 C   0  0  0  0  0  0  0  0  0  0  0  0
   59.3070   28.2070   46.3010 C   0  0  0  0  0  0  0  0  0  0  0  0
   58.6480   28.3220   45.0810 C   0  0  0  0  0  0  0  0  0  0  0  0
   58.3820   29.5780   44.5380 C   0  0  0  0  0  0  0  0  0  0  0  0
   58.7730   30.7620   45.2130 C   0  0  0  0  0  0  0  0  0  0  0  0
   60.0130   34.3650   47.0900 C   0  0  0  0  0  0  0  0  0  0  0  0
   59.6270   35.3430   45.9710 C   0  0  0  0  0  0  0  0  0  0  0  0
   58.8260   34.5470   44.9300 C   0  0  0  0  0  0  0  0  0  0  0  0
   56.7192   32.3875   43.6273 H   0  0  0  0  0  0  0  0  0  0  0  0
   58.2151   32.9956   42.8404 H   0  0  0  0  0  0  0  0  0  0  0  0
   57.8518   31.2365   42.8404 H   0  0  0  0  0  0  0  0  0  0  0  0
   60.1660   32.0940   49.2450 H   0  0  0  0  0  0  0  0  0  0  0  0
   62.4578   31.5287   49.3490 H   0  0  0  0  0  0  0  0  0  0  0  0
   61.8877   30.0545   48.4729 H   0  0  0  0  0  0  0  0  0  0  0  0
   63.3335   30.6837   46.8434 H   0  0  0  0  0  0  0  0  0  0  0  0
   62.0705   31.9390   46.4503 H   0  0  0  0  0  0  0  0  0  0  0  0
   64.7050   32.3470   47.1820 H   0  0  0  0  0  0  0  0  0  0  0  0
   63.1503   34.6744   47.3750 H   0  0  0  0  0  0  0  0  0  0  0  0
   64.2470   34.1322   46.0598 H   0  0  0  0  0  0  0  0  0  0  0  0
   62.5243   33.6233   46.0598 H   0  0  0  0  0  0  0  0  0  0  0  0
   63.6810   32.0836   49.5168 H   0  0  0  0  0  0  0  0  0  0  0  0
   64.7502   33.4791   49.1485 H   0  0  0  0  0  0  0  0  0  0  0  0
   62.9664   33.6899   49.1485 H   0  0  0  0  0  0  0  0  0  0  0  0
   60.2299   29.2490   47.9543 H   0  0  0  0  0  0  0  0  0  0  0  0
   59.5089   27.2117   46.7236 H   0  0  0  0  0  0  0  0  0  0  0  0
   58.3349   27.4160   44.5415 H   0  0  0  0  0  0  0  0  0  0  0  0
   57.8612   29.6516   43.5719 H   0  0  0  0  0  0  0  0  0  0  0  0
   59.4738   34.6031   48.0187 H   0  0  0  0  0  0  0  0  0  0  0  0
   61.0841   34.4099   47.3362 H   0  0  0  0  0  0  0  0  0  0  0  0
   59.0107   36.1579   46.3784 H   0  0  0  0  0  0  0  0  0  0  0  0
   60.5232   35.7902   45.5162 H   0  0  0  0  0  0  0  0  0  0  0  0
   57.7723   34.8628   44.9257 H   0  0  0  0  0  0  0  0  0  0  0  0
   59.1997   34.7018   43.9071 H   0  0  0  0  0  0  0  0  0  0  0  0
  1  2  1  0
  2  3  2  0
  3  4  1  0
  4  5  2  0
  5  6  1  0
  6  7  1  0
  7  8  1  0
  8  9  1  0
  9 10  1  0
  9 11  1  0
  5 12  1  0
 12 13  2  0
 13 14  1  0
 14 15  2  0
 15 16  1  0
 16 17  2  0
  4 18  1  0
 18 19  1  0
 19 20  1  0
 17  2  1  0
 20  3  1  0
 17 12  1  0
  1 21  1  0
  1 22  1  0
  1 23  1  0
  6 24  1  0
  7 25  1  0
  7 26  1  0
  8 27  1  0
  8 28  1  0
  9 29  1  0
 10 30  1  0
 10 31  1  0
 10 32  1  0
 11 33  1  0
 11 34  1  0
 11 35  1  0
 13 36  1  0
 14 37  1  0
 15 38  1  0
 16 39  1  0
 18 40  1  0
 18 41  1  0
 19 42  1  0
 19 43  1  0
 20 44  1  0
 20 45  1  0
M  CHG  2   2   1   9   1
M  END
>  <UniqueID>  (2) 
2

>  <SMILES>  (2) 
C[n+]1c2c(c(NCC[NH+](C)C)c3ccccc31)CCC2

>  <Energy>  (2) 
69.25121723298302

>  <Genealogy>  (2) 
C[n+]1c2c(c(NCC[NH+](C)C)c3ccccc31)CCC2 (protonated)
C[n+]1c2c(c(NCC[NH+](C)C)c3ccccc31)CCC2 (3D coordinates assigned)
C[n+]1c2c(c(NCC[NH+](C)C)c3ccccc31)CCC2 (nonaromatic ring conformer: 69.25121723298302 kcal/mol)

>  <smiles>  (2) 
CN(C)CCNc1c2c([n+](C)c3ccccc13)CCC2

>  <score_type>  (2) 
oracle

>  <origin>  (2) 
adg

>  <m_score__min__energy>  (2) 
-4.25

>  <m_primary>  (2) 
energy

$$$$
2:0
     RDKit          3D

 59 61  0  0  0  0  0  0  0  0999 V2000
   63.3800   33.8430   46.5880 C   0  0  0  0  0  0  0  0  0  0  0  0
   63.6200   32.6910   47.5630 C   0  0  0  0  0  0  0  0  0  0  0  0
   62.9480   32.9170   48.9350 C   0  0  0  0  0  0  0  0  0  0  0  0
   63.2240   31.8500   49.9330 N   0  0  0  0  0  0  0  0  0  0  0  0
   64.3320   32.1680   50.8830 C   0  0  0  0  0  0  0  0  0  0  0  0
   65.7770   31.8590   50.4140 C   0  0  0  0  0  0  0  0  0  0  0  0
   66.6380   33.0930   50.1500 C   0  0  0  0  0  0  0  0  0  0  0  0
   61.9850   31.4290   50.6460 C   0  0  0  0  0  0  0  0  0  0  0  0
   60.6970   32.0250   50.0220 C   0  0  0  0  0  0  0  0  0  0  0  0
   59.8750   30.9760   49.2490 C   0  0  0  0  0  0  0  0  0  0  0  0
   60.3480   30.8470   47.8700 N   0  0  0  0  0  0  0  0  0  0  0  0
   59.5400   31.2670   46.7570 C   0  0  0  0  0  0  0  0  0  0  0  0
   59.4820   32.6220   46.3860 C   0  0  0  0  0  0  0  0  0  0  0  0
   60.0520   33.6210   47.2020 C   0  0  0  0  0  0  0  0  0  0  0  0
   59.9850   34.9630   46.8380 C   0  0  0  0  0  0  0  0  0  0  0  0
   59.3290   35.3350   45.6710 C   0  0  0  0  0  0  0  0  0  0  0  0
   58.7390   34.3670   44.8570 C   0  0  0  0  0  0  0  0  0  0  0  0
   58.8210   32.9890   45.1830 C   0  0  0  0  0  0  0  0  0  0  0  0
   58.2630   32.0160   44.3740 N   0  0  0  0  0  0  0  0  0  0  0  0
   57.8350   32.3550   42.9980 C   0  0  0  0  0  0  0  0  0  0  0  0
   58.1300   30.7220   44.8410 C   0  0  0  0  0  0  0  0  0  0  0  0
   57.3300   29.7630   44.1680 C   0  0  0  0  0  0  0  0  0  0  0  0
   57.2660   28.4430   44.6120 C   0  0  0  0  0  0  0  0  0  0  0  0
   57.9820   28.0440   45.7360 C   0  0  0  0  0  0  0  0  0  0  0  0
   57.9000   26.2290   46.3260 Br  0  0  0  0  0  0  0  0  0  0  0  0
   58.7410   28.9750   46.4430 C   0  0  0  0  0  0  0  0  0  0  0  0
   58.8030   30.3210   46.0250 C   0  0  0  0  0  0  0  0  0  0  0  0
   63.1875   34.7672   47.1526 H   0  0  0  0  0  0  0  0  0  0  0  0
   64.2692   33.9787   45.9548 H   0  0  0  0  0  0  0  0  0  0  0  0
   62.5106   33.6123   45.9548 H   0  0  0  0  0  0  0  0  0  0  0  0
   63.2163   31.7677   47.1220 H   0  0  0  0  0  0  0  0  0  0  0  0
   64.7046   32.6223   47.7332 H   0  0  0  0  0  0  0  0  0  0  0  0
   63.3096   33.8725   49.3428 H   0  0  0  0  0  0  0  0  0  0  0  0
   61.8621   32.9117   48.7594 H   0  0  0  0  0  0  0  0  0  0  0  0
   63.5540   31.0060   49.4080 H   0  0  0  0  0  0  0  0  0  0  0  0
   64.2790   33.2440   51.1051 H   0  0  0  0  0  0  0  0  0  0  0  0
   64.1656   31.5055   51.7452 H   0  0  0  0  0  0  0  0  0  0  0  0
   66.2691   31.2576   51.1926 H   0  0  0  0  0  0  0  0  0  0  0  0
   65.6865   31.3309   49.4533 H   0  0  0  0  0  0  0  0  0  0  0  0
   66.9472   33.5362   51.1081 H   0  0  0  0  0  0  0  0  0  0  0  0
   67.5300   32.8018   49.5759 H   0  0  0  0  0  0  0  0  0  0  0  0
   66.0568   33.8296   49.5759 H   0  0  0  0  0  0  0  0  0  0  0  0
   61.9162   30.3317   50.6118 H   0  0  0  0  0  0  0  0  0  0  0  0
   62.0551   31.8031   51.6781 H   0  0  0  0  0  0  0  0  0  0  0  0
   60.0729   32.4377   50.8283 H   0  0  0  0  0  0  0  0  0  0  0  0
   61.0017   32.8035   49.3071 H   0  0  0  0  0  0  0  0  0  0  0  0
   59.9691   30.0030   49.7535 H   0  0  0  0  0  0  0  0  0  0  0  0
   58.8244   31.3013   49.2288 H   0  0  0  0  0  0  0  0  0  0  0  0
   61.3240   30.5140   47.6950 H   0  0  0  0  0  0  0  0  0  0  0  0
   60.5557   33.3363   48.1375 H   0  0  0  0  0  0  0  0  0  0  0  0
   60.4516   35.7292   47.4745 H   0  0  0  0  0  0  0  0  0  0  0  0
   59.2745   36.3965   45.3876 H   0  0  0  0  0  0  0  0  0  0  0  0
   58.2021   34.6775   43.9485 H   0  0  0  0  0  0  0  0  0  0  0  0
   56.9733   33.0375   43.0397 H   0  0  0  0  0  0  0  0  0  0  0  0
   58.6645   32.8438   42.4659 H   0  0  0  0  0  0  0  0  0  0  0  0
   57.5492   31.4357   42.4659 H   0  0  0  0  0  0  0  0  0  0  0  0
   56.7515   30.0654   43.2826 H   0  0  0  0  0  0  0  0  0  0  0  0
   56.6461   27.7132   44.0707 H   0  0  0  0  0  0  0  0  0  0  0  0
   59.2978   28.6568   47.3367 H   0  0  0  0  0  0  0  0  0  0  0  0
  1  2  1  0
  2  3  1  0
  3  4  1  0
  4  5  1  0
  5  6  1  0
  6  7  1  0
  4  8  1  0
  8  9  1  0
  9 10  1  0
 10 11  1  0
 11 12  1  0
 12 13  2  0
 13 14  1  0
 14 15  2  0
 15 16  1  0
 16 17  2  0
 17 18  1  0
 18 19  2  0
 19 20  1  0
 19 21  1  0
 21 22  2  0
 22 23  1  0
 23 24  2  0
 24 25  1  0
 24 26  1  0
 26 27  2  0
 27 12  1  0
 18 13  1  0
 27 21  1  0
  1 28  1  0
  1 29  1  0
  1 30  1  0
  2 31  1  0
  2 32  1  0
  3 33  1  0
  3 34  1  0
  4 35  1  0
  5 36  1  0
  5 37  1  0
  6 38  1  0
  6 39  1  0
  7 40  1  0
  7 41  1  0
  7 42  1  0
  8 43  1  0
  8 44  1  0
  9 45  1  0
  9 46  1  0
 10 47  1  0
 10 48  1  0
 11 49  1  0
 14 50  1  0
 15 51  1  0
 16 52  1  0
 17 53  1  0
 20 54  1  0
 20 55  1  0
 20 56  1  0
 22 57  1  0
 23 58  1  0
 26 59  1  0
M  CHG  2   4   1  19   1
M  END
>  <UniqueID>  (3) 
3

>  <SMILES>  (3) 
CCC[NH+](CCC)CCCNc1c2ccccc2[n+](C)c2ccc(Br)cc12

>  <Energy>  (3) 
87.37197300605229

>  <Genealogy>  (3) 
CCC[NH+](CCC)CCCNc1c2ccccc2[n+](C)c2ccc(Br)cc12 (protonated)
CCC[NH+](CCC)CCCNc1c2ccccc2[n+](C)c2ccc(Br)cc12 (3D coordinates assigned)
CCC[NH+](CCC)CCCNc1c2ccccc2[n+](C)c2ccc(Br)cc12 (optimized conformer: 87.37197300605229 kcal/mol)

>  <smiles>  (3) 
CCCN(CCC)CCCNc1c2ccccc2[n+](C)c2ccc(Br)cc12

>  <score_type>  (3) 
oracle

>  <origin>  (3) 
adg

>  <m_score__min__energy>  (3) 
-4.8399999999999999

>  <m_primary>  (3) 
energy

$$$$
3:0
     RDKit          3D

 48 51  0  0  0  0  0  0  0  0999 V2000
   56.6580   23.8670   43.3670 C   0  0  0  0  0  0  0  0  0  0  0  0
   57.5340   24.8900   44.0870 C   0  0  0  0  0  0  0  0  0  0  0  0
   57.7280   26.0890   43.2600 N   0  0  0  0  0  0  0  0  0  0  0  0
   58.0740   27.2140   44.0930 C   0  0  0  0  0  0  0  0  0  0  0  0
   58.6840   27.0100   45.3360 C   0  0  0  0  0  0  0  0  0  0  0  0
   58.9610   28.0880   46.1700 C   0  0  0  0  0  0  0  0  0  0  0  0
   58.6470   29.4050   45.7780 C   0  0  0  0  0  0  0  0  0  0  0  0
   58.8900   30.4870   46.6400 C   0  0  0  0  0  0  0  0  0  0  0  0
   59.5280   30.2750   47.9120 N   0  0  0  0  0  0  0  0  0  0  0  0
   60.7790   30.8860   48.2760 C   0  0  0  0  0  0  0  0  0  0  0  0
   61.4240   30.4850   49.4570 C   0  0  0  0  0  0  0  0  0  0  0  0
   62.6410   31.0620   49.8320 C   0  0  0  0  0  0  0  0  0  0  0  0
   63.2260   32.0460   49.0310 C   0  0  0  0  0  0  0  0  0  0  0  0
   62.5930   32.4570   47.8550 C   0  0  0  0  0  0  0  0  0  0  0  0
   63.3910   33.8050   46.7620 Br  0  0  0  0  0  0  0  0  0  0  0  0
   61.3740   31.8830   47.4780 C   0  0  0  0  0  0  0  0  0  0  0  0
   58.4440   31.7690   46.2830 C   0  0  0  0  0  0  0  0  0  0  0  0
   58.5860   32.8550   47.1730 C   0  0  0  0  0  0  0  0  0  0  0  0
   58.1000   34.1170   46.8370 C   0  0  0  0  0  0  0  0  0  0  0  0
   57.4600   34.3150   45.6190 C   0  0  0  0  0  0  0  0  0  0  0  0
   57.3270   33.2600   44.7160 C   0  0  0  0  0  0  0  0  0  0  0  0
   57.8490   31.9740   45.0100 C   0  0  0  0  0  0  0  0  0  0  0  0
   57.7810   30.9340   44.1020 N   0  0  0  0  0  0  0  0  0  0  0  0
   57.4400   31.2080   42.6880 C   0  0  0  0  0  0  0  0  0  0  0  0
   58.0580   29.6400   44.5090 C   0  0  0  0  0  0  0  0  0  0  0  0
   57.7460   28.5200   43.6970 C   0  0  0  0  0  0  0  0  0  0  0  0
   56.1297   23.2500   44.1087 H   0  0  0  0  0  0  0  0  0  0  0  0
   55.9245   24.3913   42.7368 H   0  0  0  0  0  0  0  0  0  0  0  0
   57.2889   23.2229   42.7368 H   0  0  0  0  0  0  0  0  0  0  0  0
   57.0489   25.1784   45.0312 H   0  0  0  0  0  0  0  0  0  0  0  0
   58.5164   24.4355   44.2828 H   0  0  0  0  0  0  0  0  0  0  0  0
   58.4900   25.9180   42.5620 H   0  0  0  0  0  0  0  0  0  0  0  0
   56.8490   26.3000   42.7300 H   0  0  0  0  0  0  0  0  0  0  0  0
   58.9460   25.9905   45.6554 H   0  0  0  0  0  0  0  0  0  0  0  0
   59.4313   27.9105   47.1484 H   0  0  0  0  0  0  0  0  0  0  0  0
   59.0190   29.6980   48.6190 H   0  0  0  0  0  0  0  0  0  0  0  0
   60.9683   29.7110   50.0920 H   0  0  0  0  0  0  0  0  0  0  0  0
   63.1386   30.7408   50.7589 H   0  0  0  0  0  0  0  0  0  0  0  0
   64.1848   32.4972   49.3261 H   0  0  0  0  0  0  0  0  0  0  0  0
   60.8774   32.2120   46.5533 H   0  0  0  0  0  0  0  0  0  0  0  0
   59.0852   32.7038   48.1415 H   0  0  0  0  0  0  0  0  0  0  0  0
   58.2229   34.9573   47.5362 H   0  0  0  0  0  0  0  0  0  0  0  0
   57.0571   35.3069   45.3663 H   0  0  0  0  0  0  0  0  0  0  0  0
   56.8089   33.4280   43.7603 H   0  0  0  0  0  0  0  0  0  0  0  0
   56.5832   31.8965   42.6442 H   0  0  0  0  0  0  0  0  0  0  0  0
   58.3043   31.6657   42.1845 H   0  0  0  0  0  0  0  0  0  0  0  0
   57.1791   30.2655   42.1845 H   0  0  0  0  0  0  0  0  0  0  0  0
   57.2356   28.6783   42.7355 H   0  0  0  0  0  0  0  0  0  0  0  0
  1  2  1  0
  2  3  1  0
  3  4  1  0
  4  5  2  0
  5  6  1  0
  6  7  2  0
  7  8  1  0
  8  9  1  0
  9 10  1  0
 10 11  2  0
 11 12  1  0
 12 13  2  0
 13 14  1  0
 14 15  1  0
 14 16  2  0
  8 17  2  0
 17 18  1  0
 18 19  2  0
 19 20  1  0
 20 21  2  0
 21 22  1  0
 22 23  2  0
 23 24  1  0
 23 25  1  0
 25 26  2  0
 26  4  1  0
 25  7  1  0
 16 10  1  0
 22 17  1  0
  1 27  1  0
  1 28  1  0
  1 29  1  0
  2 30  1  0
  2 31  1  0
  3 32  1  0
  3 33  1  0
  5 34  1  0
  6 35  1  0
  9 36  1  0
 11 37  1  0
 12 38  1  0
 13 39  1  0
 16 40  1  0
 18 41  1  0
 19 42  1  0
 20 43  1  0
 21 44  1  0
 24 45  1  0
 24 46  1  0
 24 47  1  0
 26 48  1  0
M  CHG  2   3   1  23   1
M  END
>  <UniqueID>  (4) 
4

>  <SMILES>  (4) 
CC[NH2+]c1ccc2c(Nc3cccc(Br)c3)c3ccccc3[n+](C)c2c1

>  <Energy>  (4) 
77.68225580897351

>  <Genealogy>  (4) 
CC[NH2+]c1ccc2c(Nc3cccc(Br)c3)c3ccccc3[n+](C)c2c1 (protonated)
CC[NH2+]c1ccc2c(Nc3cccc(Br)c3)c3ccccc3[n+](C)c2c1 (3D coordinates assigned)
CC[NH2+]c1ccc2c(Nc3cccc(Br)c3)c3ccccc3[n+](C)c2c1 (optimized conformer: 77.68225580897351 kcal/mol)

>  <smiles>  (4) 
CCNc1ccc2c(Nc3cccc(Br)c3)c3ccccc3[n+](C)c2c1

>  <score_type>  (4) 
oracle

>  <origin>  (4) 
adg

>  <m_score__min__energy>  (4) 
-6.04

>  <m_primary>  (4) 
energy

$$$$
4:0
     RDKit          3D

 50 52  0  0  0  0  0  0  0  0999 V2000
   63.7680   33.5540   47.0800 C   0  0  0  0  0  0  0  0  0  0  0  0
   62.4620   33.0460   47.5900 C   0  0  0  0  0  0  0  0  0  0  0  0
   61.9060   31.8170   47.3010 C   0  0  0  0  0  0  0  0  0  0  0  0
   60.7380   31.7890   48.0390 C   0  0  0  0  0  0  0  0  0  0  0  0
   59.7880   30.6170   48.1170 C   0  0  0  0  0  0  0  0  0  0  0  0
   60.1760   29.4260   47.3120 N   0  0  0  0  0  0  0  0  0  0  0  0
   60.4710   29.7150   45.8880 C   0  0  0  0  0  0  0  0  0  0  0  0
   59.2580   29.5710   44.9430 C   0  0  0  0  0  0  0  0  0  0  0  0
   58.0070   29.3060   45.6730 N   0  0  0  0  0  0  0  0  0  0  0  0
   56.8920   29.1680   44.7090 C   0  0  0  0  0  0  0  0  0  0  0  0
   56.6310   30.4690   43.9410 C   0  0  0  0  0  0  0  0  0  0  0  0
   56.4230   31.5460   44.8520 O   0  0  0  0  0  0  0  0  0  0  0  0
   57.3700   32.5430   45.1310 C   0  0  0  0  0  0  0  0  0  0  0  0
   58.2820   33.0100   44.1650 C   0  0  0  0  0  0  0  0  0  0  0  0
   59.2070   34.0070   44.4960 C   0  0  0  0  0  0  0  0  0  0  0  0
   59.2270   34.5460   45.7830 C   0  0  0  0  0  0  0  0  0  0  0  0
   58.3200   34.0880   46.7470 C   0  0  0  0  0  0  0  0  0  0  0  0
   57.4000   33.0870   46.4230 C   0  0  0  0  0  0  0  0  0  0  0  0
   58.1700   28.0920   46.4890 C   0  0  0  0  0  0  0  0  0  0  0  0
   59.3090   28.2390   47.5180 C   0  0  0  0  0  0  0  0  0  0  0  0
   60.6530   32.9350   48.7510 N   0  0  0  0  0  0  0  0  0  0  0  0
   59.6130   33.3190   49.6990 C   0  0  0  0  0  0  0  0  0  0  0  0
   61.6980   33.7000   48.4840 N   0  0  0  0  0  0  0  0  0  0  0  0
   64.4197   33.8075   47.9292 H   0  0  0  0  0  0  0  0  0  0  0  0
   64.2494   32.7776   46.4673 H   0  0  0  0  0  0  0  0  0  0  0  0
   63.5983   34.4517   46.4673 H   0  0  0  0  0  0  0  0  0  0  0  0
   62.3023   31.0367   46.6346 H   0  0  0  0  0  0  0  0  0  0  0  0
   59.7176   30.3067   49.1700 H   0  0  0  0  0  0  0  0  0  0  0  0
   58.8353   30.9704   47.6957 H   0  0  0  0  0  0  0  0  0  0  0  0
   61.1010   29.1510   47.7240 H   0  0  0  0  0  0  0  0  0  0  0  0
   60.8421   30.7480   45.8164 H   0  0  0  0  0  0  0  0  0  0  0  0
   61.2119   28.9695   45.5634 H   0  0  0  0  0  0  0  0  0  0  0  0
   59.1428   30.5036   44.3713 H   0  0  0  0  0  0  0  0  0  0  0  0
   59.4483   28.7136   44.2807 H   0  0  0  0  0  0  0  0  0  0  0  0
   57.1415   28.3747   43.9889 H   0  0  0  0  0  0  0  0  0  0  0  0
   55.9823   28.9201   45.2756 H   0  0  0  0  0  0  0  0  0  0  0  0
   57.4986   30.6948   43.3036 H   0  0  0  0  0  0  0  0  0  0  0  0
   55.7310   30.3450   43.3208 H   0  0  0  0  0  0  0  0  0  0  0  0
   58.2674   32.5904   43.1483 H   0  0  0  0  0  0  0  0  0  0  0  0
   59.9201   34.3666   43.7396 H   0  0  0  0  0  0  0  0  0  0  0  0
   59.9545   35.3299   46.0402 H   0  0  0  0  0  0  0  0  0  0  0  0
   58.3318   34.5165   47.7600 H   0  0  0  0  0  0  0  0  0  0  0  0
   56.6955   32.7239   47.1858 H   0  0  0  0  0  0  0  0  0  0  0  0
   57.2298   27.8950   47.0250 H   0  0  0  0  0  0  0  0  0  0  0  0
   58.4245   27.2604   45.8155 H   0  0  0  0  0  0  0  0  0  0  0  0
   58.8598   28.3114   48.5195 H   0  0  0  0  0  0  0  0  0  0  0  0
   59.9542   27.3561   47.3984 H   0  0  0  0  0  0  0  0  0  0  0  0
   59.9839   33.1821   50.7255 H   0  0  0  0  0  0  0  0  0  0  0  0
   59.3465   34.3748   49.5432 H   0  0  0  0  0  0  0  0  0  0  0  0
   58.7243   32.6897   49.5432 H   0  0  0  0  0  0  0  0  0  0  0  0
  1  2  1  0
  2  3  1  0
  3  4  2  0
  4  5  1  0
  5  6  1  0
  6  7  1  0
  7  8  1  0
  8  9  1  0
  9 10  1  0
 10 11  1  0
 11 12  1  0
 12 13  1  0
 13 14  2  0
 14 15  1  0
 15 16  2  0
 16 17  1  0
 17 18  2  0
  9 19  1  0
 19 20  1  0
  4 21  1  0
 21 22  1  0
 21 23  1  0
 23  2  2  0
 20  6  1  0
 18 13  1  0
  1 24  1  0
  1 25  1  0
  1 26  1  0
  3 27  1  0
  5 28  1  0
  5 29  1  0
  6 30  1  0
  7 31  1  0
  7 32  1  0
  8 33  1  0
  8 34  1  0
 10 35  1  0
 10 36  1  0
 11 37  1  0
 11 38  1  0
 14 39  1  0
 15 40  1  0
 16 41  1  0
 17 42  1  0
 18 43  1  0
 19 44  1  0
 19 45  1  0
 20 46  1  0
 20 47  1  0
 22 48  1  0
 22 49  1  0
 22 50  1  0
M  CHG  1   6   1
M  END
>  <UniqueID>  (5) 
5

>  <SMILES>  (5) 
Cc1cc(C[NH+]2CCN(CCOc3ccccc3)CC2)n(C)n1

>  <Energy>  (5) 
92.71192662739287

>  <Genealogy>  (5) 
Cc1cc(C[NH+]2CCN(CCOc3ccccc3)CC2)n(C)n1 (protonated)
Cc1cc(C[NH+]2CCN(CCOc3ccccc3)CC2)n(C)n1 (3D coordinates assigned)
Cc1cc(C[NH+]2CCN(CCOc3ccccc3)CC2)n(C)n1 (nonaromatic ring conformer: 92.71192662739287 kcal/mol)

>  <smiles>  (5) 
Cc1cc(CN2CCN(CCOc3ccccc3)CC2)n(C)n1

>  <score_type>  (5) 
oracle

>  <origin>  (5) 
adg

>  <m_score__min__energy>  (5) 
-5.6500000000000004

>  <m_primary>  (5) 
energy

$$$$
5:0
     RDKit          3D

 58 62  0  0  0  0  0  0  0  0999 V2000
   56.9550   30.8380   42.5540 C   0  0  0  0  0  0  0  0  0  0  0  0
   56.3540   29.5960   43.2180 C   0  0  0  0  0  0  0  0  0  0  0  0
   57.3890   28.6560   43.6840 N   0  0  0  0  0  0  0  0  0  0  0  0
   57.8980   29.0220   44.9890 C   0  0  0  0  0  0  0  0  0  0  0  0
   57.9020   30.3800   45.3760 C   0  0  0  0  0  0  0  0  0  0  0  0
   58.3150   30.7050   46.6290 N   0  0  0  0  0  0  0  0  0  0  0  0
   58.4280   31.9040   47.2440 C   0  0  0  0  0  0  0  0  0  0  0  0
   58.1500   33.2350   46.5810 C   0  0  0  0  0  0  0  0  0  0  0  0
   58.8670   33.2990   45.2180 C   0  0  0  0  0  0  0  0  0  0  0  0
   59.1650   34.7570   44.8380 C   0  0  0  0  0  0  0  0  0  0  0  0
   60.0250   35.4300   45.7520 O   0  0  0  0  0  0  0  0  0  0  0  0
   59.9350   34.9650   47.0950 C   0  0  0  0  0  0  0  0  0  0  0  0
   58.5460   34.4300   47.4800 C   0  0  0  0  0  0  0  0  0  0  0  0
   58.9360   31.7850   48.4960 N   0  0  0  0  0  0  0  0  0  0  0  0
   59.1040   30.4540   48.6720 C   0  0  0  0  0  0  0  0  0  0  0  0
   59.6850   29.8400   49.9040 C   0  0  0  0  0  0  0  0  0  0  0  0
   58.7310   29.7980   47.5190 C   0  0  0  0  0  0  0  0  0  0  0  0
   58.7640   28.4410   47.2120 C   0  0  0  0  0  0  0  0  0  0  0  0
   58.3460   28.0410   45.9290 C   0  0  0  0  0  0  0  0  0  0  0  0
   58.3910   26.6030   45.5990 C   0  0  0  0  0  0  0  0  0  0  0  0
   59.4830   25.8260   46.0060 C   0  0  0  0  0  0  0  0  0  0  0  0
   59.5400   24.4720   45.6780 C   0  0  0  0  0  0  0  0  0  0  0  0
   58.5160   23.8840   44.9330 C   0  0  0  0  0  0  0  0  0  0  0  0
   57.4150   24.6540   44.4960 C   0  0  0  0  0  0  0  0  0  0  0  0
   56.2680   24.0950   43.6710 C   0  0  0  0  0  0  0  0  0  0  0  0
   56.4890   22.7510   42.9910 C   0  0  0  0  0  0  0  0  0  0  0  0
   55.5670   22.8510   44.1990 C   0  0  0  0  0  0  0  0  0  0  0  0
   57.3730   26.0180   44.8320 C   0  0  0  0  0  0  0  0  0  0  0  0
   57.2948   31.5402   43.3295 H   0  0  0  0  0  0  0  0  0  0  0  0
   57.8094   30.5418   41.9277 H   0  0  0  0  0  0  0  0  0  0  0  0
   56.1925   31.3242   41.9277 H   0  0  0  0  0  0  0  0  0  0  0  0
   55.7497   29.9132   44.0807 H   0  0  0  0  0  0  0  0  0  0  0  0
   55.7401   29.0764   42.4675 H   0  0  0  0  0  0  0  0  0  0  0  0
   58.1690   28.6160   42.9850 H   0  0  0  0  0  0  0  0  0  0  0  0
   56.9830   27.6940   43.7160 H   0  0  0  0  0  0  0  0  0  0  0  0
   57.5761   31.1621   44.6745 H   0  0  0  0  0  0  0  0  0  0  0  0
   57.0649   33.3140   46.4189 H   0  0  0  0  0  0  0  0  0  0  0  0
   59.8123   32.7399   45.2791 H   0  0  0  0  0  0  0  0  0  0  0  0
   58.2150   32.8563   44.4506 H   0  0  0  0  0  0  0  0  0  0  0  0
   59.6400   34.7656   43.8459 H   0  0  0  0  0  0  0  0  0  0  0  0
   58.2041   35.2922   44.8525 H   0  0  0  0  0  0  0  0  0  0  0  0
   60.6672   34.1554   47.2305 H   0  0  0  0  0  0  0  0  0  0  0  0
   60.1343   35.8297   47.7451 H   0  0  0  0  0  0  0  0  0  0  0  0
   58.5642   34.1014   48.5296 H   0  0  0  0  0  0  0  0  0  0  0  0
   57.8078   35.2341   47.3437 H   0  0  0  0  0  0  0  0  0  0  0  0
   59.2398   30.3105   50.7931 H   0  0  0  0  0  0  0  0  0  0  0  0
   59.4691   28.7614   49.9130 H   0  0  0  0  0  0  0  0  0  0  0  0
   60.7738   29.9961   49.9130 H   0  0  0  0  0  0  0  0  0  0  0  0
   59.1070   27.7020   47.9511 H   0  0  0  0  0  0  0  0  0  0  0  0
   60.2974   26.2850   46.5857 H   0  0  0  0  0  0  0  0  0  0  0  0
   60.3956   23.8643   46.0077 H   0  0  0  0  0  0  0  0  0  0  0  0
   58.5668   22.8136   44.6845 H   0  0  0  0  0  0  0  0  0  0  0  0
   55.9393   25.0911   43.3397 H   0  0  0  0  0  0  0  0  0  0  0  0
   56.0683   22.5643   41.9919 H   0  0  0  0  0  0  0  0  0  0  0  0
   57.3702   22.1453   42.7331 H   0  0  0  0  0  0  0  0  0  0  0  0
   54.4803   22.7365   44.0725 H   0  0  0  0  0  0  0  0  0  0  0  0
   55.5064   22.3475   45.1751 H   0  0  0  0  0  0  0  0  0  0  0  0
   56.5299   26.6354   44.4886 H   0  0  0  0  0  0  0  0  0  0  0  0
  1  2  1  0
  2  3  1  0
  3  4  1  0
  4  5  2  0
  5  6  1  0
  6  7  1  0
  7  8  1  0
  8  9  1  0
  9 10  1  0
 10 11  1  0
 11 12  1  0
 12 13  1  0
  7 14  2  0
 14 15  1  0
 15 16  1  0
 15 17  2  0
 17 18  1  0
 18 19  2  0
 19 20  1  0
 20 21  2  0
 21 22  1  0
 22 23  2  0
 23 24  1  0
 24 25  1  0
 25 26  1  0
 26 27  1  0
 24 28  2  0
 19  4  1  0
 28 20  1  0
 17  6  1  0
 27 25  1  0
 13  8  1  0
  1 29  1  0
  1 30  1  0
  1 31  1  0
  2 32  1  0
  2 33  1  0
  3 34  1  0
  3 35  1  0
  5 36  1  0
  8 37  1  0
  9 38  1  0
  9 39  1  0
 10 40  1  0
 10 41  1  0
 12 42  1  0
 12 43  1  0
 13 44  1  0
 13 45  1  0
 16 46  1  0
 16 47  1  0
 16 48  1  0
 18 49  1  0
 21 50  1  0
 22 51  1  0
 23 52  1  0
 25 53  1  0
 26 54  1  0
 26 55  1  0
 27 56  1  0
 27 57  1  0
 28 58  1  0
M  CHG  1   3   1
M  END
>  <UniqueID>  (6) 
6

>  <SMILES>  (6) 
CC[NH2+]c1cn2c(C3CCOCC3)nc(C)c2cc1-c1cccc(C2CC2)c1

>  <Energy>  (6) 
380.39323810277125

>  <Genealogy>  (6) 
CC[NH2+]c1cn2c(C3CCOCC3)nc(C)c2cc1-c1cccc(C2CC2)c1 (protonated)
CC[NH2+]c1cn2c(C3CCOCC3)nc(C)c2cc1-c1cccc(C2CC2)c1 (3D coordinates assigned)
CC[NH2+]c1cn2c(C3CCOCC3)nc(C)c2cc1-c1cccc(C2CC2)c1 (nonaromatic ring conformer: 380.39323810277125 kcal/mol)

>  <smiles>  (6) 
CCNc1cn2c(C3CCOCC3)nc(C)c2cc1-c1cccc(C2CC2)c1

>  <score_type>  (6) 
oracle

>  <origin>  (6) 
adg

>  <m_score__min__energy>  (6) 
-7.1799999999999997

>  <m_primary>  (6) 
energy

$$$$
6:0
     RDKit          3D

 81 83  0  0  0  0  0  0  0  0999 V2000
   55.4120   23.4930   47.3150 C   0  0  0  0  0  0  0  0  0  0  0  0
   55.9140   24.8440   47.0080 N   0  0  0  0  0  0  0  0  0  0  0  0
   55.5900   25.1790   45.6130 C   0  0  0  0  0  0  0  0  0  0  0  0
   57.3740   24.9390   47.2280 C   0  0  0  0  0  0  0  0  0  0  0  0
   58.1700   24.6080   45.9550 C   0  0  0  0  0  0  0  0  0  0  0  0
   59.6000   25.1670   46.0010 C   0  0  0  0  0  0  0  0  0  0  0  0
   59.6320   26.4040   46.7820 N   0  0  0  0  0  0  0  0  0  0  0  0
   59.0580   27.6650   46.3720 C   0  0  0  0  0  0  0  0  0  0  0  0
   58.0060   27.7160   45.4550 C   0  0  0  0  0  0  0  0  0  0  0  0
   57.5860   28.9270   44.9260 C   0  0  0  0  0  0  0  0  0  0  0  0
   58.2530   30.1360   45.2310 C   0  0  0  0  0  0  0  0  0  0  0  0
   59.2550   30.1190   46.2460 C   0  0  0  0  0  0  0  0  0  0  0  0
   59.5980   28.8740   46.8590 C   0  0  0  0  0  0  0  0  0  0  0  0
   60.4720   28.8290   47.9520 O   0  0  0  0  0  0  0  0  0  0  0  0
   60.0100   28.6650   49.2940 C   0  0  0  0  0  0  0  0  0  0  0  0
   58.8500   29.6450   49.5510 C   0  0  0  0  0  0  0  0  0  0  0  0
   59.1040   30.6660   50.6130 N   0  0  0  0  0  0  0  0  0  0  0  0
   58.2930   30.3980   51.8260 C   0  0  0  0  0  0  0  0  0  0  0  0
   58.8210   32.0360   50.1150 C   0  0  0  0  0  0  0  0  0  0  0  0
   60.5380   30.5930   50.9860 C   0  0  0  0  0  0  0  0  0  0  0  0
   59.8680   31.3450   46.6150 C   0  0  0  0  0  0  0  0  0  0  0  0
   60.9060   31.3900   47.6090 N   0  0  0  0  0  0  0  0  0  0  0  0
   62.3160   31.4850   47.2280 C   0  0  0  0  0  0  0  0  0  0  0  0
   63.0330   32.5470   48.0680 C   0  0  0  0  0  0  0  0  0  0  0  0
   62.2530   32.8760   49.2810 N   0  0  0  0  0  0  0  0  0  0  0  0
   61.6530   34.2200   49.1820 C   0  0  0  0  0  0  0  0  0  0  0  0
   63.1160   32.8120   50.4710 C   0  0  0  0  0  0  0  0  0  0  0  0
   59.4610   32.5430   45.9950 C   0  0  0  0  0  0  0  0  0  0  0  0
   60.0790   33.7740   46.3110 C   0  0  0  0  0  0  0  0  0  0  0  0
   59.6230   34.9680   45.7560 C   0  0  0  0  0  0  0  0  0  0  0  0
   58.5460   34.9600   44.8810 C   0  0  0  0  0  0  0  0  0  0  0  0
   57.9530   33.7540   44.5120 C   0  0  0  0  0  0  0  0  0  0  0  0
   58.4330   32.5160   45.0160 C   0  0  0  0  0  0  0  0  0  0  0  0
   57.9340   31.3110   44.5720 N   0  0  0  0  0  0  0  0  0  0  0  0
   57.1130   31.2720   43.3390 C   0  0  0  0  0  0  0  0  0  0  0  0
   55.3623   23.3594   48.4057 H   0  0  0  0  0  0  0  0  0  0  0  0
   54.4076   23.3684   46.8842 H   0  0  0  0  0  0  0  0  0  0  0  0
   56.0914   22.7427   46.8842 H   0  0  0  0  0  0  0  0  0  0  0  0
   54.8254   25.9696   45.5939 H   0  0  0  0  0  0  0  0  0  0  0  0
   56.4967   25.5334   45.1009 H   0  0  0  0  0  0  0  0  0  0  0  0
   55.2056   24.2846   45.1009 H   0  0  0  0  0  0  0  0  0  0  0  0
   57.6197   25.9634   47.5444 H   0  0  0  0  0  0  0  0  0  0  0  0
   57.6498   24.2072   48.0016 H   0  0  0  0  0  0  0  0  0  0  0  0
   58.2207   23.5148   45.8435 H   0  0  0  0  0  0  0  0  0  0  0  0
   57.6531   25.0746   45.1035 H   0  0  0  0  0  0  0  0  0  0  0  0
   60.2656   24.4254   46.4668 H   0  0  0  0  0  0  0  0  0  0  0  0
   59.9362   25.3801   44.9755 H   0  0  0  0  0  0  0  0  0  0  0  0
   60.2540   26.3870   47.6230 H   0  0  0  0  0  0  0  0  0  0  0  0
   57.5052   26.7856   45.1491 H   0  0  0  0  0  0  0  0  0  0  0  0
   56.7150   28.9476   44.2545 H   0  0  0  0  0  0  0  0  0  0  0  0
   59.6590   27.6326   49.4392 H   0  0  0  0  0  0  0  0  0  0  0  0
   60.8312   28.8705   49.9964 H   0  0  0  0  0  0  0  0  0  0  0  0
   58.6387   30.1764   48.6113 H   0  0  0  0  0  0  0  0  0  0  0  0
   58.0078   29.0346   49.9090 H   0  0  0  0  0  0  0  0  0  0  0  0
   58.8977   30.5978   52.7229 H   0  0  0  0  0  0  0  0  0  0  0  0
   57.4082   31.0515   51.8273 H   0  0  0  0  0  0  0  0  0  0  0  0
   57.9718   29.3459   51.8273 H   0  0  0  0  0  0  0  0  0  0  0  0
   58.6808   32.7149   50.9691 H   0  0  0  0  0  0  0  0  0  0  0  0
   59.6659   32.3857   49.5035 H   0  0  0  0  0  0  0  0  0  0  0  0
   57.9067   32.0223   49.5035 H   0  0  0  0  0  0  0  0  0  0  0  0
   60.6320   30.5882   52.0820 H   0  0  0  0  0  0  0  0  0  0  0  0
   60.9770   29.6713   50.5763 H   0  0  0  0  0  0  0  0  0  0  0  0
   61.0683   31.4653   50.5763 H   0  0  0  0  0  0  0  0  0  0  0  0
   60.6350   31.5750   48.6030 H   0  0  0  0  0  0  0  0  0  0  0  0
   62.8000   30.5103   47.3884 H   0  0  0  0  0  0  0  0  0  0  0  0
   62.3776   31.7715   46.1677 H   0  0  0  0  0  0  0  0  0  0  0  0
   64.0197   32.1637   48.3673 H   0  0  0  0  0  0  0  0  0  0  0  0
   63.1424   33.4589   47.4626 H   0  0  0  0  0  0  0  0  0  0  0  0
   61.4755   34.6176   50.1921 H   0  0  0  0  0  0  0  0  0  0  0  0
   62.3382   34.8884   48.6400 H   0  0  0  0  0  0  0  0  0  0  0  0
   60.6979   34.1562   48.6400 H   0  0  0  0  0  0  0  0  0  0  0  0
   62.4946   32.8581   51.3775 H   0  0  0  0  0  0  0  0  0  0  0  0
   63.6829   31.8694   50.4626 H   0  0  0  0  0  0  0  0  0  0  0  0
   63.8157   33.6607   50.4626 H   0  0  0  0  0  0  0  0  0  0  0  0
   60.9322   33.7898   47.0051 H   0  0  0  0  0  0  0  0  0  0  0  0
   60.1169   35.9171   46.0115 H   0  0  0  0  0  0  0  0  0  0  0  0
   58.1595   35.9076   44.4778 H   0  0  0  0  0  0  0  0  0  0  0  0
   57.0989   33.7611   43.8188 H   0  0  0  0  0  0  0  0  0  0  0  0
   56.0479   31.2214   43.6091 H   0  0  0  0  0  0  0  0  0  0  0  0
   57.2982   32.1800   42.7463 H   0  0  0  0  0  0  0  0  0  0  0  0
   57.3834   30.3857   42.7463 H   0  0  0  0  0  0  0  0  0  0  0  0
  1  2  1  0
  2  3  1  0
  2  4  1  0
  4  5  1  0
  5  6  1  0
  6  7  1  0
  7  8  1  0
  8  9  2  0
  9 10  1  0
 10 11  2  0
 11 12  1  0
 12 13  2  0
 13 14  1  0
 14 15  1  0
 15 16  1  0
 16 17  1  0
 17 18  1  0
 17 19  1  0
 17 20  1  0
 12 21  1  0
 21 22  1  0
 22 23  1  0
 23 24  1  0
 24 25  1  0
 25 26  1  0
 25 27  1  0
 21 28  2  0
 28 29  1  0
 29 30  2  0
 30 31  1  0
 31 32  2  0
 32 33  1  0
 33 34  2  0
 34 35  1  0
 13  8  1  0
 33 28  1  0
 34 11  1  0
  1 36  1  0
  1 37  1  0
  1 38  1  0
  3 39  1  0
  3 40  1  0
  3 41  1  0
  4 42  1  0
  4 43  1  0
  5 44  1  0
  5 45  1  0
  6 46  1  0
  6 47  1  0
  7 48  1  0
  9 49  1  0
 10 50  1  0
 15 51  1  0
 15 52  1  0
 16 53  1  0
 16 54  1  0
 18 55  1  0
 18 56  1  0
 18 57  1  0
 19 58  1  0
 19 59  1  0
 19 60  1  0
 20 61  1  0
 20 62  1  0
 20 63  1  0
 22 64  1  0
 23 65  1  0
 23 66  1  0
 24 67  1  0
 24 68  1  0
 26 69  1  0
 26 70  1  0
 26 71  1  0
 27 72  1  0
 27 73  1  0
 27 74  1  0
 29 75  1  0
 30 76  1  0
 31 77  1  0
 32 78  1  0
 35 79  1  0
 35 80  1  0
 35 81  1  0
M  CHG  2  17   1  34   1
M  END
>  <UniqueID>  (7) 
7

>  <SMILES>  (7) 
CN(C)CCCNc1ccc2c(c1OCC[N+](C)(C)C)c(NCCN(C)C)c1ccccc1[n+]2C

>  <Energy>  (7) 
118.57984182702974

>  <Genealogy>  (7) 
CN(C)CCCNc1ccc2c(c1OCC[N+](C)(C)C)c(NCCN(C)C)c1ccccc1[n+]2C (3D coordinates assigned)
CN(C)CCCNc1ccc2c(c1OCC[N+](C)(C)C)c(NCCN(C)C)c1ccccc1[n+]2C (optimized conformer: 118.57984182702974 kcal/mol)

>  <smiles>  (7) 
CN(C)CCCNc1ccc2c(c1OCC[N+](C)(C)C)c(NCCN(C)C)c1ccccc1[n+]2C

>  <score_type>  (7) 
oracle

>  <origin>  (7) 
adg

>  <m_score__min__energy>  (7) 
-4.4699999999999998

>  <m_primary>  (7) 
energy

$$$$
7:0
     RDKit          3D

 54 55  0  0  0  0  0  0  0  0999 V2000
   59.2120   30.6940   49.0750 C   0  0  0  0  0  0  0  0  0  0  0  0
   59.0110   29.3830   48.3210 C   0  0  0  0  0  0  0  0  0  0  0  0
   59.0800   29.6020   46.9240 O   0  0  0  0  0  0  0  0  0  0  0  0
   60.3880   29.3830   46.4280 C   0  0  0  0  0  0  0  0  0  0  0  0
   60.3420   28.9260   44.9670 C   0  0  0  0  0  0  0  0  0  0  0  0
   59.0110   28.9420   44.4820 O   0  0  0  0  0  0  0  0  0  0  0  0
   58.4980   27.6310   44.3350 C   0  0  0  0  0  0  0  0  0  0  0  0
   57.2230   27.4640   45.1790 C   0  0  0  0  0  0  0  0  0  0  0  0
   56.6540   28.7530   45.6020 N   0  0  0  0  0  0  0  0  0  0  0  0
   55.8960   29.4130   44.5260 C   0  0  0  0  0  0  0  0  0  0  0  0
   56.5080   30.7800   44.1860 C   0  0  2  0  0  0  0  0  0  0  0  0
   57.1070   30.8130   42.7630 C   0  0  0  0  0  0  0  0  0  0  0  0
   58.1120   31.9630   42.6000 C   0  0  0  0  0  0  0  0  0  0  0  0
   57.8680   33.0610   43.6370 C   0  0  0  0  0  0  0  0  0  0  0  0
   57.9190   32.4740   45.0890 C   0  0  0  0  0  0  0  0  0  0  0  0
   59.3990   32.4930   45.5930 C   0  0  0  0  0  0  0  0  0  0  0  0
   59.7460   33.7750   46.3610 C   0  0  0  0  0  0  0  0  0  0  0  0
   58.8800   33.9250   47.6260 C   0  0  0  0  0  0  0  0  0  0  0  0
   57.4820   33.2930   47.4820 C   0  0  0  0  0  0  0  0  0  0  0  0
   57.0040   33.3280   46.0260 C   0  0  0  0  0  0  0  0  0  0  0  0
   57.4940   31.1080   45.1510 O   0  0  0  0  0  0  0  0  0  0  0  0
   59.1826   30.5024   50.1578 H   0  0  0  0  0  0  0  0  0  0  0  0
   60.1869   31.1263   48.8054 H   0  0  0  0  0  0  0  0  0  0  0  0
   58.4114   31.3985   48.8054 H   0  0  0  0  0  0  0  0  0  0  0  0
   59.7963   28.6713   48.6156 H   0  0  0  0  0  0  0  0  0  0  0  0
   58.0198   28.9763   48.5701 H   0  0  0  0  0  0  0  0  0  0  0  0
   60.9616   30.3191   46.4959 H   0  0  0  0  0  0  0  0  0  0  0  0
   60.8682   28.5974   47.0299 H   0  0  0  0  0  0  0  0  0  0  0  0
   60.9575   29.6033   44.3567 H   0  0  0  0  0  0  0  0  0  0  0  0
   60.7304   27.8988   44.9040 H   0  0  0  0  0  0  0  0  0  0  0  0
   58.2597   27.4502   43.2764 H   0  0  0  0  0  0  0  0  0  0  0  0
   59.2534   26.9085   44.6776 H   0  0  0  0  0  0  0  0  0  0  0  0
   56.4723   26.9263   44.5813 H   0  0  0  0  0  0  0  0  0  0  0  0
   57.4941   26.9046   46.0865 H   0  0  0  0  0  0  0  0  0  0  0  0
   57.4340   29.3780   45.9120 H   0  0  0  0  0  0  0  0  0  0  0  0
   55.9148   28.7765   43.6291 H   0  0  0  0  0  0  0  0  0  0  0  0
   54.8611   29.5652   44.8664 H   0  0  0  0  0  0  0  0  0  0  0  0
   55.7030   31.5293   44.2090 H   0  0  0  0  0  0  0  0  0  0  0  0
   57.6206   29.8597   42.5695 H   0  0  0  0  0  0  0  0  0  0  0  0
   56.2863   30.9688   42.0474 H   0  0  0  0  0  0  0  0  0  0  0  0
   59.1314   31.5696   42.7269 H   0  0  0  0  0  0  0  0  0  0  0  0
   57.9861   32.3966   41.5969 H   0  0  0  0  0  0  0  0  0  0  0  0
   58.6432   33.8344   43.5329 H   0  0  0  0  0  0  0  0  0  0  0  0
   56.8712   33.4936   43.4656 H   0  0  0  0  0  0  0  0  0  0  0  0
   59.5554   31.6310   46.2581 H   0  0  0  0  0  0  0  0  0  0  0  0
   60.0519   32.4481   44.7089 H   0  0  0  0  0  0  0  0  0  0  0  0
   60.8055   33.7404   46.6548 H   0  0  0  0  0  0  0  0  0  0  0  0
   59.5506   34.6354   45.7040 H   0  0  0  0  0  0  0  0  0  0  0  0
   59.3991   33.4385   48.4649 H   0  0  0  0  0  0  0  0  0  0  0  0
   58.7362   35.0019   47.7983 H   0  0  0  0  0  0  0  0  0  0  0  0
   57.5246   32.2472   47.8204 H   0  0  0  0  0  0  0  0  0  0  0  0
   56.7742   33.8709   48.0945 H   0  0  0  0  0  0  0  0  0  0  0  0
   55.9790   32.9317   45.9790 H   0  0  0  0  0  0  0  0  0  0  0  0
   57.0431   34.3715   45.6803 H   0  0  0  0  0  0  0  0  0  0  0  0
  1  2  1  0
  2  3  1  0
  3  4  1  0
  4  5  1  0
  5  6  1  0
  6  7  1  0
  7  8  1  0
  8  9  1  0
  9 10  1  0
 10 11  1  0
 11 12  1  0
 12 13  1  0
 13 14  1  0
 14 15  1  0
 15 16  1  0
 16 17  1  0
 17 18  1  0
 18 19  1  0
 19 20  1  0
 15 21  1  0
 21 11  1  0
 20 15  1  0
  1 22  1  0
  1 23  1  0
  1 24  1  0
  2 25  1  0
  2 26  1  0
  4 27  1  0
  4 28  1  0
  5 29  1  0
  5 30  1  0
  7 31  1  0
  7 32  1  0
  8 33  1  0
  8 34  1  0
  9 35  1  0
 10 36  1  0
 10 37  1  0
 11 38  1  6
 12 39  1  0
 12 40  1  0
 13 41  1  0
 13 42  1  0
 14 43  1  0
 14 44  1  0
 16 45  1  0
 16 46  1  0
 17 47  1  0
 17 48  1  0
 18 49  1  0
 18 50  1  0
 19 51  1  0
 19 52  1  0
 20 53  1  0
 20 54  1  0
M  END
>  <UniqueID>  (8) 
8

>  <SMILES>  (8) 
CCOCCOCCNC[C@@H]1CCCC2(CCCCC2)O1

>  <Energy>  (8) 
63.563946458584795

>  <Genealogy>  (8) 
CCOCCOCCNC[C@@H]1CCCC2(CCCCC2)O1 (chirality)
CCOCCOCCNC[C@@H]1CCCC2(CCCCC2)O1 (3D coordinates assigned)
CCOCCOCCNC[C@@H]1CCCC2(CCCCC2)O1 (nonaromatic ring conformer: 63.563946458584795 kcal/mol)

>  <smiles>  (8) 
CCOCCOCCNCC1CCCC2(CCCCC2)O1

>  <score_type>  (8) 
oracle

>  <origin>  (8) 
adg

>  <m_score__min__energy>  (8) 
-6.7199999999999998

>  <m_primary>  (8) 
energy

$$$$
8:0
     RDKit          3D

 58 60  0  0  0  0  0  0  0  0999 V2000
   62.4580   33.1720   47.1160 C   0  0  0  0  0  0  0  0  0  0  0  0
   62.1210   33.9130   48.4060 C   0  0  0  0  0  0  0  0  0  0  0  0
   60.7280   34.2170   48.4620 O   0  0  0  0  0  0  0  0  0  0  0  0
   59.8320   34.1880   47.3780 C   0  0  0  0  0  0  0  0  0  0  0  0
   59.9950   35.0180   46.2490 C   0  0  0  0  0  0  0  0  0  0  0  0
   59.0830   34.9640   45.1930 C   0  0  0  0  0  0  0  0  0  0  0  0
   58.0020   34.0850   45.2460 C   0  0  0  0  0  0  0  0  0  0  0  0
   57.8280   33.2570   46.3540 C   0  0  0  0  0  0  0  0  0  0  0  0
   58.7300   33.3050   47.4300 C   0  0  0  0  0  0  0  0  0  0  0  0
   58.5230   32.3870   48.6210 C   0  0  0  0  0  0  0  0  0  0  0  0
   59.1830   31.0700   48.4950 N   0  0  0  0  0  0  0  0  0  0  0  0
   59.9130   30.6580   49.6970 C   0  0  0  0  0  0  0  0  0  0  0  0
   60.1710   29.1440   49.6420 C   0  0  0  0  0  0  0  0  0  0  0  0
   60.2830   28.5960   48.2600 N   0  0  0  0  0  0  0  0  0  0  0  0
   59.0990   27.8030   47.8340 C   0  0  0  0  0  0  0  0  0  0  0  0
   59.3900   26.7400   46.7990 C   0  0  0  0  0  0  0  0  0  0  0  0
   60.3880   26.0460   46.9270 O   0  0  0  0  0  0  0  0  0  0  0  0
   58.4530   26.5300   45.6290 C   0  0  0  0  0  0  0  0  0  0  0  0
   57.1370   27.3220   45.7370 C   0  0  0  0  0  0  0  0  0  0  0  0
   57.2170   28.6550   45.0340 C   0  0  0  0  0  0  0  0  0  0  0  0
   56.0400   29.3250   44.6560 C   0  0  0  0  0  0  0  0  0  0  0  0
   56.1070   30.5640   44.0120 C   0  0  0  0  0  0  0  0  0  0  0  0
   57.3480   31.1470   43.7410 C   0  0  0  0  0  0  0  0  0  0  0  0
   58.5240   30.4870   44.1100 C   0  0  0  0  0  0  0  0  0  0  0  0
   58.4620   29.2450   44.7510 C   0  0  0  0  0  0  0  0  0  0  0  0
   60.7500   29.5760   47.2440 C   0  0  0  0  0  0  0  0  0  0  0  0
   60.0390   30.9500   47.3040 C   0  0  0  0  0  0  0  0  0  0  0  0
   62.9021   32.1955   47.3594 H   0  0  0  0  0  0  0  0  0  0  0  0
   61.5399   33.0212   46.5292 H   0  0  0  0  0  0  0  0  0  0  0  0
   63.1750   33.7649   46.5292 H   0  0  0  0  0  0  0  0  0  0  0  0
   62.3879   33.2812   49.2660 H   0  0  0  0  0  0  0  0  0  0  0  0
   62.6904   34.8538   48.4334 H   0  0  0  0  0  0  0  0  0  0  0  0
   60.8465   35.7126   46.2002 H   0  0  0  0  0  0  0  0  0  0  0  0
   59.2177   35.6163   44.3175 H   0  0  0  0  0  0  0  0  0  0  0  0
   57.2854   34.0448   44.4124 H   0  0  0  0  0  0  0  0  0  0  0  0
   56.9774   32.5603   46.3860 H   0  0  0  0  0  0  0  0  0  0  0  0
   58.9214   32.8880   49.5156 H   0  0  0  0  0  0  0  0  0  0  0  0
   57.4421   32.1932   48.6857 H   0  0  0  0  0  0  0  0  0  0  0  0
   60.8731   31.1927   49.7449 H   0  0  0  0  0  0  0  0  0  0  0  0
   59.3168   30.8975   50.5898 H   0  0  0  0  0  0  0  0  0  0  0  0
   61.1105   28.9340   50.1742 H   0  0  0  0  0  0  0  0  0  0  0  0
   59.3015   28.6567   50.1072 H   0  0  0  0  0  0  0  0  0  0  0  0
   61.0500   27.8820   48.3100 H   0  0  0  0  0  0  0  0  0  0  0  0
   58.6790   27.3098   48.7230 H   0  0  0  0  0  0  0  0  0  0  0  0
   58.4026   28.5126   47.3634 H   0  0  0  0  0  0  0  0  0  0  0  0
   58.9708   26.8414   44.7098 H   0  0  0  0  0  0  0  0  0  0  0  0
   58.1851   25.4631   45.6205 H   0  0  0  0  0  0  0  0  0  0  0  0
   56.3285   26.7299   45.2835 H   0  0  0  0  0  0  0  0  0  0  0  0
   56.9429   27.5124   46.8029 H   0  0  0  0  0  0  0  0  0  0  0  0
   55.0606   28.8715   44.8683 H   0  0  0  0  0  0  0  0  0  0  0  0
   55.1815   31.0809   43.7181 H   0  0  0  0  0  0  0  0  0  0  0  0
   57.3994   32.1239   43.2380 H   0  0  0  0  0  0  0  0  0  0  0  0
   59.5007   30.9455   43.8957 H   0  0  0  0  0  0  0  0  0  0  0  0
   59.3905   28.7279   45.0347 H   0  0  0  0  0  0  0  0  0  0  0  0
   61.8274   29.7397   47.3941 H   0  0  0  0  0  0  0  0  0  0  0  0
   60.5139   29.1439   46.2604 H   0  0  0  0  0  0  0  0  0  0  0  0
   60.7999   31.7439   47.3308 H   0  0  0  0  0  0  0  0  0  0  0  0
   59.4009   31.0443   46.4130 H   0  0  0  0  0  0  0  0  0  0  0  0
  1  2  1  0
  2  3  1  0
  3  4  1  0
  4  5  2  0
  5  6  1  0
  6  7  2  0
  7  8  1  0
  8  9  2  0
  9 10  1  0
 10 11  1  0
 11 12  1  0
 12 13  1  0
 13 14  1  0
 14 15  1  0
 15 16  1  0
 16 17  2  0
 16 18  1  0
 18 19  1  0
 19 20  1  0
 20 21  2  0
 21 22  1  0
 22 23  2  0
 23 24  1  0
 24 25  2  0
 14 26  1  0
 26 27  1  0
  9  4  1  0
 27 11  1  0
 25 20  1  0
  1 28  1  0
  1 29  1  0
  1 30  1  0
  2 31  1  0
  2 32  1  0
  5 33  1  0
  6 34  1  0
  7 35  1  0
  8 36  1  0
 10 37  1  0
 10 38  1  0
 12 39  1  0
 12 40  1  0
 13 41  1  0
 13 42  1  0
 14 43  1  0
 15 44  1  0
 15 45  1  0
 18 46  1  0
 18 47  1  0
 19 48  1  0
 19 49  1  0
 21 50  1  0
 22 51  1  0
 23 52  1  0
 24 53  1  0
 25 54  1  0
 26 55  1  0
 26 56  1  0
 27 57  1  0
 27 58  1  0
M  CHG  1  14   1
M  END
>  <UniqueID>  (9) 
9

>  <SMILES>  (9) 
CCOc1ccccc1CN1CC[NH+](CC(=O)CCc2ccccc2)CC1

>  <Energy>  (9) 
70.60216711345406

>  <Genealogy>  (9) 
CCOc1ccccc1CN1CC[NH+](CC(=O)CCc2ccccc2)CC1 (protonated)
CCOc1ccccc1CN1CC[NH+](CC(=O)CCc2ccccc2)CC1 (3D coordinates assigned)
CCOc1ccccc1CN1CC[NH+](CC(=O)CCc2ccccc2)CC1 (nonaromatic ring conformer: 70.60216711345406 kcal/mol)

>  <smiles>  (9) 
CCOc1ccccc1CN1CCN(CC(=O)CCc2ccccc2)CC1

>  <score_type>  (9) 
oracle

>  <origin>  (9) 
adg

>  <m_score__min__energy>  (9) 
-6.2199999999999998

>  <m_primary>  (9) 
energy

$$$$
9:0
     RDKit          3D

 91 95  0  0  0  0  0  0  0  0999 V2000
   60.3310   26.3120   46.3790 C   0  0  0  0  0  0  0  0  0  0  0  0
   58.8640   26.4030   46.7910 C   0  0  0  0  0  0  0  0  0  0  0  0
   58.0400   26.8680   45.6540 N   0  0  0  0  0  0  0  0  0  0  0  0
   57.1960   25.7750   45.1220 C   0  0  0  0  0  0  0  0  0  0  0  0
   55.9470   25.6030   45.9820 C   0  0  0  0  0  0  0  0  0  0  0  0
   58.8810   27.4650   44.5920 C   0  0  0  0  0  0  0  0  0  0  0  0
   59.0850   28.9580   44.8680 C   0  0  0  0  0  0  0  0  0  0  0  0
   58.3800   29.3720   46.0820 N   0  0  0  0  0  0  0  0  0  0  0  0
   58.8120   30.5350   46.8030 C   0  0  0  0  0  0  0  0  0  0  0  0
   58.5640   31.8190   46.2930 C   0  0  0  0  0  0  0  0  0  0  0  0
   58.0160   31.9890   45.0050 C   0  0  0  0  0  0  0  0  0  0  0  0
   57.8210   33.2630   44.4780 C   0  0  0  0  0  0  0  0  0  0  0  0
   58.1780   34.3830   45.2190 C   0  0  0  0  0  0  0  0  0  0  0  0
   58.7180   34.2400   46.4970 C   0  0  0  0  0  0  0  0  0  0  0  0
   58.9040   32.9560   47.0730 C   0  0  0  0  0  0  0  0  0  0  0  0
   59.4210   32.7930   48.3440 N   0  0  0  0  0  0  0  0  0  0  0  0
   59.5000   33.9500   49.2620 C   0  0  0  0  0  0  0  0  0  0  0  0
   59.8510   31.5470   48.7610 C   0  0  0  0  0  0  0  0  0  0  0  0
   60.6450   31.3810   49.9240 C   0  0  0  0  0  0  0  0  0  0  0  0
   61.0810   30.1100   50.3340 C   0  0  0  0  0  0  0  0  0  0  0  0
   61.9270   29.9210   51.4390 O   0  0  0  0  0  0  0  0  0  0  0  0
   62.1100   28.6950   52.1530 C   0  0  0  0  0  0  0  0  0  0  0  0
   63.5560   28.1560   51.9800 C   0  0  0  0  0  0  0  0  0  0  0  0
   64.6450   28.8780   52.7220 N   0  0  1  0  0  0  0  0  0  0  0  0
   65.1500   28.0270   53.8360 C   0  0  0  0  0  0  0  0  0  0  0  0
   65.7710   29.0950   51.7530 C   0  0  0  0  0  0  0  0  0  0  0  0
   66.6670   30.2910   52.1380 C   0  0  0  0  0  0  0  0  0  0  0  0
   65.9230   31.5990   52.1610 N   0  0  1  0  0  0  0  0  0  0  0  0
   66.4450   32.4080   53.2960 C   0  0  0  0  0  0  0  0  0  0  0  0
   66.1770   32.3160   50.8650 C   0  0  0  0  0  0  0  0  0  0  0  0
   64.9250   32.7610   50.1130 C   0  0  0  0  0  0  0  0  0  0  0  0
   64.4870   32.0040   49.0060 C   0  0  0  0  0  0  0  0  0  0  0  0
   63.3490   32.3760   48.2870 C   0  0  0  0  0  0  0  0  0  0  0  0
   62.6120   33.4940   48.6750 C   0  0  0  0  0  0  0  0  0  0  0  0
   62.9990   34.2280   49.7970 C   0  0  0  0  0  0  0  0  0  0  0  0
   64.1390   33.8670   50.5270 C   0  0  0  0  0  0  0  0  0  0  0  0
   64.4800   34.7800   51.9950 Cl  0  0  0  0  0  0  0  0  0  0  0  0
   64.4560   31.3780   52.3470 C   0  0  0  0  0  0  0  0  0  0  0  0
   64.1530   30.1850   53.2720 C   0  0  0  0  0  0  0  0  0  0  0  0
   60.7070   28.9890   49.6000 C   0  0  0  0  0  0  0  0  0  0  0  0
   59.9270   29.1210   48.4550 C   0  0  0  0  0  0  0  0  0  0  0  0
   59.5240   30.3930   48.0030 C   0  0  0  0  0  0  0  0  0  0  0  0
   60.9628   26.2728   47.2786 H   0  0  0  0  0  0  0  0  0  0  0  0
   60.4881   25.4024   45.7807 H   0  0  0  0  0  0  0  0  0  0  0  0
   60.5993   27.1952   45.7807 H   0  0  0  0  0  0  0  0  0  0  0  0
   58.5144   25.4102   47.1105 H   0  0  0  0  0  0  0  0  0  0  0  0
   58.7685   27.1204   47.6194 H   0  0  0  0  0  0  0  0  0  0  0  0
   56.8965   26.0167   44.0915 H   0  0  0  0  0  0  0  0  0  0  0  0
   57.7725   24.8383   45.1373 H   0  0  0  0  0  0  0  0  0  0  0  0
   56.2259   25.6414   47.0454 H   0  0  0  0  0  0  0  0  0  0  0  0
   55.2349   26.4116   45.7602 H   0  0  0  0  0  0  0  0  0  0  0  0
   55.4800   24.6321   45.7602 H   0  0  0  0  0  0  0  0  0  0  0  0
   59.8583   26.9604   44.5734 H   0  0  0  0  0  0  0  0  0  0  0  0
   58.3806   27.3408   43.6203 H   0  0  0  0  0  0  0  0  0  0  0  0
   60.1598   29.1566   44.9916 H   0  0  0  0  0  0  0  0  0  0  0  0
   58.6809   29.5281   44.0185 H   0  0  0  0  0  0  0  0  0  0  0  0
   57.4790   28.9190   46.3570 H   0  0  0  0  0  0  0  0  0  0  0  0
   57.7396   31.1059   44.4103 H   0  0  0  0  0  0  0  0  0  0  0  0
   57.3845   33.3828   43.4754 H   0  0  0  0  0  0  0  0  0  0  0  0
   58.0339   35.3879   44.7953 H   0  0  0  0  0  0  0  0  0  0  0  0
   59.0041   35.1360   47.0674 H   0  0  0  0  0  0  0  0  0  0  0  0
   59.4757   33.5946   50.3027 H   0  0  0  0  0  0  0  0  0  0  0  0
   60.4376   34.4967   49.0830 H   0  0  0  0  0  0  0  0  0  0  0  0
   58.6454   34.6191   49.0830 H   0  0  0  0  0  0  0  0  0  0  0  0
   60.9250   32.2644   50.5166 H   0  0  0  0  0  0  0  0  0  0  0  0
   61.9176   28.8699   53.2218 H   0  0  0  0  0  0  0  0  0  0  0  0
   61.4092   27.9489   51.7502 H   0  0  0  0  0  0  0  0  0  0  0  0
   63.5626   27.1088   52.3167 H   0  0  0  0  0  0  0  0  0  0  0  0
   63.7902   28.3013   50.9151 H   0  0  0  0  0  0  0  0  0  0  0  0
   64.8786   28.4844   54.7989 H   0  0  0  0  0  0  0  0  0  0  0  0
   64.6997   27.0258   53.7658 H   0  0  0  0  0  0  0  0  0  0  0  0
   66.2445   27.9425   53.7658 H   0  0  0  0  0  0  0  0  0  0  0  0
   66.3904   28.1864   51.7242 H   0  0  0  0  0  0  0  0  0  0  0  0
   65.3263   29.3159   50.7715 H   0  0  0  0  0  0  0  0  0  0  0  0
   67.0853   30.1079   53.1388 H   0  0  0  0  0  0  0  0  0  0  0  0
   67.4534   30.3729   51.3732 H   0  0  0  0  0  0  0  0  0  0  0  0
   66.1448   31.9428   54.2465 H   0  0  0  0  0  0  0  0  0  0  0  0
   67.5427   32.4526   53.2402 H   0  0  0  0  0  0  0  0  0  0  0  0
   66.0333   33.4265   53.2402 H   0  0  0  0  0  0  0  0  0  0  0  0
   66.7791   33.2104   51.0831 H   0  0  0  0  0  0  0  0  0  0  0  0
   66.6859   31.5931   50.2104 H   0  0  0  0  0  0  0  0  0  0  0  0
   65.0498   31.1081   48.7049 H   0  0  0  0  0  0  0  0  0  0  0  0
   63.0338   31.7862   47.4136 H   0  0  0  0  0  0  0  0  0  0  0  0
   61.7264   33.7972   48.0973 H   0  0  0  0  0  0  0  0  0  0  0  0
   62.4036   35.0979   50.1111 H   0  0  0  0  0  0  0  0  0  0  0  0
   64.0152   32.2854   52.7855 H   0  0  0  0  0  0  0  0  0  0  0  0
   64.0235   31.1549   51.3605 H   0  0  0  0  0  0  0  0  0  0  0  0
   64.6386   30.3619   54.2430 H   0  0  0  0  0  0  0  0  0  0  0  0
   63.0596   30.1116   53.3676 H   0  0  0  0  0  0  0  0  0  0  0  0
   61.0305   27.9899   49.9274 H   0  0  0  0  0  0  0  0  0  0  0  0
   59.6221   28.2232   47.8974 H   0  0  0  0  0  0  0  0  0  0  0  0
  1  2  1  0
  2  3  1  0
  3  4  1  0
  4  5  1  0
  3  6  1  0
  6  7  1  0
  7  8  1  0
  8  9  1  0
  9 10  2  0
 10 11  1  0
 11 12  2  0
 12 13  1  0
 13 14  2  0
 14 15  1  0
 15 16  2  0
 16 17  1  0
 16 18  1  0
 18 19  2  0
 19 20  1  0
 20 21  1  0
 21 22  1  0
 22 23  1  0
 24 23  1  6
 24 25  1  0
 24 26  1  0
 26 27  1  0
 27 28  1  0
 28 29  1  1
 28 30  1  0
 30 31  1  0
 31 32  2  0
 32 33  1  0
 33 34  2  0
 34 35  1  0
 35 36  2  0
 36 37  1  0
 28 38  1  0
 38 39  1  0
 20 40  2  0
 40 41  1  0
 41 42  2  0
 42  9  1  0
 15 10  1  0
 42 18  1  0
 39 24  1  0
 36 31  1  0
  1 43  1  0
  1 44  1  0
  1 45  1  0
  2 46  1  0
  2 47  1  0
  4 48  1  0
  4 49  1  0
  5 50  1  0
  5 51  1  0
  5 52  1  0
  6 53  1  0
  6 54  1  0
  7 55  1  0
  7 56  1  0
  8 57  1  0
 11 58  1  0
 12 59  1  0
 13 60  1  0
 14 61  1  0
 17 62  1  0
 17 63  1  0
 17 64  1  0
 19 65  1  0
 22 66  1  0
 22 67  1  0
 23 68  1  0
 23 69  1  0
 25 70  1  0
 25 71  1  0
 25 72  1  0
 26 73  1  0
 26 74  1  0
 27 75  1  0
 27 76  1  0
 29 77  1  0
 29 78  1  0
 29 79  1  0
 30 80  1  0
 30 81  1  0
 32 82  1  0
 33 83  1  0
 34 84  1  0
 35 85  1  0
 38 86  1  0
 38 87  1  0
 39 88  1  0
 39 89  1  0
 40 90  1  0
 41 91  1  0
M  CHG  3  16   1  24   1  28   1
M  END
>  <UniqueID>  (10) 
10

>  <SMILES>  (10) 
CCN(CC)CCNc1c2ccccc2[n+](C)c2cc(OCC[N+]3(C)CC[N+](C)(Cc4ccccc4Cl)CC3)ccc12

>  <Energy>  (10) 
159.29491004050885

>  <Genealogy>  (10) 
CCN(CC)CCNc1c2ccccc2[n+](C)c2cc(OCC[N+]3(C)CC[N+](C)(Cc4ccccc4Cl)CC3)ccc12 (3D coordinates assigned)
CCN(CC)CCNc1c2ccccc2[n+](C)c2cc(OCC[N+]3(C)CC[N+](C)(Cc4ccccc4Cl)CC3)ccc12 (nonaromatic ring conformer: 159.29491004050885 kcal/mol)

>  <smiles>  (10) 
CCN(CC)CCNc1c2ccccc2[n+](C)c2cc(OCC[N+]3(C)CC[N+](C)(Cc4ccccc4Cl)CC3)ccc12

>  <score_type>  (10) 
oracle

>  <origin>  (10) 
adg

>  <m_score__min__energy>  (10) 
-5.21

>  <m_primary>  (10) 
energy

$$$$
10:0
     RDKit          3D

 71 74  0  0  0  0  0  0  0  0999 V2000
   65.9790   32.0120   51.2370 C   0  0  0  0  0  0  0  0  0  0  0  0
   64.7600   32.7150   50.8040 N   0  0  0  0  0  0  0  0  0  0  0  0
   64.8590   33.0590   49.3640 C   0  0  0  0  0  0  0  0  0  0  0  0
   63.4780   33.3740   48.7680 C   0  0  0  0  0  0  0  0  0  0  0  0
   62.5260   32.2390   48.8960 N   0  0  0  0  0  0  0  0  0  0  0  0
   62.2450   31.5840   47.6010 C   0  0  0  0  0  0  0  0  0  0  0  0
   61.1540   32.3390   46.8340 C   0  0  0  0  0  0  0  0  0  0  0  0
   60.6360   33.4500   47.6460 N   0  0  0  0  0  0  0  0  0  0  0  0
   59.3430   33.9530   47.1470 C   0  0  0  0  0  0  0  0  0  0  0  0
   59.5170   34.9230   45.9460 C   0  0  0  0  0  0  0  0  0  0  0  0
   59.2640   34.2160   44.6100 C   0  0  0  0  0  0  0  0  0  0  0  0
   57.8800   33.6910   44.5200 N   0  0  0  0  0  0  0  0  0  0  0  0
   57.7740   32.7060   43.4240 C   0  0  0  0  0  0  0  0  0  0  0  0
   57.6310   31.3120   43.9800 C   0  0  0  0  0  0  0  0  0  0  0  0
   56.3790   30.6800   44.0070 C   0  0  0  0  0  0  0  0  0  0  0  0
   56.2570   29.3850   44.5160 C   0  0  0  0  0  0  0  0  0  0  0  0
   57.3810   28.7130   45.0020 C   0  0  0  0  0  0  0  0  0  0  0  0
   58.6430   29.3270   44.9840 C   0  0  0  0  0  0  0  0  0  0  0  0
   59.7830   28.6060   45.4910 N   0  0  0  0  0  0  0  0  0  0  0  0
   59.7200   27.7180   46.6530 C   0  0  0  0  0  0  0  0  0  0  0  0
   59.7410   28.5140   47.9310 C   0  0  0  0  0  0  0  0  0  0  0  0
   58.9550   29.6720   48.0580 C   0  0  0  0  0  0  0  0  0  0  0  0
   58.9440   30.3860   49.2610 C   0  0  0  0  0  0  0  0  0  0  0  0
   59.7060   29.9420   50.3460 C   0  0  0  0  0  0  0  0  0  0  0  0
   60.4770   28.7830   50.2310 C   0  0  0  0  0  0  0  0  0  0  0  0
   60.4920   28.0670   49.0300 C   0  0  0  0  0  0  0  0  0  0  0  0
   58.7600   30.6340   44.4690 C   0  0  0  0  0  0  0  0  0  0  0  0
   57.3460   33.1600   45.8050 C   0  0  0  0  0  0  0  0  0  0  0  0
   58.4510   32.7490   46.7870 C   0  0  0  0  0  0  0  0  0  0  0  0
   62.9280   31.2420   49.9130 C   0  0  0  0  0  0  0  0  0  0  0  0
   63.5400   31.9290   51.1420 C   0  0  0  0  0  0  0  0  0  0  0  0
   66.0184   31.9893   52.3361 H   0  0  0  0  0  0  0  0  0  0  0  0
   65.9660   30.9827   50.8492 H   0  0  0  0  0  0  0  0  0  0  0  0
   66.8634   32.5388   50.8492 H   0  0  0  0  0  0  0  0  0  0  0  0
   64.7180   33.6130   51.3420 H   0  0  0  0  0  0  0  0  0  0  0  0
   65.5077   33.9400   49.2500 H   0  0  0  0  0  0  0  0  0  0  0  0
   65.2786   32.1943   48.8289 H   0  0  0  0  0  0  0  0  0  0  0  0
   63.0590   34.2457   49.2920 H   0  0  0  0  0  0  0  0  0  0  0  0
   63.6164   33.5726   47.6950 H   0  0  0  0  0  0  0  0  0  0  0  0
   63.1647   31.5684   46.9978 H   0  0  0  0  0  0  0  0  0  0  0  0
   61.8954   30.5589   47.7932 H   0  0  0  0  0  0  0  0  0  0  0  0
   61.5768   32.7382   45.9003 H   0  0  0  0  0  0  0  0  0  0  0  0
   60.3301   31.6460   46.6082 H   0  0  0  0  0  0  0  0  0  0  0  0
   60.5340   33.1340   48.6400 H   0  0  0  0  0  0  0  0  0  0  0  0
   58.8573   34.5428   47.9383 H   0  0  0  0  0  0  0  0  0  0  0  0
   58.8034   35.7535   46.0514 H   0  0  0  0  0  0  0  0  0  0  0  0
   60.5529   35.2930   45.9492 H   0  0  0  0  0  0  0  0  0  0  0  0
   59.4274   34.9322   43.7913 H   0  0  0  0  0  0  0  0  0  0  0  0
   59.9584   33.3661   44.5352 H   0  0  0  0  0  0  0  0  0  0  0  0
   56.8935   32.9425   42.8085 H   0  0  0  0  0  0  0  0  0  0  0  0
   58.6873   32.7537   42.8128 H   0  0  0  0  0  0  0  0  0  0  0  0
   55.4909   31.2057   43.6263 H   0  0  0  0  0  0  0  0  0  0  0  0
   55.2733   28.8931   44.5342 H   0  0  0  0  0  0  0  0  0  0  0  0
   57.2762   27.6938   45.4023 H   0  0  0  0  0  0  0  0  0  0  0  0
   60.6990   28.7320   45.0030 H   0  0  0  0  0  0  0  0  0  0  0  0
   58.7913   27.1301   46.6086 H   0  0  0  0  0  0  0  0  0  0  0  0
   60.5943   27.0507   46.6368 H   0  0  0  0  0  0  0  0  0  0  0  0
   58.3468   30.0179   47.2092 H   0  0  0  0  0  0  0  0  0  0  0  0
   58.3353   31.2976   49.3534 H   0  0  0  0  0  0  0  0  0  0  0  0
   59.6983   30.5057   51.2906 H   0  0  0  0  0  0  0  0  0  0  0  0
   61.0733   28.4330   51.0865 H   0  0  0  0  0  0  0  0  0  0  0  0
   61.0942   27.1504   48.9459 H   0  0  0  0  0  0  0  0  0  0  0  0
   59.7432   31.1269   44.4499 H   0  0  0  0  0  0  0  0  0  0  0  0
   56.7289   33.9387   46.2770 H   0  0  0  0  0  0  0  0  0  0  0  0
   56.7602   32.2587   45.5715 H   0  0  0  0  0  0  0  0  0  0  0  0
   57.9892   32.3558   47.7047 H   0  0  0  0  0  0  0  0  0  0  0  0
   59.0757   31.9790   46.3107 H   0  0  0  0  0  0  0  0  0  0  0  0
   62.0426   30.6684   50.2247 H   0  0  0  0  0  0  0  0  0  0  0  0
   63.6826   30.5744   49.4715 H   0  0  0  0  0  0  0  0  0  0  0  0
   62.7915   32.6078   51.5767 H   0  0  0  0  0  0  0  0  0  0  0  0
   63.8333   31.1437   51.8542 H   0  0  0  0  0  0  0  0  0  0  0  0
  1  2  1  0
  2  3  1  0
  3  4  1  0
  4  5  1  0
  5  6  1  0
  6  7  1  0
  7  8  1  0
  8  9  1  0
  9 10  1  0
 10 11  1  0
 11 12  1  0
 12 13  1  0
 13 14  1  0
 14 15  2  0
 15 16  1  0
 16 17  2  0
 17 18  1  0
 18 19  1  0
 19 20  1  0
 20 21  1  0
 21 22  2  0
 22 23  1  0
 23 24  2  0
 24 25  1  0
 25 26  2  0
 18 27  2  0
 12 28  1  0
 28 29  1  0
  5 30  1  0
 30 31  1  0
 31  2  1  0
 29  9  1  0
 27 14  1  0
 26 21  1  0
  1 32  1  0
  1 33  1  0
  1 34  1  0
  2 35  1  0
  3 36  1  0
  3 37  1  0
  4 38  1  0
  4 39  1  0
  6 40  1  0
  6 41  1  0
  7 42  1  0
  7 43  1  0
  8 44  1  0
  9 45  1  0
 10 46  1  0
 10 47  1  0
 11 48  1  0
 11 49  1  0
 13 50  1  0
 13 51  1  0
 15 52  1  0
 16 53  1  0
 17 54  1  0
 19 55  1  0
 20 56  1  0
 20 57  1  0
 22 58  1  0
 23 59  1  0
 24 60  1  0
 25 61  1  0
 26 62  1  0
 27 63  1  0
 28 64  1  0
 28 65  1  0
 29 66  1  0
 29 67  1  0
 30 68  1  0
 30 69  1  0
 31 70  1  0
 31 71  1  0
M  CHG  1   2   1
M  END
>  <UniqueID>  (11) 
11

>  <SMILES>  (11) 
C[NH+]1CCN(CCNC2CCN(Cc3cccc(NCc4ccccc4)c3)CC2)CC1

>  <Energy>  (11) 
91.48804619115926

>  <Genealogy>  (11) 
C[NH+]1CCN(CCNC2CCN(Cc3cccc(NCc4ccccc4)c3)CC2)CC1 (protonated)
C[NH+]1CCN(CCNC2CCN(Cc3cccc(NCc4ccccc4)c3)CC2)CC1 (3D coordinates assigned)
C[NH+]1CCN(CCNC2CCN(Cc3cccc(NCc4ccccc4)c3)CC2)CC1 (nonaromatic ring conformer: 91.48804619115926 kcal/mol)

>  <smiles>  (11) 
CN1CCN(CCNC2CCN(Cc3cccc(NCc4ccccc4)c3)CC2)CC1

>  <score_type>  (11) 
oracle

>  <origin>  (11) 
adg

>  <m_score__min__energy>  (11) 
-8.7200000000000006

>  <m_primary>  (11) 
energy

$$$$
11:0
     RDKit          3D

 67 69  0  0  1  0  0  0  0  0999 V2000
   59.7290   34.3020   49.2430 C   0  0  0  0  0  0  0  0  0  0  0  0
   58.9720   33.2750   48.3950 C   0  0  0  0  0  0  0  0  0  0  0  0
   59.1960   33.5790   47.0180 N   0  0  0  0  0  0  0  0  0  0  0  0
   60.4090   34.2720   46.7190 C   0  0  0  0  0  0  0  0  0  0  0  0
   61.6200   33.3760   46.7200 C   0  0  0  0  0  0  0  0  0  0  0  0
   58.0260   34.1140   46.3610 C   0  0  0  0  0  0  0  0  0  0  0  0
   58.0950   33.8310   44.8780 C   0  0  0  0  0  0  0  0  0  0  0  0
   57.2540   32.8270   44.4500 O   0  0  0  0  0  0  0  0  0  0  0  0
   57.7400   32.0750   43.4100 C   0  0  0  0  0  0  0  0  0  0  0  0
   56.8930   30.8150   43.3060 C   0  0  0  0  0  0  0  0  0  0  0  0
   55.9460   30.7440   44.2950 O   0  0  0  0  0  0  0  0  0  0  0  0
   55.9050   29.6150   44.9980 N   0  0  0  0  0  0  0  0  0  0  0  0
   57.0910   28.8120   44.9520 C   0  0  0  0  0  0  0  0  0  0  0  0
   57.9960   29.0490   46.0960 C   0  0  0  0  0  0  0  0  0  0  0  0
   58.6850   30.2380   46.2920 C   0  0  0  0  0  0  0  0  0  0  0  0
   59.5000   30.3190   47.4120 C   0  0  0  0  0  0  0  0  0  0  0  0
   59.6290   29.2730   48.3000 C   0  0  0  0  0  0  0  0  0  0  0  0
   60.4580   29.3280   49.4610 N   0  0  0  0  0  0  0  0  0  0  0  0
   60.0680   30.1320   50.4140 C   0  0  0  0  0  0  0  0  0  0  0  0
   59.0210   29.8690   51.1910 N   0  0  0  0  0  0  0  0  0  0  0  0
   58.7000   30.7640   52.1500 C   0  0  0  0  0  0  0  0  0  0  0  0
   57.5900   30.5570   53.0150 N   0  0  0  0  0  0  0  0  0  0  0  0
   56.4000   30.2830   52.6000 C   0  0  0  0  0  0  0  0  0  0  0  0
   55.4600   31.1490   52.1010 C   0  0  0  0  0  0  0  0  0  0  0  0
   54.3580   30.3840   51.7950 C   0  0  0  0  0  0  0  0  0  0  0  0
   53.0760   30.8710   51.2240 C   0  0  0  0  0  0  0  0  0  0  0  0
   54.6470   29.0890   52.1120 N   0  0  0  0  0  0  0  0  0  0  0  0
   55.8870   29.0380   52.5970 N   0  0  0  0  0  0  0  0  0  0  0  0
   59.4340   31.9360   52.3380 C   0  0  0  0  0  0  0  0  0  0  0  0
   58.9670   33.1870   53.6970 Br  0  0  0  0  0  0  0  0  0  0  0  0
   60.5080   32.1560   51.5040 C   0  0  0  0  0  0  0  0  0  0  0  0
   60.8200   31.2610   50.5520 N   0  0  0  0  0  0  0  0  0  0  0  0
   58.9390   28.0770   48.1110 C   0  0  0  0  0  0  0  0  0  0  0  0
   58.1280   27.9870   47.0010 C   0  0  0  0  0  0  0  0  0  0  0  0
   59.5696   34.0857   50.3097 H   0  0  0  0  0  0  0  0  0  0  0  0
   60.8035   34.2460   49.0141 H   0  0  0  0  0  0  0  0  0  0  0  0
   59.3575   35.3118   49.0141 H   0  0  0  0  0  0  0  0  0  0  0  0
   59.3421   32.2633   48.6177 H   0  0  0  0  0  0  0  0  0  0  0  0
   57.8964   33.3146   48.6220 H   0  0  0  0  0  0  0  0  0  0  0  0
   60.3137   34.7299   45.7234 H   0  0  0  0  0  0  0  0  0  0  0  0
   60.5584   35.0245   47.5073 H   0  0  0  0  0  0  0  0  0  0  0  0
   61.9142   33.1583   47.7573 H   0  0  0  0  0  0  0  0  0  0  0  0
   61.3808   32.4357   46.2017 H   0  0  0  0  0  0  0  0  0  0  0  0
   62.4492   33.8797   46.2017 H   0  0  0  0  0  0  0  0  0  0  0  0
   57.1247   33.6434   46.7807 H   0  0  0  0  0  0  0  0  0  0  0  0
   57.9861   35.2016   46.5209 H   0  0  0  0  0  0  0  0  0  0  0  0
   57.8318   34.7532   44.3392 H   0  0  0  0  0  0  0  0  0  0  0  0
   59.1204   33.4909   44.6709 H   0  0  0  0  0  0  0  0  0  0  0  0
   57.6747   32.6473   42.4729 H   0  0  0  0  0  0  0  0  0  0  0  0
   58.7939   31.8140   43.5865 H   0  0  0  0  0  0  0  0  0  0  0  0
   56.3865   30.8083   42.3296 H   0  0  0  0  0  0  0  0  0  0  0  0
   57.5618   29.9487   43.4163 H   0  0  0  0  0  0  0  0  0  0  0  0
   55.5270   29.7150   45.9650 H   0  0  0  0  0  0  0  0  0  0  0  0
   56.7965   27.7522   44.9523 H   0  0  0  0  0  0  0  0  0  0  0  0
   57.6382   29.0871   44.0383 H   0  0  0  0  0  0  0  0  0  0  0  0
   58.5891   31.0794   45.5900 H   0  0  0  0  0  0  0  0  0  0  0  0
   60.0607   31.2471   47.5969 H   0  0  0  0  0  0  0  0  0  0  0  0
   55.5660   32.2362   51.9716 H   0  0  0  0  0  0  0  0  0  0  0  0
   52.3869   31.1328   52.0405 H   0  0  0  0  0  0  0  0  0  0  0  0
   53.2648   31.7600   50.6044 H   0  0  0  0  0  0  0  0  0  0  0  0
   52.6269   30.0808   50.6044 H   0  0  0  0  0  0  0  0  0  0  0  0
   53.9730   28.2850   51.9790 H   0  0  0  0  0  0  0  0  0  0  0  0
   56.3300   28.1490   52.9090 H   0  0  0  0  0  0  0  0  0  0  0  0
   61.1124   33.0679   51.6180 H   0  0  0  0  0  0  0  0  0  0  0  0
   61.6400   31.4640   49.9410 H   0  0  0  0  0  0  0  0  0  0  0  0
   59.0378   27.2403   48.8182 H   0  0  0  0  0  0  0  0  0  0  0  0
   57.5692   27.0569   46.8202 H   0  0  0  0  0  0  0  0  0  0  0  0
  1  2  1  0
  2  3  1  0
  3  4  1  0
  4  5  1  0
  3  6  1  0
  6  7  1  0
  7  8  1  0
  8  9  1  0
  9 10  1  0
 10 11  1  0
 11 12  1  0
 12 13  1  0
 13 14  1  0
 14 15  2  0
 15 16  1  0
 16 17  2  0
 17 18  1  0
 18 19  2  0
 19 20  1  0
 20 21  2  0
 21 22  1  0
 22 23  2  0
 23 24  1  0
 24 25  2  0
 25 26  1  0
 25 27  1  0
 27 28  1  0
 21 29  1  0
 29 30  1  0
 29 31  2  0
 31 32  1  0
 17 33  1  0
 33 34  2  0
 34 14  1  0
 32 19  1  0
 28 23  1  0
  1 35  1  0
  1 36  1  0
  1 37  1  0
  2 38  1  0
  2 39  1  0
  4 40  1  0
  4 41  1  0
  5 42  1  0
  5 43  1  0
  5 44  1  0
  6 45  1  0
  6 46  1  0
  7 47  1  0
  7 48  1  0
  9 49  1  0
  9 50  1  0
 10 51  1  0
 10 52  1  0
 12 53  1  0
 13 54  1  0
 13 55  1  0
 15 56  1  0
 16 57  1  0
 24 58  1  0
 26 59  1  0
 26 60  1  0
 26 61  1  0
 27 62  1  0
 28 63  1  0
 31 64  1  0
 32 65  1  0
 33 66  1  0
 34 67  1  0
M  END
>  <smiles>  (12) 
CCN(CC)CCOCCONCc1ccc(N=c2nc(N=c3cc(C)[nH][nH]3)c(Br)c[nH]2)cc1

>  <score_type>  (12) 
oracle

>  <origin>  (12) 
adg

>  <m_score__min__energy>  (12) 
-8.3000000000000007

>  <m_primary>  (12) 
energy

$$$$
12:0
     RDKit          3D

 46 49  0  0  0  0  0  0  0  0999 V2000
   57.7390   25.7180   42.6270 C   0  0  0  0  0  0  0  0  0  0  0  0
   57.8080   27.2290   42.8560 C   0  0  0  0  0  0  0  0  0  0  0  0
   59.1280   27.6560   43.3820 N   0  0  0  0  0  0  0  0  0  0  0  0
   59.0850   28.6000   44.5320 C   0  0  1  0  0  0  0  0  0  0  0  0
   60.4220   28.6220   45.2350 C   0  0  0  0  0  0  0  0  0  0  0  0
   60.2690   28.8370   46.5380 C   0  0  0  0  0  0  0  0  0  0  0  0
   58.8160   29.0090   46.8600 C   0  0  1  0  0  0  0  0  0  0  0  0
   58.4690   28.5310   48.2800 C   0  0  0  0  0  0  0  0  0  0  0  0
   58.5250   30.5340   46.6960 C   0  0  0  0  0  0  0  0  0  0  0  0
   58.8860   31.0950   45.2810 C   0  0  0  0  0  0  0  0  0  0  0  0
   58.8200   30.0760   44.0970 C   0  0  0  0  0  0  0  0  0  0  0  0
   58.1360   28.1910   45.7150 C   0  0  1  0  0  0  0  0  0  0  0  0
   56.6540   28.5360   45.5210 C   0  0  0  0  0  0  0  0  0  0  0  0
   56.1920   29.6780   45.2540 O   0  0  0  0  0  0  0  0  0  0  0  0
   55.7860   27.4280   45.6390 N   0  0  0  0  0  0  0  0  0  0  0  0
   56.6330   26.3340   45.9010 C   0  0  0  0  0  0  0  0  0  0  0  0
   56.1540   25.0420   46.0780 C   0  0  0  0  0  0  0  0  0  0  0  0
   57.0560   24.0180   46.3420 C   0  0  0  0  0  0  0  0  0  0  0  0
   58.4230   24.2960   46.4320 C   0  0  0  0  0  0  0  0  0  0  0  0
   58.9230   25.6060   46.2570 C   0  0  0  0  0  0  0  0  0  0  0  0
   60.4110   25.7790   46.4000 C   0  0  0  0  0  0  0  0  0  0  0  0
   57.9900   26.6610   45.9720 C   0  0  0  0  0  0  0  0  0  0  0  0
   57.7154   25.2008   43.5975 H   0  0  0  0  0  0  0  0  0  0  0  0
   56.8288   25.4744   42.0594 H   0  0  0  0  0  0  0  0  0  0  0  0
   58.6232   25.3924   42.0594 H   0  0  0  0  0  0  0  0  0  0  0  0
   57.6251   27.7410   41.8998 H   0  0  0  0  0  0  0  0  0  0  0  0
   57.0451   27.4927   43.6033 H   0  0  0  0  0  0  0  0  0  0  0  0
   59.6920   28.0960   42.6160 H   0  0  0  0  0  0  0  0  0  0  0  0
   59.6620   26.7990   43.6520 H   0  0  0  0  0  0  0  0  0  0  0  0
   61.3918   28.4793   44.7358 H   0  0  0  0  0  0  0  0  0  0  0  0
   61.0879   28.8819   47.2711 H   0  0  0  0  0  0  0  0  0  0  0  0
   58.9488   29.1919   49.0169 H   0  0  0  0  0  0  0  0  0  0  0  0
   57.3782   28.5572   48.4194 H   0  0  0  0  0  0  0  0  0  0  0  0
   58.8318   27.5020   48.4194 H   0  0  0  0  0  0  0  0  0  0  0  0
   57.4528   30.7039   46.8737 H   0  0  0  0  0  0  0  0  0  0  0  0
   59.1600   31.0622   47.4225 H   0  0  0  0  0  0  0  0  0  0  0  0
   58.1881   31.9153   45.0571 H   0  0  0  0  0  0  0  0  0  0  0  0
   59.9401   31.4024   45.3464 H   0  0  0  0  0  0  0  0  0  0  0  0
   57.8188   30.1316   43.6448 H   0  0  0  0  0  0  0  0  0  0  0  0
   59.6135   30.3522   43.3870 H   0  0  0  0  0  0  0  0  0  0  0  0
   55.0763   24.8324   46.0102 H   0  0  0  0  0  0  0  0  0  0  0  0
   56.6940   22.9885   46.4802 H   0  0  0  0  0  0  0  0  0  0  0  0
   59.1254   23.4764   46.6439 H   0  0  0  0  0  0  0  0  0  0  0  0
   60.6757   25.8098   47.4672 H   0  0  0  0  0  0  0  0  0  0  0  0
   60.9262   24.9347   45.9186 H   0  0  0  0  0  0  0  0  0  0  0  0
   60.7188   26.7190   45.9186 H   0  0  0  0  0  0  0  0  0  0  0  0
  1  2  1  0
  2  3  1  0
  4  3  1  6
  4  5  1  0
  5  6  2  0
  6  7  1  0
  7  8  1  1
  7  9  1  0
  9 10  1  0
 10 11  1  0
  7 12  1  0
 12 13  1  6
 13 14  2  0
 13 15  1  0
 15 16  1  0
 16 17  2  0
 17 18  1  0
 18 19  2  0
 19 20  1  0
 20 21  1  0
 20 22  2  0
 11  4  1  0
 22 12  1  0
 12  4  1  0
 22 16  1  0
  1 23  1  0
  1 24  1  0
  1 25  1  0
  2 26  1  0
  2 27  1  0
  3 28  1  0
  3 29  1  0
  5 30  1  0
  6 31  1  0
  8 32  1  0
  8 33  1  0
  8 34  1  0
  9 35  1  0
  9 36  1  0
 10 37  1  0
 10 38  1  0
 11 39  1  0
 11 40  1  0
 17 41  1  0
 18 42  1  0
 19 43  1  0
 21 44  1  0
 21 45  1  0
 21 46  1  0
M  CHG  2   3   1  15  -1
M  END
>  <UniqueID>  (13) 
12

>  <SMILES>  (13) 
CC[NH2+][C@@]12C=C[C@@](C)(CCC1)C21C(=O)[N-]c2cccc(C)c21

>  <Energy>  (13) 
112.31506085823341

>  <Genealogy>  (13) 
CC[NH2+]C12C=CC(C)(CCC1)C21C(=O)[N-]c2cccc(C)c21 (protonated)
CC[NH2+][C@@]12C=C[C@@](C)(CCC1)C21C(=O)[N-]c2cccc(C)c21 (chirality)
CC[NH2+][C@@]12C=C[C@@](C)(CCC1)C21C(=O)[N-]c2cccc(C)c21 (3D coordinates assigned)
CC[NH2+][C@@]12C=C[C@@](C)(CCC1)C21C(=O)[N-]c2cccc(C)c21 (nonaromatic ring conformer: 112.31506085823341 kcal/mol)

>  <smiles>  (13) 
CCNC12C=CC(C)(CCC1)C21C(=O)Nc2cccc(C)c21

>  <score_type>  (13) 
oracle

>  <origin>  (13) 
adg

>  <m_score__min__energy>  (13) 
-7.0599999999999996

>  <m_primary>  (13) 
energy

$$$$
13:0
     RDKit          3D

 49 52  0  0  0  0  0  0  0  0999 V2000
   60.0980   34.3620   46.4700 C   0  0  0  0  0  0  0  0  0  0  0  0
   60.0510   32.8920   46.5300 N   0  0  0  0  0  0  0  0  0  0  0  0
   59.1300   32.1550   45.7970 C   0  0  0  0  0  0  0  0  0  0  0  0
   58.3700   32.7390   44.7580 C   0  0  0  0  0  0  0  0  0  0  0  0
   57.3810   32.0160   44.0910 C   0  0  0  0  0  0  0  0  0  0  0  0
   57.1100   30.6870   44.4340 C   0  0  0  0  0  0  0  0  0  0  0  0
   56.0580   29.9660   43.7650 N   0  0  0  0  0  0  0  0  0  0  0  0
   55.8820   30.0920   42.5350 O   0  0  0  0  0  0  0  0  0  0  0  0
   55.2280   29.1260   44.4700 O   0  0  0  0  0  0  0  0  0  0  0  0
   57.8850   30.0680   45.4260 C   0  0  0  0  0  0  0  0  0  0  0  0
   58.9290   30.7580   46.0730 C   0  0  0  0  0  0  0  0  0  0  0  0
   59.7630   30.1060   47.0180 C   0  0  0  0  0  0  0  0  0  0  0  0
   59.7010   28.6930   47.2790 N   0  0  0  0  0  0  0  0  0  0  0  0
   59.5510   27.7040   46.2080 C   0  0  0  0  0  0  0  0  0  0  0  0
   58.1130   27.1590   46.1350 C   0  0  0  0  0  0  0  0  0  0  0  0
   57.6190   26.9520   44.7520 N   0  0  0  0  0  0  0  0  0  0  0  0
   58.5930   27.5030   43.7930 C   0  0  0  0  0  0  0  0  0  0  0  0
   57.3820   25.5270   44.4540 C   0  0  0  0  0  0  0  0  0  0  0  0
   60.7170   30.8750   47.6660 C   0  0  0  0  0  0  0  0  0  0  0  0
   61.5910   30.4620   48.5580 O   0  0  0  0  0  0  0  0  0  0  0  0
   62.3450   31.4950   48.8620 C   0  0  0  0  0  0  0  0  0  0  0  0
   63.4240   31.5070   49.7420 C   0  0  0  0  0  0  0  0  0  0  0  0
   64.1470   32.7020   49.8830 C   0  0  0  0  0  0  0  0  0  0  0  0
   63.7920   33.8440   49.1350 C   0  0  0  0  0  0  0  0  0  0  0  0
   62.6980   33.8110   48.2520 C   0  0  0  0  0  0  0  0  0  0  0  0
   61.9620   32.6220   48.1590 C   0  0  0  0  0  0  0  0  0  0  0  0
   60.8730   32.2140   47.3930 C   0  0  0  0  0  0  0  0  0  0  0  0
   60.1111   34.7704   47.4913 H   0  0  0  0  0  0  0  0  0  0  0  0
   61.0067   34.6783   45.9369 H   0  0  0  0  0  0  0  0  0  0  0  0
   59.2113   34.7358   45.9369 H   0  0  0  0  0  0  0  0  0  0  0  0
   58.5621   33.7831   44.4701 H   0  0  0  0  0  0  0  0  0  0  0  0
   56.8070   32.4968   43.2852 H   0  0  0  0  0  0  0  0  0  0  0  0
   57.6737   29.0248   45.7037 H   0  0  0  0  0  0  0  0  0  0  0  0
   60.0090   28.3510   48.2160 H   0  0  0  0  0  0  0  0  0  0  0  0
   59.8021   28.1776   45.2475 H   0  0  0  0  0  0  0  0  0  0  0  0
   60.2268   26.8625   46.4206 H   0  0  0  0  0  0  0  0  0  0  0  0
   58.0809   26.1942   46.6624 H   0  0  0  0  0  0  0  0  0  0  0  0
   57.4610   27.9146   46.5975 H   0  0  0  0  0  0  0  0  0  0  0  0
   56.7250   27.4750   44.6200 H   0  0  0  0  0  0  0  0  0  0  0  0
   59.4227   27.9724   44.3419 H   0  0  0  0  0  0  0  0  0  0  0  0
   58.9839   26.6922   43.1607 H   0  0  0  0  0  0  0  0  0  0  0  0
   58.0994   28.2557   43.1607 H   0  0  0  0  0  0  0  0  0  0  0  0
   57.2887   24.9661   45.3956 H   0  0  0  0  0  0  0  0  0  0  0  0
   56.4543   25.4235   43.8721 H   0  0  0  0  0  0  0  0  0  0  0  0
   58.2262   25.1288   43.8721 H   0  0  0  0  0  0  0  0  0  0  0  0
   63.7016   30.6068   50.3099 H   0  0  0  0  0  0  0  0  0  0  0  0
   64.9958   32.7481   50.5812 H   0  0  0  0  0  0  0  0  0  0  0  0
   64.3766   34.7695   49.2434 H   0  0  0  0  0  0  0  0  0  0  0  0
   62.4279   34.6925   47.6520 H   0  0  0  0  0  0  0  0  0  0  0  0
  1  2  1  0
  2  3  2  0
  3  4  1  0
  4  5  2  0
  5  6  1  0
  6  7  1  0
  7  8  2  0
  7  9  1  0
  6 10  2  0
 10 11  1  0
 11 12  2  0
 12 13  1  0
 13 14  1  0
 14 15  1  0
 15 16  1  0
 16 17  1  0
 16 18  1  0
 12 19  1  0
 19 20  1  0
 20 21  1  0
 21 22  2  0
 22 23  1  0
 23 24  2  0
 24 25  1  0
 25 26  2  0
 26 27  1  0
 27  2  1  0
 11  3  1  0
 27 19  2  0
 26 21  1  0
  1 28  1  0
  1 29  1  0
  1 30  1  0
  4 31  1  0
  5 32  1  0
 10 33  1  0
 13 34  1  0
 14 35  1  0
 14 36  1  0
 15 37  1  0
 15 38  1  0
 16 39  1  0
 17 40  1  0
 17 41  1  0
 17 42  1  0
 18 43  1  0
 18 44  1  0
 18 45  1  0
 22 46  1  0
 23 47  1  0
 24 48  1  0
 25 49  1  0
M  CHG  4   2   1   7   1   9  -1  16   1
M  END
>  <UniqueID>  (14) 
13

>  <SMILES>  (14) 
C[n+]1c2ccc([N+](=O)[O-])cc2c(NCC[NH+](C)C)c2oc3ccccc3c21

>  <Energy>  (14) 
114.95790810668707

>  <Genealogy>  (14) 
C[n+]1c2ccc([N+](=O)[O-])cc2c(NCC[NH+](C)C)c2oc3ccccc3c21 (protonated)
C[n+]1c2ccc([N+](=O)[O-])cc2c(NCC[NH+](C)C)c2oc3ccccc3c21 (3D coordinates assigned)
C[n+]1c2ccc([N+](=O)[O-])cc2c(NCC[NH+](C)C)c2oc3ccccc3c21 (optimized conformer: 114.95790810668707 kcal/mol)

>  <smiles>  (14) 
CN(C)CCNc1c2cc([N+](=O)[O-])ccc2[n+](C)c2c1oc1ccccc12

>  <score_type>  (14) 
oracle

>  <origin>  (14) 
adg

>  <m_score__min__energy>  (14) 
-4.8300000000000001

>  <m_primary>  (14) 
energy

$$$$
14:0
     RDKit          3D

 37 38  0  0  0  0  0  0  0  0999 V2000
   61.2470   33.8510   46.7360 C   0  0  0  0  0  0  0  0  0  0  0  0
   59.8620   33.7220   47.2180 N   0  0  0  0  0  0  0  0  0  0  0  0
   59.8180   33.9810   48.6670 C   0  0  0  0  0  0  0  0  0  0  0  0
   58.9530   34.6310   46.4800 C   0  0  0  0  0  0  0  0  0  0  0  0
   58.0960   33.8330   45.4920 C   0  0  0  0  0  0  0  0  0  0  0  0
   58.7000   32.5360   45.1790 N   0  0  0  0  0  0  0  0  0  0  0  0
   58.0250   31.4560   44.4880 C   0  0  0  0  0  0  0  0  0  0  0  0
   57.3910   31.6860   43.2500 C   0  0  0  0  0  0  0  0  0  0  0  0
   56.6790   30.6750   42.6100 C   0  0  0  0  0  0  0  0  0  0  0  0
   56.5670   29.4190   43.1950 C   0  0  0  0  0  0  0  0  0  0  0  0
   57.1870   29.1530   44.4200 C   0  0  0  0  0  0  0  0  0  0  0  0
   57.9670   30.1510   45.0540 C   0  0  0  0  0  0  0  0  0  0  0  0
   58.6640   29.8270   46.3670 C   0  0  0  0  0  0  0  0  0  0  0  0
   58.7960   28.3210   46.6310 C   0  0  0  0  0  0  0  0  0  0  0  0
   57.4700   27.6130   46.3890 C   0  0  0  0  0  0  0  0  0  0  0  0
   57.0320   27.8590   45.0210 N   0  0  0  0  0  0  0  0  0  0  0  0
   61.9301   33.9146   47.5959 H   0  0  0  0  0  0  0  0  0  0  0  0
   61.5062   32.9731   46.1260 H   0  0  0  0  0  0  0  0  0  0  0  0
   61.3396   34.7617   46.1260 H   0  0  0  0  0  0  0  0  0  0  0  0
   59.9780   33.0394   49.2128 H   0  0  0  0  0  0  0  0  0  0  0  0
   60.6071   34.6989   48.9353 H   0  0  0  0  0  0  0  0  0  0  0  0
   58.8361   34.3981   48.9353 H   0  0  0  0  0  0  0  0  0  0  0  0
   58.2966   35.1482   47.1953 H   0  0  0  0  0  0  0  0  0  0  0  0
   59.5535   35.3654   45.9232 H   0  0  0  0  0  0  0  0  0  0  0  0
   57.1027   33.6667   45.9344 H   0  0  0  0  0  0  0  0  0  0  0  0
   58.0190   34.4106   44.5590 H   0  0  0  0  0  0  0  0  0  0  0  0
   59.6730   32.4070   45.5310 H   0  0  0  0  0  0  0  0  0  0  0  0
   57.4599   32.6793   42.7825 H   0  0  0  0  0  0  0  0  0  0  0  0
   56.2033   30.8709   41.6377 H   0  0  0  0  0  0  0  0  0  0  0  0
   55.9879   28.6306   42.6920 H   0  0  0  0  0  0  0  0  0  0  0  0
   59.6720   30.2668   46.3446 H   0  0  0  0  0  0  0  0  0  0  0  0
   58.0459   30.2456   47.1749 H   0  0  0  0  0  0  0  0  0  0  0  0
   59.5573   27.9017   45.9567 H   0  0  0  0  0  0  0  0  0  0  0  0
   59.0904   28.1707   47.6802 H   0  0  0  0  0  0  0  0  0  0  0  0
   57.5978   26.5316   46.5445 H   0  0  0  0  0  0  0  0  0  0  0  0
   56.7152   27.9971   47.0909 H   0  0  0  0  0  0  0  0  0  0  0  0
   56.5760   27.0830   44.4900 H   0  0  0  0  0  0  0  0  0  0  0  0
  1  2  1  0
  2  3  1  0
  2  4  1  0
  4  5  1  0
  5  6  1  0
  6  7  1  0
  7  8  2  0
  8  9  1  0
  9 10  2  0
 10 11  1  0
 11 12  2  0
 12 13  1  0
 13 14  1  0
 14 15  1  0
 15 16  1  0
 12  7  1  0
 16 11  1  0
  1 17  1  0
  1 18  1  0
  1 19  1  0
  3 20  1  0
  3 21  1  0
  3 22  1  0
  4 23  1  0
  4 24  1  0
  5 25  1  0
  5 26  1  0
  6 27  1  0
  8 28  1  0
  9 29  1  0
 10 30  1  0
 13 31  1  0
 13 32  1  0
 14 33  1  0
 14 34  1  0
 15 35  1  0
 15 36  1  0
 16 37  1  0
M  END
>  <UniqueID>  (15) 
14

>  <SMILES>  (15) 
CN(C)CCNc1cccc2c1CCCN2

>  <Energy>  (15) 
36.85461862026402

>  <Genealogy>  (15) 
CN(C)CCNc1cccc2c1CCCN2 (3D coordinates assigned)
CN(C)CCNc1cccc2c1CCCN2 (nonaromatic ring conformer: 36.85461862026402 kcal/mol)

>  <smiles>  (15) 
CN(C)CCNc1cccc2c1CCCN2

>  <score_type>  (15) 
oracle

>  <origin>  (15) 
adg

>  <m_score__min__energy>  (15) 
-5.5800000000000001

>  <m_primary>  (15) 
energy

$$$$
15:0
     RDKit          3D

 93 97  0  0  0  0  0  0  0  0999 V2000
   65.9920   31.9190   50.4880 C   0  0  0  0  0  0  0  0  0  0  0  0
   65.4650   33.1090   49.6810 C   0  0  0  0  0  0  0  0  0  0  0  0
   64.2950   32.7300   48.8360 N   0  0  0  0  0  0  0  0  0  0  0  0
   63.9800   33.8420   47.8970 C   0  0  0  0  0  0  0  0  0  0  0  0
   63.1780   33.3770   46.6770 C   0  0  0  0  0  0  0  0  0  0  0  0
   63.1110   32.4140   49.6800 C   0  0  0  0  0  0  0  0  0  0  0  0
   62.3300   33.6690   50.1250 C   0  0  0  0  0  0  0  0  0  0  0  0
   60.8850   33.4920   49.9660 N   0  0  0  0  0  0  0  0  0  0  0  0
   60.3170   32.7180   48.8900 C   0  0  0  0  0  0  0  0  0  0  0  0
   59.9060   33.3500   47.7010 C   0  0  0  0  0  0  0  0  0  0  0  0
   59.9400   34.7560   47.5720 C   0  0  0  0  0  0  0  0  0  0  0  0
   59.5070   35.3760   46.4040 C   0  0  0  0  0  0  0  0  0  0  0  0
   59.0250   34.6130   45.3470 C   0  0  0  0  0  0  0  0  0  0  0  0
   58.9960   33.2230   45.4430 C   0  0  0  0  0  0  0  0  0  0  0  0
   59.4610   32.5590   46.6070 C   0  0  0  0  0  0  0  0  0  0  0  0
   59.4790   31.1800   46.6960 N   0  0  0  0  0  0  0  0  0  0  0  0
   59.3130   30.3560   45.4790 C   0  0  0  0  0  0  0  0  0  0  0  0
   59.6600   30.5720   47.9230 C   0  0  0  0  0  0  0  0  0  0  0  0
   59.3680   29.2000   48.1220 C   0  0  0  0  0  0  0  0  0  0  0  0
   59.5630   28.5940   49.3620 C   0  0  0  0  0  0  0  0  0  0  0  0
   60.0490   29.3260   50.4400 C   0  0  0  0  0  0  0  0  0  0  0  0
   60.2290   28.6770   51.6700 O   0  0  0  0  0  0  0  0  0  0  0  0
   60.7950   29.2900   52.8300 C   0  0  0  0  0  0  0  0  0  0  0  0
   59.7190   30.0340   53.6600 C   0  0  0  0  0  0  0  0  0  0  0  0
   58.4280   29.3040   53.8970 N   0  0  1  0  0  0  0  0  0  0  0  0
   58.6790   27.9330   54.4130 C   0  0  0  0  0  0  0  0  0  0  0  0
   57.5360   30.0490   54.8090 C   0  0  0  0  0  0  0  0  0  0  0  0
   56.6280   30.8810   53.9360 C   0  0  0  0  0  0  0  0  0  0  0  0
   56.4850   30.1420   52.6660 N   0  0  2  0  0  0  0  0  0  0  0  0
   56.5320   31.1050   51.5340 C   0  0  0  0  0  0  0  0  0  0  0  0
   55.1750   29.4100   52.5820 C   0  0  0  0  0  0  0  0  0  0  0  0
   53.9380   30.2820   52.4240 C   0  0  0  0  0  0  0  0  0  0  0  0
   53.6140   30.8540   51.1820 C   0  0  0  0  0  0  0  0  0  0  0  0
   52.4860   31.6660   51.0450 C   0  0  0  0  0  0  0  0  0  0  0  0
   51.6340   31.8900   52.1420 C   0  0  0  0  0  0  0  0  0  0  0  0
   50.5020   32.7130   52.0620 O   0  0  0  0  0  0  0  0  0  0  0  0
   49.9620   33.4460   53.1550 C   0  0  0  0  0  0  0  0  0  0  0  0
   51.9180   31.2670   53.3610 C   0  0  0  0  0  0  0  0  0  0  0  0
   53.0490   30.4590   53.5000 C   0  0  0  0  0  0  0  0  0  0  0  0
   57.6660   29.2310   52.6080 C   0  0  0  0  0  0  0  0  0  0  0  0
   60.2980   30.6960   50.2800 C   0  0  0  0  0  0  0  0  0  0  0  0
   60.1120   31.3310   49.0340 C   0  0  0  0  0  0  0  0  0  0  0  0
   65.8969   32.1338   51.5626 H   0  0  0  0  0  0  0  0  0  0  0  0
   65.4076   31.0205   50.2405 H   0  0  0  0  0  0  0  0  0  0  0  0
   67.0501   31.7479   50.2405 H   0  0  0  0  0  0  0  0  0  0  0  0
   65.1591   33.9039   50.3771 H   0  0  0  0  0  0  0  0  0  0  0  0
   66.2699   33.4547   49.0157 H   0  0  0  0  0  0  0  0  0  0  0  0
   64.5380   31.8810   48.2760 H   0  0  0  0  0  0  0  0  0  0  0  0
   63.3935   34.6013   48.4350 H   0  0  0  0  0  0  0  0  0  0  0  0
   64.9346   34.2486   47.5316 H   0  0  0  0  0  0  0  0  0  0  0  0
   62.2717   32.8515   47.0125 H   0  0  0  0  0  0  0  0  0  0  0  0
   62.8928   34.2498   46.0713 H   0  0  0  0  0  0  0  0  0  0  0  0
   63.7938   32.6958   46.0713 H   0  0  0  0  0  0  0  0  0  0  0  0
   62.4336   31.7665   49.1039 H   0  0  0  0  0  0  0  0  0  0  0  0
   63.4806   31.9189   50.5901 H   0  0  0  0  0  0  0  0  0  0  0  0
   62.5503   33.8692   51.1840 H   0  0  0  0  0  0  0  0  0  0  0  0
   62.6442   34.5113   49.4911 H   0  0  0  0  0  0  0  0  0  0  0  0
   60.2560   34.0710   50.5650 H   0  0  0  0  0  0  0  0  0  0  0  0
   60.3136   35.3688   48.4056 H   0  0  0  0  0  0  0  0  0  0  0  0
   59.5462   36.4719   46.3170 H   0  0  0  0  0  0  0  0  0  0  0  0
   58.6656   35.1075   44.4325 H   0  0  0  0  0  0  0  0  0  0  0  0
   58.6060   32.6309   44.6020 H   0  0  0  0  0  0  0  0  0  0  0  0
   59.1033   29.3152   45.7667 H   0  0  0  0  0  0  0  0  0  0  0  0
   58.4757   30.7474   44.8826 H   0  0  0  0  0  0  0  0  0  0  0  0
   60.2366   30.3926   44.8826 H   0  0  0  0  0  0  0  0  0  0  0  0
   58.9807   28.6027   47.2834 H   0  0  0  0  0  0  0  0  0  0  0  0
   59.3302   27.5265   49.4892 H   0  0  0  0  0  0  0  0  0  0  0  0
   61.2556   28.5122   53.4568 H   0  0  0  0  0  0  0  0  0  0  0  0
   61.5463   30.0233   52.5016 H   0  0  0  0  0  0  0  0  0  0  0  0
   60.1565   30.2656   54.6423 H   0  0  0  0  0  0  0  0  0  0  0  0
   59.4478   30.9149   53.0596 H   0  0  0  0  0  0  0  0  0  0  0  0
   58.6761   27.9489   55.5129 H   0  0  0  0  0  0  0  0  0  0  0  0
   57.8899   27.2559   54.0540 H   0  0  0  0  0  0  0  0  0  0  0  0
   59.6568   27.5794   54.0540 H   0  0  0  0  0  0  0  0  0  0  0  0
   56.9429   29.3492   55.4160 H   0  0  0  0  0  0  0  0  0  0  0  0
   58.1123   30.6816   55.5001 H   0  0  0  0  0  0  0  0  0  0  0  0
   55.6466   31.0059   54.4168 H   0  0  0  0  0  0  0  0  0  0  0  0
   57.0432   31.8860   53.7698 H   0  0  0  0  0  0  0  0  0  0  0  0
   56.5821   32.1311   51.9273 H   0  0  0  0  0  0  0  0  0  0  0  0
   57.4214   30.9044   50.9186 H   0  0  0  0  0  0  0  0  0  0  0  0
   55.6273   30.9920   50.9186 H   0  0  0  0  0  0  0  0  0  0  0  0
   55.2223   28.7316   51.7174 H   0  0  0  0  0  0  0  0  0  0  0  0
   55.0572   28.8966   53.5477 H   0  0  0  0  0  0  0  0  0  0  0  0
   54.2550   30.6603   50.3093 H   0  0  0  0  0  0  0  0  0  0  0  0
   52.2625   32.1328   50.0744 H   0  0  0  0  0  0  0  0  0  0  0  0
   50.2954   32.9934   54.1005 H   0  0  0  0  0  0  0  0  0  0  0  0
   50.3096   34.4884   53.1049 H   0  0  0  0  0  0  0  0  0  0  0  0
   48.8634   33.4230   53.1049 H   0  0  0  0  0  0  0  0  0  0  0  0
   51.2448   31.4144   54.2183 H   0  0  0  0  0  0  0  0  0  0  0  0
   53.2462   29.9570   54.4587 H   0  0  0  0  0  0  0  0  0  0  0  0
   57.3231   28.1987   52.4445 H   0  0  0  0  0  0  0  0  0  0  0  0
   58.3220   29.5393   51.7806 H   0  0  0  0  0  0  0  0  0  0  0  0
   60.6445   31.2864   51.1410 H   0  0  0  0  0  0  0  0  0  0  0  0
  1  2  1  0
  2  3  1  0
  3  4  1  0
  4  5  1  0
  3  6  1  0
  6  7  1  0
  7  8  1  0
  8  9  1  0
  9 10  2  0
 10 11  1  0
 11 12  2  0
 12 13  1  0
 13 14  2  0
 14 15  1  0
 15 16  2  0
 16 17  1  0
 16 18  1  0
 18 19  2  0
 19 20  1  0
 20 21  2  0
 21 22  1  0
 22 23  1  0
 23 24  1  0
 25 24  1  6
 25 26  1  0
 25 27  1  0
 27 28  1  0
 28 29  1  0
 29 30  1  6
 29 31  1  0
 31 32  1  0
 32 33  2  0
 33 34  1  0
 34 35  2  0
 35 36  1  0
 36 37  1  0
 35 38  1  0
 38 39  2  0
 29 40  1  0
 21 41  1  0
 41 42  2  0
 42  9  1  0
 15 10  1  0
 42 18  1  0
 40 25  1  0
 39 32  1  0
  1 43  1  0
  1 44  1  0
  1 45  1  0
  2 46  1  0
  2 47  1  0
  3 48  1  0
  4 49  1  0
  4 50  1  0
  5 51  1  0
  5 52  1  0
  5 53  1  0
  6 54  1  0
  6 55  1  0
  7 56  1  0
  7 57  1  0
  8 58  1  0
 11 59  1  0
 12 60  1  0
 13 61  1  0
 14 62  1  0
 17 63  1  0
 17 64  1  0
 17 65  1  0
 19 66  1  0
 20 67  1  0
 23 68  1  0
 23 69  1  0
 24 70  1  0
 24 71  1  0
 26 72  1  0
 26 73  1  0
 26 74  1  0
 27 75  1  0
 27 76  1  0
 28 77  1  0
 28 78  1  0
 30 79  1  0
 30 80  1  0
 30 81  1  0
 31 82  1  0
 31 83  1  0
 33 84  1  0
 34 85  1  0
 37 86  1  0
 37 87  1  0
 37 88  1  0
 38 89  1  0
 39 90  1  0
 40 91  1  0
 40 92  1  0
 41 93  1  0
M  CHG  4   3   1  16   1  25   1  29   1
M  END
>  <UniqueID>  (16) 
15

>  <SMILES>  (16) 
CC[NH+](CC)CCNc1c2ccccc2[n+](C)c2ccc(OCC[N@@+]3(C)CC[N@+](C)(Cc4ccc(OC)cc4)C3)cc12

>  <Energy>  (16) 
149.9852823151357

>  <Genealogy>  (16) 
CC[NH+](CC)CCNc1c2ccccc2[n+](C)c2ccc(OCC[N+]3(C)CC[N+](C)(Cc4ccc(OC)cc4)C3)cc12 (protonated)
CC[NH+](CC)CCNc1c2ccccc2[n+](C)c2ccc(OCC[N@@+]3(C)CC[N@+](C)(Cc4ccc(OC)cc4)C3)cc12 (chirality)
CC[NH+](CC)CCNc1c2ccccc2[n+](C)c2ccc(OCC[N@@+]3(C)CC[N@+](C)(Cc4ccc(OC)cc4)C3)cc12 (3D coordinates assigned)
CC[NH+](CC)CCNc1c2ccccc2[n+](C)c2ccc(OCC[N@@+]3(C)CC[N@+](C)(Cc4ccc(OC)cc4)C3)cc12 (nonaromatic ring conformer: 149.9852823151357 kcal/mol)

>  <smiles>  (16) 
CCN(CC)CCNc1c2ccccc2[n+](C)c2ccc(OCC[N+]3(C)CC[N+](C)(Cc4ccc(OC)cc4)C3)cc12

>  <score_type>  (16) 
oracle

>  <origin>  (16) 
adg

>  <m_score__min__energy>  (16) 
-3.9100000000000001

>  <m_primary>  (16) 
energy

$$$$
16:0
     RDKit          3D

 91 95  0  0  0  0  0  0  0  0999 V2000
   58.0210   29.6490   51.8120 C   0  0  0  0  0  0  0  0  0  0  0  0
   56.8490   30.5250   52.2380 C   0  0  0  0  0  0  0  0  0  0  0  0
   57.0640   31.9230   51.7740 N   0  0  0  0  0  0  0  0  0  0  0  0
   57.7570   32.7260   52.8110 C   0  0  0  0  0  0  0  0  0  0  0  0
   57.9180   31.9390   54.1120 C   0  0  0  0  0  0  0  0  0  0  0  0
   57.8400   31.9680   50.5120 C   0  0  0  0  0  0  0  0  0  0  0  0
   59.2550   32.5480   50.7070 C   0  0  0  0  0  0  0  0  0  0  0  0
   59.8990   32.9670   49.4430 N   0  0  0  0  0  0  0  0  0  0  0  0
   59.6540   32.0260   48.3560 C   0  0  0  0  0  0  0  0  0  0  0  0
   58.9620   32.4610   47.1880 C   0  0  0  0  0  0  0  0  0  0  0  0
   58.5120   33.7990   47.0400 C   0  0  0  0  0  0  0  0  0  0  0  0
   57.8040   34.2040   45.9130 C   0  0  0  0  0  0  0  0  0  0  0  0
   57.5200   33.2950   44.9070 C   0  0  0  0  0  0  0  0  0  0  0  0
   57.9630   31.9810   45.0090 C   0  0  0  0  0  0  0  0  0  0  0  0
   58.7170   31.5420   46.1290 C   0  0  0  0  0  0  0  0  0  0  0  0
   59.1910   30.2520   46.2070 N   0  0  0  0  0  0  0  0  0  0  0  0
   59.2150   29.4000   44.9960 C   0  0  0  0  0  0  0  0  0  0  0  0
   59.6690   29.7610   47.4010 C   0  0  0  0  0  0  0  0  0  0  0  0
   59.8120   28.3680   47.6070 C   0  0  0  0  0  0  0  0  0  0  0  0
   60.3350   27.8640   48.7910 C   0  0  0  0  0  0  0  0  0  0  0  0
   60.7780   28.7190   49.7900 C   0  0  0  0  0  0  0  0  0  0  0  0
   61.2940   28.1370   50.9600 O   0  0  0  0  0  0  0  0  0  0  0  0
   61.2710   28.7020   52.2710 C   0  0  0  0  0  0  0  0  0  0  0  0
   62.6690   28.6180   52.9400 C   0  0  0  0  0  0  0  0  0  0  0  0
   63.7400   29.5100   52.3780 N   0  0  2  0  0  0  0  0  0  0  0  0
   64.9470   28.7050   52.0380 C   0  0  0  0  0  0  0  0  0  0  0  0
   64.1160   30.4880   53.4550 C   0  0  0  0  0  0  0  0  0  0  0  0
   64.6720   31.8120   52.8900 C   0  0  0  0  0  0  0  0  0  0  0  0
   63.6710   32.5500   52.0450 N   0  0  1  0  0  0  0  0  0  0  0  0
   62.9630   33.5350   52.9060 C   0  0  0  0  0  0  0  0  0  0  0  0
   64.4280   33.2700   50.9680 C   0  0  0  0  0  0  0  0  0  0  0  0
   63.7700   33.2770   49.6030 C   0  0  0  0  0  0  0  0  0  0  0  0
   64.1240   32.3330   48.6260 C   0  0  0  0  0  0  0  0  0  0  0  0
   63.4750   32.3460   47.3910 C   0  0  0  0  0  0  0  0  0  0  0  0
   62.4750   33.2870   47.1420 C   0  0  0  0  0  0  0  0  0  0  0  0
   62.1340   34.2010   48.1400 C   0  0  0  0  0  0  0  0  0  0  0  0
   62.7780   34.1730   49.3370 N   0  0  0  0  0  0  0  0  0  0  0  0
   62.6590   31.6080   51.4670 C   0  0  0  0  0  0  0  0  0  0  0  0
   63.2610   30.2280   51.1510 C   0  0  0  0  0  0  0  0  0  0  0  0
   60.6430   30.1080   49.6120 C   0  0  0  0  0  0  0  0  0  0  0  0
   60.0030   30.6460   48.4650 C   0  0  0  0  0  0  0  0  0  0  0  0
   58.5352   29.2647   52.7053 H   0  0  0  0  0  0  0  0  0  0  0  0
   57.6492   28.8056   51.2116 H   0  0  0  0  0  0  0  0  0  0  0  0
   58.7246   30.2444   51.2116 H   0  0  0  0  0  0  0  0  0  0  0  0
   55.9213   30.1329   51.7957 H   0  0  0  0  0  0  0  0  0  0  0  0
   56.7715   30.5163   53.3352 H   0  0  0  0  0  0  0  0  0  0  0  0
   58.7526   33.0088   52.4384 H   0  0  0  0  0  0  0  0  0  0  0  0
   57.1498   33.6191   53.0199 H   0  0  0  0  0  0  0  0  0  0  0  0
   57.7797   32.6148   54.9688 H   0  0  0  0  0  0  0  0  0  0  0  0
   57.1651   31.1380   54.1516 H   0  0  0  0  0  0  0  0  0  0  0  0
   58.9250   31.4980   54.1516 H   0  0  0  0  0  0  0  0  0  0  0  0
   57.9297   30.9454   50.1168 H   0  0  0  0  0  0  0  0  0  0  0  0
   57.3030   32.6269   49.8138 H   0  0  0  0  0  0  0  0  0  0  0  0
   59.1844   33.4236   51.3690 H   0  0  0  0  0  0  0  0  0  0  0  0
   59.8762   31.7490   51.1379 H   0  0  0  0  0  0  0  0  0  0  0  0
   59.6620   33.9530   49.2140 H   0  0  0  0  0  0  0  0  0  0  0  0
   60.9300   33.0420   49.5940 H   0  0  0  0  0  0  0  0  0  0  0  0
   58.7275   34.5307   47.8326 H   0  0  0  0  0  0  0  0  0  0  0  0
   57.4692   35.2477   45.8206 H   0  0  0  0  0  0  0  0  0  0  0  0
   56.9431   33.6132   44.0261 H   0  0  0  0  0  0  0  0  0  0  0  0
   57.7246   31.2677   44.2063 H   0  0  0  0  0  0  0  0  0  0  0  0
   59.2448   28.3413   45.2931 H   0  0  0  0  0  0  0  0  0  0  0  0
   58.3112   29.5876   44.3977 H   0  0  0  0  0  0  0  0  0  0  0  0
   60.1068   29.6382   44.3977 H   0  0  0  0  0  0  0  0  0  0  0  0
   59.5030   27.6710   46.8141 H   0  0  0  0  0  0  0  0  0  0  0  0
   60.3986   26.7758   48.9382 H   0  0  0  0  0  0  0  0  0  0  0  0
   60.9684   29.7573   52.2022 H   0  0  0  0  0  0  0  0  0  0  0  0
   60.5556   28.1340   52.8838 H   0  0  0  0  0  0  0  0  0  0  0  0
   62.5460   28.8735   54.0028 H   0  0  0  0  0  0  0  0  0  0  0  0
   63.0186   27.5921   52.7520 H   0  0  0  0  0  0  0  0  0  0  0  0
   65.4409   28.3756   52.9641 H   0  0  0  0  0  0  0  0  0  0  0  0
   64.6472   27.8254   51.4495 H   0  0  0  0  0  0  0  0  0  0  0  0
   65.6439   29.3198   51.4495 H   0  0  0  0  0  0  0  0  0  0  0  0
   63.2221   30.7099   54.0564 H   0  0  0  0  0  0  0  0  0  0  0  0
   64.9096   30.0261   54.0607 H   0  0  0  0  0  0  0  0  0  0  0  0
   64.9659   32.4573   53.7310 H   0  0  0  0  0  0  0  0  0  0  0  0
   65.5296   31.5640   52.2473 H   0  0  0  0  0  0  0  0  0  0  0  0
   63.1388   33.2904   53.9639 H   0  0  0  0  0  0  0  0  0  0  0  0
   63.3426   34.5457   52.6954 H   0  0  0  0  0  0  0  0  0  0  0  0
   61.8840   33.4973   52.6954 H   0  0  0  0  0  0  0  0  0  0  0  0
   64.5596   34.3147   51.2864 H   0  0  0  0  0  0  0  0  0  0  0  0
   65.3739   32.7221   50.8451 H   0  0  0  0  0  0  0  0  0  0  0  0
   64.9072   31.5887   48.8326 H   0  0  0  0  0  0  0  0  0  0  0  0
   63.7509   31.6163   46.6155 H   0  0  0  0  0  0  0  0  0  0  0  0
   61.9611   33.3081   46.1696 H   0  0  0  0  0  0  0  0  0  0  0  0
   61.3439   34.9444   47.9581 H   0  0  0  0  0  0  0  0  0  0  0  0
   61.8408   31.4798   52.1909 H   0  0  0  0  0  0  0  0  0  0  0  0
   62.2957   32.0412   50.5234 H   0  0  0  0  0  0  0  0  0  0  0  0
   62.4921   29.6126   50.6609 H   0  0  0  0  0  0  0  0  0  0  0  0
   64.1320   30.3873   50.4983 H   0  0  0  0  0  0  0  0  0  0  0  0
   61.0414   30.7907   50.3770 H   0  0  0  0  0  0  0  0  0  0  0  0
  1  2  1  0
  2  3  1  0
  3  4  1  0
  4  5  1  0
  3  6  1  0
  6  7  1  0
  7  8  1  0
  8  9  1  0
  9 10  2  0
 10 11  1  0
 11 12  2  0
 12 13  1  0
 13 14  2  0
 14 15  1  0
 15 16  2  0
 16 17  1  0
 16 18  1  0
 18 19  2  0
 19 20  1  0
 20 21  2  0
 21 22  1  0
 22 23  1  0
 23 24  1  0
 25 24  1  1
 25 26  1  0
 25 27  1  0
 27 28  1  0
 28 29  1  0
 29 30  1  1
 29 31  1  0
 31 32  1  0
 32 33  2  0
 33 34  1  0
 34 35  2  0
 35 36  1  0
 36 37  2  0
 29 38  1  0
 38 39  1  0
 21 40  1  0
 40 41  2  0
 41  9  1  0
 15 10  1  0
 41 18  1  0
 39 25  1  0
 37 32  1  0
  1 42  1  0
  1 43  1  0
  1 44  1  0
  2 45  1  0
  2 46  1  0
  4 47  1  0
  4 48  1  0
  5 49  1  0
  5 50  1  0
  5 51  1  0
  6 52  1  0
  6 53  1  0
  7 54  1  0
  7 55  1  0
  8 56  1  0
  8 57  1  0
 11 58  1  0
 12 59  1  0
 13 60  1  0
 14 61  1  0
 17 62  1  0
 17 63  1  0
 17 64  1  0
 19 65  1  0
 20 66  1  0
 23 67  1  0
 23 68  1  0
 24 69  1  0
 24 70  1  0
 26 71  1  0
 26 72  1  0
 26 73  1  0
 27 74  1  0
 27 75  1  0
 28 76  1  0
 28 77  1  0
 30 78  1  0
 30 79  1  0
 30 80  1  0
 31 81  1  0
 31 82  1  0
 33 83  1  0
 34 84  1  0
 35 85  1  0
 36 86  1  0
 38 87  1  0
 38 88  1  0
 39 89  1  0
 39 90  1  0
 40 91  1  0
M  CHG  4   8   1  16   1  25   1  29   1
M  END
>  <UniqueID>  (17) 
16

>  <SMILES>  (17) 
CCN(CC)CC[NH2+]c1c2ccccc2[n+](C)c2ccc(OCC[N+]3(C)CC[N+](C)(Cc4ccccn4)CC3)cc12

>  <Energy>  (17) 
158.96225447261747

>  <Genealogy>  (17) 
CCN(CC)CC[NH2+]c1c2ccccc2[n+](C)c2ccc(OCC[N+]3(C)CC[N+](C)(Cc4ccccn4)CC3)cc12 (protonated)
CCN(CC)CC[NH2+]c1c2ccccc2[n+](C)c2ccc(OCC[N+]3(C)CC[N+](C)(Cc4ccccn4)CC3)cc12 (3D coordinates assigned)
CCN(CC)CC[NH2+]c1c2ccccc2[n+](C)c2ccc(OCC[N+]3(C)CC[N+](C)(Cc4ccccn4)CC3)cc12 (nonaromatic ring conformer: 158.96225447261747 kcal/mol)

>  <smiles>  (17) 
CCN(CC)CCNc1c2ccccc2[n+](C)c2ccc(OCC[N+]3(C)CC[N+](C)(Cc4ccccn4)CC3)cc12

>  <score_type>  (17) 
oracle

>  <origin>  (17) 
adg

>  <m_score__min__energy>  (17) 
-3.5099999999999998

>  <m_primary>  (17) 
energy

$$$$
17:0
     RDKit          3D

 67 69  0  0  0  0  0  0  0  0999 V2000
   59.4370   32.4260   51.8930 C   0  0  0  0  0  0  0  0  0  0  0  0
   58.6960   31.6810   50.8580 N   0  0  0  0  0  0  0  0  0  0  0  0
   57.2770   31.5960   51.2390 C   0  0  0  0  0  0  0  0  0  0  0  0
   59.2530   30.3210   50.6780 C   0  0  0  0  0  0  0  0  0  0  0  0
   58.7540   29.6880   49.3740 C   0  0  0  0  0  0  0  0  0  0  0  0
   59.5110   30.1970   48.2260 N   0  0  0  0  0  0  0  0  0  0  0  0
   58.8770   30.4110   46.9610 C   0  0  0  0  0  0  0  0  0  0  0  0
   58.7520   29.2920   46.1070 C   0  0  0  0  0  0  0  0  0  0  0  0
   59.3000   28.0360   46.4680 C   0  0  0  0  0  0  0  0  0  0  0  0
   59.1850   26.9350   45.6240 C   0  0  0  0  0  0  0  0  0  0  0  0
   58.5480   27.0630   44.3980 C   0  0  0  0  0  0  0  0  0  0  0  0
   58.0180   28.2910   44.0120 C   0  0  0  0  0  0  0  0  0  0  0  0
   58.0950   29.4260   44.8650 C   0  0  0  0  0  0  0  0  0  0  0  0
   57.5830   30.6470   44.4880 N   0  0  0  0  0  0  0  0  0  0  0  0
   56.6540   30.7270   43.3360 C   0  0  0  0  0  0  0  0  0  0  0  0
   57.9410   31.7950   45.1740 C   0  0  0  0  0  0  0  0  0  0  0  0
   57.7670   33.0630   44.5700 C   0  0  0  0  0  0  0  0  0  0  0  0
   58.0780   34.2310   45.2370 C   0  0  0  0  0  0  0  0  0  0  0  0
   58.5250   34.1830   46.5410 C   0  0  0  0  0  0  0  0  0  0  0  0
   58.7200   32.9610   47.2130 C   0  0  0  0  0  0  0  0  0  0  0  0
   59.0140   33.0780   48.6350 N   0  0  0  0  0  0  0  0  0  0  0  0
   59.8760   34.2350   48.9710 C   0  0  0  0  0  0  0  0  0  0  0  0
   61.2710   33.8490   49.5160 C   0  0  0  0  0  0  0  0  0  0  0  0
   62.4510   34.1060   48.5420 C   0  0  0  0  0  0  0  0  0  0  0  0
   63.3070   32.9290   48.1640 N   0  0  0  0  0  0  0  0  0  0  0  0
   62.5600   31.6490   48.2450 C   0  0  0  0  0  0  0  0  0  0  0  0
   64.5310   32.8530   49.0020 C   0  0  0  0  0  0  0  0  0  0  0  0
   63.7360   33.1210   46.7550 C   0  0  0  0  0  0  0  0  0  0  0  0
   58.5170   31.7180   46.4890 C   0  0  0  0  0  0  0  0  0  0  0  0
   59.1080   32.0952   52.8892 H   0  0  0  0  0  0  0  0  0  0  0  0
   60.5146   32.2358   51.7809 H   0  0  0  0  0  0  0  0  0  0  0  0
   59.2410   33.5026   51.7809 H   0  0  0  0  0  0  0  0  0  0  0  0
   57.1915   31.5909   52.3357 H   0  0  0  0  0  0  0  0  0  0  0  0
   56.7358   32.4633   50.8331 H   0  0  0  0  0  0  0  0  0  0  0  0
   56.8432   30.6703   50.8331 H   0  0  0  0  0  0  0  0  0  0  0  0
   60.3509   30.3833   50.6499 H   0  0  0  0  0  0  0  0  0  0  0  0
   58.9226   29.6941   51.5193 H   0  0  0  0  0  0  0  0  0  0  0  0
   58.8776   28.5965   49.4324 H   0  0  0  0  0  0  0  0  0  0  0  0
   57.6932   29.9462   49.2397 H   0  0  0  0  0  0  0  0  0  0  0  0
   60.5440   30.3580   48.2890 H   0  0  0  0  0  0  0  0  0  0  0  0
   59.8240   27.9295   47.4293 H   0  0  0  0  0  0  0  0  0  0  0  0
   59.5994   25.9628   45.9292 H   0  0  0  0  0  0  0  0  0  0  0  0
   58.4617   26.1931   43.7303 H   0  0  0  0  0  0  0  0  0  0  0  0
   57.5312   28.3849   43.0301 H   0  0  0  0  0  0  0  0  0  0  0  0
   55.6210   30.8160   43.7035 H   0  0  0  0  0  0  0  0  0  0  0  0
   56.9028   31.6070   42.7248 H   0  0  0  0  0  0  0  0  0  0  0  0
   56.7487   29.8174   42.7248 H   0  0  0  0  0  0  0  0  0  0  0  0
   57.3744   33.1193   43.5440 H   0  0  0  0  0  0  0  0  0  0  0  0
   57.9693   35.2003   44.7284 H   0  0  0  0  0  0  0  0  0  0  0  0
   58.7347   35.1243   47.0701 H   0  0  0  0  0  0  0  0  0  0  0  0
   59.5350   32.2120   48.9180 H   0  0  0  0  0  0  0  0  0  0  0  0
   58.2020   33.0720   49.2700 H   0  0  0  0  0  0  0  0  0  0  0  0
   60.0156   34.8370   48.0610 H   0  0  0  0  0  0  0  0  0  0  0  0
   59.3650   34.7875   49.7732 H   0  0  0  0  0  0  0  0  0  0  0  0
   61.4521   34.4305   50.4320 H   0  0  0  0  0  0  0  0  0  0  0  0
   61.2443   32.7625   49.6857 H   0  0  0  0  0  0  0  0  0  0  0  0
   62.0285   34.5180   47.6137 H   0  0  0  0  0  0  0  0  0  0  0  0
   63.1261   34.7793   49.0905 H   0  0  0  0  0  0  0  0  0  0  0  0
   62.4040   31.3817   49.3006 H   0  0  0  0  0  0  0  0  0  0  0  0
   61.5855   31.7610   47.7472 H   0  0  0  0  0  0  0  0  0  0  0  0
   63.1369   30.8556   47.7472 H   0  0  0  0  0  0  0  0  0  0  0  0
   64.2492   32.8705   50.0651 H   0  0  0  0  0  0  0  0  0  0  0  0
   65.0695   31.9197   48.7807 H   0  0  0  0  0  0  0  0  0  0  0  0
   65.1808   33.7125   48.7807 H   0  0  0  0  0  0  0  0  0  0  0  0
   64.7399   33.5703   46.7353 H   0  0  0  0  0  0  0  0  0  0  0  0
   63.7598   32.1477   46.2431 H   0  0  0  0  0  0  0  0  0  0  0  0
   63.0260   33.7872   46.2431 H   0  0  0  0  0  0  0  0  0  0  0  0
  1  2  1  0
  2  3  1  0
  2  4  1  0
  4  5  1  0
  5  6  1  0
  6  7  1  0
  7  8  2  0
  8  9  1  0
  9 10  2  0
 10 11  1  0
 11 12  2  0
 12 13  1  0
 13 14  2  0
 14 15  1  0
 14 16  1  0
 16 17  2  0
 17 18  1  0
 18 19  2  0
 19 20  1  0
 20 21  1  0
 21 22  1  0
 22 23  1  0
 23 24  1  0
 24 25  1  0
 25 26  1  0
 25 27  1  0
 25 28  1  0
 20 29  2  0
 29  7  1  0
 13  8  1  0
 29 16  1  0
  1 30  1  0
  1 31  1  0
  1 32  1  0
  3 33  1  0
  3 34  1  0
  3 35  1  0
  4 36  1  0
  4 37  1  0
  5 38  1  0
  5 39  1  0
  6 40  1  0
  9 41  1  0
 10 42  1  0
 11 43  1  0
 12 44  1  0
 15 45  1  0
 15 46  1  0
 15 47  1  0
 17 48  1  0
 18 49  1  0
 19 50  1  0
 21 51  1  0
 21 52  1  0
 22 53  1  0
 22 54  1  0
 23 55  1  0
 23 56  1  0
 24 57  1  0
 24 58  1  0
 26 59  1  0
 26 60  1  0
 26 61  1  0
 27 62  1  0
 27 63  1  0
 27 64  1  0
 28 65  1  0
 28 66  1  0
 28 67  1  0
M  CHG  3  14   1  21   1  25   1
M  END
>  <UniqueID>  (18) 
17

>  <SMILES>  (18) 
CN(C)CCNc1c2ccccc2[n+](C)c2cccc([NH2+]CCC[N+](C)(C)C)c12

>  <Energy>  (18) 
121.58250309428408

>  <Genealogy>  (18) 
CN(C)CCNc1c2ccccc2[n+](C)c2cccc([NH2+]CCC[N+](C)(C)C)c12 (protonated)
CN(C)CCNc1c2ccccc2[n+](C)c2cccc([NH2+]CCC[N+](C)(C)C)c12 (3D coordinates assigned)
CN(C)CCNc1c2ccccc2[n+](C)c2cccc([NH2+]CCC[N+](C)(C)C)c12 (optimized conformer: 121.58250309428408 kcal/mol)

>  <smiles>  (18) 
CN(C)CCNc1c2ccccc2[n+](C)c2cccc(NCCC[N+](C)(C)C)c12

>  <score_type>  (18) 
oracle

>  <origin>  (18) 
adg

>  <m_score__min__energy>  (18) 
-2.7400000000000002

>  <m_primary>  (18) 
energy

$$$$
18:0
     RDKit          3D

 43 45  0  0  0  0  0  0  0  0999 V2000
   55.9050   29.7320   43.2460 C   0  0  0  0  0  0  0  0  0  0  0  0
   57.1960   29.2610   43.8610 C   0  0  0  0  0  0  0  0  0  0  0  0
   57.4050   27.9230   44.0380 N   0  0  0  0  0  0  0  0  0  0  0  0
   58.5540   27.4570   44.5940 C   0  0  0  0  0  0  0  0  0  0  0  0
   59.5210   28.3220   44.9870 N   0  0  0  0  0  0  0  0  0  0  0  0
   59.3690   29.6610   44.8270 C   0  0  0  0  0  0  0  0  0  0  0  0
   58.2050   30.1740   44.2430 C   0  0  0  0  0  0  0  0  0  0  0  0
   58.0410   31.6670   44.0970 C   0  0  0  0  0  0  0  0  0  0  0  0
   56.8470   32.1080   44.8300 N   0  0  0  0  0  0  0  0  0  0  0  0
   57.0010   33.4800   45.3300 C   0  0  0  0  0  0  0  0  0  0  0  0
   57.1750   33.4770   46.8520 C   0  0  0  0  0  0  0  0  0  0  0  0
   57.7820   32.2620   47.2870 O   0  0  0  0  0  0  0  0  0  0  0  0
   59.1640   32.0390   47.3980 C   0  0  0  0  0  0  0  0  0  0  0  0
   59.7100   30.8240   47.8840 C   0  0  0  0  0  0  0  0  0  0  0  0
   61.0990   30.6560   47.9730 C   0  0  0  0  0  0  0  0  0  0  0  0
   61.9320   31.7020   47.5730 C   0  0  0  0  0  0  0  0  0  0  0  0
   61.4130   32.8780   47.1000 C   0  0  0  0  0  0  0  0  0  0  0  0
   60.0330   33.0710   47.0020 C   0  0  0  0  0  0  0  0  0  0  0  0
   62.4700   33.8470   46.7330 C   0  0  0  0  0  0  0  0  0  0  0  0
   63.7830   33.1050   47.0490 C   0  0  0  0  0  0  0  0  0  0  0  0
   63.4120   31.7120   47.5930 C   0  0  0  0  0  0  0  0  0  0  0  0
   55.1926   29.9919   44.0428 H   0  0  0  0  0  0  0  0  0  0  0  0
   56.0974   30.6179   42.6229 H   0  0  0  0  0  0  0  0  0  0  0  0
   55.4817   28.9304   42.6229 H   0  0  0  0  0  0  0  0  0  0  0  0
   56.6760   27.2310   43.7490 H   0  0  0  0  0  0  0  0  0  0  0  0
   58.6999   26.3747   44.7256 H   0  0  0  0  0  0  0  0  0  0  0  0
   60.1637   30.3459   45.1576 H   0  0  0  0  0  0  0  0  0  0  0  0
   58.9282   32.1739   44.5045 H   0  0  0  0  0  0  0  0  0  0  0  0
   57.9283   31.9186   43.0321 H   0  0  0  0  0  0  0  0  0  0  0  0
   56.7340   31.4740   45.6570 H   0  0  0  0  0  0  0  0  0  0  0  0
   57.8863   33.9381   44.8648 H   0  0  0  0  0  0  0  0  0  0  0  0
   56.0994   34.0562   45.0749 H   0  0  0  0  0  0  0  0  0  0  0  0
   57.8127   34.3242   47.1443 H   0  0  0  0  0  0  0  0  0  0  0  0
   56.1843   33.5656   47.3217 H   0  0  0  0  0  0  0  0  0  0  0  0
   59.0397   30.0084   48.1930 H   0  0  0  0  0  0  0  0  0  0  0  0
   61.5253   29.7154   48.3518 H   0  0  0  0  0  0  0  0  0  0  0  0
   59.6304   34.0203   46.6191 H   0  0  0  0  0  0  0  0  0  0  0  0
   62.4126   34.1020   45.6645 H   0  0  0  0  0  0  0  0  0  0  0  0
   62.3798   34.7981   47.2782 H   0  0  0  0  0  0  0  0  0  0  0  0
   64.3852   33.0022   46.1342 H   0  0  0  0  0  0  0  0  0  0  0  0
   64.3739   33.6640   47.7896 H   0  0  0  0  0  0  0  0  0  0  0  0
   63.8171   30.9193   46.9468 H   0  0  0  0  0  0  0  0  0  0  0  0
   63.8230   31.5262   48.5963 H   0  0  0  0  0  0  0  0  0  0  0  0
  1  2  1  0
  2  3  2  0
  3  4  1  0
  4  5  2  0
  5  6  1  0
  6  7  2  0
  7  8  1  0
  8  9  1  0
  9 10  1  0
 10 11  1  0
 11 12  1  0
 12 13  1  0
 13 14  2  0
 14 15  1  0
 15 16  2  0
 16 17  1  0
 17 18  2  0
 17 19  1  0
 19 20  1  0
 20 21  1  0
  7  2  1  0
 18 13  1  0
 21 16  1  0
  1 22  1  0
  1 23  1  0
  1 24  1  0
  3 25  1  0
  4 26  1  0
  6 27  1  0
  8 28  1  0
  8 29  1  0
  9 30  1  0
 10 31  1  0
 10 32  1  0
 11 33  1  0
 11 34  1  0
 14 35  1  0
 15 36  1  0
 18 37  1  0
 19 38  1  0
 19 39  1  0
 20 40  1  0
 20 41  1  0
 21 42  1  0
 21 43  1  0
M  CHG  1   3   1
M  END
>  <UniqueID>  (19) 
18

>  <SMILES>  (19) 
Cc1[nH+]cncc1CNCCOc1ccc2c(c1)CCC2

>  <Energy>  (19) 
49.54518810806829

>  <Genealogy>  (19) 
Cc1[nH+]cncc1CNCCOc1ccc2c(c1)CCC2 (protonated)
Cc1[nH+]cncc1CNCCOc1ccc2c(c1)CCC2 (3D coordinates assigned)
Cc1[nH+]cncc1CNCCOc1ccc2c(c1)CCC2 (nonaromatic ring conformer: 49.54518810806829 kcal/mol)

>  <smiles>  (19) 
Cc1ncncc1CNCCOc1ccc2c(c1)CCC2

>  <score_type>  (19) 
oracle

>  <origin>  (19) 
adg

>  <m_score__min__energy>  (19) 
-6.3399999999999999

>  <m_primary>  (19) 
energy

$$$$
19:0
     RDKit          3D

 47 47  0  0  0  0  0  0  0  0999 V2000
   59.6360   34.1790   48.7990 C   0  0  0  0  0  0  0  0  0  0  0  0
   59.3380   32.9650   47.9260 C   0  0  0  0  0  0  0  0  0  0  0  0
   59.8290   33.1810   46.5770 N   0  0  0  0  0  0  0  0  0  0  0  0
   61.1050   33.8720   46.3910 C   0  0  0  0  0  0  0  0  0  0  0  0
   62.2290   33.1300   47.1080 C   0  0  0  0  0  0  0  0  0  0  0  0
   59.1640   32.6990   45.6240 N   0  0  0  0  0  0  0  0  0  0  0  0
   58.1230   33.3850   44.8790 C   0  0  0  0  0  0  0  0  0  0  0  0
   57.7240   32.5670   43.6470 C   0  0  0  0  0  0  0  0  0  0  0  0
   57.2590   31.1600   44.0430 C   0  0  0  0  0  0  0  0  0  0  0  0
   58.4040   30.2450   44.1550 N   0  0  0  0  0  0  0  0  0  0  0  0
   58.1350   29.2320   45.1490 C   0  0  0  0  0  0  0  0  0  0  0  0
   56.9610   28.4600   45.0590 C   0  0  0  0  0  0  0  0  0  0  0  0
   56.6880   27.4520   46.0020 C   0  0  0  0  0  0  0  0  0  0  0  0
   55.5320   26.6590   45.9440 O   0  0  0  0  0  0  0  0  0  0  0  0
   55.5330   25.2510   45.7360 C   0  0  0  0  0  0  0  0  0  0  0  0
   57.5980   27.2220   47.0370 C   0  0  0  0  0  0  0  0  0  0  0  0
   58.7740   27.9680   47.1290 C   0  0  0  0  0  0  0  0  0  0  0  0
   59.0610   28.9720   46.1840 C   0  0  0  0  0  0  0  0  0  0  0  0
   60.2460   29.7230   46.2410 O   0  0  0  0  0  0  0  0  0  0  0  0
   60.9500   30.0320   47.4400 C   0  0  0  0  0  0  0  0  0  0  0  0
   59.5661   33.8943   49.8592 H   0  0  0  0  0  0  0  0  0  0  0  0
   60.6507   34.5452   48.5838 H   0  0  0  0  0  0  0  0  0  0  0  0
   58.9062   34.9734   48.5838 H   0  0  0  0  0  0  0  0  0  0  0  0
   59.8316   32.0802   48.3544 H   0  0  0  0  0  0  0  0  0  0  0  0
   58.2497   32.8092   47.8897 H   0  0  0  0  0  0  0  0  0  0  0  0
   61.3344   33.9239   45.3164 H   0  0  0  0  0  0  0  0  0  0  0  0
   61.0239   34.8846   46.8130 H   0  0  0  0  0  0  0  0  0  0  0  0
   62.0924   33.2202   48.1958 H   0  0  0  0  0  0  0  0  0  0  0  0
   62.2077   32.0679   46.8226 H   0  0  0  0  0  0  0  0  0  0  0  0
   63.1973   33.5670   46.8226 H   0  0  0  0  0  0  0  0  0  0  0  0
   57.2432   33.5201   45.5253 H   0  0  0  0  0  0  0  0  0  0  0  0
   58.5035   34.3636   44.5509 H   0  0  0  0  0  0  0  0  0  0  0  0
   56.9045   33.0820   43.1242 H   0  0  0  0  0  0  0  0  0  0  0  0
   58.6026   32.4723   42.9919 H   0  0  0  0  0  0  0  0  0  0  0  0
   56.7414   31.2105   45.0123 H   0  0  0  0  0  0  0  0  0  0  0  0
   56.5791   30.7811   43.2657 H   0  0  0  0  0  0  0  0  0  0  0  0
   58.5990   29.8000   43.2280 H   0  0  0  0  0  0  0  0  0  0  0  0
   59.2590   30.7870   44.4300 H   0  0  0  0  0  0  0  0  0  0  0  0
   56.2488   28.6471   44.2418 H   0  0  0  0  0  0  0  0  0  0  0  0
   55.5334   24.7367   46.7084 H   0  0  0  0  0  0  0  0  0  0  0  0
   54.6351   24.9634   45.1694 H   0  0  0  0  0  0  0  0  0  0  0  0
   56.4313   24.9647   45.1694 H   0  0  0  0  0  0  0  0  0  0  0  0
   57.3855   26.4455   47.7866 H   0  0  0  0  0  0  0  0  0  0  0  0
   59.4827   27.7701   47.9466 H   0  0  0  0  0  0  0  0  0  0  0  0
   60.3318   29.7607   48.3085 H   0  0  0  0  0  0  0  0  0  0  0  0
   61.8919   29.4646   47.4688 H   0  0  0  0  0  0  0  0  0  0  0  0
   61.1700   31.1094   47.4688 H   0  0  0  0  0  0  0  0  0  0  0  0
  1  2  1  0
  2  3  1  0
  3  4  1  0
  4  5  1  0
  3  6  2  3
  6  7  1  0
  7  8  1  0
  8  9  1  0
  9 10  1  0
 10 11  1  0
 11 12  2  0
 12 13  1  0
 13 14  1  0
 14 15  1  0
 13 16  2  0
 16 17  1  0
 17 18  2  0
 18 19  1  0
 19 20  1  0
 18 11  1  0
  1 21  1  0
  1 22  1  0
  1 23  1  0
  2 24  1  0
  2 25  1  0
  4 26  1  0
  4 27  1  0
  5 28  1  0
  5 29  1  0
  5 30  1  0
  7 31  1  0
  7 32  1  0
  8 33  1  0
  8 34  1  0
  9 35  1  0
  9 36  1  0
 10 37  1  0
 10 38  1  0
 12 39  1  0
 15 40  1  0
 15 41  1  0
 15 42  1  0
 16 43  1  0
 17 44  1  0
 20 45  1  0
 20 46  1  0
 20 47  1  0
M  CHG  2   3   1  10   1
M  END
>  <UniqueID>  (20) 
19

>  <SMILES>  (20) 
CC[N+](CC)=NCCC[NH2+]c1cc(OC)ccc1OC

>  <Energy>  (20) 
36.891402737850356

>  <Genealogy>  (20) 
CC[N+](CC)=NCCC[NH2+]c1cc(OC)ccc1OC (protonated)
CC[N+](CC)=NCCC[NH2+]c1cc(OC)ccc1OC (3D coordinates assigned)
CC[N+](CC)=NCCC[NH2+]c1cc(OC)ccc1OC (optimized conformer: 36.891402737850356 kcal/mol)

>  <smiles>  (20) 
CC[N+](CC)=NCCCNc1cc(OC)ccc1OC

>  <score_type>  (20) 
oracle

>  <origin>  (20) 
adg

>  <m_score__min__energy>  (20) 
-2.8999999999999999

>  <m_primary>  (20) 
energy

$$$$
20:0
     RDKit          3D

 54 56  0  0  0  0  0  0  0  0999 V2000
   58.9540   29.9220   48.8080 C   0  0  0  0  0  0  0  0  0  0  0  0
   60.1360   29.8770   47.8390 C   0  0  0  0  0  0  0  0  0  0  0  0
   60.1190   28.7050   46.9370 N   0  0  0  0  0  0  0  0  0  0  0  0
   60.5820   28.9660   45.5530 C   0  0  0  0  0  0  0  0  0  0  0  0
   59.5350   28.6020   44.4950 C   0  0  0  0  0  0  0  0  0  0  0  0
   58.2090   29.0190   44.9730 N   0  0  0  0  0  0  0  0  0  0  0  0
   57.1980   28.9700   43.8940 C   0  0  0  0  0  0  0  0  0  0  0  0
   56.2850   30.2140   43.8850 C   0  0  0  0  0  0  0  0  0  0  0  0
   57.0490   31.5460   43.8890 C   0  0  0  0  0  0  0  0  0  0  0  0
   57.9420   31.6620   45.0420 N   0  0  0  0  0  0  0  0  0  0  0  0
   58.0350   32.8770   45.7980 C   0  0  0  0  0  0  0  0  0  0  0  0
   57.3280   33.8730   45.4830 O   0  0  0  0  0  0  0  0  0  0  0  0
   59.0310   32.9860   46.9230 C   0  0  1  0  0  0  0  0  0  0  0  0
   60.4610   32.8280   46.3790 C   0  0  0  0  0  0  0  0  0  0  0  0
   61.4890   33.1530   47.4300 C   0  0  0  0  0  0  0  0  0  0  0  0
   62.8240   32.7700   47.2300 C   0  0  0  0  0  0  0  0  0  0  0  0
   63.8030   33.1080   48.1670 C   0  0  0  0  0  0  0  0  0  0  0  0
   63.4590   33.8370   49.3080 C   0  0  0  0  0  0  0  0  0  0  0  0
   62.1350   34.2350   49.5110 C   0  0  0  0  0  0  0  0  0  0  0  0
   61.1450   33.9150   48.5690 C   0  0  0  0  0  0  0  0  0  0  0  0
   59.7080   34.3010   48.8380 C   0  0  0  0  0  0  0  0  0  0  0  0
   58.8850   34.2750   47.6190 N   0  0  0  0  0  0  0  0  0  0  0  0
   57.7860   28.1690   46.1070 C   0  0  0  0  0  0  0  0  0  0  0  0
   58.9430   27.8210   47.0740 C   0  0  0  0  0  0  0  0  0  0  0  0
   59.3273   29.9078   49.8426 H   0  0  0  0  0  0  0  0  0  0  0  0
   58.3764   30.8428   48.6392 H   0  0  0  0  0  0  0  0  0  0  0  0
   58.3080   29.0478   48.6392 H   0  0  0  0  0  0  0  0  0  0  0  0
   60.1164   30.7890   47.2243 H   0  0  0  0  0  0  0  0  0  0  0  0
   61.0491   29.8018   48.4478 H   0  0  0  0  0  0  0  0  0  0  0  0
   60.8194   30.0359   45.4583 H   0  0  0  0  0  0  0  0  0  0  0  0
   61.4643   28.3335   45.3754 H   0  0  0  0  0  0  0  0  0  0  0  0
   59.7672   29.1196   43.5526 H   0  0  0  0  0  0  0  0  0  0  0  0
   59.5435   27.5159   44.3210 H   0  0  0  0  0  0  0  0  0  0  0  0
   57.7172   28.9061   42.9263 H   0  0  0  0  0  0  0  0  0  0  0  0
   56.5626   28.0895   44.0701 H   0  0  0  0  0  0  0  0  0  0  0  0
   55.6580   30.1770   42.9820 H   0  0  0  0  0  0  0  0  0  0  0  0
   55.6930   30.1825   44.8115 H   0  0  0  0  0  0  0  0  0  0  0  0
   57.6469   31.6152   42.9683 H   0  0  0  0  0  0  0  0  0  0  0  0
   56.3118   32.3604   43.9468 H   0  0  0  0  0  0  0  0  0  0  0  0
   58.5330   30.8500   45.3300 H   0  0  0  0  0  0  0  0  0  0  0  0
   58.8360   32.1797   47.6454 H   0  0  0  0  0  0  0  0  0  0  0  0
   60.6047   31.7891   46.0473 H   0  0  0  0  0  0  0  0  0  0  0  0
   60.5910   33.5278   45.5403 H   0  0  0  0  0  0  0  0  0  0  0  0
   63.1009   32.2006   46.3305 H   0  0  0  0  0  0  0  0  0  0  0  0
   64.8466   32.7997   48.0063 H   0  0  0  0  0  0  0  0  0  0  0  0
   64.2309   34.0979   50.0470 H   0  0  0  0  0  0  0  0  0  0  0  0
   61.8671   34.8025   50.4144 H   0  0  0  0  0  0  0  0  0  0  0  0
   59.2828   33.5954   49.5669 H   0  0  0  0  0  0  0  0  0  0  0  0
   59.7031   35.3306   49.2252 H   0  0  0  0  0  0  0  0  0  0  0  0
   59.2030   35.0520   46.9910 H   0  0  0  0  0  0  0  0  0  0  0  0
   57.0070   28.7021   46.6717 H   0  0  0  0  0  0  0  0  0  0  0  0
   57.4168   27.2224   45.6856 H   0  0  0  0  0  0  0  0  0  0  0  0
   58.5686   27.8987   48.1054 H   0  0  0  0  0  0  0  0  0  0  0  0
   59.2757   26.8029   46.8234 H   0  0  0  0  0  0  0  0  0  0  0  0
  1  2  1  0
  2  3  1  0
  3  4  1  0
  4  5  1  0
  5  6  1  0
  6  7  1  0
  7  8  1  0
  8  9  1  0
  9 10  1  0
 10 11  1  0
 11 12  2  0
 11 13  1  0
 13 14  1  0
 14 15  1  0
 15 16  2  0
 16 17  1  0
 17 18  2  0
 18 19  1  0
 19 20  2  0
 20 21  1  0
 21 22  1  0
  6 23  1  0
 23 24  1  0
 24  3  1  0
 22 13  1  0
 20 15  1  0
  1 25  1  0
  1 26  1  0
  1 27  1  0
  2 28  1  0
  2 29  1  0
  4 30  1  0
  4 31  1  0
  5 32  1  0
  5 33  1  0
  7 34  1  0
  7 35  1  0
  8 36  1  0
  8 37  1  0
  9 38  1  0
  9 39  1  0
 10 40  1  0
 13 41  1  1
 14 42  1  0
 14 43  1  0
 16 44  1  0
 17 45  1  0
 18 46  1  0
 19 47  1  0
 21 48  1  0
 21 49  1  0
 22 50  1  0
 23 51  1  0
 23 52  1  0
 24 53  1  0
 24 54  1  0
M  END
>  <UniqueID>  (21) 
20

>  <SMILES>  (21) 
CCN1CCN(CCCNC(=O)[C@H]2Cc3ccccc3CN2)CC1

>  <Energy>  (21) 
62.37543815474165

>  <Genealogy>  (21) 
CCN1CCN(CCCNC(=O)[C@H]2Cc3ccccc3CN2)CC1 (chirality)
CCN1CCN(CCCNC(=O)[C@H]2Cc3ccccc3CN2)CC1 (3D coordinates assigned)
CCN1CCN(CCCNC(=O)[C@H]2Cc3ccccc3CN2)CC1 (nonaromatic ring conformer: 62.37543815474165 kcal/mol)

>  <smiles>  (21) 
CCN1CCN(CCCNC(=O)C2Cc3ccccc3CN2)CC1

>  <score_type>  (21) 
oracle

>  <origin>  (21) 
adg

>  <m_score__min__energy>  (21) 
-7.9199999999999999

>  <m_primary>  (21) 
energy

$$$$
21:0
     RDKit          3D

 37 39  0  0  0  0  0  0  0  0999 V2000
   57.7157   31.9499   42.7345 H   0  0  0  0  0  0  0  0  0  0  0  0
   57.3890   31.2040   43.4740 C   0  0  0  0  0  0  0  0  0  0  0  0
   56.5420   29.7880   43.1450 S   0  0  0  0  0  0  0  0  0  0  0  0
   56.4900   29.3170   44.7660 C   0  0  0  0  0  0  0  0  0  0  0  0
   55.8970   28.2640   45.2450 N   0  0  0  0  0  0  0  0  0  0  0  0
   56.5240   27.1300   45.8630 C   0  0  0  0  0  0  0  0  0  0  0  0
   55.7980   26.2840   46.4490 O   0  0  0  0  0  0  0  0  0  0  0  0
   58.0260   26.9530   45.8690 C   0  0  0  0  0  0  0  0  0  0  0  0
   58.2860   26.1681   46.5945 H   0  0  0  0  0  0  0  0  0  0  0  0
   58.3348   26.6790   44.8494 H   0  0  0  0  0  0  0  0  0  0  0  0
   58.7420   28.1980   46.2380 N   0  0  1  0  0  0  0  0  0  0  0  0
   58.1220   29.0190   46.0340 H   0  0  0  0  0  0  0  0  0  0  0  0
   59.0170   28.1930   47.7000 C   0  0  0  0  0  0  0  0  0  0  0  0
   59.5213   27.2538   47.9712 H   0  0  0  0  0  0  0  0  0  0  0  0
   58.0647   28.2798   48.2436 H   0  0  0  0  0  0  0  0  0  0  0  0
   59.8940   29.3480   48.0670 C   0  0  0  0  0  0  0  0  0  0  0  0
   60.7080   29.9860   47.1750 C   0  0  0  0  0  0  0  0  0  0  0  0
   61.4540   30.9110   47.8060 N   0  0  0  0  0  0  0  0  0  0  0  0
   61.1290   30.8460   49.0910 N   0  0  0  0  0  0  0  0  0  0  0  0
   61.7770   31.6320   50.1310 C   0  0  0  0  0  0  0  0  0  0  0  0
   61.4689   31.2583   51.1186 H   0  0  0  0  0  0  0  0  0  0  0  0
   62.8689   31.5445   50.0301 H   0  0  0  0  0  0  0  0  0  0  0  0
   61.4829   32.6871   50.0301 H   0  0  0  0  0  0  0  0  0  0  0  0
   60.1990   29.8890   49.2950 C   0  0  0  0  0  0  0  0  0  0  0  0
   59.7657   29.5962   50.2627 H   0  0  0  0  0  0  0  0  0  0  0  0
   60.6900   29.7010   45.7100 C   0  0  0  0  0  0  0  0  0  0  0  0
   61.7222   29.6673   45.3312 H   0  0  0  0  0  0  0  0  0  0  0  0
   60.1322   30.4944   45.1910 H   0  0  0  0  0  0  0  0  0  0  0  0
   60.0030   28.3390   45.4530 C   0  0  0  0  0  0  0  0  0  0  0  0
   60.6933   27.5321   45.7401 H   0  0  0  0  0  0  0  0  0  0  0  0
   59.7490   28.2802   44.3843 H   0  0  0  0  0  0  0  0  0  0  0  0
   57.0880   30.2260   45.5640 N   0  0  0  0  0  0  0  0  0  0  0  0
   57.6030   31.2640   44.8490 C   0  0  0  0  0  0  0  0  0  0  0  0
   58.2810   32.4160   45.5140 C   0  0  0  0  0  0  0  0  0  0  0  0
   58.2132   32.3008   46.6058 H   0  0  0  0  0  0  0  0  0  0  0  0
   59.3387   32.4424   45.2131 H   0  0  0  0  0  0  0  0  0  0  0  0
   57.7906   33.3535   45.2131 H   0  0  0  0  0  0  0  0  0  0  0  0
  1  2  1  0
  2  3  1  0
  3  4  1  0
  4  5  2  0
  5  6  1  0
  6  7  2  0
  6  8  1  0
  8  9  1  0
  8 10  1  0
  8 11  1  0
 11 12  1  1
 11 13  1  0
 13 14  1  0
 13 15  1  0
 13 16  1  0
 16 17  1  0
 17 18  2  0
 18 19  1  0
 19 20  1  0
 20 21  1  0
 20 22  1  0
 20 23  1  0
 19 24  1  0
 24 25  1  0
 17 26  1  0
 26 27  1  0
 26 28  1  0
 26 29  1  0
 29 30  1  0
 29 31  1  0
  4 32  1  0
 32 33  1  0
 33 34  1  0
 34 35  1  0
 34 36  1  0
 34 37  1  0
 33  2  2  0
 29 11  1  0
 24 16  2  0
M  CHG  2  11   1  32  -1
M  END
>  <UniqueID>  (22) 
21

>  <SMILES>  (22) 
Cc1cs/c(=N\C(=O)C[N@@H+]2CCc3nn(C)cc3C2)[n-]1

>  <Energy>  (22) 
108.36571307343138

>  <Genealogy>  (22) 
Cc1csc(=NC(=O)C[NH+]2CCc3nn(C)cc3C2)[n-]1 (protonated)
Cc1csc(=NC(=O)C[N@@H+]2CCc3nn(C)cc3C2)[n-]1 (chirality)
Cc1cs/c(=N\C(=O)C[N@@H+]2CCc3nn(C)cc3C2)[n-]1 (cis-trans isomerization)
Cc1cs/c(=N\C(=O)C[N@@H+]2CCc3nn(C)cc3C2)[n-]1 (3D coordinates assigned)
Cc1cs/c(=N\C(=O)C[N@@H+]2CCc3nn(C)cc3C2)[n-]1 (nonaromatic ring conformer: 108.36571307343138 kcal/mol)

>  <smiles>  (22) 
Cc1csc(=NC(=O)CN2CCc3nn(C)cc3C2)[nH]1

>  <score_type>  (22) 
oracle

>  <origin>  (22) 
adg

>  <m_score__min__energy>  (22) 
-6.3799999999999999

>  <m_primary>  (22) 
energy

$$$$
22:0
     RDKit          3D

 61 63  0  0  0  0  0  0  0  0999 V2000
   60.1200   29.7240   46.2480 C   0  0  0  0  0  0  0  0  0  0  0  0
   58.8430   29.7760   47.0740 C   0  0  0  0  0  0  0  0  0  0  0  0
   57.7750   30.4190   46.2990 N   0  0  0  0  0  0  0  0  0  0  0  0
   58.1600   30.6520   44.8990 C   0  0  0  0  0  0  0  0  0  0  0  0
   57.7610   32.0510   44.3990 C   0  0  0  0  0  0  0  0  0  0  0  0
   57.1120   32.7740   45.4290 O   0  0  0  0  0  0  0  0  0  0  0  0
   57.2760   34.1710   45.2660 C   0  0  0  0  0  0  0  0  0  0  0  0
   58.6910   34.5910   45.6730 C   0  0  0  0  0  0  0  0  0  0  0  0
   58.9150   34.4130   47.1810 C   0  0  0  0  0  0  0  0  0  0  0  0
   59.0040   32.9950   47.5450 N   0  0  0  0  0  0  0  0  0  0  0  0
   59.9770   32.5070   48.4830 C   0  0  0  0  0  0  0  0  0  0  0  0
   59.5740   32.0990   49.7660 C   0  0  0  0  0  0  0  0  0  0  0  0
   60.5440   31.7080   50.7090 C   0  0  0  0  0  0  0  0  0  0  0  0
   61.8760   31.6350   50.3540 N   0  0  0  0  0  0  0  0  0  0  0  0
   62.8530   31.0110   51.2630 C   0  0  0  0  0  0  0  0  0  0  0  0
   62.2880   32.1370   49.1390 C   0  0  0  0  0  0  0  0  0  0  0  0
   61.3430   32.4990   48.1600 C   0  0  0  0  0  0  0  0  0  0  0  0
   61.8510   32.7560   46.7600 C   0  0  0  0  0  0  0  0  0  0  0  0
   63.0060   33.7700   46.7750 C   0  0  0  0  0  0  0  0  0  0  0  0
   63.9780   33.5930   47.9680 C   0  0  0  0  0  0  0  0  0  0  0  0
   63.7560   32.2980   48.7720 C   0  0  0  0  0  0  0  0  0  0  0  0
   60.0500   31.3840   52.1100 C   0  0  0  0  0  0  0  0  0  0  0  0
   58.9910   32.4070   52.5530 C   0  0  0  0  0  0  0  0  0  0  0  0
   57.8410   32.5870   51.5410 C   0  0  0  0  0  0  0  0  0  0  0  0
   58.1140   31.9890   50.1510 C   0  0  0  0  0  0  0  0  0  0  0  0
   60.9902   29.6886   46.9200 H   0  0  0  0  0  0  0  0  0  0  0  0
   60.1099   28.8255   45.6135 H   0  0  0  0  0  0  0  0  0  0  0  0
   60.1830   30.6203   45.6135 H   0  0  0  0  0  0  0  0  0  0  0  0
   58.5372   28.7529   47.3382 H   0  0  0  0  0  0  0  0  0  0  0  0
   59.0266   30.3564   47.9902 H   0  0  0  0  0  0  0  0  0  0  0  0
   57.5190   31.3310   46.7480 H   0  0  0  0  0  0  0  0  0  0  0  0
   59.2513   30.5449   44.8116 H   0  0  0  0  0  0  0  0  0  0  0  0
   57.6282   29.9138   44.2807 H   0  0  0  0  0  0  0  0  0  0  0  0
   58.6640   32.5959   44.0865 H   0  0  0  0  0  0  0  0  0  0  0  0
   57.0723   31.9440   43.5480 H   0  0  0  0  0  0  0  0  0  0  0  0
   57.1081   34.4355   44.2115 H   0  0  0  0  0  0  0  0  0  0  0  0
   56.5497   34.6936   45.9058 H   0  0  0  0  0  0  0  0  0  0  0  0
   59.4189   33.9726   45.1274 H   0  0  0  0  0  0  0  0  0  0  0  0
   58.8211   35.6551   45.4265 H   0  0  0  0  0  0  0  0  0  0  0  0
   59.8515   34.9150   47.4654 H   0  0  0  0  0  0  0  0  0  0  0  0
   58.0588   34.8538   47.7126 H   0  0  0  0  0  0  0  0  0  0  0  0
   58.2330   32.3530   47.2470 H   0  0  0  0  0  0  0  0  0  0  0  0
   62.5569   31.2001   52.3054 H   0  0  0  0  0  0  0  0  0  0  0  0
   62.8824   29.9265   51.0812 H   0  0  0  0  0  0  0  0  0  0  0  0
   63.8493   31.4404   51.0812 H   0  0  0  0  0  0  0  0  0  0  0  0
   62.2075   31.8099   46.3266 H   0  0  0  0  0  0  0  0  0  0  0  0
   61.0284   33.1680   46.1570 H   0  0  0  0  0  0  0  0  0  0  0  0
   63.5780   33.6580   45.8421 H   0  0  0  0  0  0  0  0  0  0  0  0
   62.5547   34.7682   46.8749 H   0  0  0  0  0  0  0  0  0  0  0  0
   65.0064   33.5855   47.5777 H   0  0  0  0  0  0  0  0  0  0  0  0
   63.7915   34.4303   48.6566 H   0  0  0  0  0  0  0  0  0  0  0  0
   64.0728   31.4373   48.1647 H   0  0  0  0  0  0  0  0  0  0  0  0
   64.3479   32.3509   49.6976 H   0  0  0  0  0  0  0  0  0  0  0  0
   59.6063   30.3775   52.1145 H   0  0  0  0  0  0  0  0  0  0  0  0
   60.8999   31.4246   52.8071 H   0  0  0  0  0  0  0  0  0  0  0  0
   58.5628   32.0716   53.5091 H   0  0  0  0  0  0  0  0  0  0  0  0
   59.4990   33.3789   52.6384 H   0  0  0  0  0  0  0  0  0  0  0  0
   56.9427   32.1035   51.9524 H   0  0  0  0  0  0  0  0  0  0  0  0
   57.7189   33.6706   51.3964 H   0  0  0  0  0  0  0  0  0  0  0  0
   57.8271   30.9271   50.1581 H   0  0  0  0  0  0  0  0  0  0  0  0
   57.5238   32.5543   49.4148 H   0  0  0  0  0  0  0  0  0  0  0  0
  1  2  1  0
  2  3  1  0
  3  4  1  0
  4  5  1  0
  5  6  1  0
  6  7  1  0
  7  8  1  0
  8  9  1  0
  9 10  1  0
 10 11  1  0
 11 12  2  0
 12 13  1  0
 13 14  2  0
 14 15  1  0
 14 16  1  0
 16 17  2  0
 17 18  1  0
 18 19  1  0
 19 20  1  0
 20 21  1  0
 13 22  1  0
 22 23  1  0
 23 24  1  0
 24 25  1  0
 17 11  1  0
 25 12  1  0
 21 16  1  0
  1 26  1  0
  1 27  1  0
  1 28  1  0
  2 29  1  0
  2 30  1  0
  3 31  1  0
  4 32  1  0
  4 33  1  0
  5 34  1  0
  5 35  1  0
  7 36  1  0
  7 37  1  0
  8 38  1  0
  8 39  1  0
  9 40  1  0
  9 41  1  0
 10 42  1  0
 15 43  1  0
 15 44  1  0
 15 45  1  0
 18 46  1  0
 18 47  1  0
 19 48  1  0
 19 49  1  0
 20 50  1  0
 20 51  1  0
 21 52  1  0
 21 53  1  0
 22 54  1  0
 22 55  1  0
 23 56  1  0
 23 57  1  0
 24 58  1  0
 24 59  1  0
 25 60  1  0
 25 61  1  0
M  CHG  1  14   1
M  END
>  <UniqueID>  (23) 
22

>  <SMILES>  (23) 
CCNCCOCCCNc1c2c([n+](C)c3c1CCCC3)CCCC2

>  <Energy>  (23) 
79.66010016152562

>  <Genealogy>  (23) 
CCNCCOCCCNc1c2c([n+](C)c3c1CCCC3)CCCC2 (3D coordinates assigned)
CCNCCOCCCNc1c2c([n+](C)c3c1CCCC3)CCCC2 (nonaromatic ring conformer: 79.66010016152562 kcal/mol)

>  <smiles>  (23) 
CCNCCOCCCNc1c2c([n+](C)c3c1CCCC3)CCCC2

>  <score_type>  (23) 
oracle

>  <origin>  (23) 
adg

>  <m_score__min__energy>  (23) 
-6.2400000000000002

>  <m_primary>  (23) 
energy

$$$$
23:0
     RDKit          3D

 66 68  0  0  0  0  0  0  0  0999 V2000
   57.7820   32.7320   43.5180 C   0  0  0  0  0  0  0  0  0  0  0  0
   58.1030   31.2840   43.8640 C   0  0  0  0  0  0  0  0  0  0  0  0
   57.1370   30.7900   44.8710 N   0  0  0  0  0  0  0  0  0  0  0  0
   56.0170   30.0040   44.3090 C   0  0  0  0  0  0  0  0  0  0  0  0
   56.2550   29.6860   42.8350 C   0  0  0  0  0  0  0  0  0  0  0  0
   57.7690   30.1740   46.0630 C   0  0  0  0  0  0  0  0  0  0  0  0
   59.3160   30.2340   46.1140 C   0  0  0  0  0  0  0  0  0  0  0  0
   60.0090   28.9310   45.6850 C   0  0  0  0  0  0  0  0  0  0  0  0
   60.3600   28.0950   46.8560 N   0  0  0  0  0  0  0  0  0  0  0  0
   60.4680   26.6690   46.4840 C   0  0  0  0  0  0  0  0  0  0  0  0
   59.3740   28.2660   47.9520 C   0  0  0  0  0  0  0  0  0  0  0  0
   59.9590   29.1410   49.0680 C   0  0  0  0  0  0  0  0  0  0  0  0
   58.9090   30.1000   49.6460 C   0  0  0  0  0  0  0  0  0  0  0  0
   59.5020   31.4000   49.9690 N   0  0  0  0  0  0  0  0  0  0  0  0
   60.4050   32.0730   49.0730 C   0  0  0  0  0  0  0  0  0  0  0  0
   61.7920   31.9970   49.2870 C   0  0  0  0  0  0  0  0  0  0  0  0
   62.3150   31.2140   50.3390 C   0  0  0  0  0  0  0  0  0  0  0  0
   63.6820   31.2010   50.6040 C   0  0  0  0  0  0  0  0  0  0  0  0
   64.5470   31.9710   49.8370 C   0  0  0  0  0  0  0  0  0  0  0  0
   64.0550   32.7350   48.7790 C   0  0  0  0  0  0  0  0  0  0  0  0
   62.6740   32.7330   48.4520 C   0  0  0  0  0  0  0  0  0  0  0  0
   62.1810   33.4370   47.3690 N   0  0  0  0  0  0  0  0  0  0  0  0
   63.1120   33.9770   46.3520 C   0  0  0  0  0  0  0  0  0  0  0  0
   60.8170   33.6030   47.2130 C   0  0  0  0  0  0  0  0  0  0  0  0
   60.2770   34.5000   46.2550 C   0  0  0  0  0  0  0  0  0  0  0  0
   58.9010   34.5910   46.0460 C   0  0  0  0  0  0  0  0  0  0  0  0
   58.0300   33.7970   46.7810 C   0  0  0  0  0  0  0  0  0  0  0  0
   58.5240   32.9440   47.7640 C   0  0  0  0  0  0  0  0  0  0  0  0
   59.9090   32.8710   48.0270 C   0  0  0  0  0  0  0  0  0  0  0  0
   57.6537   33.3106   44.4447 H   0  0  0  0  0  0  0  0  0  0  0  0
   58.6071   33.1600   42.9297 H   0  0  0  0  0  0  0  0  0  0  0  0
   56.8534   32.7712   42.9297 H   0  0  0  0  0  0  0  0  0  0  0  0
   58.0341   30.6665   42.9563 H   0  0  0  0  0  0  0  0  0  0  0  0
   59.1221   31.2228   44.2735 H   0  0  0  0  0  0  0  0  0  0  0  0
   55.9223   29.0621   44.8691 H   0  0  0  0  0  0  0  0  0  0  0  0
   55.0953   30.5983   44.3941 H   0  0  0  0  0  0  0  0  0  0  0  0
   56.9122   28.8079   42.7508 H   0  0  0  0  0  0  0  0  0  0  0  0
   55.2931   29.4723   42.3460 H   0  0  0  0  0  0  0  0  0  0  0  0
   56.7312   30.5486   42.3460 H   0  0  0  0  0  0  0  0  0  0  0  0
   57.3819   30.6895   46.9543 H   0  0  0  0  0  0  0  0  0  0  0  0
   57.5133   29.1051   46.0172 H   0  0  0  0  0  0  0  0  0  0  0  0
   59.6526   31.0404   45.4459 H   0  0  0  0  0  0  0  0  0  0  0  0
   59.5922   30.4092   47.1642 H   0  0  0  0  0  0  0  0  0  0  0  0
   59.3309   28.3637   45.0305 H   0  0  0  0  0  0  0  0  0  0  0  0
   60.9369   29.1908   45.1544 H   0  0  0  0  0  0  0  0  0  0  0  0
   60.5145   26.0548   47.3954 H   0  0  0  0  0  0  0  0  0  0  0  0
   59.5894   26.3775   45.8898 H   0  0  0  0  0  0  0  0  0  0  0  0
   61.3805   26.5131   45.8898 H   0  0  0  0  0  0  0  0  0  0  0  0
   58.4683   28.7458   47.5527 H   0  0  0  0  0  0  0  0  0  0  0  0
   59.1275   27.2775   48.3667 H   0  0  0  0  0  0  0  0  0  0  0  0
   60.3298   28.4905   49.8738 H   0  0  0  0  0  0  0  0  0  0  0  0
   60.7748   29.7425   48.6405 H   0  0  0  0  0  0  0  0  0  0  0  0
   58.1084   30.2445   48.9056 H   0  0  0  0  0  0  0  0  0  0  0  0
   58.5064   29.6606   50.5706 H   0  0  0  0  0  0  0  0  0  0  0  0
   59.1820   31.9020   50.8270 H   0  0  0  0  0  0  0  0  0  0  0  0
   61.6354   30.6077   50.9559 H   0  0  0  0  0  0  0  0  0  0  0  0
   64.0773   30.5803   51.4216 H   0  0  0  0  0  0  0  0  0  0  0  0
   65.6231   31.9782   50.0647 H   0  0  0  0  0  0  0  0  0  0  0  0
   64.7495   33.3499   48.1877 H   0  0  0  0  0  0  0  0  0  0  0  0
   63.9587   34.4681   46.8540 H   0  0  0  0  0  0  0  0  0  0  0  0
   63.4851   33.1551   45.7233 H   0  0  0  0  0  0  0  0  0  0  0  0
   62.5838   34.7089   45.7233 H   0  0  0  0  0  0  0  0  0  0  0  0
   60.9558   35.1349   45.6667 H   0  0  0  0  0  0  0  0  0  0  0  0
   58.5048   35.2930   45.2976 H   0  0  0  0  0  0  0  0  0  0  0  0
   56.9484   33.8423   46.5861 H   0  0  0  0  0  0  0  0  0  0  0  0
   57.8271   32.3197   48.3424 H   0  0  0  0  0  0  0  0  0  0  0  0
  1  2  1  0
  2  3  1  0
  3  4  1  0
  4  5  1  0
  3  6  1  0
  6  7  1  0
  7  8  1  0
  8  9  1  0
  9 10  1  0
  9 11  1  0
 11 12  1  0
 12 13  1  0
 13 14  1  0
 14 15  1  0
 15 16  2  0
 16 17  1  0
 17 18  2  0
 18 19  1  0
 19 20  2  0
 20 21  1  0
 21 22  2  0
 22 23  1  0
 22 24  1  0
 24 25  2  0
 25 26  1  0
 26 27  2  0
 27 28  1  0
 28 29  2  0
 29 15  1  0
 21 16  1  0
 29 24  1  0
  1 30  1  0
  1 31  1  0
  1 32  1  0
  2 33  1  0
  2 34  1  0
  4 35  1  0
  4 36  1  0
  5 37  1  0
  5 38  1  0
  5 39  1  0
  6 40  1  0
  6 41  1  0
  7 42  1  0
  7 43  1  0
  8 44  1  0
  8 45  1  0
 10 46  1  0
 10 47  1  0
 10 48  1  0
 11 49  1  0
 11 50  1  0
 12 51  1  0
 12 52  1  0
 13 53  1  0
 13 54  1  0
 14 55  1  0
 17 56  1  0
 18 57  1  0
 19 58  1  0
 20 59  1  0
 23 60  1  0
 23 61  1  0
 23 62  1  0
 25 63  1  0
 26 64  1  0
 27 65  1  0
 28 66  1  0
M  CHG  1  22   1
M  END
>  <UniqueID>  (24) 
23

>  <SMILES>  (24) 
CCN(CC)CCCN(C)CCCNc1c2ccccc2[n+](C)c2ccccc12

>  <Energy>  (24) 
93.97661686979039

>  <Genealogy>  (24) 
CCN(CC)CCCN(C)CCCNc1c2ccccc2[n+](C)c2ccccc12 (protonated)
CCN(CC)CCCN(C)CCCNc1c2ccccc2[n+](C)c2ccccc12 (3D coordinates assigned)
CCN(CC)CCCN(C)CCCNc1c2ccccc2[n+](C)c2ccccc12 (optimized conformer: 93.97661686979039 kcal/mol)

>  <smiles>  (24) 
CC[N+](CC)CCCN(C)CCCNc1c2ccccc2[n+](C)c2ccccc12

>  <score_type>  (24) 
oracle

>  <origin>  (24) 
adg

>  <m_score__min__energy>  (24) 
-6.4800000000000004

>  <m_primary>  (24) 
energy

$$$$
24:0
     RDKit          3D

 35 35  0  0  0  0  0  0  0  0999 V2000
   56.0980   30.3070   44.0800 C   0  0  0  0  0  0  0  0  0  0  0  0
   57.0130   31.1270   44.8900 N   0  0  0  0  0  0  0  0  0  0  0  0
   58.0470   30.3030   45.5330 C   0  0  0  0  0  0  0  0  0  0  0  0
   57.5630   32.2870   44.1510 C   0  0  0  0  0  0  0  0  0  0  0  0
   57.4170   33.6530   44.8720 C   0  0  0  0  0  0  0  0  0  0  0  0
   57.2290   33.4810   46.3240 N   0  0  0  0  0  0  0  0  0  0  0  0
   58.2660   34.2110   47.0720 C   0  0  0  0  0  0  0  0  0  0  0  0
   59.5480   34.3850   46.2420 C   0  0  0  0  0  0  0  0  0  0  0  0
   60.7810   34.0230   47.0290 C   0  0  0  0  0  0  0  0  0  0  0  0
   60.7220   33.9270   48.4290 C   0  0  0  0  0  0  0  0  0  0  0  0
   61.8740   33.6280   49.1640 C   0  0  0  0  0  0  0  0  0  0  0  0
   63.0910   33.4250   48.5080 C   0  0  0  0  0  0  0  0  0  0  0  0
   64.6640   33.0210   49.5130 Br  0  0  0  0  0  0  0  0  0  0  0  0
   63.1580   33.5240   47.1140 C   0  0  0  0  0  0  0  0  0  0  0  0
   62.0100   33.8240   46.3760 C   0  0  0  0  0  0  0  0  0  0  0  0
   55.4449   29.7217   44.7441 H   0  0  0  0  0  0  0  0  0  0  0  0
   55.4832   30.9620   43.4453 H   0  0  0  0  0  0  0  0  0  0  0  0
   56.6820   29.6243   43.4453 H   0  0  0  0  0  0  0  0  0  0  0  0
   57.9502   30.3802   46.6260 H   0  0  0  0  0  0  0  0  0  0  0  0
   57.9225   29.2538   45.2270 H   0  0  0  0  0  0  0  0  0  0  0  0
   59.0420   30.6586   45.2270 H   0  0  0  0  0  0  0  0  0  0  0  0
   58.6340   32.1050   43.9785 H   0  0  0  0  0  0  0  0  0  0  0  0
   56.9781   32.3654   43.2227 H   0  0  0  0  0  0  0  0  0  0  0  0
   58.3255   34.2481   44.6974 H   0  0  0  0  0  0  0  0  0  0  0  0
   56.5304   34.1633   44.4676 H   0  0  0  0  0  0  0  0  0  0  0  0
   56.2870   33.8490   46.5930 H   0  0  0  0  0  0  0  0  0  0  0  0
   57.2840   32.4650   46.5610 H   0  0  0  0  0  0  0  0  0  0  0  0
   57.8783   35.2044   47.3420 H   0  0  0  0  0  0  0  0  0  0  0  0
   58.5154   33.6281   47.9709 H   0  0  0  0  0  0  0  0  0  0  0  0
   59.4886   33.7360   45.3558 H   0  0  0  0  0  0  0  0  0  0  0  0
   59.6263   35.4437   45.9540 H   0  0  0  0  0  0  0  0  0  0  0  0
   59.7663   34.0875   48.9494 H   0  0  0  0  0  0  0  0  0  0  0  0
   61.8218   33.5526   50.2602 H   0  0  0  0  0  0  0  0  0  0  0  0
   64.1164   33.3653   46.5979 H   0  0  0  0  0  0  0  0  0  0  0  0
   62.0681   33.9047   45.2805 H   0  0  0  0  0  0  0  0  0  0  0  0
  1  2  1  0
  2  3  1  0
  2  4  1  0
  4  5  1  0
  5  6  1  0
  6  7  1  0
  7  8  1  0
  8  9  1  0
  9 10  2  0
 10 11  1  0
 11 12  2  0
 12 13  1  0
 12 14  1  0
 14 15  2  0
 15  9  1  0
  1 16  1  0
  1 17  1  0
  1 18  1  0
  3 19  1  0
  3 20  1  0
  3 21  1  0
  4 22  1  0
  4 23  1  0
  5 24  1  0
  5 25  1  0
  6 26  1  0
  6 27  1  0
  7 28  1  0
  7 29  1  0
  8 30  1  0
  8 31  1  0
 10 32  1  0
 11 33  1  0
 14 34  1  0
 15 35  1  0
M  CHG  1   6   1
M  END
>  <UniqueID>  (25) 
24

>  <SMILES>  (25) 
CN(C)CC[NH2+]CCc1ccc(Br)cc1

>  <Energy>  (25) 
32.96883840786131

>  <Genealogy>  (25) 
CN(C)CC[NH2+]CCc1ccc(Br)cc1 (protonated)
CN(C)CC[NH2+]CCc1ccc(Br)cc1 (3D coordinates assigned)
CN(C)CC[NH2+]CCc1ccc(Br)cc1 (optimized conformer: 32.96883840786131 kcal/mol)

>  <smiles>  (25) 
CN(C)CCNCCc1ccc(Br)cc1

>  <score_type>  (25) 
oracle

>  <origin>  (25) 
adg

>  <m_score__min__energy>  (25) 
-4.3099999999999996

>  <m_primary>  (25) 
energy

$$$$
25:0
     RDKit          3D

 54 55  0  0  0  0  0  0  0  0999 V2000
   59.6270   35.3400   45.6280 C   0  0  0  0  0  0  0  0  0  0  0  0
   58.3480   34.5280   45.4440 C   0  0  0  0  0  0  0  0  0  0  0  0
   58.0120   33.8340   46.7160 N   0  0  0  0  0  0  0  0  0  0  0  0
   59.0420   34.0630   47.7560 C   0  0  0  0  0  0  0  0  0  0  0  0
   58.9060   33.0490   48.8880 C   0  0  0  0  0  0  0  0  0  0  0  0
   57.7940   32.3830   46.5170 C   0  0  0  0  0  0  0  0  0  0  0  0
   57.6700   32.0300   45.0320 C   0  0  0  0  0  0  0  0  0  0  0  0
   56.5390   31.2060   44.8350 O   0  0  0  0  0  0  0  0  0  0  0  0
   56.7270   30.4120   43.6830 C   0  0  0  0  0  0  0  0  0  0  0  0
   57.1270   29.0020   44.1020 C   0  0  0  0  0  0  0  0  0  0  0  0
   56.8810   28.8110   45.5410 N   0  0  0  0  0  0  0  0  0  0  0  0
   57.6100   27.6690   46.1190 C   0  0  0  0  0  0  0  0  0  0  0  0
   58.9390   28.0810   46.7870 C   0  0  0  0  0  0  0  0  0  0  0  0
   59.1740   29.4860   46.6610 O   0  0  0  0  0  0  0  0  0  0  0  0
   60.1810   30.2040   47.3280 C   0  0  0  0  0  0  0  0  0  0  0  0
   60.5170   29.8130   48.6310 C   0  0  0  0  0  0  0  0  0  0  0  0
   61.5030   30.4930   49.3490 C   0  0  0  0  0  0  0  0  0  0  0  0
   62.1800   31.5750   48.7670 C   0  0  0  0  0  0  0  0  0  0  0  0
   63.1690   32.2680   49.4830 C   0  0  0  0  0  0  0  0  0  0  0  0
   63.8410   33.3390   48.8880 C   0  0  0  0  0  0  0  0  0  0  0  0
   63.5380   33.7210   47.5770 C   0  0  0  0  0  0  0  0  0  0  0  0
   62.5540   33.0380   46.8550 C   0  0  0  0  0  0  0  0  0  0  0  0
   61.8620   31.9680   47.4440 C   0  0  0  0  0  0  0  0  0  0  0  0
   60.8590   31.2880   46.7350 C   0  0  0  0  0  0  0  0  0  0  0  0
   59.8287   35.4681   46.7017 H   0  0  0  0  0  0  0  0  0  0  0  0
   60.4685   34.8104   45.1574 H   0  0  0  0  0  0  0  0  0  0  0  0
   59.5057   36.3268   45.1574 H   0  0  0  0  0  0  0  0  0  0  0  0
   57.5238   35.2009   45.1650 H   0  0  0  0  0  0  0  0  0  0  0  0
   58.4989   33.7826   44.6493 H   0  0  0  0  0  0  0  0  0  0  0  0
   60.0396   33.9655   47.3028 H   0  0  0  0  0  0  0  0  0  0  0  0
   58.9057   35.0730   48.1700 H   0  0  0  0  0  0  0  0  0  0  0  0
   58.9756   33.5679   49.8554 H   0  0  0  0  0  0  0  0  0  0  0  0
   57.9320   32.5434   48.8123 H   0  0  0  0  0  0  0  0  0  0  0  0
   59.7123   32.3046   48.8123 H   0  0  0  0  0  0  0  0  0  0  0  0
   58.6445   31.8322   46.9450 H   0  0  0  0  0  0  0  0  0  0  0  0
   56.8543   32.1046   47.0164 H   0  0  0  0  0  0  0  0  0  0  0  0
   57.5577   32.9529   44.4442 H   0  0  0  0  0  0  0  0  0  0  0  0
   58.5741   31.4946   44.7064 H   0  0  0  0  0  0  0  0  0  0  0  0
   55.7905   30.3724   43.1073 H   0  0  0  0  0  0  0  0  0  0  0  0
   57.5204   30.8499   43.0594 H   0  0  0  0  0  0  0  0  0  0  0  0
   56.5344   28.2715   43.5318 H   0  0  0  0  0  0  0  0  0  0  0  0
   58.1982   28.8569   43.8983 H   0  0  0  0  0  0  0  0  0  0  0  0
   57.1200   29.6850   46.0620 H   0  0  0  0  0  0  0  0  0  0  0  0
   56.9704   27.1908   46.8754 H   0  0  0  0  0  0  0  0  0  0  0  0
   57.8536   26.9818   45.2954 H   0  0  0  0  0  0  0  0  0  0  0  0
   58.8988   27.8194   47.8547 H   0  0  0  0  0  0  0  0  0  0  0  0
   59.7588   27.5469   46.2842 H   0  0  0  0  0  0  0  0  0  0  0  0
   59.9981   28.9605   49.0936 H   0  0  0  0  0  0  0  0  0  0  0  0
   61.7495   30.1792   50.3741 H   0  0  0  0  0  0  0  0  0  0  0  0
   63.4149   31.9679   50.5123 H   0  0  0  0  0  0  0  0  0  0  0  0
   64.6116   33.8840   49.4530 H   0  0  0  0  0  0  0  0  0  0  0  0
   64.0752   34.5610   47.1125 H   0  0  0  0  0  0  0  0  0  0  0  0
   62.3217   33.3400   45.8231 H   0  0  0  0  0  0  0  0  0  0  0  0
   60.6014   31.6024   45.7129 H   0  0  0  0  0  0  0  0  0  0  0  0
  1  2  1  0
  2  3  1  0
  3  4  1  0
  4  5  1  0
  3  6  1  0
  6  7  1  0
  7  8  1  0
  8  9  1  0
  9 10  1  0
 10 11  1  0
 11 12  1  0
 12 13  1  0
 13 14  1  0
 14 15  1  0
 15 16  2  0
 16 17  1  0
 17 18  2  0
 18 19  1  0
 19 20  2  0
 20 21  1  0
 21 22  2  0
 22 23  1  0
 23 24  2  0
 24 15  1  0
 23 18  1  0
  1 25  1  0
  1 26  1  0
  1 27  1  0
  2 28  1  0
  2 29  1  0
  4 30  1  0
  4 31  1  0
  5 32  1  0
  5 33  1  0
  5 34  1  0
  6 35  1  0
  6 36  1  0
  7 37  1  0
  7 38  1  0
  9 39  1  0
  9 40  1  0
 10 41  1  0
 10 42  1  0
 11 43  1  0
 12 44  1  0
 12 45  1  0
 13 46  1  0
 13 47  1  0
 16 48  1  0
 17 49  1  0
 19 50  1  0
 20 51  1  0
 21 52  1  0
 22 53  1  0
 24 54  1  0
M  END
>  <UniqueID>  (26) 
25

>  <SMILES>  (26) 
CCN(CC)CCOCCNCCOc1ccc2ccccc2c1

>  <Energy>  (26) 
49.93657294643127

>  <Genealogy>  (26) 
CCN(CC)CCOCCNCCOc1ccc2ccccc2c1 (3D coordinates assigned)
CCN(CC)CCOCCNCCOc1ccc2ccccc2c1 (optimized conformer: 49.93657294643127 kcal/mol)

>  <smiles>  (26) 
CCN(CC)CCOCCNCCOc1ccc2ccccc2c1

>  <score_type>  (26) 
oracle

>  <origin>  (26) 
adg

>  <m_score__min__energy>  (26) 
-6.4800000000000004

>  <m_primary>  (26) 
energy

$$$$
26:0
     RDKit          3D

 52 54  0  0  0  0  0  0  0  0999 V2000
   56.6550   22.3460   43.1080 C   0  0  0  0  0  0  0  0  0  0  0  0
   56.2720   23.7040   43.6940 C   0  0  0  0  0  0  0  0  0  0  0  0
   57.4580   24.4350   44.3490 C   0  0  0  0  0  0  0  0  0  0  0  0
   57.5460   24.2200   45.8650 C   0  0  0  0  0  0  0  0  0  0  0  0
   56.5300   25.0070   46.5510 N   0  0  0  0  0  0  0  0  0  0  0  0
   55.9760   26.2250   46.0400 C   0  0  0  0  0  0  0  0  0  0  0  0
   54.7230   26.3450   45.9830 O   0  0  0  0  0  0  0  0  0  0  0  0
   56.8240   27.2960   45.5980 N   0  0  0  0  0  0  0  0  0  0  0  0
   56.3010   28.6120   45.2300 C   0  0  0  0  0  0  0  0  0  0  0  0
   56.9590   29.1310   43.9480 C   0  0  0  0  0  0  0  0  0  0  0  0
   58.3580   29.4860   44.1880 N   0  0  0  0  0  0  0  0  0  0  0  0
   58.7640   30.1370   45.4040 C   0  0  0  0  0  0  0  0  0  0  0  0
   58.4860   31.5020   45.6040 C   0  0  0  0  0  0  0  0  0  0  0  0
   57.7020   32.2230   44.6770 C   0  0  0  0  0  0  0  0  0  0  0  0
   57.3910   33.5620   44.8970 C   0  0  0  0  0  0  0  0  0  0  0  0
   57.8330   34.1990   46.0500 C   0  0  0  0  0  0  0  0  0  0  0  0
   58.6020   33.5050   46.9840 C   0  0  0  0  0  0  0  0  0  0  0  0
   58.9670   32.1510   46.7720 C   0  0  0  0  0  0  0  0  0  0  0  0
   59.7500   31.4580   47.6770 N   0  0  0  0  0  0  0  0  0  0  0  0
   60.4890   32.1920   48.7290 C   0  0  0  0  0  0  0  0  0  0  0  0
   59.8560   30.0830   47.5880 C   0  0  0  0  0  0  0  0  0  0  0  0
   60.4110   29.3090   48.6390 C   0  0  0  0  0  0  0  0  0  0  0  0
   60.5650   27.9280   48.5130 C   0  0  0  0  0  0  0  0  0  0  0  0
   60.1610   27.2840   47.3500 C   0  0  0  0  0  0  0  0  0  0  0  0
   59.5750   28.0100   46.3170 C   0  0  0  0  0  0  0  0  0  0  0  0
   59.3920   29.4050   46.4290 C   0  0  0  0  0  0  0  0  0  0  0  0
   56.8549   21.6373   43.9251 H   0  0  0  0  0  0  0  0  0  0  0  0
   55.8285   21.9677   42.4885 H   0  0  0  0  0  0  0  0  0  0  0  0
   57.5574   22.4553   42.4885 H   0  0  0  0  0  0  0  0  0  0  0  0
   55.8753   24.3351   42.8851 H   0  0  0  0  0  0  0  0  0  0  0  0
   55.5237   23.5230   44.4797 H   0  0  0  0  0  0  0  0  0  0  0  0
   58.3887   24.0693   43.8907 H   0  0  0  0  0  0  0  0  0  0  0  0
   57.3067   25.5118   44.1827 H   0  0  0  0  0  0  0  0  0  0  0  0
   57.3911   23.1543   46.0892 H   0  0  0  0  0  0  0  0  0  0  0  0
   58.5393   24.5399   46.2130 H   0  0  0  0  0  0  0  0  0  0  0  0
   57.8460   27.1270   45.4740 H   0  0  0  0  0  0  0  0  0  0  0  0
   55.2154   28.5348   45.0702 H   0  0  0  0  0  0  0  0  0  0  0  0
   56.5240   29.3158   46.0454 H   0  0  0  0  0  0  0  0  0  0  0  0
   56.9130   28.3480   43.1768 H   0  0  0  0  0  0  0  0  0  0  0  0
   56.4198   30.0299   43.6144 H   0  0  0  0  0  0  0  0  0  0  0  0
   59.0240   29.4490   43.3830 H   0  0  0  0  0  0  0  0  0  0  0  0
   57.3327   31.7209   43.7706 H   0  0  0  0  0  0  0  0  0  0  0  0
   56.7947   34.1163   44.1573 H   0  0  0  0  0  0  0  0  0  0  0  0
   57.5757   35.2538   46.2267 H   0  0  0  0  0  0  0  0  0  0  0  0
   58.9310   34.0165   47.9006 H   0  0  0  0  0  0  0  0  0  0  0  0
   60.1491   31.8544   49.7192 H   0  0  0  0  0  0  0  0  0  0  0  0
   61.5664   31.9962   48.6247 H   0  0  0  0  0  0  0  0  0  0  0  0
   60.3006   33.2707   48.6247 H   0  0  0  0  0  0  0  0  0  0  0  0
   60.7252   29.8057   49.5688 H   0  0  0  0  0  0  0  0  0  0  0  0
   61.0073   27.3478   49.3363 H   0  0  0  0  0  0  0  0  0  0  0  0
   60.3045   26.1984   47.2454 H   0  0  0  0  0  0  0  0  0  0  0  0
   59.2509   27.4907   45.4031 H   0  0  0  0  0  0  0  0  0  0  0  0
  1  2  1  0
  2  3  1  0
  3  4  1  0
  4  5  1  0
  5  6  1  0
  6  7  2  0
  6  8  1  0
  8  9  1  0
  9 10  1  0
 10 11  1  0
 11 12  1  0
 12 13  2  0
 13 14  1  0
 14 15  2  0
 15 16  1  0
 16 17  2  0
 17 18  1  0
 18 19  2  0
 19 20  1  0
 19 21  1  0
 21 22  2  0
 22 23  1  0
 23 24  2  0
 24 25  1  0
 25 26  2  0
 26 12  1  0
 18 13  1  0
 26 21  1  0
  1 27  1  0
  1 28  1  0
  1 29  1  0
  2 30  1  0
  2 31  1  0
  3 32  1  0
  3 33  1  0
  4 34  1  0
  4 35  1  0
  8 36  1  0
  9 37  1  0
  9 38  1  0
 10 39  1  0
 10 40  1  0
 11 41  1  0
 14 42  1  0
 15 43  1  0
 16 44  1  0
 17 45  1  0
 20 46  1  0
 20 47  1  0
 20 48  1  0
 22 49  1  0
 23 50  1  0
 24 51  1  0
 25 52  1  0
M  CHG  2   5  -1  19   1
M  END
>  <UniqueID>  (27) 
26

>  <SMILES>  (27) 
CCCC[N-]C(=O)NCCNc1c2ccccc2[n+](C)c2ccccc12

>  <Energy>  (27) 
67.70417114733468

>  <Genealogy>  (27) 
CCCC[N-]C(=O)NCCNc1c2ccccc2[n+](C)c2ccccc12 (protonated)
CCCC[N-]C(=O)NCCNc1c2ccccc2[n+](C)c2ccccc12 (3D coordinates assigned)
CCCC[N-]C(=O)NCCNc1c2ccccc2[n+](C)c2ccccc12 (optimized conformer: 67.70417114733468 kcal/mol)

>  <smiles>  (27) 
CCCCNC(=O)NCCNc1c2ccccc2[n+](C)c2ccccc12

>  <score_type>  (27) 
oracle

>  <origin>  (27) 
adg

>  <m_score__min__energy>  (27) 
-8.6300000000000008

>  <m_primary>  (27) 
energy

$$$$
