0:0
     RDKit          3D

 42 44  0  0  0  0  0  0  0  0999 V2000
   55.2040   29.7180   45.2010 O   0  0  0  0  0  0  0  0  0  0  0  0
   55.9970   28.7790   44.8980 C   0  0  0  0  0  0  0  0  0  0  0  0
   56.9690   28.9690   43.7560 C   0  0  0  0  0  0  0  0  0  0  0  0
   56.7380   30.2860   42.9970 C   0  0  0  0  0  0  0  0  0  0  0  0
   57.3630   31.4430   43.7110 C   0  0  0  0  0  0  0  0  0  0  0  0
   57.5920   31.4800   45.0400 N   0  0  0  0  0  0  0  0  0  0  0  0
   58.1910   32.6830   45.1760 C   0  0  0  0  0  0  0  0  0  0  0  0
   58.6760   33.2240   46.4690 C   0  0  0  0  0  0  0  0  0  0  0  0
   59.4370   34.4100   46.5090 C   0  0  0  0  0  0  0  0  0  0  0  0
   59.9070   34.9050   47.7330 C   0  0  0  0  0  0  0  0  0  0  0  0
   59.6280   34.2270   48.9230 C   0  0  0  0  0  0  0  0  0  0  0  0
   58.8790   33.0480   48.8950 C   0  0  0  0  0  0  0  0  0  0  0  0
   58.5150   32.1110   50.5260 Br  0  0  0  0  0  0  0  0  0  0  0  0
   58.4010   32.5460   47.6740 C   0  0  0  0  0  0  0  0  0  0  0  0
   58.3170   33.3290   43.9950 N   0  0  0  0  0  0  0  0  0  0  0  0
   57.7950   32.5270   43.1140 O   0  0  0  0  0  0  0  0  0  0  0  0
   55.8910   27.5280   45.6090 N   0  0  0  0  0  0  0  0  0  0  0  0
   56.9600   26.9210   46.4030 C   0  0  0  0  0  0  0  0  0  0  0  0
   58.3180   27.1200   45.7130 C   0  0  0  0  0  0  0  0  0  0  0  0
   59.1480   28.1770   46.4130 C   0  0  0  0  0  0  0  0  0  0  0  0
   59.9120   29.0910   45.6630 C   0  0  0  0  0  0  0  0  0  0  0  0
   60.6630   30.0860   46.3110 C   0  0  0  0  0  0  0  0  0  0  0  0
   60.6590   30.1740   47.7080 C   0  0  0  0  0  0  0  0  0  0  0  0
   59.9030   29.2680   48.4580 C   0  0  0  0  0  0  0  0  0  0  0  0
   59.1450   28.2760   47.8150 C   0  0  0  0  0  0  0  0  0  0  0  0
   57.9920   28.9700   44.1603 H   0  0  0  0  0  0  0  0  0  0  0  0
   56.8147   28.1433   43.0458 H   0  0  0  0  0  0  0  0  0  0  0  0
   57.1804   30.2032   41.9933 H   0  0  0  0  0  0  0  0  0  0  0  0
   55.6543   30.4632   42.9318 H   0  0  0  0  0  0  0  0  0  0  0  0
   59.6626   34.9485   45.5767 H   0  0  0  0  0  0  0  0  0  0  0  0
   60.4986   35.8320   47.7573 H   0  0  0  0  0  0  0  0  0  0  0  0
   59.9979   34.6214   49.8809 H   0  0  0  0  0  0  0  0  0  0  0  0
   57.8090   31.6190   47.6576 H   0  0  0  0  0  0  0  0  0  0  0  0
   56.9858   27.3921   47.3967 H   0  0  0  0  0  0  0  0  0  0  0  0
   56.7639   25.8431   46.5010 H   0  0  0  0  0  0  0  0  0  0  0  0
   58.8681   26.1675   45.7256 H   0  0  0  0  0  0  0  0  0  0  0  0
   58.1347   27.4533   44.6809 H   0  0  0  0  0  0  0  0  0  0  0  0
   59.9211   29.0259   44.5650 H   0  0  0  0  0  0  0  0  0  0  0  0
   61.2561   30.7982   45.7186 H   0  0  0  0  0  0  0  0  0  0  0  0
   61.2484   30.9530   48.2138 H   0  0  0  0  0  0  0  0  0  0  0  0
   59.9020   29.3325   49.5561 H   0  0  0  0  0  0  0  0  0  0  0  0
   58.5457   27.5727   48.4118 H   0  0  0  0  0  0  0  0  0  0  0  0
  1  2  2  0
  2  3  1  0
  3  4  1  0
  4  5  1  0
  5  6  2  0
  6  7  1  0
  7  8  1  0
  8  9  2  0
  9 10  1  0
 10 11  2  0
 11 12  1  0
 12 13  1  0
 12 14  2  0
  7 15  2  0
 15 16  1  0
  2 17  1  0
 17 18  1  0
 18 19  1  0
 19 20  1  0
 20 21  2  0
 21 22  1  0
 22 23  2  0
 23 24  1  0
 24 25  2  0
 16  5  1  0
 25 20  1  0
 14  8  1  0
  3 26  1  0
  3 27  1  0
  4 28  1  0
  4 29  1  0
  9 30  1  0
 10 31  1  0
 11 32  1  0
 14 33  1  0
 18 34  1  0
 18 35  1  0
 19 36  1  0
 19 37  1  0
 21 38  1  0
 22 39  1  0
 23 40  1  0
 24 41  1  0
 25 42  1  0
M  CHG  1  17  -1
M  END
>  <UniqueID>  (1) 
1

>  <SMILES>  (1) 
O=C(CCc1nc(-c2cccc(Br)c2)no1)[N-]CCc1ccccc1

>  <Energy>  (1) 
69.95466150929765

>  <Genealogy>  (1) 
O=C(CCc1nc(-c2cccc(Br)c2)no1)[N-]CCc1ccccc1 (protonated)
O=C(CCc1nc(-c2cccc(Br)c2)no1)[N-]CCc1ccccc1 (3D coordinates assigned)
O=C(CCc1nc(-c2cccc(Br)c2)no1)[N-]CCc1ccccc1 (optimized conformer: 69.95466150929765 kcal/mol)

>  <smiles>  (1) 
O=C(CCc1nc(-c2cccc(Br)c2)no1)NCCc1ccccc1

>  <score_type>  (1) 
oracle

>  <origin>  (1) 
adg

>  <m_score__min__energy>  (1) 
-11.59

>  <m_primary>  (1) 
energy

$$$$
1:0
     RDKit          3D

 58 63  0  0  0  0  0  0  0  0999 V2000
   62.8040   33.4940   52.2830 C   0  0  0  0  0  0  0  0  0  0  0  0
   64.0700   33.2230   51.5160 C   0  0  0  0  0  0  0  0  0  0  0  0
   65.2340   33.9390   51.8430 C   0  0  0  0  0  0  0  0  0  0  0  0
   66.4280   33.7070   51.1520 C   0  0  0  0  0  0  0  0  0  0  0  0
   66.4750   32.7490   50.1390 C   0  0  0  0  0  0  0  0  0  0  0  0
   65.3330   32.0140   49.8170 C   0  0  0  0  0  0  0  0  0  0  0  0
   64.1260   32.2430   50.4970 C   0  0  0  0  0  0  0  0  0  0  0  0
   62.9780   31.4430   50.1680 N   0  0  0  0  0  0  0  0  0  0  0  0
   62.6190   30.2990   50.7750 C   0  0  0  0  0  0  0  0  0  0  0  0
   63.1610   29.7790   51.9050 N   0  0  0  0  0  0  0  0  0  0  0  0
   62.5930   28.6710   52.4640 C   0  0  0  0  0  0  0  0  0  0  0  0
   61.4270   28.1090   51.9060 C   0  0  0  0  0  0  0  0  0  0  0  0
   60.8700   28.6620   50.7400 C   0  0  0  0  0  0  0  0  0  0  0  0
   61.5400   29.7400   50.1450 C   0  0  0  0  0  0  0  0  0  0  0  0
   61.2310   30.5060   49.0650 N   0  0  0  0  0  0  0  0  0  0  0  0
   60.3240   30.3570   48.0450 C   0  0  0  0  0  0  0  0  0  0  0  0
   59.6540   29.1460   47.7880 C   0  0  0  0  0  0  0  0  0  0  0  0
   58.6730   29.0480   46.7820 C   0  0  0  0  0  0  0  0  0  0  0  0
   57.9660   27.8010   46.5710 N   0  0  0  0  0  0  0  0  0  0  0  0
   58.0140   26.6670   47.4880 C   0  0  0  0  0  0  0  0  0  0  0  0
   57.4290   25.4890   46.7190 C   0  0  0  0  0  0  0  0  0  0  0  0
   56.6080   26.1130   45.5830 C   0  0  1  0  0  0  0  0  0  0  0  0
   55.1960   26.2600   45.9600 N   0  0  0  0  0  0  0  0  0  0  0  0
   57.2440   27.4800   45.3450 C   0  0  0  0  0  0  0  0  0  0  0  0
   58.4170   30.1780   45.9790 C   0  0  0  0  0  0  0  0  0  0  0  0
   57.5020   30.1390   44.9780 F   0  0  0  0  0  0  0  0  0  0  0  0
   59.1600   31.3470   46.1450 C   0  0  0  0  0  0  0  0  0  0  0  0
   60.1380   31.4400   47.1500 C   0  0  0  0  0  0  0  0  0  0  0  0
   60.9570   32.5870   47.2640 C   0  0  0  0  0  0  0  0  0  0  0  0
   60.7940   33.5600   46.4740 O   0  0  0  0  0  0  0  0  0  0  0  0
   61.9620   32.6520   48.2490 C   0  0  0  0  0  0  0  0  0  0  0  0
   62.7730   33.8770   48.3700 C   0  0  0  0  0  0  0  0  0  0  0  0
   62.4700   34.8500   49.3710 N   0  0  0  0  0  0  0  0  0  0  0  0
   63.7140   34.0860   47.5590 O   0  0  0  0  0  0  0  0  0  0  0  0
   62.0880   31.5650   49.1390 C   0  0  0  0  0  0  0  0  0  0  0  0
   63.0124   33.4494   53.3622 H   0  0  0  0  0  0  0  0  0  0  0  0
   62.4251   34.4936   52.0238 H   0  0  0  0  0  0  0  0  0  0  0  0
   62.0491   32.7371   52.0238 H   0  0  0  0  0  0  0  0  0  0  0  0
   65.2061   34.6876   52.6485 H   0  0  0  0  0  0  0  0  0  0  0  0
   67.3310   34.2807   51.4077 H   0  0  0  0  0  0  0  0  0  0  0  0
   67.4136   32.5726   49.5931 H   0  0  0  0  0  0  0  0  0  0  0  0
   65.3788   31.2510   49.0260 H   0  0  0  0  0  0  0  0  0  0  0  0
   63.0478   28.2139   53.3552 H   0  0  0  0  0  0  0  0  0  0  0  0
   60.9533   27.2382   52.3827 H   0  0  0  0  0  0  0  0  0  0  0  0
   59.9401   28.2625   50.3091 H   0  0  0  0  0  0  0  0  0  0  0  0
   59.9020   28.2566   48.3859 H   0  0  0  0  0  0  0  0  0  0  0  0
   59.0527   26.4552   47.7819 H   0  0  0  0  0  0  0  0  0  0  0  0
   57.4515   26.8681   48.4117 H   0  0  0  0  0  0  0  0  0  0  0  0
   58.2326   24.8578   46.3116 H   0  0  0  0  0  0  0  0  0  0  0  0
   56.8130   24.8445   47.3634 H   0  0  0  0  0  0  0  0  0  0  0  0
   56.6182   25.4821   44.6819 H   0  0  0  0  0  0  0  0  0  0  0  0
   54.7730   27.0670   45.4390 H   0  0  0  0  0  0  0  0  0  0  0  0
   55.1520   26.4910   46.9790 H   0  0  0  0  0  0  0  0  0  0  0  0
   57.9375   27.4366   44.4922 H   0  0  0  0  0  0  0  0  0  0  0  0
   56.4876   28.2430   45.1089 H   0  0  0  0  0  0  0  0  0  0  0  0
   58.9783   32.2056   45.4818 H   0  0  0  0  0  0  0  0  0  0  0  0
   61.6510   34.7180   50.0040 H   0  0  0  0  0  0  0  0  0  0  0  0
   63.0450   35.7160   49.4580 H   0  0  0  0  0  0  0  0  0  0  0  0
  1  2  1  0
  2  3  2  0
  3  4  1  0
  4  5  2  0
  5  6  1  0
  6  7  2  0
  7  8  1  0
  8  9  1  0
  9 10  2  0
 10 11  1  0
 11 12  2  0
 12 13  1  0
 13 14  2  0
 14 15  1  0
 15 16  1  0
 16 17  2  0
 17 18  1  0
 18 19  1  0
 19 20  1  0
 20 21  1  0
 21 22  1  0
 22 23  1  0
 22 24  1  0
 18 25  2  0
 25 26  1  0
 25 27  1  0
 27 28  2  0
 28 29  1  0
 29 30  2  0
 29 31  1  0
 31 32  1  0
 32 33  1  0
 32 34  2  0
 31 35  2  0
  7  2  1  0
 35  8  1  0
 14  9  1  0
 35 15  1  0
 28 16  1  0
 24 19  1  0
  1 36  1  0
  1 37  1  0
  1 38  1  0
  3 39  1  0
  4 40  1  0
  5 41  1  0
  6 42  1  0
 11 43  1  0
 12 44  1  0
 13 45  1  0
 17 46  1  0
 20 47  1  0
 20 48  1  0
 21 49  1  0
 21 50  1  0
 22 51  1  6
 23 52  1  0
 23 53  1  0
 24 54  1  0
 24 55  1  0
 27 56  1  0
 33 57  1  0
 33 58  1  0
M  END
>  <UniqueID>  (2) 
2

>  <SMILES>  (2) 
Cc1ccccc1-n1c2ncccc2n2c3cc(N4CC[C@@H](N)C4)c(F)cc3c(=O)c(C(N)=O)c12

>  <Energy>  (2) 
145.55447239031574

>  <Genealogy>  (2) 
Cc1ccccc1-n1c2ncccc2n2c3cc(N4CC[C@@H](N)C4)c(F)cc3c(=O)c(C(N)=O)c12 (chirality)
Cc1ccccc1-n1c2ncccc2n2c3cc(N4CC[C@@H](N)C4)c(F)cc3c(=O)c(C(N)=O)c12 (3D coordinates assigned)
Cc1ccccc1-n1c2ncccc2n2c3cc(N4CC[C@@H](N)C4)c(F)cc3c(=O)c(C(N)=O)c12 (nonaromatic ring conformer: 145.55447239031574 kcal/mol)

>  <smiles>  (2) 
Cc1ccccc1-n1c2ncccc2n2c3cc(N4CCC(N)C4)c(F)cc3c(=O)c(C(N)=O)c12

>  <score_type>  (2) 
oracle

>  <origin>  (2) 
adg

>  <m_score__min__energy>  (2) 
-8.4900000000000002

>  <m_primary>  (2) 
energy

$$$$
2:0
     RDKit          3D

 33 36  0  0  0  0  0  0  0  0999 V2000
   56.2460   24.4240   44.7070 C   0  0  0  0  0  0  0  0  0  0  0  0
   56.1530   25.1340   45.9380 O   0  0  0  0  0  0  0  0  0  0  0  0
   57.1520   25.9800   46.4450 C   0  0  0  0  0  0  0  0  0  0  0  0
   58.1670   25.5110   47.3050 C   0  0  0  0  0  0  0  0  0  0  0  0
   59.1470   26.3830   47.7920 C   0  0  0  0  0  0  0  0  0  0  0  0
   59.1360   27.7340   47.4340 C   0  0  0  0  0  0  0  0  0  0  0  0
   58.1350   28.2140   46.5810 C   0  0  0  0  0  0  0  0  0  0  0  0
   57.1360   27.3360   46.0820 C   0  0  0  0  0  0  0  0  0  0  0  0
   56.1580   27.8160   45.2460 N   0  0  0  0  0  0  0  0  0  0  0  0
   56.1040   29.1280   44.8680 C   0  0  0  0  0  0  0  0  0  0  0  0
   57.0800   29.9900   45.3540 C   0  0  0  0  0  0  0  0  0  0  0  0
   57.2190   31.3010   45.1160 N   0  0  0  0  0  0  0  0  0  0  0  0
   58.3270   31.6170   45.8400 C   0  0  0  0  0  0  0  0  0  0  0  0
   58.8890   32.9850   45.8940 C   0  0  0  0  0  0  0  0  0  0  0  0
   59.6200   33.4120   47.0190 C   0  0  0  0  0  0  0  0  0  0  0  0
   60.1500   34.7050   47.0680 C   0  0  0  0  0  0  0  0  0  0  0  0
   59.9570   35.5830   45.9990 C   0  0  0  0  0  0  0  0  0  0  0  0
   59.2330   35.1690   44.8780 C   0  0  0  0  0  0  0  0  0  0  0  0
   58.7020   33.8770   44.8240 C   0  0  0  0  0  0  0  0  0  0  0  0
   58.8740   30.5660   46.5100 N   0  0  0  0  0  0  0  0  0  0  0  0
   58.0600   29.5500   46.1820 C   0  0  0  0  0  0  0  0  0  0  0  0
   56.3864   23.3523   44.9115 H   0  0  0  0  0  0  0  0  0  0  0  0
   55.3212   24.5690   44.1293 H   0  0  0  0  0  0  0  0  0  0  0  0
   57.1023   24.8023   44.1293 H   0  0  0  0  0  0  0  0  0  0  0  0
   58.1883   24.4502   47.5954 H   0  0  0  0  0  0  0  0  0  0  0  0
   59.9321   26.0023   48.4618 H   0  0  0  0  0  0  0  0  0  0  0  0
   59.9085   28.4154   47.8198 H   0  0  0  0  0  0  0  0  0  0  0  0
   55.3108   29.4916   44.1982 H   0  0  0  0  0  0  0  0  0  0  0  0
   59.7750   32.7248   47.8638 H   0  0  0  0  0  0  0  0  0  0  0  0
   60.7201   35.0314   47.9503 H   0  0  0  0  0  0  0  0  0  0  0  0
   60.3747   36.5998   46.0396 H   0  0  0  0  0  0  0  0  0  0  0  0
   59.0806   35.8609   44.0365 H   0  0  0  0  0  0  0  0  0  0  0  0
   58.1340   33.5563   43.9382 H   0  0  0  0  0  0  0  0  0  0  0  0
  1  2  1  0
  2  3  1  0
  3  4  2  0
  4  5  1  0
  5  6  2  0
  6  7  1  0
  7  8  2  0
  8  9  1  0
  9 10  2  0
 10 11  1  0
 11 12  1  0
 12 13  1  0
 13 14  1  0
 14 15  2  0
 15 16  1  0
 16 17  2  0
 17 18  1  0
 18 19  2  0
 13 20  2  0
 20 21  1  0
  8  3  1  0
 21 11  2  0
 21  7  1  0
 19 14  1  0
  1 22  1  0
  1 23  1  0
  1 24  1  0
  4 25  1  0
  5 26  1  0
  6 27  1  0
 10 28  1  0
 15 29  1  0
 16 30  1  0
 17 31  1  0
 18 32  1  0
 19 33  1  0
M  CHG  1  12  -1
M  END
>  <UniqueID>  (3) 
3

>  <SMILES>  (3) 
COc1cccc2c1ncc1[n-]c(-c3ccccc3)nc12

>  <Energy>  (3) 
76.98309961691564

>  <Genealogy>  (3) 
COc1cccc2c1ncc1[n-]c(-c3ccccc3)nc12 (protonated)
COc1cccc2c1ncc1[n-]c(-c3ccccc3)nc12 (3D coordinates assigned)
COc1cccc2c1ncc1[n-]c(-c3ccccc3)nc12 (optimized conformer: 76.98309961691564 kcal/mol)

>  <smiles>  (3) 
COc1cccc2c1ncc1[nH]c(-c3ccccc3)nc12

>  <score_type>  (3) 
oracle

>  <origin>  (3) 
adg

>  <m_score__min__energy>  (3) 
-7.8799999999999999

>  <m_primary>  (3) 
energy

$$$$
3:0
     RDKit          3D

 32 33  0  0  0  0  0  0  0  0999 V2000
   58.3120   27.4460   44.1230 C   0  0  0  0  0  0  0  0  0  0  0  0
   57.9900   28.1550   45.3150 O   0  0  0  0  0  0  0  0  0  0  0  0
   58.5380   29.3970   45.6740 C   0  0  0  0  0  0  0  0  0  0  0  0
   59.8170   29.5090   46.2510 C   0  0  0  0  0  0  0  0  0  0  0  0
   60.3290   30.7630   46.5950 C   0  0  0  0  0  0  0  0  0  0  0  0
   61.5630   30.8600   47.1520 N   0  0  0  0  0  0  0  0  0  0  0  0
   62.0850   32.0650   47.4990 C   0  0  0  0  0  0  0  0  0  0  0  0
   63.4570   32.1330   48.0930 C   0  0  0  0  0  0  0  0  0  0  0  0
   61.3730   33.2060   47.2810 N   0  0  0  0  0  0  0  0  0  0  0  0
   60.1240   33.1660   46.7260 C   0  0  0  0  0  0  0  0  0  0  0  0
   59.3860   34.3410   46.5030 O   0  0  0  0  0  0  0  0  0  0  0  0
   59.2570   34.9810   45.2390 C   0  0  0  0  0  0  0  0  0  0  0  0
   59.5690   31.9250   46.3670 C   0  0  0  0  0  0  0  0  0  0  0  0
   58.2930   31.8150   45.7920 C   0  0  0  0  0  0  0  0  0  0  0  0
   57.7740   30.5520   45.4430 C   0  0  0  0  0  0  0  0  0  0  0  0
   56.5020   30.4040   44.8660 O   0  0  0  0  0  0  0  0  0  0  0  0
   56.2660   30.0870   43.4980 C   0  0  0  0  0  0  0  0  0  0  0  0
   58.7539   26.4729   44.3832 H   0  0  0  0  0  0  0  0  0  0  0  0
   57.3976   27.2873   43.5324 H   0  0  0  0  0  0  0  0  0  0  0  0
   59.0332   28.0301   43.5324 H   0  0  0  0  0  0  0  0  0  0  0  0
   60.4166   28.6048   46.4321 H   0  0  0  0  0  0  0  0  0  0  0  0
   63.3820   32.1293   49.1904 H   0  0  0  0  0  0  0  0  0  0  0  0
   64.0432   31.2628   47.7626 H   0  0  0  0  0  0  0  0  0  0  0  0
   63.9542   33.0569   47.7626 H   0  0  0  0  0  0  0  0  0  0  0  0
   61.8040   34.1190   47.5500 H   0  0  0  0  0  0  0  0  0  0  0  0
   59.0417   36.0492   45.3892 H   0  0  0  0  0  0  0  0  0  0  0  0
   60.1952   34.8718   44.6753 H   0  0  0  0  0  0  0  0  0  0  0  0
   58.4343   34.5168   44.6753 H   0  0  0  0  0  0  0  0  0  0  0  0
   57.6945   32.7203   45.6127 H   0  0  0  0  0  0  0  0  0  0  0  0
   55.6102   29.2062   43.4336 H   0  0  0  0  0  0  0  0  0  0  0  0
   55.7823   30.9413   43.0018 H   0  0  0  0  0  0  0  0  0  0  0  0
   57.2231   29.8686   43.0018 H   0  0  0  0  0  0  0  0  0  0  0  0
  1  2  1  0
  2  3  1  0
  3  4  2  0
  4  5  1  0
  5  6  2  0
  6  7  1  0
  7  8  1  0
  7  9  2  0
  9 10  1  0
 10 11  1  0
 11 12  1  0
 10 13  2  0
 13 14  1  0
 14 15  2  0
 15 16  1  0
 16 17  1  0
 15  3  1  0
 13  5  1  0
  1 18  1  0
  1 19  1  0
  1 20  1  0
  4 21  1  0
  8 22  1  0
  8 23  1  0
  8 24  1  0
  9 25  1  0
 12 26  1  0
 12 27  1  0
 12 28  1  0
 14 29  1  0
 17 30  1  0
 17 31  1  0
 17 32  1  0
M  CHG  1   9   1
M  END
>  <UniqueID>  (4) 
4

>  <SMILES>  (4) 
COc1cc2nc(C)[nH+]c(OC)c2cc1OC

>  <Energy>  (4) 
32.384352134673755

>  <Genealogy>  (4) 
COc1cc2nc(C)[nH+]c(OC)c2cc1OC (protonated)
COc1cc2nc(C)[nH+]c(OC)c2cc1OC (3D coordinates assigned)
COc1cc2nc(C)[nH+]c(OC)c2cc1OC (optimized conformer: 32.384352134673755 kcal/mol)

>  <smiles>  (4) 
COc1cc2nc(C)nc(OC)c2cc1OC

>  <score_type>  (4) 
oracle

>  <origin>  (4) 
adg

>  <m_score__min__energy>  (4) 
-3.6200000000000001

>  <m_primary>  (4) 
energy

$$$$
4:0
     RDKit          3D

 44 47  0  0  0  0  0  0  0  0999 V2000
   58.2360   23.3090   45.0790 C   0  0  0  0  0  0  0  0  0  0  0  0
   58.5110   24.2190   46.1390 O   0  0  0  0  0  0  0  0  0  0  0  0
   58.2680   25.5990   46.0810 C   0  0  0  0  0  0  0  0  0  0  0  0
   59.3160   26.5370   45.9280 C   0  0  0  0  0  0  0  0  0  0  0  0
   58.9910   27.8890   45.8790 C   0  0  0  0  0  0  0  0  0  0  0  0
   57.6960   28.3340   45.9720 C   0  0  0  0  0  0  0  0  0  0  0  0
   56.6420   27.4340   46.1260 C   0  0  0  0  0  0  0  0  0  0  0  0
   56.9280   26.0490   46.1810 C   0  0  0  0  0  0  0  0  0  0  0  0
   55.9150   25.0900   46.3320 O   0  0  0  0  0  0  0  0  0  0  0  0
   55.1670   24.5330   45.2570 C   0  0  0  0  0  0  0  0  0  0  0  0
   57.6310   29.8370   45.8580 C   0  0  2  0  0  0  0  0  0  0  0  0
   56.8720   30.2500   44.5750 C   0  0  0  0  0  0  0  0  0  0  0  0
   57.1570   31.6230   44.0860 N   0  0  2  0  0  0  0  0  0  0  0  0
   58.2350   31.6570   43.0780 C   0  0  0  0  0  0  0  0  0  0  0  0
   57.3820   32.5790   45.1510 C   0  0  0  0  0  0  0  0  0  0  0  0
   56.4420   33.3510   45.4900 O   0  0  0  0  0  0  0  0  0  0  0  0
   58.6870   32.6970   45.8550 C   0  0  0  0  0  0  0  0  0  0  0  0
   59.1200   33.9730   46.2580 C   0  0  0  0  0  0  0  0  0  0  0  0
   60.3420   34.1410   46.9060 C   0  0  0  0  0  0  0  0  0  0  0  0
   61.1450   33.0340   47.1750 C   0  0  0  0  0  0  0  0  0  0  0  0
   60.7270   31.7570   46.7980 C   0  0  0  0  0  0  0  0  0  0  0  0
   59.5020   31.5680   46.1280 C   0  0  0  0  0  0  0  0  0  0  0  0
   59.0440   30.2380   45.8030 N   0  0  0  0  0  0  0  0  0  0  0  0
   59.8360   29.0480   45.7510 C   0  0  0  0  0  0  0  0  0  0  0  0
   61.0800   29.0220   45.5510 O   0  0  0  0  0  0  0  0  0  0  0  0
   57.9418   22.3356   45.4985 H   0  0  0  0  0  0  0  0  0  0  0  0
   57.4171   23.7040   44.4598 H   0  0  0  0  0  0  0  0  0  0  0  0
   59.1366   23.1844   44.4598 H   0  0  0  0  0  0  0  0  0  0  0  0
   60.3620   26.2056   45.8497 H   0  0  0  0  0  0  0  0  0  0  0  0
   55.6056   27.7945   46.2034 H   0  0  0  0  0  0  0  0  0  0  0  0
   54.3460   23.9216   45.6597 H   0  0  0  0  0  0  0  0  0  0  0  0
   54.7520   25.3438   44.6402 H   0  0  0  0  0  0  0  0  0  0  0  0
   55.8249   23.9031   44.6402 H   0  0  0  0  0  0  0  0  0  0  0  0
   57.0918   30.3160   46.6885 H   0  0  0  0  0  0  0  0  0  0  0  0
   57.1414   29.5420   43.7774 H   0  0  0  0  0  0  0  0  0  0  0  0
   55.8031   30.2340   44.8342 H   0  0  0  0  0  0  0  0  0  0  0  0
   56.2980   31.9360   43.5720 H   0  0  0  0  0  0  0  0  0  0  0  0
   59.2105   31.6878   43.5853 H   0  0  0  0  0  0  0  0  0  0  0  0
   58.1772   30.7566   42.4488 H   0  0  0  0  0  0  0  0  0  0  0  0
   58.1205   32.5520   42.4488 H   0  0  0  0  0  0  0  0  0  0  0  0
   58.4858   34.8495   46.0591 H   0  0  0  0  0  0  0  0  0  0  0  0
   60.6727   35.1466   47.2051 H   0  0  0  0  0  0  0  0  0  0  0  0
   62.1102   33.1672   47.6855 H   0  0  0  0  0  0  0  0  0  0  0  0
   61.3613   30.8879   47.0266 H   0  0  0  0  0  0  0  0  0  0  0  0
  1  2  1  0
  2  3  1  0
  3  4  2  0
  4  5  1  0
  5  6  2  0
  6  7  1  0
  7  8  2  0
  8  9  1  0
  9 10  1  0
  6 11  1  0
 11 12  1  0
 12 13  1  0
 13 14  1  0
 13 15  1  0
 15 16  2  0
 15 17  1  0
 17 18  2  0
 18 19  1  0
 19 20  2  0
 20 21  1  0
 21 22  2  0
 22 23  1  0
 23 24  1  0
 24 25  2  0
  8  3  1  0
 23 11  1  0
 24  5  1  0
 22 17  1  0
  1 26  1  0
  1 27  1  0
  1 28  1  0
  4 29  1  0
  7 30  1  0
 10 31  1  0
 10 32  1  0
 10 33  1  0
 11 34  1  1
 12 35  1  0
 12 36  1  0
 13 37  1  6
 14 38  1  0
 14 39  1  0
 14 40  1  0
 18 41  1  0
 19 42  1  0
 20 43  1  0
 21 44  1  0
M  CHG  1  13   1
M  END
>  <UniqueID>  (5) 
5

>  <SMILES>  (5) 
COc1cc2c(cc1OC)[C@@H]1C[N@H+](C)C(=O)c3ccccc3N1C2=O

>  <Energy>  (5) 
87.14962895661363

>  <Genealogy>  (5) 
COc1cc2c(cc1OC)C1C[NH+](C)C(=O)c3ccccc3N1C2=O (protonated)
COc1cc2c(cc1OC)[C@@H]1C[N@H+](C)C(=O)c3ccccc3N1C2=O (chirality)
COc1cc2c(cc1OC)[C@@H]1C[N@H+](C)C(=O)c3ccccc3N1C2=O (3D coordinates assigned)
COc1cc2c(cc1OC)[C@@H]1C[N@H+](C)C(=O)c3ccccc3N1C2=O (nonaromatic ring conformer: 87.14962895661363 kcal/mol)

>  <smiles>  (5) 
COc1cc2c(cc1OC)C1CN(C)C(=O)c3ccccc3N1C2=O

>  <score_type>  (5) 
oracle

>  <origin>  (5) 
adg

>  <m_score__min__energy>  (5) 
-4.3899999999999997

>  <m_primary>  (5) 
energy

$$$$
5:0
     RDKit          3D

 45 47  0  0  0  0  0  0  0  0999 V2000
   58.2580   26.9760   43.9720 C   0  0  0  0  0  0  0  0  0  0  0  0
   59.2100   26.9920   45.0310 O   0  0  0  0  0  0  0  0  0  0  0  0
   59.4110   28.0750   45.9000 C   0  0  0  0  0  0  0  0  0  0  0  0
   59.9100   27.9120   47.2000 C   0  0  0  0  0  0  0  0  0  0  0  0
   60.1700   29.0270   47.9930 C   0  0  0  0  0  0  0  0  0  0  0  0
   59.8900   30.3180   47.5190 C   0  0  0  0  0  0  0  0  0  0  0  0
   60.2850   31.4240   48.2730 C   0  0  0  0  0  0  0  0  0  0  0  0
   60.1290   32.7250   47.7820 C   0  0  0  0  0  0  0  0  0  0  0  0
   60.6010   33.8390   48.5680 N   0  0  0  0  0  0  0  0  0  0  0  0
   62.0030   34.0250   48.9490 C   0  0  0  0  0  0  0  0  0  0  0  0
   62.9510   33.8880   47.7420 C   0  0  0  0  0  0  0  0  0  0  0  0
   63.9100   32.7630   47.8640 N   0  0  0  0  0  0  0  0  0  0  0  0
   64.1570   32.4020   49.2730 C   0  0  0  0  0  0  0  0  0  0  0  0
   63.3940   31.5910   47.1360 C   0  0  0  0  0  0  0  0  0  0  0  0
   59.4550   32.9280   46.5530 C   0  0  0  0  0  0  0  0  0  0  0  0
   59.3230   34.2240   46.0120 C   0  0  0  0  0  0  0  0  0  0  0  0
   58.5740   34.4430   44.8620 C   0  0  0  0  0  0  0  0  0  0  0  0
   57.8880   33.3920   44.2680 C   0  0  0  0  0  0  0  0  0  0  0  0
   58.0080   32.0900   44.7640 C   0  0  0  0  0  0  0  0  0  0  0  0
   56.6630   30.8690   44.1200 Br  0  0  0  0  0  0  0  0  0  0  0  0
   58.9040   31.8150   45.8420 C   0  0  0  0  0  0  0  0  0  0  0  0
   59.2580   30.4980   46.2630 C   0  0  0  0  0  0  0  0  0  0  0  0
   59.1120   29.3610   45.4370 C   0  0  0  0  0  0  0  0  0  0  0  0
   57.2418   26.9589   44.3927 H   0  0  0  0  0  0  0  0  0  0  0  0
   58.3833   27.8764   43.3526 H   0  0  0  0  0  0  0  0  0  0  0  0
   58.4135   26.0803   43.3526 H   0  0  0  0  0  0  0  0  0  0  0  0
   60.0964   26.9021   47.5942 H   0  0  0  0  0  0  0  0  0  0  0  0
   60.5978   28.8949   48.9978 H   0  0  0  0  0  0  0  0  0  0  0  0
   60.7259   31.2706   49.2690 H   0  0  0  0  0  0  0  0  0  0  0  0
   59.9210   34.5650   48.8850 H   0  0  0  0  0  0  0  0  0  0  0  0
   62.1231   35.0286   49.3831 H   0  0  0  0  0  0  0  0  0  0  0  0
   62.2643   33.2432   49.6774 H   0  0  0  0  0  0  0  0  0  0  0  0
   62.3433   33.7303   46.8388 H   0  0  0  0  0  0  0  0  0  0  0  0
   63.5441   34.8130   47.6914 H   0  0  0  0  0  0  0  0  0  0  0  0
   64.8220   33.0250   47.4230 H   0  0  0  0  0  0  0  0  0  0  0  0
   63.6591   33.1297   49.9307 H   0  0  0  0  0  0  0  0  0  0  0  0
   63.7568   31.3964   49.4694 H   0  0  0  0  0  0  0  0  0  0  0  0
   65.2393   32.4107   49.4694 H   0  0  0  0  0  0  0  0  0  0  0  0
   63.0590   30.8302   47.8564 H   0  0  0  0  0  0  0  0  0  0  0  0
   62.5468   31.8957   46.5040 H   0  0  0  0  0  0  0  0  0  0  0  0
   64.1908   31.1719   46.5040 H   0  0  0  0  0  0  0  0  0  0  0  0
   59.8192   35.0720   46.5066 H   0  0  0  0  0  0  0  0  0  0  0  0
   58.5246   35.4499   44.4219 H   0  0  0  0  0  0  0  0  0  0  0  0
   57.2433   33.5856   43.3980 H   0  0  0  0  0  0  0  0  0  0  0  0
   58.7545   29.4900   44.4047 H   0  0  0  0  0  0  0  0  0  0  0  0
  1  2  1  0
  2  3  1  0
  3  4  2  0
  4  5  1  0
  5  6  2  0
  6  7  1  0
  7  8  2  0
  8  9  1  0
  9 10  1  0
 10 11  1  0
 11 12  1  0
 12 13  1  0
 12 14  1  0
  8 15  1  0
 15 16  2  0
 16 17  1  0
 17 18  2  0
 18 19  1  0
 19 20  1  0
 19 21  2  0
 21 22  1  0
 22 23  2  0
 23  3  1  0
 22  6  1  0
 21 15  1  0
  1 24  1  0
  1 25  1  0
  1 26  1  0
  4 27  1  0
  5 28  1  0
  7 29  1  0
  9 30  1  0
 10 31  1  0
 10 32  1  0
 11 33  1  0
 11 34  1  0
 12 35  1  0
 13 36  1  0
 13 37  1  0
 13 38  1  0
 14 39  1  0
 14 40  1  0
 14 41  1  0
 16 42  1  0
 17 43  1  0
 18 44  1  0
 23 45  1  0
M  CHG  1  12   1
M  END
>  <UniqueID>  (6) 
6

>  <SMILES>  (6) 
COc1ccc2cc(NCC[NH+](C)C)c3cccc(Br)c3c2c1

>  <Energy>  (6) 
72.23664407438805

>  <Genealogy>  (6) 
COc1ccc2cc(NCC[NH+](C)C)c3cccc(Br)c3c2c1 (protonated)
COc1ccc2cc(NCC[NH+](C)C)c3cccc(Br)c3c2c1 (3D coordinates assigned)
COc1ccc2cc(NCC[NH+](C)C)c3cccc(Br)c3c2c1 (optimized conformer: 72.23664407438805 kcal/mol)

>  <smiles>  (6) 
COc1ccc2cc(NCCN(C)C)c3cccc(Br)c3c2c1

>  <score_type>  (6) 
oracle

>  <origin>  (6) 
adg

>  <m_score__min__energy>  (6) 
-6.1500000000000004

>  <m_primary>  (6) 
energy

$$$$
6:0
     RDKit          3D

 31 31  0  0  0  0  0  0  0  0999 V2000
   56.6220   22.3960   43.0430 C   0  0  0  0  0  0  0  0  0  0  0  0
   55.7910   23.5660   43.5710 C   0  0  0  0  0  0  0  0  0  0  0  0
   56.5370   24.4080   44.6170 C   0  0  0  0  0  0  0  0  0  0  0  0
   55.4650   25.0020   45.9200 S   0  0  0  0  0  0  0  0  0  0  0  0
   54.0520   24.5810   45.6230 O   0  0  0  0  0  0  0  0  0  0  0  0
   55.8930   24.4150   47.2370 O   0  0  0  0  0  0  0  0  0  0  0  0
   55.5520   26.7340   45.9730 N   0  0  0  0  0  0  0  0  0  0  0  0
   56.9310   27.1650   46.1880 C   0  0  0  0  0  0  0  0  0  0  0  0
   57.4750   27.8180   44.9150 C   0  0  0  0  0  0  0  0  0  0  0  0
   57.6380   29.3110   45.0920 C   0  0  0  0  0  0  0  0  0  0  0  0
   58.3520   29.7890   46.2050 C   0  0  0  0  0  0  0  0  0  0  0  0
   58.5680   31.1580   46.3760 C   0  0  0  0  0  0  0  0  0  0  0  0
   58.0820   32.0660   45.4340 C   0  0  0  0  0  0  0  0  0  0  0  0
   57.3790   31.6060   44.3190 C   0  0  0  0  0  0  0  0  0  0  0  0
   57.1540   30.2360   44.1370 C   0  0  0  0  0  0  0  0  0  0  0  0
   56.2720   29.7270   42.7000 Cl  0  0  0  0  0  0  0  0  0  0  0  0
   57.0286   21.8235   43.8897 H   0  0  0  0  0  0  0  0  0  0  0  0
   55.9853   21.7413   42.4297 H   0  0  0  0  0  0  0  0  0  0  0  0
   57.4498   22.7815   42.4297 H   0  0  0  0  0  0  0  0  0  0  0  0
   55.5227   24.2155   42.7247 H   0  0  0  0  0  0  0  0  0  0  0  0
   54.9021   23.1432   44.0620 H   0  0  0  0  0  0  0  0  0  0  0  0
   57.3279   23.7899   45.0668 H   0  0  0  0  0  0  0  0  0  0  0  0
   56.9505   25.2872   44.1012 H   0  0  0  0  0  0  0  0  0  0  0  0
   56.9619   27.8919   47.0131 H   0  0  0  0  0  0  0  0  0  0  0  0
   57.5494   26.2910   46.4404 H   0  0  0  0  0  0  0  0  0  0  0  0
   58.4535   27.3763   44.6753 H   0  0  0  0  0  0  0  0  0  0  0  0
   56.7586   27.6404   44.0994 H   0  0  0  0  0  0  0  0  0  0  0  0
   58.7439   29.0783   46.9475 H   0  0  0  0  0  0  0  0  0  0  0  0
   59.1219   31.5212   47.2542 H   0  0  0  0  0  0  0  0  0  0  0  0
   58.2529   33.1441   45.5701 H   0  0  0  0  0  0  0  0  0  0  0  0
   56.9991   32.3249   43.5782 H   0  0  0  0  0  0  0  0  0  0  0  0
  1  2  1  0
  2  3  1  0
  3  4  1  0
  4  5  2  0
  4  6  2  0
  4  7  1  0
  7  8  1  0
  8  9  1  0
  9 10  1  0
 10 11  2  0
 11 12  1  0
 12 13  2  0
 13 14  1  0
 14 15  2  0
 15 16  1  0
 15 10  1  0
  1 17  1  0
  1 18  1  0
  1 19  1  0
  2 20  1  0
  2 21  1  0
  3 22  1  0
  3 23  1  0
  8 24  1  0
  8 25  1  0
  9 26  1  0
  9 27  1  0
 11 28  1  0
 12 29  1  0
 13 30  1  0
 14 31  1  0
M  CHG  1   7  -1
M  END
>  <UniqueID>  (7) 
7

>  <SMILES>  (7) 
CCCS(=O)(=O)[N-]CCc1ccccc1Cl

>  <Energy>  (7) 
16.66392400216891

>  <Genealogy>  (7) 
CCCS(=O)(=O)[N-]CCc1ccccc1Cl (protonated)
CCCS(=O)(=O)[N-]CCc1ccccc1Cl (3D coordinates assigned)
CCCS(=O)(=O)[N-]CCc1ccccc1Cl (optimized conformer: 16.66392400216891 kcal/mol)

>  <smiles>  (7) 
CCCS(=O)(=O)NCCc1ccccc1Cl

>  <score_type>  (7) 
oracle

>  <origin>  (7) 
adg

>  <m_score__min__energy>  (7) 
-8.4000000000000004

>  <m_primary>  (7) 
energy

$$$$
7:0
     RDKit          3D

 48 50  0  0  0  0  0  0  0  0999 V2000
   57.0190   31.4580   44.4620 C   0  0  0  0  0  0  0  0  0  0  0  0
   57.7510   32.3170   43.4350 C   0  0  0  0  0  0  0  0  0  0  0  0
   58.5170   33.4600   44.1170 C   0  0  0  0  0  0  0  0  0  0  0  0
   57.7470   34.0680   45.3030 C   0  0  0  0  0  0  0  0  0  0  0  0
   58.5930   34.2500   46.5740 C   0  0  0  0  0  0  0  0  0  0  0  0
   59.3480   33.0370   46.8930 N   0  0  0  0  0  0  0  0  0  0  0  0
   58.8170   31.8240   47.1810 C   0  0  0  0  0  0  0  0  0  0  0  0
   59.8290   30.9160   47.4740 C   0  0  0  0  0  0  0  0  0  0  0  0
   59.6590   29.4660   47.8200 C   0  0  0  0  0  0  0  0  0  0  0  0
   58.6670   28.8390   46.9260 N   0  0  0  0  0  0  0  0  0  0  0  0
   59.0740   28.9960   45.5140 C   0  0  0  0  0  0  0  0  0  0  0  0
   58.2170   28.1270   44.5720 C   0  0  0  0  0  0  0  0  0  0  0  0
   57.0020   27.6720   45.2540 N   0  0  0  0  0  0  0  0  0  0  0  0
   57.3420   26.8120   46.3990 C   0  0  0  0  0  0  0  0  0  0  0  0
   58.4840   27.4090   47.2470 C   0  0  0  0  0  0  0  0  0  0  0  0
   61.0130   31.6150   47.3540 C   0  0  0  0  0  0  0  0  0  0  0  0
   62.3360   31.2090   47.5240 C   0  0  0  0  0  0  0  0  0  0  0  0
   63.3470   32.1650   47.3250 C   0  0  0  0  0  0  0  0  0  0  0  0
   63.0180   33.4890   46.9630 C   0  0  0  0  0  0  0  0  0  0  0  0
   61.6750   33.8710   46.7970 C   0  0  0  0  0  0  0  0  0  0  0  0
   60.6880   32.9020   47.0020 C   0  0  0  0  0  0  0  0  0  0  0  0
   57.2958   31.7829   45.4758 H   0  0  0  0  0  0  0  0  0  0  0  0
   55.9331   31.5685   44.3253 H   0  0  0  0  0  0  0  0  0  0  0  0
   57.3004   30.4034   44.3253 H   0  0  0  0  0  0  0  0  0  0  0  0
   58.4630   31.6871   42.8816 H   0  0  0  0  0  0  0  0  0  0  0  0
   57.0083   32.7531   42.7507 H   0  0  0  0  0  0  0  0  0  0  0  0
   59.4776   33.0696   44.4843 H   0  0  0  0  0  0  0  0  0  0  0  0
   58.6592   34.2557   43.3709 H   0  0  0  0  0  0  0  0  0  0  0  0
   57.3652   35.0535   44.9982 H   0  0  0  0  0  0  0  0  0  0  0  0
   56.9435   33.3605   45.5555 H   0  0  0  0  0  0  0  0  0  0  0  0
   59.2983   35.0797   46.4184 H   0  0  0  0  0  0  0  0  0  0  0  0
   57.9147   34.4654   47.4127 H   0  0  0  0  0  0  0  0  0  0  0  0
   57.7419   31.5913   47.1828 H   0  0  0  0  0  0  0  0  0  0  0  0
   60.6245   28.9508   47.7087 H   0  0  0  0  0  0  0  0  0  0  0  0
   59.3061   29.3851   48.8587 H   0  0  0  0  0  0  0  0  0  0  0  0
   58.9610   30.0516   45.2260 H   0  0  0  0  0  0  0  0  0  0  0  0
   60.1209   28.6712   45.4214 H   0  0  0  0  0  0  0  0  0  0  0  0
   57.9357   28.7198   43.6891 H   0  0  0  0  0  0  0  0  0  0  0  0
   58.8040   27.2477   44.2682 H   0  0  0  0  0  0  0  0  0  0  0  0
   56.4400   27.1040   44.5770 H   0  0  0  0  0  0  0  0  0  0  0  0
   56.4510   26.6958   47.0336 H   0  0  0  0  0  0  0  0  0  0  0  0
   57.6793   25.8408   46.0079 H   0  0  0  0  0  0  0  0  0  0  0  0
   58.2363   27.3053   48.3137 H   0  0  0  0  0  0  0  0  0  0  0  0
   59.4161   26.8697   47.0225 H   0  0  0  0  0  0  0  0  0  0  0  0
   62.5806   30.1740   47.8048 H   0  0  0  0  0  0  0  0  0  0  0  0
   64.4016   31.8794   47.4522 H   0  0  0  0  0  0  0  0  0  0  0  0
   63.8185   34.2277   46.8096 H   0  0  0  0  0  0  0  0  0  0  0  0
   61.4090   34.9003   46.5146 H   0  0  0  0  0  0  0  0  0  0  0  0
  1  2  1  0
  2  3  1  0
  3  4  1  0
  4  5  1  0
  5  6  1  0
  6  7  1  0
  7  8  2  0
  8  9  1  0
  9 10  1  0
 10 11  1  0
 11 12  1  0
 12 13  1  0
 13 14  1  0
 14 15  1  0
  8 16  1  0
 16 17  2  0
 17 18  1  0
 18 19  2  0
 19 20  1  0
 20 21  2  0
 21  6  1  0
 15 10  1  0
 21 16  1  0
  1 22  1  0
  1 23  1  0
  1 24  1  0
  2 25  1  0
  2 26  1  0
  3 27  1  0
  3 28  1  0
  4 29  1  0
  4 30  1  0
  5 31  1  0
  5 32  1  0
  7 33  1  0
  9 34  1  0
  9 35  1  0
 11 36  1  0
 11 37  1  0
 12 38  1  0
 12 39  1  0
 13 40  1  0
 14 41  1  0
 14 42  1  0
 15 43  1  0
 15 44  1  0
 17 45  1  0
 18 46  1  0
 19 47  1  0
 20 48  1  0
M  END
>  <UniqueID>  (8) 
8

>  <SMILES>  (8) 
CCCCCn1cc(CN2CCNCC2)c2ccccc21

>  <Energy>  (8) 
78.3318820791716

>  <Genealogy>  (8) 
CCCCCn1cc(CN2CCNCC2)c2ccccc21 (3D coordinates assigned)
CCCCCn1cc(CN2CCNCC2)c2ccccc21 (nonaromatic ring conformer: 78.3318820791716 kcal/mol)

>  <smiles>  (8) 
CCCCCn1cc(CN2CCNCC2)c2ccccc21

>  <score_type>  (8) 
oracle

>  <origin>  (8) 
adg

>  <m_score__min__energy>  (8) 
-7.1799999999999997

>  <m_primary>  (8) 
energy

$$$$
8:0
     RDKit          3D

 59 62  0  0  0  0  0  0  0  0999 V2000
   63.7390   33.2030   47.6040 C   0  0  0  0  0  0  0  0  0  0  0  0
   62.3700   33.8720   47.5450 C   0  0  0  0  0  0  0  0  0  0  0  0
   61.5980   33.3500   46.4650 O   0  0  0  0  0  0  0  0  0  0  0  0
   60.2020   33.4510   46.3260 C   0  0  0  0  0  0  0  0  0  0  0  0
   59.6010   34.1880   45.2850 C   0  0  0  0  0  0  0  0  0  0  0  0
   58.2100   34.2710   45.1900 C   0  0  0  0  0  0  0  0  0  0  0  0
   57.4030   33.6260   46.1270 C   0  0  0  0  0  0  0  0  0  0  0  0
   57.9830   32.8960   47.1650 C   0  0  0  0  0  0  0  0  0  0  0  0
   59.3800   32.7990   47.2710 C   0  0  0  0  0  0  0  0  0  0  0  0
   59.9950   32.0240   48.4130 C   0  0  0  0  0  0  0  0  0  0  0  0
   60.2240   30.6140   48.0330 N   0  0  0  0  0  0  0  0  0  0  0  0
   59.1900   29.7230   48.6150 C   0  0  0  0  0  0  0  0  0  0  0  0
   59.1320   28.3770   47.8810 C   0  0  0  0  0  0  0  0  0  0  0  0
   58.8030   28.5300   46.4390 N   0  0  0  0  0  0  0  0  0  0  0  0
   57.4030   28.1620   46.1440 C   0  0  0  0  0  0  0  0  0  0  0  0
   57.3130   26.7050   45.7530 C   0  0  0  0  0  0  0  0  0  0  0  0
   58.4930   26.0110   45.4470 C   0  0  0  0  0  0  0  0  0  0  0  0
   58.4540   24.6600   45.0990 C   0  0  0  0  0  0  0  0  0  0  0  0
   57.2310   23.9780   45.0470 C   0  0  0  0  0  0  0  0  0  0  0  0
   57.1930   22.6180   44.7010 C   0  0  0  0  0  0  0  0  0  0  0  0
   55.9660   21.9320   44.6460 C   0  0  0  0  0  0  0  0  0  0  0  0
   55.8780   20.5730   44.3050 O   0  0  0  0  0  0  0  0  0  0  0  0
   56.1930   19.5000   45.1860 C   0  0  0  0  0  0  0  0  0  0  0  0
   54.7830   22.6180   44.9390 C   0  0  0  0  0  0  0  0  0  0  0  0
   54.8100   23.9710   45.2870 C   0  0  0  0  0  0  0  0  0  0  0  0
   56.0300   24.6660   45.3460 C   0  0  0  0  0  0  0  0  0  0  0  0
   56.0760   26.0300   45.6980 C   0  0  0  0  0  0  0  0  0  0  0  0
   54.8970   26.7120   45.9960 O   0  0  0  0  0  0  0  0  0  0  0  0
   59.1070   29.8780   45.9080 C   0  0  0  0  0  0  0  0  0  0  0  0
   60.3670   30.4620   46.5610 C   0  0  0  0  0  0  0  0  0  0  0  0
   64.0321   33.0598   48.6545 H   0  0  0  0  0  0  0  0  0  0  0  0
   63.6919   32.2264   47.1000 H   0  0  0  0  0  0  0  0  0  0  0  0
   64.4806   33.8403   47.1000 H   0  0  0  0  0  0  0  0  0  0  0  0
   61.8380   33.6890   48.4902 H   0  0  0  0  0  0  0  0  0  0  0  0
   62.5112   34.9516   47.3883 H   0  0  0  0  0  0  0  0  0  0  0  0
   60.2313   34.7006   44.5434 H   0  0  0  0  0  0  0  0  0  0  0  0
   57.7496   34.8468   44.3737 H   0  0  0  0  0  0  0  0  0  0  0  0
   56.3079   33.6929   46.0476 H   0  0  0  0  0  0  0  0  0  0  0  0
   57.3423   32.3935   47.9046 H   0  0  0  0  0  0  0  0  0  0  0  0
   60.9566   32.4844   48.6837 H   0  0  0  0  0  0  0  0  0  0  0  0
   59.3022   32.0489   49.2670 H   0  0  0  0  0  0  0  0  0  0  0  0
   59.4277   29.5431   49.6738 H   0  0  0  0  0  0  0  0  0  0  0  0
   58.2117   30.2153   48.5122 H   0  0  0  0  0  0  0  0  0  0  0  0
   60.1115   27.8843   47.9693 H   0  0  0  0  0  0  0  0  0  0  0  0
   58.3350   27.7770   48.3444 H   0  0  0  0  0  0  0  0  0  0  0  0
   56.7863   28.3362   47.0380 H   0  0  0  0  0  0  0  0  0  0  0  0
   57.0401   28.7789   45.3087 H   0  0  0  0  0  0  0  0  0  0  0  0
   59.4586   26.5368   45.4817 H   0  0  0  0  0  0  0  0  0  0  0  0
   59.3878   24.1280   44.8644 H   0  0  0  0  0  0  0  0  0  0  0  0
   58.1279   22.0857   44.4716 H   0  0  0  0  0  0  0  0  0  0  0  0
   56.0933   19.8395   46.2276 H   0  0  0  0  0  0  0  0  0  0  0  0
   55.5027   18.6627   45.0056 H   0  0  0  0  0  0  0  0  0  0  0  0
   57.2263   19.1687   45.0056 H   0  0  0  0  0  0  0  0  0  0  0  0
   53.8208   22.0867   44.8950 H   0  0  0  0  0  0  0  0  0  0  0  0
   53.8706   24.4953   45.5162 H   0  0  0  0  0  0  0  0  0  0  0  0
   59.2656   29.8081   44.8217 H   0  0  0  0  0  0  0  0  0  0  0  0
   58.2588   30.5406   46.1349 H   0  0  0  0  0  0  0  0  0  0  0  0
   61.2144   29.7914   46.3558 H   0  0  0  0  0  0  0  0  0  0  0  0
   60.5325   31.4626   46.1350 H   0  0  0  0  0  0  0  0  0  0  0  0
  1  2  1  0
  2  3  1  0
  3  4  1  0
  4  5  2  0
  5  6  1  0
  6  7  2  0
  7  8  1  0
  8  9  2  0
  9 10  1  0
 10 11  1  0
 11 12  1  0
 12 13  1  0
 13 14  1  0
 14 15  1  0
 15 16  1  0
 16 17  2  0
 17 18  1  0
 18 19  2  0
 19 20  1  0
 20 21  2  0
 21 22  1  0
 22 23  1  0
 21 24  1  0
 24 25  2  0
 25 26  1  0
 26 27  2  0
 27 28  1  0
 14 29  1  0
 29 30  1  0
  9  4  1  0
 30 11  1  0
 27 16  1  0
 26 19  1  0
  1 31  1  0
  1 32  1  0
  1 33  1  0
  2 34  1  0
  2 35  1  0
  5 36  1  0
  6 37  1  0
  7 38  1  0
  8 39  1  0
 10 40  1  0
 10 41  1  0
 12 42  1  0
 12 43  1  0
 13 44  1  0
 13 45  1  0
 15 46  1  0
 15 47  1  0
 17 48  1  0
 18 49  1  0
 20 50  1  0
 23 51  1  0
 23 52  1  0
 23 53  1  0
 24 54  1  0
 25 55  1  0
 29 56  1  0
 29 57  1  0
 30 58  1  0
 30 59  1  0
M  CHG  1  28  -1
M  END
>  <UniqueID>  (9) 
9

>  <SMILES>  (9) 
CCOc1ccccc1CN1CCN(Cc2ccc3cc(OC)ccc3c2[O-])CC1

>  <Energy>  (9) 
77.33255916012357

>  <Genealogy>  (9) 
CCOc1ccccc1CN1CCN(Cc2ccc3cc(OC)ccc3c2[O-])CC1 (protonated)
CCOc1ccccc1CN1CCN(Cc2ccc3cc(OC)ccc3c2[O-])CC1 (3D coordinates assigned)
CCOc1ccccc1CN1CCN(Cc2ccc3cc(OC)ccc3c2[O-])CC1 (nonaromatic ring conformer: 77.33255916012357 kcal/mol)

>  <smiles>  (9) 
CCOc1ccccc1CN1CCN(Cc2ccc3cc(OC)ccc3c2O)CC1

>  <score_type>  (9) 
oracle

>  <origin>  (9) 
adg

>  <m_score__min__energy>  (9) 
-12.4

>  <m_primary>  (9) 
energy

$$$$
9:0
     RDKit          3D

 54 56  0  0  0  0  0  0  0  0999 V2000
   56.2420   29.9830   43.3390 C   0  0  0  0  0  0  0  0  0  0  0  0
   57.3000   30.5830   44.2260 C   0  0  0  0  0  0  0  0  0  0  0  0
   57.2550   31.9580   44.4850 C   0  0  0  0  0  0  0  0  0  0  0  0
   58.1880   32.5490   45.3340 C   0  0  0  0  0  0  0  0  0  0  0  0
   59.1660   31.7730   45.9620 C   0  0  0  0  0  0  0  0  0  0  0  0
   60.1220   32.4460   46.8580 C   0  0  0  0  0  0  0  0  0  0  0  0
   61.3730   32.7770   46.4710 N   0  0  0  0  0  0  0  0  0  0  0  0
   61.9180   33.3340   47.5720 C   0  0  0  0  0  0  0  0  0  0  0  0
   63.3220   33.8420   47.6320 C   0  0  0  0  0  0  0  0  0  0  0  0
   61.0040   33.3110   48.6090 C   0  0  0  0  0  0  0  0  0  0  0  0
   61.2070   33.8450   49.9950 C   0  0  0  0  0  0  0  0  0  0  0  0
   59.8590   32.7780   48.1420 N   0  0  0  0  0  0  0  0  0  0  0  0
   58.6380   32.5030   48.8990 C   0  0  0  0  0  0  0  0  0  0  0  0
   59.2230   30.3800   45.7250 C   0  0  0  0  0  0  0  0  0  0  0  0
   60.2720   29.5230   46.3920 C   0  0  0  0  0  0  0  0  0  0  0  0
   58.3300   29.7990   44.7980 C   0  0  0  0  0  0  0  0  0  0  0  0
   58.4600   28.4390   44.4750 O   0  0  0  0  0  0  0  0  0  0  0  0
   57.7070   27.4140   45.1270 C   0  0  0  0  0  0  0  0  0  0  0  0
   57.7780   26.0980   44.3440 C   0  0  0  0  0  0  0  0  0  0  0  0
   58.0470   24.8780   45.2380 C   0  0  0  0  0  0  0  0  0  0  0  0
   57.7290   23.5820   44.5360 C   0  0  0  0  0  0  0  0  0  0  0  0
   56.7710   23.5360   43.5140 C   0  0  0  0  0  0  0  0  0  0  0  0
   56.5060   22.3320   42.8610 C   0  0  0  0  0  0  0  0  0  0  0  0
   57.2040   21.1820   43.2330 C   0  0  0  0  0  0  0  0  0  0  0  0
   58.1360   21.2390   44.2240 N   0  0  0  0  0  0  0  0  0  0  0  0
   58.4110   22.4030   44.8740 C   0  0  0  0  0  0  0  0  0  0  0  0
   55.4528   29.5354   43.9609 H   0  0  0  0  0  0  0  0  0  0  0  0
   55.8070   30.7688   42.7040 H   0  0  0  0  0  0  0  0  0  0  0  0
   56.6931   29.2063   42.7040 H   0  0  0  0  0  0  0  0  0  0  0  0
   56.4767   32.5767   44.0144 H   0  0  0  0  0  0  0  0  0  0  0  0
   58.1547   33.6341   45.5113 H   0  0  0  0  0  0  0  0  0  0  0  0
   63.6273   33.9525   48.6830 H   0  0  0  0  0  0  0  0  0  0  0  0
   63.9917   33.1292   47.1286 H   0  0  0  0  0  0  0  0  0  0  0  0
   63.3805   34.8183   47.1286 H   0  0  0  0  0  0  0  0  0  0  0  0
   60.9159   33.0794   50.7292 H   0  0  0  0  0  0  0  0  0  0  0  0
   62.2665   34.1046   50.1364 H   0  0  0  0  0  0  0  0  0  0  0  0
   60.5875   34.7429   50.1364 H   0  0  0  0  0  0  0  0  0  0  0  0
   58.8555   32.5520   49.9762 H   0  0  0  0  0  0  0  0  0  0  0  0
   57.8728   33.2513   48.6451 H   0  0  0  0  0  0  0  0  0  0  0  0
   58.2675   31.4989   48.6451 H   0  0  0  0  0  0  0  0  0  0  0  0
   60.1719   29.6047   47.4844 H   0  0  0  0  0  0  0  0  0  0  0  0
   60.1359   28.4744   46.0888 H   0  0  0  0  0  0  0  0  0  0  0  0
   61.2724   29.8655   46.0888 H   0  0  0  0  0  0  0  0  0  0  0  0
   58.1148   27.2547   46.1361 H   0  0  0  0  0  0  0  0  0  0  0  0
   56.6556   27.7327   45.1822 H   0  0  0  0  0  0  0  0  0  0  0  0
   56.8198   25.9473   43.8252 H   0  0  0  0  0  0  0  0  0  0  0  0
   58.6193   26.1804   43.6401 H   0  0  0  0  0  0  0  0  0  0  0  0
   59.1089   24.8752   45.5248 H   0  0  0  0  0  0  0  0  0  0  0  0
   57.3963   24.9543   46.1216 H   0  0  0  0  0  0  0  0  0  0  0  0
   56.2284   24.4488   43.2269 H   0  0  0  0  0  0  0  0  0  0  0  0
   55.7534   22.2894   42.0599 H   0  0  0  0  0  0  0  0  0  0  0  0
   57.0008   20.2279   42.7247 H   0  0  0  0  0  0  0  0  0  0  0  0
   58.6520   20.3700   44.4900 H   0  0  0  0  0  0  0  0  0  0  0  0
   59.1718   22.4195   45.6683 H   0  0  0  0  0  0  0  0  0  0  0  0
  1  2  1  0
  2  3  2  0
  3  4  1  0
  4  5  2  0
  5  6  1  0
  6  7  2  0
  7  8  1  0
  8  9  1  0
  8 10  2  0
 10 11  1  0
 10 12  1  0
 12 13  1  0
  5 14  1  0
 14 15  1  0
 14 16  2  0
 16 17  1  0
 17 18  1  0
 18 19  1  0
 19 20  1  0
 20 21  1  0
 21 22  2  0
 22 23  1  0
 23 24  2  0
 24 25  1  0
 25 26  2  0
 16  2  1  0
 26 21  1  0
 12  6  1  0
  1 27  1  0
  1 28  1  0
  1 29  1  0
  3 30  1  0
  4 31  1  0
  9 32  1  0
  9 33  1  0
  9 34  1  0
 11 35  1  0
 11 36  1  0
 11 37  1  0
 13 38  1  0
 13 39  1  0
 13 40  1  0
 15 41  1  0
 15 42  1  0
 15 43  1  0
 18 44  1  0
 18 45  1  0
 19 46  1  0
 19 47  1  0
 20 48  1  0
 20 49  1  0
 22 50  1  0
 23 51  1  0
 24 52  1  0
 25 53  1  0
 26 54  1  0
M  CHG  1  25   1
M  END
>  <UniqueID>  (10) 
10

>  <SMILES>  (10) 
Cc1ccc(-c2nc(C)c(C)n2C)c(C)c1OCCCc1ccc[nH+]c1

>  <Energy>  (10) 
93.73369165464213

>  <Genealogy>  (10) 
Cc1ccc(-c2nc(C)c(C)n2C)c(C)c1OCCCc1ccc[nH+]c1 (protonated)
Cc1ccc(-c2nc(C)c(C)n2C)c(C)c1OCCCc1ccc[nH+]c1 (3D coordinates assigned)
Cc1ccc(-c2nc(C)c(C)n2C)c(C)c1OCCCc1ccc[nH+]c1 (optimized conformer: 93.73369165464213 kcal/mol)

>  <smiles>  (10) 
Cc1ccc(-c2nc(C)c(C)n2C)c(C)c1OCCCc1cccnc1

>  <score_type>  (10) 
oracle

>  <origin>  (10) 
adg

>  <m_score__min__energy>  (10) 
-7.2800000000000002

>  <m_primary>  (10) 
energy

$$$$
10:0
     RDKit          3D

 47 49  0  0  0  0  0  0  0  0999 V2000
   64.4640   33.0920   49.2960 C   0  0  0  0  0  0  0  0  0  0  0  0
   63.1810   33.7720   48.8270 C   0  0  0  0  0  0  0  0  0  0  0  0
   62.7090   33.1600   47.5620 N   0  0  0  0  0  0  0  0  0  0  0  0
   63.2690   33.8740   46.4020 C   0  0  0  0  0  0  0  0  0  0  0  0
   63.0600   31.7240   47.4930 C   0  0  0  0  0  0  0  0  0  0  0  0
   61.9620   30.8780   48.1590 C   0  0  0  0  0  0  0  0  0  0  0  0
   60.7020   31.6270   48.3310 N   0  0  0  0  0  0  0  0  0  0  0  0
   59.8320   31.5100   47.1660 C   0  0  0  0  0  0  0  0  0  0  0  0
   59.4660   32.6710   46.4290 C   0  0  0  0  0  0  0  0  0  0  0  0
   59.9250   33.9640   46.7940 C   0  0  0  0  0  0  0  0  0  0  0  0
   59.6200   35.0830   46.0240 C   0  0  0  0  0  0  0  0  0  0  0  0
   58.8620   34.9490   44.8710 C   0  0  0  0  0  0  0  0  0  0  0  0
   58.3720   33.7010   44.5020 C   0  0  0  0  0  0  0  0  0  0  0  0
   58.6200   32.5480   45.2910 C   0  0  0  0  0  0  0  0  0  0  0  0
   58.0690   31.3280   44.9620 N   0  0  0  0  0  0  0  0  0  0  0  0
   56.9470   31.2620   43.9980 C   0  0  0  0  0  0  0  0  0  0  0  0
   58.5310   30.1720   45.5580 C   0  0  0  0  0  0  0  0  0  0  0  0
   58.1930   28.8970   45.0370 C   0  0  0  0  0  0  0  0  0  0  0  0
   58.5810   27.7260   45.6810 C   0  0  0  0  0  0  0  0  0  0  0  0
   58.1300   26.1650   45.0170 Cl  0  0  0  0  0  0  0  0  0  0  0  0
   59.3190   27.7930   46.8520 C   0  0  0  0  0  0  0  0  0  0  0  0
   59.7140   29.0270   47.3610 C   0  0  0  0  0  0  0  0  0  0  0  0
   59.3700   30.2410   46.7100 C   0  0  0  0  0  0  0  0  0  0  0  0
   64.4906   33.0779   50.3956 H   0  0  0  0  0  0  0  0  0  0  0  0
   64.4925   32.0604   48.9153 H   0  0  0  0  0  0  0  0  0  0  0  0
   65.3337   33.6475   48.9153 H   0  0  0  0  0  0  0  0  0  0  0  0
   62.4054   33.6556   49.5983 H   0  0  0  0  0  0  0  0  0  0  0  0
   63.3832   34.8395   48.6552 H   0  0  0  0  0  0  0  0  0  0  0  0
   63.9125   34.6945   46.7522 H   0  0  0  0  0  0  0  0  0  0  0  0
   63.8631   33.1761   45.7937 H   0  0  0  0  0  0  0  0  0  0  0  0
   62.4497   34.2847   45.7937 H   0  0  0  0  0  0  0  0  0  0  0  0
   63.1610   31.4245   46.4394 H   0  0  0  0  0  0  0  0  0  0  0  0
   64.0105   31.5603   48.0218 H   0  0  0  0  0  0  0  0  0  0  0  0
   61.7660   29.9961   47.5315 H   0  0  0  0  0  0  0  0  0  0  0  0
   62.3202   30.5897   49.1583 H   0  0  0  0  0  0  0  0  0  0  0  0
   60.2060   31.2730   49.1790 H   0  0  0  0  0  0  0  0  0  0  0  0
   60.9020   32.6100   48.6070 H   0  0  0  0  0  0  0  0  0  0  0  0
   60.5333   34.0839   47.7026 H   0  0  0  0  0  0  0  0  0  0  0  0
   59.9812   36.0756   46.3311 H   0  0  0  0  0  0  0  0  0  0  0  0
   58.6481   35.8300   44.2480 H   0  0  0  0  0  0  0  0  0  0  0  0
   57.7801   33.6057   43.5797 H   0  0  0  0  0  0  0  0  0  0  0  0
   55.9951   31.2060   44.5465 H   0  0  0  0  0  0  0  0  0  0  0  0
   56.9534   32.1621   43.3657 H   0  0  0  0  0  0  0  0  0  0  0  0
   57.0589   30.3689   43.3657 H   0  0  0  0  0  0  0  0  0  0  0  0
   57.6124   28.8324   44.1050 H   0  0  0  0  0  0  0  0  0  0  0  0
   59.5935   26.8684   47.3809 H   0  0  0  0  0  0  0  0  0  0  0  0
   60.3055   29.0623   48.2877 H   0  0  0  0  0  0  0  0  0  0  0  0
  1  2  1  0
  2  3  1  0
  3  4  1  0
  3  5  1  0
  5  6  1  0
  6  7  1  0
  7  8  1  0
  8  9  2  0
  9 10  1  0
 10 11  2  0
 11 12  1  0
 12 13  2  0
 13 14  1  0
 14 15  2  0
 15 16  1  0
 15 17  1  0
 17 18  2  0
 18 19  1  0
 19 20  1  0
 19 21  2  0
 21 22  1  0
 22 23  2  0
 23  8  1  0
 14  9  1  0
 23 17  1  0
  1 24  1  0
  1 25  1  0
  1 26  1  0
  2 27  1  0
  2 28  1  0
  4 29  1  0
  4 30  1  0
  4 31  1  0
  5 32  1  0
  5 33  1  0
  6 34  1  0
  6 35  1  0
  7 36  1  0
  7 37  1  0
 10 38  1  0
 11 39  1  0
 12 40  1  0
 13 41  1  0
 16 42  1  0
 16 43  1  0
 16 44  1  0
 18 45  1  0
 21 46  1  0
 22 47  1  0
M  CHG  2   7   1  15   1
M  END
>  <UniqueID>  (11) 
11

>  <SMILES>  (11) 
CCN(C)CC[NH2+]c1c2ccccc2[n+](C)c2cc(Cl)ccc12

>  <Energy>  (11) 
77.11432356452517

>  <Genealogy>  (11) 
CCN(C)CC[NH2+]c1c2ccccc2[n+](C)c2cc(Cl)ccc12 (protonated)
CCN(C)CC[NH2+]c1c2ccccc2[n+](C)c2cc(Cl)ccc12 (3D coordinates assigned)
CCN(C)CC[NH2+]c1c2ccccc2[n+](C)c2cc(Cl)ccc12 (optimized conformer: 77.11432356452517 kcal/mol)

>  <smiles>  (11) 
CCN(C)CCNc1c2ccccc2[n+](C)c2cc(Cl)ccc12

>  <score_type>  (11) 
oracle

>  <origin>  (11) 
adg

>  <m_score__min__energy>  (11) 
-4.25

>  <m_primary>  (11) 
energy

$$$$
11:0
     RDKit          3D

 72 76  0  0  0  0  0  0  0  0999 V2000
   56.2627   30.2418   41.5441 H   0  0  0  0  0  0  0  0  0  0  0  0
   56.6530   30.4200   42.5570 C   0  0  0  0  0  0  0  0  0  0  0  0
   57.1300   31.6460   42.8950 N   0  0  0  0  0  0  0  0  0  0  0  0
   57.6340   31.9110   44.1330 C   0  0  0  0  0  0  0  0  0  0  0  0
   58.0090   33.1110   44.4700 N   0  0  0  0  0  0  0  0  0  0  0  0
   57.6450   33.8480   45.6500 C   0  0  0  0  0  0  0  0  0  0  0  0
   56.6360   34.6010   45.6060 O   0  0  0  0  0  0  0  0  0  0  0  0
   58.3610   33.7050   46.9260 C   0  0  0  0  0  0  0  0  0  0  0  0
   58.1410   32.5770   47.7250 C   0  0  0  0  0  0  0  0  0  0  0  0
   57.4705   31.7791   47.3731 H   0  0  0  0  0  0  0  0  0  0  0  0
   58.7690   32.4600   48.9670 C   0  0  0  0  0  0  0  0  0  0  0  0
   58.5916   31.5704   49.5893 H   0  0  0  0  0  0  0  0  0  0  0  0
   59.6260   33.4740   49.4240 C   0  0  0  0  0  0  0  0  0  0  0  0
   60.2410   33.3730   50.7950 C   0  0  0  0  0  0  0  0  0  0  0  0
   59.7221   32.5928   51.3713 H   0  0  0  0  0  0  0  0  0  0  0  0
   60.1431   34.3407   51.3088 H   0  0  0  0  0  0  0  0  0  0  0  0
   61.6720   33.0260   50.6780 N   0  0  0  0  0  0  0  0  0  0  0  0
   62.5270   34.2200   50.4450 C   0  0  0  0  0  0  0  0  0  0  0  0
   63.3820   34.1820   51.1360 H   0  0  0  0  0  0  0  0  0  0  0  0
   61.9081   35.1131   50.6164 H   0  0  0  0  0  0  0  0  0  0  0  0
   63.0590   34.2900   49.0070 C   0  0  0  0  0  0  0  0  0  0  0  0
   63.6769   35.1932   48.8953 H   0  0  0  0  0  0  0  0  0  0  0  0
   62.2028   34.3219   48.3171 H   0  0  0  0  0  0  0  0  0  0  0  0
   63.8780   33.1010   48.6880 N   0  0  0  0  0  0  0  0  0  0  0  0
   64.0960   32.9910   47.2290 C   0  0  0  0  0  0  0  0  0  0  0  0
   63.9873   31.9392   46.9258 H   0  0  0  0  0  0  0  0  0  0  0  0
   65.1078   33.3529   46.9939 H   0  0  0  0  0  0  0  0  0  0  0  0
   63.0810   33.8400   46.4670 C   0  0  0  0  0  0  0  0  0  0  0  0
   62.4403   34.3759   47.1828 H   0  0  0  0  0  0  0  0  0  0  0  0
   63.6120   34.5668   45.8347 H   0  0  0  0  0  0  0  0  0  0  0  0
   62.4595   33.1889   45.8347 H   0  0  0  0  0  0  0  0  0  0  0  0
   63.3500   31.8410   49.2750 C   0  0  0  0  0  0  0  0  0  0  0  0
   63.9425   31.5931   50.1680 H   0  0  0  0  0  0  0  0  0  0  0  0
   63.4270   31.0579   48.5064 H   0  0  0  0  0  0  0  0  0  0  0  0
   61.8730   31.9510   49.6800 C   0  0  0  0  0  0  0  0  0  0  0  0
   61.5470   30.9937   50.1127 H   0  0  0  0  0  0  0  0  0  0  0  0
   61.2823   32.1917   48.7838 H   0  0  0  0  0  0  0  0  0  0  0  0
   59.8580   34.5980   48.6150 C   0  0  0  0  0  0  0  0  0  0  0  0
   60.5457   35.3860   48.9557 H   0  0  0  0  0  0  0  0  0  0  0  0
   59.2180   34.7190   47.3780 C   0  0  0  0  0  0  0  0  0  0  0  0
   59.3870   35.6116   46.7577 H   0  0  0  0  0  0  0  0  0  0  0  0
   57.6860   30.8880   45.0870 C   0  0  0  0  0  0  0  0  0  0  0  0
   58.1113   31.0820   46.0827 H   0  0  0  0  0  0  0  0  0  0  0  0
   57.1930   29.6140   44.7670 C   0  0  0  0  0  0  0  0  0  0  0  0
   57.1870   28.5720   45.7040 O   0  0  0  0  0  0  0  0  0  0  0  0
   57.0250   27.2190   45.3750 C   0  0  0  0  0  0  0  0  0  0  0  0
   57.8760   26.5830   44.4280 C   0  0  0  0  0  0  0  0  0  0  0  0
   58.8810   27.3420   43.8060 O   0  0  0  0  0  0  0  0  0  0  0  0
   59.8410   28.1310   44.4990 C   0  0  0  0  0  0  0  0  0  0  0  0
   59.6982   28.0136   45.5833 H   0  0  0  0  0  0  0  0  0  0  0  0
   60.8538   27.8008   44.2247 H   0  0  0  0  0  0  0  0  0  0  0  0
   59.7132   29.1886   44.2247 H   0  0  0  0  0  0  0  0  0  0  0  0
   57.6840   25.2120   44.1250 C   0  0  0  0  0  0  0  0  0  0  0  0
   58.3320   24.6991   43.3990 H   0  0  0  0  0  0  0  0  0  0  0  0
   56.6500   24.5270   44.7720 C   0  0  0  0  0  0  0  0  0  0  0  0
   55.8210   25.1610   45.6570 C   0  0  0  0  0  0  0  0  0  0  0  0
   55.9720   26.5060   45.9760 C   0  0  0  0  0  0  0  0  0  0  0  0
   55.2858   26.9995   46.6800 H   0  0  0  0  0  0  0  0  0  0  0  0
   54.9180   24.2320   46.1260 C   0  0  0  0  0  0  0  0  0  0  0  0
   54.1075   24.3960   46.8514 H   0  0  0  0  0  0  0  0  0  0  0  0
   55.2500   23.0440   45.4870 C   0  0  0  0  0  0  0  0  0  0  0  0
   54.7346   22.0846   45.6415 H   0  0  0  0  0  0  0  0  0  0  0  0
   56.2980   23.2310   44.6460 N   0  0  0  0  0  0  0  0  0  0  0  0
   56.9730   22.2180   43.8800 C   0  0  0  0  0  0  0  0  0  0  0  0
   56.3260   21.5370   43.0430 O   0  0  0  0  0  0  0  0  0  0  0  0
   58.3610   21.9300   44.0760 N   0  0  0  0  0  0  0  0  0  0  0  0
   59.1600   22.4070   45.1960 C   0  0  0  0  0  0  0  0  0  0  0  0
   58.6763   22.1182   46.1408 H   0  0  0  0  0  0  0  0  0  0  0  0
   60.1640   21.9604   45.1466 H   0  0  0  0  0  0  0  0  0  0  0  0
   59.2433   23.5027   45.1466 H   0  0  0  0  0  0  0  0  0  0  0  0
   56.6580   29.3860   43.4950 C   0  0  0  0  0  0  0  0  0  0  0  0
   56.2446   28.4001   43.2358 H   0  0  0  0  0  0  0  0  0  0  0  0
  1  2  1  0
  2  3  1  0
  3  4  1  0
  4  5  2  0
  5  6  1  0
  6  7  2  0
  6  8  1  0
  8  9  2  0
  9 10  1  0
  9 11  1  0
 11 12  1  0
 11 13  2  0
 13 14  1  0
 14 15  1  0
 14 16  1  0
 14 17  1  0
 17 18  1  0
 18 19  1  0
 18 20  1  0
 18 21  1  0
 21 22  1  0
 21 23  1  0
 21 24  1  0
 24 25  1  0
 25 26  1  0
 25 27  1  0
 25 28  1  0
 28 29  1  0
 28 30  1  0
 28 31  1  0
 24 32  1  0
 32 33  1  0
 32 34  1  0
 32 35  1  0
 35 36  1  0
 35 37  1  0
 13 38  1  0
 38 39  1  0
 38 40  2  0
 40 41  1  0
  4 42  1  0
 42 43  1  0
 42 44  2  0
 44 45  1  0
 45 46  1  0
 46 47  2  0
 47 48  1  0
 48 49  1  0
 49 50  1  0
 49 51  1  0
 49 52  1  0
 47 53  1  0
 53 54  1  0
 53 55  2  0
 55 56  1  0
 56 57  2  0
 57 58  1  0
 56 59  1  0
 59 60  1  0
 59 61  2  0
 61 62  1  0
 61 63  1  0
 63 64  1  0
 64 65  2  0
 64 66  1  0
 66 67  1  0
 67 68  1  0
 67 69  1  0
 67 70  1  0
 44 71  1  0
 71 72  1  0
 71  2  2  0
 40  8  1  0
 57 46  1  0
 35 17  1  0
 63 55  1  0
M  CHG  2   3  -1  66  -1
M  END
>  <UniqueID>  (12) 
12

>  <SMILES>  (12) 
CCN1CCN(Cc2ccc(C(=O)/N=c3/cc(Oc4cc5ccn(C(=O)[N-]C)c5cc4OC)cc[n-]3)cc2)CC1

>  <Energy>  (12) 
144.25665325291712

>  <Genealogy>  (12) 
CCN1CCN(Cc2ccc(C(=O)N=c3cc(Oc4cc5ccn(C(=O)[N-]C)c5cc4OC)cc[n-]3)cc2)CC1 (protonated)
CCN1CCN(Cc2ccc(C(=O)/N=c3/cc(Oc4cc5ccn(C(=O)[N-]C)c5cc4OC)cc[n-]3)cc2)CC1 (cis-trans isomerization)
CCN1CCN(Cc2ccc(C(=O)/N=c3/cc(Oc4cc5ccn(C(=O)[N-]C)c5cc4OC)cc[n-]3)cc2)CC1 (3D coordinates assigned)
CCN1CCN(Cc2ccc(C(=O)/N=c3/cc(Oc4cc5ccn(C(=O)[N-]C)c5cc4OC)cc[n-]3)cc2)CC1 (nonaromatic ring conformer: 144.25665325291712 kcal/mol)

>  <smiles>  (12) 
CCN1CCN(Cc2ccc(C(=O)N=c3cc(Oc4cc5ccn(C(=O)NC)c5cc4OC)cc[nH]3)cc2)CC1

>  <score_type>  (12) 
oracle

>  <origin>  (12) 
adg

>  <m_score__min__energy>  (12) 
-11.81

>  <m_primary>  (12) 
energy

$$$$
12:0
     RDKit          3D

 54 57  0  0  0  0  0  0  0  0999 V2000
   65.0300   33.1090   49.3470 C   0  0  0  0  0  0  0  0  0  0  0  0
   63.6860   33.4320   48.7650 C   0  0  0  0  0  0  0  0  0  0  0  0
   62.6390   33.8540   49.5970 C   0  0  0  0  0  0  0  0  0  0  0  0
   61.3760   34.1220   49.0600 C   0  0  0  0  0  0  0  0  0  0  0  0
   61.1360   33.9520   47.6860 C   0  0  0  0  0  0  0  0  0  0  0  0
   59.8400   34.2450   47.1310 N   0  0  0  0  0  0  0  0  0  0  0  0
   59.7280   34.9050   45.8260 C   0  0  0  0  0  0  0  0  0  0  0  0
   58.3650   34.5940   45.1790 C   0  0  0  0  0  0  0  0  0  0  0  0
   57.9220   33.2090   45.4710 N   0  0  0  0  0  0  0  0  0  0  0  0
   58.8480   32.2100   44.8730 C   0  0  0  0  0  0  0  0  0  0  0  0
   58.1080   31.0220   44.2960 C   0  0  0  0  0  0  0  0  0  0  0  0
   56.9970   31.1800   43.4680 C   0  0  0  0  0  0  0  0  0  0  0  0
   56.4890   29.6660   42.9430 S   0  0  0  0  0  0  0  0  0  0  0  0
   57.6690   28.7950   43.7570 C   0  0  0  0  0  0  0  0  0  0  0  0
   57.7710   27.3710   43.7390 N   0  0  0  0  0  0  0  0  0  0  0  0
   58.4860   29.6680   44.4700 C   0  0  0  0  0  0  0  0  0  0  0  0
   59.6440   29.2190   45.2700 C   0  0  0  0  0  0  0  0  0  0  0  0
   60.4540   28.4020   44.7560 O   0  0  0  0  0  0  0  0  0  0  0  0
   59.8750   29.7040   46.6500 C   0  0  0  0  0  0  0  0  0  0  0  0
   58.8440   29.6690   47.6080 C   0  0  0  0  0  0  0  0  0  0  0  0
   59.0690   30.1400   48.9050 C   0  0  0  0  0  0  0  0  0  0  0  0
   60.3240   30.6420   49.2620 C   0  0  0  0  0  0  0  0  0  0  0  0
   60.6030   31.2360   50.8890 Cl  0  0  0  0  0  0  0  0  0  0  0  0
   61.3580   30.6690   48.3200 C   0  0  0  0  0  0  0  0  0  0  0  0
   61.1370   30.1980   47.0220 C   0  0  0  0  0  0  0  0  0  0  0  0
   57.7230   32.9830   46.9320 C   0  0  0  0  0  0  0  0  0  0  0  0
   58.6080   33.8710   47.8310 C   0  0  0  0  0  0  0  0  0  0  0  0
   62.1860   33.5220   46.8570 C   0  0  0  0  0  0  0  0  0  0  0  0
   63.4490   33.2550   47.3940 C   0  0  0  0  0  0  0  0  0  0  0  0
   64.9673   33.1241   50.4451 H   0  0  0  0  0  0  0  0  0  0  0  0
   65.3444   32.1097   49.0114 H   0  0  0  0  0  0  0  0  0  0  0  0
   65.7641   33.8563   49.0114 H   0  0  0  0  0  0  0  0  0  0  0  0
   62.8120   33.9747   50.6766 H   0  0  0  0  0  0  0  0  0  0  0  0
   60.5650   34.4682   49.7176 H   0  0  0  0  0  0  0  0  0  0  0  0
   59.8250   35.9924   45.9608 H   0  0  0  0  0  0  0  0  0  0  0  0
   60.5271   34.5315   45.1688 H   0  0  0  0  0  0  0  0  0  0  0  0
   57.6158   35.2978   45.5705 H   0  0  0  0  0  0  0  0  0  0  0  0
   58.4715   34.6972   44.0890 H   0  0  0  0  0  0  0  0  0  0  0  0
   56.9870   33.1070   45.0100 H   0  0  0  0  0  0  0  0  0  0  0  0
   59.4220   32.6947   44.0696 H   0  0  0  0  0  0  0  0  0  0  0  0
   59.5104   31.8420   45.6704 H   0  0  0  0  0  0  0  0  0  0  0  0
   56.5292   32.1393   43.2017 H   0  0  0  0  0  0  0  0  0  0  0  0
   56.9980   26.7760   43.3690 H   0  0  0  0  0  0  0  0  0  0  0  0
   58.6440   26.9060   44.0760 H   0  0  0  0  0  0  0  0  0  0  0  0
   57.8564   29.2691   47.3347 H   0  0  0  0  0  0  0  0  0  0  0  0
   58.2567   30.1155   49.6463 H   0  0  0  0  0  0  0  0  0  0  0  0
   62.3465   31.0614   48.6008 H   0  0  0  0  0  0  0  0  0  0  0  0
   61.9559   30.2143   46.2877 H   0  0  0  0  0  0  0  0  0  0  0  0
   56.6695   33.1879   47.1733 H   0  0  0  0  0  0  0  0  0  0  0  0
   58.0091   31.9403   47.1344 H   0  0  0  0  0  0  0  0  0  0  0  0
   58.0529   34.7822   48.0983 H   0  0  0  0  0  0  0  0  0  0  0  0
   58.8717   33.3073   48.7380 H   0  0  0  0  0  0  0  0  0  0  0  0
   62.0131   33.3946   45.7782 H   0  0  0  0  0  0  0  0  0  0  0  0
   64.2600   32.9047   46.7386 H   0  0  0  0  0  0  0  0  0  0  0  0
  1  2  1  0
  2  3  2  0
  3  4  1  0
  4  5  2  0
  5  6  1  0
  6  7  1  0
  7  8  1  0
  8  9  1  0
  9 10  1  0
 10 11  1  0
 11 12  2  0
 12 13  1  0
 13 14  1  0
 14 15  1  0
 14 16  2  0
 16 17  1  0
 17 18  2  0
 17 19  1  0
 19 20  2  0
 20 21  1  0
 21 22  2  0
 22 23  1  0
 22 24  1  0
 24 25  2  0
  9 26  1  0
 26 27  1  0
  5 28  1  0
 28 29  2  0
 29  2  1  0
 27  6  1  0
 16 11  1  0
 25 19  1  0
  1 30  1  0
  1 31  1  0
  1 32  1  0
  3 33  1  0
  4 34  1  0
  7 35  1  0
  7 36  1  0
  8 37  1  0
  8 38  1  0
  9 39  1  0
 10 40  1  0
 10 41  1  0
 12 42  1  0
 15 43  1  0
 15 44  1  0
 20 45  1  0
 21 46  1  0
 24 47  1  0
 25 48  1  0
 26 49  1  0
 26 50  1  0
 27 51  1  0
 27 52  1  0
 28 53  1  0
 29 54  1  0
M  CHG  1   9   1
M  END
>  <UniqueID>  (13) 
13

>  <SMILES>  (13) 
Cc1ccc(N2CC[NH+](Cc3csc(N)c3C(=O)c3ccc(Cl)cc3)CC2)cc1

>  <Energy>  (13) 
100.8196186012816

>  <Genealogy>  (13) 
Cc1ccc(N2CC[NH+](Cc3csc(N)c3C(=O)c3ccc(Cl)cc3)CC2)cc1 (protonated)
Cc1ccc(N2CC[NH+](Cc3csc(N)c3C(=O)c3ccc(Cl)cc3)CC2)cc1 (3D coordinates assigned)
Cc1ccc(N2CC[NH+](Cc3csc(N)c3C(=O)c3ccc(Cl)cc3)CC2)cc1 (nonaromatic ring conformer: 100.8196186012816 kcal/mol)

>  <smiles>  (13) 
Cc1ccc(N2CCN(Cc3csc(N)c3C(=O)c3ccc(Cl)cc3)CC2)cc1

>  <score_type>  (13) 
oracle

>  <origin>  (13) 
adg

>  <m_score__min__energy>  (13) 
-7.1799999999999997

>  <m_primary>  (13) 
energy

$$$$
13:0
     RDKit          3D

 68 72  0  0  0  0  0  0  0  0999 V2000
   53.3550   25.8131   45.4654 H   0  0  0  0  0  0  0  0  0  0  0  0
   54.4240   25.6180   45.6360 C   0  0  0  0  0  0  0  0  0  0  0  0
   55.2530   26.6460   45.9430 N   0  0  0  0  0  0  0  0  0  0  0  0
   56.5760   26.4590   46.1740 C   0  0  0  0  0  0  0  0  0  0  0  0
   57.3800   27.5570   46.5000 C   0  0  0  0  0  0  0  0  0  0  0  0
   56.9306   28.5587   46.5675 H   0  0  0  0  0  0  0  0  0  0  0  0
   58.7540   27.3950   46.7420 C   0  0  0  0  0  0  0  0  0  0  0  0
   59.6070   28.5660   47.0690 C   0  0  0  0  0  0  0  0  0  0  0  0
   60.3060   29.2480   46.0560 C   0  0  0  0  0  0  0  0  0  0  0  0
   60.2152   28.9155   45.0114 H   0  0  0  0  0  0  0  0  0  0  0  0
   61.1150   30.3450   46.3670 C   0  0  0  0  0  0  0  0  0  0  0  0
   61.6502   30.8747   45.5651 H   0  0  0  0  0  0  0  0  0  0  0  0
   61.2480   30.7740   47.6960 C   0  0  0  0  0  0  0  0  0  0  0  0
   62.1000   31.9750   48.0320 C   0  0  0  0  0  0  0  0  0  0  0  0
   62.1917   32.0502   49.1256 H   0  0  0  0  0  0  0  0  0  0  0  0
   63.0830   31.8367   47.5580 H   0  0  0  0  0  0  0  0  0  0  0  0
   61.5200   33.2260   47.5170 N   0  0  0  0  0  0  0  0  0  0  0  0
   62.2970   33.8900   47.2820 H   0  0  0  0  0  0  0  0  0  0  0  0
   60.6330   33.8630   48.5010 C   0  0  0  0  0  0  0  0  0  0  0  0
   60.4462   33.1657   49.3310 H   0  0  0  0  0  0  0  0  0  0  0  0
   61.1111   34.7753   48.8872 H   0  0  0  0  0  0  0  0  0  0  0  0
   59.2990   34.2300   47.8310 C   0  0  0  0  0  0  0  0  0  0  0  0
   58.4783   34.0072   48.5287 H   0  0  0  0  0  0  0  0  0  0  0  0
   59.3288   35.3005   47.5797 H   0  0  0  0  0  0  0  0  0  0  0  0
   59.0790   33.4710   46.5750 N   0  0  0  0  0  0  0  0  0  0  0  0
   59.9980   33.0610   46.2790 H   0  0  0  0  0  0  0  0  0  0  0  0
   58.5840   34.3460   45.4720 C   0  0  0  0  0  0  0  0  0  0  0  0
   58.4309   35.3598   45.8704 H   0  0  0  0  0  0  0  0  0  0  0  0
   59.3402   34.3291   44.6734 H   0  0  0  0  0  0  0  0  0  0  0  0
   57.2570   33.8520   44.8620 C   0  0  0  0  0  0  0  0  0  0  0  0
   56.4588   33.9539   45.6120 H   0  0  0  0  0  0  0  0  0  0  0  0
   57.0379   34.4608   43.9724 H   0  0  0  0  0  0  0  0  0  0  0  0
   57.3430   32.5000   44.4640 O   0  0  0  0  0  0  0  0  0  0  0  0
   57.7710   31.6370   45.5160 C   0  0  0  0  0  0  0  0  0  0  0  0
   56.9487   30.9405   45.7368 H   0  0  0  0  0  0  0  0  0  0  0  0
   58.6850   31.1478   45.1480 H   0  0  0  0  0  0  0  0  0  0  0  0
   58.1700   32.3330   46.8360 C   0  0  0  0  0  0  0  0  0  0  0  0
   57.2634   32.7030   47.3372 H   0  0  0  0  0  0  0  0  0  0  0  0
   58.6905   31.6050   47.4756 H   0  0  0  0  0  0  0  0  0  0  0  0
   60.5470   30.1030   48.7060 C   0  0  0  0  0  0  0  0  0  0  0  0
   60.6369   30.4393   49.7495 H   0  0  0  0  0  0  0  0  0  0  0  0
   59.7340   29.0090   48.3970 C   0  0  0  0  0  0  0  0  0  0  0  0
   59.1891   28.4904   49.1995 H   0  0  0  0  0  0  0  0  0  0  0  0
   59.3090   26.1080   46.6610 C   0  0  0  0  0  0  0  0  0  0  0  0
   60.3812   25.9648   46.8604 H   0  0  0  0  0  0  0  0  0  0  0  0
   58.5150   25.0070   46.3300 C   0  0  0  0  0  0  0  0  0  0  0  0
   58.9696   24.0075   46.2645 H   0  0  0  0  0  0  0  0  0  0  0  0
   57.1360   25.1650   46.0790 C   0  0  0  0  0  0  0  0  0  0  0  0
   56.3090   24.0730   45.7120 C   0  0  0  0  0  0  0  0  0  0  0  0
   56.8720   22.8970   45.5660 N   0  0  0  0  0  0  0  0  0  0  0  0
   56.4210   21.6050   45.9950 C   0  0  0  0  0  0  0  0  0  0  0  0
   55.9200   20.6860   45.0570 C   0  0  0  0  0  0  0  0  0  0  0  0
   55.8102   20.9840   44.0038 H   0  0  0  0  0  0  0  0  0  0  0  0
   55.5610   19.3970   45.4550 C   0  0  0  0  0  0  0  0  0  0  0  0
   55.1447   18.6904   44.7219 H   0  0  0  0  0  0  0  0  0  0  0  0
   55.7310   19.0050   46.7860 C   0  0  0  0  0  0  0  0  0  0  0  0
   55.4460   17.9899   47.0996 H   0  0  0  0  0  0  0  0  0  0  0  0
   56.2630   19.9010   47.7210 C   0  0  0  0  0  0  0  0  0  0  0  0
   56.4000   19.5852   48.7657 H   0  0  0  0  0  0  0  0  0  0  0  0
   56.6240   21.2070   47.3290 C   0  0  0  0  0  0  0  0  0  0  0  0
   57.1800   22.1320   48.2280 O   0  0  0  0  0  0  0  0  0  0  0  0
   56.8760   22.1900   49.6170 C   0  0  0  0  0  0  0  0  0  0  0  0
   57.7920   22.0152   50.2004 H   0  0  0  0  0  0  0  0  0  0  0  0
   56.4688   23.1820   49.8621 H   0  0  0  0  0  0  0  0  0  0  0  0
   56.1322   21.4176   49.8621 H   0  0  0  0  0  0  0  0  0  0  0  0
   54.9140   24.3120   45.5340 C   0  0  0  0  0  0  0  0  0  0  0  0
   53.9320   23.2610   45.3800 C   0  0  0  0  0  0  0  0  0  0  0  0
   53.1540   22.4150   45.2510 N   0  0  0  0  0  0  0  0  0  0  0  0
  1  2  1  0
  2  3  1  0
  3  4  1  0
  4  5  2  0
  5  6  1  0
  5  7  1  0
  7  8  1  0
  8  9  2  0
  9 10  1  0
  9 11  1  0
 11 12  1  0
 11 13  2  0
 13 14  1  0
 14 15  1  0
 14 16  1  0
 14 17  1  0
 17 18  1  0
 17 19  1  0
 19 20  1  0
 19 21  1  0
 19 22  1  0
 22 23  1  0
 22 24  1  0
 22 25  1  0
 25 26  1  0
 25 27  1  0
 27 28  1  0
 27 29  1  0
 27 30  1  0
 30 31  1  0
 30 32  1  0
 30 33  1  0
 33 34  1  0
 34 35  1  0
 34 36  1  0
 34 37  1  0
 37 38  1  0
 37 39  1  0
 13 40  1  0
 40 41  1  0
 40 42  2  0
 42 43  1  0
  7 44  2  0
 44 45  1  0
 44 46  1  0
 46 47  1  0
 46 48  2  0
 48 49  1  0
 49 50  2  0
 50 51  1  0
 51 52  2  0
 52 53  1  0
 52 54  1  0
 54 55  1  0
 54 56  2  0
 56 57  1  0
 56 58  1  0
 58 59  1  0
 58 60  2  0
 60 61  1  0
 61 62  1  0
 62 63  1  0
 62 64  1  0
 62 65  1  0
 49 66  1  0
 66 67  1  0
 67 68  3  0
 66  2  2  0
 48  4  1  0
 60 51  1  0
 42  8  1  0
 37 25  1  0
M  CHG  2   3  -1  25   1
M  END
>  <UniqueID>  (14) 
14

>  <SMILES>  (14) 
COc1ccccc1/N=c1\c(C#N)c[n-]c2cc(-c3ccc(CNCC[NH+]4CCOCC4)cc3)ccc12

>  <Energy>  (14) 
111.66498706123933

>  <Genealogy>  (14) 
COc1ccccc1N=c1c(C#N)c[n-]c2cc(-c3ccc(CNCC[NH+]4CCOCC4)cc3)ccc12 (protonated)
COc1ccccc1/N=c1\c(C#N)c[n-]c2cc(-c3ccc(CNCC[NH+]4CCOCC4)cc3)ccc12 (cis-trans isomerization)
COc1ccccc1/N=c1\c(C#N)c[n-]c2cc(-c3ccc(CNCC[NH+]4CCOCC4)cc3)ccc12 (3D coordinates assigned)
COc1ccccc1/N=c1\c(C#N)c[n-]c2cc(-c3ccc(CNCC[NH+]4CCOCC4)cc3)ccc12 (nonaromatic ring conformer: 111.66498706123933 kcal/mol)

>  <smiles>  (14) 
COc1ccccc1N=c1c(C#N)c[nH]c2cc(-c3ccc(CNCCN4CCOCC4)cc3)ccc12

>  <score_type>  (14) 
oracle

>  <origin>  (14) 
adg

>  <m_score__min__energy>  (14) 
-9.4700000000000006

>  <m_primary>  (14) 
energy

$$$$
14:0
     RDKit          3D

 43 45  0  0  0  0  0  0  0  0999 V2000
   57.7800   32.3440   41.5470 C   0  0  0  0  0  0  0  0  0  0  0  0
   57.1960   32.0110   42.8030 O   0  0  0  0  0  0  0  0  0  0  0  0
   57.7580   32.2950   44.0580 C   0  0  0  0  0  0  0  0  0  0  0  0
   58.4300   33.5080   44.2800 C   0  0  0  0  0  0  0  0  0  0  0  0
   58.9900   33.8010   45.5220 C   0  0  0  0  0  0  0  0  0  0  0  0
   58.9260   32.8670   46.5580 C   0  0  0  0  0  0  0  0  0  0  0  0
   58.2410   31.6460   46.3770 C   0  0  0  0  0  0  0  0  0  0  0  0
   58.1760   30.7760   47.4850 O   0  0  0  0  0  0  0  0  0  0  0  0
   58.9210   29.5810   47.6900 C   0  0  0  0  0  0  0  0  0  0  0  0
   57.6500   31.3510   45.1170 C   0  0  0  0  0  0  0  0  0  0  0  0
   56.9720   30.1260   44.9670 O   0  0  0  0  0  0  0  0  0  0  0  0
   56.9870   29.2600   43.8380 C   0  0  0  0  0  0  0  0  0  0  0  0
   59.5930   33.2340   47.8670 C   0  0  1  0  0  0  0  0  0  0  0  0
   61.0830   32.8920   47.8420 C   0  0  0  0  0  0  0  0  0  0  0  0
   61.6080   31.7680   47.1640 C   0  0  0  0  0  0  0  0  0  0  0  0
   62.9800   31.5010   47.1820 C   0  0  0  0  0  0  0  0  0  0  0  0
   63.8520   32.3500   47.8640 C   0  0  0  0  0  0  0  0  0  0  0  0
   63.3530   33.4700   48.5280 C   0  0  0  0  0  0  0  0  0  0  0  0
   61.9830   33.7420   48.5150 C   0  0  0  0  0  0  0  0  0  0  0  0
   59.2540   34.7090   48.1830 C   0  0  0  0  0  0  0  0  0  0  0  0
   59.5500   35.6600   47.0850 N   0  0  0  0  0  0  0  0  0  0  0  0
   59.7500   35.0840   45.7390 C   0  0  0  0  0  0  0  0  0  0  0  0
   58.7246   32.8826   41.7131 H   0  0  0  0  0  0  0  0  0  0  0  0
   57.9780   31.4230   40.9790 H   0  0  0  0  0  0  0  0  0  0  0  0
   57.0883   32.9835   40.9790 H   0  0  0  0  0  0  0  0  0  0  0  0
   58.5156   34.2377   43.4613 H   0  0  0  0  0  0  0  0  0  0  0  0
   59.0339   29.3999   48.7691 H   0  0  0  0  0  0  0  0  0  0  0  0
   58.3903   28.7345   47.2297 H   0  0  0  0  0  0  0  0  0  0  0  0
   59.9146   29.6849   47.2297 H   0  0  0  0  0  0  0  0  0  0  0  0
   57.0051   28.2141   44.1783 H   0  0  0  0  0  0  0  0  0  0  0  0
   56.0857   29.4327   43.2315 H   0  0  0  0  0  0  0  0  0  0  0  0
   57.8817   29.4638   43.2315 H   0  0  0  0  0  0  0  0  0  0  0  0
   59.2046   32.6319   48.7016 H   0  0  0  0  0  0  0  0  0  0  0  0
   60.9299   31.0967   46.6167 H   0  0  0  0  0  0  0  0  0  0  0  0
   63.3735   30.6183   46.6566 H   0  0  0  0  0  0  0  0  0  0  0  0
   64.9310   32.1363   47.8779 H   0  0  0  0  0  0  0  0  0  0  0  0
   64.0403   34.1413   49.0637 H   0  0  0  0  0  0  0  0  0  0  0  0
   61.6015   34.6318   49.0372 H   0  0  0  0  0  0  0  0  0  0  0  0
   58.1799   34.7726   48.4116 H   0  0  0  0  0  0  0  0  0  0  0  0
   59.8937   35.0012   49.0289 H   0  0  0  0  0  0  0  0  0  0  0  0
   58.7720   36.3590   47.0370 H   0  0  0  0  0  0  0  0  0  0  0  0
   59.4160   35.8186   44.9915 H   0  0  0  0  0  0  0  0  0  0  0  0
   60.8203   34.8500   45.6399 H   0  0  0  0  0  0  0  0  0  0  0  0
  1  2  1  0
  2  3  1  0
  3  4  2  0
  4  5  1  0
  5  6  2  0
  6  7  1  0
  7  8  1  0
  8  9  1  0
  7 10  2  0
 10 11  1  0
 11 12  1  0
  6 13  1  0
 13 14  1  0
 14 15  2  0
 15 16  1  0
 16 17  2  0
 17 18  1  0
 18 19  2  0
 13 20  1  0
 20 21  1  0
 21 22  1  0
 10  3  1  0
 19 14  1  0
 22  5  1  0
  1 23  1  0
  1 24  1  0
  1 25  1  0
  4 26  1  0
  9 27  1  0
  9 28  1  0
  9 29  1  0
 12 30  1  0
 12 31  1  0
 12 32  1  0
 13 33  1  1
 15 34  1  0
 16 35  1  0
 17 36  1  0
 18 37  1  0
 19 38  1  0
 20 39  1  0
 20 40  1  0
 21 41  1  0
 22 42  1  0
 22 43  1  0
M  END
>  <UniqueID>  (15) 
15

>  <SMILES>  (15) 
COc1cc2c(c(OC)c1OC)[C@@H](c1ccccc1)CNC2

>  <Energy>  (15) 
63.73646071447599

>  <Genealogy>  (15) 
COc1cc2c(c(OC)c1OC)[C@@H](c1ccccc1)CNC2 (chirality)
COc1cc2c(c(OC)c1OC)[C@@H](c1ccccc1)CNC2 (3D coordinates assigned)
COc1cc2c(c(OC)c1OC)[C@@H](c1ccccc1)CNC2 (nonaromatic ring conformer: 63.73646071447599 kcal/mol)

>  <smiles>  (15) 
COc1cc2c(c(OC)c1OC)C(c1ccccc1)CNC2

>  <score_type>  (15) 
oracle

>  <origin>  (15) 
adg

>  <m_score__min__energy>  (15) 
-7.1799999999999997

>  <m_primary>  (15) 
energy

$$$$
15:0
     RDKit          3D

 24 25  0  0  0  0  0  0  0  0999 V2000
   60.5150   28.5870   44.9010 C   0  0  0  0  0  0  0  0  0  0  0  0
   59.4450   28.2200   44.4840 C   0  0  0  0  0  0  0  0  0  0  0  0
   58.1410   27.7750   43.9810 C   0  0  0  0  0  0  0  0  0  0  0  0
   57.1520   28.8430   44.1160 N   0  0  0  0  0  0  0  0  0  0  0  0
   57.4730   30.2310   44.3360 C   0  0  0  0  0  0  0  0  0  0  0  0
   57.4610   31.1140   43.2440 C   0  0  0  0  0  0  0  0  0  0  0  0
   57.7650   32.4670   43.4140 C   0  0  0  0  0  0  0  0  0  0  0  0
   58.0880   32.9600   44.6840 C   0  0  0  0  0  0  0  0  0  0  0  0
   58.3960   34.3140   44.8790 C   0  0  0  0  0  0  0  0  0  0  0  0
   58.7070   34.7690   46.1210 N   0  0  0  0  0  0  0  0  0  0  0  0
   58.7310   33.9450   47.2030 C   0  0  0  0  0  0  0  0  0  0  0  0
   58.4310   32.5890   47.0600 C   0  0  0  0  0  0  0  0  0  0  0  0
   58.1060   32.0860   45.7930 C   0  0  0  0  0  0  0  0  0  0  0  0
   57.8010   30.7270   45.6140 C   0  0  0  0  0  0  0  0  0  0  0  0
   61.4913   28.9219   45.2815 H   0  0  0  0  0  0  0  0  0  0  0  0
   58.2360   27.5008   42.9200 H   0  0  0  0  0  0  0  0  0  0  0  0
   57.8098   26.9054   44.5676 H   0  0  0  0  0  0  0  0  0  0  0  0
   56.1470   28.5740   44.0150 H   0  0  0  0  0  0  0  0  0  0  0  0
   57.2091   30.7356   42.2423 H   0  0  0  0  0  0  0  0  0  0  0  0
   57.7506   33.1460   42.5487 H   0  0  0  0  0  0  0  0  0  0  0  0
   58.3858   35.0083   44.0259 H   0  0  0  0  0  0  0  0  0  0  0  0
   58.9876   34.3483   48.1937 H   0  0  0  0  0  0  0  0  0  0  0  0
   58.4496   31.9214   47.9340 H   0  0  0  0  0  0  0  0  0  0  0  0
   57.8182   30.0450   46.4769 H   0  0  0  0  0  0  0  0  0  0  0  0
  1  2  3  0
  2  3  1  0
  3  4  1  0
  4  5  1  0
  5  6  2  0
  6  7  1  0
  7  8  2  0
  8  9  1  0
  9 10  2  0
 10 11  1  0
 11 12  2  0
 12 13  1  0
 13 14  2  0
 14  5  1  0
 13  8  1  0
  1 15  1  0
  3 16  1  0
  3 17  1  0
  4 18  1  0
  6 19  1  0
  7 20  1  0
  9 21  1  0
 11 22  1  0
 12 23  1  0
 14 24  1  0
M  END
>  <UniqueID>  (16) 
16

>  <SMILES>  (16) 
C#CCNc1ccc2cnccc2c1

>  <Energy>  (16) 
25.356563984099413

>  <Genealogy>  (16) 
C#CCNc1ccc2cnccc2c1 (3D coordinates assigned)
C#CCNc1ccc2cnccc2c1 (optimized conformer: 25.356563984099413 kcal/mol)

>  <smiles>  (16) 
C#CCNc1ccc2cnccc2c1

>  <score_type>  (16) 
oracle

>  <origin>  (16) 
adg

>  <m_score__min__energy>  (16) 
-5.25

>  <m_primary>  (16) 
energy

$$$$
16:0
     RDKit          3D

 61 63  0  0  0  0  0  0  0  0999 V2000
   58.0300   28.0450   44.1470 C   0  0  0  0  0  0  0  0  0  0  0  0
   57.0240   28.6340   45.1470 C   0  0  0  0  0  0  0  0  0  0  0  0
   56.8110   30.0920   44.9910 N   0  0  0  0  0  0  0  0  0  0  0  0
   56.0800   30.4420   43.7500 C   0  0  0  0  0  0  0  0  0  0  0  0
   57.0180   31.1730   42.7990 C   0  0  0  0  0  0  0  0  0  0  0  0
   58.0480   30.8790   45.1920 C   0  0  0  0  0  0  0  0  0  0  0  0
   58.1840   31.3280   46.6520 C   0  0  0  0  0  0  0  0  0  0  0  0
   58.0220   32.7310   46.7660 O   0  0  0  0  0  0  0  0  0  0  0  0
   57.1220   33.2310   45.7950 C   0  0  0  0  0  0  0  0  0  0  0  0
   57.8290   34.2240   44.8690 C   0  0  0  0  0  0  0  0  0  0  0  0
   59.2700   34.2230   45.1470 N   0  0  0  0  0  0  0  0  0  0  0  0
   59.5960   35.2360   46.1570 C   0  0  0  0  0  0  0  0  0  0  0  0
   60.2020   34.5750   47.3580 C   0  0  0  0  0  0  0  0  0  0  0  0
   59.6630   34.5500   48.6390 C   0  0  0  0  0  0  0  0  0  0  0  0
   60.5160   33.9410   49.4970 N   0  0  0  0  0  0  0  0  0  0  0  0
   60.3230   33.8060   50.9410 C   0  0  0  0  0  0  0  0  0  0  0  0
   59.1810   32.8710   51.2280 C   0  0  0  0  0  0  0  0  0  0  0  0
   58.1550   33.2440   52.1130 C   0  0  0  0  0  0  0  0  0  0  0  0
   57.0810   32.3810   52.3500 C   0  0  0  0  0  0  0  0  0  0  0  0
   57.0200   31.1420   51.7050 C   0  0  0  0  0  0  0  0  0  0  0  0
   55.9770   30.3080   51.9380 F   0  0  0  0  0  0  0  0  0  0  0  0
   58.0340   30.7660   50.8210 C   0  0  0  0  0  0  0  0  0  0  0  0
   59.1120   31.6250   50.5820 C   0  0  0  0  0  0  0  0  0  0  0  0
   61.6040   33.6020   48.7720 C   0  0  0  0  0  0  0  0  0  0  0  0
   62.7750   32.9760   49.2100 C   0  0  0  0  0  0  0  0  0  0  0  0
   63.7920   32.7400   48.2670 C   0  0  0  0  0  0  0  0  0  0  0  0
   63.6280   33.1330   46.9220 C   0  0  0  0  0  0  0  0  0  0  0  0
   62.4410   33.7640   46.5050 C   0  0  0  0  0  0  0  0  0  0  0  0
   61.4460   33.9800   47.4590 C   0  0  0  0  0  0  0  0  0  0  0  0
   58.8529   27.5632   44.6954 H   0  0  0  0  0  0  0  0  0  0  0  0
   57.5250   27.2999   43.5147 H   0  0  0  0  0  0  0  0  0  0  0  0
   58.4326   28.8500   43.5147 H   0  0  0  0  0  0  0  0  0  0  0  0
   56.0585   28.1255   45.0082 H   0  0  0  0  0  0  0  0  0  0  0  0
   57.4415   28.4765   46.1524 H   0  0  0  0  0  0  0  0  0  0  0  0
   55.7127   29.5234   43.2691 H   0  0  0  0  0  0  0  0  0  0  0  0
   55.2276   31.0920   43.9968 H   0  0  0  0  0  0  0  0  0  0  0  0
   57.7548   31.7472   43.3800 H   0  0  0  0  0  0  0  0  0  0  0  0
   57.5405   30.4415   42.1650 H   0  0  0  0  0  0  0  0  0  0  0  0
   56.4363   31.8584   42.1650 H   0  0  0  0  0  0  0  0  0  0  0  0
   58.9162   30.2588   44.9243 H   0  0  0  0  0  0  0  0  0  0  0  0
   58.0012   31.7736   44.5537 H   0  0  0  0  0  0  0  0  0  0  0  0
   57.4141   30.8261   47.2565 H   0  0  0  0  0  0  0  0  0  0  0  0
   59.1888   31.0597   47.0104 H   0  0  0  0  0  0  0  0  0  0  0  0
   56.7321   32.3936   45.1977 H   0  0  0  0  0  0  0  0  0  0  0  0
   56.2972   33.7479   46.3074 H   0  0  0  0  0  0  0  0  0  0  0  0
   57.6588   33.9321   43.8222 H   0  0  0  0  0  0  0  0  0  0  0  0
   57.4262   35.2328   45.0425 H   0  0  0  0  0  0  0  0  0  0  0  0
   59.5180   33.2830   45.5410 H   0  0  0  0  0  0  0  0  0  0  0  0
   60.3129   35.9557   45.7350 H   0  0  0  0  0  0  0  0  0  0  0  0
   58.6771   35.7619   46.4554 H   0  0  0  0  0  0  0  0  0  0  0  0
   58.6831   34.9657   48.9165 H   0  0  0  0  0  0  0  0  0  0  0  0
   61.2421   33.4066   51.3945 H   0  0  0  0  0  0  0  0  0  0  0  0
   60.0928   34.7942   51.3659 H   0  0  0  0  0  0  0  0  0  0  0  0
   58.1971   34.2187   52.6211 H   0  0  0  0  0  0  0  0  0  0  0  0
   56.2821   32.6774   53.0456 H   0  0  0  0  0  0  0  0  0  0  0  0
   57.9848   29.7923   50.3116 H   0  0  0  0  0  0  0  0  0  0  0  0
   59.9086   31.3239   49.8858 H   0  0  0  0  0  0  0  0  0  0  0  0
   62.8975   32.6767   50.2614 H   0  0  0  0  0  0  0  0  0  0  0  0
   64.7228   32.2449   48.5810 H   0  0  0  0  0  0  0  0  0  0  0  0
   64.4321   32.9453   46.1953 H   0  0  0  0  0  0  0  0  0  0  0  0
   62.3021   34.0771   45.4597 H   0  0  0  0  0  0  0  0  0  0  0  0
  1  2  1  0
  2  3  1  0
  3  4  1  0
  4  5  1  0
  3  6  1  0
  6  7  1  0
  7  8  1  0
  8  9  1  0
  9 10  1  0
 10 11  1  0
 11 12  1  0
 12 13  1  0
 13 14  2  0
 14 15  1  0
 15 16  1  0
 16 17  1  0
 17 18  2  0
 18 19  1  0
 19 20  2  0
 20 21  1  0
 20 22  1  0
 22 23  2  0
 15 24  1  0
 24 25  2  0
 25 26  1  0
 26 27  2  0
 27 28  1  0
 28 29  2  0
 29 13  1  0
 23 17  1  0
 29 24  1  0
  1 30  1  0
  1 31  1  0
  1 32  1  0
  2 33  1  0
  2 34  1  0
  4 35  1  0
  4 36  1  0
  5 37  1  0
  5 38  1  0
  5 39  1  0
  6 40  1  0
  6 41  1  0
  7 42  1  0
  7 43  1  0
  9 44  1  0
  9 45  1  0
 10 46  1  0
 10 47  1  0
 11 48  1  0
 12 49  1  0
 12 50  1  0
 14 51  1  0
 16 52  1  0
 16 53  1  0
 18 54  1  0
 19 55  1  0
 22 56  1  0
 23 57  1  0
 25 58  1  0
 26 59  1  0
 27 60  1  0
 28 61  1  0
M  END
>  <UniqueID>  (17) 
17

>  <SMILES>  (17) 
CCN(CC)CCOCCNCc1cn(Cc2ccc(F)cc2)c2ccccc12

>  <Energy>  (17) 
93.16218904376919

>  <Genealogy>  (17) 
CCN(CC)CCOCCNCc1cn(Cc2ccc(F)cc2)c2ccccc12 (3D coordinates assigned)
CCN(CC)CCOCCNCc1cn(Cc2ccc(F)cc2)c2ccccc12 (optimized conformer: 93.16218904376919 kcal/mol)

>  <smiles>  (17) 
CCN(CC)CCOCCNCc1cn(Cc2ccc(F)cc2)c2ccccc12

>  <score_type>  (17) 
oracle

>  <origin>  (17) 
adg

>  <m_score__min__energy>  (17) 
-7.6600000000000001

>  <m_primary>  (17) 
energy

$$$$
17:0
     RDKit          3D

 39 40  0  0  0  0  0  0  0  0999 V2000
   59.6530   27.0780   47.6010 C   0  0  0  0  0  0  0  0  0  0  0  0
   60.0050   27.3540   46.1430 C   0  0  0  0  0  0  0  0  0  0  0  0
   59.1780   28.4400   45.6110 N   0  0  0  0  0  0  0  0  0  0  0  0
   58.1470   28.2710   44.7600 C   0  0  0  0  0  0  0  0  0  0  0  0
   57.6420   29.4960   44.3790 C   0  0  0  0  0  0  0  0  0  0  0  0
   56.2780   29.7510   43.0620 Br  0  0  0  0  0  0  0  0  0  0  0  0
   58.4070   30.4610   45.0160 C   0  0  0  0  0  0  0  0  0  0  0  0
   58.3010   31.9240   44.8530 C   0  0  0  0  0  0  0  0  0  0  0  0
   58.3840   32.4270   43.7000 O   0  0  0  0  0  0  0  0  0  0  0  0
   58.1180   32.7750   45.9940 N   0  0  0  0  0  0  0  0  0  0  0  0
   57.9130   34.2170   45.8740 C   0  0  0  0  0  0  0  0  0  0  0  0
   59.2570   34.9420   45.7690 C   0  0  0  0  0  0  0  0  0  0  0  0
   60.2350   34.3920   46.7720 C   0  0  0  0  0  0  0  0  0  0  0  0
   59.9610   34.4690   48.1470 C   0  0  0  0  0  0  0  0  0  0  0  0
   60.8860   33.9870   49.0790 C   0  0  0  0  0  0  0  0  0  0  0  0
   62.0930   33.4340   48.6450 C   0  0  0  0  0  0  0  0  0  0  0  0
   62.3790   33.3650   47.2780 C   0  0  0  0  0  0  0  0  0  0  0  0
   61.4570   33.8460   46.3440 C   0  0  0  0  0  0  0  0  0  0  0  0
   59.3490   29.7740   45.7750 C   0  0  0  0  0  0  0  0  0  0  0  0
   60.4490   30.4080   46.5790 C   0  0  0  0  0  0  0  0  0  0  0  0
   60.3486   27.6234   48.2557 H   0  0  0  0  0  0  0  0  0  0  0  0
   58.6241   27.4125   47.7995 H   0  0  0  0  0  0  0  0  0  0  0  0
   59.7324   25.9990   47.7995 H   0  0  0  0  0  0  0  0  0  0  0  0
   61.0650   27.6397   46.0746 H   0  0  0  0  0  0  0  0  0  0  0  0
   59.8181   26.4439   45.5540 H   0  0  0  0  0  0  0  0  0  0  0  0
   57.7642   27.2978   44.4191 H   0  0  0  0  0  0  0  0  0  0  0  0
   58.1480   32.3620   46.9530 H   0  0  0  0  0  0  0  0  0  0  0  0
   57.3183   34.4244   44.9722 H   0  0  0  0  0  0  0  0  0  0  0  0
   57.3832   34.5769   46.7683 H   0  0  0  0  0  0  0  0  0  0  0  0
   59.6631   34.8058   44.7558 H   0  0  0  0  0  0  0  0  0  0  0  0
   59.1005   36.0110   45.9755 H   0  0  0  0  0  0  0  0  0  0  0  0
   59.0146   34.9104   48.4928 H   0  0  0  0  0  0  0  0  0  0  0  0
   60.6627   34.0435   50.1546 H   0  0  0  0  0  0  0  0  0  0  0  0
   62.8186   33.0528   49.3786 H   0  0  0  0  0  0  0  0  0  0  0  0
   63.3309   32.9316   46.9372 H   0  0  0  0  0  0  0  0  0  0  0  0
   61.6889   33.7969   45.2698 H   0  0  0  0  0  0  0  0  0  0  0  0
   60.2367   30.2856   47.6514 H   0  0  0  0  0  0  0  0  0  0  0  0
   61.4062   29.9231   46.3371 H   0  0  0  0  0  0  0  0  0  0  0  0
   60.5093   31.4794   46.3371 H   0  0  0  0  0  0  0  0  0  0  0  0
  1  2  1  0
  2  3  1  0
  3  4  1  0
  4  5  2  0
  5  6  1  0
  5  7  1  0
  7  8  1  0
  8  9  2  0
  8 10  1  0
 10 11  1  0
 11 12  1  0
 12 13  1  0
 13 14  2  0
 14 15  1  0
 15 16  2  0
 16 17  1  0
 17 18  2  0
  7 19  2  0
 19 20  1  0
 19  3  1  0
 18 13  1  0
  1 21  1  0
  1 22  1  0
  1 23  1  0
  2 24  1  0
  2 25  1  0
  4 26  1  0
 10 27  1  0
 11 28  1  0
 11 29  1  0
 12 30  1  0
 12 31  1  0
 14 32  1  0
 15 33  1  0
 16 34  1  0
 17 35  1  0
 18 36  1  0
 20 37  1  0
 20 38  1  0
 20 39  1  0
M  END
>  <UniqueID>  (18) 
18

>  <SMILES>  (18) 
CCn1cc(Br)c(C(=O)NCCc2ccccc2)c1C

>  <Energy>  (18) 
60.33068322798519

>  <Genealogy>  (18) 
CCn1cc(Br)c(C(=O)NCCc2ccccc2)c1C (3D coordinates assigned)
CCn1cc(Br)c(C(=O)NCCc2ccccc2)c1C (optimized conformer: 60.33068322798519 kcal/mol)

>  <smiles>  (18) 
CCn1cc(Br)c(C(=O)NCCc2ccccc2)c1C

>  <score_type>  (18) 
oracle

>  <origin>  (18) 
adg

>  <m_score__min__energy>  (18) 
-7.2400000000000002

>  <m_primary>  (18) 
energy

$$$$
18:0
     RDKit          3D

 43 44  0  0  0  0  0  0  0  0999 V2000
   58.9030   27.9380   44.2000 C   0  0  0  0  0  0  0  0  0  0  0  0
   59.8700   28.8980   44.8880 C   0  0  0  0  0  0  0  0  0  0  0  0
   59.4280   29.1760   46.2740 N   0  0  0  0  0  0  0  0  0  0  0  0
   58.7100   28.0150   46.8310 C   0  0  0  0  0  0  0  0  0  0  0  0
   60.5660   29.5450   47.1510 C   0  0  0  0  0  0  0  0  0  0  0  0
   60.2820   30.8690   47.8710 C   0  0  0  0  0  0  0  0  0  0  0  0
   58.8700   30.9470   48.2680 N   0  0  0  0  0  0  0  0  0  0  0  0
   58.3930   32.3340   48.2960 C   0  0  0  0  0  0  0  0  0  0  0  0
   58.6830   33.0100   46.9740 C   0  0  0  0  0  0  0  0  0  0  0  0
   59.4220   34.2140   46.9210 C   0  0  0  0  0  0  0  0  0  0  0  0
   59.9110   34.7690   48.1150 O   0  0  0  0  0  0  0  0  0  0  0  0
   61.0270   34.2680   48.8450 C   0  0  0  0  0  0  0  0  0  0  0  0
   59.6490   34.8330   45.6750 C   0  0  0  0  0  0  0  0  0  0  0  0
   59.1430   34.2760   44.4990 C   0  0  0  0  0  0  0  0  0  0  0  0
   58.4040   33.0920   44.5480 C   0  0  0  0  0  0  0  0  0  0  0  0
   57.8710   32.5200   43.3870 C   0  0  0  0  0  0  0  0  0  0  0  0
   57.1300   31.3450   43.4800 C   0  0  0  0  0  0  0  0  0  0  0  0
   56.9380   30.7650   44.7370 C   0  0  0  0  0  0  0  0  0  0  0  0
   56.2690   29.7030   44.8440 O   0  0  0  0  0  0  0  0  0  0  0  0
   57.4560   31.3290   45.8240 O   0  0  0  0  0  0  0  0  0  0  0  0
   58.1700   32.4540   45.7850 C   0  0  0  0  0  0  0  0  0  0  0  0
   58.3390   27.3781   44.9605 H   0  0  0  0  0  0  0  0  0  0  0  0
   58.2038   28.5094   43.5718 H   0  0  0  0  0  0  0  0  0  0  0  0
   59.4694   27.2347   43.5718 H   0  0  0  0  0  0  0  0  0  0  0  0
   60.8727   28.4463   44.9117 H   0  0  0  0  0  0  0  0  0  0  0  0
   59.8926   29.8432   44.3258 H   0  0  0  0  0  0  0  0  0  0  0  0
   58.7375   28.0595   47.9298 H   0  0  0  0  0  0  0  0  0  0  0  0
   57.6645   28.0320   46.4894 H   0  0  0  0  0  0  0  0  0  0  0  0
   59.1923   27.0872   46.4894 H   0  0  0  0  0  0  0  0  0  0  0  0
   60.7191   28.7523   47.8981 H   0  0  0  0  0  0  0  0  0  0  0  0
   61.4681   29.6627   46.5326 H   0  0  0  0  0  0  0  0  0  0  0  0
   60.9144   30.9357   48.7685 H   0  0  0  0  0  0  0  0  0  0  0  0
   60.5052   31.7007   47.1866 H   0  0  0  0  0  0  0  0  0  0  0  0
   58.3080   30.4260   47.5530 H   0  0  0  0  0  0  0  0  0  0  0  0
   57.3083   32.3421   48.4786 H   0  0  0  0  0  0  0  0  0  0  0  0
   58.9118   32.8771   49.0997 H   0  0  0  0  0  0  0  0  0  0  0  0
   60.8294   34.3567   49.9235 H   0  0  0  0  0  0  0  0  0  0  0  0
   61.1888   33.2109   48.5876 H   0  0  0  0  0  0  0  0  0  0  0  0
   61.9245   34.8496   48.5876 H   0  0  0  0  0  0  0  0  0  0  0  0
   60.2312   35.7651   45.6288 H   0  0  0  0  0  0  0  0  0  0  0  0
   59.3265   34.7700   43.5334 H   0  0  0  0  0  0  0  0  0  0  0  0
   58.0363   32.9951   42.4088 H   0  0  0  0  0  0  0  0  0  0  0  0
   56.7027   30.8808   42.5790 H   0  0  0  0  0  0  0  0  0  0  0  0
  1  2  1  0
  2  3  1  0
  3  4  1  0
  3  5  1  0
  5  6  1  0
  6  7  1  0
  7  8  1  0
  8  9  1  0
  9 10  2  0
 10 11  1  0
 11 12  1  0
 10 13  1  0
 13 14  2  0
 14 15  1  0
 15 16  1  0
 16 17  2  0
 17 18  1  0
 18 19  2  0
 18 20  1  0
 20 21  1  0
 21  9  1  0
 21 15  2  0
  1 22  1  0
  1 23  1  0
  1 24  1  0
  2 25  1  0
  2 26  1  0
  4 27  1  0
  4 28  1  0
  4 29  1  0
  5 30  1  0
  5 31  1  0
  6 32  1  0
  6 33  1  0
  7 34  1  0
  8 35  1  0
  8 36  1  0
 12 37  1  0
 12 38  1  0
 12 39  1  0
 13 40  1  0
 14 41  1  0
 16 42  1  0
 17 43  1  0
M  END
>  <UniqueID>  (19) 
19

>  <SMILES>  (19) 
CCN(C)CCNCc1c(OC)ccc2ccc(=O)oc12

>  <Energy>  (19) 
42.59331187243631

>  <Genealogy>  (19) 
CCN(C)CCNCc1c(OC)ccc2ccc(=O)oc12 (3D coordinates assigned)
CCN(C)CCNCc1c(OC)ccc2ccc(=O)oc12 (optimized conformer: 42.59331187243631 kcal/mol)

>  <smiles>  (19) 
CCN(C)CCNCc1c(OC)ccc2ccc(=O)oc12

>  <score_type>  (19) 
oracle

>  <origin>  (19) 
adg

>  <m_score__min__energy>  (19) 
-5.8099999999999996

>  <m_primary>  (19) 
energy

$$$$
19:0
     RDKit          3D

 51 54  0  0  0  0  0  0  0  0999 V2000
   55.1820   23.3650   47.1290 C   0  0  0  0  0  0  0  0  0  0  0  0
   54.7010   24.1570   45.9180 C   0  0  0  0  0  0  0  0  0  0  0  0
   55.7810   25.0310   45.4000 N   0  0  0  0  0  0  0  0  0  0  0  0
   56.3770   24.4500   44.1840 C   0  0  0  0  0  0  0  0  0  0  0  0
   56.8250   25.2450   46.4290 C   0  0  0  0  0  0  0  0  0  0  0  0
   57.0630   26.7440   46.6450 C   0  0  0  0  0  0  0  0  0  0  0  0
   56.8010   27.4860   45.4110 N   0  0  0  0  0  0  0  0  0  0  0  0
   57.1740   28.8560   45.1740 C   0  0  0  0  0  0  0  0  0  0  0  0
   56.8710   29.4320   43.9330 C   0  0  0  0  0  0  0  0  0  0  0  0
   57.1990   30.7590   43.6660 C   0  0  0  0  0  0  0  0  0  0  0  0
   57.8210   31.5420   44.6420 C   0  0  0  0  0  0  0  0  0  0  0  0
   58.1260   32.8320   44.3580 N   0  0  0  0  0  0  0  0  0  0  0  0
   58.7240   33.6480   45.2590 C   0  0  0  0  0  0  0  0  0  0  0  0
   59.0210   34.9670   44.9060 C   0  0  0  0  0  0  0  0  0  0  0  0
   59.6440   35.8000   45.8330 C   0  0  0  0  0  0  0  0  0  0  0  0
   59.9630   35.3290   47.0660 N   0  0  0  0  0  0  0  0  0  0  0  0
   59.6860   34.0520   47.4420 C   0  0  0  0  0  0  0  0  0  0  0  0
   59.0470   33.1680   46.5480 C   0  0  0  0  0  0  0  0  0  0  0  0
   58.7230   31.8320   46.8870 C   0  0  0  0  0  0  0  0  0  0  0  0
   59.0650   31.2090   48.5510 S   0  0  0  0  0  0  0  0  0  0  0  0
   60.8130   31.5930   48.4400 C   0  0  0  0  0  0  0  0  0  0  0  0
   61.5360   31.2790   47.2830 C   0  0  0  0  0  0  0  0  0  0  0  0
   62.8940   31.5940   47.2200 C   0  0  0  0  0  0  0  0  0  0  0  0
   63.5150   32.2110   48.3080 C   0  0  0  0  0  0  0  0  0  0  0  0
   62.7620   32.5040   49.4480 C   0  0  0  0  0  0  0  0  0  0  0  0
   61.4400   32.1900   49.4900 N   0  0  0  0  0  0  0  0  0  0  0  0
   58.1180   30.9960   45.9130 C   0  0  0  0  0  0  0  0  0  0  0  0
   57.7900   29.6440   46.1650 C   0  0  0  0  0  0  0  0  0  0  0  0
   54.8701   23.8785   48.0504 H   0  0  0  0  0  0  0  0  0  0  0  0
   54.7438   22.3563   47.1051 H   0  0  0  0  0  0  0  0  0  0  0  0
   56.2791   23.2888   47.1051 H   0  0  0  0  0  0  0  0  0  0  0  0
   54.3931   23.4566   45.1277 H   0  0  0  0  0  0  0  0  0  0  0  0
   53.8520   24.7868   46.2221 H   0  0  0  0  0  0  0  0  0  0  0  0
   57.1381   23.7080   44.4672 H   0  0  0  0  0  0  0  0  0  0  0  0
   55.5920   23.9610   43.5885 H   0  0  0  0  0  0  0  0  0  0  0  0
   56.8458   25.2473   43.5885 H   0  0  0  0  0  0  0  0  0  0  0  0
   56.4994   24.7895   47.3759 H   0  0  0  0  0  0  0  0  0  0  0  0
   57.7621   24.7803   46.0886 H   0  0  0  0  0  0  0  0  0  0  0  0
   56.3904   27.1073   47.4360 H   0  0  0  0  0  0  0  0  0  0  0  0
   58.1115   26.8998   46.9388 H   0  0  0  0  0  0  0  0  0  0  0  0
   56.4210   26.9360   44.6060 H   0  0  0  0  0  0  0  0  0  0  0  0
   56.3688   28.8297   43.1616 H   0  0  0  0  0  0  0  0  0  0  0  0
   56.9673   31.1928   42.6821 H   0  0  0  0  0  0  0  0  0  0  0  0
   58.7652   35.3444   43.9049 H   0  0  0  0  0  0  0  0  0  0  0  0
   59.8779   36.8410   45.5655 H   0  0  0  0  0  0  0  0  0  0  0  0
   59.9619   33.7064   48.4492 H   0  0  0  0  0  0  0  0  0  0  0  0
   61.0389   30.7892   46.4327 H   0  0  0  0  0  0  0  0  0  0  0  0
   63.4737   31.3569   46.3157 H   0  0  0  0  0  0  0  0  0  0  0  0
   64.5849   32.4635   48.2680 H   0  0  0  0  0  0  0  0  0  0  0  0
   63.2393   32.9891   50.3122 H   0  0  0  0  0  0  0  0  0  0  0  0
   58.0186   29.2028   47.1463 H   0  0  0  0  0  0  0  0  0  0  0  0
  1  2  1  0
  2  3  1  0
  3  4  1  0
  3  5  1  0
  5  6  1  0
  6  7  1  0
  7  8  1  0
  8  9  2  0
  9 10  1  0
 10 11  2  0
 11 12  1  0
 12 13  2  0
 13 14  1  0
 14 15  2  0
 15 16  1  0
 16 17  2  0
 17 18  1  0
 18 19  2  0
 19 20  1  0
 20 21  1  0
 21 22  2  0
 22 23  1  0
 23 24  2  0
 24 25  1  0
 25 26  2  0
 19 27  1  0
 27 28  2  0
 28  8  1  0
 27 11  1  0
 18 13  1  0
 26 21  1  0
  1 29  1  0
  1 30  1  0
  1 31  1  0
  2 32  1  0
  2 33  1  0
  4 34  1  0
  4 35  1  0
  4 36  1  0
  5 37  1  0
  5 38  1  0
  6 39  1  0
  6 40  1  0
  7 41  1  0
  9 42  1  0
 10 43  1  0
 14 44  1  0
 15 45  1  0
 17 46  1  0
 22 47  1  0
 23 48  1  0
 24 49  1  0
 25 50  1  0
 28 51  1  0
M  END
>  <UniqueID>  (20) 
20

>  <SMILES>  (20) 
CCN(C)CCNc1ccc2nc3ccncc3c(Sc3ccccn3)c2c1

>  <Energy>  (20) 
60.0505494923691

>  <Genealogy>  (20) 
CCN(C)CCNc1ccc2nc3ccncc3c(Sc3ccccn3)c2c1 (3D coordinates assigned)
CCN(C)CCNc1ccc2nc3ccncc3c(Sc3ccccn3)c2c1 (optimized conformer: 60.0505494923691 kcal/mol)

>  <smiles>  (20) 
CCN(C)CCNc1ccc2nc3ccncc3c(Sc3ccccn3)c2c1

>  <score_type>  (20) 
oracle

>  <origin>  (20) 
adg

>  <m_score__min__energy>  (20) 
-7.9500000000000002

>  <m_primary>  (20) 
energy

$$$$
20:0
     RDKit          3D

 65 67  0  0  0  0  0  0  0  0999 V2000
   60.1950   30.4040   47.4010 C   0  0  0  0  0  0  0  0  0  0  0  0
   59.2030   30.7980   48.5080 C   0  0  0  0  0  0  0  0  0  0  0  0
   59.8220   31.0270   49.8350 N   0  0  0  0  0  0  0  0  0  0  0  0
   60.2440   29.7810   50.4940 C   0  0  0  0  0  0  0  0  0  0  0  0
   59.0070   31.8800   50.7270 C   0  0  0  0  0  0  0  0  0  0  0  0
   59.8980   32.5200   51.8000 C   0  0  0  0  0  0  0  0  0  0  0  0
   60.4090   33.8240   51.3500 N   0  0  0  0  0  0  0  0  0  0  0  0
   61.2520   33.6620   50.1750 C   0  0  0  0  0  0  0  0  0  0  0  0
   62.5930   33.2100   50.3040 C   0  0  0  0  0  0  0  0  0  0  0  0
   63.1970   33.0180   51.5720 C   0  0  0  0  0  0  0  0  0  0  0  0
   64.4770   32.4820   51.6860 C   0  0  0  0  0  0  0  0  0  0  0  0
   65.1850   32.1230   50.5480 C   0  0  0  0  0  0  0  0  0  0  0  0
   64.6390   32.3500   49.2880 C   0  0  0  0  0  0  0  0  0  0  0  0
   63.3620   32.9480   49.1340 C   0  0  0  0  0  0  0  0  0  0  0  0
   62.8630   33.2630   47.8860 N   0  0  0  0  0  0  0  0  0  0  0  0
   63.7730   33.2910   46.7160 C   0  0  0  0  0  0  0  0  0  0  0  0
   61.5370   33.6180   47.7350 C   0  0  0  0  0  0  0  0  0  0  0  0
   60.9420   33.7030   46.4510 C   0  0  0  0  0  0  0  0  0  0  0  0
   59.6400   34.1960   46.2760 C   0  0  0  0  0  0  0  0  0  0  0  0
   59.0380   34.3350   45.0130 O   0  0  0  0  0  0  0  0  0  0  0  0
   57.6370   34.2540   44.7450 C   0  0  0  0  0  0  0  0  0  0  0  0
   57.0530   32.9490   45.3000 C   0  0  0  0  0  0  0  0  0  0  0  0
   57.5190   31.7410   44.4760 C   0  0  0  0  0  0  0  0  0  0  0  0
   56.7850   30.5210   44.8790 N   0  0  0  0  0  0  0  0  0  0  0  0
   55.8870   30.0640   43.8030 C   0  0  0  0  0  0  0  0  0  0  0  0
   57.7320   29.4440   45.2120 C   0  0  0  0  0  0  0  0  0  0  0  0
   58.9060   34.5690   47.3940 C   0  0  0  0  0  0  0  0  0  0  0  0
   59.4340   34.4230   48.6730 C   0  0  0  0  0  0  0  0  0  0  0  0
   60.7350   33.9010   48.8730 C   0  0  0  0  0  0  0  0  0  0  0  0
   61.1254   30.0345   47.8569 H   0  0  0  0  0  0  0  0  0  0  0  0
   59.7531   29.6131   46.7771 H   0  0  0  0  0  0  0  0  0  0  0  0
   60.4161   31.2826   46.7771 H   0  0  0  0  0  0  0  0  0  0  0  0
   58.6958   31.7246   48.2010 H   0  0  0  0  0  0  0  0  0  0  0  0
   58.5135   29.9492   48.6267 H   0  0  0  0  0  0  0  0  0  0  0  0
   60.2002   29.9104   51.5855 H   0  0  0  0  0  0  0  0  0  0  0  0
   59.5730   28.9624   50.1946 H   0  0  0  0  0  0  0  0  0  0  0  0
   61.2743   29.5386   50.1946 H   0  0  0  0  0  0  0  0  0  0  0  0
   58.5254   32.6715   50.1340 H   0  0  0  0  0  0  0  0  0  0  0  0
   58.2403   31.2614   51.2165 H   0  0  0  0  0  0  0  0  0  0  0  0
   59.3099   32.6614   52.7188 H   0  0  0  0  0  0  0  0  0  0  0  0
   60.7530   31.8542   51.9892 H   0  0  0  0  0  0  0  0  0  0  0  0
   60.9260   34.3010   52.1230 H   0  0  0  0  0  0  0  0  0  0  0  0
   59.6220   34.4820   51.1610 H   0  0  0  0  0  0  0  0  0  0  0  0
   62.6450   33.2973   52.4815 H   0  0  0  0  0  0  0  0  0  0  0  0
   64.9276   32.3429   52.6798 H   0  0  0  0  0  0  0  0  0  0  0  0
   66.1779   31.6589   50.6416 H   0  0  0  0  0  0  0  0  0  0  0  0
   65.2094   32.0597   48.3934 H   0  0  0  0  0  0  0  0  0  0  0  0
   64.8162   33.3231   47.0635 H   0  0  0  0  0  0  0  0  0  0  0  0
   63.6166   32.3876   46.1082 H   0  0  0  0  0  0  0  0  0  0  0  0
   63.5614   34.1831   46.1082 H   0  0  0  0  0  0  0  0  0  0  0  0
   61.5146   33.3747   45.5711 H   0  0  0  0  0  0  0  0  0  0  0  0
   57.1290   35.1070   45.2186 H   0  0  0  0  0  0  0  0  0  0  0  0
   57.4837   34.2748   43.6559 H   0  0  0  0  0  0  0  0  0  0  0  0
   57.3828   32.8222   46.3417 H   0  0  0  0  0  0  0  0  0  0  0  0
   55.9558   33.0064   45.2463 H   0  0  0  0  0  0  0  0  0  0  0  0
   57.3347   31.9381   43.4096 H   0  0  0  0  0  0  0  0  0  0  0  0
   58.5930   31.5836   44.6539 H   0  0  0  0  0  0  0  0  0  0  0  0
   54.9890   29.6070   44.2442 H   0  0  0  0  0  0  0  0  0  0  0  0
   55.5936   30.9224   43.1809 H   0  0  0  0  0  0  0  0  0  0  0  0
   56.4083   29.3215   43.1809 H   0  0  0  0  0  0  0  0  0  0  0  0
   57.8129   29.3519   46.3051 H   0  0  0  0  0  0  0  0  0  0  0  0
   57.3708   28.4946   44.7898 H   0  0  0  0  0  0  0  0  0  0  0  0
   58.7198   29.6808   44.7898 H   0  0  0  0  0  0  0  0  0  0  0  0
   57.8955   34.9847   47.2671 H   0  0  0  0  0  0  0  0  0  0  0  0
   58.8303   34.7182   49.5439 H   0  0  0  0  0  0  0  0  0  0  0  0
  1  2  1  0
  2  3  1  0
  3  4  1  0
  3  5  1  0
  5  6  1  0
  6  7  1  0
  7  8  1  0
  8  9  2  0
  9 10  1  0
 10 11  2  0
 11 12  1  0
 12 13  2  0
 13 14  1  0
 14 15  2  0
 15 16  1  0
 15 17  1  0
 17 18  2  0
 18 19  1  0
 19 20  1  0
 20 21  1  0
 21 22  1  0
 22 23  1  0
 23 24  1  0
 24 25  1  0
 24 26  1  0
 19 27  2  0
 27 28  1  0
 28 29  2  0
 29  8  1  0
 14  9  1  0
 29 17  1  0
  1 30  1  0
  1 31  1  0
  1 32  1  0
  2 33  1  0
  2 34  1  0
  4 35  1  0
  4 36  1  0
  4 37  1  0
  5 38  1  0
  5 39  1  0
  6 40  1  0
  6 41  1  0
  7 42  1  0
  7 43  1  0
 10 44  1  0
 11 45  1  0
 12 46  1  0
 13 47  1  0
 16 48  1  0
 16 49  1  0
 16 50  1  0
 18 51  1  0
 21 52  1  0
 21 53  1  0
 22 54  1  0
 22 55  1  0
 23 56  1  0
 23 57  1  0
 25 58  1  0
 25 59  1  0
 25 60  1  0
 26 61  1  0
 26 62  1  0
 26 63  1  0
 27 64  1  0
 28 65  1  0
M  CHG  2   7   1  15   1
M  END
>  <UniqueID>  (21) 
21

>  <SMILES>  (21) 
CCN(C)CC[NH2+]c1c2ccccc2[n+](C)c2cc(OCCCN(C)C)ccc12

>  <Energy>  (21) 
92.75326067682887

>  <Genealogy>  (21) 
CCN(C)CC[NH2+]c1c2ccccc2[n+](C)c2cc(OCCCN(C)C)ccc12 (protonated)
CCN(C)CC[NH2+]c1c2ccccc2[n+](C)c2cc(OCCCN(C)C)ccc12 (3D coordinates assigned)
CCN(C)CC[NH2+]c1c2ccccc2[n+](C)c2cc(OCCCN(C)C)ccc12 (optimized conformer: 92.75326067682887 kcal/mol)

>  <smiles>  (21) 
CCN(C)CCNc1c2ccccc2[n+](C)c2cc(OCCCN(C)C)ccc12

>  <score_type>  (21) 
oracle

>  <origin>  (21) 
adg

>  <m_score__min__energy>  (21) 
-4.7800000000000002

>  <m_primary>  (21) 
energy

$$$$
21:0
     RDKit          3D

 44 46  0  0  0  0  0  0  0  0999 V2000
   58.9810   34.5940   46.6890 C   0  0  0  0  0  0  0  0  0  0  0  0
   60.4050   34.2710   46.2430 C   0  0  0  0  0  0  0  0  0  0  0  0
   61.0810   33.4310   47.2600 N   0  0  0  0  0  0  0  0  0  0  0  0
   62.5040   33.8180   47.4050 C   0  0  0  0  0  0  0  0  0  0  0  0
   63.4090   32.6290   47.0990 C   0  0  0  0  0  0  0  0  0  0  0  0
   60.3810   33.5000   48.5660 C   0  0  0  0  0  0  0  0  0  0  0  0
   60.3390   32.1260   49.2500 C   0  0  0  0  0  0  0  0  0  0  0  0
   60.9130   31.0970   48.3820 N   0  0  0  0  0  0  0  0  0  0  0  0
   60.1130   30.0430   47.8270 C   0  0  0  0  0  0  0  0  0  0  0  0
   60.0470   28.8300   48.4590 N   0  0  0  0  0  0  0  0  0  0  0  0
   59.3450   27.7730   47.9390 C   0  0  0  0  0  0  0  0  0  0  0  0
   58.6380   27.9070   46.7330 C   0  0  0  0  0  0  0  0  0  0  0  0
   58.6760   29.1510   46.1140 C   0  0  0  0  0  0  0  0  0  0  0  0
   59.3850   30.2070   46.6410 C   0  0  0  0  0  0  0  0  0  0  0  0
   59.2160   31.3310   45.9050 N   0  0  0  0  0  0  0  0  0  0  0  0
   58.4070   30.9580   44.8890 C   0  0  0  0  0  0  0  0  0  0  0  0
   57.9260   31.7650   43.8580 C   0  0  0  0  0  0  0  0  0  0  0  0
   57.0730   31.1760   42.9060 C   0  0  0  0  0  0  0  0  0  0  0  0
   56.7160   29.8130   43.0050 C   0  0  0  0  0  0  0  0  0  0  0  0
   57.2090   29.0190   44.0580 C   0  0  0  0  0  0  0  0  0  0  0  0
   58.0570   29.6270   44.9810 C   0  0  0  0  0  0  0  0  0  0  0  0
   58.9345   34.6046   47.7880 H   0  0  0  0  0  0  0  0  0  0  0  0
   58.6900   35.5810   46.3002 H   0  0  0  0  0  0  0  0  0  0  0  0
   58.2926   33.8292   46.3002 H   0  0  0  0  0  0  0  0  0  0  0  0
   60.3721   33.7282   45.2868 H   0  0  0  0  0  0  0  0  0  0  0  0
   60.9654   35.2099   46.1224 H   0  0  0  0  0  0  0  0  0  0  0  0
   62.7307   34.6362   46.7057 H   0  0  0  0  0  0  0  0  0  0  0  0
   62.6821   34.1467   48.4395 H   0  0  0  0  0  0  0  0  0  0  0  0
   63.7526   32.1776   48.0414 H   0  0  0  0  0  0  0  0  0  0  0  0
   62.8489   31.8820   46.5174 H   0  0  0  0  0  0  0  0  0  0  0  0
   64.2782   32.9699   46.5174 H   0  0  0  0  0  0  0  0  0  0  0  0
   60.9103   34.2093   49.2192 H   0  0  0  0  0  0  0  0  0  0  0  0
   59.3471   33.8312   48.3886 H   0  0  0  0  0  0  0  0  0  0  0  0
   60.9151   32.1711   50.1860 H   0  0  0  0  0  0  0  0  0  0  0  0
   59.2904   31.8673   49.4587 H   0  0  0  0  0  0  0  0  0  0  0  0
   61.7930   31.3460   47.8770 H   0  0  0  0  0  0  0  0  0  0  0  0
   60.5580   28.6950   49.3590 H   0  0  0  0  0  0  0  0  0  0  0  0
   59.3356   26.8107   48.4718 H   0  0  0  0  0  0  0  0  0  0  0  0
   58.0793   27.0653   46.2978 H   0  0  0  0  0  0  0  0  0  0  0  0
   59.5810   32.2900   46.0950 H   0  0  0  0  0  0  0  0  0  0  0  0
   58.2043   32.8271   43.7912 H   0  0  0  0  0  0  0  0  0  0  0  0
   56.6806   31.7830   42.0768 H   0  0  0  0  0  0  0  0  0  0  0  0
   56.0473   29.3682   42.2533 H   0  0  0  0  0  0  0  0  0  0  0  0
   56.9347   27.9576   44.1485 H   0  0  0  0  0  0  0  0  0  0  0  0
  1  2  1  0
  2  3  1  0
  3  4  1  0
  4  5  1  0
  3  6  1  0
  6  7  1  0
  7  8  1  0
  8  9  1  0
  9 10  2  0
 10 11  1  0
 11 12  2  0
 12 13  1  0
 13 14  2  0
 14 15  1  0
 15 16  1  0
 16 17  2  0
 17 18  1  0
 18 19  2  0
 19 20  1  0
 20 21  2  0
 14  9  1  0
 21 16  1  0
 21 13  1  0
  1 22  1  0
  1 23  1  0
  1 24  1  0
  2 25  1  0
  2 26  1  0
  4 27  1  0
  4 28  1  0
  5 29  1  0
  5 30  1  0
  5 31  1  0
  6 32  1  0
  6 33  1  0
  7 34  1  0
  7 35  1  0
  8 36  1  0
 10 37  1  0
 11 38  1  0
 12 39  1  0
 15 40  1  0
 17 41  1  0
 18 42  1  0
 19 43  1  0
 20 44  1  0
M  CHG  1  10   1
M  END
>  <UniqueID>  (22) 
22

>  <SMILES>  (22) 
CCN(CC)CCNc1[nH+]ccc2c1[nH]c1ccccc12

>  <Energy>  (22) 
84.5332186780762

>  <Genealogy>  (22) 
CCN(CC)CCNc1[nH+]ccc2c1[nH]c1ccccc12 (protonated)
CCN(CC)CCNc1[nH+]ccc2c1[nH]c1ccccc12 (3D coordinates assigned)
CCN(CC)CCNc1[nH+]ccc2c1[nH]c1ccccc12 (optimized conformer: 84.5332186780762 kcal/mol)

>  <smiles>  (22) 
CCN(CC)CCNc1nccc2c1[nH]c1ccccc12

>  <score_type>  (22) 
oracle

>  <origin>  (22) 
adg

>  <m_score__min__energy>  (22) 
-4.9500000000000002

>  <m_primary>  (22) 
energy

$$$$
22:0
     RDKit          3D

 59 62  0  0  0  0  0  0  0  0999 V2000
   56.6120   30.4490   43.0300 C   0  0  0  0  0  0  0  0  0  0  0  0
   56.2930   29.8420   44.2780 O   0  0  0  0  0  0  0  0  0  0  0  0
   57.2410   29.4780   45.2450 C   0  0  0  0  0  0  0  0  0  0  0  0
   57.7770   30.4860   46.0720 C   0  0  0  0  0  0  0  0  0  0  0  0
   58.7360   30.1790   47.0500 C   0  0  0  0  0  0  0  0  0  0  0  0
   59.1590   28.8530   47.1760 C   0  0  0  0  0  0  0  0  0  0  0  0
   58.6250   27.8650   46.3940 C   0  0  0  0  0  0  0  0  0  0  0  0
   57.6720   28.1420   45.4150 C   0  0  0  0  0  0  0  0  0  0  0  0
   59.2150   26.5440   46.7380 C   0  0  0  0  0  0  0  0  0  0  0  0
   60.1420   26.8730   47.9320 C   0  0  0  0  0  0  0  0  0  0  0  0
   60.1580   28.3340   48.0450 N   0  0  0  0  0  0  0  0  0  0  0  0
   60.9640   29.0540   49.0400 C   0  0  0  0  0  0  0  0  0  0  0  0
   61.0410   30.5870   48.8340 C   0  0  0  0  0  0  0  0  0  0  0  0
   61.9600   31.1000   47.7060 C   0  0  0  0  0  0  0  0  0  0  0  0
   62.9490   32.0890   48.2040 N   0  0  0  0  0  0  0  0  0  0  0  0
   62.4060   32.9650   49.2740 C   0  0  0  0  0  0  0  0  0  0  0  0
   61.6560   34.2080   48.7410 C   0  0  0  0  0  0  0  0  0  0  0  0
   61.3890   34.0760   47.3070 N   0  0  0  0  0  0  0  0  0  0  0  0
   60.0430   33.9510   46.7940 C   0  0  0  0  0  0  0  0  0  0  0  0
   59.7570   34.3320   45.4680 C   0  0  0  0  0  0  0  0  0  0  0  0
   58.4500   34.2900   44.9820 C   0  0  0  0  0  0  0  0  0  0  0  0
   57.4120   33.8650   45.8070 C   0  0  0  0  0  0  0  0  0  0  0  0
   57.6730   33.4810   47.1220 C   0  0  0  0  0  0  0  0  0  0  0  0
   58.9890   33.5150   47.6280 C   0  0  0  0  0  0  0  0  0  0  0  0
   59.2820   33.1160   48.9420 O   0  0  0  0  0  0  0  0  0  0  0  0
   58.4330   32.3090   49.7500 C   0  0  0  0  0  0  0  0  0  0  0  0
   62.5440   33.8310   46.4360 C   0  0  0  0  0  0  0  0  0  0  0  0
   63.5600   32.8910   47.1220 C   0  0  0  0  0  0  0  0  0  0  0  0
   57.1170   31.4099   43.2081 H   0  0  0  0  0  0  0  0  0  0  0  0
   57.2778   29.7852   42.4589 H   0  0  0  0  0  0  0  0  0  0  0  0
   55.6877   30.6208   42.4589 H   0  0  0  0  0  0  0  0  0  0  0  0
   57.4396   31.5258   45.9494 H   0  0  0  0  0  0  0  0  0  0  0  0
   59.1453   30.9644   47.7025 H   0  0  0  0  0  0  0  0  0  0  0  0
   57.2632   27.3368   44.7869 H   0  0  0  0  0  0  0  0  0  0  0  0
   58.4338   25.8269   47.0306 H   0  0  0  0  0  0  0  0  0  0  0  0
   59.7451   26.0751   45.8959 H   0  0  0  0  0  0  0  0  0  0  0  0
   59.7488   26.4231   48.8556 H   0  0  0  0  0  0  0  0  0  0  0  0
   61.1542   26.4713   47.7769 H   0  0  0  0  0  0  0  0  0  0  0  0
   60.5299   28.8644   50.0328 H   0  0  0  0  0  0  0  0  0  0  0  0
   61.9921   28.6774   48.9339 H   0  0  0  0  0  0  0  0  0  0  0  0
   60.0228   30.9440   48.6198 H   0  0  0  0  0  0  0  0  0  0  0  0
   61.4853   30.9765   49.7618 H   0  0  0  0  0  0  0  0  0  0  0  0
   62.4995   30.2459   47.2708 H   0  0  0  0  0  0  0  0  0  0  0  0
   61.3306   31.5970   46.9531 H   0  0  0  0  0  0  0  0  0  0  0  0
   61.7079   32.3742   49.8852 H   0  0  0  0  0  0  0  0  0  0  0  0
   63.2651   33.3330   49.8541 H   0  0  0  0  0  0  0  0  0  0  0  0
   60.7016   34.3116   49.2780 H   0  0  0  0  0  0  0  0  0  0  0  0
   62.2838   35.0965   48.9036 H   0  0  0  0  0  0  0  0  0  0  0  0
   60.5724   34.6659   44.8095 H   0  0  0  0  0  0  0  0  0  0  0  0
   58.2392   34.5930   43.9458 H   0  0  0  0  0  0  0  0  0  0  0  0
   56.3828   33.8320   45.4203 H   0  0  0  0  0  0  0  0  0  0  0  0
   56.8472   33.1495   47.7687 H   0  0  0  0  0  0  0  0  0  0  0  0
   58.6411   32.5068   50.8119 H   0  0  0  0  0  0  0  0  0  0  0  0
   57.3820   32.5492   49.5314 H   0  0  0  0  0  0  0  0  0  0  0  0
   58.6196   31.2472   49.5314 H   0  0  0  0  0  0  0  0  0  0  0  0
   62.1981   33.3669   45.5006 H   0  0  0  0  0  0  0  0  0  0  0  0
   63.0379   34.7915   46.2276 H   0  0  0  0  0  0  0  0  0  0  0  0
   63.9736   32.2069   46.3664 H   0  0  0  0  0  0  0  0  0  0  0  0
   64.3437   33.5178   47.5725 H   0  0  0  0  0  0  0  0  0  0  0  0
  1  2  1  0
  2  3  1  0
  3  4  2  0
  4  5  1  0
  5  6  2  0
  6  7  1  0
  7  8  2  0
  7  9  1  0
  9 10  1  0
 10 11  1  0
 11 12  1  0
 12 13  1  0
 13 14  1  0
 14 15  1  0
 15 16  1  0
 16 17  1  0
 17 18  1  0
 18 19  1  0
 19 20  2  0
 20 21  1  0
 21 22  2  0
 22 23  1  0
 23 24  2  0
 24 25  1  0
 25 26  1  0
 18 27  1  0
 27 28  1  0
  8  3  1  0
 28 15  1  0
 11  6  1  0
 24 19  1  0
  1 29  1  0
  1 30  1  0
  1 31  1  0
  4 32  1  0
  5 33  1  0
  8 34  1  0
  9 35  1  0
  9 36  1  0
 10 37  1  0
 10 38  1  0
 12 39  1  0
 12 40  1  0
 13 41  1  0
 13 42  1  0
 14 43  1  0
 14 44  1  0
 16 45  1  0
 16 46  1  0
 17 47  1  0
 17 48  1  0
 20 49  1  0
 21 50  1  0
 22 51  1  0
 23 52  1  0
 26 53  1  0
 26 54  1  0
 26 55  1  0
 27 56  1  0
 27 57  1  0
 28 58  1  0
 28 59  1  0
M  END
>  <UniqueID>  (23) 
23

>  <SMILES>  (23) 
COc1ccc2c(c1)CCN2CCCN1CCN(c2ccccc2OC)CC1

>  <Energy>  (23) 
86.11150537203284

>  <Genealogy>  (23) 
COc1ccc2c(c1)CCN2CCCN1CCN(c2ccccc2OC)CC1 (3D coordinates assigned)
COc1ccc2c(c1)CCN2CCCN1CCN(c2ccccc2OC)CC1 (nonaromatic ring conformer: 86.11150537203284 kcal/mol)

>  <smiles>  (23) 
COc1ccc2c(c1)CCN2CCCN1CCN(c2ccccc2OC)CC1

>  <score_type>  (23) 
oracle

>  <origin>  (23) 
adg

>  <m_score__min__energy>  (23) 
-7.8700000000000001

>  <m_primary>  (23) 
energy

$$$$
23:0
     RDKit          3D

 40 42  0  0  0  0  0  0  0  0999 V2000
   56.2670   29.7340   42.7370 C   0  0  0  0  0  0  0  0  0  0  0  0
   55.5760   30.1810   44.0200 C   0  0  0  0  0  0  0  0  0  0  0  0
   55.8020   29.1930   45.0820 N   0  0  0  0  0  0  0  0  0  0  0  0
   57.0930   28.5110   44.9130 C   0  0  0  0  0  0  0  0  0  0  0  0
   58.2490   29.4790   45.1820 C   0  0  0  0  0  0  0  0  0  0  0  0
   57.8000   30.6050   46.0010 N   0  0  0  0  0  0  0  0  0  0  0  0
   58.7210   31.4540   46.7060 C   0  0  0  0  0  0  0  0  0  0  0  0
   59.4950   30.9690   47.7800 C   0  0  0  0  0  0  0  0  0  0  0  0
   59.3730   29.6310   48.2090 C   0  0  0  0  0  0  0  0  0  0  0  0
   60.1630   29.1440   49.2470 C   0  0  0  0  0  0  0  0  0  0  0  0
   61.0900   29.9730   49.8690 C   0  0  0  0  0  0  0  0  0  0  0  0
   61.2200   31.3050   49.4760 C   0  0  0  0  0  0  0  0  0  0  0  0
   60.4110   31.8470   48.4470 C   0  0  0  0  0  0  0  0  0  0  0  0
   60.5010   33.1810   48.0730 N   0  0  0  0  0  0  0  0  0  0  0  0
   61.3350   34.1290   48.8380 C   0  0  0  0  0  0  0  0  0  0  0  0
   59.8060   33.6090   46.9650 C   0  0  0  0  0  0  0  0  0  0  0  0
   59.9080   34.8760   46.3470 C   0  0  0  0  0  0  0  0  0  0  0  0
   59.0940   35.0100   45.2280 C   0  0  0  0  0  0  0  0  0  0  0  0
   58.2610   33.5670   44.9840 S   0  0  0  0  0  0  0  0  0  0  0  0
   58.9220   32.7690   46.3070 C   0  0  0  0  0  0  0  0  0  0  0  0
   57.1662   29.1523   42.9883 H   0  0  0  0  0  0  0  0  0  0  0  0
   55.5789   29.1094   42.1484 H   0  0  0  0  0  0  0  0  0  0  0  0
   56.5546   30.6177   42.1484 H   0  0  0  0  0  0  0  0  0  0  0  0
   55.9840   31.1531   44.3339 H   0  0  0  0  0  0  0  0  0  0  0  0
   54.4954   30.2722   43.8354 H   0  0  0  0  0  0  0  0  0  0  0  0
   55.8350   29.7120   45.9920 H   0  0  0  0  0  0  0  0  0  0  0  0
   57.1533   27.6697   45.6191 H   0  0  0  0  0  0  0  0  0  0  0  0
   57.1692   28.1437   43.8789 H   0  0  0  0  0  0  0  0  0  0  0  0
   59.0517   28.9448   45.7114 H   0  0  0  0  0  0  0  0  0  0  0  0
   58.6178   29.8657   44.2205 H   0  0  0  0  0  0  0  0  0  0  0  0
   56.7910   30.8730   45.9700 H   0  0  0  0  0  0  0  0  0  0  0  0
   58.6468   28.9658   47.7189 H   0  0  0  0  0  0  0  0  0  0  0  0
   60.0534   28.1001   49.5760 H   0  0  0  0  0  0  0  0  0  0  0  0
   61.7243   29.5762   50.6754 H   0  0  0  0  0  0  0  0  0  0  0  0
   61.9632   31.9454   49.9734 H   0  0  0  0  0  0  0  0  0  0  0  0
   61.1872   33.9610   49.9150 H   0  0  0  0  0  0  0  0  0  0  0  0
   62.3940   33.9730   48.5845 H   0  0  0  0  0  0  0  0  0  0  0  0
   61.0453   35.1594   48.5845 H   0  0  0  0  0  0  0  0  0  0  0  0
   60.5663   35.6768   46.7150 H   0  0  0  0  0  0  0  0  0  0  0  0
   59.0081   35.9116   44.6038 H   0  0  0  0  0  0  0  0  0  0  0  0
  1  2  1  0
  2  3  1  0
  3  4  1  0
  4  5  1  0
  5  6  1  0
  6  7  1  0
  7  8  2  0
  8  9  1  0
  9 10  2  0
 10 11  1  0
 11 12  2  0
 12 13  1  0
 13 14  2  0
 14 15  1  0
 14 16  1  0
 16 17  1  0
 17 18  2  0
 18 19  1  0
 19 20  1  0
 20  7  1  0
 13  8  1  0
 20 16  2  0
  1 21  1  0
  1 22  1  0
  1 23  1  0
  2 24  1  0
  2 25  1  0
  3 26  1  0
  4 27  1  0
  4 28  1  0
  5 29  1  0
  5 30  1  0
  6 31  1  0
  9 32  1  0
 10 33  1  0
 11 34  1  0
 12 35  1  0
 15 36  1  0
 15 37  1  0
 15 38  1  0
 17 39  1  0
 18 40  1  0
M  CHG  1  14   1
M  END
>  <UniqueID>  (24) 
24

>  <SMILES>  (24) 
CCNCCNc1c2ccccc2[n+](C)c2ccsc12

>  <Energy>  (24) 
83.71444372824547

>  <Genealogy>  (24) 
CCNCCNc1c2ccccc2[n+](C)c2ccsc12 (3D coordinates assigned)
CCNCCNc1c2ccccc2[n+](C)c2ccsc12 (optimized conformer: 83.71444372824547 kcal/mol)

>  <smiles>  (24) 
CCNCCNc1c2ccccc2[n+](C)c2ccsc12

>  <score_type>  (24) 
oracle

>  <origin>  (24) 
adg

>  <m_score__min__energy>  (24) 
-5.5700000000000003

>  <m_primary>  (24) 
energy

$$$$
24:0
     RDKit          3D

 60 62  0  0  0  0  0  0  0  0999 V2000
   58.0270   31.8480   44.1510 C   0  0  0  0  0  0  0  0  0  0  0  0
   57.9180   31.8340   45.6730 C   0  0  0  0  0  0  0  0  0  0  0  0
   58.1970   33.1820   46.2110 N   0  0  0  0  0  0  0  0  0  0  0  0
   58.4330   34.1700   45.1440 C   0  0  0  0  0  0  0  0  0  0  0  0
   59.2480   33.1920   47.2570 C   0  0  0  0  0  0  0  0  0  0  0  0
   59.9500   34.5530   47.4410 C   0  0  0  0  0  0  0  0  0  0  0  0
   61.3200   34.3600   47.7470 O   0  0  0  0  0  0  0  0  0  0  0  0
   62.0880   34.1390   46.5780 C   0  0  0  0  0  0  0  0  0  0  0  0
   63.5330   33.7910   46.9510 C   0  0  0  0  0  0  0  0  0  0  0  0
   63.5870   32.5160   47.6680 N   0  0  0  0  0  0  0  0  0  0  0  0
   62.4720   31.6170   47.8330 C   0  0  0  0  0  0  0  0  0  0  0  0
   61.8000   31.4750   49.0610 C   0  0  0  0  0  0  0  0  0  0  0  0
   60.7050   30.6170   49.1740 C   0  0  0  0  0  0  0  0  0  0  0  0
   60.2550   29.8820   48.0660 C   0  0  0  0  0  0  0  0  0  0  0  0
   60.9270   30.0050   46.8340 C   0  0  0  0  0  0  0  0  0  0  0  0
   62.0310   30.8720   46.7300 C   0  0  0  0  0  0  0  0  0  0  0  0
   60.4620   29.2320   45.6570 C   0  0  0  0  0  0  0  0  0  0  0  0
   61.0800   29.3210   44.5600 O   0  0  0  0  0  0  0  0  0  0  0  0
   59.2680   28.3620   45.7650 C   0  0  0  0  0  0  0  0  0  0  0  0
   58.8040   27.6410   44.6490 C   0  0  0  0  0  0  0  0  0  0  0  0
   57.6620   26.8450   44.7450 C   0  0  0  0  0  0  0  0  0  0  0  0
   56.9530   26.7670   45.9530 C   0  0  0  0  0  0  0  0  0  0  0  0
   55.7730   25.9610   46.0820 N   0  0  0  0  0  0  0  0  0  0  0  0
   55.7170   24.5800   46.4720 C   0  0  0  0  0  0  0  0  0  0  0  0
   54.6560   23.9340   46.2650 O   0  0  0  0  0  0  0  0  0  0  0  0
   56.8950   23.8640   47.0630 C   0  0  0  0  0  0  0  0  0  0  0  0
   57.9600   23.8890   46.1370 O   0  0  0  0  0  0  0  0  0  0  0  0
   57.5180   23.3710   44.9000 C   0  0  0  0  0  0  0  0  0  0  0  0
   57.4370   27.4420   47.0790 C   0  0  0  0  0  0  0  0  0  0  0  0
   58.5850   28.2510   46.9940 C   0  0  0  0  0  0  0  0  0  0  0  0
   59.0730   28.9930   48.1800 C   0  0  0  0  0  0  0  0  0  0  0  0
   58.4780   28.8760   49.2870 O   0  0  0  0  0  0  0  0  0  0  0  0
   59.0792   31.9831   43.8600 H   0  0  0  0  0  0  0  0  0  0  0  0
   57.6546   30.8946   43.7479 H   0  0  0  0  0  0  0  0  0  0  0  0
   57.4258   32.6763   43.7479 H   0  0  0  0  0  0  0  0  0  0  0  0
   56.9016   31.5290   45.9628 H   0  0  0  0  0  0  0  0  0  0  0  0
   58.6510   31.1228   46.0815 H   0  0  0  0  0  0  0  0  0  0  0  0
   58.6662   35.1465   45.5935 H   0  0  0  0  0  0  0  0  0  0  0  0
   59.2781   33.8419   44.5209 H   0  0  0  0  0  0  0  0  0  0  0  0
   57.5309   34.2593   44.5209 H   0  0  0  0  0  0  0  0  0  0  0  0
   58.7837   32.9121   48.2141 H   0  0  0  0  0  0  0  0  0  0  0  0
   60.0217   32.4808   46.9319 H   0  0  0  0  0  0  0  0  0  0  0  0
   59.8639   35.1348   46.5114 H   0  0  0  0  0  0  0  0  0  0  0  0
   59.4703   35.0950   48.2693 H   0  0  0  0  0  0  0  0  0  0  0  0
   61.6497   33.3069   46.0074 H   0  0  0  0  0  0  0  0  0  0  0  0
   62.0856   35.0550   45.9689 H   0  0  0  0  0  0  0  0  0  0  0  0
   64.1351   33.7156   46.0335 H   0  0  0  0  0  0  0  0  0  0  0  0
   63.9313   34.5820   47.6035 H   0  0  0  0  0  0  0  0  0  0  0  0
   64.5190   32.2210   48.0360 H   0  0  0  0  0  0  0  0  0  0  0  0
   62.1402   32.0444   49.9385 H   0  0  0  0  0  0  0  0  0  0  0  0
   60.1897   30.5158   50.1406 H   0  0  0  0  0  0  0  0  0  0  0  0
   62.5562   30.9666   45.7681 H   0  0  0  0  0  0  0  0  0  0  0  0
   59.3457   27.7055   43.6938 H   0  0  0  0  0  0  0  0  0  0  0  0
   57.3161   26.2760   43.8694 H   0  0  0  0  0  0  0  0  0  0  0  0
   57.2028   24.3651   47.9926 H   0  0  0  0  0  0  0  0  0  0  0  0
   56.6223   22.8223   47.2876 H   0  0  0  0  0  0  0  0  0  0  0  0
   56.8135   22.5454   45.0789 H   0  0  0  0  0  0  0  0  0  0  0  0
   57.0149   24.1650   44.3287 H   0  0  0  0  0  0  0  0  0  0  0  0
   58.3813   22.9991   44.3287 H   0  0  0  0  0  0  0  0  0  0  0  0
   56.9142   27.3390   48.0413 H   0  0  0  0  0  0  0  0  0  0  0  0
  1  2  1  0
  2  3  1  0
  3  4  1  0
  3  5  1  0
  5  6  1  0
  6  7  1  0
  7  8  1  0
  8  9  1  0
  9 10  1  0
 10 11  1  0
 11 12  2  0
 12 13  1  0
 13 14  2  0
 14 15  1  0
 15 16  2  0
 15 17  1  0
 17 18  2  0
 17 19  1  0
 19 20  2  0
 20 21  1  0
 21 22  2  0
 22 23  1  0
 23 24  1  0
 24 25  2  0
 24 26  1  0
 26 27  1  0
 27 28  1  0
 22 29  1  0
 29 30  2  0
 30 31  1  0
 31 32  2  0
 16 11  1  0
 30 19  1  0
 31 14  1  0
  1 33  1  0
  1 34  1  0
  1 35  1  0
  2 36  1  0
  2 37  1  0
  4 38  1  0
  4 39  1  0
  4 40  1  0
  5 41  1  0
  5 42  1  0
  6 43  1  0
  6 44  1  0
  8 45  1  0
  8 46  1  0
  9 47  1  0
  9 48  1  0
 10 49  1  0
 12 50  1  0
 13 51  1  0
 16 52  1  0
 20 53  1  0
 21 54  1  0
 26 55  1  0
 26 56  1  0
 28 57  1  0
 28 58  1  0
 28 59  1  0
 29 60  1  0
M  CHG  1  23  -1
M  END
>  <UniqueID>  (25) 
25

>  <SMILES>  (25) 
CCN(C)CCOCCNc1ccc2c(c1)C(=O)c1ccc([N-]C(=O)COC)cc1C2=O

>  <Energy>  (25) 
73.63143303658954

>  <Genealogy>  (25) 
CCN(C)CCOCCNc1ccc2c(c1)C(=O)c1ccc([N-]C(=O)COC)cc1C2=O (protonated)
CCN(C)CCOCCNc1ccc2c(c1)C(=O)c1ccc([N-]C(=O)COC)cc1C2=O (3D coordinates assigned)
CCN(C)CCOCCNc1ccc2c(c1)C(=O)c1ccc([N-]C(=O)COC)cc1C2=O (nonaromatic ring conformer: 73.63143303658954 kcal/mol)

>  <smiles>  (25) 
CCN(C)CCOCCNc1ccc2c(c1)C(=O)c1ccc(NC(=O)COC)cc1C2=O

>  <score_type>  (25) 
oracle

>  <origin>  (25) 
adg

>  <m_score__min__energy>  (25) 
-9.9499999999999993

>  <m_primary>  (25) 
energy

$$$$
25:0
     RDKit          3D

 67 71  0  0  0  0  0  0  0  0999 V2000
   59.9940   22.0410   44.5260 C   0  0  0  0  0  0  0  0  0  0  0  0
   58.5600   21.8160   44.6800 N   0  0  0  0  0  0  0  0  0  0  0  0
   57.7070   22.8300   45.2290 C   0  0  0  0  0  0  0  0  0  0  0  0
   58.2710   24.0660   45.5820 C   0  0  0  0  0  0  0  0  0  0  0  0
   57.4670   25.1220   46.0450 C   0  0  0  0  0  0  0  0  0  0  0  0
   58.0390   26.3990   46.3830 N   0  0  0  0  0  0  0  0  0  0  0  0
   58.8180   26.6000   47.4410 N   0  0  0  0  0  0  0  0  0  0  0  0
   59.2110   27.8970   47.4440 C   0  0  0  0  0  0  0  0  0  0  0  0
   60.1560   28.4610   48.4560 C   0  0  0  0  0  0  0  0  0  0  0  0
   58.6510   28.5400   46.3470 C   0  0  0  0  0  0  0  0  0  0  0  0
   58.7550   29.8270   45.7970 C   0  0  0  0  0  0  0  0  0  0  0  0
   59.4190   30.9040   46.4680 N   0  0  0  0  0  0  0  0  0  0  0  0
   58.8930   32.1000   46.7980 C   0  0  0  0  0  0  0  0  0  0  0  0
   59.8150   32.9520   47.2920 N   0  0  0  0  0  0  0  0  0  0  0  0
   60.9670   32.2490   47.2500 C   0  0  0  0  0  0  0  0  0  0  0  0
   62.2690   32.7840   47.6770 C   0  0  0  0  0  0  0  0  0  0  0  0
   63.0060   33.7760   47.0580 C   0  0  0  0  0  0  0  0  0  0  0  0
   64.1420   33.9820   47.7540 N   0  0  0  0  0  0  0  0  0  0  0  0
   64.1300   33.1610   48.7920 N   0  0  0  0  0  0  0  0  0  0  0  0
   65.2270   33.0380   49.7410 C   0  0  0  0  0  0  0  0  0  0  0  0
   63.0180   32.4050   48.7720 C   0  0  0  0  0  0  0  0  0  0  0  0
   60.7330   30.9950   46.7280 C   0  0  0  0  0  0  0  0  0  0  0  0
   58.1420   30.0370   44.5440 C   0  0  0  0  0  0  0  0  0  0  0  0
   57.4500   28.9850   43.9070 C   0  0  0  0  0  0  0  0  0  0  0  0
   57.3660   27.7550   44.4950 N   0  0  0  0  0  0  0  0  0  0  0  0
   57.9450   27.5600   45.7060 C   0  0  0  0  0  0  0  0  0  0  0  0
   56.0810   24.9320   46.1320 C   0  0  0  0  0  0  0  0  0  0  0  0
   55.5110   23.7010   45.8040 C   0  0  0  0  0  0  0  0  0  0  0  0
   56.3130   22.6320   45.3750 C   0  0  0  0  0  0  0  0  0  0  0  0
   55.6750   21.3230   45.1160 C   0  0  0  0  0  0  0  0  0  0  0  0
   56.1690   20.5570   44.2430 O   0  0  0  0  0  0  0  0  0  0  0  0
   54.4780   20.9390   45.8100 N   0  0  0  0  0  0  0  0  0  0  0  0
   53.8860   19.6100   45.6710 C   0  0  0  0  0  0  0  0  0  0  0  0
   52.3490   19.7120   45.7310 C   0  0  0  0  0  0  0  0  0  0  0  0
   51.8260   21.0970   45.7000 N   0  0  0  0  0  0  0  0  0  0  0  0
   50.6240   21.2440   44.8630 C   0  0  0  0  0  0  0  0  0  0  0  0
   51.6100   21.6560   47.0450 C   0  0  0  0  0  0  0  0  0  0  0  0
   60.4623   22.1145   45.5186 H   0  0  0  0  0  0  0  0  0  0  0  0
   60.4394   21.2018   43.9717 H   0  0  0  0  0  0  0  0  0  0  0  0
   60.1609   22.9763   43.9717 H   0  0  0  0  0  0  0  0  0  0  0  0
   58.2620   20.8210   44.7900 H   0  0  0  0  0  0  0  0  0  0  0  0
   59.3580   24.2103   45.4950 H   0  0  0  0  0  0  0  0  0  0  0  0
   59.7850   28.2396   49.4676 H   0  0  0  0  0  0  0  0  0  0  0  0
   61.1494   28.0080   48.3225 H   0  0  0  0  0  0  0  0  0  0  0  0
   60.2289   29.5504   48.3225 H   0  0  0  0  0  0  0  0  0  0  0  0
   57.8294   32.3536   46.6779 H   0  0  0  0  0  0  0  0  0  0  0  0
   62.7124   34.3119   46.1433 H   0  0  0  0  0  0  0  0  0  0  0  0
   64.8314   33.0824   50.7665 H   0  0  0  0  0  0  0  0  0  0  0  0
   65.7392   32.0768   49.5868 H   0  0  0  0  0  0  0  0  0  0  0  0
   65.9393   33.8619   49.5868 H   0  0  0  0  0  0  0  0  0  0  0  0
   62.7528   31.6235   49.4992 H   0  0  0  0  0  0  0  0  0  0  0  0
   61.4857   30.2115   46.5558 H   0  0  0  0  0  0  0  0  0  0  0  0
   58.2036   31.0238   44.0620 H   0  0  0  0  0  0  0  0  0  0  0  0
   56.9748   29.1567   42.9299 H   0  0  0  0  0  0  0  0  0  0  0  0
   55.4368   25.7605   46.4617 H   0  0  0  0  0  0  0  0  0  0  0  0
   54.4220   23.5672   45.8825 H   0  0  0  0  0  0  0  0  0  0  0  0
   53.9840   21.6400   46.4060 H   0  0  0  0  0  0  0  0  0  0  0  0
   54.1854   19.1764   44.7054 H   0  0  0  0  0  0  0  0  0  0  0  0
   54.2389   18.9684   46.4919 H   0  0  0  0  0  0  0  0  0  0  0  0
   51.9343   19.1683   44.8694 H   0  0  0  0  0  0  0  0  0  0  0  0
   52.0434   19.2827   46.6966 H   0  0  0  0  0  0  0  0  0  0  0  0
   49.7393   21.3522   45.5077 H   0  0  0  0  0  0  0  0  0  0  0  0
   50.7263   22.1363   44.2279 H   0  0  0  0  0  0  0  0  0  0  0  0
   50.5082   20.3533   44.2279 H   0  0  0  0  0  0  0  0  0  0  0  0
   51.8977   20.9116   47.8020 H   0  0  0  0  0  0  0  0  0  0  0  0
   52.2233   22.5607   47.1689 H   0  0  0  0  0  0  0  0  0  0  0  0
   50.5477   21.9133   47.1689 H   0  0  0  0  0  0  0  0  0  0  0  0
  1  2  1  0
  2  3  1  0
  3  4  2  0
  4  5  1  0
  5  6  1  0
  6  7  1  0
  7  8  2  0
  8  9  1  0
  8 10  1  0
 10 11  2  0
 11 12  1  0
 12 13  1  0
 13 14  2  0
 14 15  1  0
 15 16  1  0
 16 17  1  0
 17 18  2  0
 18 19  1  0
 19 20  1  0
 19 21  1  0
 15 22  2  0
 11 23  1  0
 23 24  2  0
 24 25  1  0
 25 26  2  0
  5 27  2  0
 27 28  1  0
 28 29  2  0
 29 30  1  0
 30 31  2  0
 30 32  1  0
 32 33  1  0
 33 34  1  0
 34 35  1  0
 35 36  1  0
 35 37  1  0
 29  3  1  0
 26  6  1  0
 26 10  1  0
 22 12  1  0
 21 16  2  0
  1 38  1  0
  1 39  1  0
  1 40  1  0
  2 41  1  0
  4 42  1  0
  9 43  1  0
  9 44  1  0
  9 45  1  0
 13 46  1  0
 17 47  1  0
 20 48  1  0
 20 49  1  0
 20 50  1  0
 21 51  1  0
 22 52  1  0
 23 53  1  0
 24 54  1  0
 27 55  1  0
 28 56  1  0
 32 57  1  0
 33 58  1  0
 33 59  1  0
 34 60  1  0
 34 61  1  0
 36 62  1  0
 36 63  1  0
 36 64  1  0
 37 65  1  0
 37 66  1  0
 37 67  1  0
M  END
>  <UniqueID>  (26) 
26

>  <SMILES>  (26) 
CNc1cc(-n2nc(C)c3c(-n4cnc(-c5cnn(C)c5)c4)ccnc32)ccc1C(=O)NCCN(C)C

>  <Energy>  (26) 
188.11940105001764

>  <Genealogy>  (26) 
CNc1cc(-n2nc(C)c3c(-n4cnc(-c5cnn(C)c5)c4)ccnc32)ccc1C(=O)NCCN(C)C (3D coordinates assigned)
CNc1cc(-n2nc(C)c3c(-n4cnc(-c5cnn(C)c5)c4)ccnc32)ccc1C(=O)NCCN(C)C (optimized conformer: 188.11940105001764 kcal/mol)

>  <smiles>  (26) 
CNc1cc(-n2nc(C)c3c(-n4cnc(-c5cnn(C)c5)c4)ccnc32)ccc1C(=O)NCCN(C)C

>  <score_type>  (26) 
oracle

>  <origin>  (26) 
adg

>  <m_score__min__energy>  (26) 
-8.6999999999999993

>  <m_primary>  (26) 
energy

$$$$
26:0
     RDKit          3D

 53 55  0  0  0  0  0  0  0  0999 V2000
   56.6710   23.1150   43.3880 C   0  0  0  0  0  0  0  0  0  0  0  0
   57.4150   24.2030   44.1680 C   0  0  0  0  0  0  0  0  0  0  0  0
   57.0190   25.5620   43.7590 N   0  0  0  0  0  0  0  0  0  0  0  0
   58.1590   26.3450   43.2500 C   0  0  0  0  0  0  0  0  0  0  0  0
   57.8520   27.8480   43.2630 C   0  0  0  0  0  0  0  0  0  0  0  0
   57.2160   28.2360   44.5210 N   0  0  0  0  0  0  0  0  0  0  0  0
   57.8030   29.1850   45.4290 C   0  0  0  0  0  0  0  0  0  0  0  0
   58.2650   28.7500   46.6800 C   0  0  0  0  0  0  0  0  0  0  0  0
   58.8810   29.6340   47.5600 C   0  0  0  0  0  0  0  0  0  0  0  0
   59.0560   30.9820   47.2150 C   0  0  0  0  0  0  0  0  0  0  0  0
   58.5930   31.4470   45.9650 C   0  0  0  0  0  0  0  0  0  0  0  0
   58.7550   32.8050   45.5990 C   0  0  0  0  0  0  0  0  0  0  0  0
   58.2770   33.2510   44.3570 C   0  0  0  0  0  0  0  0  0  0  0  0
   57.6390   32.3700   43.4880 C   0  0  0  0  0  0  0  0  0  0  0  0
   57.4760   31.0310   43.8350 C   0  0  0  0  0  0  0  0  0  0  0  0
   57.9600   30.5440   45.0650 C   0  0  0  0  0  0  0  0  0  0  0  0
   59.4220   33.7510   46.5230 C   0  0  0  0  0  0  0  0  0  0  0  0
   59.5970   34.9520   46.1750 O   0  0  0  0  0  0  0  0  0  0  0  0
   59.8760   33.3010   47.8110 N   0  0  0  0  0  0  0  0  0  0  0  0
   60.5960   34.2160   48.7110 C   0  0  0  0  0  0  0  0  0  0  0  0
   62.1160   33.9970   48.5750 C   0  0  0  0  0  0  0  0  0  0  0  0
   62.5110   33.1220   47.4490 N   0  0  0  0  0  0  0  0  0  0  0  0
   63.2090   33.8450   46.3750 C   0  0  0  0  0  0  0  0  0  0  0  0
   63.2740   31.9400   47.8810 C   0  0  0  0  0  0  0  0  0  0  0  0
   59.7220   31.9120   48.1580 C   0  0  0  0  0  0  0  0  0  0  0  0
   60.1590   31.4830   49.2620 O   0  0  0  0  0  0  0  0  0  0  0  0
   56.1947   22.4185   44.0938 H   0  0  0  0  0  0  0  0  0  0  0  0
   55.9006   23.5795   42.7550 H   0  0  0  0  0  0  0  0  0  0  0  0
   57.3833   22.5655   42.7550 H   0  0  0  0  0  0  0  0  0  0  0  0
   57.1980   24.0798   45.2393 H   0  0  0  0  0  0  0  0  0  0  0  0
   58.4887   24.0902   43.9570 H   0  0  0  0  0  0  0  0  0  0  0  0
   56.2670   25.5060   43.0310 H   0  0  0  0  0  0  0  0  0  0  0  0
   56.6240   26.0450   44.5990 H   0  0  0  0  0  0  0  0  0  0  0  0
   59.0373   26.1530   43.8839 H   0  0  0  0  0  0  0  0  0  0  0  0
   58.3547   26.0392   42.2116 H   0  0  0  0  0  0  0  0  0  0  0  0
   58.7908   28.4091   43.1452 H   0  0  0  0  0  0  0  0  0  0  0  0
   57.1644   28.0751   42.4350 H   0  0  0  0  0  0  0  0  0  0  0  0
   56.2350   27.9180   44.6940 H   0  0  0  0  0  0  0  0  0  0  0  0
   58.1386   27.6962   46.9689 H   0  0  0  0  0  0  0  0  0  0  0  0
   59.2345   29.2719   48.5367 H   0  0  0  0  0  0  0  0  0  0  0  0
   58.4074   34.3043   44.0681 H   0  0  0  0  0  0  0  0  0  0  0  0
   57.2612   32.7338   42.5211 H   0  0  0  0  0  0  0  0  0  0  0  0
   56.9643   30.3471   43.1418 H   0  0  0  0  0  0  0  0  0  0  0  0
   60.3520   35.2554   48.4460 H   0  0  0  0  0  0  0  0  0  0  0  0
   60.2926   34.0162   49.7493 H   0  0  0  0  0  0  0  0  0  0  0  0
   62.5931   34.9778   48.4319 H   0  0  0  0  0  0  0  0  0  0  0  0
   62.4429   33.4902   49.4949 H   0  0  0  0  0  0  0  0  0  0  0  0
   63.9090   34.5700   46.8159 H   0  0  0  0  0  0  0  0  0  0  0  0
   63.7662   33.1290   45.7530 H   0  0  0  0  0  0  0  0  0  0  0  0
   62.4739   34.3766   45.7530 H   0  0  0  0  0  0  0  0  0  0  0  0
   63.2990   31.9013   48.9800 H   0  0  0  0  0  0  0  0  0  0  0  0
   62.7921   31.0305   47.4929 H   0  0  0  0  0  0  0  0  0  0  0  0
   64.3012   32.0047   47.4929 H   0  0  0  0  0  0  0  0  0  0  0  0
  1  2  1  0
  2  3  1  0
  3  4  1  0
  4  5  1  0
  5  6  1  0
  6  7  1  0
  7  8  2  0
  8  9  1  0
  9 10  2  0
 10 11  1  0
 11 12  2  0
 12 13  1  0
 13 14  2  0
 14 15  1  0
 15 16  2  0
 12 17  1  0
 17 18  2  0
 17 19  1  0
 19 20  1  0
 20 21  1  0
 21 22  1  0
 22 23  1  0
 22 24  1  0
 19 25  1  0
 25 26  2  0
 16  7  1  0
 25 10  1  0
 16 11  1  0
  1 27  1  0
  1 28  1  0
  1 29  1  0
  2 30  1  0
  2 31  1  0
  3 32  1  0
  3 33  1  0
  4 34  1  0
  4 35  1  0
  5 36  1  0
  5 37  1  0
  6 38  1  0
  8 39  1  0
  9 40  1  0
 13 41  1  0
 14 42  1  0
 15 43  1  0
 20 44  1  0
 20 45  1  0
 21 46  1  0
 21 47  1  0
 23 48  1  0
 23 49  1  0
 23 50  1  0
 24 51  1  0
 24 52  1  0
 24 53  1  0
M  CHG  1   3   1
M  END
>  <UniqueID>  (27) 
27

>  <SMILES>  (27) 
CC[NH2+]CCNc1ccc2c3c(cccc13)C(=O)N(CCN(C)C)C2=O

>  <Energy>  (27) 
61.50300217675209

>  <Genealogy>  (27) 
CC[NH2+]CCNc1ccc2c3c(cccc13)C(=O)N(CCN(C)C)C2=O (protonated)
CC[NH2+]CCNc1ccc2c3c(cccc13)C(=O)N(CCN(C)C)C2=O (3D coordinates assigned)
CC[NH2+]CCNc1ccc2c3c(cccc13)C(=O)N(CCN(C)C)C2=O (nonaromatic ring conformer: 61.50300217675209 kcal/mol)

>  <smiles>  (27) 
CCNCCNc1ccc2c3c(cccc13)C(=O)N(CCN(C)C)C2=O

>  <score_type>  (27) 
oracle

>  <origin>  (27) 
adg

>  <m_score__min__energy>  (27) 
-6.1900000000000004

>  <m_primary>  (27) 
energy

$$$$
27:0
     RDKit          3D

 54 55  0  0  0  0  0  0  0  0999 V2000
   61.2020   34.1700   49.8250 C   0  0  0  0  0  0  0  0  0  0  0  0
   62.6930   34.5030   49.7940 C   0  0  0  0  0  0  0  0  0  0  0  0
   63.5350   33.2820   49.7860 N   0  0  0  0  0  0  0  0  0  0  0  0
   64.8390   33.4500   50.4750 C   0  0  0  0  0  0  0  0  0  0  0  0
   65.8700   32.3600   50.1450 C   0  0  0  0  0  0  0  0  0  0  0  0
   62.7870   32.1100   50.2940 C   0  0  0  0  0  0  0  0  0  0  0  0
   62.3700   31.1920   49.1390 C   0  0  0  0  0  0  0  0  0  0  0  0
   63.0040   31.6410   47.8850 N   0  0  0  0  0  0  0  0  0  0  0  0
   62.1880   32.6280   47.1590 C   0  0  0  0  0  0  0  0  0  0  0  0
   60.8750   32.0330   46.7350 C   0  0  0  0  0  0  0  0  0  0  0  0
   60.6540   30.6930   46.7750 N   0  0  0  0  0  0  0  0  0  0  0  0
   59.4550   30.5620   46.1820 C   0  0  0  0  0  0  0  0  0  0  0  0
   58.7770   29.3790   45.9070 C   0  0  0  0  0  0  0  0  0  0  0  0
   57.5510   29.4600   45.2010 C   0  0  0  0  0  0  0  0  0  0  0  0
   56.7950   28.2860   44.8620 N   0  0  0  0  0  0  0  0  0  0  0  0
   56.7900   26.8280   45.8040 S   0  0  0  0  0  0  0  0  0  0  0  0
   57.6540   25.5340   44.9390 C   0  0  0  0  0  0  0  0  0  0  0  0
   55.3680   26.3930   46.0180 O   0  0  0  0  0  0  0  0  0  0  0  0
   57.4260   27.0790   47.1420 O   0  0  0  0  0  0  0  0  0  0  0  0
   57.0530   30.7340   44.8190 C   0  0  0  0  0  0  0  0  0  0  0  0
   57.7710   31.9080   45.1100 C   0  0  0  0  0  0  0  0  0  0  0  0
   58.9770   31.7780   45.7970 C   0  0  0  0  0  0  0  0  0  0  0  0
   59.8620   32.7280   46.1450 N   0  0  0  0  0  0  0  0  0  0  0  0
   59.7910   34.1610   45.8400 C   0  0  0  0  0  0  0  0  0  0  0  0
   59.3090   34.9480   47.0540 C   0  0  0  0  0  0  0  0  0  0  0  0
   60.8648   34.0947   50.8693 H   0  0  0  0  0  0  0  0  0  0  0  0
   60.6382   34.9643   49.3140 H   0  0  0  0  0  0  0  0  0  0  0  0
   61.0297   33.2112   49.3140 H   0  0  0  0  0  0  0  0  0  0  0  0
   62.9074   35.0882   48.8876 H   0  0  0  0  0  0  0  0  0  0  0  0
   62.9324   35.0748   50.7027 H   0  0  0  0  0  0  0  0  0  0  0  0
   65.2605   34.4233   50.1834 H   0  0  0  0  0  0  0  0  0  0  0  0
   64.6380   33.3790   51.5542 H   0  0  0  0  0  0  0  0  0  0  0  0
   66.2692   31.9380   51.0791 H   0  0  0  0  0  0  0  0  0  0  0  0
   65.3870   31.5636   49.5598 H   0  0  0  0  0  0  0  0  0  0  0  0
   66.6920   32.7979   49.5598 H   0  0  0  0  0  0  0  0  0  0  0  0
   63.4265   31.5472   50.9899 H   0  0  0  0  0  0  0  0  0  0  0  0
   61.8819   32.4639   50.8093 H   0  0  0  0  0  0  0  0  0  0  0  0
   62.6871   30.1620   49.3593 H   0  0  0  0  0  0  0  0  0  0  0  0
   61.2766   31.2287   49.0247 H   0  0  0  0  0  0  0  0  0  0  0  0
   63.9090   32.1100   48.1260 H   0  0  0  0  0  0  0  0  0  0  0  0
   61.9972   33.4898   47.8154 H   0  0  0  0  0  0  0  0  0  0  0  0
   62.7370   32.9432   46.2594 H   0  0  0  0  0  0  0  0  0  0  0  0
   59.1812   28.4078   46.2286 H   0  0  0  0  0  0  0  0  0  0  0  0
   56.3080   28.2510   43.9390 H   0  0  0  0  0  0  0  0  0  0  0  0
   58.1118   24.8484   45.6673 H   0  0  0  0  0  0  0  0  0  0  0  0
   56.9451   24.9783   44.3076 H   0  0  0  0  0  0  0  0  0  0  0  0
   58.4390   25.9758   44.3076 H   0  0  0  0  0  0  0  0  0  0  0  0
   56.0922   30.8036   44.2880 H   0  0  0  0  0  0  0  0  0  0  0  0
   57.3936   32.8954   44.8057 H   0  0  0  0  0  0  0  0  0  0  0  0
   60.7905   34.5186   45.5516 H   0  0  0  0  0  0  0  0  0  0  0  0
   59.0786   34.3119   45.0155 H   0  0  0  0  0  0  0  0  0  0  0  0
   59.6243   34.4332   47.9735 H   0  0  0  0  0  0  0  0  0  0  0  0
   59.7434   35.9583   47.0321 H   0  0  0  0  0  0  0  0  0  0  0  0
   58.2116   35.0202   47.0321 H   0  0  0  0  0  0  0  0  0  0  0  0
  1  2  1  0
  2  3  1  0
  3  4  1  0
  4  5  1  0
  3  6  1  0
  6  7  1  0
  7  8  1  0
  8  9  1  0
  9 10  1  0
 10 11  2  0
 11 12  1  0
 12 13  2  0
 13 14  1  0
 14 15  1  0
 15 16  1  0
 16 17  1  0
 16 18  2  0
 16 19  2  0
 14 20  2  0
 20 21  1  0
 21 22  2  0
 22 23  1  0
 23 24  1  0
 24 25  1  0
 23 10  1  0
 22 12  1  0
  1 26  1  0
  1 27  1  0
  1 28  1  0
  2 29  1  0
  2 30  1  0
  4 31  1  0
  4 32  1  0
  5 33  1  0
  5 34  1  0
  5 35  1  0
  6 36  1  0
  6 37  1  0
  7 38  1  0
  7 39  1  0
  8 40  1  0
  9 41  1  0
  9 42  1  0
 13 43  1  0
 15 44  1  0
 17 45  1  0
 17 46  1  0
 17 47  1  0
 20 48  1  0
 21 49  1  0
 24 50  1  0
 24 51  1  0
 25 52  1  0
 25 53  1  0
 25 54  1  0
M  END
>  <UniqueID>  (28) 
28

>  <SMILES>  (28) 
CCN(CC)CCNCc1nc2cc(NS(C)(=O)=O)ccc2n1CC

>  <Energy>  (28) 
81.69003346044893

>  <Genealogy>  (28) 
CCN(CC)CCNCc1nc2cc(NS(C)(=O)=O)ccc2n1CC (3D coordinates assigned)
CCN(CC)CCNCc1nc2cc(NS(C)(=O)=O)ccc2n1CC (optimized conformer: 81.69003346044893 kcal/mol)

>  <smiles>  (28) 
CCN(CC)CCNCc1nc2cc(NS(C)(=O)=O)ccc2n1CC

>  <score_type>  (28) 
oracle

>  <origin>  (28) 
adg

>  <m_score__min__energy>  (28) 
-7.2999999999999998

>  <m_primary>  (28) 
energy

$$$$
28:0
     RDKit          3D

 46 48  0  0  0  0  0  0  0  0999 V2000
   56.6100   26.3570   46.0260 C   0  0  0  0  0  0  0  0  0  0  0  0
   58.0950   26.5500   45.7360 C   0  0  0  0  0  0  0  0  0  0  0  0
   58.5090   27.9240   46.0660 N   0  0  0  0  0  0  0  0  0  0  0  0
   59.4720   28.1330   47.1560 C   0  0  0  0  0  0  0  0  0  0  0  0
   57.9650   29.0420   45.3210 C   0  0  0  0  0  0  0  0  0  0  0  0
   57.9850   30.3530   45.8320 C   0  0  0  0  0  0  0  0  0  0  0  0
   57.4320   31.3900   45.0680 C   0  0  0  0  0  0  0  0  0  0  0  0
   57.4280   32.8120   45.5840 C   0  0  2  0  0  0  0  0  0  0  0  0
   57.9420   33.8180   44.5470 C   0  0  0  0  0  0  0  0  0  0  0  0
   59.0330   34.6110   45.2570 C   0  0  0  0  0  0  0  0  0  0  0  0
   58.8630   34.3520   46.6880 N   0  0  0  0  0  0  0  0  0  0  0  0
   60.0390   34.6550   47.5340 C   0  0  0  0  0  0  0  0  0  0  0  0
   61.1350   33.6060   47.5080 C   0  0  0  0  0  0  0  0  0  0  0  0
   60.9970   32.4130   48.2410 C   0  0  0  0  0  0  0  0  0  0  0  0
   62.0150   31.4540   48.2270 C   0  0  0  0  0  0  0  0  0  0  0  0
   63.1850   31.6840   47.4990 C   0  0  0  0  0  0  0  0  0  0  0  0
   63.3420   32.8770   46.7890 C   0  0  0  0  0  0  0  0  0  0  0  0
   62.3260   33.8390   46.7990 C   0  0  0  0  0  0  0  0  0  0  0  0
   58.3390   32.9920   46.7970 C   0  0  0  0  0  0  0  0  0  0  0  0
   56.8960   31.1080   43.8500 N   0  0  0  0  0  0  0  0  0  0  0  0
   56.8830   29.8430   43.3630 C   0  0  0  0  0  0  0  0  0  0  0  0
   57.4090   28.8280   44.0950 N   0  0  0  0  0  0  0  0  0  0  0  0
   56.4486   26.3360   47.1139 H   0  0  0  0  0  0  0  0  0  0  0  0
   56.0395   27.1886   45.5866 H   0  0  0  0  0  0  0  0  0  0  0  0
   56.2710   25.4072   45.5866 H   0  0  0  0  0  0  0  0  0  0  0  0
   58.6777   25.8406   46.3421 H   0  0  0  0  0  0  0  0  0  0  0  0
   58.2754   26.3707   44.6658 H   0  0  0  0  0  0  0  0  0  0  0  0
   58.9605   28.0220   48.1235 H   0  0  0  0  0  0  0  0  0  0  0  0
   60.2787   27.3890   47.0802 H   0  0  0  0  0  0  0  0  0  0  0  0
   59.8977   29.1444   47.0802 H   0  0  0  0  0  0  0  0  0  0  0  0
   58.4283   30.5611   46.8170 H   0  0  0  0  0  0  0  0  0  0  0  0
   56.3738   32.9995   45.8360 H   0  0  0  0  0  0  0  0  0  0  0  0
   58.3550   33.2927   43.6732 H   0  0  0  0  0  0  0  0  0  0  0  0
   57.1375   34.4706   44.1770 H   0  0  0  0  0  0  0  0  0  0  0  0
   60.0261   34.2749   44.9243 H   0  0  0  0  0  0  0  0  0  0  0  0
   58.9570   35.6853   45.0330 H   0  0  0  0  0  0  0  0  0  0  0  0
   60.4698   35.6072   47.1910 H   0  0  0  0  0  0  0  0  0  0  0  0
   59.6715   34.6900   48.5702 H   0  0  0  0  0  0  0  0  0  0  0  0
   60.0841   32.2337   48.8279 H   0  0  0  0  0  0  0  0  0  0  0  0
   61.8942   30.5169   48.7903 H   0  0  0  0  0  0  0  0  0  0  0  0
   63.9822   30.9262   47.4848 H   0  0  0  0  0  0  0  0  0  0  0  0
   64.2660   33.0603   46.2211 H   0  0  0  0  0  0  0  0  0  0  0  0
   62.4600   34.7823   46.2493 H   0  0  0  0  0  0  0  0  0  0  0  0
   59.1598   32.2600   46.7743 H   0  0  0  0  0  0  0  0  0  0  0  0
   57.7986   32.8355   47.7423 H   0  0  0  0  0  0  0  0  0  0  0  0
   56.4461   29.6389   42.3743 H   0  0  0  0  0  0  0  0  0  0  0  0
  1  2  1  0
  2  3  1  0
  3  4  1  0
  3  5  1  0
  5  6  2  0
  6  7  1  0
  7  8  1  0
  8  9  1  0
  9 10  1  0
 10 11  1  0
 11 12  1  0
 12 13  1  0
 13 14  2  0
 14 15  1  0
 15 16  2  0
 16 17  1  0
 17 18  2  0
 11 19  1  0
  7 20  2  0
 20 21  1  0
 21 22  2  0
 22  5  1  0
 19  8  1  0
 18 13  1  0
  1 23  1  0
  1 24  1  0
  1 25  1  0
  2 26  1  0
  2 27  1  0
  4 28  1  0
  4 29  1  0
  4 30  1  0
  6 31  1  0
  8 32  1  1
  9 33  1  0
  9 34  1  0
 10 35  1  0
 10 36  1  0
 12 37  1  0
 12 38  1  0
 14 39  1  0
 15 40  1  0
 16 41  1  0
 17 42  1  0
 18 43  1  0
 19 44  1  0
 19 45  1  0
 21 46  1  0
M  END
>  <UniqueID>  (29) 
29

>  <SMILES>  (29) 
CCN(C)c1cc([C@@H]2CCN(Cc3ccccc3)C2)ncn1

>  <Energy>  (29) 
53.44868048291028

>  <Genealogy>  (29) 
CCN(C)c1cc([C@@H]2CCN(Cc3ccccc3)C2)ncn1 (chirality)
CCN(C)c1cc([C@@H]2CCN(Cc3ccccc3)C2)ncn1 (3D coordinates assigned)
CCN(C)c1cc([C@@H]2CCN(Cc3ccccc3)C2)ncn1 (nonaromatic ring conformer: 53.44868048291028 kcal/mol)

>  <smiles>  (29) 
CCN(C)c1cc(C2CCN(Cc3ccccc3)C2)ncn1

>  <score_type>  (29) 
oracle

>  <origin>  (29) 
adg

>  <m_score__min__energy>  (29) 
-7.8099999999999996

>  <m_primary>  (29) 
energy

$$$$
29:0
     RDKit          3D

 41 43  0  0  0  0  0  0  0  0999 V2000
   55.8010   30.0800   43.6290 C   0  0  0  0  0  0  0  0  0  0  0  0
   55.5060   29.3620   44.8710 N   0  0  0  0  0  0  0  0  0  0  0  0
   56.6500   28.5250   45.2550 C   0  0  0  0  0  0  0  0  0  0  0  0
   57.6430   28.3800   44.0890 C   0  0  0  0  0  0  0  0  0  0  0  0
   58.7080   29.4050   44.0970 N   0  0  0  0  0  0  0  0  0  0  0  0
   58.8230   30.0660   45.3940 C   0  0  0  0  0  0  0  0  0  0  0  0
   58.4850   31.4440   45.5230 C   0  0  0  0  0  0  0  0  0  0  0  0
   58.0440   32.2120   44.4140 C   0  0  0  0  0  0  0  0  0  0  0  0
   57.7840   33.5740   44.5370 C   0  0  0  0  0  0  0  0  0  0  0  0
   57.9640   34.2110   45.7550 C   0  0  0  0  0  0  0  0  0  0  0  0
   58.3660   33.4800   46.8680 C   0  0  0  0  0  0  0  0  0  0  0  0
   58.5910   32.0820   46.7910 C   0  0  0  0  0  0  0  0  0  0  0  0
   58.9180   31.3500   47.9120 N   0  0  0  0  0  0  0  0  0  0  0  0
   58.7030   31.9300   49.2590 C   0  0  0  0  0  0  0  0  0  0  0  0
   59.4110   30.0690   47.7860 C   0  0  0  0  0  0  0  0  0  0  0  0
   60.0260   29.4140   48.8860 C   0  0  0  0  0  0  0  0  0  0  0  0
   60.4580   28.0950   48.7920 C   0  0  0  0  0  0  0  0  0  0  0  0
   60.2970   27.3970   47.6070 C   0  0  0  0  0  0  0  0  0  0  0  0
   59.7430   28.0230   46.4940 C   0  0  0  0  0  0  0  0  0  0  0  0
   59.3220   29.3780   46.5410 C   0  0  0  0  0  0  0  0  0  0  0  0
   56.2091   31.0732   43.8677 H   0  0  0  0  0  0  0  0  0  0  0  0
   56.5385   29.5117   43.0432 H   0  0  0  0  0  0  0  0  0  0  0  0
   54.8770   30.1943   43.0432 H   0  0  0  0  0  0  0  0  0  0  0  0
   55.3460   30.0830   45.6100 H   0  0  0  0  0  0  0  0  0  0  0  0
   57.1641   28.9887   46.1098 H   0  0  0  0  0  0  0  0  0  0  0  0
   56.2781   27.5256   45.5249 H   0  0  0  0  0  0  0  0  0  0  0  0
   58.1132   27.3875   44.1522 H   0  0  0  0  0  0  0  0  0  0  0  0
   57.0727   28.5100   43.1574 H   0  0  0  0  0  0  0  0  0  0  0  0
   58.5020   30.1180   43.3630 H   0  0  0  0  0  0  0  0  0  0  0  0
   59.6020   29.0100   43.7470 H   0  0  0  0  0  0  0  0  0  0  0  0
   57.9051   31.7219   43.4391 H   0  0  0  0  0  0  0  0  0  0  0  0
   57.4347   34.1465   43.6651 H   0  0  0  0  0  0  0  0  0  0  0  0
   57.7891   35.2936   45.8412 H   0  0  0  0  0  0  0  0  0  0  0  0
   58.5124   33.9970   47.8278 H   0  0  0  0  0  0  0  0  0  0  0  0
   58.9774   31.1898   50.0250 H   0  0  0  0  0  0  0  0  0  0  0  0
   59.3282   32.8275   49.3758 H   0  0  0  0  0  0  0  0  0  0  0  0
   57.6439   32.2032   49.3758 H   0  0  0  0  0  0  0  0  0  0  0  0
   60.1634   29.9604   49.8308 H   0  0  0  0  0  0  0  0  0  0  0  0
   60.9273   27.6067   49.6588 H   0  0  0  0  0  0  0  0  0  0  0  0
   60.6081   26.3437   47.5449 H   0  0  0  0  0  0  0  0  0  0  0  0
   59.6290   27.4559   45.5584 H   0  0  0  0  0  0  0  0  0  0  0  0
  1  2  1  0
  2  3  1  0
  3  4  1  0
  4  5  1  0
  5  6  1  0
  6  7  2  0
  7  8  1  0
  8  9  2  0
  9 10  1  0
 10 11  2  0
 11 12  1  0
 12 13  2  0
 13 14  1  0
 13 15  1  0
 15 16  2  0
 16 17  1  0
 17 18  2  0
 18 19  1  0
 19 20  2  0
 20  6  1  0
 12  7  1  0
 20 15  1  0
  1 21  1  0
  1 22  1  0
  1 23  1  0
  2 24  1  0
  3 25  1  0
  3 26  1  0
  4 27  1  0
  4 28  1  0
  5 29  1  0
  5 30  1  0
  8 31  1  0
  9 32  1  0
 10 33  1  0
 11 34  1  0
 14 35  1  0
 14 36  1  0
 14 37  1  0
 16 38  1  0
 17 39  1  0
 18 40  1  0
 19 41  1  0
M  CHG  2   5   1  13   1
M  END
>  <UniqueID>  (30) 
30

>  <SMILES>  (30) 
CNCC[NH2+]c1c2ccccc2[n+](C)c2ccccc12

>  <Energy>  (30) 
71.2310963724481

>  <Genealogy>  (30) 
CNCC[NH2+]c1c2ccccc2[n+](C)c2ccccc12 (protonated)
CNCC[NH2+]c1c2ccccc2[n+](C)c2ccccc12 (3D coordinates assigned)
CNCC[NH2+]c1c2ccccc2[n+](C)c2ccccc12 (optimized conformer: 71.2310963724481 kcal/mol)

>  <smiles>  (30) 
CNCCNc1c2ccccc2[n+](C)c2ccccc12

>  <score_type>  (30) 
oracle

>  <origin>  (30) 
adg

>  <m_score__min__energy>  (30) 
-4.6600000000000001

>  <m_primary>  (30) 
energy

$$$$
30:0
     RDKit          3D

 57 59  0  0  0  0  0  0  0  0999 V2000
   59.4060   29.2520   45.3390 C   0  0  0  0  0  0  0  0  0  0  0  0
   57.9780   29.4370   45.8520 C   0  0  0  0  0  0  0  0  0  0  0  0
   57.2640   30.5100   45.1240 N   0  0  0  0  0  0  0  0  0  0  0  0
   56.0370   30.0130   44.4580 C   0  0  0  0  0  0  0  0  0  0  0  0
   56.3340   29.7410   42.9830 C   0  0  0  0  0  0  0  0  0  0  0  0
   58.1150   31.3210   44.2200 C   0  0  0  0  0  0  0  0  0  0  0  0
   57.9040   32.8470   44.3430 C   0  0  0  0  0  0  0  0  0  0  0  0
   56.7720   33.1340   45.2350 N   0  0  0  0  0  0  0  0  0  0  0  0
   57.2180   33.5050   46.5860 C   0  0  0  0  0  0  0  0  0  0  0  0
   58.7480   33.4450   46.6940 C   0  0  0  0  0  0  0  0  0  0  0  0
   59.2100   32.1120   47.0950 N   0  0  0  0  0  0  0  0  0  0  0  0
   60.2320   31.9240   48.0920 C   0  0  0  0  0  0  0  0  0  0  0  0
   59.9240   31.2890   49.3080 C   0  0  0  0  0  0  0  0  0  0  0  0
   58.5900   30.9640   49.6430 C   0  0  0  0  0  0  0  0  0  0  0  0
   58.2850   30.3730   50.8660 C   0  0  0  0  0  0  0  0  0  0  0  0
   59.2980   30.1000   51.7780 C   0  0  0  0  0  0  0  0  0  0  0  0
   60.6250   30.3980   51.4660 C   0  0  0  0  0  0  0  0  0  0  0  0
   60.9710   30.9710   50.2140 C   0  0  0  0  0  0  0  0  0  0  0  0
   62.2850   31.2320   49.8720 N   0  0  0  0  0  0  0  0  0  0  0  0
   63.3900   30.6280   50.6500 C   0  0  0  0  0  0  0  0  0  0  0  0
   62.5660   32.0540   48.7960 C   0  0  0  0  0  0  0  0  0  0  0  0
   63.8620   32.5950   48.5880 C   0  0  0  0  0  0  0  0  0  0  0  0
   64.1290   33.4230   47.4960 C   0  0  0  0  0  0  0  0  0  0  0  0
   63.1180   33.7510   46.6010 C   0  0  0  0  0  0  0  0  0  0  0  0
   61.8300   33.2550   46.7910 C   0  0  0  0  0  0  0  0  0  0  0  0
   61.5380   32.4000   47.8780 C   0  0  0  0  0  0  0  0  0  0  0  0
   60.0937   29.1629   46.1929 H   0  0  0  0  0  0  0  0  0  0  0  0
   59.4606   28.3393   44.7275 H   0  0  0  0  0  0  0  0  0  0  0  0
   59.6913   30.1207   44.7275 H   0  0  0  0  0  0  0  0  0  0  0  0
   57.4285   28.4929   45.7223 H   0  0  0  0  0  0  0  0  0  0  0  0
   58.0315   29.7225   46.9130 H   0  0  0  0  0  0  0  0  0  0  0  0
   55.7071   29.0827   44.9435 H   0  0  0  0  0  0  0  0  0  0  0  0
   55.2428   30.7697   44.5393 H   0  0  0  0  0  0  0  0  0  0  0  0
   57.1430   29.0001   42.9025 H   0  0  0  0  0  0  0  0  0  0  0  0
   55.4297   29.3513   42.4927 H   0  0  0  0  0  0  0  0  0  0  0  0
   56.6429   30.6760   42.4927 H   0  0  0  0  0  0  0  0  0  0  0  0
   59.1680   31.0998   44.4485 H   0  0  0  0  0  0  0  0  0  0  0  0
   57.8323   31.0468   43.1929 H   0  0  0  0  0  0  0  0  0  0  0  0
   58.8150   33.3076   44.7528 H   0  0  0  0  0  0  0  0  0  0  0  0
   57.6888   33.2604   43.3466 H   0  0  0  0  0  0  0  0  0  0  0  0
   56.1950   32.2650   45.3190 H   0  0  0  0  0  0  0  0  0  0  0  0
   56.8812   34.5284   46.8080 H   0  0  0  0  0  0  0  0  0  0  0  0
   56.7869   32.7937   47.3059 H   0  0  0  0  0  0  0  0  0  0  0  0
   59.1848   33.6947   45.7158 H   0  0  0  0  0  0  0  0  0  0  0  0
   59.0667   34.1647   47.4624 H   0  0  0  0  0  0  0  0  0  0  0  0
   58.8600   31.2800   46.5670 H   0  0  0  0  0  0  0  0  0  0  0  0
   57.7824   31.1808   48.9283 H   0  0  0  0  0  0  0  0  0  0  0  0
   57.2423   30.1220   51.1107 H   0  0  0  0  0  0  0  0  0  0  0  0
   59.0524   29.6471   52.7499 H   0  0  0  0  0  0  0  0  0  0  0  0
   61.4151   30.1857   52.2013 H   0  0  0  0  0  0  0  0  0  0  0  0
   63.1854   30.7398   51.7250 H   0  0  0  0  0  0  0  0  0  0  0  0
   63.4721   29.5596   50.4016 H   0  0  0  0  0  0  0  0  0  0  0  0
   64.3336   31.1358   50.4016 H   0  0  0  0  0  0  0  0  0  0  0  0
   64.6681   32.3582   49.2980 H   0  0  0  0  0  0  0  0  0  0  0  0
   65.1444   33.8175   47.3435 H   0  0  0  0  0  0  0  0  0  0  0  0
   63.3347   34.4028   45.7418 H   0  0  0  0  0  0  0  0  0  0  0  0
   61.0313   33.5319   46.0871 H   0  0  0  0  0  0  0  0  0  0  0  0
  1  2  1  0
  2  3  1  0
  3  4  1  0
  4  5  1  0
  3  6  1  0
  6  7  1  0
  7  8  1  0
  8  9  1  0
  9 10  1  0
 10 11  1  0
 11 12  1  0
 12 13  2  0
 13 14  1  0
 14 15  2  0
 15 16  1  0
 16 17  2  0
 17 18  1  0
 18 19  2  0
 19 20  1  0
 19 21  1  0
 21 22  2  0
 22 23  1  0
 23 24  2  0
 24 25  1  0
 25 26  2  0
 26 12  1  0
 18 13  1  0
 26 21  1  0
  1 27  1  0
  1 28  1  0
  1 29  1  0
  2 30  1  0
  2 31  1  0
  4 32  1  0
  4 33  1  0
  5 34  1  0
  5 35  1  0
  5 36  1  0
  6 37  1  0
  6 38  1  0
  7 39  1  0
  7 40  1  0
  8 41  1  0
  9 42  1  0
  9 43  1  0
 10 44  1  0
 10 45  1  0
 11 46  1  0
 14 47  1  0
 15 48  1  0
 16 49  1  0
 17 50  1  0
 20 51  1  0
 20 52  1  0
 20 53  1  0
 22 54  1  0
 23 55  1  0
 24 56  1  0
 25 57  1  0
M  CHG  1  19   1
M  END
>  <UniqueID>  (31) 
31

>  <SMILES>  (31) 
CCN(CC)CCNCCNc1c2ccccc2[n+](C)c2ccccc12

>  <Energy>  (31) 
83.91113412945361

>  <Genealogy>  (31) 
CCN(CC)CCNCCNc1c2ccccc2[n+](C)c2ccccc12 (3D coordinates assigned)
CCN(CC)CCNCCNc1c2ccccc2[n+](C)c2ccccc12 (optimized conformer: 83.91113412945361 kcal/mol)

>  <smiles>  (31) 
CCN(CC)CCNCCNc1c2ccccc2[n+](C)c2ccccc12

>  <score_type>  (31) 
oracle

>  <origin>  (31) 
adg

>  <m_score__min__energy>  (31) 
-5.29

>  <m_primary>  (31) 
energy

$$$$
31:0
     RDKit          3D

 52 54  0  0  0  0  0  0  0  0999 V2000
   65.6880   32.4560   50.1110 C   0  0  0  0  0  0  0  0  0  0  0  0
   64.5630   33.1150   49.2940 C   0  0  0  0  0  0  0  0  0  0  0  0
   63.6230   32.1820   48.6040 N   0  0  0  0  0  0  0  0  0  0  0  0
   63.4980   32.3700   47.1340 C   0  0  0  0  0  0  0  0  0  0  0  0
   63.3750   33.8480   46.7470 C   0  0  0  0  0  0  0  0  0  0  0  0
   62.3010   32.0750   49.2750 C   0  0  0  0  0  0  0  0  0  0  0  0
   61.4270   30.9030   48.7940 C   0  0  0  0  0  0  0  0  0  0  0  0
   60.0270   31.3150   48.6930 N   0  0  0  0  0  0  0  0  0  0  0  0
   59.3050   31.2430   47.4520 C   0  0  0  0  0  0  0  0  0  0  0  0
   59.2640   32.3560   46.5980 C   0  0  0  0  0  0  0  0  0  0  0  0
   59.9930   33.5260   46.8990 C   0  0  0  0  0  0  0  0  0  0  0  0
   59.9780   34.6160   46.0310 C   0  0  0  0  0  0  0  0  0  0  0  0
   59.2530   34.5540   44.8480 C   0  0  0  0  0  0  0  0  0  0  0  0
   58.5130   33.4130   44.5370 C   0  0  0  0  0  0  0  0  0  0  0  0
   58.4730   32.3030   45.4190 C   0  0  0  0  0  0  0  0  0  0  0  0
   57.7020   31.1870   45.1520 N   0  0  0  0  0  0  0  0  0  0  0  0
   56.6560   31.2430   44.1070 C   0  0  0  0  0  0  0  0  0  0  0  0
   57.8950   30.0240   45.8770 C   0  0  0  0  0  0  0  0  0  0  0  0
   57.3430   28.7850   45.4600 C   0  0  0  0  0  0  0  0  0  0  0  0
   57.5170   27.6130   46.2140 C   0  0  0  0  0  0  0  0  0  0  0  0
   56.9370   26.3700   45.7750 N   0  0  0  0  0  0  0  0  0  0  0  0
   57.6300   25.5200   45.1770 O   0  0  0  0  0  0  0  0  0  0  0  0
   55.6100   26.0920   46.0130 O   0  0  0  0  0  0  0  0  0  0  0  0
   58.2740   27.6680   47.3900 C   0  0  0  0  0  0  0  0  0  0  0  0
   58.8600   28.8630   47.7990 C   0  0  0  0  0  0  0  0  0  0  0  0
   58.6830   30.0460   47.0570 C   0  0  0  0  0  0  0  0  0  0  0  0
   65.4809   32.5773   51.1845 H   0  0  0  0  0  0  0  0  0  0  0  0
   65.7397   31.3848   49.8663 H   0  0  0  0  0  0  0  0  0  0  0  0
   66.6476   32.9348   49.8663 H   0  0  0  0  0  0  0  0  0  0  0  0
   63.9729   33.7422   49.9784 H   0  0  0  0  0  0  0  0  0  0  0  0
   65.0671   33.6749   48.4925 H   0  0  0  0  0  0  0  0  0  0  0  0
   64.0380   31.2280   48.7350 H   0  0  0  0  0  0  0  0  0  0  0  0
   64.3896   31.9492   46.6461 H   0  0  0  0  0  0  0  0  0  0  0  0
   62.5818   31.8577   46.8050 H   0  0  0  0  0  0  0  0  0  0  0  0
   63.3239   34.4625   47.6579 H   0  0  0  0  0  0  0  0  0  0  0  0
   64.2515   34.1456   46.1527 H   0  0  0  0  0  0  0  0  0  0  0  0
   62.4614   33.9966   46.1527 H   0  0  0  0  0  0  0  0  0  0  0  0
   62.4738   31.9527   50.3544 H   0  0  0  0  0  0  0  0  0  0  0  0
   61.7513   32.9945   49.0254 H   0  0  0  0  0  0  0  0  0  0  0  0
   61.7787   30.5709   47.8060 H   0  0  0  0  0  0  0  0  0  0  0  0
   61.5040   30.0805   49.5204 H   0  0  0  0  0  0  0  0  0  0  0  0
   59.5210   31.6180   49.5550 H   0  0  0  0  0  0  0  0  0  0  0  0
   60.5792   33.5782   47.8284 H   0  0  0  0  0  0  0  0  0  0  0  0
   60.5411   35.5267   46.2831 H   0  0  0  0  0  0  0  0  0  0  0  0
   59.2623   35.4074   44.1540 H   0  0  0  0  0  0  0  0  0  0  0  0
   57.9512   33.3735   43.5921 H   0  0  0  0  0  0  0  0  0  0  0  0
   55.6654   31.2960   44.5822 H   0  0  0  0  0  0  0  0  0  0  0  0
   56.8105   32.1342   43.4809 H   0  0  0  0  0  0  0  0  0  0  0  0
   56.7145   30.3404   43.4809 H   0  0  0  0  0  0  0  0  0  0  0  0
   56.7656   28.7415   44.5247 H   0  0  0  0  0  0  0  0  0  0  0  0
   58.4071   26.7597   47.9961 H   0  0  0  0  0  0  0  0  0  0  0  0
   59.4696   28.8829   48.7144 H   0  0  0  0  0  0  0  0  0  0  0  0
  1  2  1  0
  2  3  1  0
  3  4  1  0
  4  5  1  0
  3  6  1  0
  6  7  1  0
  7  8  1  0
  8  9  1  0
  9 10  2  0
 10 11  1  0
 11 12  2  0
 12 13  1  0
 13 14  2  0
 14 15  1  0
 15 16  2  0
 16 17  1  0
 16 18  1  0
 18 19  2  0
 19 20  1  0
 20 21  1  0
 21 22  2  0
 21 23  1  0
 20 24  2  0
 24 25  1  0
 25 26  2  0
 26  9  1  0
 15 10  1  0
 26 18  1  0
  1 27  1  0
  1 28  1  0
  1 29  1  0
  2 30  1  0
  2 31  1  0
  3 32  1  0
  4 33  1  0
  4 34  1  0
  5 35  1  0
  5 36  1  0
  5 37  1  0
  6 38  1  0
  6 39  1  0
  7 40  1  0
  7 41  1  0
  8 42  1  0
 11 43  1  0
 12 44  1  0
 13 45  1  0
 14 46  1  0
 17 47  1  0
 17 48  1  0
 17 49  1  0
 19 50  1  0
 24 51  1  0
 25 52  1  0
M  CHG  4   3   1  16   1  21   1  23  -1
M  END
>  <UniqueID>  (32) 
32

>  <SMILES>  (32) 
CC[NH+](CC)CCNc1c2ccccc2[n+](C)c2cc([N+](=O)[O-])ccc12

>  <Energy>  (32) 
86.96790681096158

>  <Genealogy>  (32) 
CC[NH+](CC)CCNc1c2ccccc2[n+](C)c2cc([N+](=O)[O-])ccc12 (protonated)
CC[NH+](CC)CCNc1c2ccccc2[n+](C)c2cc([N+](=O)[O-])ccc12 (3D coordinates assigned)
CC[NH+](CC)CCNc1c2ccccc2[n+](C)c2cc([N+](=O)[O-])ccc12 (optimized conformer: 86.96790681096158 kcal/mol)

>  <smiles>  (32) 
CCN(CC)CCNc1c2ccccc2[n+](C)c2cc([N+](=O)[O-])ccc12

>  <score_type>  (32) 
oracle

>  <origin>  (32) 
adg

>  <m_score__min__energy>  (32) 
-4.9699999999999998

>  <m_primary>  (32) 
energy

$$$$
32:0
     RDKit          2D

 38 41  0  0  0  0  0  0  0  0999 V2000
    3.7156    7.2317    0.0000 C   0  0  0  0  0  0  0  0  0  0  0  0
    2.2484    6.9199    0.0000 O   0  0  0  0  0  0  0  0  0  0  0  0
    1.7849    5.4933    0.0000 C   0  0  0  0  0  0  0  0  0  0  0  0
    2.7886    4.3786    0.0000 C   0  0  0  0  0  0  0  0  0  0  0  0
    2.3250    2.9520    0.0000 C   0  0  0  0  0  0  0  0  0  0  0  0
    0.8578    2.6401    0.0000 C   0  0  0  0  0  0  0  0  0  0  0  0
    0.3943    1.2135    0.0000 N   0  0  0  0  0  0  0  0  0  0  0  0
    1.2760    0.0000    0.0000 N   0  0  0  0  0  0  0  0  0  0  0  0
    0.3943   -1.2135    0.0000 C   0  0  0  0  0  0  0  0  0  0  0  0
    0.8578   -2.6401    0.0000 C   0  0  0  0  0  0  0  0  0  0  0  0
   -1.0323   -0.7500    0.0000 C   0  0  0  0  0  0  0  0  0  0  0  0
   -2.3313   -1.5000    0.0000 C   0  0  0  0  0  0  0  0  0  0  0  0
   -3.4309   -2.5203    0.0000 C   0  0  0  0  0  0  0  0  0  0  0  0
   -4.9141   -2.2967    0.0000 C   0  0  0  0  0  0  0  0  0  0  0  0
   -5.6641   -0.9977    0.0000 C   0  0  0  0  0  0  0  0  0  0  0  0
   -5.1161    0.3987    0.0000 C   0  0  0  0  0  0  0  0  0  0  0  0
   -3.6304    0.7500    0.0000 C   0  0  0  0  0  0  0  0  0  0  0  0
   -2.3313    1.5000    0.0000 N   0  0  0  0  0  0  0  0  0  0  0  0
   -1.0323    0.7500    0.0000 C   0  0  0  0  0  0  0  0  0  0  0  0
   -3.6304   -0.7500    0.0000 C   0  0  0  0  0  0  0  0  0  0  0  0
   -4.7983   -1.0848    0.0000 O   0  0  0  0  0  0  0  0  0  0  0  0
   -0.1459    3.7548    0.0000 C   0  0  0  0  0  0  0  0  0  0  0  0
    0.3177    5.1814    0.0000 C   0  0  0  0  0  0  0  0  0  0  0  0
    5.1828    7.5436    0.0000 H   0  0  0  0  0  0  0  0  0  0  0  0
    3.4038    8.6990    0.0000 H   0  0  0  0  0  0  0  0  0  0  0  0
    4.0275    5.7645    0.0000 H   0  0  0  0  0  0  0  0  0  0  0  0
    4.2558    4.6904    0.0000 H   0  0  0  0  0  0  0  0  0  0  0  0
    3.3287    1.8373    0.0000 H   0  0  0  0  0  0  0  0  0  0  0  0
    1.3213   -4.0667    0.0000 H   0  0  0  0  0  0  0  0  0  0  0  0
    2.2844   -2.1766    0.0000 H   0  0  0  0  0  0  0  0  0  0  0  0
   -0.5688   -3.1036    0.0000 H   0  0  0  0  0  0  0  0  0  0  0  0
   -2.9888   -3.9536    0.0000 H   0  0  0  0  0  0  0  0  0  0  0  0
   -5.7591   -3.5361    0.0000 H   0  0  0  0  0  0  0  0  0  0  0  0
   -7.1600   -1.1098    0.0000 H   0  0  0  0  0  0  0  0  0  0  0  0
   -6.1364    1.4982    0.0000 H   0  0  0  0  0  0  0  0  0  0  0  0
   -2.5142    2.9888    0.0000 H   0  0  0  0  0  0  0  0  0  0  0  0
   -1.6402    3.6241    0.0000 H   0  0  0  0  0  0  0  0  0  0  0  0
   -0.6860    6.2961    0.0000 H   0  0  0  0  0  0  0  0  0  0  0  0
  1  2  1  0
  2  3  1  0
  3  4  2  0
  4  5  1  0
  5  6  2  0
  6  7  1  0
  7  8  1  0
  8  9  2  0
  9 10  1  0
  9 11  1  0
 11 12  1  0
 12 13  2  0
 13 14  1  0
 14 15  2  0
 15 16  1  0
 16 17  2  0
 17 18  1  0
 18 19  1  0
 17 20  1  0
 20 21  2  0
  6 22  1  0
 22 23  2  0
 23  3  1  0
 19  7  1  0
 19 11  2  0
 20 12  1  0
  1 24  1  0
  1 25  1  0
  1 26  1  0
  4 27  1  0
  5 28  1  0
 10 29  1  0
 10 30  1  0
 10 31  1  0
 13 32  1  0
 14 33  1  0
 15 34  1  0
 16 35  1  0
 18 36  1  0
 22 37  1  0
 23 38  1  0
M  END
>  <smiles>  (33) 
COc1ccc(-n2nc(C)c3c4ccccc([nH]c32)c4=O)cc1

>  <m_score__min__energy>  (33) 
nan

>  <m_primary>  (33) 
energy

$$$$
33:0
     RDKit          3D

 41 42  0  0  0  0  0  0  0  0999 V2000
   55.7020   29.9890   43.7280 C   0  0  0  0  0  0  0  0  0  0  0  0
   56.4920   30.0830   44.9090 O   0  0  0  0  0  0  0  0  0  0  0  0
   57.7420   29.4650   45.0840 C   0  0  0  0  0  0  0  0  0  0  0  0
   57.9780   28.1430   44.6550 C   0  0  0  0  0  0  0  0  0  0  0  0
   59.2260   27.5470   44.8510 C   0  0  0  0  0  0  0  0  0  0  0  0
   60.2510   28.2580   45.4720 C   0  0  0  0  0  0  0  0  0  0  0  0
   60.0330   29.5670   45.9040 C   0  0  0  0  0  0  0  0  0  0  0  0
   58.7830   30.1820   45.7140 C   0  0  0  0  0  0  0  0  0  0  0  0
   58.5610   31.5760   46.2600 C   0  0  0  0  0  0  0  0  0  0  0  0
   57.4620   32.2790   45.5680 N   0  0  0  0  0  0  0  0  0  0  0  0
   57.5330   33.7500   45.7000 C   0  0  0  0  0  0  0  0  0  0  0  0
   58.8040   34.3290   45.0500 C   0  0  0  0  0  0  0  0  0  0  0  0
   59.6190   35.1500   46.0540 C   0  0  0  0  0  0  0  0  0  0  0  0
   60.4920   34.2450   46.8810 C   0  0  0  0  0  0  0  0  0  0  0  0
   61.7490   33.8410   46.3970 C   0  0  0  0  0  0  0  0  0  0  0  0
   62.5820   33.0420   47.1870 C   0  0  0  0  0  0  0  0  0  0  0  0
   62.1730   32.6530   48.4650 C   0  0  0  0  0  0  0  0  0  0  0  0
   60.9300   33.0620   48.9580 C   0  0  0  0  0  0  0  0  0  0  0  0
   60.0940   33.8590   48.1720 C   0  0  0  0  0  0  0  0  0  0  0  0
   54.6445   29.8632   44.0033 H   0  0  0  0  0  0  0  0  0  0  0  0
   55.8195   30.9075   43.1342 H   0  0  0  0  0  0  0  0  0  0  0  0
   56.0317   29.1238   43.1342 H   0  0  0  0  0  0  0  0  0  0  0  0
   57.1737   27.5769   44.1625 H   0  0  0  0  0  0  0  0  0  0  0  0
   59.4000   26.5143   44.5145 H   0  0  0  0  0  0  0  0  0  0  0  0
   61.2336   27.7867   45.6220 H   0  0  0  0  0  0  0  0  0  0  0  0
   60.8451   30.1217   46.3968 H   0  0  0  0  0  0  0  0  0  0  0  0
   58.3159   31.5023   47.3298 H   0  0  0  0  0  0  0  0  0  0  0  0
   59.4841   32.1522   46.0988 H   0  0  0  0  0  0  0  0  0  0  0  0
   56.5670   31.9590   46.0090 H   0  0  0  0  0  0  0  0  0  0  0  0
   57.4240   31.9890   44.5630 H   0  0  0  0  0  0  0  0  0  0  0  0
   56.6520   34.1929   45.2126 H   0  0  0  0  0  0  0  0  0  0  0  0
   57.5599   33.9932   46.7725 H   0  0  0  0  0  0  0  0  0  0  0  0
   59.4246   33.5009   44.6770 H   0  0  0  0  0  0  0  0  0  0  0  0
   58.5011   34.9910   44.2254 H   0  0  0  0  0  0  0  0  0  0  0  0
   60.2517   35.8659   45.5089 H   0  0  0  0  0  0  0  0  0  0  0  0
   58.9290   35.6887   46.7201 H   0  0  0  0  0  0  0  0  0  0  0  0
   62.0778   34.1540   45.3950 H   0  0  0  0  0  0  0  0  0  0  0  0
   63.5605   32.7195   46.8015 H   0  0  0  0  0  0  0  0  0  0  0  0
   62.8296   32.0242   49.0842 H   0  0  0  0  0  0  0  0  0  0  0  0
   60.6103   32.7561   49.9651 H   0  0  0  0  0  0  0  0  0  0  0  0
   59.1201   34.1857   48.5655 H   0  0  0  0  0  0  0  0  0  0  0  0
  1  2  1  0
  2  3  1  0
  3  4  2  0
  4  5  1  0
  5  6  2  0
  6  7  1  0
  7  8  2  0
  8  9  1  0
  9 10  1  0
 10 11  1  0
 11 12  1  0
 12 13  1  0
 13 14  1  0
 14 15  2  0
 15 16  1  0
 16 17  2  0
 17 18  1  0
 18 19  2  0
  8  3  1  0
 19 14  1  0
  1 20  1  0
  1 21  1  0
  1 22  1  0
  4 23  1  0
  5 24  1  0
  6 25  1  0
  7 26  1  0
  9 27  1  0
  9 28  1  0
 10 29  1  0
 10 30  1  0
 11 31  1  0
 11 32  1  0
 12 33  1  0
 12 34  1  0
 13 35  1  0
 13 36  1  0
 15 37  1  0
 16 38  1  0
 17 39  1  0
 18 40  1  0
 19 41  1  0
M  CHG  1  10   1
M  END
>  <UniqueID>  (34) 
33

>  <SMILES>  (34) 
COc1ccccc1C[NH2+]CCCc1ccccc1

>  <Energy>  (34) 
36.662214468826576

>  <Genealogy>  (34) 
COc1ccccc1C[NH2+]CCCc1ccccc1 (protonated)
COc1ccccc1C[NH2+]CCCc1ccccc1 (3D coordinates assigned)
COc1ccccc1C[NH2+]CCCc1ccccc1 (optimized conformer: 36.662214468826576 kcal/mol)

>  <smiles>  (34) 
COc1ccccc1CNCCCc1ccccc1

>  <score_type>  (34) 
oracle

>  <origin>  (34) 
adg

>  <m_score__min__energy>  (34) 
-4.8799999999999999

>  <m_primary>  (34) 
energy

$$$$
34:0
     RDKit          3D

 51 54  0  0  0  0  0  0  0  0999 V2000
   64.5150   33.1110   49.0690 C   0  0  0  0  0  0  0  0  0  0  0  0
   63.6340   33.3900   47.8560 C   0  0  0  0  0  0  0  0  0  0  0  0
   63.4160   32.1570   47.0820 N   0  0  0  0  0  0  0  0  0  0  0  0
   62.5310   31.2320   47.8020 C   0  0  0  0  0  0  0  0  0  0  0  0
   61.5620   32.0190   48.6860 C   0  0  0  0  0  0  0  0  0  0  0  0
   60.1900   31.5640   48.4650 N   0  0  0  0  0  0  0  0  0  0  0  0
   59.5850   31.6290   47.1620 C   0  0  0  0  0  0  0  0  0  0  0  0
   59.4600   32.8620   46.4960 C   0  0  0  0  0  0  0  0  0  0  0  0
   59.8660   34.0630   47.1190 C   0  0  0  0  0  0  0  0  0  0  0  0
   59.7430   35.2830   46.4620 C   0  0  0  0  0  0  0  0  0  0  0  0
   59.2100   35.3320   45.1810 C   0  0  0  0  0  0  0  0  0  0  0  0
   58.7920   34.1620   44.5490 C   0  0  0  0  0  0  0  0  0  0  0  0
   58.9000   32.9020   45.1900 C   0  0  0  0  0  0  0  0  0  0  0  0
   58.4730   31.7370   44.5800 N   0  0  0  0  0  0  0  0  0  0  0  0
   57.9000   31.7850   43.2170 C   0  0  0  0  0  0  0  0  0  0  0  0
   58.5690   30.5300   45.2390 C   0  0  0  0  0  0  0  0  0  0  0  0
   58.1440   29.3810   44.6390 N   0  0  0  0  0  0  0  0  0  0  0  0
   58.2180   28.1640   45.2320 C   0  0  0  0  0  0  0  0  0  0  0  0
   57.7690   27.0240   44.5550 C   0  0  0  0  0  0  0  0  0  0  0  0
   57.8610   25.7610   45.1600 C   0  0  0  0  0  0  0  0  0  0  0  0
   57.3500   24.5430   44.4510 C   0  0  0  0  0  0  0  0  0  0  0  0
   58.3710   25.6530   46.4620 C   0  0  0  0  0  0  0  0  0  0  0  0
   58.8200   26.7910   47.1420 C   0  0  0  0  0  0  0  0  0  0  0  0
   58.7490   28.0500   46.5280 C   0  0  0  0  0  0  0  0  0  0  0  0
   59.1940   29.2030   47.1790 C   0  0  0  0  0  0  0  0  0  0  0  0
   59.1170   30.4590   46.5420 C   0  0  0  0  0  0  0  0  0  0  0  0
   63.9404   33.2930   49.9892 H   0  0  0  0  0  0  0  0  0  0  0  0
   64.8489   32.0631   49.0464 H   0  0  0  0  0  0  0  0  0  0  0  0
   65.3912   33.7756   49.0464 H   0  0  0  0  0  0  0  0  0  0  0  0
   62.6634   33.7804   48.1958 H   0  0  0  0  0  0  0  0  0  0  0  0
   64.1364   34.1286   47.2141 H   0  0  0  0  0  0  0  0  0  0  0  0
   64.3430   31.6810   46.9770 H   0  0  0  0  0  0  0  0  0  0  0  0
   61.9594   30.6350   47.0761 H   0  0  0  0  0  0  0  0  0  0  0  0
   63.1389   30.5677   48.4338 H   0  0  0  0  0  0  0  0  0  0  0  0
   61.8291   31.8669   49.7422 H   0  0  0  0  0  0  0  0  0  0  0  0
   61.6306   33.0866   48.4300 H   0  0  0  0  0  0  0  0  0  0  0  0
   59.7350   30.9800   49.2030 H   0  0  0  0  0  0  0  0  0  0  0  0
   60.2844   34.0332   48.1359 H   0  0  0  0  0  0  0  0  0  0  0  0
   60.0683   36.2095   46.9578 H   0  0  0  0  0  0  0  0  0  0  0  0
   59.1172   36.2978   44.6628 H   0  0  0  0  0  0  0  0  0  0  0  0
   58.3706   34.2173   43.5344 H   0  0  0  0  0  0  0  0  0  0  0  0
   56.8058   31.8767   43.2823 H   0  0  0  0  0  0  0  0  0  0  0  0
   58.3091   32.6520   42.6776 H   0  0  0  0  0  0  0  0  0  0  0  0
   58.1591   30.8620   42.6776 H   0  0  0  0  0  0  0  0  0  0  0  0
   57.3426   27.1184   43.5454 H   0  0  0  0  0  0  0  0  0  0  0  0
   57.0353   23.7928   45.1914 H   0  0  0  0  0  0  0  0  0  0  0  0
   56.4917   24.8187   43.8207 H   0  0  0  0  0  0  0  0  0  0  0  0
   58.1481   24.1238   43.8207 H   0  0  0  0  0  0  0  0  0  0  0  0
   58.4184   24.6689   46.9513 H   0  0  0  0  0  0  0  0  0  0  0  0
   59.2289   26.6979   48.1589 H   0  0  0  0  0  0  0  0  0  0  0  0
   59.6075   29.1309   48.1958 H   0  0  0  0  0  0  0  0  0  0  0  0
  1  2  1  0
  2  3  1  0
  3  4  1  0
  4  5  1  0
  5  6  1  0
  6  7  1  0
  7  8  2  0
  8  9  1  0
  9 10  2  0
 10 11  1  0
 11 12  2  0
 12 13  1  0
 13 14  2  0
 14 15  1  0
 14 16  1  0
 16 17  2  0
 17 18  1  0
 18 19  2  0
 19 20  1  0
 20 21  1  0
 20 22  2  0
 22 23  1  0
 23 24  2  0
 24 25  1  0
 25 26  2  0
 26  7  1  0
 13  8  1  0
 26 16  1  0
 24 18  1  0
  1 27  1  0
  1 28  1  0
  1 29  1  0
  2 30  1  0
  2 31  1  0
  3 32  1  0
  4 33  1  0
  4 34  1  0
  5 35  1  0
  5 36  1  0
  6 37  1  0
  9 38  1  0
 10 39  1  0
 11 40  1  0
 12 41  1  0
 15 42  1  0
 15 43  1  0
 15 44  1  0
 19 45  1  0
 21 46  1  0
 21 47  1  0
 21 48  1  0
 22 49  1  0
 23 50  1  0
 25 51  1  0
M  CHG  1  14   1
M  END
>  <UniqueID>  (35) 
34

>  <SMILES>  (35) 
CCNCCNc1c2ccccc2[n+](C)c2nc3cc(C)ccc3cc12

>  <Energy>  (35) 
71.84952319495552

>  <Genealogy>  (35) 
CCNCCNc1c2ccccc2[n+](C)c2nc3cc(C)ccc3cc12 (3D coordinates assigned)
CCNCCNc1c2ccccc2[n+](C)c2nc3cc(C)ccc3cc12 (optimized conformer: 71.84952319495552 kcal/mol)

>  <smiles>  (35) 
CCNCCNc1c2ccccc2[n+](C)c2nc3cc(C)ccc3cc12

>  <score_type>  (35) 
oracle

>  <origin>  (35) 
adg

>  <m_score__min__energy>  (35) 
-6.6399999999999997

>  <m_primary>  (35) 
energy

$$$$
35:0
     RDKit          3D

 45 47  0  0  0  0  0  0  0  0999 V2000
   63.4080   33.7630   46.3850 C   0  0  0  0  0  0  0  0  0  0  0  0
   63.6450   32.6870   47.3510 N   0  0  0  0  0  0  0  0  0  0  0  0
   62.5590   31.6920   47.3540 C   0  0  0  0  0  0  0  0  0  0  0  0
   62.1060   31.3180   48.7760 C   0  0  0  0  0  0  0  0  0  0  0  0
   61.2410   30.0520   48.7640 C   0  0  0  0  0  0  0  0  0  0  0  0
   59.8330   30.2990   48.1890 C   0  0  0  0  0  0  0  0  0  0  0  0
   59.3890   31.7020   48.3060 N   0  0  0  0  0  0  0  0  0  0  0  0
   59.0780   32.2000   49.6150 C   0  0  0  0  0  0  0  0  0  0  0  0
   58.1530   31.5310   50.4340 C   0  0  0  0  0  0  0  0  0  0  0  0
   57.8480   32.0310   51.7030 C   0  0  0  0  0  0  0  0  0  0  0  0
   58.4640   33.1980   52.1600 C   0  0  0  0  0  0  0  0  0  0  0  0
   59.3890   33.8650   51.3530 C   0  0  0  0  0  0  0  0  0  0  0  0
   59.7060   33.3610   50.0800 C   0  0  0  0  0  0  0  0  0  0  0  0
   60.6970   34.0530   49.1960 C   0  0  0  0  0  0  0  0  0  0  0  0
   59.9910   34.7410   48.0300 C   0  0  0  0  0  0  0  0  0  0  0  0
   59.2740   33.8630   47.0100 C   0  0  0  0  0  0  0  0  0  0  0  0
   58.8330   34.5300   45.8510 C   0  0  0  0  0  0  0  0  0  0  0  0
   58.1110   33.8650   44.8620 C   0  0  0  0  0  0  0  0  0  0  0  0
   57.7960   32.5200   45.0150 C   0  0  0  0  0  0  0  0  0  0  0  0
   58.2130   31.8330   46.1540 C   0  0  0  0  0  0  0  0  0  0  0  0
   58.9690   32.4730   47.1570 C   0  0  0  0  0  0  0  0  0  0  0  0
   63.2016   34.6999   46.9231 H   0  0  0  0  0  0  0  0  0  0  0  0
   64.2993   33.8916   45.7534 H   0  0  0  0  0  0  0  0  0  0  0  0
   62.5451   33.5052   45.7534 H   0  0  0  0  0  0  0  0  0  0  0  0
   64.5520   32.2180   47.1190 H   0  0  0  0  0  0  0  0  0  0  0  0
   61.6991   32.1068   46.8076 H   0  0  0  0  0  0  0  0  0  0  0  0
   62.9411   30.7789   46.8741 H   0  0  0  0  0  0  0  0  0  0  0  0
   62.9937   31.1408   49.4010 H   0  0  0  0  0  0  0  0  0  0  0  0
   61.5072   32.1468   49.1815 H   0  0  0  0  0  0  0  0  0  0  0  0
   61.7426   29.2889   48.1508 H   0  0  0  0  0  0  0  0  0  0  0  0
   61.1209   29.7219   49.8064 H   0  0  0  0  0  0  0  0  0  0  0  0
   59.8379   30.0226   47.1243 H   0  0  0  0  0  0  0  0  0  0  0  0
   59.1314   29.6868   48.7747 H   0  0  0  0  0  0  0  0  0  0  0  0
   57.6676   30.6113   50.0755 H   0  0  0  0  0  0  0  0  0  0  0  0
   57.1229   31.5054   52.3417 H   0  0  0  0  0  0  0  0  0  0  0  0
   58.2204   33.5928   53.1574 H   0  0  0  0  0  0  0  0  0  0  0  0
   59.8699   34.7859   51.7145 H   0  0  0  0  0  0  0  0  0  0  0  0
   61.2412   34.8066   49.7841 H   0  0  0  0  0  0  0  0  0  0  0  0
   61.3962   33.3047   48.7946 H   0  0  0  0  0  0  0  0  0  0  0  0
   59.2423   35.4240   48.4577 H   0  0  0  0  0  0  0  0  0  0  0  0
   60.8019   35.2186   47.4604 H   0  0  0  0  0  0  0  0  0  0  0  0
   59.0632   35.5981   45.7237 H   0  0  0  0  0  0  0  0  0  0  0  0
   57.7900   34.4052   43.9591 H   0  0  0  0  0  0  0  0  0  0  0  0
   57.2182   31.9981   44.2380 H   0  0  0  0  0  0  0  0  0  0  0  0
   57.9473   30.7721   46.2723 H   0  0  0  0  0  0  0  0  0  0  0  0
  1  2  1  0
  2  3  1  0
  3  4  1  0
  4  5  1  0
  5  6  1  0
  6  7  1  0
  7  8  1  0
  8  9  2  0
  9 10  1  0
 10 11  2  0
 11 12  1  0
 12 13  2  0
 13 14  1  0
 14 15  1  0
 15 16  1  0
 16 17  2  0
 17 18  1  0
 18 19  2  0
 19 20  1  0
 20 21  2  0
 21  7  1  0
 13  8  1  0
 21 16  1  0
  1 22  1  0
  1 23  1  0
  1 24  1  0
  2 25  1  0
  3 26  1  0
  3 27  1  0
  4 28  1  0
  4 29  1  0
  5 30  1  0
  5 31  1  0
  6 32  1  0
  6 33  1  0
  9 34  1  0
 10 35  1  0
 11 36  1  0
 12 37  1  0
 14 38  1  0
 14 39  1  0
 15 40  1  0
 15 41  1  0
 17 42  1  0
 18 43  1  0
 19 44  1  0
 20 45  1  0
M  END
>  <UniqueID>  (36) 
35

>  <SMILES>  (36) 
CNCCCCN1c2ccccc2CCc2ccccc21

>  <Energy>  (36) 
58.485791762207015

>  <Genealogy>  (36) 
CNCCCCN1c2ccccc2CCc2ccccc21 (3D coordinates assigned)
CNCCCCN1c2ccccc2CCc2ccccc21 (nonaromatic ring conformer: 58.485791762207015 kcal/mol)

>  <smiles>  (36) 
CNCCCCN1c2ccccc2CCc2ccccc21

>  <score_type>  (36) 
oracle

>  <origin>  (36) 
adg

>  <m_score__min__energy>  (36) 
-6.0899999999999999

>  <m_primary>  (36) 
energy

$$$$
