0:0
     RDKit          3D

 65 68  0  0  0  0  0  0  0  0999 V2000
   56.3620   29.9720   42.7750 C   0  0  0  0  0  0  0  0  0  0  0  0
   55.5450   30.0530   44.0580 C   0  0  0  0  0  0  0  0  0  0  0  0
   55.9020   28.9470   44.9540 N   0  0  0  0  0  0  0  0  0  0  0  0
   57.1790   28.3510   44.5410 C   0  0  0  0  0  0  0  0  0  0  0  0
   58.3450   29.0620   45.2340 C   0  0  0  0  0  0  0  0  0  0  0  0
   57.8590   29.9660   46.2750 N   0  0  0  0  0  0  0  0  0  0  0  0
   58.6910   31.0270   46.7680 C   0  0  0  0  0  0  0  0  0  0  0  0
   58.6460   32.3110   46.1990 C   0  0  0  0  0  0  0  0  0  0  0  0
   57.8280   32.5850   45.0830 C   0  0  0  0  0  0  0  0  0  0  0  0
   57.8190   33.8530   44.5040 C   0  0  0  0  0  0  0  0  0  0  0  0
   58.6260   34.8620   45.0200 C   0  0  0  0  0  0  0  0  0  0  0  0
   59.4550   34.6080   46.1130 C   0  0  0  0  0  0  0  0  0  0  0  0
   59.4950   33.3270   46.7170 C   0  0  0  0  0  0  0  0  0  0  0  0
   60.3450   33.0520   47.7710 N   0  0  0  0  0  0  0  0  0  0  0  0
   61.5380   33.9050   47.9620 C   0  0  0  0  0  0  0  0  0  0  0  0
   60.2190   31.8630   48.4670 C   0  0  0  0  0  0  0  0  0  0  0  0
   60.7540   31.6540   49.7790 C   0  0  0  0  0  0  0  0  0  0  0  0
   60.8360   32.7540   50.7320 N   0  0  0  0  0  0  0  0  0  0  0  0
   59.6660   33.6520   50.6430 C   0  0  0  0  0  0  0  0  0  0  0  0
   58.5530   33.2540   51.6350 C   0  0  0  0  0  0  0  0  0  0  0  0
   58.8700   31.9720   52.3030 N   0  0  0  0  0  0  0  0  0  0  0  0
   57.9010   30.9390   51.8950 C   0  0  0  0  0  0  0  0  0  0  0  0
   58.8550   32.1160   53.7710 C   0  0  0  0  0  0  0  0  0  0  0  0
   60.9280   30.3150   50.2290 C   0  0  0  0  0  0  0  0  0  0  0  0
   61.6440   29.9920   51.4030 C   0  0  0  0  0  0  0  0  0  0  0  0
   61.7580   28.6630   51.8230 C   0  0  0  0  0  0  0  0  0  0  0  0
   61.1580   27.6390   51.0900 C   0  0  0  0  0  0  0  0  0  0  0  0
   60.4430   27.9400   49.9300 C   0  0  0  0  0  0  0  0  0  0  0  0
   60.3310   29.2660   49.4960 C   0  0  0  0  0  0  0  0  0  0  0  0
   59.6010   29.5440   48.3910 N   0  0  0  0  0  0  0  0  0  0  0  0
   59.5100   30.7950   47.8750 C   0  0  0  0  0  0  0  0  0  0  0  0
   57.4280   29.8663   43.0252 H   0  0  0  0  0  0  0  0  0  0  0  0
   56.0354   29.1018   42.1867 H   0  0  0  0  0  0  0  0  0  0  0  0
   56.2126   30.8894   42.1867 H   0  0  0  0  0  0  0  0  0  0  0  0
   55.7510   31.0095   44.5607 H   0  0  0  0  0  0  0  0  0  0  0  0
   54.4758   29.9837   43.8089 H   0  0  0  0  0  0  0  0  0  0  0  0
   55.1640   28.2080   44.8690 H   0  0  0  0  0  0  0  0  0  0  0  0
   57.1883   27.2859   44.8158 H   0  0  0  0  0  0  0  0  0  0  0  0
   57.2895   28.4597   43.4520 H   0  0  0  0  0  0  0  0  0  0  0  0
   59.0060   28.3100   45.6896 H   0  0  0  0  0  0  0  0  0  0  0  0
   58.8935   29.6512   44.4843 H   0  0  0  0  0  0  0  0  0  0  0  0
   56.8240   30.0670   46.3850 H   0  0  0  0  0  0  0  0  0  0  0  0
   57.1914   31.7908   44.6658 H   0  0  0  0  0  0  0  0  0  0  0  0
   57.1726   34.0562   43.6375 H   0  0  0  0  0  0  0  0  0  0  0  0
   58.6104   35.8632   44.5647 H   0  0  0  0  0  0  0  0  0  0  0  0
   60.0874   35.4148   46.5120 H   0  0  0  0  0  0  0  0  0  0  0  0
   61.7248   34.0386   49.0378 H   0  0  0  0  0  0  0  0  0  0  0  0
   62.4106   33.4248   47.4952 H   0  0  0  0  0  0  0  0  0  0  0  0
   61.3659   34.8860   47.4952 H   0  0  0  0  0  0  0  0  0  0  0  0
   60.9230   32.3770   51.7030 H   0  0  0  0  0  0  0  0  0  0  0  0
   61.6700   33.3560   50.5790 H   0  0  0  0  0  0  0  0  0  0  0  0
   59.9895   34.6794   50.8662 H   0  0  0  0  0  0  0  0  0  0  0  0
   59.2563   33.5752   49.6250 H   0  0  0  0  0  0  0  0  0  0  0  0
   58.4521   34.0410   52.3968 H   0  0  0  0  0  0  0  0  0  0  0  0
   57.6128   33.1346   51.0766 H   0  0  0  0  0  0  0  0  0  0  0  0
   57.4635   30.4727   52.7901 H   0  0  0  0  0  0  0  0  0  0  0  0
   57.1031   31.4012   51.2952 H   0  0  0  0  0  0  0  0  0  0  0  0
   58.4132   30.1722   51.2952 H   0  0  0  0  0  0  0  0  0  0  0  0
   58.9582   31.1253   54.2377 H   0  0  0  0  0  0  0  0  0  0  0  0
   59.6911   32.7581   54.0850 H   0  0  0  0  0  0  0  0  0  0  0  0
   57.9045   32.5720   54.0850 H   0  0  0  0  0  0  0  0  0  0  0  0
   62.1158   30.7925   51.9917 H   0  0  0  0  0  0  0  0  0  0  0  0
   62.3235   28.4240   52.7357 H   0  0  0  0  0  0  0  0  0  0  0  0
   61.2484   26.5955   51.4260 H   0  0  0  0  0  0  0  0  0  0  0  0
   59.9660   27.1327   49.3549 H   0  0  0  0  0  0  0  0  0  0  0  0
  1  2  1  0
  2  3  1  0
  3  4  1  0
  4  5  1  0
  5  6  1  0
  6  7  1  0
  7  8  2  0
  8  9  1  0
  9 10  2  0
 10 11  1  0
 11 12  2  0
 12 13  1  0
 13 14  2  0
 14 15  1  0
 14 16  1  0
 16 17  2  0
 17 18  1  0
 18 19  1  0
 19 20  1  0
 20 21  1  0
 21 22  1  0
 21 23  1  0
 17 24  1  0
 24 25  2  0
 25 26  1  0
 26 27  2  0
 27 28  1  0
 28 29  2  0
 29 30  1  0
 30 31  2  0
 31  7  1  0
 13  8  1  0
 31 16  1  0
 29 24  1  0
  1 32  1  0
  1 33  1  0
  1 34  1  0
  2 35  1  0
  2 36  1  0
  3 37  1  0
  4 38  1  0
  4 39  1  0
  5 40  1  0
  5 41  1  0
  6 42  1  0
  9 43  1  0
 10 44  1  0
 11 45  1  0
 12 46  1  0
 15 47  1  0
 15 48  1  0
 15 49  1  0
 18 50  1  0
 18 51  1  0
 19 52  1  0
 19 53  1  0
 20 54  1  0
 20 55  1  0
 22 56  1  0
 22 57  1  0
 22 58  1  0
 23 59  1  0
 23 60  1  0
 23 61  1  0
 25 62  1  0
 26 63  1  0
 27 64  1  0
 28 65  1  0
M  CHG  2  14   1  18   1
M  END
>  <UniqueID>  (1) 
1

>  <SMILES>  (1) 
CCNCCNc1c2ccccc2[n+](C)c2c([NH2+]CCN(C)C)c3ccccc3nc12

>  <Energy>  (1) 
103.69413891530945

>  <Genealogy>  (1) 
CCNCCNc1c2ccccc2[n+](C)c2c([NH2+]CCN(C)C)c3ccccc3nc12 (protonated)
CCNCCNc1c2ccccc2[n+](C)c2c([NH2+]CCN(C)C)c3ccccc3nc12 (3D coordinates assigned)
CCNCCNc1c2ccccc2[n+](C)c2c([NH2+]CCN(C)C)c3ccccc3nc12 (optimized conformer: 103.69413891530945 kcal/mol)

>  <smiles>  (1) 
CCNCCNc1c2ccccc2[n+](C)c2c(NCCN(C)C)c3ccccc3nc12

>  <score_type>  (1) 
oracle

>  <origin>  (1) 
adg

>  <m_score__min__energy>  (1) 
-5

>  <m_primary>  (1) 
energy

$$$$
1:0
     RDKit          3D

 53 54  0  0  0  0  0  0  0  0999 V2000
   54.8340   23.6770   43.9570 C   0  0  0  0  0  0  0  0  0  0  0  0
   56.0140   23.2720   43.0780 C   0  0  0  0  0  0  0  0  0  0  0  0
   56.2240   21.8200   43.1270 N   0  0  0  0  0  0  0  0  0  0  0  0
   57.5610   21.4520   43.6250 C   0  0  0  0  0  0  0  0  0  0  0  0
   57.6680   21.7760   45.1160 C   0  0  0  0  0  0  0  0  0  0  0  0
   56.3760   21.7990   45.7030 O   0  0  0  0  0  0  0  0  0  0  0  0
   56.4140   22.2680   47.0380 C   0  0  0  0  0  0  0  0  0  0  0  0
   56.9640   23.6950   47.0870 C   0  0  0  0  0  0  0  0  0  0  0  0
   55.9160   24.6410   46.7250 N   0  0  0  0  0  0  0  0  0  0  0  0
   56.1410   25.9900   46.3060 C   0  0  0  0  0  0  0  0  0  0  0  0
   55.1480   26.7030   46.0240 O   0  0  0  0  0  0  0  0  0  0  0  0
   57.5220   26.5880   46.2060 C   0  0  0  0  0  0  0  0  0  0  0  0
   57.6970   27.4050   44.9220 C   0  0  0  0  0  0  0  0  0  0  0  0
   56.7550   28.5340   44.8880 N   0  0  0  0  0  0  0  0  0  0  0  0
   56.9910   29.3880   43.7160 C   0  0  0  0  0  0  0  0  0  0  0  0
   57.4760   30.7500   44.1400 C   0  0  0  0  0  0  0  0  0  0  0  0
   57.6670   31.7660   43.1880 C   0  0  0  0  0  0  0  0  0  0  0  0
   58.1360   33.0240   43.5780 C   0  0  0  0  0  0  0  0  0  0  0  0
   58.4200   33.2820   44.9260 C   0  0  0  0  0  0  0  0  0  0  0  0
   58.8890   34.5440   45.3270 C   0  0  0  0  0  0  0  0  0  0  0  0
   59.1710   34.7890   46.6770 C   0  0  0  0  0  0  0  0  0  0  0  0
   58.9970   33.7770   47.6290 C   0  0  0  0  0  0  0  0  0  0  0  0
   58.5280   32.5170   47.2410 C   0  0  0  0  0  0  0  0  0  0  0  0
   58.2320   32.2610   45.8940 C   0  0  0  0  0  0  0  0  0  0  0  0
   57.7630   31.0000   45.4920 C   0  0  0  0  0  0  0  0  0  0  0  0
   55.1155   23.5804   45.0160 H   0  0  0  0  0  0  0  0  0  0  0  0
   54.5596   24.7208   43.7443 H   0  0  0  0  0  0  0  0  0  0  0  0
   53.9764   23.0218   43.7443 H   0  0  0  0  0  0  0  0  0  0  0  0
   55.8104   23.5724   42.0396 H   0  0  0  0  0  0  0  0  0  0  0  0
   56.9200   23.7728   43.4499 H   0  0  0  0  0  0  0  0  0  0  0  0
   55.5120   21.4190   43.7820 H   0  0  0  0  0  0  0  0  0  0  0  0
   57.7230   20.3746   43.4732 H   0  0  0  0  0  0  0  0  0  0  0  0
   58.3227   22.0235   43.0744 H   0  0  0  0  0  0  0  0  0  0  0  0
   58.2797   21.0083   45.6124 H   0  0  0  0  0  0  0  0  0  0  0  0
   58.1368   22.7636   45.2376 H   0  0  0  0  0  0  0  0  0  0  0  0
   55.3961   22.2574   47.4549 H   0  0  0  0  0  0  0  0  0  0  0  0
   57.0711   21.6121   47.6279 H   0  0  0  0  0  0  0  0  0  0  0  0
   57.3187   23.9149   48.1048 H   0  0  0  0  0  0  0  0  0  0  0  0
   57.7980   23.7873   46.3757 H   0  0  0  0  0  0  0  0  0  0  0  0
   57.6887   27.2456   47.0719 H   0  0  0  0  0  0  0  0  0  0  0  0
   58.2507   25.7642   46.1888 H   0  0  0  0  0  0  0  0  0  0  0  0
   58.7256   27.7923   44.8786 H   0  0  0  0  0  0  0  0  0  0  0  0
   57.4963   26.7527   44.0593 H   0  0  0  0  0  0  0  0  0  0  0  0
   55.7870   28.1440   44.7910 H   0  0  0  0  0  0  0  0  0  0  0  0
   57.7501   28.9180   43.0735 H   0  0  0  0  0  0  0  0  0  0  0  0
   56.0454   29.5041   43.1662 H   0  0  0  0  0  0  0  0  0  0  0  0
   57.4459   31.5701   42.1284 H   0  0  0  0  0  0  0  0  0  0  0  0
   58.2824   33.8128   42.8254 H   0  0  0  0  0  0  0  0  0  0  0  0
   59.0347   35.3394   44.5812 H   0  0  0  0  0  0  0  0  0  0  0  0
   59.5305   35.7802   46.9905 H   0  0  0  0  0  0  0  0  0  0  0  0
   59.2299   33.9733   48.6860 H   0  0  0  0  0  0  0  0  0  0  0  0
   58.3913   31.7262   47.9933 H   0  0  0  0  0  0  0  0  0  0  0  0
   57.6198   30.2050   46.2387 H   0  0  0  0  0  0  0  0  0  0  0  0
  1  2  1  0
  2  3  1  0
  3  4  1  0
  4  5  1  0
  5  6  1  0
  6  7  1  0
  7  8  1  0
  8  9  1  0
  9 10  1  0
 10 11  2  0
 10 12  1  0
 12 13  1  0
 13 14  1  0
 14 15  1  0
 15 16  1  0
 16 17  2  0
 17 18  1  0
 18 19  2  0
 19 20  1  0
 20 21  2  0
 21 22  1  0
 22 23  2  0
 23 24  1  0
 24 25  2  0
 25 16  1  0
 24 19  1  0
  1 26  1  0
  1 27  1  0
  1 28  1  0
  2 29  1  0
  2 30  1  0
  3 31  1  0
  4 32  1  0
  4 33  1  0
  5 34  1  0
  5 35  1  0
  7 36  1  0
  7 37  1  0
  8 38  1  0
  8 39  1  0
 12 40  1  0
 12 41  1  0
 13 42  1  0
 13 43  1  0
 14 44  1  0
 15 45  1  0
 15 46  1  0
 17 47  1  0
 18 48  1  0
 20 49  1  0
 21 50  1  0
 22 51  1  0
 23 52  1  0
 25 53  1  0
M  CHG  1   9  -1
M  END
>  <UniqueID>  (2) 
2

>  <SMILES>  (2) 
CCNCCOCC[N-]C(=O)CCNCc1ccc2ccccc2c1

>  <Energy>  (2) 
48.24008339503996

>  <Genealogy>  (2) 
CCNCCOCC[N-]C(=O)CCNCc1ccc2ccccc2c1 (protonated)
CCNCCOCC[N-]C(=O)CCNCc1ccc2ccccc2c1 (3D coordinates assigned)
CCNCCOCC[N-]C(=O)CCNCc1ccc2ccccc2c1 (optimized conformer: 48.24008339503996 kcal/mol)

>  <smiles>  (2) 
CCNCCOCCNC(=O)CCNCc1ccc2ccccc2c1

>  <score_type>  (2) 
oracle

>  <origin>  (2) 
adg

>  <m_score__min__energy>  (2) 
-9.8599999999999994

>  <m_primary>  (2) 
energy

$$$$
2:0
     RDKit          3D

 62 65  0  0  0  0  0  0  0  0999 V2000
   56.2760   25.3990   46.3400 C   0  0  0  0  0  0  0  0  0  0  0  0
   57.5210   25.6860   47.1690 C   0  0  0  0  0  0  0  0  0  0  0  0
   58.0140   27.0500   46.8570 N   0  0  0  0  0  0  0  0  0  0  0  0
   57.4130   27.5910   45.6160 C   0  0  0  0  0  0  0  0  0  0  0  0
   58.4150   27.5120   44.4650 C   0  0  0  0  0  0  0  0  0  0  0  0
   59.4910   27.1070   46.8120 C   0  0  0  0  0  0  0  0  0  0  0  0
   60.0110   28.2910   47.6340 C   0  0  0  0  0  0  0  0  0  0  0  0
   58.8950   29.0310   48.2210 N   0  0  0  0  0  0  0  0  0  0  0  0
   58.9480   30.4530   48.3770 C   0  0  0  0  0  0  0  0  0  0  0  0
   59.2560   31.0270   49.6320 C   0  0  0  0  0  0  0  0  0  0  0  0
   59.2930   32.4380   49.7480 C   0  0  0  0  0  0  0  0  0  0  0  0
   59.2410   33.2310   48.6170 N   0  0  0  0  0  0  0  0  0  0  0  0
   59.6750   34.6410   48.6820 C   0  0  0  0  0  0  0  0  0  0  0  0
   58.8560   32.6850   47.4050 C   0  0  0  0  0  0  0  0  0  0  0  0
   58.5880   33.5010   46.2780 C   0  0  0  0  0  0  0  0  0  0  0  0
   58.2360   32.9410   45.0500 C   0  0  0  0  0  0  0  0  0  0  0  0
   58.1240   31.5560   44.9110 C   0  0  0  0  0  0  0  0  0  0  0  0
   57.6860   30.9810   43.6730 N   0  0  0  0  0  0  0  0  0  0  0  0
   56.4980   30.1860   43.5670 C   0  0  0  0  0  0  0  0  0  0  0  0
   56.2720   29.3440   42.3560 C   0  0  0  0  0  0  0  0  0  0  0  0
   55.6300   30.2100   44.4810 O   0  0  0  0  0  0  0  0  0  0  0  0
   58.3390   30.7360   46.0200 C   0  0  0  0  0  0  0  0  0  0  0  0
   58.7060   31.2830   47.2690 C   0  0  0  0  0  0  0  0  0  0  0  0
   59.3720   33.0260   51.1190 C   0  0  0  0  0  0  0  0  0  0  0  0
   58.9530   34.1970   51.3400 O   0  0  0  0  0  0  0  0  0  0  0  0
   59.8720   32.2180   52.2470 C   0  0  0  0  0  0  0  0  0  0  0  0
   60.2340   32.8240   53.4620 C   0  0  0  0  0  0  0  0  0  0  0  0
   60.7110   32.0490   54.5210 C   0  0  0  0  0  0  0  0  0  0  0  0
   60.8310   30.6680   54.3740 C   0  0  0  0  0  0  0  0  0  0  0  0
   60.4630   30.0550   53.1760 C   0  0  0  0  0  0  0  0  0  0  0  0
   59.9840   30.8250   52.1000 C   0  0  0  0  0  0  0  0  0  0  0  0
   59.5880   30.1880   50.8240 C   0  0  0  0  0  0  0  0  0  0  0  0
   59.5640   28.9290   50.7520 O   0  0  0  0  0  0  0  0  0  0  0  0
   55.4262   25.2031   47.0104 H   0  0  0  0  0  0  0  0  0  0  0  0
   56.0496   26.2685   45.7054 H   0  0  0  0  0  0  0  0  0  0  0  0
   56.4531   24.5181   45.7054 H   0  0  0  0  0  0  0  0  0  0  0  0
   57.2733   25.6206   48.2387 H   0  0  0  0  0  0  0  0  0  0  0  0
   58.3012   24.9484   46.9297 H   0  0  0  0  0  0  0  0  0  0  0  0
   56.5187   27.0040   45.3598 H   0  0  0  0  0  0  0  0  0  0  0  0
   57.1380   28.6433   45.7802 H   0  0  0  0  0  0  0  0  0  0  0  0
   59.4342   27.4316   44.8710 H   0  0  0  0  0  0  0  0  0  0  0  0
   58.1955   26.6284   43.8477 H   0  0  0  0  0  0  0  0  0  0  0  0
   58.3367   28.4191   43.8477 H   0  0  0  0  0  0  0  0  0  0  0  0
   59.9014   26.1732   47.2238 H   0  0  0  0  0  0  0  0  0  0  0  0
   59.8090   27.2345   45.7667 H   0  0  0  0  0  0  0  0  0  0  0  0
   60.6611   27.9165   48.4385 H   0  0  0  0  0  0  0  0  0  0  0  0
   60.5779   28.9635   46.9733 H   0  0  0  0  0  0  0  0  0  0  0  0
   58.0560   28.5260   48.6010 H   0  0  0  0  0  0  0  0  0  0  0  0
   59.7693   34.9475   49.7342 H   0  0  0  0  0  0  0  0  0  0  0  0
   60.6479   34.7487   48.1801 H   0  0  0  0  0  0  0  0  0  0  0  0
   58.9311   35.2771   48.1801 H   0  0  0  0  0  0  0  0  0  0  0  0
   58.6588   34.5946   46.3732 H   0  0  0  0  0  0  0  0  0  0  0  0
   58.0455   33.5943   44.1858 H   0  0  0  0  0  0  0  0  0  0  0  0
   58.2570   31.1520   42.8180 H   0  0  0  0  0  0  0  0  0  0  0  0
   55.9983   28.3242   42.6643 H   0  0  0  0  0  0  0  0  0  0  0  0
   55.4581   29.7764   41.7555 H   0  0  0  0  0  0  0  0  0  0  0  0
   57.1930   29.3107   41.7555 H   0  0  0  0  0  0  0  0  0  0  0  0
   58.2207   29.6470   45.9194 H   0  0  0  0  0  0  0  0  0  0  0  0
   60.1412   33.9138   53.5794 H   0  0  0  0  0  0  0  0  0  0  0  0
   60.9919   32.5279   55.4706 H   0  0  0  0  0  0  0  0  0  0  0  0
   61.2171   30.0596   55.2052 H   0  0  0  0  0  0  0  0  0  0  0  0
   60.5478   28.9632   53.0719 H   0  0  0  0  0  0  0  0  0  0  0  0
  1  2  1  0
  2  3  1  0
  3  4  1  0
  4  5  1  0
  3  6  1  0
  6  7  1  0
  7  8  1  0
  8  9  1  0
  9 10  2  0
 10 11  1  0
 11 12  2  0
 12 13  1  0
 12 14  1  0
 14 15  2  0
 15 16  1  0
 16 17  2  0
 17 18  1  0
 18 19  1  0
 19 20  1  0
 19 21  2  0
 17 22  1  0
 22 23  2  0
 11 24  1  0
 24 25  2  0
 24 26  1  0
 26 27  2  0
 27 28  1  0
 28 29  2  0
 29 30  1  0
 30 31  2  0
 31 32  1  0
 32 33  2  0
 23  9  1  0
 31 26  1  0
 32 10  1  0
 23 14  1  0
  1 34  1  0
  1 35  1  0
  1 36  1  0
  2 37  1  0
  2 38  1  0
  4 39  1  0
  4 40  1  0
  5 41  1  0
  5 42  1  0
  5 43  1  0
  6 44  1  0
  6 45  1  0
  7 46  1  0
  7 47  1  0
  8 48  1  0
 13 49  1  0
 13 50  1  0
 13 51  1  0
 15 52  1  0
 16 53  1  0
 18 54  1  0
 20 55  1  0
 20 56  1  0
 20 57  1  0
 22 58  1  0
 27 59  1  0
 28 60  1  0
 29 61  1  0
 30 62  1  0
M  CHG  1  12   1
M  END
>  <UniqueID>  (3) 
3

>  <SMILES>  (3) 
CCN(CC)CCNc1c2c([n+](C)c3ccc(NC(C)=O)cc13)C(=O)c1ccccc1C2=O

>  <Energy>  (3) 
98.32087460175717

>  <Genealogy>  (3) 
CCN(CC)CCNc1c2c([n+](C)c3ccc(NC(C)=O)cc13)C(=O)c1ccccc1C2=O (3D coordinates assigned)
CCN(CC)CCNc1c2c([n+](C)c3ccc(NC(C)=O)cc13)C(=O)c1ccccc1C2=O (nonaromatic ring conformer: 98.32087460175717 kcal/mol)

>  <smiles>  (3) 
CCN(CC)CCNc1c2c([n+](C)c3ccc(NC(C)=O)cc13)C(=O)c1ccccc1C2=O

>  <score_type>  (3) 
oracle

>  <origin>  (3) 
adg

>  <m_score__min__energy>  (3) 
-7.0099999999999998

>  <m_primary>  (3) 
energy

$$$$
3:0
     RDKit          3D

 57 57  0  0  0  0  0  0  0  0999 V2000
   62.7450   33.6680   52.1510 C   0  0  0  0  0  0  0  0  0  0  0  0
   63.3920   32.2970   52.3700 C   0  0  0  0  0  0  0  0  0  0  0  0
   63.6040   31.5770   51.0810 N   0  0  2  0  0  0  0  0  0  0  0  0
   63.4980   30.1210   51.2890 C   0  0  0  0  0  0  0  0  0  0  0  0
   64.9220   31.9050   50.4780 C   0  0  0  0  0  0  0  0  0  0  0  0
   64.8060   32.9420   49.3490 C   0  0  0  0  0  0  0  0  0  0  0  0
   63.4480   33.2850   49.1590 O   0  0  0  0  0  0  0  0  0  0  0  0
   63.2860   34.0550   47.9850 C   0  0  0  0  0  0  0  0  0  0  0  0
   63.0170   33.1440   46.7840 C   0  0  0  0  0  0  0  0  0  0  0  0
   61.7120   32.6000   46.8630 O   0  0  0  0  0  0  0  0  0  0  0  0
   61.7680   31.2120   47.1380 C   0  0  0  0  0  0  0  0  0  0  0  0
   62.0830   30.9920   48.5530 N   0  0  0  0  0  0  0  0  0  0  0  0
   60.8990   30.5450   49.3010 C   0  0  0  0  0  0  0  0  0  0  0  0
   60.1850   31.7430   49.9500 C   0  0  1  0  0  0  0  0  0  0  0  0
   61.0280   32.8640   49.9000 O   0  0  0  0  0  0  0  0  0  0  0  0
   58.8630   32.0600   49.2300 C   0  0  0  0  0  0  0  0  0  0  0  0
   59.0430   33.1020   48.2700 O   0  0  0  0  0  0  0  0  0  0  0  0
   58.7280   33.0370   46.9000 C   0  0  0  0  0  0  0  0  0  0  0  0
   58.1290   31.9010   46.3130 C   0  0  0  0  0  0  0  0  0  0  0  0
   57.8230   31.8890   44.9520 C   0  0  0  0  0  0  0  0  0  0  0  0
   58.1090   33.0000   44.1580 C   0  0  0  0  0  0  0  0  0  0  0  0
   58.7010   34.1280   44.7220 C   0  0  0  0  0  0  0  0  0  0  0  0
   59.0120   34.1570   46.0910 C   0  0  0  0  0  0  0  0  0  0  0  0
   59.6510   35.3770   46.6920 C   0  0  0  0  0  0  0  0  0  0  0  0
   62.5268   34.1303   53.1250 H   0  0  0  0  0  0  0  0  0  0  0  0
   63.4340   34.3125   51.5854 H   0  0  0  0  0  0  0  0  0  0  0  0
   61.8095   33.5458   51.5854 H   0  0  0  0  0  0  0  0  0  0  0  0
   64.3644   32.4363   52.8651 H   0  0  0  0  0  0  0  0  0  0  0  0
   62.7161   31.6936   52.9937 H   0  0  0  0  0  0  0  0  0  0  0  0
   62.8500   31.8340   50.4000 H   0  0  0  0  0  0  0  0  0  0  0  0
   63.4823   29.9049   52.3674 H   0  0  0  0  0  0  0  0  0  0  0  0
   62.5706   29.7512   50.8274 H   0  0  0  0  0  0  0  0  0  0  0  0
   64.3621   29.6208   50.8274 H   0  0  0  0  0  0  0  0  0  0  0  0
   65.5792   32.3083   51.2625 H   0  0  0  0  0  0  0  0  0  0  0  0
   65.3329   30.9811   50.0450 H   0  0  0  0  0  0  0  0  0  0  0  0
   65.3769   33.8427   49.6189 H   0  0  0  0  0  0  0  0  0  0  0  0
   65.2092   32.5161   48.4184 H   0  0  0  0  0  0  0  0  0  0  0  0
   62.4373   34.7423   48.1162 H   0  0  0  0  0  0  0  0  0  0  0  0
   64.2084   34.6255   47.8015 H   0  0  0  0  0  0  0  0  0  0  0  0
   63.1111   33.7284   45.8568 H   0  0  0  0  0  0  0  0  0  0  0  0
   63.7482   32.3223   46.7870 H   0  0  0  0  0  0  0  0  0  0  0  0
   60.7943   30.7555   46.9066 H   0  0  0  0  0  0  0  0  0  0  0  0
   62.5526   30.7532   46.5185 H   0  0  0  0  0  0  0  0  0  0  0  0
   62.4120   31.9010   48.9600 H   0  0  0  0  0  0  0  0  0  0  0  0
   60.2054   30.0405   48.6122 H   0  0  0  0  0  0  0  0  0  0  0  0
   61.2202   29.8520   50.0926 H   0  0  0  0  0  0  0  0  0  0  0  0
   59.9531   31.4880   50.9946 H   0  0  0  0  0  0  0  0  0  0  0  0
   61.2670   33.0030   48.9440 H   0  0  0  0  0  0  0  0  0  0  0  0
   58.5064   31.1549   48.7166 H   0  0  0  0  0  0  0  0  0  0  0  0
   58.1271   32.3931   49.9766 H   0  0  0  0  0  0  0  0  0  0  0  0
   57.9024   31.0206   46.9323 H   0  0  0  0  0  0  0  0  0  0  0  0
   57.3546   31.0006   44.5033 H   0  0  0  0  0  0  0  0  0  0  0  0
   57.8667   32.9853   43.0851 H   0  0  0  0  0  0  0  0  0  0  0  0
   58.9260   35.0007   44.0914 H   0  0  0  0  0  0  0  0  0  0  0  0
   59.6145   35.3072   47.7892 H   0  0  0  0  0  0  0  0  0  0  0  0
   60.6988   35.4417   46.3634 H   0  0  0  0  0  0  0  0  0  0  0  0
   59.1075   36.2751   46.3634 H   0  0  0  0  0  0  0  0  0  0  0  0
  1  2  1  0
  2  3  1  0
  3  4  1  0
  3  5  1  0
  5  6  1  0
  6  7  1  0
  7  8  1  0
  8  9  1  0
  9 10  1  0
 10 11  1  0
 11 12  1  0
 12 13  1  0
 13 14  1  0
 14 15  1  0
 14 16  1  0
 16 17  1  0
 17 18  1  0
 18 19  2  0
 19 20  1  0
 20 21  2  0
 21 22  1  0
 22 23  2  0
 23 24  1  0
 23 18  1  0
  1 25  1  0
  1 26  1  0
  1 27  1  0
  2 28  1  0
  2 29  1  0
  3 30  1  6
  4 31  1  0
  4 32  1  0
  4 33  1  0
  5 34  1  0
  5 35  1  0
  6 36  1  0
  6 37  1  0
  8 38  1  0
  8 39  1  0
  9 40  1  0
  9 41  1  0
 11 42  1  0
 11 43  1  0
 12 44  1  0
 13 45  1  0
 13 46  1  0
 14 47  1  1
 15 48  1  0
 16 49  1  0
 16 50  1  0
 19 51  1  0
 20 52  1  0
 21 53  1  0
 22 54  1  0
 24 55  1  0
 24 56  1  0
 24 57  1  0
M  CHG  1   3   1
M  END
>  <UniqueID>  (4) 
4

>  <SMILES>  (4) 
CC[N@H+](C)CCOCCOCNC[C@@H](O)COc1ccccc1C

>  <Energy>  (4) 
54.424889059566546

>  <Genealogy>  (4) 
CC[NH+](C)CCOCCOCNCC(O)COc1ccccc1C (protonated)
CC[N@H+](C)CCOCCOCNC[C@@H](O)COc1ccccc1C (chirality)
CC[N@H+](C)CCOCCOCNC[C@@H](O)COc1ccccc1C (3D coordinates assigned)
CC[N@H+](C)CCOCCOCNC[C@@H](O)COc1ccccc1C (optimized conformer: 54.424889059566546 kcal/mol)

>  <smiles>  (4) 
CCN(C)CCOCCOCNCC(O)COc1ccccc1C

>  <score_type>  (4) 
oracle

>  <origin>  (4) 
adg

>  <m_score__min__energy>  (4) 
-5.4199999999999999

>  <m_primary>  (4) 
energy

$$$$
4:0
     RDKit          3D

 50 52  0  0  0  0  0  0  0  0999 V2000
   57.5660   28.2420   45.2840 C   0  0  0  0  0  0  0  0  0  0  0  0
   56.4200   29.1780   44.9130 C   0  0  0  0  0  0  0  0  0  0  0  0
   56.9320   30.3710   44.1450 C   0  0  0  0  0  0  0  0  0  0  0  0
   56.6750   30.4730   42.7680 C   0  0  0  0  0  0  0  0  0  0  0  0
   57.1170   31.5820   42.0440 C   0  0  0  0  0  0  0  0  0  0  0  0
   57.8110   32.6090   42.6840 C   0  0  0  0  0  0  0  0  0  0  0  0
   58.0680   32.5370   44.0650 C   0  0  0  0  0  0  0  0  0  0  0  0
   58.7530   33.5580   44.7470 C   0  0  0  0  0  0  0  0  0  0  0  0
   59.1670   34.5760   44.1250 O   0  0  0  0  0  0  0  0  0  0  0  0
   58.9710   33.4350   46.1290 C   0  0  0  0  0  0  0  0  0  0  0  0
   59.6470   34.4190   46.8710 C   0  0  0  0  0  0  0  0  0  0  0  0
   59.8380   34.2540   48.2460 C   0  0  0  0  0  0  0  0  0  0  0  0
   59.3600   33.1150   48.9040 C   0  0  0  0  0  0  0  0  0  0  0  0
   59.5720   33.0170   50.2880 O   0  0  0  0  0  0  0  0  0  0  0  0
   60.7800   32.5850   50.9160 C   0  0  0  0  0  0  0  0  0  0  0  0
   61.7350   31.9330   49.9120 C   0  0  0  0  0  0  0  0  0  0  0  0
   62.4820   32.9800   49.1710 N   0  0  0  0  0  0  0  0  0  0  0  0
   63.5990   33.5290   49.9750 C   0  0  0  0  0  0  0  0  0  0  0  0
   64.8780   32.7420   49.7050 C   0  0  0  0  0  0  0  0  0  0  0  0
   62.9570   32.4920   47.8570 C   0  0  0  0  0  0  0  0  0  0  0  0
   63.0980   33.6540   46.8760 C   0  0  0  0  0  0  0  0  0  0  0  0
   58.6860   32.1250   48.1630 C   0  0  0  0  0  0  0  0  0  0  0  0
   58.4900   32.2810   46.7870 C   0  0  0  0  0  0  0  0  0  0  0  0
   57.8490   31.3370   46.1070 O   0  0  0  0  0  0  0  0  0  0  0  0
   57.6210   31.4120   44.7990 C   0  0  0  0  0  0  0  0  0  0  0  0
   57.6461   28.1766   46.3791 H   0  0  0  0  0  0  0  0  0  0  0  0
   57.3710   27.2416   44.8702 H   0  0  0  0  0  0  0  0  0  0  0  0
   58.5073   28.6329   44.8702 H   0  0  0  0  0  0  0  0  0  0  0  0
   55.6953   28.6323   44.2910 H   0  0  0  0  0  0  0  0  0  0  0  0
   55.9400   29.5323   45.8372 H   0  0  0  0  0  0  0  0  0  0  0  0
   56.1210   29.6726   42.2557 H   0  0  0  0  0  0  0  0  0  0  0  0
   56.9171   31.6462   40.9642 H   0  0  0  0  0  0  0  0  0  0  0  0
   58.1585   33.4783   42.1065 H   0  0  0  0  0  0  0  0  0  0  0  0
   60.0266   35.3209   46.3686 H   0  0  0  0  0  0  0  0  0  0  0  0
   60.3703   35.0286   48.8175 H   0  0  0  0  0  0  0  0  0  0  0  0
   61.2778   33.4550   51.3691 H   0  0  0  0  0  0  0  0  0  0  0  0
   60.5221   31.8377   51.6809 H   0  0  0  0  0  0  0  0  0  0  0  0
   62.4464   31.2896   50.4504 H   0  0  0  0  0  0  0  0  0  0  0  0
   61.1538   31.3299   49.1989 H   0  0  0  0  0  0  0  0  0  0  0  0
   63.7572   34.5835   49.7050 H   0  0  0  0  0  0  0  0  0  0  0  0
   63.3465   33.4489   51.0426 H   0  0  0  0  0  0  0  0  0  0  0  0
   65.3416   32.4567   50.6608 H   0  0  0  0  0  0  0  0  0  0  0  0
   64.6365   31.8360   49.1298 H   0  0  0  0  0  0  0  0  0  0  0  0
   65.5779   33.3659   49.1298 H   0  0  0  0  0  0  0  0  0  0  0  0
   63.9347   32.0040   47.9836 H   0  0  0  0  0  0  0  0  0  0  0  0
   62.2251   31.7747   47.4572 H   0  0  0  0  0  0  0  0  0  0  0  0
   63.2121   34.5943   47.4353 H   0  0  0  0  0  0  0  0  0  0  0  0
   63.9833   33.4941   46.2430 H   0  0  0  0  0  0  0  0  0  0  0  0
   62.2001   33.7105   46.2430 H   0  0  0  0  0  0  0  0  0  0  0  0
   58.3114   31.2234   48.6697 H   0  0  0  0  0  0  0  0  0  0  0  0
  1  2  1  0
  2  3  1  0
  3  4  2  0
  4  5  1  0
  5  6  2  0
  6  7  1  0
  7  8  1  0
  8  9  2  0
  8 10  1  0
 10 11  2  0
 11 12  1  0
 12 13  2  0
 13 14  1  0
 14 15  1  0
 15 16  1  0
 16 17  1  0
 17 18  1  0
 18 19  1  0
 17 20  1  0
 20 21  1  0
 13 22  1  0
 22 23  2  0
 23 24  1  0
 24 25  1  0
 25  3  1  0
 25  7  2  0
 23 10  1  0
  1 26  1  0
  1 27  1  0
  1 28  1  0
  2 29  1  0
  2 30  1  0
  4 31  1  0
  5 32  1  0
  6 33  1  0
 11 34  1  0
 12 35  1  0
 15 36  1  0
 15 37  1  0
 16 38  1  0
 16 39  1  0
 18 40  1  0
 18 41  1  0
 19 42  1  0
 19 43  1  0
 19 44  1  0
 20 45  1  0
 20 46  1  0
 21 47  1  0
 21 48  1  0
 21 49  1  0
 22 50  1  0
M  END
>  <UniqueID>  (5) 
5

>  <SMILES>  (5) 
CCc1cccc2c(=O)c3ccc(OCCN(CC)CC)cc3oc12

>  <Energy>  (5) 
55.24278182769578

>  <Genealogy>  (5) 
CCc1cccc2c(=O)c3ccc(OCCN(CC)CC)cc3oc12 (3D coordinates assigned)
CCc1cccc2c(=O)c3ccc(OCCN(CC)CC)cc3oc12 (optimized conformer: 55.24278182769578 kcal/mol)

>  <smiles>  (5) 
CCc1cccc2c(=O)c3ccc(OCCN(CC)CC)cc3oc12

>  <score_type>  (5) 
oracle

>  <origin>  (5) 
adg

>  <m_score__min__energy>  (5) 
-7.2400000000000002

>  <m_primary>  (5) 
energy

$$$$
5:0
     RDKit          3D

 44 46  0  0  0  0  0  0  0  0999 V2000
   58.5250   34.5670   44.8830 C   0  0  0  0  0  0  0  0  0  0  0  0
   57.5300   33.8370   45.7790 C   0  0  0  0  0  0  0  0  0  0  0  0
   58.1410   32.6160   46.3410 N   0  0  0  0  0  0  0  0  0  0  0  0
   59.0180   32.6850   47.4120 C   0  0  0  0  0  0  0  0  0  0  0  0
   59.5690   34.2530   48.1080 S   0  0  0  0  0  0  0  0  0  0  0  0
   60.5270   33.5030   49.4800 C   0  0  0  0  0  0  0  0  0  0  0  0
   59.7140   33.4140   50.7930 C   0  0  0  0  0  0  0  0  0  0  0  0
   58.8780   32.1870   50.8620 N   0  0  0  0  0  0  0  0  0  0  0  0
   59.6190   31.0520   51.4640 C   0  0  0  0  0  0  0  0  0  0  0  0
   58.6680   29.9030   51.8650 C   0  0  0  0  0  0  0  0  0  0  0  0
   57.4220   30.0270   51.2130 O   0  0  0  0  0  0  0  0  0  0  0  0
   56.7510   31.1870   51.6760 C   0  0  0  0  0  0  0  0  0  0  0  0
   57.6470   32.4470   51.6350 C   0  0  0  0  0  0  0  0  0  0  0  0
   59.5180   31.5450   47.9730 N   0  0  0  0  0  0  0  0  0  0  0  0
   59.1830   30.3330   47.4720 C   0  0  0  0  0  0  0  0  0  0  0  0
   58.3270   30.2410   46.4020 C   0  0  0  0  0  0  0  0  0  0  0  0
   58.1170   28.6250   45.9890 S   0  0  0  0  0  0  0  0  0  0  0  0
   59.1510   28.1050   47.2230 C   0  0  0  0  0  0  0  0  0  0  0  0
   59.5100   26.5280   47.4880 S   0  0  0  0  0  0  0  0  0  0  0  0
   59.6500   29.1450   47.9480 N   0  0  0  0  0  0  0  0  0  0  0  0
   60.5830   29.0020   49.0690 C   0  0  0  0  0  0  0  0  0  0  0  0
   57.7850   31.3850   45.8340 C   0  0  0  0  0  0  0  0  0  0  0  0
   56.9780   31.2820   44.8700 O   0  0  0  0  0  0  0  0  0  0  0  0
   59.2555   35.1029   45.5068 H   0  0  0  0  0  0  0  0  0  0  0  0
   59.0499   33.8381   44.2480 H   0  0  0  0  0  0  0  0  0  0  0  0
   57.9873   35.2865   44.2480 H   0  0  0  0  0  0  0  0  0  0  0  0
   57.2274   34.5020   46.6013 H   0  0  0  0  0  0  0  0  0  0  0  0
   56.6526   33.5528   45.1795 H   0  0  0  0  0  0  0  0  0  0  0  0
   60.8308   32.4880   49.1841 H   0  0  0  0  0  0  0  0  0  0  0  0
   61.3979   34.1476   49.6700 H   0  0  0  0  0  0  0  0  0  0  0  0
   60.4136   33.4125   51.6418 H   0  0  0  0  0  0  0  0  0  0  0  0
   59.0385   34.2814   50.8276 H   0  0  0  0  0  0  0  0  0  0  0  0
   58.5910   31.9130   49.8940 H   0  0  0  0  0  0  0  0  0  0  0  0
   60.3483   30.6734   50.7327 H   0  0  0  0  0  0  0  0  0  0  0  0
   60.1251   31.4132   52.3714 H   0  0  0  0  0  0  0  0  0  0  0  0
   59.1262   28.9427   51.5858 H   0  0  0  0  0  0  0  0  0  0  0  0
   58.5013   29.9489   52.9513 H   0  0  0  0  0  0  0  0  0  0  0  0
   55.8690   31.3608   51.0420 H   0  0  0  0  0  0  0  0  0  0  0  0
   56.4680   31.0127   52.7246 H   0  0  0  0  0  0  0  0  0  0  0  0
   57.0910   33.2702   51.1626 H   0  0  0  0  0  0  0  0  0  0  0  0
   57.9260   32.7163   52.6644 H   0  0  0  0  0  0  0  0  0  0  0  0
   60.0323   29.0864   50.0175 H   0  0  0  0  0  0  0  0  0  0  0  0
   61.0725   28.0183   49.0155 H   0  0  0  0  0  0  0  0  0  0  0  0
   61.3446   29.7939   49.0155 H   0  0  0  0  0  0  0  0  0  0  0  0
  1  2  1  0
  2  3  1  0
  3  4  1  0
  4  5  1  0
  5  6  1  0
  6  7  1  0
  7  8  1  0
  8  9  1  0
  9 10  1  0
 10 11  1  0
 11 12  1  0
 12 13  1  0
  4 14  2  0
 14 15  1  0
 15 16  2  0
 16 17  1  0
 17 18  1  0
 18 19  2  0
 18 20  1  0
 20 21  1  0
 16 22  1  0
 22 23  2  0
 22  3  1  0
 13  8  1  0
 20 15  1  0
  1 24  1  0
  1 25  1  0
  1 26  1  0
  2 27  1  0
  2 28  1  0
  6 29  1  0
  6 30  1  0
  7 31  1  0
  7 32  1  0
  8 33  1  0
  9 34  1  0
  9 35  1  0
 10 36  1  0
 10 37  1  0
 12 38  1  0
 12 39  1  0
 13 40  1  0
 13 41  1  0
 21 42  1  0
 21 43  1  0
 21 44  1  0
M  CHG  1   8   1
M  END
>  <UniqueID>  (6) 
6

>  <SMILES>  (6) 
CCn1c(SCC[NH+]2CCOCC2)nc2c(sc(=S)n2C)c1=O

>  <Energy>  (6) 
89.9067722756922

>  <Genealogy>  (6) 
CCn1c(SCC[NH+]2CCOCC2)nc2c(sc(=S)n2C)c1=O (protonated)
CCn1c(SCC[NH+]2CCOCC2)nc2c(sc(=S)n2C)c1=O (3D coordinates assigned)
CCn1c(SCC[NH+]2CCOCC2)nc2c(sc(=S)n2C)c1=O (nonaromatic ring conformer: 89.9067722756922 kcal/mol)

>  <smiles>  (6) 
CCn1c(SCCN2CCOCC2)nc2c(sc(=S)n2C)c1=O

>  <score_type>  (6) 
oracle

>  <origin>  (6) 
adg

>  <m_score__min__energy>  (6) 
-5.0199999999999996

>  <m_primary>  (6) 
energy

$$$$
6:0
     RDKit          3D

 50 52  0  0  0  0  0  0  0  0999 V2000
   58.1400   32.7430   48.0090 C   0  0  0  0  0  0  0  0  0  0  0  0
   58.2230   32.9200   46.5200 C   0  0  0  0  0  0  0  0  0  0  0  0
   57.3850   32.1820   45.7380 N   0  0  0  0  0  0  0  0  0  0  0  0
   57.4110   32.2490   44.3820 C   0  0  0  0  0  0  0  0  0  0  0  0
   58.3230   33.0840   43.7430 C   0  0  0  0  0  0  0  0  0  0  0  0
   59.2010   33.8490   44.5080 C   0  0  0  0  0  0  0  0  0  0  0  0
   59.1660   33.7840   45.9100 C   0  0  0  0  0  0  0  0  0  0  0  0
   60.1100   34.6590   46.7170 C   0  0  0  0  0  0  0  0  0  0  0  0
   61.2860   33.8990   47.2050 N   0  0  0  0  0  0  0  0  0  0  0  0
   61.5540   34.1700   48.6440 C   0  0  0  0  0  0  0  0  0  0  0  0
   63.0360   33.9850   49.0370 C   0  0  0  0  0  0  0  0  0  0  0  0
   63.7150   32.9760   48.2050 N   0  0  0  0  0  0  0  0  0  0  0  0
   63.2740   31.5940   48.5040 C   0  0  0  0  0  0  0  0  0  0  0  0
   62.1300   31.6180   49.5200 C   0  0  0  0  0  0  0  0  0  0  0  0
   60.8620   31.5970   48.8620 O   0  0  0  0  0  0  0  0  0  0  0  0
   60.4190   30.6080   47.9690 C   0  0  0  0  0  0  0  0  0  0  0  0
   60.8270   30.5590   46.6220 C   0  0  0  0  0  0  0  0  0  0  0  0
   60.3490   29.5500   45.7770 C   0  0  0  0  0  0  0  0  0  0  0  0
   59.4660   28.5820   46.2680 C   0  0  0  0  0  0  0  0  0  0  0  0
   58.9760   27.5450   45.3980 C   0  0  0  0  0  0  0  0  0  0  0  0
   58.5800   26.7120   44.6980 N   0  0  0  0  0  0  0  0  0  0  0  0
   59.0650   28.6220   47.6080 C   0  0  0  0  0  0  0  0  0  0  0  0
   59.5410   29.6300   48.4530 C   0  0  0  0  0  0  0  0  0  0  0  0
   63.6670   33.3100   46.7600 C   0  0  0  0  0  0  0  0  0  0  0  0
   62.4690   34.2070   46.3760 C   0  0  0  0  0  0  0  0  0  0  0  0
   58.5563   33.6308   48.5075 H   0  0  0  0  0  0  0  0  0  0  0  0
   57.0883   32.6156   48.3050 H   0  0  0  0  0  0  0  0  0  0  0  0
   58.7146   31.8530   48.3050 H   0  0  0  0  0  0  0  0  0  0  0  0
   56.7109   31.6430   43.7882 H   0  0  0  0  0  0  0  0  0  0  0  0
   58.3503   33.1394   42.6447 H   0  0  0  0  0  0  0  0  0  0  0  0
   59.9268   34.5086   44.0099 H   0  0  0  0  0  0  0  0  0  0  0  0
   60.4596   35.4858   46.0813 H   0  0  0  0  0  0  0  0  0  0  0  0
   59.5609   35.0369   47.5920 H   0  0  0  0  0  0  0  0  0  0  0  0
   61.0780   32.8800   47.0920 H   0  0  0  0  0  0  0  0  0  0  0  0
   61.2618   35.2075   48.8638 H   0  0  0  0  0  0  0  0  0  0  0  0
   60.9702   33.4416   49.2260 H   0  0  0  0  0  0  0  0  0  0  0  0
   63.5555   34.9475   48.9198 H   0  0  0  0  0  0  0  0  0  0  0  0
   63.0659   33.6358   50.0797 H   0  0  0  0  0  0  0  0  0  0  0  0
   62.9279   31.1135   47.5770 H   0  0  0  0  0  0  0  0  0  0  0  0
   64.1186   31.0285   48.9245 H   0  0  0  0  0  0  0  0  0  0  0  0
   62.2108   30.7372   50.1740 H   0  0  0  0  0  0  0  0  0  0  0  0
   62.2040   32.5434   50.1101 H   0  0  0  0  0  0  0  0  0  0  0  0
   61.5236   31.3160   46.2324 H   0  0  0  0  0  0  0  0  0  0  0  0
   60.6684   29.5183   44.7249 H   0  0  0  0  0  0  0  0  0  0  0  0
   58.3744   27.8596   47.9975 H   0  0  0  0  0  0  0  0  0  0  0  0
   59.2233   29.6548   49.5058 H   0  0  0  0  0  0  0  0  0  0  0  0
   64.5956   33.8356   46.4928 H   0  0  0  0  0  0  0  0  0  0  0  0
   63.5520   32.3632   46.2119 H   0  0  0  0  0  0  0  0  0  0  0  0
   62.7472   35.2608   46.5247 H   0  0  0  0  0  0  0  0  0  0  0  0
   62.2155   34.0186   45.3223 H   0  0  0  0  0  0  0  0  0  0  0  0
  1  2  1  0
  2  3  2  0
  3  4  1  0
  4  5  2  0
  5  6  1  0
  6  7  2  0
  7  8  1  0
  8  9  1  0
  9 10  1  0
 10 11  1  0
 11 12  1  0
 12 13  1  0
 13 14  1  0
 14 15  1  0
 15 16  1  0
 16 17  2  0
 17 18  1  0
 18 19  2  0
 19 20  1  0
 20 21  3  0
 19 22  1  0
 22 23  2  0
 12 24  1  0
 24 25  1  0
  7  2  1  0
 25  9  1  0
 23 16  1  0
  1 26  1  0
  1 27  1  0
  1 28  1  0
  4 29  1  0
  5 30  1  0
  6 31  1  0
  8 32  1  0
  8 33  1  0
  9 34  1  0
 10 35  1  0
 10 36  1  0
 11 37  1  0
 11 38  1  0
 13 39  1  0
 13 40  1  0
 14 41  1  0
 14 42  1  0
 17 43  1  0
 18 44  1  0
 22 45  1  0
 23 46  1  0
 24 47  1  0
 24 48  1  0
 25 49  1  0
 25 50  1  0
M  CHG  1   9   1
M  END
>  <UniqueID>  (7) 
7

>  <SMILES>  (7) 
Cc1ncccc1C[NH+]1CCN(CCOc2ccc(C#N)cc2)CC1

>  <Energy>  (7) 
63.95059233152332

>  <Genealogy>  (7) 
Cc1ncccc1C[NH+]1CCN(CCOc2ccc(C#N)cc2)CC1 (protonated)
Cc1ncccc1C[NH+]1CCN(CCOc2ccc(C#N)cc2)CC1 (3D coordinates assigned)
Cc1ncccc1C[NH+]1CCN(CCOc2ccc(C#N)cc2)CC1 (nonaromatic ring conformer: 63.95059233152332 kcal/mol)

>  <smiles>  (7) 
Cc1ncccc1CN1CCN(CCOc2ccc(C#N)cc2)CC1

>  <score_type>  (7) 
oracle

>  <origin>  (7) 
adg

>  <m_score__min__energy>  (7) 
-5.8200000000000003

>  <m_primary>  (7) 
energy

$$$$
7:0
     RDKit          3D

 74 77  0  0  0  0  0  0  0  0999 V2000
   64.1040   33.4210   49.3620 C   0  0  0  0  0  0  0  0  0  0  0  0
   63.9530   31.9700   48.9210 C   0  0  0  0  0  0  0  0  0  0  0  0
   63.3640   31.9030   47.5730 N   0  0  0  0  0  0  0  0  0  0  0  0
   63.6590   33.1010   46.7610 C   0  0  0  0  0  0  0  0  0  0  0  0
   62.3920   33.8710   46.3660 C   0  0  0  0  0  0  0  0  0  0  0  0
   61.4080   33.7230   47.3680 O   0  0  0  0  0  0  0  0  0  0  0  0
   60.2730   34.5170   47.0770 C   0  0  0  0  0  0  0  0  0  0  0  0
   59.1160   33.6360   46.5970 C   0  0  0  0  0  0  0  0  0  0  0  0
   58.8010   32.6080   47.5860 N   0  0  0  0  0  0  0  0  0  0  0  0
   58.9180   31.2260   47.2190 C   0  0  0  0  0  0  0  0  0  0  0  0
   58.2810   30.7680   46.0510 C   0  0  0  0  0  0  0  0  0  0  0  0
   57.7430   31.6780   45.1130 C   0  0  0  0  0  0  0  0  0  0  0  0
   57.1640   31.2200   43.9300 C   0  0  0  0  0  0  0  0  0  0  0  0
   57.1220   29.8590   43.6580 C   0  0  0  0  0  0  0  0  0  0  0  0
   57.6220   28.9430   44.5830 C   0  0  0  0  0  0  0  0  0  0  0  0
   58.1710   29.3750   45.8180 C   0  0  0  0  0  0  0  0  0  0  0  0
   58.5770   28.4810   46.7890 N   0  0  0  0  0  0  0  0  0  0  0  0
   58.1420   27.0670   46.7160 C   0  0  0  0  0  0  0  0  0  0  0  0
   59.3680   28.9120   47.8410 C   0  0  0  0  0  0  0  0  0  0  0  0
   59.9910   27.9860   48.7130 C   0  0  0  0  0  0  0  0  0  0  0  0
   60.7560   28.4120   49.7890 C   0  0  0  0  0  0  0  0  0  0  0  0
   60.9830   29.7630   49.9940 C   0  0  0  0  0  0  0  0  0  0  0  0
   60.4460   30.7250   49.1250 C   0  0  0  0  0  0  0  0  0  0  0  0
   60.9030   32.0900   49.2320 N   0  0  0  0  0  0  0  0  0  0  0  0
   60.8980   32.8590   50.4770 C   0  0  0  0  0  0  0  0  0  0  0  0
   59.6470   33.7420   50.5500 C   0  0  0  0  0  0  0  0  0  0  0  0
   58.9160   33.5530   51.8960 C   0  0  0  0  0  0  0  0  0  0  0  0
   57.7670   32.6210   51.8330 N   0  0  0  0  0  0  0  0  0  0  0  0
   57.4470   31.9880   53.1270 C   0  0  0  0  0  0  0  0  0  0  0  0
   56.3640   30.9120   52.9320 C   0  0  0  0  0  0  0  0  0  0  0  0
   56.6640   29.9150   51.9590 O   0  0  0  0  0  0  0  0  0  0  0  0
   57.7960   30.2150   51.1590 C   0  0  0  0  0  0  0  0  0  0  0  0
   57.8060   31.6790   50.6910 C   0  0  0  0  0  0  0  0  0  0  0  0
   59.5840   30.3050   48.0620 C   0  0  0  0  0  0  0  0  0  0  0  0
   64.1093   33.4716   50.4608 H   0  0  0  0  0  0  0  0  0  0  0  0
   65.0492   33.8264   48.9717 H   0  0  0  0  0  0  0  0  0  0  0  0
   63.2625   34.0123   48.9717 H   0  0  0  0  0  0  0  0  0  0  0  0
   64.9426   31.4899   48.9086 H   0  0  0  0  0  0  0  0  0  0  0  0
   63.2896   31.4491   49.6271 H   0  0  0  0  0  0  0  0  0  0  0  0
   62.3290   31.7700   47.6590 H   0  0  0  0  0  0  0  0  0  0  0  0
   64.3108   33.7694   47.3427 H   0  0  0  0  0  0  0  0  0  0  0  0
   64.1474   32.7644   45.8346 H   0  0  0  0  0  0  0  0  0  0  0  0
   62.6350   34.9373   46.2481 H   0  0  0  0  0  0  0  0  0  0  0  0
   62.0058   33.4706   45.4170 H   0  0  0  0  0  0  0  0  0  0  0  0
   59.9655   35.0568   47.9848 H   0  0  0  0  0  0  0  0  0  0  0  0
   60.5313   35.2322   46.2822 H   0  0  0  0  0  0  0  0  0  0  0  0
   58.2278   34.2643   46.4346 H   0  0  0  0  0  0  0  0  0  0  0  0
   59.4136   33.1435   45.6595 H   0  0  0  0  0  0  0  0  0  0  0  0
   58.8850   32.8510   48.6000 H   0  0  0  0  0  0  0  0  0  0  0  0
   57.7814   32.7580   45.3181 H   0  0  0  0  0  0  0  0  0  0  0  0
   56.7403   31.9374   43.2118 H   0  0  0  0  0  0  0  0  0  0  0  0
   56.6930   29.5023   42.7100 H   0  0  0  0  0  0  0  0  0  0  0  0
   57.5903   27.8681   44.3514 H   0  0  0  0  0  0  0  0  0  0  0  0
   58.0193   26.6681   47.7338 H   0  0  0  0  0  0  0  0  0  0  0  0
   57.1834   27.0055   46.1800 H   0  0  0  0  0  0  0  0  0  0  0  0
   58.9003   26.4773   46.1800 H   0  0  0  0  0  0  0  0  0  0  0  0
   59.8658   26.9080   48.5335 H   0  0  0  0  0  0  0  0  0  0  0  0
   61.1843   27.6735   50.4826 H   0  0  0  0  0  0  0  0  0  0  0  0
   61.5930   30.0864   50.8503 H   0  0  0  0  0  0  0  0  0  0  0  0
   61.4470   32.4930   48.4360 H   0  0  0  0  0  0  0  0  0  0  0  0
   60.9041   32.1665   51.3316 H   0  0  0  0  0  0  0  0  0  0  0  0
   61.7915   33.5000   50.5060 H   0  0  0  0  0  0  0  0  0  0  0  0
   59.9439   34.7961   50.4465 H   0  0  0  0  0  0  0  0  0  0  0  0
   58.9652   33.4527   49.7367 H   0  0  0  0  0  0  0  0  0  0  0  0
   59.6373   33.1634   52.6294 H   0  0  0  0  0  0  0  0  0  0  0  0
   58.5124   34.5363   52.1792 H   0  0  0  0  0  0  0  0  0  0  0  0
   58.3541   31.5216   53.5388 H   0  0  0  0  0  0  0  0  0  0  0  0
   57.0739   32.7547   53.8220 H   0  0  0  0  0  0  0  0  0  0  0  0
   56.2076   30.4085   53.8974 H   0  0  0  0  0  0  0  0  0  0  0  0
   55.4735   31.4406   52.5611 H   0  0  0  0  0  0  0  0  0  0  0  0
   58.7058   30.0252   51.7475 H   0  0  0  0  0  0  0  0  0  0  0  0
   57.7562   29.5754   50.2649 H   0  0  0  0  0  0  0  0  0  0  0  0
   58.7223   31.8610   50.1102 H   0  0  0  0  0  0  0  0  0  0  0  0
   56.9091   31.8482   50.0771 H   0  0  0  0  0  0  0  0  0  0  0  0
  1  2  1  0
  2  3  1  0
  3  4  1  0
  4  5  1  0
  5  6  1  0
  6  7  1  0
  7  8  1  0
  8  9  1  0
  9 10  1  0
 10 11  2  0
 11 12  1  0
 12 13  2  0
 13 14  1  0
 14 15  2  0
 15 16  1  0
 16 17  2  0
 17 18  1  0
 17 19  1  0
 19 20  2  0
 20 21  1  0
 21 22  2  0
 22 23  1  0
 23 24  1  0
 24 25  1  0
 25 26  1  0
 26 27  1  0
 27 28  1  0
 28 29  1  0
 29 30  1  0
 30 31  1  0
 31 32  1  0
 32 33  1  0
 23 34  2  0
 34 10  1  0
 16 11  1  0
 34 19  1  0
 33 28  1  0
  1 35  1  0
  1 36  1  0
  1 37  1  0
  2 38  1  0
  2 39  1  0
  3 40  1  0
  4 41  1  0
  4 42  1  0
  5 43  1  0
  5 44  1  0
  7 45  1  0
  7 46  1  0
  8 47  1  0
  8 48  1  0
  9 49  1  0
 12 50  1  0
 13 51  1  0
 14 52  1  0
 15 53  1  0
 18 54  1  0
 18 55  1  0
 18 56  1  0
 20 57  1  0
 21 58  1  0
 22 59  1  0
 24 60  1  0
 25 61  1  0
 25 62  1  0
 26 63  1  0
 26 64  1  0
 27 65  1  0
 27 66  1  0
 29 67  1  0
 29 68  1  0
 30 69  1  0
 30 70  1  0
 32 71  1  0
 32 72  1  0
 33 73  1  0
 33 74  1  0
M  CHG  1  17   1
M  END
>  <UniqueID>  (8) 
8

>  <SMILES>  (8) 
CCNCCOCCNc1c2ccccc2[n+](C)c2cccc(NCCCN3CCOCC3)c12

>  <Energy>  (8) 
121.68567056730602

>  <Genealogy>  (8) 
CCNCCOCCNc1c2ccccc2[n+](C)c2cccc(NCCCN3CCOCC3)c12 (3D coordinates assigned)
CCNCCOCCNc1c2ccccc2[n+](C)c2cccc(NCCCN3CCOCC3)c12 (nonaromatic ring conformer: 121.68567056730602 kcal/mol)

>  <smiles>  (8) 
CCNCCOCCNc1c2ccccc2[n+](C)c2cccc(NCCCN3CCOCC3)c12

>  <score_type>  (8) 
oracle

>  <origin>  (8) 
adg

>  <m_score__min__energy>  (8) 
-5.7400000000000002

>  <m_primary>  (8) 
energy

$$$$
8:0
     RDKit          3D

 70 73  0  0  0  0  0  0  0  0999 V2000
   59.3120   33.2150   51.4120 C   0  0  0  0  0  0  0  0  0  0  0  0
   60.5690   32.3460   51.3690 C   0  0  0  0  0  0  0  0  0  0  0  0
   60.2700   30.9580   50.9480 N   0  0  0  0  0  0  0  0  0  0  0  0
   59.9520   30.1170   52.1130 C   0  0  0  0  0  0  0  0  0  0  0  0
   61.2970   30.3370   50.0750 C   0  0  0  0  0  0  0  0  0  0  0  0
   60.9130   30.2690   48.5830 C   0  0  0  0  0  0  0  0  0  0  0  0
   59.6770   31.0120   48.3250 N   0  0  0  0  0  0  0  0  0  0  0  0
   58.9680   30.9090   47.0790 C   0  0  0  0  0  0  0  0  0  0  0  0
   58.6450   29.6380   46.5780 C   0  0  0  0  0  0  0  0  0  0  0  0
   58.1010   29.5130   45.2830 C   0  0  0  0  0  0  0  0  0  0  0  0
   57.6590   30.6360   44.6140 N   0  0  0  0  0  0  0  0  0  0  0  0
   56.6960   30.5080   43.4990 C   0  0  0  0  0  0  0  0  0  0  0  0
   58.0060   31.8950   45.0640 C   0  0  0  0  0  0  0  0  0  0  0  0
   57.7460   33.0440   44.2780 C   0  0  0  0  0  0  0  0  0  0  0  0
   58.0220   34.3180   44.7540 C   0  0  0  0  0  0  0  0  0  0  0  0
   58.5590   34.4910   46.0200 C   0  0  0  0  0  0  0  0  0  0  0  0
   58.8580   33.3830   46.8290 C   0  0  0  0  0  0  0  0  0  0  0  0
   59.3590   33.5730   48.1280 O   0  0  0  0  0  0  0  0  0  0  0  0
   60.6870   33.9800   48.4630 C   0  0  0  0  0  0  0  0  0  0  0  0
   61.6380   33.8450   47.2620 C   0  0  0  0  0  0  0  0  0  0  0  0
   63.0810   33.4460   47.6510 C   0  0  0  0  0  0  0  0  0  0  0  0
   63.3050   33.5030   49.1690 C   0  0  0  0  0  0  0  0  0  0  0  0
   63.3890   32.0340   47.1330 C   0  0  0  0  0  0  0  0  0  0  0  0
   58.6310   32.0640   46.3340 C   0  0  0  0  0  0  0  0  0  0  0  0
   57.9640   28.1260   44.7300 C   0  0  0  0  0  0  0  0  0  0  0  0
   58.1430   27.8410   43.3620 C   0  0  0  0  0  0  0  0  0  0  0  0
   58.0000   26.5350   42.8870 C   0  0  0  0  0  0  0  0  0  0  0  0
   57.7160   25.4940   43.7730 C   0  0  0  0  0  0  0  0  0  0  0  0
   57.6210   25.7480   45.1420 C   0  0  0  0  0  0  0  0  0  0  0  0
   57.7830   27.0540   45.6280 C   0  0  0  0  0  0  0  0  0  0  0  0
   57.7950   27.3310   47.1050 C   0  0  0  0  0  0  0  0  0  0  0  0
   58.8640   28.3870   47.4140 C   0  0  0  0  0  0  0  0  0  0  0  0
   59.0345   33.4068   52.4590 H   0  0  0  0  0  0  0  0  0  0  0  0
   59.5093   34.1705   50.9040 H   0  0  0  0  0  0  0  0  0  0  0  0
   58.4878   32.6929   50.9040 H   0  0  0  0  0  0  0  0  0  0  0  0
   61.2816   32.7874   50.6567 H   0  0  0  0  0  0  0  0  0  0  0  0
   60.9916   32.3095   52.3839 H   0  0  0  0  0  0  0  0  0  0  0  0
   60.1631   30.6754   53.0369 H   0  0  0  0  0  0  0  0  0  0  0  0
   58.8875   29.8411   52.0865 H   0  0  0  0  0  0  0  0  0  0  0  0
   60.5677   29.2058   52.0865 H   0  0  0  0  0  0  0  0  0  0  0  0
   62.2237   30.9228   50.1647 H   0  0  0  0  0  0  0  0  0  0  0  0
   61.4100   29.2974   50.4163 H   0  0  0  0  0  0  0  0  0  0  0  0
   61.7258   30.7030   47.9822 H   0  0  0  0  0  0  0  0  0  0  0  0
   60.7524   29.2156   48.3099 H   0  0  0  0  0  0  0  0  0  0  0  0
   59.2680   31.5960   49.0890 H   0  0  0  0  0  0  0  0  0  0  0  0
   55.6821   30.3732   43.9038 H   0  0  0  0  0  0  0  0  0  0  0  0
   56.7264   31.4181   42.8819 H   0  0  0  0  0  0  0  0  0  0  0  0
   56.9631   29.6375   42.8819 H   0  0  0  0  0  0  0  0  0  0  0  0
   57.3175   32.9245   43.2720 H   0  0  0  0  0  0  0  0  0  0  0  0
   57.8136   35.1949   44.1234 H   0  0  0  0  0  0  0  0  0  0  0  0
   58.7529   35.5068   46.3948 H   0  0  0  0  0  0  0  0  0  0  0  0
   60.6676   35.0310   48.7872 H   0  0  0  0  0  0  0  0  0  0  0  0
   61.0546   33.3281   49.2692 H   0  0  0  0  0  0  0  0  0  0  0  0
   61.2358   33.0763   46.5857 H   0  0  0  0  0  0  0  0  0  0  0  0
   61.6963   34.8351   46.7862 H   0  0  0  0  0  0  0  0  0  0  0  0
   63.7632   34.1728   47.1859 H   0  0  0  0  0  0  0  0  0  0  0  0
   62.3649   33.2638   49.6876 H   0  0  0  0  0  0  0  0  0  0  0  0
   64.0768   32.7726   49.4534 H   0  0  0  0  0  0  0  0  0  0  0  0
   63.6338   34.5134   49.4534 H   0  0  0  0  0  0  0  0  0  0  0  0
   63.5371   31.3549   47.9856 H   0  0  0  0  0  0  0  0  0  0  0  0
   62.5478   31.6763   46.5211 H   0  0  0  0  0  0  0  0  0  0  0  0
   64.3028   32.0591   46.5211 H   0  0  0  0  0  0  0  0  0  0  0  0
   58.3970   28.6519   42.6635 H   0  0  0  0  0  0  0  0  0  0  0  0
   58.1114   26.3264   41.8127 H   0  0  0  0  0  0  0  0  0  0  0  0
   57.5670   24.4730   43.3918 H   0  0  0  0  0  0  0  0  0  0  0  0
   57.4188   24.9230   45.8409 H   0  0  0  0  0  0  0  0  0  0  0  0
   56.8085   27.7046   47.4168 H   0  0  0  0  0  0  0  0  0  0  0  0
   58.0234   26.4043   47.6519 H   0  0  0  0  0  0  0  0  0  0  0  0
   58.8114   28.6521   48.4803 H   0  0  0  0  0  0  0  0  0  0  0  0
   59.8524   27.9695   47.1714 H   0  0  0  0  0  0  0  0  0  0  0  0
  1  2  1  0
  2  3  1  0
  3  4  1  0
  3  5  1  0
  5  6  1  0
  6  7  1  0
  7  8  1  0
  8  9  2  0
  9 10  1  0
 10 11  2  0
 11 12  1  0
 11 13  1  0
 13 14  2  0
 14 15  1  0
 15 16  2  0
 16 17  1  0
 17 18  1  0
 18 19  1  0
 19 20  1  0
 20 21  1  0
 21 22  1  0
 21 23  1  0
 17 24  2  0
 10 25  1  0
 25 26  2  0
 26 27  1  0
 27 28  2  0
 28 29  1  0
 29 30  2  0
 30 31  1  0
 31 32  1  0
 24  8  1  0
 30 25  1  0
 32  9  1  0
 24 13  1  0
  1 33  1  0
  1 34  1  0
  1 35  1  0
  2 36  1  0
  2 37  1  0
  4 38  1  0
  4 39  1  0
  4 40  1  0
  5 41  1  0
  5 42  1  0
  6 43  1  0
  6 44  1  0
  7 45  1  0
 12 46  1  0
 12 47  1  0
 12 48  1  0
 14 49  1  0
 15 50  1  0
 16 51  1  0
 19 52  1  0
 19 53  1  0
 20 54  1  0
 20 55  1  0
 21 56  1  0
 22 57  1  0
 22 58  1  0
 22 59  1  0
 23 60  1  0
 23 61  1  0
 23 62  1  0
 26 63  1  0
 27 64  1  0
 28 65  1  0
 29 66  1  0
 31 67  1  0
 31 68  1  0
 32 69  1  0
 32 70  1  0
M  CHG  1  11   1
M  END
>  <UniqueID>  (9) 
9

>  <SMILES>  (9) 
CCN(C)CCNc1c2c([n+](C)c3cccc(OCCC(C)C)c13)-c1ccccc1CC2

>  <Energy>  (9) 
99.52341764977213

>  <Genealogy>  (9) 
CCN(C)CCNc1c2c([n+](C)c3cccc(OCCC(C)C)c13)-c1ccccc1CC2 (3D coordinates assigned)
CCN(C)CCNc1c2c([n+](C)c3cccc(OCCC(C)C)c13)-c1ccccc1CC2 (nonaromatic ring conformer: 99.52341764977213 kcal/mol)

>  <smiles>  (9) 
CCN(C)CCNc1c2c([n+](C)c3cccc(OCCC(C)C)c13)-c1ccccc1CC2

>  <score_type>  (9) 
oracle

>  <origin>  (9) 
adg

>  <m_score__min__energy>  (9) 
-6.3600000000000003

>  <m_primary>  (9) 
energy

$$$$
9:0
     RDKit          3D

 46 46  0  0  0  0  0  0  0  0999 V2000
   60.6540   26.3390   46.3790 C   0  0  0  0  0  0  0  0  0  0  0  0
   59.7450   27.1170   47.3370 C   0  0  0  0  0  0  0  0  0  0  0  0
   59.0480   28.2290   46.6670 N   0  0  0  0  0  0  0  0  0  0  0  0
   59.8030   29.4950   46.7330 C   0  0  0  0  0  0  0  0  0  0  0  0
   59.2700   30.5450   45.7370 C   0  0  0  0  0  0  0  0  0  0  0  0
   57.8500   31.0430   46.0690 C   0  0  0  0  0  0  0  0  0  0  0  0
   56.9920   31.0880   44.8630 N   0  0  0  0  0  0  0  0  0  0  0  0
   57.7570   31.4980   43.6710 C   0  0  0  0  0  0  0  0  0  0  0  0
   56.2150   29.8470   44.6280 C   0  0  0  0  0  0  0  0  0  0  0  0
   57.0490   28.5850   44.6920 C   0  0  0  0  0  0  0  0  0  0  0  0
   58.0740   28.4940   43.9640 O   0  0  0  0  0  0  0  0  0  0  0  0
   56.7640   27.5280   45.6170 N   0  0  0  0  0  0  0  0  0  0  0  0
   56.7400   26.1290   45.3070 C   0  0  0  0  0  0  0  0  0  0  0  0
   57.7610   25.5890   44.5250 C   0  0  0  0  0  0  0  0  0  0  0  0
   57.7400   24.2370   44.1710 C   0  0  0  0  0  0  0  0  0  0  0  0
   56.6720   23.4090   44.5670 C   0  0  0  0  0  0  0  0  0  0  0  0
   56.6090   21.9800   44.1620 C   0  0  0  0  0  0  0  0  0  0  0  0
   57.2910   20.9020   44.9490 C   0  0  0  0  0  0  0  0  0  0  0  0
   55.9580   21.6490   43.1320 O   0  0  0  0  0  0  0  0  0  0  0  0
   55.6370   23.9660   45.3400 C   0  0  0  0  0  0  0  0  0  0  0  0
   55.6680   25.3160   45.7000 C   0  0  0  0  0  0  0  0  0  0  0  0
   61.3639   25.7314   46.9594 H   0  0  0  0  0  0  0  0  0  0  0  0
   60.0412   25.6813   45.7450 H   0  0  0  0  0  0  0  0  0  0  0  0
   61.2092   27.0460   45.7450 H   0  0  0  0  0  0  0  0  0  0  0  0
   58.9947   26.4274   47.7511 H   0  0  0  0  0  0  0  0  0  0  0  0
   60.3778   27.5446   48.1287 H   0  0  0  0  0  0  0  0  0  0  0  0
   58.9140   27.9620   45.6630 H   0  0  0  0  0  0  0  0  0  0  0  0
   58.1080   28.3520   47.1090 H   0  0  0  0  0  0  0  0  0  0  0  0
   59.7241   29.9016   47.7521 H   0  0  0  0  0  0  0  0  0  0  0  0
   60.8483   29.2785   46.4676 H   0  0  0  0  0  0  0  0  0  0  0  0
   59.9518   31.4082   45.7431 H   0  0  0  0  0  0  0  0  0  0  0  0
   59.2200   30.0594   44.7513 H   0  0  0  0  0  0  0  0  0  0  0  0
   57.3961   30.3628   46.8048 H   0  0  0  0  0  0  0  0  0  0  0  0
   57.9290   32.0630   46.4732 H   0  0  0  0  0  0  0  0  0  0  0  0
   58.6862   31.9960   43.9851 H   0  0  0  0  0  0  0  0  0  0  0  0
   58.0020   30.6103   43.0694 H   0  0  0  0  0  0  0  0  0  0  0  0
   57.1535   32.1936   43.0694 H   0  0  0  0  0  0  0  0  0  0  0  0
   55.4264   29.7812   45.3921 H   0  0  0  0  0  0  0  0  0  0  0  0
   55.8074   29.9114   43.6083 H   0  0  0  0  0  0  0  0  0  0  0  0
   58.5872   26.2307   44.1850 H   0  0  0  0  0  0  0  0  0  0  0  0
   58.5651   23.8160   43.5778 H   0  0  0  0  0  0  0  0  0  0  0  0
   57.1667   21.0985   46.0242 H   0  0  0  0  0  0  0  0  0  0  0  0
   56.8444   19.9280   44.7002 H   0  0  0  0  0  0  0  0  0  0  0  0
   58.3624   20.8884   44.7002 H   0  0  0  0  0  0  0  0  0  0  0  0
   54.7968   23.3340   45.6636 H   0  0  0  0  0  0  0  0  0  0  0  0
   54.8469   25.7427   46.2948 H   0  0  0  0  0  0  0  0  0  0  0  0
  1  2  1  0
  2  3  1  0
  3  4  1  0
  4  5  1  0
  5  6  1  0
  6  7  1  0
  7  8  1  0
  7  9  1  0
  9 10  1  0
 10 11  2  0
 10 12  1  0
 12 13  1  0
 13 14  2  0
 14 15  1  0
 15 16  2  0
 16 17  1  0
 17 18  1  0
 17 19  2  0
 16 20  1  0
 20 21  2  0
 21 13  1  0
  1 22  1  0
  1 23  1  0
  1 24  1  0
  2 25  1  0
  2 26  1  0
  3 27  1  0
  3 28  1  0
  4 29  1  0
  4 30  1  0
  5 31  1  0
  5 32  1  0
  6 33  1  0
  6 34  1  0
  8 35  1  0
  8 36  1  0
  8 37  1  0
  9 38  1  0
  9 39  1  0
 14 40  1  0
 15 41  1  0
 18 42  1  0
 18 43  1  0
 18 44  1  0
 20 45  1  0
 21 46  1  0
M  CHG  2   3   1  12  -1
M  END
>  <UniqueID>  (10) 
10

>  <SMILES>  (10) 
CC[NH2+]CCCN(C)CC(=O)[N-]c1ccc(C(C)=O)cc1

>  <Energy>  (10) 
48.44295092464744

>  <Genealogy>  (10) 
CC[NH2+]CCCN(C)CC(=O)[N-]c1ccc(C(C)=O)cc1 (protonated)
CC[NH2+]CCCN(C)CC(=O)[N-]c1ccc(C(C)=O)cc1 (3D coordinates assigned)
CC[NH2+]CCCN(C)CC(=O)[N-]c1ccc(C(C)=O)cc1 (optimized conformer: 48.44295092464744 kcal/mol)

>  <smiles>  (10) 
CCNCCCN(C)CC(=O)Nc1ccc(C(C)=O)cc1

>  <score_type>  (10) 
oracle

>  <origin>  (10) 
adg

>  <m_score__min__energy>  (10) 
-5.5199999999999996

>  <m_primary>  (10) 
energy

$$$$
10:0
     RDKit          3D

 50 52  0  0  0  0  0  0  0  0999 V2000
   58.5100   29.3160   46.6620 C   0  0  0  0  0  0  0  0  0  0  0  0
   58.4860   29.9270   45.2630 C   0  0  0  0  0  0  0  0  0  0  0  0
   57.3790   30.8930   45.1110 N   0  0  0  0  0  0  0  0  0  0  0  0
   56.2270   30.3020   44.4080 C   0  0  0  0  0  0  0  0  0  0  0  0
   57.7530   32.2450   44.6190 C   0  0  0  0  0  0  0  0  0  0  0  0
   57.1620   33.4520   45.3860 C   0  0  0  0  0  0  0  0  0  0  0  0
   57.8400   33.7280   46.7320 C   0  0  0  0  0  0  0  0  0  0  0  0
   58.7510   32.6400   47.0900 N   0  0  0  0  0  0  0  0  0  0  0  0
   59.7410   32.8350   48.1060 C   0  0  0  0  0  0  0  0  0  0  0  0
   61.0280   33.2210   47.7480 C   0  0  0  0  0  0  0  0  0  0  0  0
   62.0080   33.3780   48.6920 C   0  0  0  0  0  0  0  0  0  0  0  0
   61.7700   33.1690   50.0290 N   0  0  0  0  0  0  0  0  0  0  0  0
   62.8590   33.3370   51.0110 C   0  0  0  0  0  0  0  0  0  0  0  0
   60.4960   32.8080   50.4370 C   0  0  0  0  0  0  0  0  0  0  0  0
   60.1820   32.6000   51.8020 C   0  0  0  0  0  0  0  0  0  0  0  0
   58.8900   32.2520   52.1960 C   0  0  0  0  0  0  0  0  0  0  0  0
   57.8790   32.1100   51.2490 C   0  0  0  0  0  0  0  0  0  0  0  0
   58.1540   32.3050   49.8970 C   0  0  0  0  0  0  0  0  0  0  0  0
   59.4530   32.6410   49.4720 C   0  0  0  0  0  0  0  0  0  0  0  0
   63.3020   33.7680   48.0640 C   0  0  0  0  0  0  0  0  0  0  0  0
   62.9900   33.8710   46.5610 C   0  0  0  0  0  0  0  0  0  0  0  0
   61.5190   33.4710   46.3710 C   0  0  0  0  0  0  0  0  0  0  0  0
   58.4785   30.1188   47.4133 H   0  0  0  0  0  0  0  0  0  0  0  0
   57.6370   28.6592   46.7903 H   0  0  0  0  0  0  0  0  0  0  0  0
   59.4319   28.7297   46.7903 H   0  0  0  0  0  0  0  0  0  0  0  0
   59.4394   30.4454   45.0834 H   0  0  0  0  0  0  0  0  0  0  0  0
   58.3371   29.1155   44.5354 H   0  0  0  0  0  0  0  0  0  0  0  0
   55.5000   29.9290   45.1445 H   0  0  0  0  0  0  0  0  0  0  0  0
   55.7505   31.0670   43.7773 H   0  0  0  0  0  0  0  0  0  0  0  0
   56.5704   29.4687   43.7773 H   0  0  0  0  0  0  0  0  0  0  0  0
   58.8491   32.3251   44.6653 H   0  0  0  0  0  0  0  0  0  0  0  0
   57.3297   32.3111   43.6059 H   0  0  0  0  0  0  0  0  0  0  0  0
   57.2672   34.3474   44.7557 H   0  0  0  0  0  0  0  0  0  0  0  0
   56.1117   33.2076   45.6031 H   0  0  0  0  0  0  0  0  0  0  0  0
   58.4094   34.6666   46.6628 H   0  0  0  0  0  0  0  0  0  0  0  0
   57.0637   33.8062   47.5074 H   0  0  0  0  0  0  0  0  0  0  0  0
   58.5760   31.6660   46.7530 H   0  0  0  0  0  0  0  0  0  0  0  0
   62.4476   33.2735   52.0292 H   0  0  0  0  0  0  0  0  0  0  0  0
   63.6074   32.5437   50.8678 H   0  0  0  0  0  0  0  0  0  0  0  0
   63.3336   34.3190   50.8678 H   0  0  0  0  0  0  0  0  0  0  0  0
   60.9683   32.7145   52.5626 H   0  0  0  0  0  0  0  0  0  0  0  0
   58.6684   32.0888   53.2610 H   0  0  0  0  0  0  0  0  0  0  0  0
   56.8609   31.8433   51.5690 H   0  0  0  0  0  0  0  0  0  0  0  0
   57.3489   32.1954   49.1555 H   0  0  0  0  0  0  0  0  0  0  0  0
   63.6474   34.7360   48.4559 H   0  0  0  0  0  0  0  0  0  0  0  0
   64.1024   33.0435   48.2747 H   0  0  0  0  0  0  0  0  0  0  0  0
   63.1473   34.9028   46.2138 H   0  0  0  0  0  0  0  0  0  0  0  0
   63.6511   33.2111   45.9801 H   0  0  0  0  0  0  0  0  0  0  0  0
   60.9517   34.2853   45.8965 H   0  0  0  0  0  0  0  0  0  0  0  0
   61.4023   32.5943   45.7169 H   0  0  0  0  0  0  0  0  0  0  0  0
  1  2  1  0
  2  3  1  0
  3  4  1  0
  3  5  1  0
  5  6  1  0
  6  7  1  0
  7  8  1  0
  8  9  1  0
  9 10  2  0
 10 11  1  0
 11 12  2  0
 12 13  1  0
 12 14  1  0
 14 15  2  0
 15 16  1  0
 16 17  2  0
 17 18  1  0
 18 19  2  0
 11 20  1  0
 20 21  1  0
 21 22  1  0
 19  9  1  0
 22 10  1  0
 19 14  1  0
  1 23  1  0
  1 24  1  0
  1 25  1  0
  2 26  1  0
  2 27  1  0
  4 28  1  0
  4 29  1  0
  4 30  1  0
  5 31  1  0
  5 32  1  0
  6 33  1  0
  6 34  1  0
  7 35  1  0
  7 36  1  0
  8 37  1  0
 13 38  1  0
 13 39  1  0
 13 40  1  0
 15 41  1  0
 16 42  1  0
 17 43  1  0
 18 44  1  0
 20 45  1  0
 20 46  1  0
 21 47  1  0
 21 48  1  0
 22 49  1  0
 22 50  1  0
M  CHG  1  12   1
M  END
>  <UniqueID>  (11) 
11

>  <SMILES>  (11) 
CCN(C)CCCNc1c2c([n+](C)c3ccccc13)CCC2

>  <Energy>  (11) 
75.62880599789091

>  <Genealogy>  (11) 
CCN(C)CCCNc1c2c([n+](C)c3ccccc13)CCC2 (3D coordinates assigned)
CCN(C)CCCNc1c2c([n+](C)c3ccccc13)CCC2 (nonaromatic ring conformer: 75.62880599789091 kcal/mol)

>  <smiles>  (11) 
CCN(C)CCCNc1c2c([n+](C)c3ccccc13)CCC2

>  <score_type>  (11) 
oracle

>  <origin>  (11) 
adg

>  <m_score__min__energy>  (11) 
-5.1799999999999997

>  <m_primary>  (11) 
energy

$$$$
11:0
     RDKit          3D

 80 83  0  0  0  0  0  0  0  0999 V2000
   52.2410   31.5670   51.2750 C   0  0  0  0  0  0  0  0  0  0  0  0
   53.2670   30.4660   51.0400 C   0  0  0  0  0  0  0  0  0  0  0  0
   54.5580   30.8420   51.6400 N   0  0  0  0  0  0  0  0  0  0  0  0
   55.2020   29.7310   52.3660 C   0  0  0  0  0  0  0  0  0  0  0  0
   56.7320   29.8660   52.4200 C   0  0  0  0  0  0  0  0  0  0  0  0
   57.2020   30.4850   51.2430 O   0  0  0  0  0  0  0  0  0  0  0  0
   57.3990   31.8650   51.4670 C   0  0  0  0  0  0  0  0  0  0  0  0
   58.6390   32.3460   50.6970 C   0  0  0  0  0  0  0  0  0  0  0  0
   58.4000   32.5030   49.1870 C   0  0  0  0  0  0  0  0  0  0  0  0
   59.4260   31.8240   48.3990 N   0  0  0  0  0  0  0  0  0  0  0  0
   59.0740   30.9290   47.3410 C   0  0  0  0  0  0  0  0  0  0  0  0
   58.6230   31.4770   46.1260 C   0  0  0  0  0  0  0  0  0  0  0  0
   58.3890   32.8660   46.0070 C   0  0  0  0  0  0  0  0  0  0  0  0
   57.9480   33.4140   44.8050 C   0  0  0  0  0  0  0  0  0  0  0  0
   57.7550   32.5980   43.6980 C   0  0  0  0  0  0  0  0  0  0  0  0
   57.9960   31.2260   43.7890 C   0  0  0  0  0  0  0  0  0  0  0  0
   58.4120   30.6320   45.0090 C   0  0  0  0  0  0  0  0  0  0  0  0
   58.6590   29.2780   45.1110 N   0  0  0  0  0  0  0  0  0  0  0  0
   58.2480   28.3690   44.0180 C   0  0  0  0  0  0  0  0  0  0  0  0
   59.2510   28.7650   46.2500 C   0  0  0  0  0  0  0  0  0  0  0  0
   59.8420   27.4800   46.2480 C   0  0  0  0  0  0  0  0  0  0  0  0
   60.3540   26.9250   47.4130 C   0  0  0  0  0  0  0  0  0  0  0  0
   60.2060   27.5880   48.6200 C   0  0  0  0  0  0  0  0  0  0  0  0
   59.6070   28.8600   48.6820 C   0  0  0  0  0  0  0  0  0  0  0  0
   59.2050   29.3360   49.9980 N   0  0  0  0  0  0  0  0  0  0  0  0
   60.3160   29.2810   50.9790 C   0  0  0  0  0  0  0  0  0  0  0  0
   61.7010   29.5670   50.3590 C   0  0  0  0  0  0  0  0  0  0  0  0
   62.1580   31.0170   50.5780 C   0  0  0  0  0  0  0  0  0  0  0  0
   61.8800   31.8690   49.3990 N   0  0  0  0  0  0  0  0  0  0  0  0
   62.5880   31.3750   48.1860 C   0  0  0  0  0  0  0  0  0  0  0  0
   62.9240   32.4990   47.1960 C   0  0  0  0  0  0  0  0  0  0  0  0
   63.8510   33.5390   47.8470 C   0  0  0  0  0  0  0  0  0  0  0  0
   63.5660   33.7280   49.3480 C   0  0  0  0  0  0  0  0  0  0  0  0
   62.1360   33.3040   49.7030 C   0  0  0  0  0  0  0  0  0  0  0  0
   59.3020   29.5340   47.4490 C   0  0  0  0  0  0  0  0  0  0  0  0
   52.1031   31.7150   52.3562 H   0  0  0  0  0  0  0  0  0  0  0  0
   52.5965   32.5029   50.8192 H   0  0  0  0  0  0  0  0  0  0  0  0
   51.2824   31.2783   50.8192 H   0  0  0  0  0  0  0  0  0  0  0  0
   52.9104   29.5322   51.4992 H   0  0  0  0  0  0  0  0  0  0  0  0
   53.4007   30.3231   49.9575 H   0  0  0  0  0  0  0  0  0  0  0  0
   55.1980   31.2090   50.8960 H   0  0  0  0  0  0  0  0  0  0  0  0
   54.8139   29.7112   53.3951 H   0  0  0  0  0  0  0  0  0  0  0  0
   54.9692   28.8016   51.8256 H   0  0  0  0  0  0  0  0  0  0  0  0
   57.0136   30.4767   53.2905 H   0  0  0  0  0  0  0  0  0  0  0  0
   57.1806   28.8654   52.5064 H   0  0  0  0  0  0  0  0  0  0  0  0
   56.5155   32.4210   51.1202 H   0  0  0  0  0  0  0  0  0  0  0  0
   57.5489   32.0404   52.5425 H   0  0  0  0  0  0  0  0  0  0  0  0
   58.9453   33.3208   51.1043 H   0  0  0  0  0  0  0  0  0  0  0  0
   59.4165   31.5782   50.8235 H   0  0  0  0  0  0  0  0  0  0  0  0
   57.4181   32.0754   48.9361 H   0  0  0  0  0  0  0  0  0  0  0  0
   58.4392   33.5755   48.9456 H   0  0  0  0  0  0  0  0  0  0  0  0
   60.4350   31.9010   48.6460 H   0  0  0  0  0  0  0  0  0  0  0  0
   58.5572   33.5218   46.8740 H   0  0  0  0  0  0  0  0  0  0  0  0
   57.7524   34.4940   44.7324 H   0  0  0  0  0  0  0  0  0  0  0  0
   57.4117   33.0334   42.7480 H   0  0  0  0  0  0  0  0  0  0  0  0
   57.8610   30.5938   42.8990 H   0  0  0  0  0  0  0  0  0  0  0  0
   57.8306   27.4458   44.4463 H   0  0  0  0  0  0  0  0  0  0  0  0
   57.4856   28.8628   43.3976 H   0  0  0  0  0  0  0  0  0  0  0  0
   59.1223   28.1227   43.3976 H   0  0  0  0  0  0  0  0  0  0  0  0
   59.8968   26.9111   45.3081 H   0  0  0  0  0  0  0  0  0  0  0  0
   60.8775   25.9582   47.3774 H   0  0  0  0  0  0  0  0  0  0  0  0
   60.5626   27.1124   49.5456 H   0  0  0  0  0  0  0  0  0  0  0  0
   58.9040   30.3350   49.8920 H   0  0  0  0  0  0  0  0  0  0  0  0
   58.3890   28.8480   50.4050 H   0  0  0  0  0  0  0  0  0  0  0  0
   60.1249   30.0281   51.7635 H   0  0  0  0  0  0  0  0  0  0  0  0
   60.3454   28.2559   51.3768 H   0  0  0  0  0  0  0  0  0  0  0  0
   62.4386   28.8920   50.8177 H   0  0  0  0  0  0  0  0  0  0  0  0
   61.6208   29.4031   49.2742 H   0  0  0  0  0  0  0  0  0  0  0  0
   61.6262   31.4297   51.4480 H   0  0  0  0  0  0  0  0  0  0  0  0
   63.2454   31.0098   50.7439 H   0  0  0  0  0  0  0  0  0  0  0  0
   63.5245   30.8899   48.4985 H   0  0  0  0  0  0  0  0  0  0  0  0
   61.9161   30.6711   47.6732 H   0  0  0  0  0  0  0  0  0  0  0  0
   63.4260   32.0679   46.3173 H   0  0  0  0  0  0  0  0  0  0  0  0
   61.9899   32.9968   46.8965 H   0  0  0  0  0  0  0  0  0  0  0  0
   64.8928   33.2078   47.7251 H   0  0  0  0  0  0  0  0  0  0  0  0
   63.6714   34.5035   47.3495 H   0  0  0  0  0  0  0  0  0  0  0  0
   64.2746   33.1172   49.9266 H   0  0  0  0  0  0  0  0  0  0  0  0
   63.6815   34.7946   49.5910 H   0  0  0  0  0  0  0  0  0  0  0  0
   61.9737   33.4723   50.7779 H   0  0  0  0  0  0  0  0  0  0  0  0
   61.4456   33.9054   49.0934 H   0  0  0  0  0  0  0  0  0  0  0  0
  1  2  1  0
  2  3  1  0
  3  4  1  0
  4  5  1  0
  5  6  1  0
  6  7  1  0
  7  8  1  0
  8  9  1  0
  9 10  1  0
 10 11  1  0
 11 12  2  0
 12 13  1  0
 13 14  2  0
 14 15  1  0
 15 16  2  0
 16 17  1  0
 17 18  2  0
 18 19  1  0
 18 20  1  0
 20 21  2  0
 21 22  1  0
 22 23  2  0
 23 24  1  0
 24 25  1  0
 25 26  1  0
 26 27  1  0
 27 28  1  0
 28 29  1  0
 29 30  1  0
 30 31  1  0
 31 32  1  0
 32 33  1  0
 33 34  1  0
 24 35  2  0
 35 11  1  0
 17 12  1  0
 35 20  1  0
 34 29  1  0
  1 36  1  0
  1 37  1  0
  1 38  1  0
  2 39  1  0
  2 40  1  0
  3 41  1  0
  4 42  1  0
  4 43  1  0
  5 44  1  0
  5 45  1  0
  7 46  1  0
  7 47  1  0
  8 48  1  0
  8 49  1  0
  9 50  1  0
  9 51  1  0
 10 52  1  0
 13 53  1  0
 14 54  1  0
 15 55  1  0
 16 56  1  0
 19 57  1  0
 19 58  1  0
 19 59  1  0
 21 60  1  0
 22 61  1  0
 23 62  1  0
 25 63  1  0
 25 64  1  0
 26 65  1  0
 26 66  1  0
 27 67  1  0
 27 68  1  0
 28 69  1  0
 28 70  1  0
 30 71  1  0
 30 72  1  0
 31 73  1  0
 31 74  1  0
 32 75  1  0
 32 76  1  0
 33 77  1  0
 33 78  1  0
 34 79  1  0
 34 80  1  0
M  CHG  2  18   1  25   1
M  END
>  <UniqueID>  (12) 
12

>  <SMILES>  (12) 
CCNCCOCCCNc1c2ccccc2[n+](C)c2cccc([NH2+]CCCN3CCCCC3)c12

>  <Energy>  (12) 
119.19104470766085

>  <Genealogy>  (12) 
CCNCCOCCCNc1c2ccccc2[n+](C)c2cccc([NH2+]CCCN3CCCCC3)c12 (protonated)
CCNCCOCCCNc1c2ccccc2[n+](C)c2cccc([NH2+]CCCN3CCCCC3)c12 (3D coordinates assigned)
CCNCCOCCCNc1c2ccccc2[n+](C)c2cccc([NH2+]CCCN3CCCCC3)c12 (nonaromatic ring conformer: 119.19104470766085 kcal/mol)

>  <smiles>  (12) 
CCNCCOCCCNc1c2ccccc2[n+](C)c2cccc(NCCCN3CCCCC3)c12

>  <score_type>  (12) 
oracle

>  <origin>  (12) 
adg

>  <m_score__min__energy>  (12) 
-4.9199999999999999

>  <m_primary>  (12) 
energy

$$$$
12:0
     RDKit          3D

 55 57  0  0  0  0  0  0  0  0999 V2000
   59.6230   33.4930   50.5260 C   0  0  0  0  0  0  0  0  0  0  0  0
   59.6580   34.3250   49.2480 C   0  0  0  0  0  0  0  0  0  0  0  0
   59.1240   33.5230   48.0500 C   0  0  0  0  0  0  0  0  0  0  0  0
   59.2820   34.2480   46.7610 N   0  0  0  0  0  0  0  0  0  0  0  0
   60.5040   33.8240   46.0080 C   0  0  0  0  0  0  0  0  0  0  0  0
   61.5810   33.2330   46.9370 C   0  0  0  0  0  0  0  0  0  0  0  0
   62.9520   33.8470   46.6570 C   0  0  0  0  0  0  0  0  0  0  0  0
   58.0560   34.1400   45.9240 C   0  0  0  0  0  0  0  0  0  0  0  0
   58.0400   32.9310   44.9690 C   0  0  0  0  0  0  0  0  0  0  0  0
   57.4110   31.8200   45.6040 O   0  0  0  0  0  0  0  0  0  0  0  0
   58.0640   30.6350   45.9790 C   0  0  0  0  0  0  0  0  0  0  0  0
   59.1420   30.6280   46.8860 C   0  0  0  0  0  0  0  0  0  0  0  0
   59.7760   29.4300   47.2220 C   0  0  0  0  0  0  0  0  0  0  0  0
   59.3460   28.2190   46.6550 C   0  0  0  0  0  0  0  0  0  0  0  0
   59.9650   26.9940   46.9470 C   0  0  0  0  0  0  0  0  0  0  0  0
   60.9450   26.9340   47.7390 O   0  0  0  0  0  0  0  0  0  0  0  0
   59.4960   25.8250   46.3460 C   0  0  0  0  0  0  0  0  0  0  0  0
   58.4060   25.8970   45.4620 C   0  0  0  0  0  0  0  0  0  0  0  0
   57.8650   24.6920   44.7870 C   0  0  0  0  0  0  0  0  0  0  0  0
   57.0210   24.7850   43.6610 C   0  0  0  0  0  0  0  0  0  0  0  0
   56.5300   23.6310   43.0450 C   0  0  0  0  0  0  0  0  0  0  0  0
   56.8810   22.3700   43.5330 C   0  0  0  0  0  0  0  0  0  0  0  0
   57.7300   22.2620   44.6370 C   0  0  0  0  0  0  0  0  0  0  0  0
   58.2230   23.4150   45.2570 C   0  0  0  0  0  0  0  0  0  0  0  0
   57.8480   27.0790   45.2060 O   0  0  0  0  0  0  0  0  0  0  0  0
   58.2620   28.2190   45.7520 C   0  0  0  0  0  0  0  0  0  0  0  0
   57.6220   29.4230   45.4220 C   0  0  0  0  0  0  0  0  0  0  0  0
   56.2630   29.4170   44.3010 Cl  0  0  0  0  0  0  0  0  0  0  0  0
   59.6511   34.1611   51.3994 H   0  0  0  0  0  0  0  0  0  0  0  0
   58.6990   32.8967   50.5501 H   0  0  0  0  0  0  0  0  0  0  0  0
   60.4937   32.8212   50.5501 H   0  0  0  0  0  0  0  0  0  0  0  0
   59.0359   35.2216   49.3860 H   0  0  0  0  0  0  0  0  0  0  0  0
   60.7015   34.6060   49.0428 H   0  0  0  0  0  0  0  0  0  0  0  0
   59.6738   32.5722   47.9892 H   0  0  0  0  0  0  0  0  0  0  0  0
   58.0482   33.3597   48.2110 H   0  0  0  0  0  0  0  0  0  0  0  0
   59.3570   35.2680   46.9930 H   0  0  0  0  0  0  0  0  0  0  0  0
   60.2179   33.0627   45.2673 H   0  0  0  0  0  0  0  0  0  0  0  0
   60.9281   34.7147   45.5214 H   0  0  0  0  0  0  0  0  0  0  0  0
   61.3038   33.4362   47.9819 H   0  0  0  0  0  0  0  0  0  0  0  0
   61.6413   32.1499   46.7544 H   0  0  0  0  0  0  0  0  0  0  0  0
   63.4544   34.0720   47.6093 H   0  0  0  0  0  0  0  0  0  0  0  0
   63.5614   33.1358   46.0800 H   0  0  0  0  0  0  0  0  0  0  0  0
   62.8272   34.7752   46.0800 H   0  0  0  0  0  0  0  0  0  0  0  0
   57.1878   34.0598   46.5947 H   0  0  0  0  0  0  0  0  0  0  0  0
   58.0284   35.0394   45.2913 H   0  0  0  0  0  0  0  0  0  0  0  0
   57.4832   33.1935   44.0574 H   0  0  0  0  0  0  0  0  0  0  0  0
   59.0741   32.6616   44.7081 H   0  0  0  0  0  0  0  0  0  0  0  0
   59.4865   31.5724   47.3325 H   0  0  0  0  0  0  0  0  0  0  0  0
   60.6151   29.4347   47.9332 H   0  0  0  0  0  0  0  0  0  0  0  0
   59.9742   24.8582   46.5618 H   0  0  0  0  0  0  0  0  0  0  0  0
   56.7471   25.7738   43.2646 H   0  0  0  0  0  0  0  0  0  0  0  0
   55.8649   23.7157   42.1729 H   0  0  0  0  0  0  0  0  0  0  0  0
   56.4894   21.4634   43.0486 H   0  0  0  0  0  0  0  0  0  0  0  0
   58.0111   21.2695   45.0191 H   0  0  0  0  0  0  0  0  0  0  0  0
   58.8976   23.3224   46.1209 H   0  0  0  0  0  0  0  0  0  0  0  0
  1  2  1  0
  2  3  1  0
  3  4  1  0
  4  5  1  0
  5  6  1  0
  6  7  1  0
  4  8  1  0
  8  9  1  0
  9 10  1  0
 10 11  1  0
 11 12  2  0
 12 13  1  0
 13 14  2  0
 14 15  1  0
 15 16  2  0
 15 17  1  0
 17 18  2  0
 18 19  1  0
 19 20  2  0
 20 21  1  0
 21 22  2  0
 22 23  1  0
 23 24  2  0
 18 25  1  0
 25 26  1  0
 26 27  2  0
 27 28  1  0
 27 11  1  0
 26 14  1  0
 24 19  1  0
  1 29  1  0
  1 30  1  0
  1 31  1  0
  2 32  1  0
  2 33  1  0
  3 34  1  0
  3 35  1  0
  4 36  1  0
  5 37  1  0
  5 38  1  0
  6 39  1  0
  6 40  1  0
  7 41  1  0
  7 42  1  0
  7 43  1  0
  8 44  1  0
  8 45  1  0
  9 46  1  0
  9 47  1  0
 12 48  1  0
 13 49  1  0
 17 50  1  0
 20 51  1  0
 21 52  1  0
 22 53  1  0
 23 54  1  0
 24 55  1  0
M  CHG  1   4   1
M  END
>  <UniqueID>  (13) 
13

>  <SMILES>  (13) 
CCC[NH+](CCC)CCOc1ccc2c(=O)cc(-c3ccccc3)oc2c1Cl

>  <Energy>  (13) 
63.845662571295605

>  <Genealogy>  (13) 
CCC[NH+](CCC)CCOc1ccc2c(=O)cc(-c3ccccc3)oc2c1Cl (protonated)
CCC[NH+](CCC)CCOc1ccc2c(=O)cc(-c3ccccc3)oc2c1Cl (3D coordinates assigned)
CCC[NH+](CCC)CCOc1ccc2c(=O)cc(-c3ccccc3)oc2c1Cl (optimized conformer: 63.845662571295605 kcal/mol)

>  <smiles>  (13) 
CCCN(CCC)CCOc1ccc2c(=O)cc(-c3ccccc3)oc2c1Cl

>  <score_type>  (13) 
oracle

>  <origin>  (13) 
adg

>  <m_score__min__energy>  (13) 
-6.0999999999999996

>  <m_primary>  (13) 
energy

$$$$
13:0
     RDKit          3D

 51 54  0  0  0  0  0  0  0  0999 V2000
   62.6980   31.5930   48.8160 C   0  0  0  0  0  0  0  0  0  0  0  0
   62.3770   31.4340   50.3000 C   0  0  0  0  0  0  0  0  0  0  0  0
   61.3150   30.4350   50.5030 N   0  0  0  0  0  0  0  0  0  0  0  0
   59.9620   31.0180   50.3960 C   0  0  0  0  0  0  0  0  0  0  0  0
   59.1280   30.4120   49.2480 C   0  0  0  0  0  0  0  0  0  0  0  0
   59.9090   30.2510   48.0220 N   0  0  0  0  0  0  0  0  0  0  0  0
   59.4100   30.7870   46.7910 C   0  0  0  0  0  0  0  0  0  0  0  0
   59.3700   32.1800   46.5570 C   0  0  0  0  0  0  0  0  0  0  0  0
   59.7950   33.0860   47.5500 C   0  0  0  0  0  0  0  0  0  0  0  0
   59.7240   34.4600   47.3360 C   0  0  0  0  0  0  0  0  0  0  0  0
   59.2260   34.9570   46.1360 C   0  0  0  0  0  0  0  0  0  0  0  0
   58.8110   34.0850   45.1290 C   0  0  0  0  0  0  0  0  0  0  0  0
   58.8930   32.6810   45.2990 C   0  0  0  0  0  0  0  0  0  0  0  0
   58.5180   31.8030   44.2920 N   0  0  0  0  0  0  0  0  0  0  0  0
   58.1270   32.2890   42.9560 C   0  0  0  0  0  0  0  0  0  0  0  0
   58.5030   30.4610   44.5710 C   0  0  0  0  0  0  0  0  0  0  0  0
   58.0480   29.4720   43.7600 N   0  0  0  0  0  0  0  0  0  0  0  0
   58.2030   28.3370   44.4680 C   0  0  0  0  0  0  0  0  0  0  0  0
   57.8450   27.0500   44.0680 C   0  0  0  0  0  0  0  0  0  0  0  0
   58.0560   25.9860   44.9700 C   0  0  0  0  0  0  0  0  0  0  0  0
   57.6610   24.5880   44.5900 C   0  0  0  0  0  0  0  0  0  0  0  0
   58.5870   26.2490   46.2590 C   0  0  0  0  0  0  0  0  0  0  0  0
   58.7580   25.2370   47.1480 F   0  0  0  0  0  0  0  0  0  0  0  0
   58.9300   27.5570   46.6370 C   0  0  0  0  0  0  0  0  0  0  0  0
   58.7410   28.5840   45.7120 C   0  0  0  0  0  0  0  0  0  0  0  0
   58.9370   29.9530   45.7800 C   0  0  0  0  0  0  0  0  0  0  0  0
   63.6785   32.0787   48.7029 H   0  0  0  0  0  0  0  0  0  0  0  0
   62.7221   30.6026   48.3379 H   0  0  0  0  0  0  0  0  0  0  0  0
   61.9248   32.2123   48.3379 H   0  0  0  0  0  0  0  0  0  0  0  0
   63.2835   31.1093   50.8319 H   0  0  0  0  0  0  0  0  0  0  0  0
   62.0288   32.4017   50.6902 H   0  0  0  0  0  0  0  0  0  0  0  0
   61.4420   29.9570   51.4250 H   0  0  0  0  0  0  0  0  0  0  0  0
   61.4100   29.7070   49.7560 H   0  0  0  0  0  0  0  0  0  0  0  0
   59.4307   30.8446   51.3434 H   0  0  0  0  0  0  0  0  0  0  0  0
   60.0840   32.0898   50.1809 H   0  0  0  0  0  0  0  0  0  0  0  0
   58.7560   29.4259   49.5629 H   0  0  0  0  0  0  0  0  0  0  0  0
   58.2995   31.1026   49.0319 H   0  0  0  0  0  0  0  0  0  0  0  0
   60.6300   29.4970   47.9610 H   0  0  0  0  0  0  0  0  0  0  0  0
   60.1868   32.7034   48.5040 H   0  0  0  0  0  0  0  0  0  0  0  0
   60.0629   35.1548   48.1185 H   0  0  0  0  0  0  0  0  0  0  0  0
   59.1590   36.0438   45.9801 H   0  0  0  0  0  0  0  0  0  0  0  0
   58.4139   34.4941   44.1883 H   0  0  0  0  0  0  0  0  0  0  0  0
   57.4407   33.1420   43.0625 H   0  0  0  0  0  0  0  0  0  0  0  0
   59.0241   32.6068   42.4044 H   0  0  0  0  0  0  0  0  0  0  0  0
   57.6245   31.4808   42.4044 H   0  0  0  0  0  0  0  0  0  0  0  0
   57.6170   29.5420   42.8130 H   0  0  0  0  0  0  0  0  0  0  0  0
   57.4091   26.8690   43.0744 H   0  0  0  0  0  0  0  0  0  0  0  0
   57.4932   23.9941   45.5005 H   0  0  0  0  0  0  0  0  0  0  0  0
   56.7359   24.6171   43.9955 H   0  0  0  0  0  0  0  0  0  0  0  0
   58.4645   24.1287   43.9955 H   0  0  0  0  0  0  0  0  0  0  0  0
   59.3374   27.7666   47.6371 H   0  0  0  0  0  0  0  0  0  0  0  0
  1  2  1  0
  2  3  1  0
  3  4  1  0
  4  5  1  0
  5  6  1  0
  6  7  1  0
  7  8  2  0
  8  9  1  0
  9 10  2  0
 10 11  1  0
 11 12  2  0
 12 13  1  0
 13 14  2  0
 14 15  1  0
 14 16  1  0
 16 17  1  0
 17 18  1  0
 18 19  2  0
 19 20  1  0
 20 21  1  0
 20 22  2  0
 22 23  1  0
 22 24  1  0
 24 25  2  0
 25 26  1  0
 26  7  1  0
 13  8  1  0
 26 16  2  0
 25 18  1  0
  1 27  1  0
  1 28  1  0
  1 29  1  0
  2 30  1  0
  2 31  1  0
  3 32  1  0
  3 33  1  0
  4 34  1  0
  4 35  1  0
  5 36  1  0
  5 37  1  0
  6 38  1  0
  9 39  1  0
 10 40  1  0
 11 41  1  0
 12 42  1  0
 15 43  1  0
 15 44  1  0
 15 45  1  0
 17 46  1  0
 19 47  1  0
 21 48  1  0
 21 49  1  0
 21 50  1  0
 24 51  1  0
M  CHG  2   3   1  14   1
M  END
>  <UniqueID>  (14) 
14

>  <SMILES>  (14) 
CC[NH2+]CCNc1c2ccccc2[n+](C)c2[nH]c3cc(C)c(F)cc3c12

>  <Energy>  (14) 
108.53154304493641

>  <Genealogy>  (14) 
CC[NH2+]CCNc1c2ccccc2[n+](C)c2[nH]c3cc(C)c(F)cc3c12 (protonated)
CC[NH2+]CCNc1c2ccccc2[n+](C)c2[nH]c3cc(C)c(F)cc3c12 (3D coordinates assigned)
CC[NH2+]CCNc1c2ccccc2[n+](C)c2[nH]c3cc(C)c(F)cc3c12 (optimized conformer: 108.53154304493641 kcal/mol)

>  <smiles>  (14) 
CCNCCNc1c2ccccc2[n+](C)c2[nH]c3cc(C)c(F)cc3c12

>  <score_type>  (14) 
oracle

>  <origin>  (14) 
adg

>  <m_score__min__energy>  (14) 
-5.2300000000000004

>  <m_primary>  (14) 
energy

$$$$
14:0
     RDKit          3D

 55 58  0  0  0  0  0  0  0  0999 V2000
   63.6450   32.1500   47.5430 C   0  0  0  0  0  0  0  0  0  0  0  0
   63.3190   31.8970   49.0200 C   0  0  0  0  0  0  0  0  0  0  0  0
   61.9360   31.3810   49.1890 N   0  0  0  0  0  0  0  0  0  0  0  0
   61.7170   30.2330   49.9270 C   0  0  0  0  0  0  0  0  0  0  0  0
   62.5710   29.8490   50.9870 C   0  0  0  0  0  0  0  0  0  0  0  0
   62.3430   28.6650   51.6960 C   0  0  0  0  0  0  0  0  0  0  0  0
   61.2630   27.8460   51.3660 C   0  0  0  0  0  0  0  0  0  0  0  0
   60.4010   28.2100   50.3310 C   0  0  0  0  0  0  0  0  0  0  0  0
   60.6140   29.4030   49.6210 C   0  0  0  0  0  0  0  0  0  0  0  0
   59.7560   29.7660   48.5860 C   0  0  0  0  0  0  0  0  0  0  0  0
   59.8950   31.0110   47.9600 C   0  0  0  0  0  0  0  0  0  0  0  0
   59.0100   31.4260   46.9490 C   0  0  0  0  0  0  0  0  0  0  0  0
   58.0250   30.5220   46.4250 N   0  0  0  0  0  0  0  0  0  0  0  0
   58.4010   29.2680   45.7740 C   0  0  0  0  0  0  0  0  0  0  0  0
   57.4950   29.0050   44.5680 C   0  0  0  0  0  0  0  0  0  0  0  0
   56.5890   30.1530   44.3400 N   0  0  0  0  0  0  0  0  0  0  0  0
   55.2640   29.6910   43.8870 C   0  0  0  0  0  0  0  0  0  0  0  0
   57.1610   31.0630   43.3340 C   0  0  0  0  0  0  0  0  0  0  0  0
   59.1050   32.7340   46.4450 C   0  0  0  0  0  0  0  0  0  0  0  0
   58.2720   33.1700   45.3940 C   0  0  0  0  0  0  0  0  0  0  0  0
   58.3650   34.4720   44.9090 C   0  0  0  0  0  0  0  0  0  0  0  0
   59.2800   35.3610   45.4650 C   0  0  0  0  0  0  0  0  0  0  0  0
   60.1070   34.9550   46.5120 C   0  0  0  0  0  0  0  0  0  0  0  0
   60.0350   33.6360   47.0250 C   0  0  0  0  0  0  0  0  0  0  0  0
   60.8380   33.2250   48.0690 N   0  0  0  0  0  0  0  0  0  0  0  0
   61.4030   34.2470   48.9780 C   0  0  0  0  0  0  0  0  0  0  0  0
   60.9160   31.8860   48.4000 C   0  0  0  0  0  0  0  0  0  0  0  0
   64.5120   32.8229   47.4689 H   0  0  0  0  0  0  0  0  0  0  0  0
   63.8791   31.1948   47.0503 H   0  0  0  0  0  0  0  0  0  0  0  0
   62.7777   32.6138   47.0503 H   0  0  0  0  0  0  0  0  0  0  0  0
   64.0282   31.1583   49.4216 H   0  0  0  0  0  0  0  0  0  0  0  0
   63.4011   32.8512   49.5611 H   0  0  0  0  0  0  0  0  0  0  0  0
   63.4242   30.4887   51.2569 H   0  0  0  0  0  0  0  0  0  0  0  0
   63.0175   28.3788   52.5164 H   0  0  0  0  0  0  0  0  0  0  0  0
   61.0909   26.9127   51.9221 H   0  0  0  0  0  0  0  0  0  0  0  0
   59.5522   27.5608   50.0703 H   0  0  0  0  0  0  0  0  0  0  0  0
   58.9668   29.0729   48.2592 H   0  0  0  0  0  0  0  0  0  0  0  0
   57.0170   30.7960   46.4740 H   0  0  0  0  0  0  0  0  0  0  0  0
   59.4458   29.3332   45.4360 H   0  0  0  0  0  0  0  0  0  0  0  0
   58.2893   28.4431   46.4931 H   0  0  0  0  0  0  0  0  0  0  0  0
   58.1175   28.8521   43.6741 H   0  0  0  0  0  0  0  0  0  0  0  0
   56.8898   28.1082   44.7666 H   0  0  0  0  0  0  0  0  0  0  0  0
   54.6337   29.4712   44.7613 H   0  0  0  0  0  0  0  0  0  0  0  0
   54.7892   30.4766   43.2809 H   0  0  0  0  0  0  0  0  0  0  0  0
   55.3806   28.7805   43.2809 H   0  0  0  0  0  0  0  0  0  0  0  0
   57.6806   31.8896   43.8406 H   0  0  0  0  0  0  0  0  0  0  0  0
   57.8753   30.5117   42.7048 H   0  0  0  0  0  0  0  0  0  0  0  0
   56.3545   31.4676   42.7048 H   0  0  0  0  0  0  0  0  0  0  0  0
   57.5420   32.4752   44.9532 H   0  0  0  0  0  0  0  0  0  0  0  0
   57.7139   34.7985   44.0847 H   0  0  0  0  0  0  0  0  0  0  0  0
   59.3512   36.3879   45.0772 H   0  0  0  0  0  0  0  0  0  0  0  0
   60.8243   35.6677   46.9451 H   0  0  0  0  0  0  0  0  0  0  0  0
   61.2348   33.9427   50.0216 H   0  0  0  0  0  0  0  0  0  0  0  0
   62.4831   34.3444   48.7940 H   0  0  0  0  0  0  0  0  0  0  0  0
   60.9111   35.2135   48.7940 H   0  0  0  0  0  0  0  0  0  0  0  0
  1  2  1  0
  2  3  1  0
  3  4  2  0
  4  5  1  0
  5  6  2  0
  6  7  1  0
  7  8  2  0
  8  9  1  0
  9 10  2  0
 10 11  1  0
 11 12  2  0
 12 13  1  0
 13 14  1  0
 14 15  1  0
 15 16  1  0
 16 17  1  0
 16 18  1  0
 12 19  1  0
 19 20  2  0
 20 21  1  0
 21 22  2  0
 22 23  1  0
 23 24  2  0
 24 25  1  0
 25 26  1  0
 25 27  2  0
 27  3  1  0
  9  4  1  0
 27 11  1  0
 24 19  1  0
  1 28  1  0
  1 29  1  0
  1 30  1  0
  2 31  1  0
  2 32  1  0
  5 33  1  0
  6 34  1  0
  7 35  1  0
  8 36  1  0
 10 37  1  0
 13 38  1  0
 14 39  1  0
 14 40  1  0
 15 41  1  0
 15 42  1  0
 17 43  1  0
 17 44  1  0
 17 45  1  0
 18 46  1  0
 18 47  1  0
 18 48  1  0
 20 49  1  0
 21 50  1  0
 22 51  1  0
 23 52  1  0
 26 53  1  0
 26 54  1  0
 26 55  1  0
M  CHG  2   3   1  25   1
M  END
>  <UniqueID>  (15) 
15

>  <SMILES>  (15) 
CC[n+]1c2ccccc2cc2c(NCCN(C)C)c3ccccc3[n+](C)c21

>  <Energy>  (15) 
104.94656191238242

>  <Genealogy>  (15) 
CC[n+]1c2ccccc2cc2c(NCCN(C)C)c3ccccc3[n+](C)c21 (3D coordinates assigned)
CC[n+]1c2ccccc2cc2c(NCCN(C)C)c3ccccc3[n+](C)c21 (optimized conformer: 104.94656191238242 kcal/mol)

>  <smiles>  (15) 
CC[n+]1c2ccccc2cc2c(NCCN(C)C)c3ccccc3[n+](C)c21

>  <score_type>  (15) 
oracle

>  <origin>  (15) 
adg

>  <m_score__min__energy>  (15) 
-4.9900000000000002

>  <m_primary>  (15) 
energy

$$$$
15:0
     RDKit          3D

 57 59  0  0  0  0  0  0  0  0999 V2000
   64.3653   33.4663   46.3668 H   0  0  0  0  0  0  0  0  0  0  0  0
   63.4050   33.1580   46.8060 C   0  0  0  0  0  0  0  0  0  0  0  0
   63.3700   32.2140   47.6800 N   0  0  0  0  0  0  0  0  0  0  0  0
   63.8820   32.3960   49.0150 C   0  0  0  0  0  0  0  0  0  0  0  0
   63.1072   32.1206   49.7456 H   0  0  0  0  0  0  0  0  0  0  0  0
   64.7656   31.7569   49.1591 H   0  0  0  0  0  0  0  0  0  0  0  0
   64.1640   33.4494   49.1591 H   0  0  0  0  0  0  0  0  0  0  0  0
   62.1360   33.8370   46.3870 C   0  0  0  0  0  0  0  0  0  0  0  0
   61.9766   33.6796   45.3101 H   0  0  0  0  0  0  0  0  0  0  0  0
   62.2149   34.9137   46.5980 H   0  0  0  0  0  0  0  0  0  0  0  0
   61.0060   33.2830   47.1300 N   0  0  0  0  0  0  0  0  0  0  0  0
   61.0280   33.4040   48.1670 H   0  0  0  0  0  0  0  0  0  0  0  0
   59.7200   33.1250   46.5100 C   0  0  0  0  0  0  0  0  0  0  0  0
   58.9500   34.2750   46.3150 C   0  0  0  0  0  0  0  0  0  0  0  0
   59.2705   35.2282   46.7607 H   0  0  0  0  0  0  0  0  0  0  0  0
   57.7850   34.2240   45.5640 C   0  0  0  0  0  0  0  0  0  0  0  0
   57.1580   35.1221   45.4619 H   0  0  0  0  0  0  0  0  0  0  0  0
   57.4080   33.0400   44.9400 C   0  0  0  0  0  0  0  0  0  0  0  0
   56.5029   33.0229   44.3152 H   0  0  0  0  0  0  0  0  0  0  0  0
   58.1700   31.8540   45.0950 C   0  0  0  0  0  0  0  0  0  0  0  0
   59.2680   31.8740   46.0010 C   0  0  0  0  0  0  0  0  0  0  0  0
   59.8510   30.6450   46.3860 C   0  0  0  0  0  0  0  0  0  0  0  0
   60.7180   30.5700   47.5320 N   0  0  0  0  0  0  0  0  0  0  0  0
   61.7170   30.8570   47.4280 H   0  0  0  0  0  0  0  0  0  0  0  0
   60.2970   29.9620   48.7990 C   0  0  0  0  0  0  0  0  0  0  0  0
   60.8930   29.0540   48.9733 H   0  0  0  0  0  0  0  0  0  0  0  0
   59.2256   29.7242   48.7241 H   0  0  0  0  0  0  0  0  0  0  0  0
   60.4910   30.9190   49.9850 C   0  0  0  0  0  0  0  0  0  0  0  0
   61.5636   30.9807   50.2209 H   0  0  0  0  0  0  0  0  0  0  0  0
   59.9202   30.5252   50.8389 H   0  0  0  0  0  0  0  0  0  0  0  0
   59.9880   32.2780   49.6830 N   0  0  0  0  0  0  0  0  0  0  0  0
   60.5300   33.2970   50.5990 C   0  0  0  0  0  0  0  0  0  0  0  0
   60.3621   32.9814   51.6393 H   0  0  0  0  0  0  0  0  0  0  0  0
   61.6092   33.4134   50.4208 H   0  0  0  0  0  0  0  0  0  0  0  0
   60.0233   34.2569   50.4208 H   0  0  0  0  0  0  0  0  0  0  0  0
   58.5100   32.3300   49.5990 C   0  0  0  0  0  0  0  0  0  0  0  0
   58.1882   31.6912   48.7634 H   0  0  0  0  0  0  0  0  0  0  0  0
   58.2359   33.3855   49.4545 H   0  0  0  0  0  0  0  0  0  0  0  0
   57.7970   31.8560   50.8710 C   0  0  0  0  0  0  0  0  0  0  0  0
   58.3430   32.2190   51.7543 H   0  0  0  0  0  0  0  0  0  0  0  0
   56.7710   32.2524   50.8856 H   0  0  0  0  0  0  0  0  0  0  0  0
   57.7655   30.7565   50.8856 H   0  0  0  0  0  0  0  0  0  0  0  0
   59.4370   29.4530   45.7620 C   0  0  0  0  0  0  0  0  0  0  0  0
   60.0030   28.2130   46.1310 C   0  0  0  0  0  0  0  0  0  0  0  0
   60.8139   28.1858   46.8738 H   0  0  0  0  0  0  0  0  0  0  0  0
   59.5480   27.0250   45.5670 C   0  0  0  0  0  0  0  0  0  0  0  0
   60.0075   26.0681   45.8555 H   0  0  0  0  0  0  0  0  0  0  0  0
   58.5140   27.0470   44.6400 C   0  0  0  0  0  0  0  0  0  0  0  0
   58.1451   26.1054   44.2072 H   0  0  0  0  0  0  0  0  0  0  0  0
   57.9430   28.2580   44.2570 C   0  0  0  0  0  0  0  0  0  0  0  0
   57.1153   28.2592   43.5325 H   0  0  0  0  0  0  0  0  0  0  0  0
   58.4090   29.4910   44.7840 C   0  0  0  0  0  0  0  0  0  0  0  0
   57.8540   30.6980   44.4070 N   0  0  0  0  0  0  0  0  0  0  0  0
   56.9530   30.7630   43.2330 C   0  0  0  0  0  0  0  0  0  0  0  0
   55.9102   30.8382   43.5749 H   0  0  0  0  0  0  0  0  0  0  0  0
   57.2045   31.6453   42.6262 H   0  0  0  0  0  0  0  0  0  0  0  0
   57.0753   29.8537   42.6262 H   0  0  0  0  0  0  0  0  0  0  0  0
  1  2  1  0
  2  3  2  0
  3  4  1  0
  4  5  1  0
  4  6  1  0
  4  7  1  0
  2  8  1  0
  8  9  1  0
  8 10  1  0
  8 11  1  0
 11 12  1  0
 11 13  1  0
 13 14  2  0
 14 15  1  0
 14 16  1  0
 16 17  1  0
 16 18  2  0
 18 19  1  0
 18 20  1  0
 20 21  2  0
 21 22  1  0
 22 23  1  0
 23 24  1  0
 23 25  1  0
 25 26  1  0
 25 27  1  0
 25 28  1  0
 28 29  1  0
 28 30  1  0
 28 31  1  0
 31 32  1  0
 32 33  1  0
 32 34  1  0
 32 35  1  0
 31 36  1  0
 36 37  1  0
 36 38  1  0
 36 39  1  0
 39 40  1  0
 39 41  1  0
 39 42  1  0
 22 43  2  0
 43 44  1  0
 44 45  1  0
 44 46  2  0
 46 47  1  0
 46 48  1  0
 48 49  1  0
 48 50  2  0
 50 51  1  0
 50 52  1  0
 52 53  2  0
 53 54  1  0
 54 55  1  0
 54 56  1  0
 54 57  1  0
 21 13  1  0
 52 43  1  0
 53 20  1  0
M  CHG  1  53   1
M  END
>  <UniqueID>  (16) 
16

>  <SMILES>  (16) 
CCN(C)CCNc1c2ccccc2[n+](C)c2cccc(NC/C=N/C)c12

>  <Energy>  (16) 
86.05697128741316

>  <Genealogy>  (16) 
CCN(C)CCNc1c2ccccc2[n+](C)c2cccc(NC/C=N/C)c12 (cis-trans isomerization)
CCN(C)CCNc1c2ccccc2[n+](C)c2cccc(NC/C=N/C)c12 (3D coordinates assigned)
CCN(C)CCNc1c2ccccc2[n+](C)c2cccc(NC/C=N/C)c12 (optimized conformer: 86.05697128741316 kcal/mol)

>  <smiles>  (16) 
CCN(C)CCNc1c2ccccc2[n+](C)c2cccc(NCC=NC)c12

>  <score_type>  (16) 
oracle

>  <origin>  (16) 
adg

>  <m_score__min__energy>  (16) 
-4.9000000000000004

>  <m_primary>  (16) 
energy

$$$$
16:0
     RDKit          3D

 56 59  0  0  0  0  0  0  0  0999 V2000
   64.3200   31.3390   50.7220 C   0  0  0  0  0  0  0  0  0  0  0  0
   63.0710   30.4860   50.9230 C   0  0  0  0  0  0  0  0  0  0  0  0
   62.1010   30.7010   49.8400 N   0  0  0  0  0  0  0  0  0  0  0  0
   60.7010   30.6390   50.3030 C   0  0  0  0  0  0  0  0  0  0  0  0
   59.7520   30.6680   49.1030 C   0  0  0  0  0  0  0  0  0  0  0  0
   60.4660   30.9870   47.8650 N   0  0  0  0  0  0  0  0  0  0  0  0
   59.7590   30.9980   46.6180 C   0  0  0  0  0  0  0  0  0  0  0  0
   59.4420   29.7760   46.0000 C   0  0  0  0  0  0  0  0  0  0  0  0
   60.0570   28.5760   46.4200 C   0  0  0  0  0  0  0  0  0  0  0  0
   59.7720   27.3720   45.7820 C   0  0  0  0  0  0  0  0  0  0  0  0
   58.8890   27.3460   44.7080 C   0  0  0  0  0  0  0  0  0  0  0  0
   58.2640   28.5180   44.2840 C   0  0  0  0  0  0  0  0  0  0  0  0
   58.5020   29.7520   44.9430 C   0  0  0  0  0  0  0  0  0  0  0  0
   57.8410   30.9100   44.5850 N   0  0  0  0  0  0  0  0  0  0  0  0
   56.6260   30.8340   43.7420 C   0  0  0  0  0  0  0  0  0  0  0  0
   58.3060   32.1370   45.0240 C   0  0  0  0  0  0  0  0  0  0  0  0
   57.8240   33.3470   44.4670 C   0  0  0  0  0  0  0  0  0  0  0  0
   58.2720   34.5800   44.9220 C   0  0  0  0  0  0  0  0  0  0  0  0
   59.2500   34.6490   45.9020 C   0  0  0  0  0  0  0  0  0  0  0  0
   59.7940   33.4850   46.4510 C   0  0  0  0  0  0  0  0  0  0  0  0
   60.9590   33.6330   47.2800 N   0  0  0  0  0  0  0  0  0  0  0  0
   60.7780   34.0770   48.6700 C   0  0  0  0  0  0  0  0  0  0  0  0
   62.1100   34.2510   49.4080 C   0  0  0  0  0  0  0  0  0  0  0  0
   63.0780   33.3490   48.9210 O   0  0  0  0  0  0  0  0  0  0  0  0
   63.4360   33.7310   47.6120 C   0  0  0  0  0  0  0  0  0  0  0  0
   62.2760   33.5140   46.6330 C   0  0  0  0  0  0  0  0  0  0  0  0
   59.3010   32.2080   46.0460 C   0  0  0  0  0  0  0  0  0  0  0  0
   64.7330   31.6210   51.7018 H   0  0  0  0  0  0  0  0  0  0  0  0
   65.0703   30.7638   50.1597 H   0  0  0  0  0  0  0  0  0  0  0  0
   64.0572   32.2471   50.1597 H   0  0  0  0  0  0  0  0  0  0  0  0
   63.3601   29.4248   50.9404 H   0  0  0  0  0  0  0  0  0  0  0  0
   62.6008   30.7753   51.8744 H   0  0  0  0  0  0  0  0  0  0  0  0
   62.2740   31.6570   49.4500 H   0  0  0  0  0  0  0  0  0  0  0  0
   60.5451   29.7085   50.8685 H   0  0  0  0  0  0  0  0  0  0  0  0
   60.4949   31.5060   50.9478 H   0  0  0  0  0  0  0  0  0  0  0  0
   59.2772   29.6813   48.9983 H   0  0  0  0  0  0  0  0  0  0  0  0
   58.9964   31.4481   49.2778 H   0  0  0  0  0  0  0  0  0  0  0  0
   61.5110   30.9810   47.8490 H   0  0  0  0  0  0  0  0  0  0  0  0
   60.7679   28.5929   47.2592 H   0  0  0  0  0  0  0  0  0  0  0  0
   60.2453   26.4411   46.1275 H   0  0  0  0  0  0  0  0  0  0  0  0
   58.6828   26.3972   44.1910 H   0  0  0  0  0  0  0  0  0  0  0  0
   57.5763   28.4856   43.4261 H   0  0  0  0  0  0  0  0  0  0  0  0
   55.7359   30.7783   44.3859 H   0  0  0  0  0  0  0  0  0  0  0  0
   56.5637   31.7300   43.1069 H   0  0  0  0  0  0  0  0  0  0  0  0
   56.6758   29.9372   43.1069 H   0  0  0  0  0  0  0  0  0  0  0  0
   57.0799   33.3090   43.6578 H   0  0  0  0  0  0  0  0  0  0  0  0
   57.8494   35.5053   44.5033 H   0  0  0  0  0  0  0  0  0  0  0  0
   59.6017   35.6310   46.2513 H   0  0  0  0  0  0  0  0  0  0  0  0
   60.2480   35.0409   48.6664 H   0  0  0  0  0  0  0  0  0  0  0  0
   60.2026   33.3014   49.1967 H   0  0  0  0  0  0  0  0  0  0  0  0
   62.4708   35.2798   49.2617 H   0  0  0  0  0  0  0  0  0  0  0  0
   61.9479   34.0484   50.4770 H   0  0  0  0  0  0  0  0  0  0  0  0
   63.7109   34.7961   47.6118 H   0  0  0  0  0  0  0  0  0  0  0  0
   64.2848   33.1107   47.2885 H   0  0  0  0  0  0  0  0  0  0  0  0
   62.3448   34.2660   45.8331 H   0  0  0  0  0  0  0  0  0  0  0  0
   62.3613   32.4913   46.2370 H   0  0  0  0  0  0  0  0  0  0  0  0
  1  2  1  0
  2  3  1  0
  3  4  1  0
  4  5  1  0
  5  6  1  0
  6  7  1  0
  7  8  2  0
  8  9  1  0
  9 10  2  0
 10 11  1  0
 11 12  2  0
 12 13  1  0
 13 14  2  0
 14 15  1  0
 14 16  1  0
 16 17  2  0
 17 18  1  0
 18 19  2  0
 19 20  1  0
 20 21  1  0
 21 22  1  0
 22 23  1  0
 23 24  1  0
 24 25  1  0
 25 26  1  0
 20 27  2  0
 27  7  1  0
 13  8  1  0
 27 16  1  0
 26 21  1  0
  1 28  1  0
  1 29  1  0
  1 30  1  0
  2 31  1  0
  2 32  1  0
  3 33  1  0
  4 34  1  0
  4 35  1  0
  5 36  1  0
  5 37  1  0
  6 38  1  0
  9 39  1  0
 10 40  1  0
 11 41  1  0
 12 42  1  0
 15 43  1  0
 15 44  1  0
 15 45  1  0
 17 46  1  0
 18 47  1  0
 19 48  1  0
 22 49  1  0
 22 50  1  0
 23 51  1  0
 23 52  1  0
 25 53  1  0
 25 54  1  0
 26 55  1  0
 26 56  1  0
M  CHG  1  14   1
M  END
>  <UniqueID>  (17) 
17

>  <SMILES>  (17) 
CCNCCNc1c2ccccc2[n+](C)c2cccc(N3CCOCC3)c12

>  <Energy>  (17) 
95.05009068854848

>  <Genealogy>  (17) 
CCNCCNc1c2ccccc2[n+](C)c2cccc(N3CCOCC3)c12 (3D coordinates assigned)
CCNCCNc1c2ccccc2[n+](C)c2cccc(N3CCOCC3)c12 (nonaromatic ring conformer: 95.05009068854848 kcal/mol)

>  <smiles>  (17) 
CCNCCNc1c2ccccc2[n+](C)c2cccc(N3CCOCC3)c12

>  <score_type>  (17) 
oracle

>  <origin>  (17) 
adg

>  <m_score__min__energy>  (17) 
-5.1900000000000004

>  <m_primary>  (17) 
energy

$$$$
17:0
     RDKit          3D

 83 86  0  0  0  0  0  0  0  0999 V2000
   62.5440   33.8290   46.3320 C   0  0  0  0  0  0  0  0  0  0  0  0
   63.7620   33.1490   46.9610 C   0  0  0  0  0  0  0  0  0  0  0  0
   63.3720   31.9320   47.8260 C   0  0  0  0  0  0  0  0  0  0  0  0
   64.0310   31.9320   49.2160 C   0  0  0  0  0  0  0  0  0  0  0  0
   63.0720   31.6090   50.2880 N   0  0  0  0  0  0  0  0  0  0  0  0
   63.4740   32.1670   51.5920 C   0  0  0  0  0  0  0  0  0  0  0  0
   62.5840   33.3360   52.0410 C   0  0  0  0  0  0  0  0  0  0  0  0
   61.4110   33.3820   51.2490 O   0  0  0  0  0  0  0  0  0  0  0  0
   61.5860   34.2150   50.1180 C   0  0  0  0  0  0  0  0  0  0  0  0
   60.7420   33.7330   48.9230 C   0  0  0  0  0  0  0  0  0  0  0  0
   60.1290   32.4270   49.1790 N   0  0  0  0  0  0  0  0  0  0  0  0
   59.6750   31.5740   48.1150 C   0  0  0  0  0  0  0  0  0  0  0  0
   58.9260   32.1250   47.0580 C   0  0  0  0  0  0  0  0  0  0  0  0
   58.4300   33.4440   47.1320 C   0  0  0  0  0  0  0  0  0  0  0  0
   57.6860   33.9850   46.0870 C   0  0  0  0  0  0  0  0  0  0  0  0
   57.4020   33.2160   44.9650 C   0  0  0  0  0  0  0  0  0  0  0  0
   57.8670   31.9060   44.8780 C   0  0  0  0  0  0  0  0  0  0  0  0
   58.6580   31.3390   45.9100 C   0  0  0  0  0  0  0  0  0  0  0  0
   59.1510   30.0540   45.8240 N   0  0  0  0  0  0  0  0  0  0  0  0
   59.1630   29.3550   44.5200 C   0  0  0  0  0  0  0  0  0  0  0  0
   59.6480   29.4290   46.9510 C   0  0  0  0  0  0  0  0  0  0  0  0
   59.8580   28.0310   46.9760 C   0  0  0  0  0  0  0  0  0  0  0  0
   60.4070   27.4050   48.0860 C   0  0  0  0  0  0  0  0  0  0  0  0
   60.7510   28.1440   49.2080 C   0  0  0  0  0  0  0  0  0  0  0  0
   60.5300   29.5300   49.2490 C   0  0  0  0  0  0  0  0  0  0  0  0
   60.8610   30.2650   50.3990 O   0  0  0  0  0  0  0  0  0  0  0  0
   61.1030   29.7200   51.6930 C   0  0  0  0  0  0  0  0  0  0  0  0
   59.7680   29.2000   52.2630 C   0  0  0  0  0  0  0  0  0  0  0  0
   58.7570   30.2580   52.5960 N   0  0  0  0  0  0  0  0  0  0  0  0
   57.8840   29.7630   53.6990 C   0  0  0  0  0  0  0  0  0  0  0  0
   57.9260   30.4570   51.3690 C   0  0  0  0  0  0  0  0  0  0  0  0
   56.8510   31.5610   51.5080 C   0  0  0  0  0  0  0  0  0  0  0  0
   57.3140   32.7490   52.3620 C   0  0  0  0  0  0  0  0  0  0  0  0
   58.8340   32.8270   52.4240 C   0  0  0  0  0  0  0  0  0  0  0  0
   59.4530   31.5340   52.9970 C   0  0  0  0  0  0  0  0  0  0  0  0
   59.9540   30.1860   48.1200 C   0  0  0  0  0  0  0  0  0  0  0  0
   61.8799   34.1997   47.1267 H   0  0  0  0  0  0  0  0  0  0  0  0
   62.8761   34.6722   45.7086 H   0  0  0  0  0  0  0  0  0  0  0  0
   62.0004   33.1038   45.7086 H   0  0  0  0  0  0  0  0  0  0  0  0
   64.4328   32.8113   46.1573 H   0  0  0  0  0  0  0  0  0  0  0  0
   64.2561   33.8823   47.6153 H   0  0  0  0  0  0  0  0  0  0  0  0
   62.2800   31.9342   47.9582 H   0  0  0  0  0  0  0  0  0  0  0  0
   63.7262   31.0335   47.2995 H   0  0  0  0  0  0  0  0  0  0  0  0
   64.8376   31.1842   49.2254 H   0  0  0  0  0  0  0  0  0  0  0  0
   64.4199   32.9435   49.4049 H   0  0  0  0  0  0  0  0  0  0  0  0
   62.1210   31.9640   50.0370 H   0  0  0  0  0  0  0  0  0  0  0  0
   63.0190   30.5680   50.3920 H   0  0  0  0  0  0  0  0  0  0  0  0
   63.4151   31.3702   52.3481 H   0  0  0  0  0  0  0  0  0  0  0  0
   64.4982   32.5537   51.4844 H   0  0  0  0  0  0  0  0  0  0  0  0
   62.3061   33.1981   53.0963 H   0  0  0  0  0  0  0  0  0  0  0  0
   63.1380   34.2788   51.9219 H   0  0  0  0  0  0  0  0  0  0  0  0
   61.2829   35.2397   50.3790 H   0  0  0  0  0  0  0  0  0  0  0  0
   62.6461   34.1813   49.8265 H   0  0  0  0  0  0  0  0  0  0  0  0
   59.9464   34.4677   48.7301 H   0  0  0  0  0  0  0  0  0  0  0  0
   61.4081   33.6326   48.0534 H   0  0  0  0  0  0  0  0  0  0  0  0
   59.9080   32.1560   50.1640 H   0  0  0  0  0  0  0  0  0  0  0  0
   58.6336   34.0519   48.0259 H   0  0  0  0  0  0  0  0  0  0  0  0
   57.3229   35.0215   46.1495 H   0  0  0  0  0  0  0  0  0  0  0  0
   56.8083   33.6430   44.1433 H   0  0  0  0  0  0  0  0  0  0  0  0
   57.6167   31.3009   43.9942 H   0  0  0  0  0  0  0  0  0  0  0  0
   59.1817   28.2679   44.6869 H   0  0  0  0  0  0  0  0  0  0  0  0
   58.2601   29.6233   43.9518 H   0  0  0  0  0  0  0  0  0  0  0  0
   60.0561   29.6541   43.9518 H   0  0  0  0  0  0  0  0  0  0  0  0
   59.5809   27.4281   46.0987 H   0  0  0  0  0  0  0  0  0  0  0  0
   60.5702   26.3172   48.0760 H   0  0  0  0  0  0  0  0  0  0  0  0
   61.2018   27.6390   50.0750 H   0  0  0  0  0  0  0  0  0  0  0  0
   61.8222   28.8911   51.6178 H   0  0  0  0  0  0  0  0  0  0  0  0
   61.5197   30.4930   52.3554 H   0  0  0  0  0  0  0  0  0  0  0  0
   59.3207   28.5249   51.5186 H   0  0  0  0  0  0  0  0  0  0  0  0
   60.0154   28.7058   53.2141 H   0  0  0  0  0  0  0  0  0  0  0  0
   58.3366   30.0196   54.6682 H   0  0  0  0  0  0  0  0  0  0  0  0
   56.8927   30.2334   53.6212 H   0  0  0  0  0  0  0  0  0  0  0  0
   57.7787   28.6708   53.6212 H   0  0  0  0  0  0  0  0  0  0  0  0
   58.5947   30.7282   50.5388 H   0  0  0  0  0  0  0  0  0  0  0  0
   57.3906   29.5127   51.1912 H   0  0  0  0  0  0  0  0  0  0  0  0
   56.5966   31.9302   50.5035 H   0  0  0  0  0  0  0  0  0  0  0  0
   55.9837   31.1120   52.0141 H   0  0  0  0  0  0  0  0  0  0  0  0
   56.9251   33.6794   51.9225 H   0  0  0  0  0  0  0  0  0  0  0  0
   56.9314   32.6118   53.3842 H   0  0  0  0  0  0  0  0  0  0  0  0
   59.2237   32.9881   51.4081 H   0  0  0  0  0  0  0  0  0  0  0  0
   59.1061   33.6596   53.0893 H   0  0  0  0  0  0  0  0  0  0  0  0
   60.4965   31.4750   52.6540 H   0  0  0  0  0  0  0  0  0  0  0  0
   59.3538   31.6059   54.0902 H   0  0  0  0  0  0  0  0  0  0  0  0
  1  2  1  0
  2  3  1  0
  3  4  1  0
  4  5  1  0
  5  6  1  0
  6  7  1  0
  7  8  1  0
  8  9  1  0
  9 10  1  0
 10 11  1  0
 11 12  1  0
 12 13  2  0
 13 14  1  0
 14 15  2  0
 15 16  1  0
 16 17  2  0
 17 18  1  0
 18 19  2  0
 19 20  1  0
 19 21  1  0
 21 22  2  0
 22 23  1  0
 23 24  2  0
 24 25  1  0
 25 26  1  0
 26 27  1  0
 27 28  1  0
 28 29  1  0
 29 30  1  0
 29 31  1  0
 31 32  1  0
 32 33  1  0
 33 34  1  0
 34 35  1  0
 25 36  2  0
 36 12  1  0
 18 13  1  0
 36 21  1  0
 35 29  1  0
  1 37  1  0
  1 38  1  0
  1 39  1  0
  2 40  1  0
  2 41  1  0
  3 42  1  0
  3 43  1  0
  4 44  1  0
  4 45  1  0
  5 46  1  0
  5 47  1  0
  6 48  1  0
  6 49  1  0
  7 50  1  0
  7 51  1  0
  9 52  1  0
  9 53  1  0
 10 54  1  0
 10 55  1  0
 11 56  1  0
 14 57  1  0
 15 58  1  0
 16 59  1  0
 17 60  1  0
 20 61  1  0
 20 62  1  0
 20 63  1  0
 22 64  1  0
 23 65  1  0
 24 66  1  0
 27 67  1  0
 27 68  1  0
 28 69  1  0
 28 70  1  0
 30 71  1  0
 30 72  1  0
 30 73  1  0
 31 74  1  0
 31 75  1  0
 32 76  1  0
 32 77  1  0
 33 78  1  0
 33 79  1  0
 34 80  1  0
 34 81  1  0
 35 82  1  0
 35 83  1  0
M  CHG  3   5   1  19   1  29   1
M  END
>  <UniqueID>  (18) 
18

>  <SMILES>  (18) 
CCCC[NH2+]CCOCCNc1c2ccccc2[n+](C)c2cccc(OCC[N+]3(C)CCCCC3)c12

>  <Energy>  (18) 
125.39080951191096

>  <Genealogy>  (18) 
CCCC[NH2+]CCOCCNc1c2ccccc2[n+](C)c2cccc(OCC[N+]3(C)CCCCC3)c12 (protonated)
CCCC[NH2+]CCOCCNc1c2ccccc2[n+](C)c2cccc(OCC[N+]3(C)CCCCC3)c12 (3D coordinates assigned)
CCCC[NH2+]CCOCCNc1c2ccccc2[n+](C)c2cccc(OCC[N+]3(C)CCCCC3)c12 (nonaromatic ring conformer: 125.39080951191096 kcal/mol)

>  <smiles>  (18) 
CCCCNCCOCCNc1c2ccccc2[n+](C)c2cccc(OCC[N+]3(C)CCCCC3)c12

>  <score_type>  (18) 
oracle

>  <origin>  (18) 
adg

>  <m_score__min__energy>  (18) 
-4.9500000000000002

>  <m_primary>  (18) 
energy

$$$$
18:0
     RDKit          3D

 86 89  0  0  0  0  0  0  0  0999 V2000
   62.8180   32.5880   47.1590 C   0  0  0  0  0  0  0  0  0  0  0  0
   63.4900   32.1540   48.4670 C   0  0  0  0  0  0  0  0  0  0  0  0
   62.6270   31.2890   49.2890 N   0  0  0  0  0  0  0  0  0  0  0  0
   63.3040   30.8410   50.5130 C   0  0  0  0  0  0  0  0  0  0  0  0
   62.3210   30.0920   51.4070 C   0  0  0  0  0  0  0  0  0  0  0  0
   61.0100   30.3840   50.9730 O   0  0  0  0  0  0  0  0  0  0  0  0
   60.2760   29.2010   50.7200 C   0  0  0  0  0  0  0  0  0  0  0  0
   59.7300   29.1590   49.2900 C   0  0  0  0  0  0  0  0  0  0  0  0
   60.4000   30.1080   48.3680 N   0  0  0  0  0  0  0  0  0  0  0  0
   59.6100   30.3840   47.1700 C   0  0  0  0  0  0  0  0  0  0  0  0
   59.3120   29.2920   46.2960 C   0  0  0  0  0  0  0  0  0  0  0  0
   59.7370   27.9640   46.5880 C   0  0  0  0  0  0  0  0  0  0  0  0
   59.5170   26.9150   45.7040 C   0  0  0  0  0  0  0  0  0  0  0  0
   58.8780   27.1470   44.5020 C   0  0  0  0  0  0  0  0  0  0  0  0
   58.4180   28.4210   44.1970 C   0  0  0  0  0  0  0  0  0  0  0  0
   58.5760   29.5110   45.1030 C   0  0  0  0  0  0  0  0  0  0  0  0
   58.0210   30.7460   44.8400 N   0  0  0  0  0  0  0  0  0  0  0  0
   57.0170   30.8750   43.7450 C   0  0  0  0  0  0  0  0  0  0  0  0
   55.7350   30.0970   44.0640 C   0  0  0  0  0  0  0  0  0  0  0  0
   58.3450   31.8410   45.6230 C   0  0  0  0  0  0  0  0  0  0  0  0
   57.9080   33.1350   45.2400 C   0  0  0  0  0  0  0  0  0  0  0  0
   58.1260   34.2430   46.0270 C   0  0  0  0  0  0  0  0  0  0  0  0
   58.8170   34.1230   47.2070 C   0  0  0  0  0  0  0  0  0  0  0  0
   59.3540   32.8950   47.6180 C   0  0  0  0  0  0  0  0  0  0  0  0
   60.1500   32.9130   48.7740 O   0  0  0  0  0  0  0  0  0  0  0  0
   59.9860   33.8420   49.8500 C   0  0  0  0  0  0  0  0  0  0  0  0
   60.1540   33.1410   51.2190 C   0  0  0  0  0  0  0  0  0  0  0  0
   58.9170   32.9730   52.0610 N   0  0  0  0  0  0  0  0  0  0  0  0
   58.5080   34.3470   52.4640 C   0  0  0  0  0  0  0  0  0  0  0  0
   59.2280   32.1990   53.3060 C   0  0  0  0  0  0  0  0  0  0  0  0
   57.9780   31.5210   53.9020 C   0  0  0  0  0  0  0  0  0  0  0  0
   57.3750   30.5140   52.9740 N   0  0  0  0  0  0  0  0  0  0  0  0
   57.9640   29.1780   53.2480 C   0  0  0  0  0  0  0  0  0  0  0  0
   55.9170   30.4300   53.2360 C   0  0  0  0  0  0  0  0  0  0  0  0
   57.6030   30.8570   51.5340 C   0  0  0  0  0  0  0  0  0  0  0  0
   57.7770   32.3680   51.2920 C   0  0  0  0  0  0  0  0  0  0  0  0
   59.1300   31.7020   46.8260 C   0  0  0  0  0  0  0  0  0  0  0  0
   61.9141   33.1718   47.3873 H   0  0  0  0  0  0  0  0  0  0  0  0
   63.5162   33.2063   46.5756 H   0  0  0  0  0  0  0  0  0  0  0  0
   62.5416   31.6973   46.5756 H   0  0  0  0  0  0  0  0  0  0  0  0
   64.4108   31.6036   48.2239 H   0  0  0  0  0  0  0  0  0  0  0  0
   63.7014   33.0628   49.0496 H   0  0  0  0  0  0  0  0  0  0  0  0
   61.7600   31.8180   49.5530 H   0  0  0  0  0  0  0  0  0  0  0  0
   64.1358   30.1726   50.2457 H   0  0  0  0  0  0  0  0  0  0  0  0
   63.6897   31.7174   51.0544 H   0  0  0  0  0  0  0  0  0  0  0  0
   62.5036   29.0097   51.3344 H   0  0  0  0  0  0  0  0  0  0  0  0
   62.4501   30.4040   52.4539 H   0  0  0  0  0  0  0  0  0  0  0  0
   60.9355   28.3342   50.8738 H   0  0  0  0  0  0  0  0  0  0  0  0
   59.4204   29.1779   51.4110 H   0  0  0  0  0  0  0  0  0  0  0  0
   59.8635   28.1403   48.8971 H   0  0  0  0  0  0  0  0  0  0  0  0
   58.6714   29.4537   49.3413 H   0  0  0  0  0  0  0  0  0  0  0  0
   60.5510   31.0110   48.8700 H   0  0  0  0  0  0  0  0  0  0  0  0
   61.3820   29.8390   48.2100 H   0  0  0  0  0  0  0  0  0  0  0  0
   60.2530   27.7638   47.5386 H   0  0  0  0  0  0  0  0  0  0  0  0
   59.8519   25.8994   45.9616 H   0  0  0  0  0  0  0  0  0  0  0  0
   58.7336   26.3235   43.7871 H   0  0  0  0  0  0  0  0  0  0  0  0
   57.9190   28.5940   43.2321 H   0  0  0  0  0  0  0  0  0  0  0  0
   56.7666   31.9380   43.6130 H   0  0  0  0  0  0  0  0  0  0  0  0
   57.4538   30.4586   42.8253 H   0  0  0  0  0  0  0  0  0  0  0  0
   55.6129   30.0229   45.1547 H   0  0  0  0  0  0  0  0  0  0  0  0
   54.8702   30.6228   43.6331 H   0  0  0  0  0  0  0  0  0  0  0  0
   55.8021   29.0871   43.6331 H   0  0  0  0  0  0  0  0  0  0  0  0
   57.3781   33.2568   44.2838 H   0  0  0  0  0  0  0  0  0  0  0  0
   57.7462   35.2255   45.7101 H   0  0  0  0  0  0  0  0  0  0  0  0
   58.9523   35.0096   47.8439 H   0  0  0  0  0  0  0  0  0  0  0  0
   60.7414   34.6363   49.7576 H   0  0  0  0  0  0  0  0  0  0  0  0
   58.9723   34.2656   49.7955 H   0  0  0  0  0  0  0  0  0  0  0  0
   60.5643   32.1381   51.0294 H   0  0  0  0  0  0  0  0  0  0  0  0
   60.8060   33.8083   51.8018 H   0  0  0  0  0  0  0  0  0  0  0  0
   58.4874   34.4163   53.5616 H   0  0  0  0  0  0  0  0  0  0  0  0
   59.2281   35.0761   52.0640 H   0  0  0  0  0  0  0  0  0  0  0  0
   57.5064   34.5636   52.0640 H   0  0  0  0  0  0  0  0  0  0  0  0
   59.9696   31.4234   53.0642 H   0  0  0  0  0  0  0  0  0  0  0  0
   59.6155   32.9066   54.0538 H   0  0  0  0  0  0  0  0  0  0  0  0
   58.2630   31.0141   54.8357 H   0  0  0  0  0  0  0  0  0  0  0  0
   57.2260   32.3038   54.0801 H   0  0  0  0  0  0  0  0  0  0  0  0
   58.0322   29.0233   54.3349 H   0  0  0  0  0  0  0  0  0  0  0  0
   57.3261   28.3984   52.8060 H   0  0  0  0  0  0  0  0  0  0  0  0
   58.9698   29.1230   52.8060 H   0  0  0  0  0  0  0  0  0  0  0  0
   55.7395   30.4198   54.3215 H   0  0  0  0  0  0  0  0  0  0  0  0
   55.4136   31.3006   52.7904 H   0  0  0  0  0  0  0  0  0  0  0  0
   55.5169   29.5073   52.7904 H   0  0  0  0  0  0  0  0  0  0  0  0
   58.5118   30.3408   51.1910 H   0  0  0  0  0  0  0  0  0  0  0  0
   56.7110   30.5365   50.9757 H   0  0  0  0  0  0  0  0  0  0  0  0
   57.9567   32.5299   50.2189 H   0  0  0  0  0  0  0  0  0  0  0  0
   56.8563   32.8586   51.6408 H   0  0  0  0  0  0  0  0  0  0  0  0
  1  2  1  0
  2  3  1  0
  3  4  1  0
  4  5  1  0
  5  6  1  0
  6  7  1  0
  7  8  1  0
  8  9  1  0
  9 10  1  0
 10 11  2  0
 11 12  1  0
 12 13  2  0
 13 14  1  0
 14 15  2  0
 15 16  1  0
 16 17  2  0
 17 18  1  0
 18 19  1  0
 17 20  1  0
 20 21  2  0
 21 22  1  0
 22 23  2  0
 23 24  1  0
 24 25  1  0
 25 26  1  0
 26 27  1  0
 27 28  1  0
 28 29  1  0
 28 30  1  0
 30 31  1  0
 31 32  1  0
 32 33  1  0
 32 34  1  0
 32 35  1  0
 35 36  1  0
 24 37  2  0
 37 10  1  0
 16 11  1  0
 37 20  1  0
 36 28  1  0
  1 38  1  0
  1 39  1  0
  1 40  1  0
  2 41  1  0
  2 42  1  0
  3 43  1  0
  4 44  1  0
  4 45  1  0
  5 46  1  0
  5 47  1  0
  7 48  1  0
  7 49  1  0
  8 50  1  0
  8 51  1  0
  9 52  1  0
  9 53  1  0
 12 54  1  0
 13 55  1  0
 14 56  1  0
 15 57  1  0
 18 58  1  0
 18 59  1  0
 19 60  1  0
 19 61  1  0
 19 62  1  0
 21 63  1  0
 22 64  1  0
 23 65  1  0
 26 66  1  0
 26 67  1  0
 27 68  1  0
 27 69  1  0
 29 70  1  0
 29 71  1  0
 29 72  1  0
 30 73  1  0
 30 74  1  0
 31 75  1  0
 31 76  1  0
 33 77  1  0
 33 78  1  0
 33 79  1  0
 34 80  1  0
 34 81  1  0
 34 82  1  0
 35 83  1  0
 35 84  1  0
 36 85  1  0
 36 86  1  0
M  CHG  4   9   1  17   1  28   1  32   1
M  END
>  <UniqueID>  (19) 
19

>  <SMILES>  (19) 
CCNCCOCC[NH2+]c1c2ccccc2[n+](CC)c2cccc(OCC[N+]3(C)CC[N+](C)(C)CC3)c12

>  <Energy>  (19) 
150.4866289722697

>  <Genealogy>  (19) 
CCNCCOCC[NH2+]c1c2ccccc2[n+](CC)c2cccc(OCC[N+]3(C)CC[N+](C)(C)CC3)c12 (protonated)
CCNCCOCC[NH2+]c1c2ccccc2[n+](CC)c2cccc(OCC[N+]3(C)CC[N+](C)(C)CC3)c12 (3D coordinates assigned)
CCNCCOCC[NH2+]c1c2ccccc2[n+](CC)c2cccc(OCC[N+]3(C)CC[N+](C)(C)CC3)c12 (nonaromatic ring conformer: 150.4866289722697 kcal/mol)

>  <smiles>  (19) 
CCNCCOCCNc1c2ccccc2[n+](CC)c2cccc(OCC[N+]3(C)CC[N+](C)(C)CC3)c12

>  <score_type>  (19) 
oracle

>  <origin>  (19) 
adg

>  <m_score__min__energy>  (19) 
-2.0499999999999998

>  <m_primary>  (19) 
energy

$$$$
19:0
     RDKit          3D

 91 95  0  0  0  0  0  0  0  0999 V2000
   57.0710   27.8900   45.5550 C   0  0  0  0  0  0  0  0  0  0  0  0
   57.7040   27.0490   46.6730 C   0  0  0  0  0  0  0  0  0  0  0  0
   59.1000   27.4300   46.9840 N   0  0  0  0  0  0  0  0  0  0  0  0
   59.6910   26.6020   48.0650 C   0  0  0  0  0  0  0  0  0  0  0  0
   60.4020   27.4970   49.0750 C   0  0  0  0  0  0  0  0  0  0  0  0
   59.9460   27.5200   45.7730 C   0  0  0  0  0  0  0  0  0  0  0  0
   60.6770   28.8630   45.7270 C   0  0  0  0  0  0  0  0  0  0  0  0
   60.2610   29.7090   46.8430 N   0  0  0  0  0  0  0  0  0  0  0  0
   60.2170   31.1400   46.7210 C   0  0  0  0  0  0  0  0  0  0  0  0
   59.2640   31.7540   45.8880 C   0  0  0  0  0  0  0  0  0  0  0  0
   58.4360   30.9830   45.0450 C   0  0  0  0  0  0  0  0  0  0  0  0
   57.5110   31.5920   44.2020 C   0  0  0  0  0  0  0  0  0  0  0  0
   57.4180   32.9780   44.1570 C   0  0  0  0  0  0  0  0  0  0  0  0
   58.2370   33.7630   44.9700 C   0  0  0  0  0  0  0  0  0  0  0  0
   59.1570   33.1700   45.8730 C   0  0  0  0  0  0  0  0  0  0  0  0
   59.9500   33.9310   46.7120 N   0  0  0  0  0  0  0  0  0  0  0  0
   59.6420   35.3620   46.9260 C   0  0  0  0  0  0  0  0  0  0  0  0
   61.0200   33.3500   47.3650 C   0  0  0  0  0  0  0  0  0  0  0  0
   62.0150   34.1290   48.0010 C   0  0  0  0  0  0  0  0  0  0  0  0
   63.0690   33.5340   48.6910 C   0  0  0  0  0  0  0  0  0  0  0  0
   63.1770   32.1480   48.7690 C   0  0  0  0  0  0  0  0  0  0  0  0
   64.2690   31.6160   49.4750 O   0  0  0  0  0  0  0  0  0  0  0  0
   64.2830   31.2530   50.8560 C   0  0  0  0  0  0  0  0  0  0  0  0
   63.1800   30.2120   51.1540 C   0  0  0  0  0  0  0  0  0  0  0  0
   62.0460   30.6740   52.0230 N   0  0  2  0  0  0  0  0  0  0  0  0
   61.0520   29.5660   52.0270 C   0  0  0  0  0  0  0  0  0  0  0  0
   61.3720   31.8950   51.4630 C   0  0  0  0  0  0  0  0  0  0  0  0
   61.8200   33.1990   52.1570 C   0  0  0  0  0  0  0  0  0  0  0  0
   61.5180   33.2140   53.6290 N   0  0  1  0  0  0  0  0  0  0  0  0
   62.5440   34.0600   54.2950 C   0  0  0  0  0  0  0  0  0  0  0  0
   60.1600   33.8220   53.8240 C   0  0  0  0  0  0  0  0  0  0  0  0
   58.9970   32.9610   53.3600 C   0  0  0  0  0  0  0  0  0  0  0  0
   58.3790   32.0630   54.2480 C   0  0  0  0  0  0  0  0  0  0  0  0
   57.2820   31.3010   53.8370 C   0  0  0  0  0  0  0  0  0  0  0  0
   56.7700   31.4470   52.5450 C   0  0  0  0  0  0  0  0  0  0  0  0
   55.2370   30.4430   52.0040 Br  0  0  0  0  0  0  0  0  0  0  0  0
   57.3670   32.3510   51.6600 C   0  0  0  0  0  0  0  0  0  0  0  0
   58.4710   33.1060   52.0650 C   0  0  0  0  0  0  0  0  0  0  0  0
   61.5630   31.8320   54.2070 C   0  0  0  0  0  0  0  0  0  0  0  0
   62.5100   30.8930   53.4320 C   0  0  0  0  0  0  0  0  0  0  0  0
   62.2140   31.3520   48.1280 C   0  0  0  0  0  0  0  0  0  0  0  0
   61.1520   31.9370   47.4040 C   0  0  0  0  0  0  0  0  0  0  0  0
   56.4658   28.6941   45.9990 H   0  0  0  0  0  0  0  0  0  0  0  0
   57.8645   28.3293   44.9326 H   0  0  0  0  0  0  0  0  0  0  0  0
   56.4293   27.2491   44.9326 H   0  0  0  0  0  0  0  0  0  0  0  0
   57.0994   27.1702   47.5839 H   0  0  0  0  0  0  0  0  0  0  0  0
   57.7252   26.0074   46.3200 H   0  0  0  0  0  0  0  0  0  0  0  0
   58.8924   26.0415   48.5731 H   0  0  0  0  0  0  0  0  0  0  0  0
   60.4174   25.9010   47.6281 H   0  0  0  0  0  0  0  0  0  0  0  0
   60.1458   27.1744   50.0950 H   0  0  0  0  0  0  0  0  0  0  0  0
   61.4897   27.4223   48.9292 H   0  0  0  0  0  0  0  0  0  0  0  0
   60.0832   28.5397   48.9292 H   0  0  0  0  0  0  0  0  0  0  0  0
   60.6856   26.7059   45.7871 H   0  0  0  0  0  0  0  0  0  0  0  0
   59.3038   27.4345   44.8840 H   0  0  0  0  0  0  0  0  0  0  0  0
   61.7611   28.6877   45.7898 H   0  0  0  0  0  0  0  0  0  0  0  0
   60.4298   29.3711   44.7832 H   0  0  0  0  0  0  0  0  0  0  0  0
   59.9260   29.2600   47.7260 H   0  0  0  0  0  0  0  0  0  0  0  0
   58.5226   29.8865   45.0541 H   0  0  0  0  0  0  0  0  0  0  0  0
   56.8533   30.9761   43.5711 H   0  0  0  0  0  0  0  0  0  0  0  0
   56.6969   33.4576   43.4788 H   0  0  0  0  0  0  0  0  0  0  0  0
   58.1682   34.8592   44.9098 H   0  0  0  0  0  0  0  0  0  0  0  0
   59.5972   35.5700   48.0052 H   0  0  0  0  0  0  0  0  0  0  0  0
   60.4279   35.9790   46.4659 H   0  0  0  0  0  0  0  0  0  0  0  0
   58.6718   35.6010   46.4659 H   0  0  0  0  0  0  0  0  0  0  0  0
   61.9553   35.2262   47.9497 H   0  0  0  0  0  0  0  0  0  0  0  0
   63.8246   34.1665   49.1798 H   0  0  0  0  0  0  0  0  0  0  0  0
   65.2638   30.8230   51.1072 H   0  0  0  0  0  0  0  0  0  0  0  0
   64.0963   32.1520   51.4618 H   0  0  0  0  0  0  0  0  0  0  0  0
   62.7551   29.8894   50.1921 H   0  0  0  0  0  0  0  0  0  0  0  0
   63.6776   29.4122   51.7221 H   0  0  0  0  0  0  0  0  0  0  0  0
   60.8090   29.2951   53.0651 H   0  0  0  0  0  0  0  0  0  0  0  0
   60.1377   29.8918   51.5094 H   0  0  0  0  0  0  0  0  0  0  0  0
   61.4748   28.6923   51.5094 H   0  0  0  0  0  0  0  0  0  0  0  0
   61.6106   31.9676   50.3916 H   0  0  0  0  0  0  0  0  0  0  0  0
   60.2912   31.7838   51.6346 H   0  0  0  0  0  0  0  0  0  0  0  0
   62.9055   33.3137   52.0206 H   0  0  0  0  0  0  0  0  0  0  0  0
   61.2589   34.0260   51.6974 H   0  0  0  0  0  0  0  0  0  0  0  0
   62.4386   33.9731   55.3865 H   0  0  0  0  0  0  0  0  0  0  0  0
   63.5475   33.7233   53.9955 H   0  0  0  0  0  0  0  0  0  0  0  0
   62.4047   35.1093   53.9955 H   0  0  0  0  0  0  0  0  0  0  0  0
   60.0278   34.0241   54.8972 H   0  0  0  0  0  0  0  0  0  0  0  0
   60.1376   34.7290   53.2021 H   0  0  0  0  0  0  0  0  0  0  0  0
   58.7619   31.9595   55.2740 H   0  0  0  0  0  0  0  0  0  0  0  0
   56.8204   30.5844   54.5323 H   0  0  0  0  0  0  0  0  0  0  0  0
   56.9663   32.4679   50.6423 H   0  0  0  0  0  0  0  0  0  0  0  0
   58.9315   33.8188   51.3652 H   0  0  0  0  0  0  0  0  0  0  0  0
   61.9080   31.8976   55.2494 H   0  0  0  0  0  0  0  0  0  0  0  0
   60.5491   31.4106   54.1398 H   0  0  0  0  0  0  0  0  0  0  0  0
   63.5152   31.3393   53.4106 H   0  0  0  0  0  0  0  0  0  0  0  0
   62.5208   29.9194   53.9439 H   0  0  0  0  0  0  0  0  0  0  0  0
   62.2880   30.2563   48.1908 H   0  0  0  0  0  0  0  0  0  0  0  0
  1  2  1  0
  2  3  1  0
  3  4  1  0
  4  5  1  0
  3  6  1  0
  6  7  1  0
  7  8  1  0
  8  9  1  0
  9 10  2  0
 10 11  1  0
 11 12  2  0
 12 13  1  0
 13 14  2  0
 14 15  1  0
 15 16  2  0
 16 17  1  0
 16 18  1  0
 18 19  2  0
 19 20  1  0
 20 21  2  0
 21 22  1  0
 22 23  1  0
 23 24  1  0
 25 24  1  6
 25 26  1  0
 25 27  1  0
 27 28  1  0
 28 29  1  0
 29 30  1  1
 29 31  1  0
 31 32  1  0
 32 33  2  0
 33 34  1  0
 34 35  2  0
 35 36  1  0
 35 37  1  0
 37 38  2  0
 29 39  1  0
 39 40  1  0
 21 41  1  0
 41 42  2  0
 42  9  1  0
 15 10  1  0
 42 18  1  0
 40 25  1  0
 38 32  1  0
  1 43  1  0
  1 44  1  0
  1 45  1  0
  2 46  1  0
  2 47  1  0
  4 48  1  0
  4 49  1  0
  5 50  1  0
  5 51  1  0
  5 52  1  0
  6 53  1  0
  6 54  1  0
  7 55  1  0
  7 56  1  0
  8 57  1  0
 11 58  1  0
 12 59  1  0
 13 60  1  0
 14 61  1  0
 17 62  1  0
 17 63  1  0
 17 64  1  0
 19 65  1  0
 20 66  1  0
 23 67  1  0
 23 68  1  0
 24 69  1  0
 24 70  1  0
 26 71  1  0
 26 72  1  0
 26 73  1  0
 27 74  1  0
 27 75  1  0
 28 76  1  0
 28 77  1  0
 30 78  1  0
 30 79  1  0
 30 80  1  0
 31 81  1  0
 31 82  1  0
 33 83  1  0
 34 84  1  0
 37 85  1  0
 38 86  1  0
 39 87  1  0
 39 88  1  0
 40 89  1  0
 40 90  1  0
 41 91  1  0
M  CHG  3  16   1  25   1  29   1
M  END
>  <UniqueID>  (20) 
20

>  <SMILES>  (20) 
CCN(CC)CCNc1c2ccccc2[n+](C)c2ccc(OCC[N+]3(C)CC[N+](C)(Cc4ccc(Br)cc4)CC3)cc12

>  <Energy>  (20) 
148.83147249465003

>  <Genealogy>  (20) 
CCN(CC)CCNc1c2ccccc2[n+](C)c2ccc(OCC[N+]3(C)CC[N+](C)(Cc4ccc(Br)cc4)CC3)cc12 (3D coordinates assigned)
CCN(CC)CCNc1c2ccccc2[n+](C)c2ccc(OCC[N+]3(C)CC[N+](C)(Cc4ccc(Br)cc4)CC3)cc12 (nonaromatic ring conformer: 148.83147249465003 kcal/mol)

>  <smiles>  (20) 
CCN(CC)CCNc1c2ccccc2[n+](C)c2ccc(OCC[N+]3(C)CC[N+](C)(Cc4ccc(Br)cc4)CC3)cc12

>  <score_type>  (20) 
oracle

>  <origin>  (20) 
adg

>  <m_score__min__energy>  (20) 
-4.8600000000000003

>  <m_primary>  (20) 
energy

$$$$
20:0
     RDKit          3D

 78 83  0  0  0  0  0  0  0  0999 V2000
   64.6950   27.4340   52.4910 C   0  0  0  0  0  0  0  0  0  0  0  0
   63.3660   27.1370   53.1760 C   0  0  0  0  0  0  0  0  0  0  0  0
   62.6150   28.3830   53.3760 N   0  0  0  0  0  0  0  0  0  0  0  0
   61.1910   28.2100   53.0530 C   0  0  0  0  0  0  0  0  0  0  0  0
   60.8900   28.7670   51.6600 C   0  0  0  0  0  0  0  0  0  0  0  0
   62.1240   29.0010   50.9110 N   0  0  0  0  0  0  0  0  0  0  0  0
   62.2710   30.1600   50.0780 C   0  0  0  0  0  0  0  0  0  0  0  0
   61.4960   30.2470   48.9100 C   0  0  0  0  0  0  0  0  0  0  0  0
   60.3560   29.4340   48.7320 C   0  0  0  0  0  0  0  0  0  0  0  0
   59.5530   29.5740   47.6020 C   0  0  0  0  0  0  0  0  0  0  0  0
   59.8720   30.5220   46.6350 C   0  0  0  0  0  0  0  0  0  0  0  0
   61.0160   31.3070   46.7740 C   0  0  0  0  0  0  0  0  0  0  0  0
   61.8710   31.1570   47.8950 C   0  0  0  0  0  0  0  0  0  0  0  0
   63.0570   31.8520   48.0040 N   0  0  0  0  0  0  0  0  0  0  0  0
   63.6500   32.4820   46.8020 C   0  0  0  0  0  0  0  0  0  0  0  0
   63.6910   31.9470   49.2300 C   0  0  0  0  0  0  0  0  0  0  0  0
   64.7580   32.8550   49.4240 C   0  0  0  0  0  0  0  0  0  0  0  0
   65.4050   32.9580   50.6440 C   0  0  0  0  0  0  0  0  0  0  0  0
   64.9560   32.2330   51.7320 C   0  0  0  0  0  0  0  0  0  0  0  0
   63.8590   31.3610   51.6280 C   0  0  0  0  0  0  0  0  0  0  0  0
   63.2690   30.9160   52.8810 N   0  0  0  0  0  0  0  0  0  0  0  0
   63.2090   32.0090   53.8690 C   0  0  0  0  0  0  0  0  0  0  0  0
   61.7650   32.3630   54.2630 C   0  0  0  0  0  0  0  0  0  0  0  0
   60.8630   32.2090   53.1080 N   0  0  0  0  0  0  0  0  0  0  0  0
   59.8340   31.2990   53.2320 C   0  0  0  0  0  0  0  0  0  0  0  0
   58.9290   31.0980   52.2250 N   0  0  0  0  0  0  0  0  0  0  0  0
   57.8340   30.1370   52.3840 C   0  0  0  0  0  0  0  0  0  0  0  0
   59.0600   31.8280   51.0860 C   0  0  0  0  0  0  0  0  0  0  0  0
   58.2420   31.7750   50.0110 N   0  0  0  0  0  0  0  0  0  0  0  0
   58.7520   32.6740   49.1470 C   0  0  0  0  0  0  0  0  0  0  0  0
   58.2430   32.9950   47.8890 C   0  0  0  0  0  0  0  0  0  0  0  0
   58.9050   33.9830   47.1420 C   0  0  0  0  0  0  0  0  0  0  0  0
   60.0430   34.6310   47.6630 C   0  0  0  0  0  0  0  0  0  0  0  0
   60.5380   34.2960   48.9360 C   0  0  0  0  0  0  0  0  0  0  0  0
   59.8760   33.2960   49.6590 C   0  0  0  0  0  0  0  0  0  0  0  0
   60.0790   32.7370   50.9180 C   0  0  0  0  0  0  0  0  0  0  0  0
   61.0340   32.9190   51.9290 C   0  0  0  0  0  0  0  0  0  0  0  0
   62.1940   33.8620   51.7010 C   0  0  0  0  0  0  0  0  0  0  0  0
   63.2670   31.1380   50.3340 C   0  0  0  0  0  0  0  0  0  0  0  0
   65.4695   27.6071   53.2527 H   0  0  0  0  0  0  0  0  0  0  0  0
   64.9832   26.5781   51.8630 H   0  0  0  0  0  0  0  0  0  0  0  0
   64.5914   28.3311   51.8630 H   0  0  0  0  0  0  0  0  0  0  0  0
   62.7768   26.4534   52.5472 H   0  0  0  0  0  0  0  0  0  0  0  0
   63.5596   26.6710   54.1534 H   0  0  0  0  0  0  0  0  0  0  0  0
   62.6820   28.6310   54.3920 H   0  0  0  0  0  0  0  0  0  0  0  0
   60.9411   27.1390   53.0772 H   0  0  0  0  0  0  0  0  0  0  0  0
   60.5877   28.7550   53.7939 H   0  0  0  0  0  0  0  0  0  0  0  0
   60.2673   28.0453   51.1109 H   0  0  0  0  0  0  0  0  0  0  0  0
   60.3614   29.7251   51.7725 H   0  0  0  0  0  0  0  0  0  0  0  0
   62.9890   28.5040   51.2250 H   0  0  0  0  0  0  0  0  0  0  0  0
   60.0990   28.6824   49.4930 H   0  0  0  0  0  0  0  0  0  0  0  0
   58.6668   28.9350   47.4744 H   0  0  0  0  0  0  0  0  0  0  0  0
   59.2201   30.6526   45.7586 H   0  0  0  0  0  0  0  0  0  0  0  0
   61.2586   32.0532   46.0030 H   0  0  0  0  0  0  0  0  0  0  0  0
   64.3737   33.2509   47.1103 H   0  0  0  0  0  0  0  0  0  0  0  0
   64.1624   31.7159   46.2015 H   0  0  0  0  0  0  0  0  0  0  0  0
   62.8544   32.9471   46.2015 H   0  0  0  0  0  0  0  0  0  0  0  0
   65.0807   33.4929   48.5880 H   0  0  0  0  0  0  0  0  0  0  0  0
   66.2785   33.6185   50.7476 H   0  0  0  0  0  0  0  0  0  0  0  0
   65.4682   32.3410   52.6995 H   0  0  0  0  0  0  0  0  0  0  0  0
   63.8760   30.1620   53.2830 H   0  0  0  0  0  0  0  0  0  0  0  0
   62.3420   30.4650   52.7960 H   0  0  0  0  0  0  0  0  0  0  0  0
   63.7561   31.6998   54.7718 H   0  0  0  0  0  0  0  0  0  0  0  0
   63.6605   32.9013   53.4107 H   0  0  0  0  0  0  0  0  0  0  0  0
   61.4358   31.6935   55.0714 H   0  0  0  0  0  0  0  0  0  0  0  0
   61.7346   33.4092   54.6014 H   0  0  0  0  0  0  0  0  0  0  0  0
   59.7383   30.7207   54.1628 H   0  0  0  0  0  0  0  0  0  0  0  0
   57.6446   29.9708   53.4547 H   0  0  0  0  0  0  0  0  0  0  0  0
   56.9253   30.5345   51.9083 H   0  0  0  0  0  0  0  0  0  0  0  0
   58.1102   29.1844   51.9083 H   0  0  0  0  0  0  0  0  0  0  0  0
   57.3950   31.1810   49.8730 H   0  0  0  0  0  0  0  0  0  0  0  0
   57.3497   32.4894   47.4936 H   0  0  0  0  0  0  0  0  0  0  0  0
   58.5325   34.2531   46.1428 H   0  0  0  0  0  0  0  0  0  0  0  0
   60.5487   35.4060   47.0684 H   0  0  0  0  0  0  0  0  0  0  0  0
   61.4200   34.8050   49.3519 H   0  0  0  0  0  0  0  0  0  0  0  0
   62.5966   34.1893   52.6710 H   0  0  0  0  0  0  0  0  0  0  0  0
   62.9811   33.3444   51.1331 H   0  0  0  0  0  0  0  0  0  0  0  0
   61.8481   34.7382   51.1331 H   0  0  0  0  0  0  0  0  0  0  0  0
  1  2  1  0
  2  3  1  0
  3  4  1  0
  4  5  1  0
  5  6  1  0
  6  7  1  0
  7  8  2  0
  8  9  1  0
  9 10  2  0
 10 11  1  0
 11 12  2  0
 12 13  1  0
 13 14  2  0
 14 15  1  0
 14 16  1  0
 16 17  2  0
 17 18  1  0
 18 19  2  0
 19 20  1  0
 20 21  1  0
 21 22  1  0
 22 23  1  0
 23 24  1  0
 24 25  2  0
 25 26  1  0
 26 27  1  0
 26 28  2  0
 28 29  1  0
 29 30  1  0
 30 31  2  0
 31 32  1  0
 32 33  2  0
 33 34  1  0
 34 35  2  0
 35 36  1  0
 36 37  2  0
 37 38  1  0
 20 39  2  0
 39  7  1  0
 13  8  1  0
 39 16  1  0
 37 24  1  0
 36 28  1  0
 35 30  1  0
  1 40  1  0
  1 41  1  0
  1 42  1  0
  2 43  1  0
  2 44  1  0
  3 45  1  0
  4 46  1  0
  4 47  1  0
  5 48  1  0
  5 49  1  0
  6 50  1  0
  9 51  1  0
 10 52  1  0
 11 53  1  0
 12 54  1  0
 15 55  1  0
 15 56  1  0
 15 57  1  0
 17 58  1  0
 18 59  1  0
 19 60  1  0
 21 61  1  0
 21 62  1  0
 22 63  1  0
 22 64  1  0
 23 65  1  0
 23 66  1  0
 25 67  1  0
 27 68  1  0
 27 69  1  0
 27 70  1  0
 29 71  1  0
 31 72  1  0
 32 73  1  0
 33 74  1  0
 34 75  1  0
 38 76  1  0
 38 77  1  0
 38 78  1  0
M  CHG  4  14   1  21   1  24   1  26   1
M  END
>  <UniqueID>  (21) 
21

>  <SMILES>  (21) 
CCNCCNc1c2ccccc2[n+](C)c2cccc([NH2+]CC[n+]3c[n+](C)c4[nH]c5ccccc5c4c3C)c12

>  <Energy>  (21) 
167.60670865773943

>  <Genealogy>  (21) 
CCNCCNc1c2ccccc2[n+](C)c2cccc([NH2+]CC[n+]3c[n+](C)c4[nH]c5ccccc5c4c3C)c12 (protonated)
CCNCCNc1c2ccccc2[n+](C)c2cccc([NH2+]CC[n+]3c[n+](C)c4[nH]c5ccccc5c4c3C)c12 (3D coordinates assigned)
CCNCCNc1c2ccccc2[n+](C)c2cccc([NH2+]CC[n+]3c[n+](C)c4[nH]c5ccccc5c4c3C)c12 (optimized conformer: 167.60670865773943 kcal/mol)

>  <smiles>  (21) 
CCNCCNc1c2ccccc2[n+](C)c2cccc(NCC[n+]3c[n+](C)c4[nH]c5ccccc5c4c3C)c12

>  <score_type>  (21) 
oracle

>  <origin>  (21) 
adg

>  <m_score__min__energy>  (21) 
-3.75

>  <m_primary>  (21) 
energy

$$$$
21:0
     RDKit          3D

 68 70  0  0  0  0  0  0  0  0999 V2000
   60.8880   33.8340   50.2970 C   0  0  0  0  0  0  0  0  0  0  0  0
   61.9040   34.2600   49.2400 C   0  0  0  0  0  0  0  0  0  0  0  0
   62.2810   33.1040   48.3940 N   0  0  0  0  0  0  0  0  0  0  0  0
   62.0900   33.4130   46.9570 C   0  0  0  0  0  0  0  0  0  0  0  0
   63.3900   33.9310   46.3490 C   0  0  0  0  0  0  0  0  0  0  0  0
   63.6730   32.6760   48.6670 C   0  0  0  0  0  0  0  0  0  0  0  0
   63.6950   31.5590   49.7120 C   0  0  0  0  0  0  0  0  0  0  0  0
   62.3610   31.2140   50.0460 O   0  0  0  0  0  0  0  0  0  0  0  0
   62.2490   30.7760   51.3860 C   0  0  0  0  0  0  0  0  0  0  0  0
   61.7390   29.3240   51.4420 C   0  0  0  0  0  0  0  0  0  0  0  0
   60.4810   29.1380   50.7030 N   0  0  0  0  0  0  0  0  0  0  0  0
   59.4220   30.0510   51.1630 C   0  0  0  0  0  0  0  0  0  0  0  0
   59.1370   31.1220   50.0990 C   0  0  0  0  0  0  0  0  0  0  0  0
   60.0330   30.9870   48.9350 N   0  0  0  0  0  0  0  0  0  0  0  0
   59.2690   30.8310   47.7060 C   0  0  0  0  0  0  0  0  0  0  0  0
   58.8010   31.9680   46.9990 C   0  0  0  0  0  0  0  0  0  0  0  0
   58.8910   33.2700   47.5540 C   0  0  0  0  0  0  0  0  0  0  0  0
   58.4310   34.3820   46.8580 C   0  0  0  0  0  0  0  0  0  0  0  0
   57.8620   34.2310   45.6050 C   0  0  0  0  0  0  0  0  0  0  0  0
   57.7510   32.9670   45.0340 C   0  0  0  0  0  0  0  0  0  0  0  0
   58.2240   31.8050   45.7070 C   0  0  0  0  0  0  0  0  0  0  0  0
   58.1310   30.5470   45.1340 N   0  0  0  0  0  0  0  0  0  0  0  0
   57.7800   30.4090   43.6960 C   0  0  0  0  0  0  0  0  0  0  0  0
   56.2810   30.1610   43.5090 C   0  0  0  0  0  0  0  0  0  0  0  0
   58.3910   29.4190   45.8960 C   0  0  0  0  0  0  0  0  0  0  0  0
   58.0910   28.1140   45.4200 C   0  0  0  0  0  0  0  0  0  0  0  0
   58.3690   26.9820   46.1810 C   0  0  0  0  0  0  0  0  0  0  0  0
   58.9380   27.1100   47.4370 C   0  0  0  0  0  0  0  0  0  0  0  0
   59.2320   28.3710   47.9450 C   0  0  0  0  0  0  0  0  0  0  0  0
   58.9710   29.5430   47.1920 C   0  0  0  0  0  0  0  0  0  0  0  0
   61.3061   34.0093   51.2992 H   0  0  0  0  0  0  0  0  0  0  0  0
   59.9656   34.4212   50.1767 H   0  0  0  0  0  0  0  0  0  0  0  0
   60.6602   32.7646   50.1767 H   0  0  0  0  0  0  0  0  0  0  0  0
   61.4624   35.0440   48.6073 H   0  0  0  0  0  0  0  0  0  0  0  0
   62.8038   34.6440   49.7428 H   0  0  0  0  0  0  0  0  0  0  0  0
   61.7804   32.4998   46.4276 H   0  0  0  0  0  0  0  0  0  0  0  0
   61.3152   34.1874   46.8576 H   0  0  0  0  0  0  0  0  0  0  0  0
   64.0863   34.2085   47.1541 H   0  0  0  0  0  0  0  0  0  0  0  0
   63.8429   33.1446   45.7273 H   0  0  0  0  0  0  0  0  0  0  0  0
   63.1780   34.8133   45.7273 H   0  0  0  0  0  0  0  0  0  0  0  0
   64.1282   32.3090   47.7353 H   0  0  0  0  0  0  0  0  0  0  0  0
   64.2402   33.5357   49.0533 H   0  0  0  0  0  0  0  0  0  0  0  0
   64.2117   30.6792   49.3008 H   0  0  0  0  0  0  0  0  0  0  0  0
   64.2269   31.9018   50.6117 H   0  0  0  0  0  0  0  0  0  0  0  0
   63.2363   30.8310   51.8678 H   0  0  0  0  0  0  0  0  0  0  0  0
   61.5319   31.4237   51.9116 H   0  0  0  0  0  0  0  0  0  0  0  0
   62.5043   28.6647   51.0066 H   0  0  0  0  0  0  0  0  0  0  0  0
   61.5454   29.0791   52.4968 H   0  0  0  0  0  0  0  0  0  0  0  0
   60.1630   28.1480   50.8230 H   0  0  0  0  0  0  0  0  0  0  0  0
   58.5041   29.4750   51.3521 H   0  0  0  0  0  0  0  0  0  0  0  0
   59.7552   30.5464   52.0869 H   0  0  0  0  0  0  0  0  0  0  0  0
   58.0953   31.0200   49.7607 H   0  0  0  0  0  0  0  0  0  0  0  0
   59.3096   32.1095   50.5518 H   0  0  0  0  0  0  0  0  0  0  0  0
   60.6740   31.8060   48.8540 H   0  0  0  0  0  0  0  0  0  0  0  0
   60.6880   30.1860   49.0740 H   0  0  0  0  0  0  0  0  0  0  0  0
   59.3326   33.4023   48.5528 H   0  0  0  0  0  0  0  0  0  0  0  0
   58.5193   35.3838   47.3037 H   0  0  0  0  0  0  0  0  0  0  0  0
   57.4964   35.1132   45.0590 H   0  0  0  0  0  0  0  0  0  0  0  0
   57.2880   32.8633   44.0416 H   0  0  0  0  0  0  0  0  0  0  0  0
   58.0584   31.3336   43.1692 H   0  0  0  0  0  0  0  0  0  0  0  0
   58.3275   29.5471   43.2868 H   0  0  0  0  0  0  0  0  0  0  0  0
   55.7970   30.0809   44.4935 H   0  0  0  0  0  0  0  0  0  0  0  0
   55.8378   30.9980   42.9495 H   0  0  0  0  0  0  0  0  0  0  0  0
   56.1310   29.2258   42.9495 H   0  0  0  0  0  0  0  0  0  0  0  0
   57.6291   27.9958   44.4287 H   0  0  0  0  0  0  0  0  0  0  0  0
   58.1361   25.9831   45.7836 H   0  0  0  0  0  0  0  0  0  0  0  0
   59.1579   26.2127   48.0341 H   0  0  0  0  0  0  0  0  0  0  0  0
   59.6745   28.4601   48.9481 H   0  0  0  0  0  0  0  0  0  0  0  0
  1  2  1  0
  2  3  1  0
  3  4  1  0
  4  5  1  0
  3  6  1  0
  6  7  1  0
  7  8  1  0
  8  9  1  0
  9 10  1  0
 10 11  1  0
 11 12  1  0
 12 13  1  0
 13 14  1  0
 14 15  1  0
 15 16  2  0
 16 17  1  0
 17 18  2  0
 18 19  1  0
 19 20  2  0
 20 21  1  0
 21 22  2  0
 22 23  1  0
 23 24  1  0
 22 25  1  0
 25 26  2  0
 26 27  1  0
 27 28  2  0
 28 29  1  0
 29 30  2  0
 30 15  1  0
 21 16  1  0
 30 25  1  0
  1 31  1  0
  1 32  1  0
  1 33  1  0
  2 34  1  0
  2 35  1  0
  4 36  1  0
  4 37  1  0
  5 38  1  0
  5 39  1  0
  5 40  1  0
  6 41  1  0
  6 42  1  0
  7 43  1  0
  7 44  1  0
  9 45  1  0
  9 46  1  0
 10 47  1  0
 10 48  1  0
 11 49  1  0
 12 50  1  0
 12 51  1  0
 13 52  1  0
 13 53  1  0
 14 54  1  0
 14 55  1  0
 17 56  1  0
 18 57  1  0
 19 58  1  0
 20 59  1  0
 23 60  1  0
 23 61  1  0
 24 62  1  0
 24 63  1  0
 24 64  1  0
 26 65  1  0
 27 66  1  0
 28 67  1  0
 29 68  1  0
M  CHG  2  14   1  22   1
M  END
>  <UniqueID>  (22) 
22

>  <SMILES>  (22) 
CCN(CC)CCOCCNCC[NH2+]c1c2ccccc2[n+](CC)c2ccccc12

>  <Energy>  (22) 
92.72774094936649

>  <Genealogy>  (22) 
CCN(CC)CCOCCNCC[NH2+]c1c2ccccc2[n+](CC)c2ccccc12 (protonated)
CCN(CC)CCOCCNCC[NH2+]c1c2ccccc2[n+](CC)c2ccccc12 (3D coordinates assigned)
CCN(CC)CCOCCNCC[NH2+]c1c2ccccc2[n+](CC)c2ccccc12 (optimized conformer: 92.72774094936649 kcal/mol)

>  <smiles>  (22) 
CCN(CC)CCOCCNCCNc1c2ccccc2[n+](CC)c2ccccc12

>  <score_type>  (22) 
oracle

>  <origin>  (22) 
adg

>  <m_score__min__energy>  (22) 
-3.75

>  <m_primary>  (22) 
energy

$$$$
22:0
     RDKit          3D

 58 60  0  0  0  0  0  0  0  0999 V2000
   58.8200   33.5860   46.9900 C   0  0  0  0  0  0  0  0  0  0  0  0
   58.1510   32.2430   47.2670 C   0  0  0  0  0  0  0  0  0  0  0  0
   58.5020   31.2700   46.2210 N   0  0  0  0  0  0  0  0  0  0  0  0
   58.4490   31.8770   44.8840 C   0  0  0  0  0  0  0  0  0  0  0  0
   57.0280   31.7990   44.3300 C   0  0  0  0  0  0  0  0  0  0  0  0
   56.4350   30.5780   44.7230 O   0  0  0  0  0  0  0  0  0  0  0  0
   56.6950   29.5630   43.7720 C   0  0  0  0  0  0  0  0  0  0  0  0
   57.9140   28.7670   44.2280 C   0  0  0  0  0  0  0  0  0  0  0  0
   57.7640   28.3860   45.6460 N   0  0  0  0  0  0  0  0  0  0  0  0
   58.4440   27.1200   45.9600 C   0  0  0  0  0  0  0  0  0  0  0  0
   59.3270   27.2740   47.2020 C   0  0  0  0  0  0  0  0  0  0  0  0
   58.6820   28.0890   48.1810 O   0  0  0  0  0  0  0  0  0  0  0  0
   59.2340   29.2370   48.7740 C   0  0  0  0  0  0  0  0  0  0  0  0
   58.7350   29.7880   49.9880 C   0  0  0  0  0  0  0  0  0  0  0  0
   59.3140   30.9400   50.5500 C   0  0  0  0  0  0  0  0  0  0  0  0
   60.3930   31.5280   49.8860 C   0  0  0  0  0  0  0  0  0  0  0  0
   60.8690   30.9990   48.7030 C   0  0  0  0  0  0  0  0  0  0  0  0
   60.3160   29.8600   48.1240 C   0  0  0  0  0  0  0  0  0  0  0  0
   61.8910   31.8250   48.2920 C   0  0  0  0  0  0  0  0  0  0  0  0
   62.7060   31.7930   47.1620 C   0  0  0  0  0  0  0  0  0  0  0  0
   63.6530   32.8200   47.0090 C   0  0  0  0  0  0  0  0  0  0  0  0
   63.7610   33.8440   47.9750 C   0  0  0  0  0  0  0  0  0  0  0  0
   62.9240   33.8560   49.1050 C   0  0  0  0  0  0  0  0  0  0  0  0
   61.9920   32.8210   49.2440 C   0  0  0  0  0  0  0  0  0  0  0  0
   61.0860   32.6400   50.2390 N   0  0  0  0  0  0  0  0  0  0  0  0
   60.8450   33.5120   51.3910 C   0  0  0  0  0  0  0  0  0  0  0  0
   59.3750   33.9090   51.4550 C   0  0  0  0  0  0  0  0  0  0  0  0
   59.0647   34.0773   47.9433 H   0  0  0  0  0  0  0  0  0  0  0  0
   59.7427   33.4240   46.4135 H   0  0  0  0  0  0  0  0  0  0  0  0
   58.1349   34.2249   46.4135 H   0  0  0  0  0  0  0  0  0  0  0  0
   58.4891   31.8640   48.2427 H   0  0  0  0  0  0  0  0  0  0  0  0
   57.0599   32.3823   47.2732 H   0  0  0  0  0  0  0  0  0  0  0  0
   57.7830   30.5070   46.2460 H   0  0  0  0  0  0  0  0  0  0  0  0
   58.7567   32.9310   44.9502 H   0  0  0  0  0  0  0  0  0  0  0  0
   59.1283   31.3311   44.2128 H   0  0  0  0  0  0  0  0  0  0  0  0
   56.4348   32.6378   44.7230 H   0  0  0  0  0  0  0  0  0  0  0  0
   57.0593   31.8544   43.2318 H   0  0  0  0  0  0  0  0  0  0  0  0
   55.8242   28.8953   43.6956 H   0  0  0  0  0  0  0  0  0  0  0  0
   56.8878   30.0126   42.7868 H   0  0  0  0  0  0  0  0  0  0  0  0
   58.0070   27.8589   43.6143 H   0  0  0  0  0  0  0  0  0  0  0  0
   58.8151   29.3874   44.1133 H   0  0  0  0  0  0  0  0  0  0  0  0
   58.2010   29.1340   46.2330 H   0  0  0  0  0  0  0  0  0  0  0  0
   57.6897   26.3416   46.1474 H   0  0  0  0  0  0  0  0  0  0  0  0
   59.0789   26.8383   45.1071 H   0  0  0  0  0  0  0  0  0  0  0  0
   59.5229   26.2804   47.6314 H   0  0  0  0  0  0  0  0  0  0  0  0
   60.2714   27.7550   46.9075 H   0  0  0  0  0  0  0  0  0  0  0  0
   57.8850   29.3063   50.4934 H   0  0  0  0  0  0  0  0  0  0  0  0
   58.9274   31.3665   51.4874 H   0  0  0  0  0  0  0  0  0  0  0  0
   60.7149   29.4568   47.1815 H   0  0  0  0  0  0  0  0  0  0  0  0
   62.6113   30.9910   46.4151 H   0  0  0  0  0  0  0  0  0  0  0  0
   64.3148   32.8261   46.1304 H   0  0  0  0  0  0  0  0  0  0  0  0
   64.5077   34.6408   47.8423 H   0  0  0  0  0  0  0  0  0  0  0  0
   62.9995   34.6550   49.8573 H   0  0  0  0  0  0  0  0  0  0  0  0
   61.1173   32.9782   52.3135 H   0  0  0  0  0  0  0  0  0  0  0  0
   61.4569   34.4202   51.2867 H   0  0  0  0  0  0  0  0  0  0  0  0
   59.0634   33.9932   52.5066 H   0  0  0  0  0  0  0  0  0  0  0  0
   59.2345   34.8773   50.9523 H   0  0  0  0  0  0  0  0  0  0  0  0
   58.7661   33.1431   50.9523 H   0  0  0  0  0  0  0  0  0  0  0  0
  1  2  1  0
  2  3  1  0
  3  4  1  0
  4  5  1  0
  5  6  1  0
  6  7  1  0
  7  8  1  0
  8  9  1  0
  9 10  1  0
 10 11  1  0
 11 12  1  0
 12 13  1  0
 13 14  2  0
 14 15  1  0
 15 16  2  0
 16 17  1  0
 17 18  2  0
 17 19  1  0
 19 20  2  0
 20 21  1  0
 21 22  2  0
 22 23  1  0
 23 24  2  0
 24 25  1  0
 25 26  1  0
 26 27  1  0
 18 13  1  0
 24 19  1  0
 25 16  1  0
  1 28  1  0
  1 29  1  0
  1 30  1  0
  2 31  1  0
  2 32  1  0
  3 33  1  0
  4 34  1  0
  4 35  1  0
  5 36  1  0
  5 37  1  0
  7 38  1  0
  7 39  1  0
  8 40  1  0
  8 41  1  0
  9 42  1  0
 10 43  1  0
 10 44  1  0
 11 45  1  0
 11 46  1  0
 14 47  1  0
 15 48  1  0
 18 49  1  0
 20 50  1  0
 21 51  1  0
 22 52  1  0
 23 53  1  0
 26 54  1  0
 26 55  1  0
 27 56  1  0
 27 57  1  0
 27 58  1  0
M  END
>  <UniqueID>  (23) 
23

>  <SMILES>  (23) 
CCNCCOCCNCCOc1ccc2c(c1)c1ccccc1n2CC

>  <Energy>  (23) 
92.699174488958

>  <Genealogy>  (23) 
CCNCCOCCNCCOc1ccc2c(c1)c1ccccc1n2CC (3D coordinates assigned)
CCNCCOCCNCCOc1ccc2c(c1)c1ccccc1n2CC (optimized conformer: 92.699174488958 kcal/mol)

>  <smiles>  (23) 
CCNCCOCCNCCOc1ccc2c(c1)c1ccccc1n2CC

>  <score_type>  (23) 
oracle

>  <origin>  (23) 
adg

>  <m_score__min__energy>  (23) 
-6.2400000000000002

>  <m_primary>  (23) 
energy

$$$$
23:0
     RDKit          3D

 67 69  0  0  0  0  0  0  0  0999 V2000
   63.2740   34.1970   50.9280 C   0  0  0  0  0  0  0  0  0  0  0  0
   63.0240   34.3610   49.4320 C   0  0  0  0  0  0  0  0  0  0  0  0
   62.8960   33.0370   48.7840 N   0  0  0  0  0  0  0  0  0  0  0  0
   63.5730   32.0070   49.5930 C   0  0  0  0  0  0  0  0  0  0  0  0
   63.4380   33.0560   47.4040 C   0  0  0  0  0  0  0  0  0  0  0  0
   62.4950   33.8080   46.4520 C   0  0  0  0  0  0  0  0  0  0  0  0
   61.1670   33.3250   46.5470 O   0  0  0  0  0  0  0  0  0  0  0  0
   60.3040   34.0780   45.7160 C   0  0  0  0  0  0  0  0  0  0  0  0
   59.3960   34.9470   46.5760 C   0  0  0  0  0  0  0  0  0  0  0  0
   59.0780   34.2620   47.7760 O   0  0  0  0  0  0  0  0  0  0  0  0
   60.0400   34.5070   48.7230 N   0  0  0  0  0  0  0  0  0  0  0  0
   59.6580   33.8670   49.9880 C   0  0  0  0  0  0  0  0  0  0  0  0
   59.7340   32.3440   49.8300 C   0  0  0  0  0  0  0  0  0  0  0  0
   60.3710   31.9350   48.5630 N   0  0  0  0  0  0  0  0  0  0  0  0
   60.1990   30.5120   48.2920 C   0  0  0  0  0  0  0  0  0  0  0  0
   60.6510   29.5460   49.2370 C   0  0  0  0  0  0  0  0  0  0  0  0
   61.2570   29.9240   50.4630 C   0  0  0  0  0  0  0  0  0  0  0  0
   61.6310   28.9730   51.4080 C   0  0  0  0  0  0  0  0  0  0  0  0
   61.4020   27.6280   51.1690 C   0  0  0  0  0  0  0  0  0  0  0  0
   60.8370   27.2210   49.9640 C   0  0  0  0  0  0  0  0  0  0  0  0
   60.4950   28.1600   48.9560 C   0  0  0  0  0  0  0  0  0  0  0  0
   60.0140   27.7470   47.7320 N   0  0  0  0  0  0  0  0  0  0  0  0
   60.1760   26.3350   47.3160 C   0  0  0  0  0  0  0  0  0  0  0  0
   59.4210   28.6530   46.8780 C   0  0  0  0  0  0  0  0  0  0  0  0
   58.6650   28.2120   45.7610 C   0  0  0  0  0  0  0  0  0  0  0  0
   58.1290   29.1060   44.8380 C   0  0  0  0  0  0  0  0  0  0  0  0
   57.4060   28.5910   43.7510 O   0  0  0  0  0  0  0  0  0  0  0  0
   57.8050   27.4660   42.9760 C   0  0  0  0  0  0  0  0  0  0  0  0
   58.3260   30.4750   45.0240 C   0  0  0  0  0  0  0  0  0  0  0  0
   59.0130   30.9420   46.1410 C   0  0  0  0  0  0  0  0  0  0  0  0
   59.5470   30.0530   47.1090 C   0  0  0  0  0  0  0  0  0  0  0  0
   62.4837   34.7154   51.4908 H   0  0  0  0  0  0  0  0  0  0  0  0
   63.2666   33.1277   51.1859 H   0  0  0  0  0  0  0  0  0  0  0  0
   64.2519   34.6296   51.1859 H   0  0  0  0  0  0  0  0  0  0  0  0
   62.0954   34.9307   49.2797 H   0  0  0  0  0  0  0  0  0  0  0  0
   63.8734   34.8976   48.9842 H   0  0  0  0  0  0  0  0  0  0  0  0
   63.4288   32.2264   50.6612 H   0  0  0  0  0  0  0  0  0  0  0  0
   63.1471   31.0198   49.3607 H   0  0  0  0  0  0  0  0  0  0  0  0
   64.6482   32.0064   49.3607 H   0  0  0  0  0  0  0  0  0  0  0  0
   64.4177   33.5562   47.4092 H   0  0  0  0  0  0  0  0  0  0  0  0
   63.5367   32.0185   47.0521 H   0  0  0  0  0  0  0  0  0  0  0  0
   62.5055   34.8774   46.7096 H   0  0  0  0  0  0  0  0  0  0  0  0
   62.8467   33.6494   45.4219 H   0  0  0  0  0  0  0  0  0  0  0  0
   60.9025   34.7190   45.0520 H   0  0  0  0  0  0  0  0  0  0  0  0
   59.6898   33.3939   45.1121 H   0  0  0  0  0  0  0  0  0  0  0  0
   59.9117   35.8881   46.8175 H   0  0  0  0  0  0  0  0  0  0  0  0
   58.4699   35.1653   46.0240 H   0  0  0  0  0  0  0  0  0  0  0  0
   61.0090   34.2290   48.4220 H   0  0  0  0  0  0  0  0  0  0  0  0
   60.3454   34.1883   50.7844 H   0  0  0  0  0  0  0  0  0  0  0  0
   58.6309   34.1587   50.2525 H   0  0  0  0  0  0  0  0  0  0  0  0
   60.3174   31.9319   50.6665 H   0  0  0  0  0  0  0  0  0  0  0  0
   58.7039   31.9582   49.8242 H   0  0  0  0  0  0  0  0  0  0  0  0
   61.3620   32.2490   48.5450 H   0  0  0  0  0  0  0  0  0  0  0  0
   59.9650   32.4950   47.7800 H   0  0  0  0  0  0  0  0  0  0  0  0
   61.4347   30.9895   50.6707 H   0  0  0  0  0  0  0  0  0  0  0  0
   62.1093   29.2901   52.3464 H   0  0  0  0  0  0  0  0  0  0  0  0
   61.6668   26.8812   51.9320 H   0  0  0  0  0  0  0  0  0  0  0  0
   60.6519   26.1508   49.7894 H   0  0  0  0  0  0  0  0  0  0  0  0
   60.2493   25.6960   48.2083 H   0  0  0  0  0  0  0  0  0  0  0  0
   59.3072   26.0277   46.7153 H   0  0  0  0  0  0  0  0  0  0  0  0
   61.0918   26.2325   46.7153 H   0  0  0  0  0  0  0  0  0  0  0  0
   58.4978   27.1339   45.6205 H   0  0  0  0  0  0  0  0  0  0  0  0
   58.0966   26.6439   43.6462 H   0  0  0  0  0  0  0  0  0  0  0  0
   56.9669   27.1421   42.3414 H   0  0  0  0  0  0  0  0  0  0  0  0
   58.6599   27.7425   42.3414 H   0  0  0  0  0  0  0  0  0  0  0  0
   57.9362   31.1891   44.2837 H   0  0  0  0  0  0  0  0  0  0  0  0
   59.1449   32.0257   46.2762 H   0  0  0  0  0  0  0  0  0  0  0  0
  1  2  1  0
  2  3  1  0
  3  4  1  0
  3  5  1  0
  5  6  1  0
  6  7  1  0
  7  8  1  0
  8  9  1  0
  9 10  1  0
 10 11  1  0
 11 12  1  0
 12 13  1  0
 13 14  1  0
 14 15  1  0
 15 16  2  0
 16 17  1  0
 17 18  2  0
 18 19  1  0
 19 20  2  0
 20 21  1  0
 21 22  2  0
 22 23  1  0
 22 24  1  0
 24 25  2  0
 25 26  1  0
 26 27  1  0
 27 28  1  0
 26 29  2  0
 29 30  1  0
 30 31  2  0
 31 15  1  0
 21 16  1  0
 31 24  1  0
  1 32  1  0
  1 33  1  0
  1 34  1  0
  2 35  1  0
  2 36  1  0
  4 37  1  0
  4 38  1  0
  4 39  1  0
  5 40  1  0
  5 41  1  0
  6 42  1  0
  6 43  1  0
  8 44  1  0
  8 45  1  0
  9 46  1  0
  9 47  1  0
 11 48  1  0
 12 49  1  0
 12 50  1  0
 13 51  1  0
 13 52  1  0
 14 53  1  0
 14 54  1  0
 17 55  1  0
 18 56  1  0
 19 57  1  0
 20 58  1  0
 23 59  1  0
 23 60  1  0
 23 61  1  0
 25 62  1  0
 28 63  1  0
 28 64  1  0
 28 65  1  0
 29 66  1  0
 30 67  1  0
M  CHG  2  14   1  22   1
M  END
>  <UniqueID>  (24) 
24

>  <SMILES>  (24) 
CCN(C)CCOCCONCC[NH2+]c1c2ccccc2[n+](C)c2cc(OC)ccc12

>  <Energy>  (24) 
98.21682085196804

>  <Genealogy>  (24) 
CCN(C)CCOCCONCC[NH2+]c1c2ccccc2[n+](C)c2cc(OC)ccc12 (protonated)
CCN(C)CCOCCONCC[NH2+]c1c2ccccc2[n+](C)c2cc(OC)ccc12 (3D coordinates assigned)
CCN(C)CCOCCONCC[NH2+]c1c2ccccc2[n+](C)c2cc(OC)ccc12 (optimized conformer: 98.21682085196804 kcal/mol)

>  <smiles>  (24) 
CCN(C)CCOCCONCCNc1c2ccccc2[n+](C)c2cc(OC)ccc12

>  <score_type>  (24) 
oracle

>  <origin>  (24) 
adg

>  <m_score__min__energy>  (24) 
-3.29

>  <m_primary>  (24) 
energy

$$$$
24:0
     RDKit          3D

 51 53  0  0  0  0  0  0  0  0999 V2000
   58.5670   25.9800   46.6610 C   0  0  0  0  0  0  0  0  0  0  0  0
   57.1440   26.4590   46.3550 C   0  0  0  0  0  0  0  0  0  0  0  0
   57.0870   27.3440   45.1800 N   0  0  0  0  0  0  0  0  0  0  0  0
   58.3150   27.2780   44.3730 C   0  0  0  0  0  0  0  0  0  0  0  0
   59.0950   28.5950   44.4680 C   0  0  0  0  0  0  0  0  0  0  0  0
   58.1730   29.8280   44.4470 C   0  0  0  0  0  0  0  0  0  0  0  0
   57.5720   30.1020   45.7690 N   0  0  0  0  0  0  0  0  0  0  0  0
   58.3960   30.9990   46.5720 C   0  0  0  0  0  0  0  0  0  0  0  0
   58.4790   32.3870   46.2650 C   0  0  0  0  0  0  0  0  0  0  0  0
   59.2670   33.2380   47.0890 C   0  0  0  0  0  0  0  0  0  0  0  0
   59.8380   32.7510   48.2470 N   0  0  0  0  0  0  0  0  0  0  0  0
   60.4170   33.6890   49.2370 C   0  0  0  0  0  0  0  0  0  0  0  0
   59.8990   31.3930   48.4760 C   0  0  0  0  0  0  0  0  0  0  0  0
   60.7070   30.8570   49.5140 C   0  0  0  0  0  0  0  0  0  0  0  0
   60.7470   29.4900   49.7670 C   0  0  0  0  0  0  0  0  0  0  0  0
   59.9990   28.6180   48.9910 C   0  0  0  0  0  0  0  0  0  0  0  0
   59.2220   29.1050   47.9450 C   0  0  0  0  0  0  0  0  0  0  0  0
   59.1630   30.4930   47.6580 C   0  0  0  0  0  0  0  0  0  0  0  0
   59.4380   34.7100   46.7190 C   0  0  0  0  0  0  0  0  0  0  0  0
   59.1730   35.0020   45.2490 C   0  0  0  0  0  0  0  0  0  0  0  0
   57.8140   34.4480   44.8720 C   0  0  0  0  0  0  0  0  0  0  0  0
   57.8190   32.9270   44.9970 C   0  0  0  0  0  0  0  0  0  0  0  0
   58.7112   25.9315   47.7504 H   0  0  0  0  0  0  0  0  0  0  0  0
   58.7191   24.9811   46.2261 H   0  0  0  0  0  0  0  0  0  0  0  0
   59.2922   26.6836   46.2261 H   0  0  0  0  0  0  0  0  0  0  0  0
   56.5092   25.5807   46.1661 H   0  0  0  0  0  0  0  0  0  0  0  0
   56.7911   27.0341   47.2237 H   0  0  0  0  0  0  0  0  0  0  0  0
   56.2710   27.0630   44.5880 H   0  0  0  0  0  0  0  0  0  0  0  0
   58.9465   26.4565   44.7422 H   0  0  0  0  0  0  0  0  0  0  0  0
   58.0398   27.1039   43.3223 H   0  0  0  0  0  0  0  0  0  0  0  0
   59.6682   28.5988   45.4069 H   0  0  0  0  0  0  0  0  0  0  0  0
   59.7561   28.6565   43.5910 H   0  0  0  0  0  0  0  0  0  0  0  0
   58.7614   30.7044   44.1375 H   0  0  0  0  0  0  0  0  0  0  0  0
   57.3544   29.6238   43.7412 H   0  0  0  0  0  0  0  0  0  0  0  0
   56.6240   30.5210   45.6400 H   0  0  0  0  0  0  0  0  0  0  0  0
   57.3620   29.1970   46.2400 H   0  0  0  0  0  0  0  0  0  0  0  0
   60.1963   33.3315   50.2536 H   0  0  0  0  0  0  0  0  0  0  0  0
   61.5066   33.7442   49.0962 H   0  0  0  0  0  0  0  0  0  0  0  0
   59.9780   34.6877   49.0962 H   0  0  0  0  0  0  0  0  0  0  0  0
   61.3135   31.5370   50.1303 H   0  0  0  0  0  0  0  0  0  0  0  0
   61.3727   29.1003   50.5835 H   0  0  0  0  0  0  0  0  0  0  0  0
   60.0200   27.5388   49.2029 H   0  0  0  0  0  0  0  0  0  0  0  0
   58.6429   28.4011   47.3293 H   0  0  0  0  0  0  0  0  0  0  0  0
   58.7374   35.3045   47.3237 H   0  0  0  0  0  0  0  0  0  0  0  0
   60.4876   34.9731   46.9167 H   0  0  0  0  0  0  0  0  0  0  0  0
   59.1876   36.0889   45.0807 H   0  0  0  0  0  0  0  0  0  0  0  0
   59.9508   34.5299   44.6307 H   0  0  0  0  0  0  0  0  0  0  0  0
   57.0505   34.8665   45.5442 H   0  0  0  0  0  0  0  0  0  0  0  0
   57.5865   34.7247   43.8320 H   0  0  0  0  0  0  0  0  0  0  0  0
   56.7755   32.5795   44.9806 H   0  0  0  0  0  0  0  0  0  0  0  0
   58.4171   32.5505   44.1540 H   0  0  0  0  0  0  0  0  0  0  0  0
  1  2  1  0
  2  3  1  0
  3  4  1  0
  4  5  1  0
  5  6  1  0
  6  7  1  0
  7  8  1  0
  8  9  2  0
  9 10  1  0
 10 11  2  0
 11 12  1  0
 11 13  1  0
 13 14  2  0
 14 15  1  0
 15 16  2  0
 16 17  1  0
 17 18  2  0
 10 19  1  0
 19 20  1  0
 20 21  1  0
 21 22  1  0
 18  8  1  0
 22  9  1  0
 18 13  1  0
  1 23  1  0
  1 24  1  0
  1 25  1  0
  2 26  1  0
  2 27  1  0
  3 28  1  0
  4 29  1  0
  4 30  1  0
  5 31  1  0
  5 32  1  0
  6 33  1  0
  6 34  1  0
  7 35  1  0
  7 36  1  0
 12 37  1  0
 12 38  1  0
 12 39  1  0
 14 40  1  0
 15 41  1  0
 16 42  1  0
 17 43  1  0
 19 44  1  0
 19 45  1  0
 20 46  1  0
 20 47  1  0
 21 48  1  0
 21 49  1  0
 22 50  1  0
 22 51  1  0
M  CHG  2   7   1  11   1
M  END
>  <UniqueID>  (25) 
25

>  <SMILES>  (25) 
CCNCCC[NH2+]c1c2c([n+](C)c3ccccc13)CCCC2

>  <Energy>  (25) 
69.37857740436866

>  <Genealogy>  (25) 
CCNCCC[NH2+]c1c2c([n+](C)c3ccccc13)CCCC2 (protonated)
CCNCCC[NH2+]c1c2c([n+](C)c3ccccc13)CCCC2 (3D coordinates assigned)
CCNCCC[NH2+]c1c2c([n+](C)c3ccccc13)CCCC2 (nonaromatic ring conformer: 69.37857740436866 kcal/mol)

>  <smiles>  (25) 
CCNCCCNc1c2c([n+](C)c3ccccc13)CCCC2

>  <score_type>  (25) 
oracle

>  <origin>  (25) 
adg

>  <m_score__min__energy>  (25) 
-4.1600000000000001

>  <m_primary>  (25) 
energy

$$$$
25:0
     RDKit          3D

 29 30  0  0  0  0  0  0  0  0999 V2000
   58.1520   31.3250   46.3900 C   0  0  0  0  0  0  0  0  0  0  0  0
   58.6850   32.7230   46.2370 C   0  0  0  0  0  0  0  0  0  0  0  0
   59.4540   33.2960   47.2630 C   0  0  0  0  0  0  0  0  0  0  0  0
   59.9320   34.6020   47.1410 C   0  0  0  0  0  0  0  0  0  0  0  0
   59.6470   35.3460   45.9960 C   0  0  0  0  0  0  0  0  0  0  0  0
   58.8800   34.7890   44.9700 C   0  0  0  0  0  0  0  0  0  0  0  0
   58.3770   33.4770   45.0860 C   0  0  0  0  0  0  0  0  0  0  0  0
   57.5830   32.8830   44.0880 O   0  0  0  0  0  0  0  0  0  0  0  0
   58.0460   32.3430   42.8480 C   0  0  0  0  0  0  0  0  0  0  0  0
   57.1040   31.2480   42.3380 C   0  0  0  0  0  0  0  0  0  0  0  0
   56.7300   30.3230   43.4050 N   0  0  0  0  0  0  0  0  0  0  0  0
   57.4530   29.2910   43.8700 C   0  0  0  0  0  0  0  0  0  0  0  0
   56.7140   28.6700   44.8530 C   0  0  0  0  0  0  0  0  0  0  0  0
   55.5350   29.3070   45.0050 N   0  0  0  0  0  0  0  0  0  0  0  0
   55.5800   30.3120   44.1060 C   0  0  0  0  0  0  0  0  0  0  0  0
   58.0596   31.0828   47.4590 H   0  0  0  0  0  0  0  0  0  0  0  0
   57.1640   31.2548   45.9114 H   0  0  0  0  0  0  0  0  0  0  0  0
   58.8425   30.6149   45.9114 H   0  0  0  0  0  0  0  0  0  0  0  0
   59.6809   32.7127   48.1676 H   0  0  0  0  0  0  0  0  0  0  0  0
   60.5338   35.0447   47.9484 H   0  0  0  0  0  0  0  0  0  0  0  0
   60.0272   36.3738   45.9008 H   0  0  0  0  0  0  0  0  0  0  0  0
   58.6670   35.3779   44.0656 H   0  0  0  0  0  0  0  0  0  0  0  0
   58.0971   33.1494   42.1016 H   0  0  0  0  0  0  0  0  0  0  0  0
   59.0407   31.9016   43.0086 H   0  0  0  0  0  0  0  0  0  0  0  0
   56.1938   31.7179   41.9371 H   0  0  0  0  0  0  0  0  0  0  0  0
   57.6281   30.6788   41.5561 H   0  0  0  0  0  0  0  0  0  0  0  0
   58.4554   28.9948   43.5274 H   0  0  0  0  0  0  0  0  0  0  0  0
   57.0365   27.7886   45.4267 H   0  0  0  0  0  0  0  0  0  0  0  0
   54.7686   31.0406   43.9617 H   0  0  0  0  0  0  0  0  0  0  0  0
  1  2  1  0
  2  3  2  0
  3  4  1  0
  4  5  2  0
  5  6  1  0
  6  7  2  0
  7  8  1  0
  8  9  1  0
  9 10  1  0
 10 11  1  0
 11 12  1  0
 12 13  2  0
 13 14  1  0
 14 15  2  0
  7  2  1  0
 15 11  1  0
  1 16  1  0
  1 17  1  0
  1 18  1  0
  3 19  1  0
  4 20  1  0
  5 21  1  0
  6 22  1  0
  9 23  1  0
  9 24  1  0
 10 25  1  0
 10 26  1  0
 12 27  1  0
 13 28  1  0
 15 29  1  0
M  END
>  <UniqueID>  (26) 
26

>  <SMILES>  (26) 
Cc1ccccc1OCCn1ccnc1

>  <Energy>  (26) 
55.59617656515597

>  <Genealogy>  (26) 
Cc1ccccc1OCCn1ccnc1 (3D coordinates assigned)
Cc1ccccc1OCCn1ccnc1 (optimized conformer: 55.59617656515597 kcal/mol)

>  <smiles>  (26) 
Cc1ccccc1OCCn1ccnc1

>  <score_type>  (26) 
oracle

>  <origin>  (26) 
adg

>  <m_score__min__energy>  (26) 
-5.1900000000000004

>  <m_primary>  (26) 
energy

$$$$
26:0
     RDKit          3D

 54 56  0  0  0  0  0  0  0  0999 V2000
   54.2800   30.8640   51.6820 C   0  0  0  0  0  0  0  0  0  0  0  0
   54.8630   29.8710   52.6950 C   0  0  0  0  0  0  0  0  0  0  0  0
   56.3240   29.6720   52.5300 N   0  0  2  0  0  0  0  0  0  0  0  0
   56.8340   28.7630   53.5760 C   0  0  0  0  0  0  0  0  0  0  0  0
   57.1210   30.9290   52.4370 C   0  0  0  0  0  0  0  0  0  0  0  0
   58.0900   31.0220   51.2360 C   0  0  0  0  0  0  0  0  0  0  0  0
   58.1810   29.7990   50.5370 O   0  0  0  0  0  0  0  0  0  0  0  0
   59.5130   29.5060   50.1500 C   0  0  0  0  0  0  0  0  0  0  0  0
   59.8310   30.1930   48.8210 C   0  0  0  0  0  0  0  0  0  0  0  0
   58.6170   30.7130   48.1860 N   0  0  0  0  0  0  0  0  0  0  0  0
   58.4960   30.8300   46.7580 C   0  0  0  0  0  0  0  0  0  0  0  0
   58.2900   29.6840   45.9710 C   0  0  0  0  0  0  0  0  0  0  0  0
   58.3450   28.3940   46.5400 C   0  0  0  0  0  0  0  0  0  0  0  0
   58.1550   27.2590   45.7550 C   0  0  0  0  0  0  0  0  0  0  0  0
   57.9370   27.3870   44.3880 C   0  0  0  0  0  0  0  0  0  0  0  0
   57.8810   28.6520   43.8020 C   0  0  0  0  0  0  0  0  0  0  0  0
   58.0220   29.8290   44.5820 C   0  0  0  0  0  0  0  0  0  0  0  0
   57.9130   31.0900   44.0260 N   0  0  0  0  0  0  0  0  0  0  0  0
   57.3490   31.2560   42.6680 C   0  0  0  0  0  0  0  0  0  0  0  0
   58.3250   32.1980   44.7440 C   0  0  0  0  0  0  0  0  0  0  0  0
   58.5040   33.4620   44.1260 C   0  0  0  0  0  0  0  0  0  0  0  0
   58.9020   34.5750   44.8660 C   0  0  0  0  0  0  0  0  0  0  0  0
   59.1550   34.4560   46.2280 C   0  0  0  0  0  0  0  0  0  0  0  0
   59.5630   35.5370   46.9370 F   0  0  0  0  0  0  0  0  0  0  0  0
   59.0190   33.2210   46.8580 C   0  0  0  0  0  0  0  0  0  0  0  0
   58.6020   32.0840   46.1330 C   0  0  0  0  0  0  0  0  0  0  0  0
   53.7938   31.6921   52.2185 H   0  0  0  0  0  0  0  0  0  0  0  0
   55.0885   31.2608   51.0505 H   0  0  0  0  0  0  0  0  0  0  0  0
   53.5395   30.3513   51.0505 H   0  0  0  0  0  0  0  0  0  0  0  0
   54.6725   30.2513   53.7094 H   0  0  0  0  0  0  0  0  0  0  0  0
   54.3753   28.8998   52.5249 H   0  0  0  0  0  0  0  0  0  0  0  0
   56.4670   29.1670   51.6220 H   0  0  0  0  0  0  0  0  0  0  0  0
   56.6012   29.1780   54.5678 H   0  0  0  0  0  0  0  0  0  0  0  0
   56.3571   27.7775   53.4697 H   0  0  0  0  0  0  0  0  0  0  0  0
   57.9237   28.6564   53.4697 H   0  0  0  0  0  0  0  0  0  0  0  0
   56.4168   31.7713   52.3689 H   0  0  0  0  0  0  0  0  0  0  0  0
   57.7551   30.9487   53.3356 H   0  0  0  0  0  0  0  0  0  0  0  0
   57.7285   31.7994   50.5468 H   0  0  0  0  0  0  0  0  0  0  0  0
   59.0897   31.2686   51.6230 H   0  0  0  0  0  0  0  0  0  0  0  0
   60.2059   29.8690   50.9234 H   0  0  0  0  0  0  0  0  0  0  0  0
   59.6252   28.4181   50.0318 H   0  0  0  0  0  0  0  0  0  0  0  0
   60.5240   31.0270   49.0057 H   0  0  0  0  0  0  0  0  0  0  0  0
   60.2848   29.4515   48.1470 H   0  0  0  0  0  0  0  0  0  0  0  0
   57.8560   31.0980   48.7910 H   0  0  0  0  0  0  0  0  0  0  0  0
   58.5403   28.2832   47.6168 H   0  0  0  0  0  0  0  0  0  0  0  0
   58.1775   26.2610   46.2170 H   0  0  0  0  0  0  0  0  0  0  0  0
   57.8083   26.4885   43.7666 H   0  0  0  0  0  0  0  0  0  0  0  0
   57.7248   28.7384   42.7166 H   0  0  0  0  0  0  0  0  0  0  0  0
   56.2962   31.5659   42.7435 H   0  0  0  0  0  0  0  0  0  0  0  0
   57.9193   32.0244   42.1255 H   0  0  0  0  0  0  0  0  0  0  0  0
   57.4122   30.3012   42.1255 H   0  0  0  0  0  0  0  0  0  0  0  0
   58.3260   33.5661   43.0455 H   0  0  0  0  0  0  0  0  0  0  0  0
   59.0162   35.5504   44.3705 H   0  0  0  0  0  0  0  0  0  0  0  0
   59.2390   33.1309   47.9320 H   0  0  0  0  0  0  0  0  0  0  0  0
  1  2  1  0
  2  3  1  0
  3  4  1  0
  3  5  1  0
  5  6  1  0
  6  7  1  0
  7  8  1  0
  8  9  1  0
  9 10  1  0
 10 11  1  0
 11 12  2  0
 12 13  1  0
 13 14  2  0
 14 15  1  0
 15 16  2  0
 16 17  1  0
 17 18  2  0
 18 19  1  0
 18 20  1  0
 20 21  2  0
 21 22  1  0
 22 23  2  0
 23 24  1  0
 23 25  1  0
 25 26  2  0
 26 11  1  0
 17 12  1  0
 26 20  1  0
  1 27  1  0
  1 28  1  0
  1 29  1  0
  2 30  1  0
  2 31  1  0
  3 32  1  6
  4 33  1  0
  4 34  1  0
  4 35  1  0
  5 36  1  0
  5 37  1  0
  6 38  1  0
  6 39  1  0
  8 40  1  0
  8 41  1  0
  9 42  1  0
  9 43  1  0
 10 44  1  0
 13 45  1  0
 14 46  1  0
 15 47  1  0
 16 48  1  0
 19 49  1  0
 19 50  1  0
 19 51  1  0
 21 52  1  0
 22 53  1  0
 25 54  1  0
M  CHG  2   3   1  18   1
M  END
>  <UniqueID>  (27) 
27

>  <SMILES>  (27) 
CC[N@H+](C)CCOCCNc1c2ccccc2[n+](C)c2ccc(F)cc12

>  <Energy>  (27) 
84.65301599781529

>  <Genealogy>  (27) 
CC[NH+](C)CCOCCNc1c2ccccc2[n+](C)c2ccc(F)cc12 (protonated)
CC[N@H+](C)CCOCCNc1c2ccccc2[n+](C)c2ccc(F)cc12 (chirality)
CC[N@H+](C)CCOCCNc1c2ccccc2[n+](C)c2ccc(F)cc12 (3D coordinates assigned)
CC[N@H+](C)CCOCCNc1c2ccccc2[n+](C)c2ccc(F)cc12 (optimized conformer: 84.65301599781529 kcal/mol)

>  <smiles>  (27) 
CCN(C)CCOCCNc1c2ccccc2[n+](C)c2ccc(F)cc12

>  <score_type>  (27) 
oracle

>  <origin>  (27) 
adg

>  <m_score__min__energy>  (27) 
-3.5800000000000001

>  <m_primary>  (27) 
energy

$$$$
