0:0
     RDKit          3D

 41 44  0  0  0  0  0  0  0  0999 V2000
   62.3650   31.8880   47.4940 C   0  0  0  0  0  0  0  0  0  0  0  0
   60.8940   31.5700   48.5170 S   0  0  0  0  0  0  0  0  0  0  0  0
   59.8100   31.3590   47.0960 C   0  0  0  0  0  0  0  0  0  0  0  0
   59.5020   30.0920   46.7140 N   0  0  0  0  0  0  0  0  0  0  0  0
   58.6950   29.8110   45.6560 C   0  0  0  0  0  0  0  0  0  0  0  0
   58.4070   28.3930   45.3200 C   0  0  0  0  0  0  0  0  0  0  0  0
   58.3990   27.9810   43.9770 C   0  0  0  0  0  0  0  0  0  0  0  0
   58.1230   26.6520   43.6400 C   0  0  0  0  0  0  0  0  0  0  0  0
   57.8410   25.7070   44.6390 C   0  0  0  0  0  0  0  0  0  0  0  0
   57.5470   24.2950   44.2820 C   0  0  0  0  0  0  0  0  0  0  0  0
   58.2700   23.2410   44.8750 C   0  0  0  0  0  0  0  0  0  0  0  0
   57.9930   21.9130   44.5360 C   0  0  0  0  0  0  0  0  0  0  0  0
   56.9930   21.6210   43.6060 C   0  0  0  0  0  0  0  0  0  0  0  0
   56.2680   22.6560   43.0130 C   0  0  0  0  0  0  0  0  0  0  0  0
   56.5420   23.9870   43.3460 C   0  0  0  0  0  0  0  0  0  0  0  0
   57.8360   26.1200   45.9830 C   0  0  0  0  0  0  0  0  0  0  0  0
   58.1110   27.4470   46.3200 C   0  0  0  0  0  0  0  0  0  0  0  0
   58.1360   30.8700   44.9220 C   0  0  0  0  0  0  0  0  0  0  0  0
   58.4300   32.1920   45.2770 C   0  0  0  0  0  0  0  0  0  0  0  0
   57.8800   33.2600   44.5500 C   0  0  0  0  0  0  0  0  0  0  0  0
   58.1750   34.5780   44.9050 C   0  0  0  0  0  0  0  0  0  0  0  0
   59.0160   34.8410   45.9860 C   0  0  0  0  0  0  0  0  0  0  0  0
   59.5690   33.7900   46.7210 C   0  0  0  0  0  0  0  0  0  0  0  0
   59.2830   32.4530   46.3770 C   0  0  0  0  0  0  0  0  0  0  0  0
   63.2312   32.0753   48.1456 H   0  0  0  0  0  0  0  0  0  0  0  0
   62.5663   31.0126   46.8590 H   0  0  0  0  0  0  0  0  0  0  0  0
   62.1867   32.7683   46.8590 H   0  0  0  0  0  0  0  0  0  0  0  0
   58.6120   28.7111   43.1823 H   0  0  0  0  0  0  0  0  0  0  0  0
   58.1269   26.3448   42.5838 H   0  0  0  0  0  0  0  0  0  0  0  0
   59.0577   23.4644   45.6096 H   0  0  0  0  0  0  0  0  0  0  0  0
   58.5639   21.0968   45.0028 H   0  0  0  0  0  0  0  0  0  0  0  0
   56.7767   20.5756   43.3408 H   0  0  0  0  0  0  0  0  0  0  0  0
   55.4793   22.4246   42.2820 H   0  0  0  0  0  0  0  0  0  0  0  0
   55.9683   24.7979   42.8733 H   0  0  0  0  0  0  0  0  0  0  0  0
   57.6134   25.3912   46.7763 H   0  0  0  0  0  0  0  0  0  0  0  0
   58.0962   27.7559   47.3756 H   0  0  0  0  0  0  0  0  0  0  0  0
   57.4700   30.6616   44.0717 H   0  0  0  0  0  0  0  0  0  0  0  0
   57.2144   33.0578   43.6979 H   0  0  0  0  0  0  0  0  0  0  0  0
   57.7430   35.4107   44.3306 H   0  0  0  0  0  0  0  0  0  0  0  0
   59.2449   35.8812   46.2611 H   0  0  0  0  0  0  0  0  0  0  0  0
   60.2309   34.0065   47.5725 H   0  0  0  0  0  0  0  0  0  0  0  0
  1  2  1  0
  2  3  1  0
  3  4  2  0
  4  5  1  0
  5  6  1  0
  6  7  2  0
  7  8  1  0
  8  9  2  0
  9 10  1  0
 10 11  2  0
 11 12  1  0
 12 13  2  0
 13 14  1  0
 14 15  2  0
  9 16  1  0
 16 17  2  0
  5 18  2  0
 18 19  1  0
 19 20  2  0
 20 21  1  0
 21 22  2  0
 22 23  1  0
 23 24  2  0
 24  3  1  0
 17  6  1  0
 24 19  1  0
 15 10  1  0
  1 25  1  0
  1 26  1  0
  1 27  1  0
  7 28  1  0
  8 29  1  0
 11 30  1  0
 12 31  1  0
 13 32  1  0
 14 33  1  0
 15 34  1  0
 16 35  1  0
 17 36  1  0
 18 37  1  0
 20 38  1  0
 21 39  1  0
 22 40  1  0
 23 41  1  0
M  END
>  <UniqueID>  (1) 
1

>  <SMILES>  (1) 
CSc1nc(-c2ccc(-c3ccccc3)cc2)cc2ccccc12

>  <Energy>  (1) 
56.13359384143589

>  <Genealogy>  (1) 
CSc1nc(-c2ccc(-c3ccccc3)cc2)cc2ccccc12 (3D coordinates assigned)
CSc1nc(-c2ccc(-c3ccccc3)cc2)cc2ccccc12 (optimized conformer: 56.13359384143589 kcal/mol)

>  <smiles>  (1) 
CSc1nc(-c2ccc(-c3ccccc3)cc2)cc2ccccc12

>  <score_type>  (1) 
oracle

>  <origin>  (1) 
adg

>  <m_score__min__energy>  (1) 
-8.3100000000000005

>  <m_primary>  (1) 
energy

$$$$
1:0
     RDKit          3D

 60 62  0  0  0  0  0  0  0  0999 V2000
   63.8360   32.4090   48.6410 C   0  0  0  0  0  0  0  0  0  0  0  0
   62.6280   33.2340   48.7600 N   0  0  0  0  0  0  0  0  0  0  0  0
   62.5390   34.2170   49.8480 C   0  0  0  0  0  0  0  0  0  0  0  0
   61.5320   33.0740   47.8230 C   0  0  0  0  0  0  0  0  0  0  0  0
   60.8780   34.1910   47.2850 C   0  0  0  0  0  0  0  0  0  0  0  0
   59.8110   34.0390   46.4030 C   0  0  0  0  0  0  0  0  0  0  0  0
   59.3510   32.7570   46.0180 C   0  0  0  0  0  0  0  0  0  0  0  0
   60.0750   31.6260   46.4770 C   0  0  0  0  0  0  0  0  0  0  0  0
   61.1150   31.7970   47.4150 C   0  0  0  0  0  0  0  0  0  0  0  0
   59.7360   30.3460   46.0010 C   0  0  0  0  0  0  0  0  0  0  0  0
   60.5200   29.1970   46.3710 N   0  0  0  0  0  0  0  0  0  0  0  0
   60.1940   28.3800   47.5410 C   0  0  0  0  0  0  0  0  0  0  0  0
   58.7910   28.7180   48.0700 C   0  0  0  0  0  0  0  0  0  0  0  0
   58.7830   29.9270   48.9110 N   0  0  0  0  0  0  0  0  0  0  0  0
   59.8540   29.9120   49.9170 C   0  0  0  0  0  0  0  0  0  0  0  0
   59.2360   29.9930   51.3270 C   0  0  0  0  0  0  0  0  0  0  0  0
   57.7600   30.1510   51.3480 N   0  0  0  0  0  0  0  0  0  0  0  0
   57.1300   29.4540   52.4850 C   0  0  0  0  0  0  0  0  0  0  0  0
   57.3360   31.5630   51.2980 C   0  0  0  0  0  0  0  0  0  0  0  0
   58.6720   30.2030   45.0940 C   0  0  0  0  0  0  0  0  0  0  0  0
   58.3250   28.9340   44.5840 C   0  0  0  0  0  0  0  0  0  0  0  0
   57.3210   28.7990   43.6300 C   0  0  0  0  0  0  0  0  0  0  0  0
   56.6550   29.9250   43.1580 C   0  0  0  0  0  0  0  0  0  0  0  0
   56.9690   31.1880   43.6600 C   0  0  0  0  0  0  0  0  0  0  0  0
   57.9550   31.3530   44.6680 C   0  0  0  0  0  0  0  0  0  0  0  0
   58.2390   32.5920   45.2130 N   0  0  0  0  0  0  0  0  0  0  0  0
   57.3260   33.7330   44.9700 C   0  0  0  0  0  0  0  0  0  0  0  0
   64.2072   32.1555   49.6449 H   0  0  0  0  0  0  0  0  0  0  0  0
   63.5965   31.4849   48.0944 H   0  0  0  0  0  0  0  0  0  0  0  0
   64.6096   32.9683   48.0944 H   0  0  0  0  0  0  0  0  0  0  0  0
   62.5860   33.6974   50.8164 H   0  0  0  0  0  0  0  0  0  0  0  0
   63.3766   34.9258   49.7712 H   0  0  0  0  0  0  0  0  0  0  0  0
   61.5877   34.7639   49.7712 H   0  0  0  0  0  0  0  0  0  0  0  0
   61.2121   35.2014   47.5633 H   0  0  0  0  0  0  0  0  0  0  0  0
   59.3157   34.9335   45.9973 H   0  0  0  0  0  0  0  0  0  0  0  0
   61.6103   30.9097   47.8362 H   0  0  0  0  0  0  0  0  0  0  0  0
   61.3910   28.9860   45.8310 H   0  0  0  0  0  0  0  0  0  0  0  0
   60.2266   27.3173   47.2590 H   0  0  0  0  0  0  0  0  0  0  0  0
   60.9287   28.5892   48.3325 H   0  0  0  0  0  0  0  0  0  0  0  0
   58.1201   28.8794   47.2133 H   0  0  0  0  0  0  0  0  0  0  0  0
   58.4557   27.8751   48.6921 H   0  0  0  0  0  0  0  0  0  0  0  0
   58.8910   30.7750   48.3050 H   0  0  0  0  0  0  0  0  0  0  0  0
   60.4322   28.9810   49.8231 H   0  0  0  0  0  0  0  0  0  0  0  0
   60.5185   30.7741   49.7579 H   0  0  0  0  0  0  0  0  0  0  0  0
   59.4895   29.0683   51.8661 H   0  0  0  0  0  0  0  0  0  0  0  0
   59.6523   30.8957   51.7979 H   0  0  0  0  0  0  0  0  0  0  0  0
   57.4000   29.6960   50.4760 H   0  0  0  0  0  0  0  0  0  0  0  0
   57.5095   29.8738   53.4283 H   0  0  0  0  0  0  0  0  0  0  0  0
   56.0390   29.5864   52.4373 H   0  0  0  0  0  0  0  0  0  0  0  0
   57.3716   28.3819   52.4373 H   0  0  0  0  0  0  0  0  0  0  0  0
   57.2205   31.9476   52.3221 H   0  0  0  0  0  0  0  0  0  0  0  0
   58.0959   32.1554   50.7673 H   0  0  0  0  0  0  0  0  0  0  0  0
   56.3755   31.6388   50.7673 H   0  0  0  0  0  0  0  0  0  0  0  0
   58.8548   28.0402   44.9451 H   0  0  0  0  0  0  0  0  0  0  0  0
   57.0542   27.8021   43.2493 H   0  0  0  0  0  0  0  0  0  0  0  0
   55.8782   29.8193   42.3864 H   0  0  0  0  0  0  0  0  0  0  0  0
   56.4436   32.0714   43.2681 H   0  0  0  0  0  0  0  0  0  0  0  0
   56.9937   34.1482   45.9329 H   0  0  0  0  0  0  0  0  0  0  0  0
   57.8544   34.5101   44.3983 H   0  0  0  0  0  0  0  0  0  0  0  0
   56.4519   33.3879   44.3983 H   0  0  0  0  0  0  0  0  0  0  0  0
  1  2  1  0
  2  3  1  0
  2  4  1  0
  4  5  2  0
  5  6  1  0
  6  7  2  0
  7  8  1  0
  8  9  2  0
  8 10  1  0
 10 11  1  0
 11 12  1  0
 12 13  1  0
 13 14  1  0
 14 15  1  0
 15 16  1  0
 16 17  1  0
 17 18  1  0
 17 19  1  0
 10 20  2  0
 20 21  1  0
 21 22  2  0
 22 23  1  0
 23 24  2  0
 24 25  1  0
 25 26  2  0
 26 27  1  0
  9  4  1  0
 25 20  1  0
 26  7  1  0
  1 28  1  0
  1 29  1  0
  1 30  1  0
  3 31  1  0
  3 32  1  0
  3 33  1  0
  5 34  1  0
  6 35  1  0
  9 36  1  0
 11 37  1  0
 12 38  1  0
 12 39  1  0
 13 40  1  0
 13 41  1  0
 14 42  1  0
 15 43  1  0
 15 44  1  0
 16 45  1  0
 16 46  1  0
 17 47  1  0
 18 48  1  0
 18 49  1  0
 18 50  1  0
 19 51  1  0
 19 52  1  0
 19 53  1  0
 21 54  1  0
 22 55  1  0
 23 56  1  0
 24 57  1  0
 27 58  1  0
 27 59  1  0
 27 60  1  0
M  CHG  2  17   1  26   1
M  END
>  <UniqueID>  (2) 
2

>  <SMILES>  (2) 
CN(C)c1ccc2c(c1)c(NCCNCC[NH+](C)C)c1ccccc1[n+]2C

>  <Energy>  (2) 
88.09628752366812

>  <Genealogy>  (2) 
CN(C)c1ccc2c(c1)c(NCCNCC[NH+](C)C)c1ccccc1[n+]2C (protonated)
CN(C)c1ccc2c(c1)c(NCCNCC[NH+](C)C)c1ccccc1[n+]2C (3D coordinates assigned)
CN(C)c1ccc2c(c1)c(NCCNCC[NH+](C)C)c1ccccc1[n+]2C (optimized conformer: 88.09628752366812 kcal/mol)

>  <smiles>  (2) 
CN(C)CCNCCNc1c2ccccc2[n+](C)c2ccc(N(C)C)cc12

>  <score_type>  (2) 
oracle

>  <origin>  (2) 
adg

>  <m_score__min__energy>  (2) 
-4.3099999999999996

>  <m_primary>  (2) 
energy

$$$$
2:0
     RDKit          3D

 43 46  0  0  0  0  0  0  0  0999 V2000
   56.2610   29.3610   44.5160 C   0  0  0  0  0  0  0  0  0  0  0  0
   57.1060   30.5390   44.8780 C   0  0  0  0  0  0  0  0  0  0  0  0
   56.7480   31.8170   44.5960 N   0  0  0  0  0  0  0  0  0  0  0  0
   57.6680   32.6260   45.1090 N   0  0  0  0  0  0  0  0  0  0  0  0
   57.6200   34.0800   45.0230 C   0  0  0  0  0  0  0  0  0  0  0  0
   58.5960   31.8780   45.7300 C   0  0  0  0  0  0  0  0  0  0  0  0
   59.6900   32.3150   46.4040 N   0  0  0  0  0  0  0  0  0  0  0  0
   60.5170   31.3840   46.9810 C   0  0  0  0  0  0  0  0  0  0  0  0
   61.7320   31.7930   47.7260 C   0  0  0  0  0  0  0  0  0  0  0  0
   62.6330   32.7360   47.1930 C   0  0  0  0  0  0  0  0  0  0  0  0
   63.7780   33.1050   47.9070 C   0  0  0  0  0  0  0  0  0  0  0  0
   64.0420   32.5350   49.1540 C   0  0  0  0  0  0  0  0  0  0  0  0
   65.6060   33.0410   50.1250 Br  0  0  0  0  0  0  0  0  0  0  0  0
   63.1610   31.5900   49.6890 C   0  0  0  0  0  0  0  0  0  0  0  0
   62.0170   31.2170   48.9790 C   0  0  0  0  0  0  0  0  0  0  0  0
   60.2100   30.0490   46.8820 N   0  0  0  0  0  0  0  0  0  0  0  0
   59.1060   29.6040   46.2150 C   0  0  0  0  0  0  0  0  0  0  0  0
   58.8420   28.2010   46.1350 N   0  0  0  0  0  0  0  0  0  0  0  0
   58.8810   27.5600   44.8140 C   0  0  0  0  0  0  0  0  0  0  0  0
   58.3510   26.1230   44.8500 C   0  0  0  0  0  0  0  0  0  0  0  0
   58.7330   25.4730   46.0410 O   0  0  0  0  0  0  0  0  0  0  0  0
   58.0390   26.0560   47.1220 C   0  0  0  0  0  0  0  0  0  0  0  0
   58.5210   27.4880   47.3790 C   0  0  0  0  0  0  0  0  0  0  0  0
   58.2810   30.5590   45.6200 C   0  0  0  0  0  0  0  0  0  0  0  0
   55.9072   28.8678   45.4334 H   0  0  0  0  0  0  0  0  0  0  0  0
   55.3971   29.6975   43.9241 H   0  0  0  0  0  0  0  0  0  0  0  0
   56.8567   28.6505   43.9241 H   0  0  0  0  0  0  0  0  0  0  0  0
   57.6059   34.5070   46.0366 H   0  0  0  0  0  0  0  0  0  0  0  0
   58.5066   34.4449   44.4837 H   0  0  0  0  0  0  0  0  0  0  0  0
   56.7113   34.3856   44.4837 H   0  0  0  0  0  0  0  0  0  0  0  0
   59.8700   33.3390   46.4950 H   0  0  0  0  0  0  0  0  0  0  0  0
   62.4347   33.1852   46.2087 H   0  0  0  0  0  0  0  0  0  0  0  0
   64.4724   33.8464   47.4848 H   0  0  0  0  0  0  0  0  0  0  0  0
   63.3691   31.1395   50.6707 H   0  0  0  0  0  0  0  0  0  0  0  0
   61.3329   30.4668   49.4025 H   0  0  0  0  0  0  0  0  0  0  0  0
   58.2646   28.1472   44.1174 H   0  0  0  0  0  0  0  0  0  0  0  0
   59.9310   27.5237   44.4881 H   0  0  0  0  0  0  0  0  0  0  0  0
   57.2530   26.1430   44.7874 H   0  0  0  0  0  0  0  0  0  0  0  0
   58.7758   25.5716   43.9982 H   0  0  0  0  0  0  0  0  0  0  0  0
   56.9638   26.0749   46.8904 H   0  0  0  0  0  0  0  0  0  0  0  0
   58.2296   25.4560   48.0240 H   0  0  0  0  0  0  0  0  0  0  0  0
   57.7286   28.0383   47.9075 H   0  0  0  0  0  0  0  0  0  0  0  0
   59.4404   27.4304   47.9802 H   0  0  0  0  0  0  0  0  0  0  0  0
  1  2  1  0
  2  3  2  0
  3  4  1  0
  4  5  1  0
  4  6  1  0
  6  7  2  0
  7  8  1  0
  8  9  1  0
  9 10  2  0
 10 11  1  0
 11 12  2  0
 12 13  1  0
 12 14  1  0
 14 15  2  0
  8 16  2  0
 16 17  1  0
 17 18  1  0
 18 19  1  0
 19 20  1  0
 20 21  1  0
 21 22  1  0
 22 23  1  0
 17 24  2  0
 24  2  1  0
 24  6  1  0
 15  9  1  0
 23 18  1  0
  1 25  1  0
  1 26  1  0
  1 27  1  0
  5 28  1  0
  5 29  1  0
  5 30  1  0
  7 31  1  0
 10 32  1  0
 11 33  1  0
 14 34  1  0
 15 35  1  0
 19 36  1  0
 19 37  1  0
 20 38  1  0
 20 39  1  0
 22 40  1  0
 22 41  1  0
 23 42  1  0
 23 43  1  0
M  CHG  1   7   1
M  END
>  <UniqueID>  (3) 
3

>  <SMILES>  (3) 
Cc1nn(C)c2[nH+]c(-c3ccc(Br)cc3)nc(N3CCOCC3)c12

>  <Energy>  (3) 
97.92687294595298

>  <Genealogy>  (3) 
Cc1nn(C)c2[nH+]c(-c3ccc(Br)cc3)nc(N3CCOCC3)c12 (protonated)
Cc1nn(C)c2[nH+]c(-c3ccc(Br)cc3)nc(N3CCOCC3)c12 (3D coordinates assigned)
Cc1nn(C)c2[nH+]c(-c3ccc(Br)cc3)nc(N3CCOCC3)c12 (nonaromatic ring conformer: 97.92687294595298 kcal/mol)

>  <smiles>  (3) 
Cc1nn(C)c2nc(-c3ccc(Br)cc3)nc(N3CCOCC3)c12

>  <score_type>  (3) 
oracle

>  <origin>  (3) 
adg

>  <m_score__min__energy>  (3) 
-6.2199999999999998

>  <m_primary>  (3) 
energy

$$$$
3:0
     RDKit          3D

 41 42  0  0  0  0  0  0  0  0999 V2000
   58.8800   29.1540   45.2780 C   0  0  0  0  0  0  0  0  0  0  0  0
   57.3790   29.0500   45.5370 C   0  0  0  0  0  0  0  0  0  0  0  0
   56.6580   30.1850   44.9230 N   0  0  0  0  0  0  0  0  0  0  0  0
   55.9050   29.7330   43.7420 C   0  0  0  0  0  0  0  0  0  0  0  0
   57.5600   31.3120   44.5780 C   0  0  0  0  0  0  0  0  0  0  0  0
   57.0390   32.6080   45.1980 C   0  0  0  0  0  0  0  0  0  0  0  0
   57.4380   33.7250   44.4210 O   0  0  0  0  0  0  0  0  0  0  0  0
   58.3100   34.5750   45.1420 C   0  0  0  0  0  0  0  0  0  0  0  0
   58.2660   34.2490   46.6380 C   0  0  0  0  0  0  0  0  0  0  0  0
   59.5830   34.2320   47.1850 O   0  0  0  0  0  0  0  0  0  0  0  0
   60.2810   33.0770   47.5800 C   0  0  0  0  0  0  0  0  0  0  0  0
   59.6620   31.9710   48.2150 C   0  0  0  0  0  0  0  0  0  0  0  0
   60.4240   30.8430   48.5930 C   0  0  0  0  0  0  0  0  0  0  0  0
   61.8060   30.7970   48.3390 C   0  0  0  0  0  0  0  0  0  0  0  0
   62.3890   31.8920   47.7060 C   0  0  0  0  0  0  0  0  0  0  0  0
   63.6790   32.0500   47.3740 N   0  0  0  0  0  0  0  0  0  0  0  0
   63.7660   33.2650   46.7890 C   0  0  0  0  0  0  0  0  0  0  0  0
   62.5200   33.8830   46.7490 C   0  0  0  0  0  0  0  0  0  0  0  0
   61.6530   32.9890   47.3390 C   0  0  0  0  0  0  0  0  0  0  0  0
   59.4160   29.1911   46.2379 H   0  0  0  0  0  0  0  0  0  0  0  0
   59.2148   28.2769   44.7048 H   0  0  0  0  0  0  0  0  0  0  0  0
   59.0907   30.0689   44.7048 H   0  0  0  0  0  0  0  0  0  0  0  0
   57.0036   28.1098   45.1069 H   0  0  0  0  0  0  0  0  0  0  0  0
   57.2075   29.0709   46.6233 H   0  0  0  0  0  0  0  0  0  0  0  0
   55.0039   29.1921   44.0666 H   0  0  0  0  0  0  0  0  0  0  0  0
   55.6119   30.6046   43.1383 H   0  0  0  0  0  0  0  0  0  0  0  0
   56.5364   29.0645   43.1383 H   0  0  0  0  0  0  0  0  0  0  0  0
   58.5683   31.1029   44.9648 H   0  0  0  0  0  0  0  0  0  0  0  0
   57.5954   31.4240   43.4843 H   0  0  0  0  0  0  0  0  0  0  0  0
   55.9405   32.5719   45.2429 H   0  0  0  0  0  0  0  0  0  0  0  0
   57.4564   32.7112   46.2105 H   0  0  0  0  0  0  0  0  0  0  0  0
   59.3367   34.4373   44.7721 H   0  0  0  0  0  0  0  0  0  0  0  0
   57.9897   35.6172   44.9967 H   0  0  0  0  0  0  0  0  0  0  0  0
   57.6683   35.0125   47.1573 H   0  0  0  0  0  0  0  0  0  0  0  0
   57.8124   33.2559   46.7723 H   0  0  0  0  0  0  0  0  0  0  0  0
   58.5805   31.9912   48.4149 H   0  0  0  0  0  0  0  0  0  0  0  0
   59.9321   29.9939   49.0900 H   0  0  0  0  0  0  0  0  0  0  0  0
   62.4078   29.9237   48.6310 H   0  0  0  0  0  0  0  0  0  0  0  0
   64.4600   31.3750   47.5340 H   0  0  0  0  0  0  0  0  0  0  0  0
   64.6950   33.7054   46.3978 H   0  0  0  0  0  0  0  0  0  0  0  0
   62.2787   34.8732   46.3351 H   0  0  0  0  0  0  0  0  0  0  0  0
  1  2  1  0
  2  3  1  0
  3  4  1  0
  3  5  1  0
  5  6  1  0
  6  7  1  0
  7  8  1  0
  8  9  1  0
  9 10  1  0
 10 11  1  0
 11 12  2  0
 12 13  1  0
 13 14  2  0
 14 15  1  0
 15 16  1  0
 16 17  1  0
 17 18  2  0
 18 19  1  0
 19 11  1  0
 19 15  2  0
  1 20  1  0
  1 21  1  0
  1 22  1  0
  2 23  1  0
  2 24  1  0
  4 25  1  0
  4 26  1  0
  4 27  1  0
  5 28  1  0
  5 29  1  0
  6 30  1  0
  6 31  1  0
  8 32  1  0
  8 33  1  0
  9 34  1  0
  9 35  1  0
 12 36  1  0
 13 37  1  0
 14 38  1  0
 16 39  1  0
 17 40  1  0
 18 41  1  0
M  END
>  <UniqueID>  (4) 
4

>  <SMILES>  (4) 
CCN(C)CCOCCOc1cccc2[nH]ccc12

>  <Energy>  (4) 
72.0806511566612

>  <Genealogy>  (4) 
CCN(C)CCOCCOc1cccc2[nH]ccc12 (3D coordinates assigned)
CCN(C)CCOCCOc1cccc2[nH]ccc12 (optimized conformer: 72.0806511566612 kcal/mol)

>  <smiles>  (4) 
CCN(C)CCOCCOc1cccc2[nH]ccc12

>  <score_type>  (4) 
oracle

>  <origin>  (4) 
adg

>  <m_score__min__energy>  (4) 
-5.6900000000000004

>  <m_primary>  (4) 
energy

$$$$
4:0
     RDKit          3D

 50 52  0  0  0  0  0  0  0  0999 V2000
   65.2970   32.7190   49.7350 C   0  0  0  0  0  0  0  0  0  0  0  0
   64.0310   33.2260   49.0530 C   0  0  0  0  0  0  0  0  0  0  0  0
   64.0470   32.8900   47.6780 O   0  0  0  0  0  0  0  0  0  0  0  0
   63.1870   33.7400   46.9490 C   0  0  0  0  0  0  0  0  0  0  0  0
   61.7390   33.4600   47.3510 C   0  0  0  0  0  0  0  0  0  0  0  0
   60.8600   34.3800   46.7290 O   0  0  0  0  0  0  0  0  0  0  0  0
   59.8800   33.7250   45.9390 C   0  0  0  0  0  0  0  0  0  0  0  0
   59.1900   34.7710   45.0350 C   0  0  0  0  0  0  0  0  0  0  0  0
   57.6730   34.5390   44.8880 C   0  0  0  0  0  0  0  0  0  0  0  0
   57.3240   33.1050   44.8300 N   0  0  0  0  0  0  0  0  0  0  0  0
   57.7620   32.4770   43.5650 C   0  0  0  0  0  0  0  0  0  0  0  0
   57.6120   30.9920   43.6520 C   0  0  0  0  0  0  0  0  0  0  0  0
   56.7160   30.2790   42.9410 N   0  0  0  0  0  0  0  0  0  0  0  0
   56.9090   29.0200   43.2980 N   0  0  0  0  0  0  0  0  0  0  0  0
   57.9050   29.0000   44.2060 C   0  0  0  0  0  0  0  0  0  0  0  0
   58.4480   27.7940   44.8720 C   0  0  0  0  0  0  0  0  0  0  0  0
   59.6590   27.8280   45.5880 C   0  0  0  0  0  0  0  0  0  0  0  0
   60.1470   26.6730   46.2080 C   0  0  0  0  0  0  0  0  0  0  0  0
   59.4360   25.4750   46.1190 C   0  0  0  0  0  0  0  0  0  0  0  0
   58.2340   25.4290   45.4100 C   0  0  0  0  0  0  0  0  0  0  0  0
   57.7410   26.5810   44.7890 C   0  0  0  0  0  0  0  0  0  0  0  0
   58.3400   30.2200   44.4250 O   0  0  0  0  0  0  0  0  0  0  0  0
   57.7540   32.3470   46.0360 C   0  0  0  0  0  0  0  0  0  0  0  0
   58.8630   33.0390   46.8560 C   0  0  0  0  0  0  0  0  0  0  0  0
   65.1708   32.7695   50.8266 H   0  0  0  0  0  0  0  0  0  0  0  0
   65.4828   31.6771   49.4352 H   0  0  0  0  0  0  0  0  0  0  0  0
   66.1507   33.3446   49.4352 H   0  0  0  0  0  0  0  0  0  0  0  0
   63.1528   32.7656   49.5291 H   0  0  0  0  0  0  0  0  0  0  0  0
   63.9832   34.3203   49.1540 H   0  0  0  0  0  0  0  0  0  0  0  0
   63.4333   34.7890   47.1701 H   0  0  0  0  0  0  0  0  0  0  0  0
   63.3125   33.5549   45.8720 H   0  0  0  0  0  0  0  0  0  0  0  0
   61.4698   32.4388   47.0432 H   0  0  0  0  0  0  0  0  0  0  0  0
   61.6480   33.5662   48.4421 H   0  0  0  0  0  0  0  0  0  0  0  0
   60.3469   32.9571   45.3048 H   0  0  0  0  0  0  0  0  0  0  0  0
   59.3508   35.7689   45.4690 H   0  0  0  0  0  0  0  0  0  0  0  0
   59.6336   34.6806   44.0325 H   0  0  0  0  0  0  0  0  0  0  0  0
   57.1615   34.9921   45.7500 H   0  0  0  0  0  0  0  0  0  0  0  0
   57.3542   34.9995   43.9413 H   0  0  0  0  0  0  0  0  0  0  0  0
   57.1457   32.8574   42.7371 H   0  0  0  0  0  0  0  0  0  0  0  0
   58.8192   32.7231   43.3871 H   0  0  0  0  0  0  0  0  0  0  0  0
   56.3630   28.2160   42.9180 H   0  0  0  0  0  0  0  0  0  0  0  0
   60.2251   28.7683   45.6605 H   0  0  0  0  0  0  0  0  0  0  0  0
   61.0936   26.7088   46.7672 H   0  0  0  0  0  0  0  0  0  0  0  0
   59.8223   24.5680   46.6070 H   0  0  0  0  0  0  0  0  0  0  0  0
   57.6738   24.4849   45.3398 H   0  0  0  0  0  0  0  0  0  0  0  0
   56.7936   26.5381   44.2317 H   0  0  0  0  0  0  0  0  0  0  0  0
   56.8783   32.2094   46.6873 H   0  0  0  0  0  0  0  0  0  0  0  0
   58.1729   31.3949   45.6782 H   0  0  0  0  0  0  0  0  0  0  0  0
   58.4061   33.7932   47.5136 H   0  0  0  0  0  0  0  0  0  0  0  0
   59.3870   32.2753   47.4494 H   0  0  0  0  0  0  0  0  0  0  0  0
  1  2  1  0
  2  3  1  0
  3  4  1  0
  4  5  1  0
  5  6  1  0
  6  7  1  0
  7  8  1  0
  8  9  1  0
  9 10  1  0
 10 11  1  0
 11 12  1  0
 12 13  2  0
 13 14  1  0
 14 15  2  0
 15 16  1  0
 16 17  2  0
 17 18  1  0
 18 19  2  0
 19 20  1  0
 20 21  2  0
 15 22  1  0
 10 23  1  0
 23 24  1  0
 24  7  1  0
 22 12  1  0
 21 16  1  0
  1 25  1  0
  1 26  1  0
  1 27  1  0
  2 28  1  0
  2 29  1  0
  4 30  1  0
  4 31  1  0
  5 32  1  0
  5 33  1  0
  7 34  1  0
  8 35  1  0
  8 36  1  0
  9 37  1  0
  9 38  1  0
 11 39  1  0
 11 40  1  0
 14 41  1  0
 17 42  1  0
 18 43  1  0
 19 44  1  0
 20 45  1  0
 21 46  1  0
 23 47  1  0
 23 48  1  0
 24 49  1  0
 24 50  1  0
M  CHG  1  14   1
M  END
>  <UniqueID>  (5) 
5

>  <SMILES>  (5) 
CCOCCOC1CCN(Cc2n[nH+]c(-c3ccccc3)o2)CC1

>  <Energy>  (5) 
95.15029992740722

>  <Genealogy>  (5) 
CCOCCOC1CCN(Cc2n[nH+]c(-c3ccccc3)o2)CC1 (protonated)
CCOCCOC1CCN(Cc2n[nH+]c(-c3ccccc3)o2)CC1 (3D coordinates assigned)
CCOCCOC1CCN(Cc2n[nH+]c(-c3ccccc3)o2)CC1 (nonaromatic ring conformer: 95.15029992740722 kcal/mol)

>  <smiles>  (5) 
CCOCCOC1CCN(Cc2nnc(-c3ccccc3)o2)CC1

>  <score_type>  (5) 
oracle

>  <origin>  (5) 
adg

>  <m_score__min__energy>  (5) 
-7.3200000000000003

>  <m_primary>  (5) 
energy

$$$$
5:0
     RDKit          3D

 89 92  0  0  0  0  0  0  0  0999 V2000
   57.3900   31.6280   42.2480 C   0  0  0  0  0  0  0  0  0  0  0  0
   57.3730   31.8780   43.7570 C   0  0  0  0  0  0  0  0  0  0  0  0
   56.6760   30.7980   44.4870 N   0  0  0  0  0  0  0  0  0  0  0  0
   55.8840   29.9700   43.5580 C   0  0  0  0  0  0  0  0  0  0  0  0
   57.5450   29.9740   45.3660 C   0  0  0  0  0  0  0  0  0  0  0  0
   59.0450   30.0350   45.0330 C   0  0  0  0  0  0  0  0  0  0  0  0
   59.4490   28.7690   44.5520 O   0  0  0  0  0  0  0  0  0  0  0  0
   60.6150   28.3250   45.2220 C   0  0  0  0  0  0  0  0  0  0  0  0
   60.2580   27.5050   46.4680 C   0  0  0  0  0  0  0  0  0  0  0  0
   58.9560   27.8250   46.9220 O   0  0  0  0  0  0  0  0  0  0  0  0
   58.9710   28.2750   48.2630 C   0  0  0  0  0  0  0  0  0  0  0  0
   60.1750   29.1870   48.4970 C   0  0  0  0  0  0  0  0  0  0  0  0
   59.7340   30.5300   48.8700 N   0  0  0  0  0  0  0  0  0  0  0  0
   60.5100   31.6940   48.5390 C   0  0  0  0  0  0  0  0  0  0  0  0
   60.0000   32.5990   47.5920 C   0  0  0  0  0  0  0  0  0  0  0  0
   58.6410   32.5620   47.2040 C   0  0  0  0  0  0  0  0  0  0  0  0
   58.1300   33.5070   46.3180 C   0  0  0  0  0  0  0  0  0  0  0  0
   58.9550   34.5040   45.8100 C   0  0  0  0  0  0  0  0  0  0  0  0
   60.3080   34.5320   46.1470 C   0  0  0  0  0  0  0  0  0  0  0  0
   60.8690   33.5510   47.0060 C   0  0  0  0  0  0  0  0  0  0  0  0
   62.2240   33.4890   47.2550 N   0  0  0  0  0  0  0  0  0  0  0  0
   63.1690   34.2070   46.3690 C   0  0  0  0  0  0  0  0  0  0  0  0
   62.6980   32.7390   48.3180 C   0  0  0  0  0  0  0  0  0  0  0  0
   64.0580   32.7990   48.7100 C   0  0  0  0  0  0  0  0  0  0  0  0
   64.5480   32.0020   49.7350 C   0  0  0  0  0  0  0  0  0  0  0  0
   63.6820   31.2250   50.4880 C   0  0  0  0  0  0  0  0  0  0  0  0
   62.2980   31.2410   50.2420 C   0  0  0  0  0  0  0  0  0  0  0  0
   61.4080   30.6820   51.2520 N   0  0  0  0  0  0  0  0  0  0  0  0
   61.9010   30.9200   52.6230 C   0  0  0  0  0  0  0  0  0  0  0  0
   60.7610   30.9930   53.6590 C   0  0  0  0  0  0  0  0  0  0  0  0
   60.3460   32.3870   54.2250 C   0  0  0  0  0  0  0  0  0  0  0  0
   59.4450   33.2850   53.4100 N   0  0  0  0  0  0  0  0  0  0  0  0
   59.2190   34.5730   54.1210 C   0  0  0  0  0  0  0  0  0  0  0  0
   58.1170   32.6570   53.1260 C   0  0  0  0  0  0  0  0  0  0  0  0
   58.1980   31.6740   51.9420 C   0  0  0  0  0  0  0  0  0  0  0  0
   58.6630   32.2490   50.7240 O   0  0  0  0  0  0  0  0  0  0  0  0
   59.2310   33.5370   50.8860 C   0  0  0  0  0  0  0  0  0  0  0  0
   60.1550   33.6100   52.1150 C   0  0  0  0  0  0  0  0  0  0  0  0
   61.8190   31.8790   49.0470 C   0  0  0  0  0  0  0  0  0  0  0  0
   57.4635   30.5473   42.0562 H   0  0  0  0  0  0  0  0  0  0  0  0
   56.4633   32.0175   41.8013 H   0  0  0  0  0  0  0  0  0  0  0  0
   58.2554   32.1394   41.8013 H   0  0  0  0  0  0  0  0  0  0  0  0
   58.4099   31.9401   44.1189 H   0  0  0  0  0  0  0  0  0  0  0  0
   56.8319   32.8179   43.9407 H   0  0  0  0  0  0  0  0  0  0  0  0
   55.2357   29.2922   44.1327 H   0  0  0  0  0  0  0  0  0  0  0  0
   55.2638   30.6210   42.9243 H   0  0  0  0  0  0  0  0  0  0  0  0
   56.5619   29.3794   42.9243 H   0  0  0  0  0  0  0  0  0  0  0  0
   57.4103   30.3202   46.4014 H   0  0  0  0  0  0  0  0  0  0  0  0
   57.2369   28.9292   45.2131 H   0  0  0  0  0  0  0  0  0  0  0  0
   59.2232   30.7991   44.2620 H   0  0  0  0  0  0  0  0  0  0  0  0
   59.6206   30.2978   45.9328 H   0  0  0  0  0  0  0  0  0  0  0  0
   61.2063   27.6991   44.5374 H   0  0  0  0  0  0  0  0  0  0  0  0
   61.1932   29.2060   45.5376 H   0  0  0  0  0  0  0  0  0  0  0  0
   60.3008   26.4342   46.2199 H   0  0  0  0  0  0  0  0  0  0  0  0
   60.9783   27.7414   47.2650 H   0  0  0  0  0  0  0  0  0  0  0  0
   58.0460   28.8332   48.4699 H   0  0  0  0  0  0  0  0  0  0  0  0
   59.0415   27.4061   48.9338 H   0  0  0  0  0  0  0  0  0  0  0  0
   60.7927   28.7708   49.3064 H   0  0  0  0  0  0  0  0  0  0  0  0
   60.7604   29.2496   47.5678 H   0  0  0  0  0  0  0  0  0  0  0  0
   58.8030   30.6580   49.3300 H   0  0  0  0  0  0  0  0  0  0  0  0
   57.9809   31.7792   47.6059 H   0  0  0  0  0  0  0  0  0  0  0  0
   57.0721   33.4646   46.0197 H   0  0  0  0  0  0  0  0  0  0  0  0
   58.5398   35.2722   45.1410 H   0  0  0  0  0  0  0  0  0  0  0  0
   60.9507   35.3269   45.7407 H   0  0  0  0  0  0  0  0  0  0  0  0
   63.8969   34.7601   46.9807 H   0  0  0  0  0  0  0  0  0  0  0  0
   63.6993   33.4819   45.7341 H   0  0  0  0  0  0  0  0  0  0  0  0
   62.6126   34.9122   45.7341 H   0  0  0  0  0  0  0  0  0  0  0  0
   64.7387   33.4906   48.1920 H   0  0  0  0  0  0  0  0  0  0  0  0
   65.6266   31.9869   49.9504 H   0  0  0  0  0  0  0  0  0  0  0  0
   64.0831   30.5869   51.2892 H   0  0  0  0  0  0  0  0  0  0  0  0
   61.3160   29.6520   51.0920 H   0  0  0  0  0  0  0  0  0  0  0  0
   60.4740   31.1220   51.1960 H   0  0  0  0  0  0  0  0  0  0  0  0
   62.5780   30.0989   52.9014 H   0  0  0  0  0  0  0  0  0  0  0  0
   62.4177   31.8911   52.6273 H   0  0  0  0  0  0  0  0  0  0  0  0
   59.8679   30.5567   53.1879 H   0  0  0  0  0  0  0  0  0  0  0  0
   61.1626   30.4602   54.5336 H   0  0  0  0  0  0  0  0  0  0  0  0
   59.8343   32.2040   55.1814 H   0  0  0  0  0  0  0  0  0  0  0  0
   61.2951   32.9418   54.2640 H   0  0  0  0  0  0  0  0  0  0  0  0
   59.2489   34.4023   55.2073 H   0  0  0  0  0  0  0  0  0  0  0  0
   60.0052   35.2895   53.8406 H   0  0  0  0  0  0  0  0  0  0  0  0
   58.2359   34.9790   53.8406 H   0  0  0  0  0  0  0  0  0  0  0  0
   57.7808   32.1121   54.0205 H   0  0  0  0  0  0  0  0  0  0  0  0
   57.4071   33.4552   52.8635 H   0  0  0  0  0  0  0  0  0  0  0  0
   58.8820   30.8584   52.2194 H   0  0  0  0  0  0  0  0  0  0  0  0
   57.1707   31.3299   51.7519 H   0  0  0  0  0  0  0  0  0  0  0  0
   59.8156   33.7828   49.9872 H   0  0  0  0  0  0  0  0  0  0  0  0
   58.4100   34.2537   51.0354 H   0  0  0  0  0  0  0  0  0  0  0  0
   60.9781   32.8934   51.9774 H   0  0  0  0  0  0  0  0  0  0  0  0
   60.5192   34.6452   52.1910 H   0  0  0  0  0  0  0  0  0  0  0  0
  1  2  1  0
  2  3  1  0
  3  4  1  0
  3  5  1  0
  5  6  1  0
  6  7  1  0
  7  8  1  0
  8  9  1  0
  9 10  1  0
 10 11  1  0
 11 12  1  0
 12 13  1  0
 13 14  1  0
 14 15  2  0
 15 16  1  0
 16 17  2  0
 17 18  1  0
 18 19  2  0
 19 20  1  0
 20 21  2  0
 21 22  1  0
 21 23  1  0
 23 24  2  0
 24 25  1  0
 25 26  2  0
 26 27  1  0
 27 28  1  0
 28 29  1  0
 29 30  1  0
 30 31  1  0
 31 32  1  0
 32 33  1  0
 32 34  1  0
 34 35  1  0
 35 36  1  0
 36 37  1  0
 37 38  1  0
 27 39  2  0
 39 14  1  0
 20 15  1  0
 39 23  1  0
 38 32  1  0
  1 40  1  0
  1 41  1  0
  1 42  1  0
  2 43  1  0
  2 44  1  0
  4 45  1  0
  4 46  1  0
  4 47  1  0
  5 48  1  0
  5 49  1  0
  6 50  1  0
  6 51  1  0
  8 52  1  0
  8 53  1  0
  9 54  1  0
  9 55  1  0
 11 56  1  0
 11 57  1  0
 12 58  1  0
 12 59  1  0
 13 60  1  0
 16 61  1  0
 17 62  1  0
 18 63  1  0
 19 64  1  0
 22 65  1  0
 22 66  1  0
 22 67  1  0
 24 68  1  0
 25 69  1  0
 26 70  1  0
 28 71  1  0
 28 72  1  0
 29 73  1  0
 29 74  1  0
 30 75  1  0
 30 76  1  0
 31 77  1  0
 31 78  1  0
 33 79  1  0
 33 80  1  0
 33 81  1  0
 34 82  1  0
 34 83  1  0
 35 84  1  0
 35 85  1  0
 37 86  1  0
 37 87  1  0
 38 88  1  0
 38 89  1  0
M  CHG  3  21   1  28   1  32   1
M  END
>  <UniqueID>  (6) 
6

>  <SMILES>  (6) 
CCN(C)CCOCCOCCNc1c2ccccc2[n+](C)c2cccc([NH2+]CCC[N+]3(C)CCOCC3)c12

>  <Energy>  (6) 
166.10997820527865

>  <Genealogy>  (6) 
CCN(C)CCOCCOCCNc1c2ccccc2[n+](C)c2cccc([NH2+]CCC[N+]3(C)CCOCC3)c12 (protonated)
CCN(C)CCOCCOCCNc1c2ccccc2[n+](C)c2cccc([NH2+]CCC[N+]3(C)CCOCC3)c12 (3D coordinates assigned)
CCN(C)CCOCCOCCNc1c2ccccc2[n+](C)c2cccc([NH2+]CCC[N+]3(C)CCOCC3)c12 (nonaromatic ring conformer: 166.10997820527865 kcal/mol)

>  <smiles>  (6) 
CCN(C)CCOCCOCCNc1c2ccccc2[n+](C)c2cccc(NCCC[N+]3(C)CCOCC3)c12

>  <score_type>  (6) 
oracle

>  <origin>  (6) 
adg

>  <m_score__min__energy>  (6) 
-4.0700000000000003

>  <m_primary>  (6) 
energy

$$$$
6:0
     RDKit          3D

 65 67  0  0  0  0  0  0  0  0999 V2000
   56.2890   29.7510   42.7190 C   0  0  0  0  0  0  0  0  0  0  0  0
   55.5160   30.0900   43.9830 C   0  0  0  0  0  0  0  0  0  0  0  0
   55.5410   28.9740   44.8690 O   0  0  0  0  0  0  0  0  0  0  0  0
   56.7090   28.4020   45.3990 C   0  0  0  0  0  0  0  0  0  0  0  0
   57.9470   29.0640   45.3620 C   0  0  0  0  0  0  0  0  0  0  0  0
   59.1190   28.4550   45.8490 C   0  0  0  0  0  0  0  0  0  0  0  0
   60.4310   29.2190   45.7240 C   0  0  0  0  0  0  0  0  0  0  0  0
   60.6420   30.3320   46.6980 N   0  0  0  0  0  0  0  0  0  0  0  0
   60.5470   29.9670   48.1330 C   0  0  0  0  0  0  0  0  0  0  0  0
   59.1270   30.1040   48.7180 C   0  0  0  0  0  0  0  0  0  0  0  0
   58.5310   31.4190   48.4410 N   0  0  0  0  0  0  0  0  0  0  0  0
   59.0920   32.5110   49.2690 C   0  0  0  0  0  0  0  0  0  0  0  0
   59.6850   31.9260   50.5540 C   0  0  0  0  0  0  0  0  0  0  0  0
   58.6700   31.7250   51.5390 O   0  0  0  0  0  0  0  0  0  0  0  0
   58.5360   30.5880   52.3550 C   0  0  0  0  0  0  0  0  0  0  0  0
   59.5920   30.0970   53.1510 C   0  0  0  0  0  0  0  0  0  0  0  0
   59.4100   28.9610   53.9430 C   0  0  0  0  0  0  0  0  0  0  0  0
   58.1840   28.2980   53.9440 C   0  0  0  0  0  0  0  0  0  0  0  0
   57.1320   28.7700   53.1540 C   0  0  0  0  0  0  0  0  0  0  0  0
   57.3010   29.9190   52.3570 C   0  0  0  0  0  0  0  0  0  0  0  0
   56.2680   30.4290   51.5540 O   0  0  0  0  0  0  0  0  0  0  0  0
   54.9870   30.8230   52.0390 C   0  0  0  0  0  0  0  0  0  0  0  0
   58.5340   31.7030   46.9940 C   0  0  0  0  0  0  0  0  0  0  0  0
   59.9370   31.5930   46.3680 C   0  0  0  0  0  0  0  0  0  0  0  0
   59.0050   27.2130   46.5300 C   0  0  0  0  0  0  0  0  0  0  0  0
   60.1560   26.5990   47.2900 C   0  0  0  0  0  0  0  0  0  0  0  0
   57.7650   26.5530   46.5540 C   0  0  0  0  0  0  0  0  0  0  0  0
   56.6220   27.1320   45.9770 C   0  0  0  0  0  0  0  0  0  0  0  0
   55.3750   26.4860   45.9740 O   0  0  0  0  0  0  0  0  0  0  0  0
   55.1760   25.1160   45.6370 C   0  0  0  0  0  0  0  0  0  0  0  0
   57.2653   29.3228   42.9900 H   0  0  0  0  0  0  0  0  0  0  0  0
   55.7198   29.0199   42.1261 H   0  0  0  0  0  0  0  0  0  0  0  0
   56.4413   30.6649   42.1261 H   0  0  0  0  0  0  0  0  0  0  0  0
   55.9791   30.9585   44.4742 H   0  0  0  0  0  0  0  0  0  0  0  0
   54.4741   30.3282   43.7228 H   0  0  0  0  0  0  0  0  0  0  0  0
   58.0020   30.0798   44.9436 H   0  0  0  0  0  0  0  0  0  0  0  0
   61.2523   28.4989   45.8543 H   0  0  0  0  0  0  0  0  0  0  0  0
   60.4001   29.6967   44.7336 H   0  0  0  0  0  0  0  0  0  0  0  0
   61.6560   30.5660   46.5630 H   0  0  0  0  0  0  0  0  0  0  0  0
   60.8695   28.9215   48.2469 H   0  0  0  0  0  0  0  0  0  0  0  0
   61.1896   30.6687   48.6850 H   0  0  0  0  0  0  0  0  0  0  0  0
   58.4867   29.3260   48.2768 H   0  0  0  0  0  0  0  0  0  0  0  0
   59.2020   29.9932   49.8098 H   0  0  0  0  0  0  0  0  0  0  0  0
   59.8806   33.0305   48.7049 H   0  0  0  0  0  0  0  0  0  0  0  0
   58.2938   33.2232   49.5253 H   0  0  0  0  0  0  0  0  0  0  0  0
   60.1601   30.9608   50.3244 H   0  0  0  0  0  0  0  0  0  0  0  0
   60.4262   32.6342   50.9529 H   0  0  0  0  0  0  0  0  0  0  0  0
   60.5642   30.6116   53.1480 H   0  0  0  0  0  0  0  0  0  0  0  0
   60.2358   28.5889   54.5671 H   0  0  0  0  0  0  0  0  0  0  0  0
   58.0442   27.4024   54.5672 H   0  0  0  0  0  0  0  0  0  0  0  0
   56.1673   28.2415   53.1547 H   0  0  0  0  0  0  0  0  0  0  0  0
   54.9948   30.8206   53.1390 H   0  0  0  0  0  0  0  0  0  0  0  0
   54.7528   31.8347   51.6762 H   0  0  0  0  0  0  0  0  0  0  0  0
   54.2248   30.1178   51.6762 H   0  0  0  0  0  0  0  0  0  0  0  0
   57.8682   30.9846   46.4933 H   0  0  0  0  0  0  0  0  0  0  0  0
   58.1909   32.7393   46.8588 H   0  0  0  0  0  0  0  0  0  0  0  0
   59.8349   31.6574   45.2746 H   0  0  0  0  0  0  0  0  0  0  0  0
   60.5386   32.4147   46.7838 H   0  0  0  0  0  0  0  0  0  0  0  0
   59.9749   26.6956   48.3707 H   0  0  0  0  0  0  0  0  0  0  0  0
   60.2431   25.5346   47.0265 H   0  0  0  0  0  0  0  0  0  0  0  0
   61.0886   27.1195   47.0265 H   0  0  0  0  0  0  0  0  0  0  0  0
   57.6875   25.5657   47.0328 H   0  0  0  0  0  0  0  0  0  0  0  0
   55.0895   24.5207   46.5579 H   0  0  0  0  0  0  0  0  0  0  0  0
   54.2536   25.0139   45.0464 H   0  0  0  0  0  0  0  0  0  0  0  0
   56.0312   24.7557   45.0464 H   0  0  0  0  0  0  0  0  0  0  0  0
  1  2  1  0
  2  3  1  0
  3  4  1  0
  4  5  2  0
  5  6  1  0
  6  7  1  0
  7  8  1  0
  8  9  1  0
  9 10  1  0
 10 11  1  0
 11 12  1  0
 12 13  1  0
 13 14  1  0
 14 15  1  0
 15 16  2  0
 16 17  1  0
 17 18  2  0
 18 19  1  0
 19 20  2  0
 20 21  1  0
 21 22  1  0
 11 23  1  0
 23 24  1  0
  6 25  2  0
 25 26  1  0
 25 27  1  0
 27 28  2  0
 28 29  1  0
 29 30  1  0
 28  4  1  0
 24  8  1  0
 20 15  1  0
  1 31  1  0
  1 32  1  0
  1 33  1  0
  2 34  1  0
  2 35  1  0
  5 36  1  0
  7 37  1  0
  7 38  1  0
  8 39  1  0
  9 40  1  0
  9 41  1  0
 10 42  1  0
 10 43  1  0
 12 44  1  0
 12 45  1  0
 13 46  1  0
 13 47  1  0
 16 48  1  0
 17 49  1  0
 18 50  1  0
 19 51  1  0
 22 52  1  0
 22 53  1  0
 22 54  1  0
 23 55  1  0
 23 56  1  0
 24 57  1  0
 24 58  1  0
 26 59  1  0
 26 60  1  0
 26 61  1  0
 27 62  1  0
 30 63  1  0
 30 64  1  0
 30 65  1  0
M  CHG  1   8   1
M  END
>  <UniqueID>  (7) 
7

>  <SMILES>  (7) 
CCOc1cc(C[NH+]2CCN(CCOc3ccccc3OC)CC2)c(C)cc1OC

>  <Energy>  (7) 
79.55912740387718

>  <Genealogy>  (7) 
CCOc1cc(C[NH+]2CCN(CCOc3ccccc3OC)CC2)c(C)cc1OC (protonated)
CCOc1cc(C[NH+]2CCN(CCOc3ccccc3OC)CC2)c(C)cc1OC (3D coordinates assigned)
CCOc1cc(C[NH+]2CCN(CCOc3ccccc3OC)CC2)c(C)cc1OC (nonaromatic ring conformer: 79.55912740387718 kcal/mol)

>  <smiles>  (7) 
CCOc1cc(CN2CCN(CCOc3ccccc3OC)CC2)c(C)cc1OC

>  <score_type>  (7) 
oracle

>  <origin>  (7) 
adg

>  <m_score__min__energy>  (7) 
-7.0700000000000003

>  <m_primary>  (7) 
energy

$$$$
7:0
     RDKit          3D

 72 74  0  0  0  0  0  0  0  0999 V2000
   61.3170   29.7560   52.1120 C   0  0  0  0  0  0  0  0  0  0  0  0
   61.5900   29.3890   50.6560 C   0  0  0  0  0  0  0  0  0  0  0  0
   61.7750   30.5990   49.8490 N   0  0  0  0  0  0  0  0  0  0  0  0
   63.1030   31.1790   50.1010 C   0  0  0  0  0  0  0  0  0  0  0  0
   63.6060   32.0040   48.9010 C   0  0  0  0  0  0  0  0  0  0  0  0
   63.0880   31.4830   47.5570 C   0  0  0  0  0  0  0  0  0  0  0  0
   61.7590   31.9170   47.3660 O   0  0  0  0  0  0  0  0  0  0  0  0
   61.7170   33.2620   46.9260 C   0  0  0  0  0  0  0  0  0  0  0  0
   61.2890   34.2090   48.0500 C   0  0  0  0  0  0  0  0  0  0  0  0
   60.5230   33.4900   49.0010 O   0  0  0  0  0  0  0  0  0  0  0  0
   60.8080   33.9300   50.3100 C   0  0  0  0  0  0  0  0  0  0  0  0
   60.0980   33.0350   51.3180 C   0  0  0  0  0  0  0  0  0  0  0  0
   58.7510   32.8210   50.9200 O   0  0  0  0  0  0  0  0  0  0  0  0
   58.3550   31.4820   51.1320 C   0  0  0  0  0  0  0  0  0  0  0  0
   58.5350   30.6440   49.8490 C   0  0  0  0  0  0  0  0  0  0  0  0
   59.1900   31.3830   48.7390 N   0  0  0  0  0  0  0  0  0  0  0  0
   58.9020   30.9480   47.3710 C   0  0  0  0  0  0  0  0  0  0  0  0
   59.1770   29.6230   46.9180 C   0  0  0  0  0  0  0  0  0  0  0  0
   58.7460   29.2410   45.6210 C   0  0  0  0  0  0  0  0  0  0  0  0
   57.9430   30.0800   44.8810 N   0  0  0  0  0  0  0  0  0  0  0  0
   57.2070   29.5540   43.7130 C   0  0  0  0  0  0  0  0  0  0  0  0
   57.9050   31.4220   45.1760 C   0  0  0  0  0  0  0  0  0  0  0  0
   57.3840   32.3670   44.2500 C   0  0  0  0  0  0  0  0  0  0  0  0
   57.4490   33.7360   44.5090 C   0  0  0  0  0  0  0  0  0  0  0  0
   58.0620   34.1970   45.6700 C   0  0  0  0  0  0  0  0  0  0  0  0
   58.5750   33.2930   46.5970 C   0  0  0  0  0  0  0  0  0  0  0  0
   58.4510   31.8910   46.4020 C   0  0  0  0  0  0  0  0  0  0  0  0
   59.2020   27.9180   45.0340 C   0  0  0  0  0  0  0  0  0  0  0  0
   60.5440   27.4810   45.6090 C   0  0  0  0  0  0  0  0  0  0  0  0
   60.4090   27.3350   47.1140 C   0  0  0  0  0  0  0  0  0  0  0  0
   59.9690   28.6450   47.7880 C   0  0  0  0  0  0  0  0  0  0  0  0
   61.8419   29.0503   52.7726 H   0  0  0  0  0  0  0  0  0  0  0  0
   61.6768   30.7772   52.3064 H   0  0  0  0  0  0  0  0  0  0  0  0
   60.2355   29.7051   52.3064 H   0  0  0  0  0  0  0  0  0  0  0  0
   62.5009   28.7747   50.6019 H   0  0  0  0  0  0  0  0  0  0  0  0
   60.7303   28.8265   50.2630 H   0  0  0  0  0  0  0  0  0  0  0  0
   61.7180   30.3420   48.8360 H   0  0  0  0  0  0  0  0  0  0  0  0
   63.0437   31.8337   50.9830 H   0  0  0  0  0  0  0  0  0  0  0  0
   63.8101   30.3530   50.2675 H   0  0  0  0  0  0  0  0  0  0  0  0
   63.2714   33.0444   49.0261 H   0  0  0  0  0  0  0  0  0  0  0  0
   64.7030   31.9245   48.8839 H   0  0  0  0  0  0  0  0  0  0  0  0
   63.7207   31.8704   46.7449 H   0  0  0  0  0  0  0  0  0  0  0  0
   63.1193   30.3835   47.5528 H   0  0  0  0  0  0  0  0  0  0  0  0
   62.7176   33.5541   46.5746 H   0  0  0  0  0  0  0  0  0  0  0  0
   60.9787   33.3357   46.1139 H   0  0  0  0  0  0  0  0  0  0  0  0
   62.1816   34.6277   48.5378 H   0  0  0  0  0  0  0  0  0  0  0  0
   60.6844   35.0276   47.6324 H   0  0  0  0  0  0  0  0  0  0  0  0
   61.8935   33.8858   50.4825 H   0  0  0  0  0  0  0  0  0  0  0  0
   60.4569   34.9654   50.4311 H   0  0  0  0  0  0  0  0  0  0  0  0
   60.6183   32.0675   51.3748 H   0  0  0  0  0  0  0  0  0  0  0  0
   60.1080   33.5248   52.3029 H   0  0  0  0  0  0  0  0  0  0  0  0
   58.9691   31.0478   51.9347 H   0  0  0  0  0  0  0  0  0  0  0  0
   57.2914   31.4706   51.4124 H   0  0  0  0  0  0  0  0  0  0  0  0
   59.1506   29.7653   50.0918 H   0  0  0  0  0  0  0  0  0  0  0  0
   57.5283   30.3687   49.5014 H   0  0  0  0  0  0  0  0  0  0  0  0
   60.2320   31.4120   48.8850 H   0  0  0  0  0  0  0  0  0  0  0  0
   58.8260   32.3510   48.8800 H   0  0  0  0  0  0  0  0  0  0  0  0
   56.3573   28.9467   44.0582 H   0  0  0  0  0  0  0  0  0  0  0  0
   56.8356   30.3925   43.1056 H   0  0  0  0  0  0  0  0  0  0  0  0
   57.8801   28.9311   43.1056 H   0  0  0  0  0  0  0  0  0  0  0  0
   56.9231   32.0133   43.3160 H   0  0  0  0  0  0  0  0  0  0  0  0
   57.0154   34.4517   43.7950 H   0  0  0  0  0  0  0  0  0  0  0  0
   58.1416   35.2782   45.8561 H   0  0  0  0  0  0  0  0  0  0  0  0
   59.0849   33.6708   47.4955 H   0  0  0  0  0  0  0  0  0  0  0  0
   58.4492   27.1487   45.2606 H   0  0  0  0  0  0  0  0  0  0  0  0
   59.3188   28.0460   43.9477 H   0  0  0  0  0  0  0  0  0  0  0  0
   60.8379   26.5165   45.1692 H   0  0  0  0  0  0  0  0  0  0  0  0
   61.3127   28.2321   45.3745 H   0  0  0  0  0  0  0  0  0  0  0  0
   59.6609   26.5576   47.3287 H   0  0  0  0  0  0  0  0  0  0  0  0
   61.3960   27.0633   47.5166 H   0  0  0  0  0  0  0  0  0  0  0  0
   59.3420   28.3826   48.6529 H   0  0  0  0  0  0  0  0  0  0  0  0
   60.9010   29.1698   48.0447 H   0  0  0  0  0  0  0  0  0  0  0  0
  1  2  1  0
  2  3  1  0
  3  4  1  0
  4  5  1  0
  5  6  1  0
  6  7  1  0
  7  8  1  0
  8  9  1  0
  9 10  1  0
 10 11  1  0
 11 12  1  0
 12 13  1  0
 13 14  1  0
 14 15  1  0
 15 16  1  0
 16 17  1  0
 17 18  2  0
 18 19  1  0
 19 20  2  0
 20 21  1  0
 20 22  1  0
 22 23  2  0
 23 24  1  0
 24 25  2  0
 25 26  1  0
 26 27  2  0
 19 28  1  0
 28 29  1  0
 29 30  1  0
 30 31  1  0
 27 17  1  0
 31 18  1  0
 27 22  1  0
  1 32  1  0
  1 33  1  0
  1 34  1  0
  2 35  1  0
  2 36  1  0
  3 37  1  0
  4 38  1  0
  4 39  1  0
  5 40  1  0
  5 41  1  0
  6 42  1  0
  6 43  1  0
  8 44  1  0
  8 45  1  0
  9 46  1  0
  9 47  1  0
 11 48  1  0
 11 49  1  0
 12 50  1  0
 12 51  1  0
 14 52  1  0
 14 53  1  0
 15 54  1  0
 15 55  1  0
 16 56  1  0
 16 57  1  0
 21 58  1  0
 21 59  1  0
 21 60  1  0
 23 61  1  0
 24 62  1  0
 25 63  1  0
 26 64  1  0
 28 65  1  0
 28 66  1  0
 29 67  1  0
 29 68  1  0
 30 69  1  0
 30 70  1  0
 31 71  1  0
 31 72  1  0
M  CHG  2  16   1  20   1
M  END
>  <UniqueID>  (8) 
8

>  <SMILES>  (8) 
CCNCCCOCCOCCOCC[NH2+]c1c2c([n+](C)c3ccccc13)CCCC2

>  <Energy>  (8) 
101.38020585791091

>  <Genealogy>  (8) 
CCNCCCOCCOCCOCC[NH2+]c1c2c([n+](C)c3ccccc13)CCCC2 (protonated)
CCNCCCOCCOCCOCC[NH2+]c1c2c([n+](C)c3ccccc13)CCCC2 (3D coordinates assigned)
CCNCCCOCCOCCOCC[NH2+]c1c2c([n+](C)c3ccccc13)CCCC2 (nonaromatic ring conformer: 101.38020585791091 kcal/mol)

>  <smiles>  (8) 
CCNCCCOCCOCCOCCNc1c2c([n+](C)c3ccccc13)CCCC2

>  <score_type>  (8) 
oracle

>  <origin>  (8) 
adg

>  <m_score__min__energy>  (8) 
-3.54

>  <m_primary>  (8) 
energy

$$$$
8:0
     RDKit          3D

 54 56  0  0  0  0  0  0  0  0999 V2000
   59.6949   29.8012   43.9079 H   0  0  0  0  0  0  0  0  0  0  0  0
   59.1010   29.4120   44.7480 C   0  0  0  0  0  0  0  0  0  0  0  0
   57.9010   28.8640   44.4640 C   0  0  0  0  0  0  0  0  0  0  0  0
   56.6600   29.6020   44.8070 C   0  0  0  0  0  0  0  0  0  0  0  0
   55.5540   28.9950   44.8260 O   0  0  0  0  0  0  0  0  0  0  0  0
   56.7140   30.9690   45.1090 O   0  0  0  0  0  0  0  0  0  0  0  0
   57.2470   31.9520   44.2220 C   0  0  0  0  0  0  0  0  0  0  0  0
   56.5129   32.1608   43.4298 H   0  0  0  0  0  0  0  0  0  0  0  0
   58.1794   31.5670   43.7833 H   0  0  0  0  0  0  0  0  0  0  0  0
   57.5540   33.2480   44.9790 C   0  0  0  0  0  0  0  0  0  0  0  0
   56.6590   33.5646   45.5347 H   0  0  0  0  0  0  0  0  0  0  0  0
   57.8427   34.0253   44.2562 H   0  0  0  0  0  0  0  0  0  0  0  0
   58.6690   33.0350   45.9290 N   0  0  0  0  0  0  0  0  0  0  0  0
   58.1410   32.7840   47.2820 C   0  0  0  0  0  0  0  0  0  0  0  0
   58.8695   33.1303   48.0299 H   0  0  0  0  0  0  0  0  0  0  0  0
   57.1941   33.3283   47.4129 H   0  0  0  0  0  0  0  0  0  0  0  0
   57.9653   31.7060   47.4129 H   0  0  0  0  0  0  0  0  0  0  0  0
   59.5980   34.1880   45.9400 C   0  0  0  0  0  0  0  0  0  0  0  0
   59.1093   35.0520   45.4660 H   0  0  0  0  0  0  0  0  0  0  0  0
   60.5088   33.9184   45.3852 H   0  0  0  0  0  0  0  0  0  0  0  0
   59.9790   34.5490   47.3730 C   0  0  0  0  0  0  0  0  0  0  0  0
   59.3636   33.9659   48.0740 H   0  0  0  0  0  0  0  0  0  0  0  0
   61.0417   34.3187   47.5390 H   0  0  0  0  0  0  0  0  0  0  0  0
   59.8063   35.6226   47.5390 H   0  0  0  0  0  0  0  0  0  0  0  0
   57.7780   27.5210   43.7820 C   0  0  0  0  0  0  0  0  0  0  0  0
   57.7055   26.7291   44.5420 H   0  0  0  0  0  0  0  0  0  0  0  0
   56.8751   27.5101   43.1538 H   0  0  0  0  0  0  0  0  0  0  0  0
   58.6639   27.3463   43.1538 H   0  0  0  0  0  0  0  0  0  0  0  0
   59.6770   29.5280   46.1060 C   0  0  0  0  0  0  0  0  0  0  0  0
   59.1830   28.7090   47.1240 C   0  0  0  0  0  0  0  0  0  0  0  0
   58.3973   27.9720   46.9017 H   0  0  0  0  0  0  0  0  0  0  0  0
   59.6810   28.8220   48.4180 C   0  0  0  0  0  0  0  0  0  0  0  0
   59.2926   28.1662   49.2111 H   0  0  0  0  0  0  0  0  0  0  0  0
   60.6750   29.7660   48.7200 C   0  0  0  0  0  0  0  0  0  0  0  0
   61.1550   29.8640   50.0260 C   0  0  0  0  0  0  0  0  0  0  0  0
   60.7539   29.1911   50.7982 H   0  0  0  0  0  0  0  0  0  0  0  0
   62.1110   30.7760   50.3670 N   0  0  0  0  0  0  0  0  0  0  0  0
   62.5530   30.8120   51.7730 C   0  0  0  0  0  0  0  0  0  0  0  0
   61.6771   30.7407   52.4346 H   0  0  0  0  0  0  0  0  0  0  0  0
   63.2287   29.9659   51.9667 H   0  0  0  0  0  0  0  0  0  0  0  0
   63.0829   31.7563   51.9667 H   0  0  0  0  0  0  0  0  0  0  0  0
   62.6400   31.6280   49.4200 C   0  0  0  0  0  0  0  0  0  0  0  0
   63.6370   32.5730   49.7640 C   0  0  0  0  0  0  0  0  0  0  0  0
   63.9873   32.6342   50.8049 H   0  0  0  0  0  0  0  0  0  0  0  0
   64.1810   33.4250   48.8090 C   0  0  0  0  0  0  0  0  0  0  0  0
   64.9529   34.1528   49.0997 H   0  0  0  0  0  0  0  0  0  0  0  0
   63.7530   33.3600   47.4900 C   0  0  0  0  0  0  0  0  0  0  0  0
   64.1897   34.0339   46.7382 H   0  0  0  0  0  0  0  0  0  0  0  0
   62.7720   32.4440   47.1150 C   0  0  0  0  0  0  0  0  0  0  0  0
   62.4453   32.4006   46.0655 H   0  0  0  0  0  0  0  0  0  0  0  0
   62.1880   31.5670   48.0640 C   0  0  0  0  0  0  0  0  0  0  0  0
   61.1800   30.6230   47.7160 C   0  0  0  0  0  0  0  0  0  0  0  0
   60.6460   30.5000   46.4070 C   0  0  0  0  0  0  0  0  0  0  0  0
   60.9967   31.1773   45.6143 H   0  0  0  0  0  0  0  0  0  0  0  0
  1  2  1  0
  2  3  2  0
  3  4  1  0
  4  5  2  0
  4  6  1  0
  6  7  1  0
  7  8  1  0
  7  9  1  0
  7 10  1  0
 10 11  1  0
 10 12  1  0
 10 13  1  0
 13 14  1  0
 14 15  1  0
 14 16  1  0
 14 17  1  0
 13 18  1  0
 18 19  1  0
 18 20  1  0
 18 21  1  0
 21 22  1  0
 21 23  1  0
 21 24  1  0
  3 25  1  0
 25 26  1  0
 25 27  1  0
 25 28  1  0
  2 29  1  0
 29 30  2  0
 30 31  1  0
 30 32  1  0
 32 33  1  0
 32 34  2  0
 34 35  1  0
 35 36  1  0
 35 37  2  0
 37 38  1  0
 38 39  1  0
 38 40  1  0
 38 41  1  0
 37 42  1  0
 42 43  2  0
 43 44  1  0
 43 45  1  0
 45 46  1  0
 45 47  2  0
 47 48  1  0
 47 49  1  0
 49 50  1  0
 49 51  2  0
 51 52  1  0
 52 53  2  0
 53 54  1  0
 53 29  1  0
 52 34  1  0
 51 42  1  0
M  CHG  1  37   1
M  END
>  <UniqueID>  (9) 
9

>  <SMILES>  (9) 
CCN(C)CCOC(=O)/C(C)=C/c1ccc2c[n+](C)c3ccccc3c2c1

>  <Energy>  (9) 
74.39121706437267

>  <Genealogy>  (9) 
CCN(C)CCOC(=O)/C(C)=C/c1ccc2c[n+](C)c3ccccc3c2c1 (cis-trans isomerization)
CCN(C)CCOC(=O)/C(C)=C/c1ccc2c[n+](C)c3ccccc3c2c1 (3D coordinates assigned)
CCN(C)CCOC(=O)/C(C)=C/c1ccc2c[n+](C)c3ccccc3c2c1 (optimized conformer: 74.39121706437267 kcal/mol)

>  <smiles>  (9) 
CCN(C)CCOC(=O)C(C)=Cc1ccc2c[n+](C)c3ccccc3c2c1

>  <score_type>  (9) 
oracle

>  <origin>  (9) 
adg

>  <m_score__min__energy>  (9) 
-7.4400000000000004

>  <m_primary>  (9) 
energy

$$$$
9:0
     RDKit          3D

 56 58  0  0  0  0  0  0  0  0999 V2000
   59.5080   35.0470   47.0540 C   0  0  0  0  0  0  0  0  0  0  0  0
   58.9120   34.3360   45.8390 C   0  0  0  0  0  0  0  0  0  0  0  0
   57.6120   33.5840   46.1640 C   0  0  0  0  0  0  0  0  0  0  0  0
   57.2260   32.4970   45.1400 C   0  0  0  0  0  0  0  0  0  0  0  0
   57.5280   31.1270   45.6020 N   0  0  0  0  0  0  0  0  0  0  0  0
   58.5010   30.4540   44.7320 C   0  0  0  0  0  0  0  0  0  0  0  0
   58.9860   29.1550   45.3890 C   0  0  0  0  0  0  0  0  0  0  0  0
   58.4640   28.9940   46.8270 C   0  0  0  0  0  0  0  0  0  0  0  0
   59.2930   29.7980   47.8450 C   0  0  0  0  0  0  0  0  0  0  0  0
   59.1940   31.2530   47.6250 N   0  0  0  0  0  0  0  0  0  0  0  0
   59.9500   32.0060   48.6210 C   0  0  0  0  0  0  0  0  0  0  0  0
   59.3660   32.3010   49.8870 C   0  0  0  0  0  0  0  0  0  0  0  0
   58.0510   31.8830   50.2190 C   0  0  0  0  0  0  0  0  0  0  0  0
   57.4660   32.2340   51.4330 C   0  0  0  0  0  0  0  0  0  0  0  0
   58.1640   33.0140   52.3400 C   0  0  0  0  0  0  0  0  0  0  0  0
   59.4650   33.4150   52.0590 C   0  0  0  0  0  0  0  0  0  0  0  0
   60.1110   33.0330   50.8540 C   0  0  0  0  0  0  0  0  0  0  0  0
   61.4270   33.3680   50.6130 N   0  0  0  0  0  0  0  0  0  0  0  0
   62.2860   33.8270   51.7290 C   0  0  0  0  0  0  0  0  0  0  0  0
   61.9550   33.2380   49.3460 C   0  0  0  0  0  0  0  0  0  0  0  0
   63.1970   33.8390   49.0080 C   0  0  0  0  0  0  0  0  0  0  0  0
   63.7800   33.6410   47.7630 C   0  0  0  0  0  0  0  0  0  0  0  0
   63.1470   32.8480   46.8190 C   0  0  0  0  0  0  0  0  0  0  0  0
   61.9040   32.2860   47.0970 C   0  0  0  0  0  0  0  0  0  0  0  0
   61.2590   32.5010   48.3440 C   0  0  0  0  0  0  0  0  0  0  0  0
   59.1214   34.5858   47.9748 H   0  0  0  0  0  0  0  0  0  0  0  0
   60.6040   34.9564   47.0307 H   0  0  0  0  0  0  0  0  0  0  0  0
   59.2274   36.1104   47.0307 H   0  0  0  0  0  0  0  0  0  0  0  0
   58.6989   35.0860   45.0631 H   0  0  0  0  0  0  0  0  0  0  0  0
   59.6473   33.5920   45.4985 H   0  0  0  0  0  0  0  0  0  0  0  0
   57.7300   33.1035   47.1464 H   0  0  0  0  0  0  0  0  0  0  0  0
   56.8057   34.3320   46.1437 H   0  0  0  0  0  0  0  0  0  0  0  0
   56.1460   32.5695   44.9440 H   0  0  0  0  0  0  0  0  0  0  0  0
   57.8240   32.6751   44.2341 H   0  0  0  0  0  0  0  0  0  0  0  0
   56.6560   30.5490   45.6550 H   0  0  0  0  0  0  0  0  0  0  0  0
   58.0257   30.2188   43.7683 H   0  0  0  0  0  0  0  0  0  0  0  0
   59.3619   31.1198   44.5722 H   0  0  0  0  0  0  0  0  0  0  0  0
   58.6348   28.3030   44.7884 H   0  0  0  0  0  0  0  0  0  0  0  0
   60.0845   29.1918   45.4334 H   0  0  0  0  0  0  0  0  0  0  0  0
   57.4216   29.3431   46.8657 H   0  0  0  0  0  0  0  0  0  0  0  0
   58.5426   27.9302   47.0955 H   0  0  0  0  0  0  0  0  0  0  0  0
   58.9293   29.5680   48.8573 H   0  0  0  0  0  0  0  0  0  0  0  0
   60.3475   29.5106   47.7212 H   0  0  0  0  0  0  0  0  0  0  0  0
   59.4480   31.4860   46.6440 H   0  0  0  0  0  0  0  0  0  0  0  0
   58.1910   31.5390   47.6530 H   0  0  0  0  0  0  0  0  0  0  0  0
   57.4830   31.2700   49.5037 H   0  0  0  0  0  0  0  0  0  0  0  0
   56.4484   31.8914   51.6719 H   0  0  0  0  0  0  0  0  0  0  0  0
   57.6880   33.3167   53.2844 H   0  0  0  0  0  0  0  0  0  0  0  0
   60.0048   34.0409   52.7849 H   0  0  0  0  0  0  0  0  0  0  0  0
   61.8095   33.5724   52.6872 H   0  0  0  0  0  0  0  0  0  0  0  0
   63.2665   33.3326   51.6643 H   0  0  0  0  0  0  0  0  0  0  0  0
   62.4199   34.9169   51.6643 H   0  0  0  0  0  0  0  0  0  0  0  0
   63.7073   34.4740   49.7472 H   0  0  0  0  0  0  0  0  0  0  0  0
   64.7446   34.1138   47.5262 H   0  0  0  0  0  0  0  0  0  0  0  0
   63.6280   32.6621   45.8474 H   0  0  0  0  0  0  0  0  0  0  0  0
   61.4116   31.6631   46.3357 H   0  0  0  0  0  0  0  0  0  0  0  0
  1  2  1  0
  2  3  1  0
  3  4  1  0
  4  5  1  0
  5  6  1  0
  6  7  1  0
  7  8  1  0
  8  9  1  0
  9 10  1  0
 10 11  1  0
 11 12  2  0
 12 13  1  0
 13 14  2  0
 14 15  1  0
 15 16  2  0
 16 17  1  0
 17 18  2  0
 18 19  1  0
 18 20  1  0
 20 21  2  0
 21 22  1  0
 22 23  2  0
 23 24  1  0
 24 25  2  0
 25 11  1  0
 17 12  1  0
 25 20  1  0
  1 26  1  0
  1 27  1  0
  1 28  1  0
  2 29  1  0
  2 30  1  0
  3 31  1  0
  3 32  1  0
  4 33  1  0
  4 34  1  0
  5 35  1  0
  6 36  1  0
  6 37  1  0
  7 38  1  0
  7 39  1  0
  8 40  1  0
  8 41  1  0
  9 42  1  0
  9 43  1  0
 10 44  1  0
 10 45  1  0
 13 46  1  0
 14 47  1  0
 15 48  1  0
 16 49  1  0
 19 50  1  0
 19 51  1  0
 19 52  1  0
 21 53  1  0
 22 54  1  0
 23 55  1  0
 24 56  1  0
M  CHG  2  10   1  18   1
M  END
>  <UniqueID>  (10) 
10

>  <SMILES>  (10) 
CCCCNCCCC[NH2+]c1c2ccccc2[n+](C)c2ccccc12

>  <Energy>  (10) 
78.86902319264284

>  <Genealogy>  (10) 
CCCCNCCCC[NH2+]c1c2ccccc2[n+](C)c2ccccc12 (protonated)
CCCCNCCCC[NH2+]c1c2ccccc2[n+](C)c2ccccc12 (3D coordinates assigned)
CCCCNCCCC[NH2+]c1c2ccccc2[n+](C)c2ccccc12 (optimized conformer: 78.86902319264284 kcal/mol)

>  <smiles>  (10) 
CCCCNCCCCNc1c2ccccc2[n+](C)c2ccccc12

>  <score_type>  (10) 
oracle

>  <origin>  (10) 
adg

>  <m_score__min__energy>  (10) 
-5.25

>  <m_primary>  (10) 
energy

$$$$
10:0
     RDKit          3D

 51 52  0  0  0  0  0  0  0  0999 V2000
   59.6360   28.0140   48.1410 C   0  0  0  0  0  0  0  0  0  0  0  0
   59.5970   29.1790   47.1640 C   0  0  0  0  0  0  0  0  0  0  0  0
   58.7380   30.1780   47.6710 O   0  0  0  0  0  0  0  0  0  0  0  0
   59.5060   31.2590   48.1550 C   0  0  0  0  0  0  0  0  0  0  0  0
   58.5870   32.4390   48.4600 C   0  0  0  0  0  0  0  0  0  0  0  0
   57.7520   32.7050   47.3480 O   0  0  0  0  0  0  0  0  0  0  0  0
   58.4990   32.8350   46.1510 C   0  0  0  0  0  0  0  0  0  0  0  0
   57.5750   32.9140   44.9320 C   0  0  0  0  0  0  0  0  0  0  0  0
   57.1880   31.5770   44.4960 N   0  0  0  0  0  0  0  0  0  0  0  0
   58.0280   30.6080   44.0820 C   0  0  0  0  0  0  0  0  0  0  0  0
   57.2670   29.4890   43.8240 C   0  0  0  0  0  0  0  0  0  0  0  0
   57.7320   28.2240   43.3240 N   0  0  0  0  0  0  0  0  0  0  0  0
   58.9700   27.8000   43.9990 C   0  0  0  0  0  0  0  0  0  0  0  0
   58.7020   26.7740   45.1140 C   0  0  0  0  0  0  0  0  0  0  0  0
   57.3650   26.1660   44.9290 N   0  0  0  0  0  0  0  0  0  0  0  0
   56.6600   25.9660   46.2100 C   0  0  0  0  0  0  0  0  0  0  0  0
   57.3060   24.8380   47.0480 C   0  0  0  0  0  0  0  0  0  0  0  0
   58.1700   24.0070   46.2920 O   0  0  0  0  0  0  0  0  0  0  0  0
   57.5590   23.6610   45.0670 C   0  0  0  0  0  0  0  0  0  0  0  0
   57.4190   24.9010   44.1580 C   0  0  0  0  0  0  0  0  0  0  0  0
   55.9610   29.8430   44.1010 C   0  0  0  0  0  0  0  0  0  0  0  0
   55.9410   31.1250   44.5190 N   0  0  0  0  0  0  0  0  0  0  0  0
   59.6231   28.3990   49.1714 H   0  0  0  0  0  0  0  0  0  0  0  0
   58.7589   27.3702   47.9791 H   0  0  0  0  0  0  0  0  0  0  0  0
   60.5542   27.4303   47.9791 H   0  0  0  0  0  0  0  0  0  0  0  0
   60.6095   29.5911   47.0415 H   0  0  0  0  0  0  0  0  0  0  0  0
   59.2268   28.8321   46.1880 H   0  0  0  0  0  0  0  0  0  0  0  0
   60.0295   30.9548   49.0734 H   0  0  0  0  0  0  0  0  0  0  0  0
   60.2431   31.5551   47.3941 H   0  0  0  0  0  0  0  0  0  0  0  0
   57.9637   32.1984   49.3338 H   0  0  0  0  0  0  0  0  0  0  0  0
   59.1999   33.3277   48.6710 H   0  0  0  0  0  0  0  0  0  0  0  0
   59.1048   33.7517   46.2030 H   0  0  0  0  0  0  0  0  0  0  0  0
   59.1450   31.9512   46.0438 H   0  0  0  0  0  0  0  0  0  0  0  0
   56.6722   33.4832   45.1985 H   0  0  0  0  0  0  0  0  0  0  0  0
   58.1107   33.4142   44.1117 H   0  0  0  0  0  0  0  0  0  0  0  0
   59.1189   30.6945   43.9707 H   0  0  0  0  0  0  0  0  0  0  0  0
   57.8850   28.2810   42.2900 H   0  0  0  0  0  0  0  0  0  0  0  0
   56.9900   27.5090   43.5020 H   0  0  0  0  0  0  0  0  0  0  0  0
   59.6419   27.3472   43.2550 H   0  0  0  0  0  0  0  0  0  0  0  0
   59.4246   28.6891   44.4604 H   0  0  0  0  0  0  0  0  0  0  0  0
   59.4690   25.9864   45.0769 H   0  0  0  0  0  0  0  0  0  0  0  0
   58.7370   27.2817   46.0892 H   0  0  0  0  0  0  0  0  0  0  0  0
   56.6945   26.9025   46.7860 H   0  0  0  0  0  0  0  0  0  0  0  0
   55.6218   25.6775   45.9888 H   0  0  0  0  0  0  0  0  0  0  0  0
   57.8857   25.2959   47.8630 H   0  0  0  0  0  0  0  0  0  0  0  0
   56.4909   24.2040   47.4270 H   0  0  0  0  0  0  0  0  0  0  0  0
   58.1755   22.9066   44.5563 H   0  0  0  0  0  0  0  0  0  0  0  0
   56.5563   23.2584   45.2731 H   0  0  0  0  0  0  0  0  0  0  0  0
   58.2824   24.9390   43.4775 H   0  0  0  0  0  0  0  0  0  0  0  0
   56.4728   24.8055   43.6052 H   0  0  0  0  0  0  0  0  0  0  0  0
   55.0832   29.1882   43.9978 H   0  0  0  0  0  0  0  0  0  0  0  0
  1  2  1  0
  2  3  1  0
  3  4  1  0
  4  5  1  0
  5  6  1  0
  6  7  1  0
  7  8  1  0
  8  9  1  0
  9 10  1  0
 10 11  2  0
 11 12  1  0
 12 13  1  0
 13 14  1  0
 14 15  1  0
 15 16  1  0
 16 17  1  0
 17 18  1  0
 18 19  1  0
 19 20  1  0
 11 21  1  0
 21 22  2  0
 22  9  1  0
 20 15  1  0
  1 23  1  0
  1 24  1  0
  1 25  1  0
  2 26  1  0
  2 27  1  0
  4 28  1  0
  4 29  1  0
  5 30  1  0
  5 31  1  0
  7 32  1  0
  7 33  1  0
  8 34  1  0
  8 35  1  0
 10 36  1  0
 12 37  1  0
 12 38  1  0
 13 39  1  0
 13 40  1  0
 14 41  1  0
 14 42  1  0
 16 43  1  0
 16 44  1  0
 17 45  1  0
 17 46  1  0
 19 47  1  0
 19 48  1  0
 20 49  1  0
 20 50  1  0
 21 51  1  0
M  CHG  1  12   1
M  END
>  <UniqueID>  (11) 
11

>  <SMILES>  (11) 
CCOCCOCCn1cc([NH2+]CCN2CCOCC2)cn1

>  <Energy>  (11) 
87.51749241691236

>  <Genealogy>  (11) 
CCOCCOCCn1cc([NH2+]CCN2CCOCC2)cn1 (protonated)
CCOCCOCCn1cc([NH2+]CCN2CCOCC2)cn1 (3D coordinates assigned)
CCOCCOCCn1cc([NH2+]CCN2CCOCC2)cn1 (nonaromatic ring conformer: 87.51749241691236 kcal/mol)

>  <smiles>  (11) 
CCOCCOCCn1cc(NCCN2CCOCC2)cn1

>  <score_type>  (11) 
oracle

>  <origin>  (11) 
adg

>  <m_score__min__energy>  (11) 
-4.7999999999999998

>  <m_primary>  (11) 
energy

$$$$
11:0
     RDKit          3D

 38 40  0  0  0  0  0  0  0  0999 V2000
   55.3350   23.8760   44.7870 C   0  0  0  0  0  0  0  0  0  0  0  0
   54.6430   24.9590   45.6190 C   0  0  0  0  0  0  0  0  0  0  0  0
   55.5250   25.5300   46.6500 N   0  0  0  0  0  0  0  0  0  0  0  0
   56.9450   25.2720   46.3740 C   0  0  0  0  0  0  0  0  0  0  0  0
   57.5710   26.4380   45.6050 C   0  0  0  0  0  0  0  0  0  0  0  0
   56.6040   27.4510   45.3160 O   0  0  0  0  0  0  0  0  0  0  0  0
   56.8750   28.7950   45.0070 C   0  0  0  0  0  0  0  0  0  0  0  0
   56.4280   29.4180   43.8230 C   0  0  0  0  0  0  0  0  0  0  0  0
   56.7300   30.7590   43.5700 C   0  0  0  0  0  0  0  0  0  0  0  0
   57.4790   31.4990   44.4950 C   0  0  0  0  0  0  0  0  0  0  0  0
   57.7940   32.8440   44.2630 C   0  0  0  0  0  0  0  0  0  0  0  0
   58.5430   33.5570   45.2080 C   0  0  0  0  0  0  0  0  0  0  0  0
   58.8760   34.9040   45.0060 C   0  0  0  0  0  0  0  0  0  0  0  0
   59.6240   35.5920   45.9670 C   0  0  0  0  0  0  0  0  0  0  0  0
   60.0450   34.9400   47.1310 C   0  0  0  0  0  0  0  0  0  0  0  0
   59.7180   33.5960   47.3410 C   0  0  0  0  0  0  0  0  0  0  0  0
   58.9680   32.9000   46.3860 C   0  0  0  0  0  0  0  0  0  0  0  0
   58.6500   31.5930   46.5890 N   0  0  0  0  0  0  0  0  0  0  0  0
   57.9240   30.8830   45.6850 C   0  0  0  0  0  0  0  0  0  0  0  0
   57.6190   29.5400   45.9320 C   0  0  0  0  0  0  0  0  0  0  0  0
   55.8042   23.1417   45.4583 H   0  0  0  0  0  0  0  0  0  0  0  0
   54.5922   23.3705   44.1524 H   0  0  0  0  0  0  0  0  0  0  0  0
   56.1058   24.3377   44.1524 H   0  0  0  0  0  0  0  0  0  0  0  0
   54.3184   25.7665   44.9463 H   0  0  0  0  0  0  0  0  0  0  0  0
   53.7898   24.4911   46.1320 H   0  0  0  0  0  0  0  0  0  0  0  0
   55.3680   26.5640   46.6900 H   0  0  0  0  0  0  0  0  0  0  0  0
   57.4792   25.1403   47.3265 H   0  0  0  0  0  0  0  0  0  0  0  0
   57.0249   24.3624   45.7606 H   0  0  0  0  0  0  0  0  0  0  0  0
   58.3772   26.8755   46.2122 H   0  0  0  0  0  0  0  0  0  0  0  0
   57.9647   26.0532   44.6527 H   0  0  0  0  0  0  0  0  0  0  0  0
   55.8375   28.8443   43.0935 H   0  0  0  0  0  0  0  0  0  0  0  0
   56.3789   31.2348   42.6425 H   0  0  0  0  0  0  0  0  0  0  0  0
   57.4542   33.3390   43.3413 H   0  0  0  0  0  0  0  0  0  0  0  0
   58.5488   35.4199   44.0913 H   0  0  0  0  0  0  0  0  0  0  0  0
   59.8821   36.6493   45.8070 H   0  0  0  0  0  0  0  0  0  0  0  0
   60.6344   35.4853   47.8828 H   0  0  0  0  0  0  0  0  0  0  0  0
   60.0505   33.0860   48.2572 H   0  0  0  0  0  0  0  0  0  0  0  0
   57.9665   29.0644   46.8610 H   0  0  0  0  0  0  0  0  0  0  0  0
  1  2  1  0
  2  3  1  0
  3  4  1  0
  4  5  1  0
  5  6  1  0
  6  7  1  0
  7  8  2  0
  8  9  1  0
  9 10  2  0
 10 11  1  0
 11 12  2  0
 12 13  1  0
 13 14  2  0
 14 15  1  0
 15 16  2  0
 16 17  1  0
 17 18  2  0
 18 19  1  0
 19 20  2  0
 20  7  1  0
 19 10  1  0
 17 12  1  0
  1 21  1  0
  1 22  1  0
  1 23  1  0
  2 24  1  0
  2 25  1  0
  3 26  1  0
  4 27  1  0
  4 28  1  0
  5 29  1  0
  5 30  1  0
  8 31  1  0
  9 32  1  0
 11 33  1  0
 13 34  1  0
 14 35  1  0
 15 36  1  0
 16 37  1  0
 20 38  1  0
M  END
>  <UniqueID>  (12) 
12

>  <SMILES>  (12) 
CCNCCOc1ccc2cc3ccccc3nc2c1

>  <Energy>  (12) 
43.45512178299406

>  <Genealogy>  (12) 
CCNCCOc1ccc2cc3ccccc3nc2c1 (3D coordinates assigned)
CCNCCOc1ccc2cc3ccccc3nc2c1 (optimized conformer: 43.45512178299406 kcal/mol)

>  <smiles>  (12) 
CCNCCOc1ccc2cc3ccccc3nc2c1

>  <score_type>  (12) 
oracle

>  <origin>  (12) 
adg

>  <m_score__min__energy>  (12) 
-7.8899999999999997

>  <m_primary>  (12) 
energy

$$$$
12:0
     RDKit          3D

 39 40  0  0  0  0  0  0  0  0999 V2000
   61.9950   34.2300   49.0210 Cl  0  0  0  0  0  0  0  0  0  0  0  0
   60.6260   33.9960   47.9490 C   0  0  0  0  0  0  0  0  0  0  0  0
   60.7780   34.1770   46.5690 C   0  0  0  0  0  0  0  0  0  0  0  0
   59.6860   33.9910   45.7150 C   0  0  0  0  0  0  0  0  0  0  0  0
   58.4380   33.6320   46.2390 C   0  0  0  0  0  0  0  0  0  0  0  0
   57.0360   33.3860   45.1430 S   0  0  0  0  0  0  0  0  0  0  0  0
   57.9100   32.2630   43.9950 C   0  0  0  0  0  0  0  0  0  0  0  0
   56.9600   31.2160   43.4160 C   0  0  0  0  0  0  0  0  0  0  0  0
   56.2230   30.5540   44.5000 N   0  0  0  0  0  0  0  0  0  0  0  0
   56.5250   29.1170   44.5490 C   0  0  0  0  0  0  0  0  0  0  0  0
   57.4350   28.8020   45.7410 C   0  0  0  0  0  0  0  0  0  0  0  0
   57.8010   30.0300   46.4470 N   0  0  0  0  0  0  0  0  0  0  0  0
   59.0410   30.2260   47.1570 C   0  0  0  0  0  0  0  0  0  0  0  0
   60.2390   30.5610   46.4930 C   0  0  0  0  0  0  0  0  0  0  0  0
   61.4210   30.7450   47.2170 C   0  0  0  0  0  0  0  0  0  0  0  0
   61.4230   30.6020   48.6070 C   0  0  0  0  0  0  0  0  0  0  0  0
   60.2410   30.2750   49.2740 C   0  0  0  0  0  0  0  0  0  0  0  0
   59.0570   30.0900   48.5560 C   0  0  0  0  0  0  0  0  0  0  0  0
   58.2900   33.4400   47.6190 C   0  0  0  0  0  0  0  0  0  0  0  0
   59.3830   33.6270   48.4720 C   0  0  0  0  0  0  0  0  0  0  0  0
   61.7561   34.4654   46.1565 H   0  0  0  0  0  0  0  0  0  0  0  0
   59.8077   34.1269   44.6302 H   0  0  0  0  0  0  0  0  0  0  0  0
   58.3379   32.8536   43.1716 H   0  0  0  0  0  0  0  0  0  0  0  0
   58.7031   31.7433   44.5525 H   0  0  0  0  0  0  0  0  0  0  0  0
   56.2470   31.7066   42.7371 H   0  0  0  0  0  0  0  0  0  0  0  0
   57.5434   30.4645   42.8639 H   0  0  0  0  0  0  0  0  0  0  0  0
   55.2010   30.6570   44.2940 H   0  0  0  0  0  0  0  0  0  0  0  0
   55.5862   28.5527   44.6508 H   0  0  0  0  0  0  0  0  0  0  0  0
   57.0407   28.8292   43.6210 H   0  0  0  0  0  0  0  0  0  0  0  0
   56.9051   28.1311   46.4332 H   0  0  0  0  0  0  0  0  0  0  0  0
   58.3512   28.3191   45.3703 H   0  0  0  0  0  0  0  0  0  0  0  0
   57.1190   30.8230   46.4090 H   0  0  0  0  0  0  0  0  0  0  0  0
   60.2437   30.6782   45.3993 H   0  0  0  0  0  0  0  0  0  0  0  0
   62.3519   31.0030   46.6909 H   0  0  0  0  0  0  0  0  0  0  0  0
   62.3541   30.7468   49.1745 H   0  0  0  0  0  0  0  0  0  0  0  0
   60.2419   30.1627   50.3682 H   0  0  0  0  0  0  0  0  0  0  0  0
   58.1295   29.8358   49.0899 H   0  0  0  0  0  0  0  0  0  0  0  0
   57.3147   33.1423   48.0316 H   0  0  0  0  0  0  0  0  0  0  0  0
   59.2642   33.4835   49.5561 H   0  0  0  0  0  0  0  0  0  0  0  0
  1  2  1  0
  2  3  2  0
  3  4  1  0
  4  5  2  0
  5  6  1  0
  6  7  1  0
  7  8  1  0
  8  9  1  0
  9 10  1  0
 10 11  1  0
 11 12  1  0
 12 13  1  0
 13 14  2  0
 14 15  1  0
 15 16  2  0
 16 17  1  0
 17 18  2  0
  5 19  1  0
 19 20  2  0
 20  2  1  0
 18 13  1  0
  3 21  1  0
  4 22  1  0
  7 23  1  0
  7 24  1  0
  8 25  1  0
  8 26  1  0
  9 27  1  0
 10 28  1  0
 10 29  1  0
 11 30  1  0
 11 31  1  0
 12 32  1  0
 14 33  1  0
 15 34  1  0
 16 35  1  0
 17 36  1  0
 18 37  1  0
 19 38  1  0
 20 39  1  0
M  END
>  <UniqueID>  (13) 
13

>  <SMILES>  (13) 
Clc1ccc(SCCNCCNc2ccccc2)cc1

>  <Energy>  (13) 
30.316540490071073

>  <Genealogy>  (13) 
Clc1ccc(SCCNCCNc2ccccc2)cc1 (3D coordinates assigned)
Clc1ccc(SCCNCCNc2ccccc2)cc1 (optimized conformer: 30.316540490071073 kcal/mol)

>  <smiles>  (13) 
Clc1ccc(SCCNCCNc2ccccc2)cc1

>  <score_type>  (13) 
oracle

>  <origin>  (13) 
adg

>  <m_score__min__energy>  (13) 
-7.1900000000000004

>  <m_primary>  (13) 
energy

$$$$
13:0
     RDKit          3D

 60 62  0  0  0  0  0  0  0  0999 V2000
   63.8470   32.0540   49.2590 C   0  0  0  0  0  0  0  0  0  0  0  0
   62.7190   31.8400   48.2450 C   0  0  0  0  0  0  0  0  0  0  0  0
   61.8050   33.0030   48.1720 N   0  0  0  0  0  0  0  0  0  0  0  0
   61.9410   33.8080   46.9370 C   0  0  0  0  0  0  0  0  0  0  0  0
   63.3690   33.8660   46.3850 C   0  0  0  0  0  0  0  0  0  0  0  0
   61.8810   33.8330   49.3970 C   0  0  0  0  0  0  0  0  0  0  0  0
   60.5280   33.8280   50.1200 C   0  0  0  0  0  0  0  0  0  0  0  0
   59.5740   33.0680   49.3990 O   0  0  0  0  0  0  0  0  0  0  0  0
   58.7790   32.2780   50.2660 C   0  0  0  0  0  0  0  0  0  0  0  0
   59.3270   30.8500   50.3180 C   0  0  0  0  0  0  0  0  0  0  0  0
   59.0250   30.0990   49.0190 C   0  0  0  0  0  0  0  0  0  0  0  0
   59.6490   30.7800   47.8830 N   0  0  0  0  0  0  0  0  0  0  0  0
   59.0430   30.7700   46.5810 C   0  0  0  0  0  0  0  0  0  0  0  0
   58.5890   31.9630   46.0200 C   0  0  0  0  0  0  0  0  0  0  0  0
   57.9500   31.9760   44.8090 C   0  0  0  0  0  0  0  0  0  0  0  0
   57.7320   30.8290   44.0880 N   0  0  0  0  0  0  0  0  0  0  0  0
   57.0190   30.8890   42.7960 C   0  0  0  0  0  0  0  0  0  0  0  0
   58.1950   29.6220   44.5850 C   0  0  0  0  0  0  0  0  0  0  0  0
   58.0190   28.4080   43.8760 C   0  0  0  0  0  0  0  0  0  0  0  0
   58.5200   27.2060   44.3760 C   0  0  0  0  0  0  0  0  0  0  0  0
   59.2190   27.1820   45.5780 C   0  0  0  0  0  0  0  0  0  0  0  0
   59.4070   28.3560   46.3030 C   0  0  0  0  0  0  0  0  0  0  0  0
   58.8790   29.5780   45.8410 C   0  0  0  0  0  0  0  0  0  0  0  0
   57.5310   33.3570   44.4370 C   0  0  0  0  0  0  0  0  0  0  0  0
   57.9920   34.2340   45.6110 C   0  0  0  0  0  0  0  0  0  0  0  0
   58.6890   33.3170   46.6230 C   0  0  0  0  0  0  0  0  0  0  0  0
   63.4425   31.9773   50.2790 H   0  0  0  0  0  0  0  0  0  0  0  0
   64.6217   31.2868   49.1131 H   0  0  0  0  0  0  0  0  0  0  0  0
   64.2869   33.0516   49.1131 H   0  0  0  0  0  0  0  0  0  0  0  0
   63.1620   31.6746   47.2518 H   0  0  0  0  0  0  0  0  0  0  0  0
   62.1320   30.9688   48.5714 H   0  0  0  0  0  0  0  0  0  0  0  0
   61.2896   33.3711   46.1658 H   0  0  0  0  0  0  0  0  0  0  0  0
   61.6579   34.8388   47.1963 H   0  0  0  0  0  0  0  0  0  0  0  0
   64.0841   33.8950   47.2203 H   0  0  0  0  0  0  0  0  0  0  0  0
   63.5605   32.9749   45.7692 H   0  0  0  0  0  0  0  0  0  0  0  0
   63.4876   34.7697   45.7692 H   0  0  0  0  0  0  0  0  0  0  0  0
   62.6529   33.4249   50.0661 H   0  0  0  0  0  0  0  0  0  0  0  0
   62.1369   34.8657   49.1177 H   0  0  0  0  0  0  0  0  0  0  0  0
   60.6558   33.3900   51.1209 H   0  0  0  0  0  0  0  0  0  0  0  0
   60.1666   34.8640   50.1981 H   0  0  0  0  0  0  0  0  0  0  0  0
   58.7981   32.7131   51.2761 H   0  0  0  0  0  0  0  0  0  0  0  0
   57.7454   32.2560   49.8903 H   0  0  0  0  0  0  0  0  0  0  0  0
   60.4162   30.8879   50.4667 H   0  0  0  0  0  0  0  0  0  0  0  0
   58.8426   30.3188   51.1506 H   0  0  0  0  0  0  0  0  0  0  0  0
   59.4211   29.0753   49.0909 H   0  0  0  0  0  0  0  0  0  0  0  0
   57.9360   30.0711   48.8660 H   0  0  0  0  0  0  0  0  0  0  0  0
   60.3480   31.5290   48.0990 H   0  0  0  0  0  0  0  0  0  0  0  0
   55.9379   30.9800   42.9777 H   0  0  0  0  0  0  0  0  0  0  0  0
   57.3693   31.7608   42.2240 H   0  0  0  0  0  0  0  0  0  0  0  0
   57.2187   29.9709   42.2240 H   0  0  0  0  0  0  0  0  0  0  0  0
   57.4795   28.4134   42.9174 H   0  0  0  0  0  0  0  0  0  0  0  0
   58.3613   26.2722   43.8166 H   0  0  0  0  0  0  0  0  0  0  0  0
   59.6247   26.2325   45.9573 H   0  0  0  0  0  0  0  0  0  0  0  0
   59.9733   28.3291   47.2457 H   0  0  0  0  0  0  0  0  0  0  0  0
   58.0187   33.6719   43.5027 H   0  0  0  0  0  0  0  0  0  0  0  0
   56.4473   33.4305   44.2631 H   0  0  0  0  0  0  0  0  0  0  0  0
   58.6941   35.0017   45.2537 H   0  0  0  0  0  0  0  0  0  0  0  0
   57.1346   34.7434   46.0750 H   0  0  0  0  0  0  0  0  0  0  0  0
   59.7415   33.6090   46.7532 H   0  0  0  0  0  0  0  0  0  0  0  0
   58.2306   33.3675   47.6217 H   0  0  0  0  0  0  0  0  0  0  0  0
  1  2  1  0
  2  3  1  0
  3  4  1  0
  4  5  1  0
  3  6  1  0
  6  7  1  0
  7  8  1  0
  8  9  1  0
  9 10  1  0
 10 11  1  0
 11 12  1  0
 12 13  1  0
 13 14  2  0
 14 15  1  0
 15 16  2  0
 16 17  1  0
 16 18  1  0
 18 19  2  0
 19 20  1  0
 20 21  2  0
 21 22  1  0
 22 23  2  0
 15 24  1  0
 24 25  1  0
 25 26  1  0
 23 13  1  0
 26 14  1  0
 23 18  1  0
  1 27  1  0
  1 28  1  0
  1 29  1  0
  2 30  1  0
  2 31  1  0
  4 32  1  0
  4 33  1  0
  5 34  1  0
  5 35  1  0
  5 36  1  0
  6 37  1  0
  6 38  1  0
  7 39  1  0
  7 40  1  0
  9 41  1  0
  9 42  1  0
 10 43  1  0
 10 44  1  0
 11 45  1  0
 11 46  1  0
 12 47  1  0
 17 48  1  0
 17 49  1  0
 17 50  1  0
 19 51  1  0
 20 52  1  0
 21 53  1  0
 22 54  1  0
 24 55  1  0
 24 56  1  0
 25 57  1  0
 25 58  1  0
 26 59  1  0
 26 60  1  0
M  CHG  1  16   1
M  END
>  <UniqueID>  (14) 
14

>  <SMILES>  (14) 
CCN(CC)CCOCCCNc1c2c([n+](C)c3ccccc13)CCC2

>  <Energy>  (14) 
81.30511054115428

>  <Genealogy>  (14) 
CCN(CC)CCOCCCNc1c2c([n+](C)c3ccccc13)CCC2 (3D coordinates assigned)
CCN(CC)CCOCCCNc1c2c([n+](C)c3ccccc13)CCC2 (nonaromatic ring conformer: 81.30511054115428 kcal/mol)

>  <smiles>  (14) 
CCN(CC)CCOCCCNc1c2c([n+](C)c3ccccc13)CCC2

>  <score_type>  (14) 
oracle

>  <origin>  (14) 
adg

>  <m_score__min__energy>  (14) 
-5.1500000000000004

>  <m_primary>  (14) 
energy

$$$$
14:0
     RDKit          3D

 65 68  0  0  0  0  0  0  0  0999 V2000
   57.8040   32.8590   52.2880 C   0  0  0  0  0  0  0  0  0  0  0  0
   57.3650   31.7770   51.3030 C   0  0  0  0  0  0  0  0  0  0  0  0
   58.5150   31.2650   50.4210 C   0  0  0  0  0  0  0  0  0  0  0  0
   59.9000   31.5510   51.0230 C   0  0  0  0  0  0  0  0  0  0  0  0
   60.6970   32.3950   50.1060 N   0  0  0  0  0  0  0  0  0  0  0  0
   60.2570   33.7980   50.1440 C   0  0  0  0  0  0  0  0  0  0  0  0
   60.8620   34.5270   48.9450 C   0  0  0  0  0  0  0  0  0  0  0  0
   62.2950   34.2080   48.7430 N   0  0  0  0  0  0  0  0  0  0  0  0
   62.6400   33.7410   47.3840 C   0  0  0  0  0  0  0  0  0  0  0  0
   63.3820   32.3940   47.3720 C   0  0  0  0  0  0  0  0  0  0  0  0
   62.4110   31.2270   47.1300 C   0  0  0  0  0  0  0  0  0  0  0  0
   61.0740   31.4710   47.7050 N   0  0  0  0  0  0  0  0  0  0  0  0
   59.9970   31.1630   46.7690 C   0  0  0  0  0  0  0  0  0  0  0  0
   59.2870   32.1970   46.0880 C   0  0  0  0  0  0  0  0  0  0  0  0
   59.5890   33.5740   46.2620 C   0  0  0  0  0  0  0  0  0  0  0  0
   58.8260   34.5660   45.6520 C   0  0  0  0  0  0  0  0  0  0  0  0
   57.7320   34.2240   44.8750 C   0  0  0  0  0  0  0  0  0  0  0  0
   57.4270   32.8850   44.6560 C   0  0  0  0  0  0  0  0  0  0  0  0
   58.2290   31.8490   45.1990 C   0  0  0  0  0  0  0  0  0  0  0  0
   57.9920   30.5300   44.8780 N   0  0  0  0  0  0  0  0  0  0  0  0
   57.1620   30.1960   43.6980 C   0  0  0  0  0  0  0  0  0  0  0  0
   58.5600   29.5220   45.6260 C   0  0  0  0  0  0  0  0  0  0  0  0
   58.1140   28.1800   45.5030 C   0  0  0  0  0  0  0  0  0  0  0  0
   58.7200   27.1490   46.2160 C   0  0  0  0  0  0  0  0  0  0  0  0
   59.7730   27.4240   47.0740 C   0  0  0  0  0  0  0  0  0  0  0  0
   60.2060   28.7340   47.2510 C   0  0  0  0  0  0  0  0  0  0  0  0
   59.5980   29.8120   46.5560 C   0  0  0  0  0  0  0  0  0  0  0  0
   62.9660   33.4860   49.8490 C   0  0  0  0  0  0  0  0  0  0  0  0
   62.1400   32.3050   50.4190 C   0  0  0  0  0  0  0  0  0  0  0  0
   57.6580   32.4991   53.3171 H   0  0  0  0  0  0  0  0  0  0  0  0
   58.8673   33.0909   52.1281 H   0  0  0  0  0  0  0  0  0  0  0  0
   57.2028   33.7662   52.1281 H   0  0  0  0  0  0  0  0  0  0  0  0
   56.9561   30.9295   51.8727 H   0  0  0  0  0  0  0  0  0  0  0  0
   56.6133   32.2246   50.6362 H   0  0  0  0  0  0  0  0  0  0  0  0
   58.4042   30.1779   50.2951 H   0  0  0  0  0  0  0  0  0  0  0  0
   58.4560   31.7953   49.4591 H   0  0  0  0  0  0  0  0  0  0  0  0
   59.7770   32.0746   51.9825 H   0  0  0  0  0  0  0  0  0  0  0  0
   60.4257   30.5971   51.1773 H   0  0  0  0  0  0  0  0  0  0  0  0
   59.1592   33.8444   50.0915 H   0  0  0  0  0  0  0  0  0  0  0  0
   60.5874   34.2720   51.0800 H   0  0  0  0  0  0  0  0  0  0  0  0
   60.3065   34.2376   48.0407 H   0  0  0  0  0  0  0  0  0  0  0  0
   60.7873   35.6067   49.1414 H   0  0  0  0  0  0  0  0  0  0  0  0
   61.7104   33.6324   46.8060 H   0  0  0  0  0  0  0  0  0  0  0  0
   63.3169   34.4889   46.9453 H   0  0  0  0  0  0  0  0  0  0  0  0
   64.1352   32.4063   46.5704 H   0  0  0  0  0  0  0  0  0  0  0  0
   63.8610   32.2513   48.3519 H   0  0  0  0  0  0  0  0  0  0  0  0
   62.3056   31.0758   46.0456 H   0  0  0  0  0  0  0  0  0  0  0  0
   62.8290   30.3383   47.6255 H   0  0  0  0  0  0  0  0  0  0  0  0
   61.0290   32.4370   48.0860 H   0  0  0  0  0  0  0  0  0  0  0  0
   60.9640   30.9000   48.5710 H   0  0  0  0  0  0  0  0  0  0  0  0
   60.4435   33.8626   46.8918 H   0  0  0  0  0  0  0  0  0  0  0  0
   59.0930   35.6245   45.7877 H   0  0  0  0  0  0  0  0  0  0  0  0
   57.1046   35.0110   44.4313 H   0  0  0  0  0  0  0  0  0  0  0  0
   56.5468   32.6244   44.0500 H   0  0  0  0  0  0  0  0  0  0  0  0
   56.1898   29.8048   44.0324 H   0  0  0  0  0  0  0  0  0  0  0  0
   57.0045   31.1008   43.0925 H   0  0  0  0  0  0  0  0  0  0  0  0
   57.6751   29.4343   43.0925 H   0  0  0  0  0  0  0  0  0  0  0  0
   57.2736   27.9502   44.8315 H   0  0  0  0  0  0  0  0  0  0  0  0
   58.3627   26.1153   46.0982 H   0  0  0  0  0  0  0  0  0  0  0  0
   60.2675   26.6046   47.6162 H   0  0  0  0  0  0  0  0  0  0  0  0
   61.0360   28.9386   47.9433 H   0  0  0  0  0  0  0  0  0  0  0  0
   63.9224   33.0915   49.4754 H   0  0  0  0  0  0  0  0  0  0  0  0
   63.0987   34.2081   50.6681 H   0  0  0  0  0  0  0  0  0  0  0  0
   62.5314   31.3685   49.9950 H   0  0  0  0  0  0  0  0  0  0  0  0
   62.2384   32.3374   51.5141 H   0  0  0  0  0  0  0  0  0  0  0  0
  1  2  1  0
  2  3  1  0
  3  4  1  0
  4  5  1  0
  5  6  1  0
  6  7  1  0
  7  8  1  0
  8  9  1  0
  9 10  1  0
 10 11  1  0
 11 12  1  0
 12 13  1  0
 13 14  1  0
 14 15  2  0
 15 16  1  0
 16 17  2  0
 17 18  1  0
 18 19  2  0
 19 20  1  0
 20 21  1  0
 20 22  2  0
 22 23  1  0
 23 24  2  0
 24 25  1  0
 25 26  2  0
 26 27  1  0
  8 28  1  0
 28 29  1  0
 29  5  1  0
 27 13  2  0
 19 14  1  0
 27 22  1  0
  1 30  1  0
  1 31  1  0
  1 32  1  0
  2 33  1  0
  2 34  1  0
  3 35  1  0
  3 36  1  0
  4 37  1  0
  4 38  1  0
  6 39  1  0
  6 40  1  0
  7 41  1  0
  7 42  1  0
  9 43  1  0
  9 44  1  0
 10 45  1  0
 10 46  1  0
 11 47  1  0
 11 48  1  0
 12 49  1  0
 12 50  1  0
 15 51  1  0
 16 52  1  0
 17 53  1  0
 18 54  1  0
 21 55  1  0
 21 56  1  0
 21 57  1  0
 23 58  1  0
 24 59  1  0
 25 60  1  0
 26 61  1  0
 28 62  1  0
 28 63  1  0
 29 64  1  0
 29 65  1  0
M  CHG  2  12   1  20   1
M  END
>  <UniqueID>  (15) 
15

>  <SMILES>  (15) 
CCCCN1CCN(CCC[NH2+]c2c3ccccc3[n+](C)c3ccccc23)CC1

>  <Energy>  (15) 
100.44436097235534

>  <Genealogy>  (15) 
CCCCN1CCN(CCC[NH2+]c2c3ccccc3[n+](C)c3ccccc23)CC1 (protonated)
CCCCN1CCN(CCC[NH2+]c2c3ccccc3[n+](C)c3ccccc23)CC1 (3D coordinates assigned)
CCCCN1CCN(CCC[NH2+]c2c3ccccc3[n+](C)c3ccccc23)CC1 (nonaromatic ring conformer: 100.44436097235534 kcal/mol)

>  <smiles>  (15) 
CCCCN1CCN(CCCNc2c3ccccc3[n+](C)c3ccccc23)CC1

>  <score_type>  (15) 
oracle

>  <origin>  (15) 
adg

>  <m_score__min__energy>  (15) 
-6.0700000000000003

>  <m_primary>  (15) 
energy

$$$$
15:0
     RDKit          3D

 53 55  0  0  0  0  0  0  0  0999 V2000
   56.4700   24.5710   44.5150 C   0  0  0  0  0  0  0  0  0  0  0  0
   55.4750   24.6200   45.6730 C   0  0  0  0  0  0  0  0  0  0  0  0
   55.9810   23.7810   46.8500 C   0  0  0  0  0  0  0  0  0  0  0  0
   55.2910   26.0080   46.0870 N   0  0  0  0  0  0  0  0  0  0  0  0
   56.2670   27.0350   45.8840 C   0  0  0  0  0  0  0  0  0  0  0  0
   55.9680   28.0870   45.2540 O   0  0  0  0  0  0  0  0  0  0  0  0
   57.6380   26.8820   46.4650 C   0  0  0  0  0  0  0  0  0  0  0  0
   58.7330   27.2030   45.4360 C   0  0  0  0  0  0  0  0  0  0  0  0
   59.7570   28.2640   45.8930 C   0  0  0  0  0  0  0  0  0  0  0  0
   59.5640   28.7540   47.3350 C   0  0  0  0  0  0  0  0  0  0  0  0
   58.5440   29.8020   47.4130 N   0  0  0  0  0  0  0  0  0  0  0  0
   58.7220   31.0810   46.7770 C   0  0  0  0  0  0  0  0  0  0  0  0
   59.4370   32.1010   47.4280 C   0  0  0  0  0  0  0  0  0  0  0  0
   59.9800   31.8940   48.7140 C   0  0  0  0  0  0  0  0  0  0  0  0
   60.7590   32.8750   49.3240 C   0  0  0  0  0  0  0  0  0  0  0  0
   61.0100   34.0730   48.6670 C   0  0  0  0  0  0  0  0  0  0  0  0
   60.4600   34.3110   47.4080 C   0  0  0  0  0  0  0  0  0  0  0  0
   59.6310   33.3480   46.7750 C   0  0  0  0  0  0  0  0  0  0  0  0
   59.0390   33.5910   45.5500 N   0  0  0  0  0  0  0  0  0  0  0  0
   58.9960   34.9680   45.0080 C   0  0  0  0  0  0  0  0  0  0  0  0
   58.4480   32.5560   44.8490 C   0  0  0  0  0  0  0  0  0  0  0  0
   58.0450   32.7040   43.4960 C   0  0  0  0  0  0  0  0  0  0  0  0
   57.3780   31.6790   42.8250 C   0  0  0  0  0  0  0  0  0  0  0  0
   57.1000   30.4820   43.4760 C   0  0  0  0  0  0  0  0  0  0  0  0
   57.5250   30.2880   44.7880 C   0  0  0  0  0  0  0  0  0  0  0  0
   58.2350   31.2980   45.4760 C   0  0  0  0  0  0  0  0  0  0  0  0
   57.4941   24.5206   44.9134 H   0  0  0  0  0  0  0  0  0  0  0  0
   56.2720   23.6815   43.8989 H   0  0  0  0  0  0  0  0  0  0  0  0
   56.3604   25.4756   43.8989 H   0  0  0  0  0  0  0  0  0  0  0  0
   54.5123   24.2030   45.3422 H   0  0  0  0  0  0  0  0  0  0  0  0
   55.6905   24.2627   47.7953 H   0  0  0  0  0  0  0  0  0  0  0  0
   55.5389   22.7750   46.8001 H   0  0  0  0  0  0  0  0  0  0  0  0
   57.0771   23.7027   46.8001 H   0  0  0  0  0  0  0  0  0  0  0  0
   57.7409   27.5667   47.3197 H   0  0  0  0  0  0  0  0  0  0  0  0
   57.7610   25.8352   46.7798 H   0  0  0  0  0  0  0  0  0  0  0  0
   59.2782   26.2736   45.2147 H   0  0  0  0  0  0  0  0  0  0  0  0
   58.2206   27.6238   44.5583 H   0  0  0  0  0  0  0  0  0  0  0  0
   60.7637   27.8285   45.8098 H   0  0  0  0  0  0  0  0  0  0  0  0
   59.6125   29.1393   45.2427 H   0  0  0  0  0  0  0  0  0  0  0  0
   59.2536   27.9055   47.9625 H   0  0  0  0  0  0  0  0  0  0  0  0
   60.5178   29.1733   47.6879 H   0  0  0  0  0  0  0  0  0  0  0  0
   57.6970   29.6530   48.0060 H   0  0  0  0  0  0  0  0  0  0  0  0
   59.7861   30.9479   49.2405 H   0  0  0  0  0  0  0  0  0  0  0  0
   61.1757   32.7007   50.3270 H   0  0  0  0  0  0  0  0  0  0  0  0
   61.6445   34.8361   49.1414 H   0  0  0  0  0  0  0  0  0  0  0  0
   60.6721   35.2614   46.8964 H   0  0  0  0  0  0  0  0  0  0  0  0
   58.9735   35.6885   45.8389 H   0  0  0  0  0  0  0  0  0  0  0  0
   59.8890   35.1473   44.3912 H   0  0  0  0  0  0  0  0  0  0  0  0
   58.0936   35.0913   44.3912 H   0  0  0  0  0  0  0  0  0  0  0  0
   58.2626   33.6437   42.9672 H   0  0  0  0  0  0  0  0  0  0  0  0
   57.0710   31.8179   41.7779 H   0  0  0  0  0  0  0  0  0  0  0  0
   56.5445   29.6885   42.9547 H   0  0  0  0  0  0  0  0  0  0  0  0
   57.3054   29.3369   45.2951 H   0  0  0  0  0  0  0  0  0  0  0  0
  1  2  1  0
  2  3  1  0
  2  4  1  0
  4  5  1  0
  5  6  2  0
  5  7  1  0
  7  8  1  0
  8  9  1  0
  9 10  1  0
 10 11  1  0
 11 12  1  0
 12 13  2  0
 13 14  1  0
 14 15  2  0
 15 16  1  0
 16 17  2  0
 17 18  1  0
 18 19  2  0
 19 20  1  0
 19 21  1  0
 21 22  2  0
 22 23  1  0
 23 24  2  0
 24 25  1  0
 25 26  2  0
 26 12  1  0
 18 13  1  0
 26 21  1  0
  1 27  1  0
  1 28  1  0
  1 29  1  0
  2 30  1  0
  3 31  1  0
  3 32  1  0
  3 33  1  0
  7 34  1  0
  7 35  1  0
  8 36  1  0
  8 37  1  0
  9 38  1  0
  9 39  1  0
 10 40  1  0
 10 41  1  0
 11 42  1  0
 14 43  1  0
 15 44  1  0
 16 45  1  0
 17 46  1  0
 20 47  1  0
 20 48  1  0
 20 49  1  0
 22 50  1  0
 23 51  1  0
 24 52  1  0
 25 53  1  0
M  CHG  2   4  -1  19   1
M  END
>  <UniqueID>  (16) 
16

>  <SMILES>  (16) 
CC(C)[N-]C(=O)CCCCNc1c2ccccc2[n+](C)c2ccccc12

>  <Energy>  (16) 
68.7316019965988

>  <Genealogy>  (16) 
CC(C)[N-]C(=O)CCCCNc1c2ccccc2[n+](C)c2ccccc12 (protonated)
CC(C)[N-]C(=O)CCCCNc1c2ccccc2[n+](C)c2ccccc12 (3D coordinates assigned)
CC(C)[N-]C(=O)CCCCNc1c2ccccc2[n+](C)c2ccccc12 (optimized conformer: 68.7316019965988 kcal/mol)

>  <smiles>  (16) 
CC(C)NC(=O)CCCCNc1c2ccccc2[n+](C)c2ccccc12

>  <score_type>  (16) 
oracle

>  <origin>  (16) 
adg

>  <m_score__min__energy>  (16) 
-8.4499999999999993

>  <m_primary>  (16) 
energy

$$$$
16:0
     RDKit          3D

 54 57  0  0  0  0  0  0  0  0999 V2000
   56.2710   26.0580   46.3920 C   0  0  0  0  0  0  0  0  0  0  0  0
   57.6660   25.5040   46.6520 C   0  0  0  0  0  0  0  0  0  0  0  0
   58.3820   25.2460   45.3810 N   0  0  0  0  0  0  0  0  0  0  0  0
   58.5190   23.7860   45.1980 C   0  0  0  0  0  0  0  0  0  0  0  0
   57.6570   25.8550   44.2360 C   0  0  0  0  0  0  0  0  0  0  0  0
   58.2030   27.2530   43.8590 C   0  0  0  0  0  0  0  0  0  0  0  0
   59.4930   27.5930   44.4920 N   0  0  0  0  0  0  0  0  0  0  0  0
   59.3850   28.5150   45.6070 C   0  0  0  0  0  0  0  0  0  0  0  0
   58.9700   29.8700   45.4520 C   0  0  0  0  0  0  0  0  0  0  0  0
   59.1140   30.7720   46.5530 C   0  0  0  0  0  0  0  0  0  0  0  0
   59.3580   30.2730   47.8210 N   0  0  0  0  0  0  0  0  0  0  0  0
   59.1500   31.0660   49.0430 C   0  0  0  0  0  0  0  0  0  0  0  0
   59.7540   28.9730   47.9440 C   0  0  0  0  0  0  0  0  0  0  0  0
   59.8190   28.1310   46.8790 C   0  0  0  0  0  0  0  0  0  0  0  0
   60.3280   26.9030   47.2450 O   0  0  0  0  0  0  0  0  0  0  0  0
   60.6120   26.8740   48.6410 C   0  0  0  0  0  0  0  0  0  0  0  0
   60.2070   28.2650   49.1780 C   0  0  0  0  0  0  0  0  0  0  0  0
   59.0250   32.2390   46.2610 C   0  0  0  0  0  0  0  0  0  0  0  0
   59.8100   33.1870   46.9480 C   0  0  0  0  0  0  0  0  0  0  0  0
   59.7260   34.5450   46.6270 C   0  0  0  0  0  0  0  0  0  0  0  0
   58.8940   34.9710   45.5920 C   0  0  0  0  0  0  0  0  0  0  0  0
   58.1750   34.0350   44.8470 C   0  0  0  0  0  0  0  0  0  0  0  0
   58.2690   32.6680   45.1530 C   0  0  0  0  0  0  0  0  0  0  0  0
   57.5670   31.6490   44.3060 C   0  0  0  0  0  0  0  0  0  0  0  0
   58.4420   30.3990   44.1280 C   0  0  0  0  0  0  0  0  0  0  0  0
   55.7707   26.2567   47.3513 H   0  0  0  0  0  0  0  0  0  0  0  0
   56.3490   26.9934   45.8185 H   0  0  0  0  0  0  0  0  0  0  0  0
   55.6860   25.3240   45.8185 H   0  0  0  0  0  0  0  0  0  0  0  0
   58.2376   26.2333   47.2449 H   0  0  0  0  0  0  0  0  0  0  0  0
   57.5688   24.5539   47.1977 H   0  0  0  0  0  0  0  0  0  0  0  0
   58.5650   23.2959   46.1817 H   0  0  0  0  0  0  0  0  0  0  0  0
   57.6528   23.4038   44.6380 H   0  0  0  0  0  0  0  0  0  0  0  0
   59.4412   23.5716   44.6380 H   0  0  0  0  0  0  0  0  0  0  0  0
   57.7558   25.1917   43.3640 H   0  0  0  0  0  0  0  0  0  0  0  0
   56.6060   25.9786   44.5361 H   0  0  0  0  0  0  0  0  0  0  0  0
   58.3350   27.2883   42.7675 H   0  0  0  0  0  0  0  0  0  0  0  0
   57.4697   27.9866   44.2251 H   0  0  0  0  0  0  0  0  0  0  0  0
   60.1480   27.9280   43.7540 H   0  0  0  0  0  0  0  0  0  0  0  0
   59.9140   26.7060   44.8580 H   0  0  0  0  0  0  0  0  0  0  0  0
   59.3167   30.4305   49.9253 H   0  0  0  0  0  0  0  0  0  0  0  0
   59.8577   31.9080   49.0586 H   0  0  0  0  0  0  0  0  0  0  0  0
   58.1202   31.4523   49.0586 H   0  0  0  0  0  0  0  0  0  0  0  0
   60.0252   26.0860   49.1357 H   0  0  0  0  0  0  0  0  0  0  0  0
   61.6725   26.6563   48.8355 H   0  0  0  0  0  0  0  0  0  0  0  0
   59.3913   28.1850   49.9117 H   0  0  0  0  0  0  0  0  0  0  0  0
   61.0211   28.7837   49.7054 H   0  0  0  0  0  0  0  0  0  0  0  0
   60.4942   32.8556   47.7431 H   0  0  0  0  0  0  0  0  0  0  0  0
   60.3179   35.2798   47.1925 H   0  0  0  0  0  0  0  0  0  0  0  0
   58.8045   36.0432   45.3631 H   0  0  0  0  0  0  0  0  0  0  0  0
   57.5333   34.3691   44.0183 H   0  0  0  0  0  0  0  0  0  0  0  0
   56.6227   31.3631   44.7925 H   0  0  0  0  0  0  0  0  0  0  0  0
   57.3679   32.0865   43.3166 H   0  0  0  0  0  0  0  0  0  0  0  0
   57.8416   29.6126   43.6472 H   0  0  0  0  0  0  0  0  0  0  0  0
   59.3070   30.6795   43.5091 H   0  0  0  0  0  0  0  0  0  0  0  0
  1  2  1  0
  2  3  1  0
  3  4  1  0
  3  5  1  0
  5  6  1  0
  6  7  1  0
  7  8  1  0
  8  9  2  0
  9 10  1  0
 10 11  2  0
 11 12  1  0
 11 13  1  0
 13 14  2  0
 14 15  1  0
 15 16  1  0
 16 17  1  0
 10 18  1  0
 18 19  2  0
 19 20  1  0
 20 21  2  0
 21 22  1  0
 22 23  2  0
 23 24  1  0
 24 25  1  0
 14  8  1  0
 23 18  1  0
 25  9  1  0
 17 13  1  0
  1 26  1  0
  1 27  1  0
  1 28  1  0
  2 29  1  0
  2 30  1  0
  4 31  1  0
  4 32  1  0
  4 33  1  0
  5 34  1  0
  5 35  1  0
  6 36  1  0
  6 37  1  0
  7 38  1  0
  7 39  1  0
 12 40  1  0
 12 41  1  0
 12 42  1  0
 16 43  1  0
 16 44  1  0
 17 45  1  0
 17 46  1  0
 19 47  1  0
 20 48  1  0
 21 49  1  0
 22 50  1  0
 24 51  1  0
 24 52  1  0
 25 53  1  0
 25 54  1  0
M  CHG  2   7   1  11   1
M  END
>  <UniqueID>  (17) 
17

>  <SMILES>  (17) 
CCN(C)CC[NH2+]c1c2c([n+](C)c3c1OCC3)-c1ccccc1CC2

>  <Energy>  (17) 
91.20346394596801

>  <Genealogy>  (17) 
CCN(C)CC[NH2+]c1c2c([n+](C)c3c1OCC3)-c1ccccc1CC2 (protonated)
CCN(C)CC[NH2+]c1c2c([n+](C)c3c1OCC3)-c1ccccc1CC2 (3D coordinates assigned)
CCN(C)CC[NH2+]c1c2c([n+](C)c3c1OCC3)-c1ccccc1CC2 (nonaromatic ring conformer: 91.20346394596801 kcal/mol)

>  <smiles>  (17) 
CCN(C)CCNc1c2c([n+](C)c3c1OCC3)-c1ccccc1CC2

>  <score_type>  (17) 
oracle

>  <origin>  (17) 
adg

>  <m_score__min__energy>  (17) 
-4.1200000000000001

>  <m_primary>  (17) 
energy

$$$$
17:0
     RDKit          3D

 58 57  0  0  0  0  0  0  0  0999 V2000
   57.6911   34.1435   47.6609 H   0  0  0  0  0  0  0  0  0  0  0  0
   58.5130   34.3410   46.9570 C   0  0  0  0  0  0  0  0  0  0  0  0
   58.2140   34.4840   45.6530 C   0  0  0  0  0  0  0  0  0  0  0  0
   58.5659   35.3903   45.1384 H   0  0  0  0  0  0  0  0  0  0  0  0
   57.4250   33.4760   44.8540 C   0  0  0  0  0  0  0  0  0  0  0  0
   56.5627   33.9823   44.3956 H   0  0  0  0  0  0  0  0  0  0  0  0
   57.0998   32.6786   45.5384 H   0  0  0  0  0  0  0  0  0  0  0  0
   58.2750   32.8310   43.7390 C   0  0  0  0  0  0  0  0  0  0  0  0
   59.2318   32.5061   44.1738 H   0  0  0  0  0  0  0  0  0  0  0  0
   58.4111   33.5899   42.9544 H   0  0  0  0  0  0  0  0  0  0  0  0
   57.5990   31.6130   43.0810 C   0  0  0  0  0  0  0  0  0  0  0  0
   58.3819   30.9865   42.6287 H   0  0  0  0  0  0  0  0  0  0  0  0
   56.8882   32.0079   42.3402 H   0  0  0  0  0  0  0  0  0  0  0  0
   56.7850   30.7410   44.0540 C   0  0  0  0  0  0  0  0  0  0  0  0
   56.1510   31.3968   44.6687 H   0  0  0  0  0  0  0  0  0  0  0  0
   57.4986   30.1735   44.6694 H   0  0  0  0  0  0  0  0  0  0  0  0
   55.8920   29.7330   43.3330 C   0  0  0  0  0  0  0  0  0  0  0  0
   55.3530   29.1246   44.0742 H   0  0  0  0  0  0  0  0  0  0  0  0
   55.1677   30.2698   42.7028 H   0  0  0  0  0  0  0  0  0  0  0  0
   56.5122   29.0787   42.7028 H   0  0  0  0  0  0  0  0  0  0  0  0
   59.9140   34.4370   47.5050 C   0  0  0  0  0  0  0  0  0  0  0  0
   60.4183   35.3045   47.0544 H   0  0  0  0  0  0  0  0  0  0  0  0
   59.8569   34.5504   48.5976 H   0  0  0  0  0  0  0  0  0  0  0  0
   60.7010   33.1910   47.1910 C   0  0  0  0  0  0  0  0  0  0  0  0
   61.7915   33.2282   47.3305 H   0  0  0  0  0  0  0  0  0  0  0  0
   60.1670   32.0350   46.7520 C   0  0  0  0  0  0  0  0  0  0  0  0
   60.1015   31.8869   45.6640 H   0  0  0  0  0  0  0  0  0  0  0  0
   59.6510   30.9260   47.6390 C   0  0  0  0  0  0  0  0  0  0  0  0
   60.4654   30.5854   48.2953 H   0  0  0  0  0  0  0  0  0  0  0  0
   58.8102   31.3198   48.2290 H   0  0  0  0  0  0  0  0  0  0  0  0
   59.1430   29.7330   46.8140 C   0  0  0  0  0  0  0  0  0  0  0  0
   59.4222   28.8065   47.3371 H   0  0  0  0  0  0  0  0  0  0  0  0
   58.0538   29.8528   46.7179 H   0  0  0  0  0  0  0  0  0  0  0  0
   59.7130   29.6730   45.3850 C   0  0  0  0  0  0  0  0  0  0  0  0
   59.1833   30.4088   44.7620 H   0  0  0  0  0  0  0  0  0  0  0  0
   60.7889   29.8947   45.4431 H   0  0  0  0  0  0  0  0  0  0  0  0
   59.5540   28.2810   44.7490 C   0  0  0  0  0  0  0  0  0  0  0  0
   58.5425   28.2046   44.3235 H   0  0  0  0  0  0  0  0  0  0  0  0
   60.3346   28.1820   43.9803 H   0  0  0  0  0  0  0  0  0  0  0  0
   59.7510   27.1300   45.7510 C   0  0  0  0  0  0  0  0  0  0  0  0
   60.7170   26.6502   45.5349 H   0  0  0  0  0  0  0  0  0  0  0  0
   59.7039   27.5815   46.7530 H   0  0  0  0  0  0  0  0  0  0  0  0
   58.6570   26.0430   45.7140 C   0  0  0  0  0  0  0  0  0  0  0  0
   58.2583   25.9906   44.6901 H   0  0  0  0  0  0  0  0  0  0  0  0
   59.1342   25.1058   46.0363 H   0  0  0  0  0  0  0  0  0  0  0  0
   57.4810   26.2920   46.6770 C   0  0  0  0  0  0  0  0  0  0  0  0
   57.1732   25.3270   47.1059 H   0  0  0  0  0  0  0  0  0  0  0  0
   57.8365   26.9976   47.4423 H   0  0  0  0  0  0  0  0  0  0  0  0
   56.2780   26.9260   46.0170 C   0  0  0  0  0  0  0  0  0  0  0  0
   56.3570   28.1000   45.5660 O   0  0  0  0  0  0  0  0  0  0  0  0
   55.0020   26.2710   45.9880 N   0  0  0  0  0  0  0  0  0  0  0  0
   54.7660   24.8780   45.6180 C   0  0  0  0  0  0  0  0  0  0  0  0
   54.8473   24.2474   46.5157 H   0  0  0  0  0  0  0  0  0  0  0  0
   53.7597   24.7941   45.1818 H   0  0  0  0  0  0  0  0  0  0  0  0
   55.7890   24.4120   44.5840 C   0  0  0  0  0  0  0  0  0  0  0  0
   55.5081   24.8041   43.5954 H   0  0  0  0  0  0  0  0  0  0  0  0
   56.7819   24.7864   44.8738 H   0  0  0  0  0  0  0  0  0  0  0  0
   55.8440   22.6310   44.5140 Cl  0  0  0  0  0  0  0  0  0  0  0  0
  1  2  1  0
  2  3  2  3
  3  4  1  0
  3  5  1  0
  5  6  1  0
  5  7  1  0
  5  8  1  0
  8  9  1  0
  8 10  1  0
  8 11  1  0
 11 12  1  0
 11 13  1  0
 11 14  1  0
 14 15  1  0
 14 16  1  0
 14 17  1  0
 17 18  1  0
 17 19  1  0
 17 20  1  0
  2 21  1  0
 21 22  1  0
 21 23  1  0
 21 24  1  0
 24 25  1  0
 24 26  2  0
 26 27  1  0
 26 28  1  0
 28 29  1  0
 28 30  1  0
 28 31  1  0
 31 32  1  0
 31 33  1  0
 31 34  1  0
 34 35  1  0
 34 36  1  0
 34 37  1  0
 37 38  1  0
 37 39  1  0
 37 40  1  0
 40 41  1  0
 40 42  1  0
 40 43  1  0
 43 44  1  0
 43 45  1  0
 43 46  1  0
 46 47  1  0
 46 48  1  0
 46 49  1  0
 49 50  2  0
 49 51  1  0
 51 52  1  0
 52 53  1  0
 52 54  1  0
 52 55  1  0
 55 56  1  0
 55 57  1  0
 55 58  1  0
M  CHG  1  51  -1
M  END
>  <UniqueID>  (18) 
18

>  <SMILES>  (18) 
CCCCCC=CC/C=C\CCCCCCCC(=O)[N-]CCCl

>  <Energy>  (18) 
27.900090995326806

>  <Genealogy>  (18) 
CCCCCC=CCC=CCCCCCCCC(=O)[N-]CCCl (protonated)
CCCCCC=CC/C=C\CCCCCCCC(=O)[N-]CCCl (cis-trans isomerization)
CCCCCC=CC/C=C\CCCCCCCC(=O)[N-]CCCl (3D coordinates assigned)
CCCCCC=CC/C=C\CCCCCCCC(=O)[N-]CCCl (optimized conformer: 27.900090995326806 kcal/mol)

>  <smiles>  (18) 
CCCCCC=CCC=CCCCCCCCC(=O)NCCCl

>  <score_type>  (18) 
oracle

>  <origin>  (18) 
adg

>  <m_score__min__energy>  (18) 
-9.3100000000000005

>  <m_primary>  (18) 
energy

$$$$
18:0
     RDKit          3D

 95100  0  0  0  0  0  0  0  0999 V2000
   59.7030   35.4330   46.2500 C   0  0  0  0  0  0  0  0  0  0  0  0
   59.7590   34.2940   45.2330 C   0  0  0  0  0  0  0  0  0  0  0  0
   58.6030   33.3760   45.3910 N   0  0  0  0  0  0  0  0  0  0  0  0
   57.6680   33.4590   44.2470 C   0  0  0  0  0  0  0  0  0  0  0  0
   58.1430   32.6930   43.0040 C   0  0  0  0  0  0  0  0  0  0  0  0
   57.9200   33.5140   46.7000 C   0  0  0  0  0  0  0  0  0  0  0  0
   58.1300   32.2450   47.5340 C   0  0  0  0  0  0  0  0  0  0  0  0
   59.5000   31.7290   47.3650 N   0  0  0  0  0  0  0  0  0  0  0  0
   59.4970   30.2850   47.2610 C   0  0  0  0  0  0  0  0  0  0  0  0
   60.0520   29.4950   48.2740 C   0  0  0  0  0  0  0  0  0  0  0  0
   60.0970   28.1100   48.1540 C   0  0  0  0  0  0  0  0  0  0  0  0
   59.6090   27.4430   47.0660 N   0  0  0  0  0  0  0  0  0  0  0  0
   59.7270   25.9800   46.9760 C   0  0  0  0  0  0  0  0  0  0  0  0
   59.0020   28.1760   46.0590 C   0  0  0  0  0  0  0  0  0  0  0  0
   58.4490   27.5390   44.9200 C   0  0  0  0  0  0  0  0  0  0  0  0
   57.8070   28.2730   43.9240 C   0  0  0  0  0  0  0  0  0  0  0  0
   57.6900   29.6510   44.0370 C   0  0  0  0  0  0  0  0  0  0  0  0
   58.2280   30.3160   45.1360 C   0  0  0  0  0  0  0  0  0  0  0  0
   58.9110   29.6070   46.1520 C   0  0  0  0  0  0  0  0  0  0  0  0
   60.7110   27.6060   49.3850 C   0  0  0  0  0  0  0  0  0  0  0  0
   60.9850   26.4420   49.9210 O   0  0  0  0  0  0  0  0  0  0  0  0
   61.4930   26.6920   51.1210 C   0  0  0  0  0  0  0  0  0  0  0  0
   61.5380   28.0720   51.3520 C   0  0  0  0  0  0  0  0  0  0  0  0
   61.9690   28.7810   52.6050 C   0  0  0  0  0  0  0  0  0  0  0  0
   60.8370   29.4090   53.2980 N   0  0  0  0  0  0  0  0  0  0  0  0
   61.2150   30.6480   54.0000 C   0  0  0  0  0  0  0  0  0  0  0  0
   61.1620   31.8230   53.0200 C   0  0  0  0  0  0  0  0  0  0  0  0
   60.5690   33.0930   53.6700 C   0  0  0  0  0  0  0  0  0  0  0  0
   59.0650   33.2790   53.4090 C   0  0  0  0  0  0  0  0  0  0  0  0
   58.7730   33.9880   52.0740 C   0  0  0  0  0  0  0  0  0  0  0  0
   58.6740   33.0110   50.8900 C   0  0  0  0  0  0  0  0  0  0  0  0
   59.4850   33.4240   49.7270 N   0  0  0  0  0  0  0  0  0  0  0  0
   60.6740   34.1820   50.1340 C   0  0  0  0  0  0  0  0  0  0  0  0
   61.8680   33.7580   49.3120 C   0  0  0  0  0  0  0  0  0  0  0  0
   61.7520   33.7450   47.9120 C   0  0  0  0  0  0  0  0  0  0  0  0
   62.8410   33.4140   47.1040 C   0  0  0  0  0  0  0  0  0  0  0  0
   64.0650   33.0790   47.6750 C   0  0  0  0  0  0  0  0  0  0  0  0
   64.2080   33.0540   49.0710 C   0  0  0  0  0  0  0  0  0  0  0  0
   65.4420   32.7030   49.6420 C   0  0  0  0  0  0  0  0  0  0  0  0
   65.5960   32.6780   51.0280 C   0  0  0  0  0  0  0  0  0  0  0  0
   64.5240   33.0110   51.8570 C   0  0  0  0  0  0  0  0  0  0  0  0
   63.2900   33.3650   51.3060 C   0  0  0  0  0  0  0  0  0  0  0  0
   63.1080   33.3940   49.9050 C   0  0  0  0  0  0  0  0  0  0  0  0
   61.0330   28.6150   50.1960 C   0  0  0  0  0  0  0  0  0  0  0  0
   60.6390   29.8700   49.5850 C   0  0  0  0  0  0  0  0  0  0  0  0
   60.7240   31.0170   50.1030 O   0  0  0  0  0  0  0  0  0  0  0  0
   59.7235   35.0169   47.2681 H   0  0  0  0  0  0  0  0  0  0  0  0
   60.5697   36.0951   46.1070 H   0  0  0  0  0  0  0  0  0  0  0  0
   58.7756   36.0069   46.1070 H   0  0  0  0  0  0  0  0  0  0  0  0
   59.7443   34.7181   44.2181 H   0  0  0  0  0  0  0  0  0  0  0  0
   60.6835   33.7221   45.4010 H   0  0  0  0  0  0  0  0  0  0  0  0
   56.6983   33.0449   44.5604 H   0  0  0  0  0  0  0  0  0  0  0  0
   57.6000   34.5198   43.9640 H   0  0  0  0  0  0  0  0  0  0  0  0
   58.6989   31.7965   43.3160 H   0  0  0  0  0  0  0  0  0  0  0  0
   57.2719   32.3935   42.4028 H   0  0  0  0  0  0  0  0  0  0  0  0
   58.7985   33.3402   42.4028 H   0  0  0  0  0  0  0  0  0  0  0  0
   58.3359   34.3779   47.2392 H   0  0  0  0  0  0  0  0  0  0  0  0
   56.8431   33.6636   46.5328 H   0  0  0  0  0  0  0  0  0  0  0  0
   57.9610   32.4789   48.5955 H   0  0  0  0  0  0  0  0  0  0  0  0
   57.4194   31.4775   47.1935 H   0  0  0  0  0  0  0  0  0  0  0  0
   60.0840   32.0360   48.1750 H   0  0  0  0  0  0  0  0  0  0  0  0
   59.9680   32.1470   46.5270 H   0  0  0  0  0  0  0  0  0  0  0  0
   59.7615   25.5519   47.9887 H   0  0  0  0  0  0  0  0  0  0  0  0
   58.8586   25.5746   46.4360 H   0  0  0  0  0  0  0  0  0  0  0  0
   60.6491   25.7190   46.4360 H   0  0  0  0  0  0  0  0  0  0  0  0
   58.5278   26.4464   44.8203 H   0  0  0  0  0  0  0  0  0  0  0  0
   57.3916   27.7580   43.0453 H   0  0  0  0  0  0  0  0  0  0  0  0
   57.1692   30.2215   43.2539 H   0  0  0  0  0  0  0  0  0  0  0  0
   58.1204   31.4079   45.2152 H   0  0  0  0  0  0  0  0  0  0  0  0
   61.8306   25.9244   51.8328 H   0  0  0  0  0  0  0  0  0  0  0  0
   62.4397   28.0524   53.2814 H   0  0  0  0  0  0  0  0  0  0  0  0
   62.6761   29.5742   52.3208 H   0  0  0  0  0  0  0  0  0  0  0  0
   60.4220   28.7330   53.9820 H   0  0  0  0  0  0  0  0  0  0  0  0
   60.5144   30.8290   54.8285 H   0  0  0  0  0  0  0  0  0  0  0  0
   62.2350   30.5479   54.3994 H   0  0  0  0  0  0  0  0  0  0  0  0
   62.1829   32.0442   52.6753 H   0  0  0  0  0  0  0  0  0  0  0  0
   60.5118   31.5359   52.1805 H   0  0  0  0  0  0  0  0  0  0  0  0
   60.7276   33.0328   54.7568 H   0  0  0  0  0  0  0  0  0  0  0  0
   61.0818   33.9542   53.2169 H   0  0  0  0  0  0  0  0  0  0  0  0
   58.5863   32.2888   53.3928 H   0  0  0  0  0  0  0  0  0  0  0  0
   58.6656   33.9130   54.2143 H   0  0  0  0  0  0  0  0  0  0  0  0
   57.8193   34.5287   52.1643 H   0  0  0  0  0  0  0  0  0  0  0  0
   59.6112   34.6708   51.8711 H   0  0  0  0  0  0  0  0  0  0  0  0
   59.0192   32.0212   51.2234 H   0  0  0  0  0  0  0  0  0  0  0  0
   57.6228   32.9940   50.5666 H   0  0  0  0  0  0  0  0  0  0  0  0
   58.9250   33.9910   49.0480 H   0  0  0  0  0  0  0  0  0  0  0  0
   60.4904   35.2558   49.9815 H   0  0  0  0  0  0  0  0  0  0  0  0
   60.8803   33.9840   51.1962 H   0  0  0  0  0  0  0  0  0  0  0  0
   60.7888   33.9994   47.4457 H   0  0  0  0  0  0  0  0  0  0  0  0
   62.7310   33.4180   46.0095 H   0  0  0  0  0  0  0  0  0  0  0  0
   64.9222   32.8333   47.0310 H   0  0  0  0  0  0  0  0  0  0  0  0
   66.2919   32.4463   48.9926 H   0  0  0  0  0  0  0  0  0  0  0  0
   66.5637   32.3954   51.4682 H   0  0  0  0  0  0  0  0  0  0  0  0
   64.6512   32.9947   52.9495 H   0  0  0  0  0  0  0  0  0  0  0  0
   62.4516   33.6238   51.9694 H   0  0  0  0  0  0  0  0  0  0  0  0
  1  2  1  0
  2  3  1  0
  3  4  1  0
  4  5  1  0
  3  6  1  0
  6  7  1  0
  7  8  1  0
  8  9  1  0
  9 10  2  0
 10 11  1  0
 11 12  2  0
 12 13  1  0
 12 14  1  0
 14 15  2  0
 15 16  1  0
 16 17  2  0
 17 18  1  0
 18 19  2  0
 11 20  1  0
 20 21  1  0
 21 22  1  0
 22 23  2  0
 23 24  1  0
 24 25  1  0
 25 26  1  0
 26 27  1  0
 27 28  1  0
 28 29  1  0
 29 30  1  0
 30 31  1  0
 31 32  1  0
 32 33  1  0
 33 34  1  0
 34 35  2  0
 35 36  1  0
 36 37  2  0
 37 38  1  0
 38 39  2  0
 39 40  1  0
 40 41  2  0
 41 42  1  0
 42 43  2  0
 23 44  1  0
 44 45  1  0
 45 46  2  0
 19  9  1  0
 44 20  2  0
 45 10  1  0
 19 14  1  0
 43 34  1  0
 43 38  1  0
  1 47  1  0
  1 48  1  0
  1 49  1  0
  2 50  1  0
  2 51  1  0
  4 52  1  0
  4 53  1  0
  5 54  1  0
  5 55  1  0
  5 56  1  0
  6 57  1  0
  6 58  1  0
  7 59  1  0
  7 60  1  0
  8 61  1  0
  8 62  1  0
 13 63  1  0
 13 64  1  0
 13 65  1  0
 15 66  1  0
 16 67  1  0
 17 68  1  0
 18 69  1  0
 22 70  1  0
 24 71  1  0
 24 72  1  0
 25 73  1  0
 26 74  1  0
 26 75  1  0
 27 76  1  0
 27 77  1  0
 28 78  1  0
 28 79  1  0
 29 80  1  0
 29 81  1  0
 30 82  1  0
 30 83  1  0
 31 84  1  0
 31 85  1  0
 32 86  1  0
 33 87  1  0
 33 88  1  0
 35 89  1  0
 36 90  1  0
 37 91  1  0
 39 92  1  0
 40 93  1  0
 41 94  1  0
 42 95  1  0
M  CHG  2   8   1  12   1
M  END
>  <UniqueID>  (19) 
19

>  <SMILES>  (19) 
CCN(CC)CC[NH2+]c1c2c([n+](C)c3ccccc13)-c1occ(CNCCCCCCNCc3cccc4ccccc34)c1C2=O

>  <Energy>  (19) 
198.83783175183666

>  <Genealogy>  (19) 
CCN(CC)CC[NH2+]c1c2c([n+](C)c3ccccc13)-c1occ(CNCCCCCCNCc3cccc4ccccc34)c1C2=O (protonated)
CCN(CC)CC[NH2+]c1c2c([n+](C)c3ccccc13)-c1occ(CNCCCCCCNCc3cccc4ccccc34)c1C2=O (3D coordinates assigned)
CCN(CC)CC[NH2+]c1c2c([n+](C)c3ccccc13)-c1occ(CNCCCCCCNCc3cccc4ccccc34)c1C2=O (nonaromatic ring conformer: 198.83783175183666 kcal/mol)

>  <smiles>  (19) 
CCN(CC)CCNc1c2c([n+](C)c3ccccc13)-c1occ(CNCCCCCCNCc3cccc4ccccc34)c1C2=O

>  <score_type>  (19) 
oracle

>  <origin>  (19) 
adg

>  <m_score__min__energy>  (19) 
-6.4100000000000001

>  <m_primary>  (19) 
energy

$$$$
19:0
     RDKit          3D

 64 66  0  0  0  0  0  0  0  0999 V2000
   63.3140   33.8850   46.4820 C   0  0  0  0  0  0  0  0  0  0  0  0
   63.0450   32.5180   47.1210 C   0  0  0  0  0  0  0  0  0  0  0  0
   62.8280   32.6130   48.5740 N   0  0  0  0  0  0  0  0  0  0  0  0
   63.8690   31.9230   49.3530 C   0  0  0  0  0  0  0  0  0  0  0  0
   63.8990   32.4240   50.8060 C   0  0  0  0  0  0  0  0  0  0  0  0
   63.0150   31.6060   51.7640 C   0  0  0  0  0  0  0  0  0  0  0  0
   61.5620   32.1210   51.8170 C   0  0  0  0  0  0  0  0  0  0  0  0
   60.8720   31.9590   50.5250 N   0  0  0  0  0  0  0  0  0  0  0  0
   59.4110   31.8470   50.6690 C   0  0  0  0  0  0  0  0  0  0  0  0
   58.8850   30.5900   49.9640 C   0  0  0  0  0  0  0  0  0  0  0  0
   59.9750   29.8950   49.1410 C   0  0  0  0  0  0  0  0  0  0  0  0
   60.3830   30.7360   48.0160 N   0  0  0  0  0  0  0  0  0  0  0  0
   59.6230   30.7640   46.7950 C   0  0  0  0  0  0  0  0  0  0  0  0
   59.4010   29.5630   46.0940 C   0  0  0  0  0  0  0  0  0  0  0  0
   59.9810   28.3500   46.5310 C   0  0  0  0  0  0  0  0  0  0  0  0
   59.7060   27.1510   45.8800 C   0  0  0  0  0  0  0  0  0  0  0  0
   58.8430   27.1320   44.7920 C   0  0  0  0  0  0  0  0  0  0  0  0
   58.2710   28.3180   44.3310 C   0  0  0  0  0  0  0  0  0  0  0  0
   58.5650   29.5620   44.9470 C   0  0  0  0  0  0  0  0  0  0  0  0
   58.0360   30.7470   44.4730 N   0  0  0  0  0  0  0  0  0  0  0  0
   57.4000   30.7850   43.1360 C   0  0  0  0  0  0  0  0  0  0  0  0
   58.1400   31.9040   45.2230 C   0  0  0  0  0  0  0  0  0  0  0  0
   57.3790   33.0540   44.9030 C   0  0  0  0  0  0  0  0  0  0  0  0
   57.5540   34.2470   45.5910 C   0  0  0  0  0  0  0  0  0  0  0  0
   58.4960   34.3390   46.6030 C   0  0  0  0  0  0  0  0  0  0  0  0
   59.2460   33.2150   46.9880 C   0  0  0  0  0  0  0  0  0  0  0  0
   60.2410   33.3300   47.9740 O   0  0  0  0  0  0  0  0  0  0  0  0
   60.5530   34.5200   48.6910 C   0  0  0  0  0  0  0  0  0  0  0  0
   59.0100   31.9610   46.3500 C   0  0  0  0  0  0  0  0  0  0  0  0
   63.4618   34.6362   47.2718 H   0  0  0  0  0  0  0  0  0  0  0  0
   64.2179   33.8265   45.8578 H   0  0  0  0  0  0  0  0  0  0  0  0
   62.4554   34.1733   45.8578 H   0  0  0  0  0  0  0  0  0  0  0  0
   62.1483   32.0812   46.6573 H   0  0  0  0  0  0  0  0  0  0  0  0
   63.9313   31.8883   46.9538 H   0  0  0  0  0  0  0  0  0  0  0  0
   61.8920   32.2120   48.8190 H   0  0  0  0  0  0  0  0  0  0  0  0
   63.6625   30.8426   49.3501 H   0  0  0  0  0  0  0  0  0  0  0  0
   64.8455   32.1322   48.8919 H   0  0  0  0  0  0  0  0  0  0  0  0
   64.9369   32.3778   51.1673 H   0  0  0  0  0  0  0  0  0  0  0  0
   63.5005   33.4492   50.7994 H   0  0  0  0  0  0  0  0  0  0  0  0
   63.0055   30.5590   51.4269 H   0  0  0  0  0  0  0  0  0  0  0  0
   63.4398   31.7036   52.7740 H   0  0  0  0  0  0  0  0  0  0  0  0
   61.0132   31.5575   52.5859 H   0  0  0  0  0  0  0  0  0  0  0  0
   61.5902   33.1945   52.0551 H   0  0  0  0  0  0  0  0  0  0  0  0
   61.0950   32.7700   49.9010 H   0  0  0  0  0  0  0  0  0  0  0  0
   59.1578   31.7927   51.7381 H   0  0  0  0  0  0  0  0  0  0  0  0
   58.9442   32.7296   50.2074 H   0  0  0  0  0  0  0  0  0  0  0  0
   58.5108   29.8873   50.7231 H   0  0  0  0  0  0  0  0  0  0  0  0
   58.0833   30.8965   49.2761 H   0  0  0  0  0  0  0  0  0  0  0  0
   60.8466   29.7028   49.7839 H   0  0  0  0  0  0  0  0  0  0  0  0
   59.5755   28.9476   48.7500 H   0  0  0  0  0  0  0  0  0  0  0  0
   61.3570   31.1160   48.0120 H   0  0  0  0  0  0  0  0  0  0  0  0
   60.6588   28.3539   47.3973 H   0  0  0  0  0  0  0  0  0  0  0  0
   60.1726   26.2175   46.2275 H   0  0  0  0  0  0  0  0  0  0  0  0
   58.6100   26.1799   44.2928 H   0  0  0  0  0  0  0  0  0  0  0  0
   57.5803   28.2883   43.4754 H   0  0  0  0  0  0  0  0  0  0  0  0
   56.3080   30.8502   43.2511 H   0  0  0  0  0  0  0  0  0  0  0  0
   57.7634   31.6630   42.5819 H   0  0  0  0  0  0  0  0  0  0  0  0
   57.6563   29.8699   42.5819 H   0  0  0  0  0  0  0  0  0  0  0  0
   56.6353   33.0013   44.0942 H   0  0  0  0  0  0  0  0  0  0  0  0
   56.9420   35.1234   45.3315 H   0  0  0  0  0  0  0  0  0  0  0  0
   58.6583   35.3016   47.1100 H   0  0  0  0  0  0  0  0  0  0  0  0
   60.5009   34.3213   49.7716 H   0  0  0  0  0  0  0  0  0  0  0  0
   61.5683   34.8512   48.4276 H   0  0  0  0  0  0  0  0  0  0  0  0
   59.8308   35.3068   48.4276 H   0  0  0  0  0  0  0  0  0  0  0  0
  1  2  1  0
  2  3  1  0
  3  4  1  0
  4  5  1  0
  5  6  1  0
  6  7  1  0
  7  8  1  0
  8  9  1  0
  9 10  1  0
 10 11  1  0
 11 12  1  0
 12 13  1  0
 13 14  2  0
 14 15  1  0
 15 16  2  0
 16 17  1  0
 17 18  2  0
 18 19  1  0
 19 20  2  0
 20 21  1  0
 20 22  1  0
 22 23  2  0
 23 24  1  0
 24 25  2  0
 25 26  1  0
 26 27  1  0
 27 28  1  0
 26 29  2  0
 29 13  1  0
 19 14  1  0
 29 22  1  0
  1 30  1  0
  1 31  1  0
  1 32  1  0
  2 33  1  0
  2 34  1  0
  3 35  1  0
  4 36  1  0
  4 37  1  0
  5 38  1  0
  5 39  1  0
  6 40  1  0
  6 41  1  0
  7 42  1  0
  7 43  1  0
  8 44  1  0
  9 45  1  0
  9 46  1  0
 10 47  1  0
 10 48  1  0
 11 49  1  0
 11 50  1  0
 12 51  1  0
 15 52  1  0
 16 53  1  0
 17 54  1  0
 18 55  1  0
 21 56  1  0
 21 57  1  0
 21 58  1  0
 23 59  1  0
 24 60  1  0
 25 61  1  0
 28 62  1  0
 28 63  1  0
 28 64  1  0
M  CHG  1  20   1
M  END
>  <UniqueID>  (20) 
20

>  <SMILES>  (20) 
CCNCCCCNCCCNc1c2ccccc2[n+](C)c2cccc(OC)c12

>  <Energy>  (20) 
86.75673671440347

>  <Genealogy>  (20) 
CCNCCCCNCCCNc1c2ccccc2[n+](C)c2cccc(OC)c12 (3D coordinates assigned)
CCNCCCCNCCCNc1c2ccccc2[n+](C)c2cccc(OC)c12 (optimized conformer: 86.75673671440347 kcal/mol)

>  <smiles>  (20) 
CCNCCCCNCCCNc1c2ccccc2[n+](C)c2cccc(OC)c12

>  <score_type>  (20) 
oracle

>  <origin>  (20) 
adg

>  <m_score__min__energy>  (20) 
-5.2000000000000002

>  <m_primary>  (20) 
energy

$$$$
20:0
     RDKit          3D

 59 61  0  0  0  0  0  0  0  0999 V2000
   59.4140   27.2640   53.7040 C   0  0  0  0  0  0  0  0  0  0  0  0
   57.9960   27.8030   53.9080 C   0  0  0  0  0  0  0  0  0  0  0  0
   57.7240   28.9970   53.0870 N   0  0  0  0  0  0  0  0  0  0  0  0
   56.3680   29.5280   53.3070 C   0  0  0  0  0  0  0  0  0  0  0  0
   55.9430   30.4460   52.1580 C   0  0  0  0  0  0  0  0  0  0  0  0
   56.9860   30.5300   51.2020 O   0  0  0  0  0  0  0  0  0  0  0  0
   57.7950   31.6720   51.4110 C   0  0  0  0  0  0  0  0  0  0  0  0
   59.2810   31.3060   51.6090 C   0  0  0  0  0  0  0  0  0  0  0  0
   59.5680   29.8720   51.4240 N   0  0  0  0  0  0  0  0  0  0  0  0
   60.7560   29.5780   50.6070 C   0  0  0  0  0  0  0  0  0  0  0  0
   60.4890   29.7260   49.1030 C   0  0  0  0  0  0  0  0  0  0  0  0
   59.2060   30.3860   48.8500 N   0  0  0  0  0  0  0  0  0  0  0  0
   58.8740   30.9270   47.5560 C   0  0  0  0  0  0  0  0  0  0  0  0
   59.0440   32.3000   47.2940 C   0  0  0  0  0  0  0  0  0  0  0  0
   59.4260   33.1930   48.3190 C   0  0  0  0  0  0  0  0  0  0  0  0
   59.6700   34.5360   48.0410 C   0  0  0  0  0  0  0  0  0  0  0  0
   59.5380   35.0120   46.7440 C   0  0  0  0  0  0  0  0  0  0  0  0
   59.1140   34.1610   45.7250 C   0  0  0  0  0  0  0  0  0  0  0  0
   58.8060   32.8010   45.9860 C   0  0  0  0  0  0  0  0  0  0  0  0
   58.2960   31.9690   45.0050 N   0  0  0  0  0  0  0  0  0  0  0  0
   57.7830   32.5460   43.7410 C   0  0  0  0  0  0  0  0  0  0  0  0
   58.2230   30.6060   45.2210 C   0  0  0  0  0  0  0  0  0  0  0  0
   57.9430   29.7000   44.1650 C   0  0  0  0  0  0  0  0  0  0  0  0
   57.8210   28.3310   44.4030 C   0  0  0  0  0  0  0  0  0  0  0  0
   57.9780   27.8280   45.6880 C   0  0  0  0  0  0  0  0  0  0  0  0
   57.8100   25.9520   46.0080 Br  0  0  0  0  0  0  0  0  0  0  0  0
   58.2920   28.6870   46.7390 C   0  0  0  0  0  0  0  0  0  0  0  0
   58.4540   30.0730   46.5180 C   0  0  0  0  0  0  0  0  0  0  0  0
   59.8829   27.0858   54.6830 H   0  0  0  0  0  0  0  0  0  0  0  0
   59.3700   26.3199   53.1412 H   0  0  0  0  0  0  0  0  0  0  0  0
   60.0082   27.9990   53.1412 H   0  0  0  0  0  0  0  0  0  0  0  0
   57.2768   27.0163   53.6362 H   0  0  0  0  0  0  0  0  0  0  0  0
   57.8967   28.0932   54.9644 H   0  0  0  0  0  0  0  0  0  0  0  0
   58.4360   29.7380   53.2900 H   0  0  0  0  0  0  0  0  0  0  0  0
   57.8180   28.7220   52.0820 H   0  0  0  0  0  0  0  0  0  0  0  0
   55.6604   28.6887   53.3770 H   0  0  0  0  0  0  0  0  0  0  0  0
   56.3682   30.1119   54.2392 H   0  0  0  0  0  0  0  0  0  0  0  0
   55.0403   30.0385   51.6793 H   0  0  0  0  0  0  0  0  0  0  0  0
   55.7304   31.4500   52.5539 H   0  0  0  0  0  0  0  0  0  0  0  0
   57.7067   32.3334   50.5365 H   0  0  0  0  0  0  0  0  0  0  0  0
   57.4452   32.1703   52.3272 H   0  0  0  0  0  0  0  0  0  0  0  0
   59.8788   31.8763   50.8828 H   0  0  0  0  0  0  0  0  0  0  0  0
   59.5370   31.5533   52.6498 H   0  0  0  0  0  0  0  0  0  0  0  0
   58.7370   29.4040   50.9930 H   0  0  0  0  0  0  0  0  0  0  0  0
   61.5603   30.2722   50.8921 H   0  0  0  0  0  0  0  0  0  0  0  0
   61.0384   28.5314   50.7939 H   0  0  0  0  0  0  0  0  0  0  0  0
   61.2945   30.3255   48.6539 H   0  0  0  0  0  0  0  0  0  0  0  0
   60.4550   28.7210   48.6570 H   0  0  0  0  0  0  0  0  0  0  0  0
   58.4500   30.2790   49.5630 H   0  0  0  0  0  0  0  0  0  0  0  0
   59.5322   32.8236   49.3497 H   0  0  0  0  0  0  0  0  0  0  0  0
   59.9674   35.2196   48.8498 H   0  0  0  0  0  0  0  0  0  0  0  0
   59.7687   36.0639   46.5197 H   0  0  0  0  0  0  0  0  0  0  0  0
   59.0165   34.5505   44.7009 H   0  0  0  0  0  0  0  0  0  0  0  0
   57.0679   33.3503   43.9687 H   0  0  0  0  0  0  0  0  0  0  0  0
   58.6213   32.9549   43.1578 H   0  0  0  0  0  0  0  0  0  0  0  0
   57.2788   31.7614   43.1578 H   0  0  0  0  0  0  0  0  0  0  0  0
   57.8201   30.0839   43.1415 H   0  0  0  0  0  0  0  0  0  0  0  0
   57.5997   27.6474   43.5701 H   0  0  0  0  0  0  0  0  0  0  0  0
   58.4154   28.2809   47.7538 H   0  0  0  0  0  0  0  0  0  0  0  0
  1  2  1  0
  2  3  1  0
  3  4  1  0
  4  5  1  0
  5  6  1  0
  6  7  1  0
  7  8  1  0
  8  9  1  0
  9 10  1  0
 10 11  1  0
 11 12  1  0
 12 13  1  0
 13 14  2  0
 14 15  1  0
 15 16  2  0
 16 17  1  0
 17 18  2  0
 18 19  1  0
 19 20  2  0
 20 21  1  0
 20 22  1  0
 22 23  2  0
 23 24  1  0
 24 25  2  0
 25 26  1  0
 25 27  1  0
 27 28  2  0
 28 13  1  0
 19 14  1  0
 28 22  1  0
  1 29  1  0
  1 30  1  0
  1 31  1  0
  2 32  1  0
  2 33  1  0
  3 34  1  0
  3 35  1  0
  4 36  1  0
  4 37  1  0
  5 38  1  0
  5 39  1  0
  7 40  1  0
  7 41  1  0
  8 42  1  0
  8 43  1  0
  9 44  1  0
 10 45  1  0
 10 46  1  0
 11 47  1  0
 11 48  1  0
 12 49  1  0
 15 50  1  0
 16 51  1  0
 17 52  1  0
 18 53  1  0
 21 54  1  0
 21 55  1  0
 21 56  1  0
 23 57  1  0
 24 58  1  0
 27 59  1  0
M  CHG  2   3   1  20   1
M  END
>  <UniqueID>  (21) 
21

>  <SMILES>  (21) 
CC[NH2+]CCOCCNCCNc1c2ccccc2[n+](C)c2ccc(Br)cc12

>  <Energy>  (21) 
83.98979718222856

>  <Genealogy>  (21) 
CC[NH2+]CCOCCNCCNc1c2ccccc2[n+](C)c2ccc(Br)cc12 (protonated)
CC[NH2+]CCOCCNCCNc1c2ccccc2[n+](C)c2ccc(Br)cc12 (3D coordinates assigned)
CC[NH2+]CCOCCNCCNc1c2ccccc2[n+](C)c2ccc(Br)cc12 (optimized conformer: 83.98979718222856 kcal/mol)

>  <smiles>  (21) 
CCNCCOCCNCCNc1c2ccccc2[n+](C)c2ccc(Br)cc12

>  <score_type>  (21) 
oracle

>  <origin>  (21) 
adg

>  <m_score__min__energy>  (21) 
-3.8300000000000001

>  <m_primary>  (21) 
energy

$$$$
21:0
     RDKit          3D

 33 33  0  0  0  0  0  0  0  0999 V2000
   56.2880   29.7190   42.8040 C   0  0  0  0  0  0  0  0  0  0  0  0
   55.8460   30.4320   44.0830 C   0  0  0  0  0  0  0  0  0  0  0  0
   57.0020   30.8920   44.8890 N   0  0  0  0  0  0  0  0  0  0  0  0
   58.2530   30.2800   44.3830 C   0  0  0  0  0  0  0  0  0  0  0  0
   58.7820   29.2440   45.3720 C   0  0  0  0  0  0  0  0  0  0  0  0
   57.1050   32.3740   44.9140 C   0  0  0  0  0  0  0  0  0  0  0  0
   58.2360   32.8090   45.8100 C   0  0  0  0  0  0  0  0  0  0  0  0
   59.1410   33.7950   45.3810 C   0  0  0  0  0  0  0  0  0  0  0  0
   60.1780   34.2140   46.2180 C   0  0  0  0  0  0  0  0  0  0  0  0
   60.3120   33.6670   47.4990 C   0  0  0  0  0  0  0  0  0  0  0  0
   61.6450   34.2040   48.5720 S   0  0  0  0  0  0  0  0  0  0  0  0
   62.9470   33.5290   47.4940 C   0  0  0  0  0  0  0  0  0  0  0  0
   59.4060   32.6960   47.9390 C   0  0  0  0  0  0  0  0  0  0  0  0
   58.3680   32.2750   47.1030 C   0  0  0  0  0  0  0  0  0  0  0  0
   56.8509   28.8110   43.0662 H   0  0  0  0  0  0  0  0  0  0  0  0
   55.4021   29.4434   42.2130 H   0  0  0  0  0  0  0  0  0  0  0  0
   56.9289   30.3898   42.2130 H   0  0  0  0  0  0  0  0  0  0  0  0
   55.2336   31.3041   43.8101 H   0  0  0  0  0  0  0  0  0  0  0  0
   55.2712   29.7169   44.6898 H   0  0  0  0  0  0  0  0  0  0  0  0
   58.0516   29.7899   43.4190 H   0  0  0  0  0  0  0  0  0  0  0  0
   59.0088   31.0693   44.2577 H   0  0  0  0  0  0  0  0  0  0  0  0
   58.6035   29.5935   46.3996 H   0  0  0  0  0  0  0  0  0  0  0  0
   58.2619   28.2876   45.2144 H   0  0  0  0  0  0  0  0  0  0  0  0
   59.8617   29.1045   45.2144 H   0  0  0  0  0  0  0  0  0  0  0  0
   57.2895   32.7414   43.8937 H   0  0  0  0  0  0  0  0  0  0  0  0
   56.1634   32.7898   45.3020 H   0  0  0  0  0  0  0  0  0  0  0  0
   59.0322   34.2392   44.3806 H   0  0  0  0  0  0  0  0  0  0  0  0
   60.8909   34.9757   45.8693 H   0  0  0  0  0  0  0  0  0  0  0  0
   63.7546   33.1103   48.1125 H   0  0  0  0  0  0  0  0  0  0  0  0
   62.5233   32.7370   46.8590 H   0  0  0  0  0  0  0  0  0  0  0  0
   63.3500   34.3317   46.8590 H   0  0  0  0  0  0  0  0  0  0  0  0
   59.5108   32.2631   48.9448 H   0  0  0  0  0  0  0  0  0  0  0  0
   57.6503   31.5213   47.4593 H   0  0  0  0  0  0  0  0  0  0  0  0
  1  2  1  0
  2  3  1  0
  3  4  1  0
  4  5  1  0
  3  6  1  0
  6  7  1  0
  7  8  2  0
  8  9  1  0
  9 10  2  0
 10 11  1  0
 11 12  1  0
 10 13  1  0
 13 14  2  0
 14  7  1  0
  1 15  1  0
  1 16  1  0
  1 17  1  0
  2 18  1  0
  2 19  1  0
  4 20  1  0
  4 21  1  0
  5 22  1  0
  5 23  1  0
  5 24  1  0
  6 25  1  0
  6 26  1  0
  8 27  1  0
  9 28  1  0
 12 29  1  0
 12 30  1  0
 12 31  1  0
 13 32  1  0
 14 33  1  0
M  END
>  <UniqueID>  (22) 
22

>  <SMILES>  (22) 
CCN(CC)Cc1ccc(SC)cc1

>  <Energy>  (22) 
25.680410709870557

>  <Genealogy>  (22) 
CCN(CC)Cc1ccc(SC)cc1 (3D coordinates assigned)
CCN(CC)Cc1ccc(SC)cc1 (optimized conformer: 25.680410709870557 kcal/mol)

>  <smiles>  (22) 
CCN(CC)Cc1ccc(SC)cc1

>  <score_type>  (22) 
oracle

>  <origin>  (22) 
adg

>  <m_score__min__energy>  (22) 
-5.4500000000000002

>  <m_primary>  (22) 
energy

$$$$
22:0
     RDKit          3D

 60 63  0  0  0  0  0  0  0  0999 V2000
   59.2240   34.8690   47.4270 C   0  0  0  0  0  0  0  0  0  0  0  0
   59.7240   34.0510   46.3040 N   0  0  0  0  0  0  0  0  0  0  0  0
   59.2760   34.6080   45.0060 C   0  0  0  0  0  0  0  0  0  0  0  0
   57.7860   34.3070   44.7600 C   0  0  0  0  0  0  0  0  0  0  0  0
   57.3190   33.2750   45.6110 O   0  0  0  0  0  0  0  0  0  0  0  0
   57.0990   32.0830   44.8810 C   0  0  0  0  0  0  0  0  0  0  0  0
   57.8230   30.9150   45.5580 C   0  0  0  0  0  0  0  0  0  0  0  0
   58.7130   31.3320   46.6530 N   0  0  0  0  0  0  0  0  0  0  0  0
   59.2010   30.4520   47.6850 C   0  0  0  0  0  0  0  0  0  0  0  0
   59.7600   29.2090   47.3320 C   0  0  0  0  0  0  0  0  0  0  0  0
   59.8260   28.8080   45.9790 C   0  0  0  0  0  0  0  0  0  0  0  0
   60.3250   27.5560   45.6290 C   0  0  0  0  0  0  0  0  0  0  0  0
   60.7550   26.6800   46.6150 C   0  0  0  0  0  0  0  0  0  0  0  0
   60.7030   27.0540   47.9580 C   0  0  0  0  0  0  0  0  0  0  0  0
   60.2270   28.3330   48.3480 C   0  0  0  0  0  0  0  0  0  0  0  0
   60.1870   28.7210   49.6760 N   0  0  0  0  0  0  0  0  0  0  0  0
   60.8870   27.9180   50.7040 C   0  0  0  0  0  0  0  0  0  0  0  0
   59.5190   29.8770   50.0390 C   0  0  0  0  0  0  0  0  0  0  0  0
   59.2470   30.1860   51.3980 C   0  0  0  0  0  0  0  0  0  0  0  0
   58.6670   31.4020   51.7570 C   0  0  0  0  0  0  0  0  0  0  0  0
   58.3350   32.3340   50.7800 C   0  0  0  0  0  0  0  0  0  0  0  0
   58.5370   32.0350   49.4350 C   0  0  0  0  0  0  0  0  0  0  0  0
   59.0800   30.7920   49.0450 C   0  0  0  0  0  0  0  0  0  0  0  0
   61.2020   33.9870   46.3630 C   0  0  0  0  0  0  0  0  0  0  0  0
   61.6900   33.2380   47.5820 C   0  0  0  0  0  0  0  0  0  0  0  0
   61.8840   33.8890   48.8160 C   0  0  0  0  0  0  0  0  0  0  0  0
   62.4270   33.1950   49.9030 C   0  0  0  0  0  0  0  0  0  0  0  0
   62.8080   31.8580   49.7620 C   0  0  0  0  0  0  0  0  0  0  0  0
   62.6440   31.2120   48.5350 C   0  0  0  0  0  0  0  0  0  0  0  0
   62.0880   31.8960   47.4490 C   0  0  0  0  0  0  0  0  0  0  0  0
   59.5112   34.3991   48.3792 H   0  0  0  0  0  0  0  0  0  0  0  0
   59.6605   35.8770   47.3692 H   0  0  0  0  0  0  0  0  0  0  0  0
   58.1278   34.9402   47.3692 H   0  0  0  0  0  0  0  0  0  0  0  0
   59.4266   35.6976   45.0112 H   0  0  0  0  0  0  0  0  0  0  0  0
   59.8647   34.1409   44.2028 H   0  0  0  0  0  0  0  0  0  0  0  0
   57.2008   35.2190   44.9492 H   0  0  0  0  0  0  0  0  0  0  0  0
   57.6675   33.9759   43.7177 H   0  0  0  0  0  0  0  0  0  0  0  0
   56.0201   31.8715   44.8448 H   0  0  0  0  0  0  0  0  0  0  0  0
   57.4884   32.2070   43.8597 H   0  0  0  0  0  0  0  0  0  0  0  0
   57.0681   30.2267   45.9658 H   0  0  0  0  0  0  0  0  0  0  0  0
   58.4528   30.4374   44.7930 H   0  0  0  0  0  0  0  0  0  0  0  0
   59.1620   32.2740   46.5690 H   0  0  0  0  0  0  0  0  0  0  0  0
   59.4788   29.4935   45.1919 H   0  0  0  0  0  0  0  0  0  0  0  0
   60.3782   27.2615   44.5705 H   0  0  0  0  0  0  0  0  0  0  0  0
   61.1383   25.6871   46.3370 H   0  0  0  0  0  0  0  0  0  0  0  0
   61.0372   26.3443   48.7292 H   0  0  0  0  0  0  0  0  0  0  0  0
   60.5872   28.2620   51.7049 H   0  0  0  0  0  0  0  0  0  0  0  0
   60.6200   26.8575   50.5855 H   0  0  0  0  0  0  0  0  0  0  0  0
   61.9740   28.0379   50.5855 H   0  0  0  0  0  0  0  0  0  0  0  0
   59.4979   29.4543   52.1801 H   0  0  0  0  0  0  0  0  0  0  0  0
   58.4715   31.6247   52.8163 H   0  0  0  0  0  0  0  0  0  0  0  0
   57.9127   33.3076   51.0695 H   0  0  0  0  0  0  0  0  0  0  0  0
   58.2702   32.7764   48.6674 H   0  0  0  0  0  0  0  0  0  0  0  0
   61.5713   33.4763   45.4614 H   0  0  0  0  0  0  0  0  0  0  0  0
   61.5838   35.0169   46.4226 H   0  0  0  0  0  0  0  0  0  0  0  0
   61.6073   34.9480   48.9257 H   0  0  0  0  0  0  0  0  0  0  0  0
   62.5542   33.7029   50.8704 H   0  0  0  0  0  0  0  0  0  0  0  0
   63.2368   31.3148   50.6170 H   0  0  0  0  0  0  0  0  0  0  0  0
   62.9529   30.1623   48.4222 H   0  0  0  0  0  0  0  0  0  0  0  0
   61.9614   31.3811   46.4853 H   0  0  0  0  0  0  0  0  0  0  0  0
  1  2  1  0
  2  3  1  0
  3  4  1  0
  4  5  1  0
  5  6  1  0
  6  7  1  0
  7  8  1  0
  8  9  1  0
  9 10  1  0
 10 11  2  0
 11 12  1  0
 12 13  2  0
 13 14  1  0
 14 15  2  0
 15 16  1  0
 16 17  1  0
 16 18  2  0
 18 19  1  0
 19 20  2  0
 20 21  1  0
 21 22  2  0
 22 23  1  0
  2 24  1  0
 24 25  1  0
 25 26  2  0
 26 27  1  0
 27 28  2  0
 28 29  1  0
 29 30  2  0
 23  9  2  0
 30 25  1  0
 15 10  1  0
 23 18  1  0
  1 31  1  0
  1 32  1  0
  1 33  1  0
  3 34  1  0
  3 35  1  0
  4 36  1  0
  4 37  1  0
  6 38  1  0
  6 39  1  0
  7 40  1  0
  7 41  1  0
  8 42  1  0
 11 43  1  0
 12 44  1  0
 13 45  1  0
 14 46  1  0
 17 47  1  0
 17 48  1  0
 17 49  1  0
 19 50  1  0
 20 51  1  0
 21 52  1  0
 22 53  1  0
 24 54  1  0
 24 55  1  0
 26 56  1  0
 27 57  1  0
 28 58  1  0
 29 59  1  0
 30 60  1  0
M  CHG  1  16   1
M  END
>  <UniqueID>  (23) 
23

>  <SMILES>  (23) 
CN(CCOCCNc1c2ccccc2[n+](C)c2ccccc12)Cc1ccccc1

>  <Energy>  (23) 
86.7757495608101

>  <Genealogy>  (23) 
CN(CCOCCNc1c2ccccc2[n+](C)c2ccccc12)Cc1ccccc1 (3D coordinates assigned)
CN(CCOCCNc1c2ccccc2[n+](C)c2ccccc12)Cc1ccccc1 (optimized conformer: 86.7757495608101 kcal/mol)

>  <smiles>  (23) 
CN(CCOCCNc1c2ccccc2[n+](C)c2ccccc12)Cc1ccccc1

>  <score_type>  (23) 
oracle

>  <origin>  (23) 
adg

>  <m_score__min__energy>  (23) 
-6.6699999999999999

>  <m_primary>  (23) 
energy

$$$$
