0:0
     RDKit          3D

 52 54  0  0  0  0  0  0  0  0999 V2000
   66.7780   30.2730   51.2370 C   0  0  0  0  0  0  0  0  0  0  0  0
   65.3100   30.5400   51.5970 C   0  0  0  0  0  0  0  0  0  0  0  0
   64.9970   31.9920   51.7040 N   0  0  0  0  0  0  0  0  0  0  0  0
   65.8010   32.8010   50.7470 C   0  0  0  0  0  0  0  0  0  0  0  0
   65.1150   32.9940   49.3760 C   0  0  0  0  0  0  0  0  0  0  0  0
   64.1240   31.9290   49.1450 N   0  0  0  0  0  0  0  0  0  0  0  0
   63.6130   31.9410   47.7550 C   0  0  0  0  0  0  0  0  0  0  0  0
   62.5880   33.0330   47.5880 C   0  0  0  0  0  0  0  0  0  0  0  0
   62.9340   34.2380   47.7320 O   0  0  0  0  0  0  0  0  0  0  0  0
   61.2200   32.7260   47.2600 N   0  0  0  0  0  0  0  0  0  0  0  0
   60.5460   31.5370   47.7970 C   0  0  0  0  0  0  0  0  0  0  0  0
   59.8600   30.7870   46.6540 C   0  0  0  0  0  0  0  0  0  0  0  0
   59.0470   31.6950   45.8240 N   0  0  0  0  0  0  0  0  0  0  0  0
   58.1210   31.1400   44.8650 C   0  0  0  0  0  0  0  0  0  0  0  0
   57.3880   29.9750   45.1670 C   0  0  0  0  0  0  0  0  0  0  0  0
   56.4860   29.4440   44.2370 C   0  0  0  0  0  0  0  0  0  0  0  0
   56.3130   30.0580   42.9960 C   0  0  0  0  0  0  0  0  0  0  0  0
   57.0430   31.2060   42.6800 C   0  0  0  0  0  0  0  0  0  0  0  0
   57.9420   31.7460   43.6060 C   0  0  0  0  0  0  0  0  0  0  0  0
   59.0590   33.1430   46.0920 C   0  0  0  0  0  0  0  0  0  0  0  0
   60.4850   33.6380   46.3730 C   0  0  0  0  0  0  0  0  0  0  0  0
   63.0270   32.0240   50.1300 C   0  0  0  0  0  0  0  0  0  0  0  0
   63.5530   32.2950   51.5580 C   0  0  0  0  0  0  0  0  0  0  0  0
   67.3680   30.1657   52.1592 H   0  0  0  0  0  0  0  0  0  0  0  0
   66.8483   29.3473   50.6469 H   0  0  0  0  0  0  0  0  0  0  0  0
   67.1697   31.1146   50.6469 H   0  0  0  0  0  0  0  0  0  0  0  0
   64.6712   30.0993   50.8175 H   0  0  0  0  0  0  0  0  0  0  0  0
   65.1229   30.0874   52.5820 H   0  0  0  0  0  0  0  0  0  0  0  0
   65.2820   32.2980   52.6670 H   0  0  0  0  0  0  0  0  0  0  0  0
   65.9772   33.7919   51.1909 H   0  0  0  0  0  0  0  0  0  0  0  0
   66.7373   32.2527   50.5663 H   0  0  0  0  0  0  0  0  0  0  0  0
   64.6090   33.9705   49.3579 H   0  0  0  0  0  0  0  0  0  0  0  0
   65.8782   32.9499   48.5850 H   0  0  0  0  0  0  0  0  0  0  0  0
   64.4487   32.1177   47.0619 H   0  0  0  0  0  0  0  0  0  0  0  0
   63.1433   30.9707   47.5363 H   0  0  0  0  0  0  0  0  0  0  0  0
   61.2864   30.8795   48.2761 H   0  0  0  0  0  0  0  0  0  0  0  0
   59.7954   31.8426   48.5408 H   0  0  0  0  0  0  0  0  0  0  0  0
   60.6285   30.3172   46.0226 H   0  0  0  0  0  0  0  0  0  0  0  0
   59.1939   30.0278   47.0897 H   0  0  0  0  0  0  0  0  0  0  0  0
   57.5253   29.4796   46.1395 H   0  0  0  0  0  0  0  0  0  0  0  0
   55.9116   28.5394   44.4856 H   0  0  0  0  0  0  0  0  0  0  0  0
   55.6030   29.6387   42.2679 H   0  0  0  0  0  0  0  0  0  0  0  0
   56.9106   31.6872   41.6997 H   0  0  0  0  0  0  0  0  0  0  0  0
   58.5132   32.6503   43.3491 H   0  0  0  0  0  0  0  0  0  0  0  0
   58.6597   33.6745   45.2156 H   0  0  0  0  0  0  0  0  0  0  0  0
   58.4380   33.3409   46.9781 H   0  0  0  0  0  0  0  0  0  0  0  0
   61.0270   33.7192   45.4193 H   0  0  0  0  0  0  0  0  0  0  0  0
   60.4128   34.6144   46.8744 H   0  0  0  0  0  0  0  0  0  0  0  0
   62.3565   32.8452   49.8367 H   0  0  0  0  0  0  0  0  0  0  0  0
   62.4956   31.0610   50.1407 H   0  0  0  0  0  0  0  0  0  0  0  0
   63.3904   33.3563   51.7972 H   0  0  0  0  0  0  0  0  0  0  0  0
   63.0041   31.6339   52.2448 H   0  0  0  0  0  0  0  0  0  0  0  0
  1  2  1  0
  2  3  1  0
  3  4  1  0
  4  5  1  0
  5  6  1  0
  6  7  1  0
  7  8  1  0
  8  9  2  0
  8 10  1  0
 10 11  1  0
 11 12  1  0
 12 13  1  0
 13 14  1  0
 14 15  2  0
 15 16  1  0
 16 17  2  0
 17 18  1  0
 18 19  2  0
 13 20  1  0
 20 21  1  0
  6 22  1  0
 22 23  1  0
 23  3  1  0
 21 10  1  0
 19 14  1  0
  1 24  1  0
  1 25  1  0
  1 26  1  0
  2 27  1  0
  2 28  1  0
  3 29  1  0
  4 30  1  0
  4 31  1  0
  5 32  1  0
  5 33  1  0
  7 34  1  0
  7 35  1  0
 11 36  1  0
 11 37  1  0
 12 38  1  0
 12 39  1  0
 15 40  1  0
 16 41  1  0
 17 42  1  0
 18 43  1  0
 19 44  1  0
 20 45  1  0
 20 46  1  0
 21 47  1  0
 21 48  1  0
 22 49  1  0
 22 50  1  0
 23 51  1  0
 23 52  1  0
M  CHG  1   3   1
M  END
>  <UniqueID>  (1) 
1

>  <SMILES>  (1) 
CC[NH+]1CCN(CC(=O)N2CCN(c3ccccc3)CC2)CC1

>  <Energy>  (1) 
70.41771567886101

>  <Genealogy>  (1) 
CC[NH+]1CCN(CC(=O)N2CCN(c3ccccc3)CC2)CC1 (protonated)
CC[NH+]1CCN(CC(=O)N2CCN(c3ccccc3)CC2)CC1 (3D coordinates assigned)
CC[NH+]1CCN(CC(=O)N2CCN(c3ccccc3)CC2)CC1 (nonaromatic ring conformer: 70.41771567886101 kcal/mol)

>  <smiles>  (1) 
CCN1CCN(CC(=O)N2CCN(c3ccccc3)CC2)CC1

>  <score_type>  (1) 
oracle

>  <origin>  (1) 
adg

>  <m_score__min__energy>  (1) 
-6.0300000000000002

>  <m_primary>  (1) 
energy

$$$$
1:0
     RDKit          3D

 64 66  0  0  0  0  0  0  0  0999 V2000
   62.6620   30.2740   50.8520 C   0  0  0  0  0  0  0  0  0  0  0  0
   61.5120   30.9000   51.6550 C   0  0  0  0  0  0  0  0  0  0  0  0
   60.1540   30.6420   51.1030 N   0  0  0  0  0  0  0  0  0  0  0  0
   59.9890   29.2050   50.7440 C   0  0  0  0  0  0  0  0  0  0  0  0
   59.8340   29.0010   49.2290 C   0  0  0  0  0  0  0  0  0  0  0  0
   59.0550   31.0960   52.0000 C   0  0  0  0  0  0  0  0  0  0  0  0
   58.0630   32.0800   51.3330 C   0  0  0  0  0  0  0  0  0  0  0  0
   58.0850   32.0070   49.8580 N   0  0  0  0  0  0  0  0  0  0  0  0
   58.9740   33.0250   49.2720 C   0  0  0  0  0  0  0  0  0  0  0  0
   59.9050   32.4480   48.1690 C   0  0  2  0  0  0  0  0  0  0  0  0
   61.3960   32.6870   48.4130 C   0  0  0  0  0  0  0  0  0  0  0  0
   61.7760   33.5370   49.4650 C   0  0  0  0  0  0  0  0  0  0  0  0
   63.1240   33.7380   49.7700 C   0  0  0  0  0  0  0  0  0  0  0  0
   64.1230   33.0910   49.0390 C   0  0  0  0  0  0  0  0  0  0  0  0
   65.4610   33.3170   49.3900 O   0  0  0  0  0  0  0  0  0  0  0  0
   66.2270   32.4670   50.2370 C   0  0  0  0  0  0  0  0  0  0  0  0
   63.7550   32.2350   47.9860 C   0  0  0  0  0  0  0  0  0  0  0  0
   62.4060   32.0300   47.6810 C   0  0  0  0  0  0  0  0  0  0  0  0
   59.4540   32.8600   46.7590 C   0  0  0  0  0  0  0  0  0  0  0  0
   59.4770   34.2260   46.4080 C   0  0  0  0  0  0  0  0  0  0  0  0
   59.0330   34.6640   45.1670 C   0  0  0  0  0  0  0  0  0  0  0  0
   58.5280   33.7620   44.2430 C   0  0  0  0  0  0  0  0  0  0  0  0
   58.4430   32.3900   44.5490 C   0  0  0  0  0  0  0  0  0  0  0  0
   57.8920   31.4700   43.6160 C   0  0  0  0  0  0  0  0  0  0  0  0
   57.4040   31.9020   42.2540 C   0  0  0  0  0  0  0  0  0  0  0  0
   57.7780   30.1180   43.9660 C   0  0  0  0  0  0  0  0  0  0  0  0
   58.2150   29.6670   45.2060 C   0  0  0  0  0  0  0  0  0  0  0  0
   58.7770   30.5510   46.1220 C   0  0  0  0  0  0  0  0  0  0  0  0
   58.9030   31.9270   45.8230 C   0  0  0  0  0  0  0  0  0  0  0  0
   63.4127   29.8653   51.5444 H   0  0  0  0  0  0  0  0  0  0  0  0
   62.2690   29.4653   50.2183 H   0  0  0  0  0  0  0  0  0  0  0  0
   63.1278   31.0430   50.2183 H   0  0  0  0  0  0  0  0  0  0  0  0
   61.5485   30.4958   52.6774 H   0  0  0  0  0  0  0  0  0  0  0  0
   61.6618   31.9890   51.6139 H   0  0  0  0  0  0  0  0  0  0  0  0
   60.1000   31.1900   50.2120 H   0  0  0  0  0  0  0  0  0  0  0  0
   60.8742   28.6498   51.0878 H   0  0  0  0  0  0  0  0  0  0  0  0
   59.0733   28.8377   51.2303 H   0  0  0  0  0  0  0  0  0  0  0  0
   59.1784   28.1381   49.0404 H   0  0  0  0  0  0  0  0  0  0  0  0
   59.3912   29.9028   48.7810 H   0  0  0  0  0  0  0  0  0  0  0  0
   60.8215   28.8161   48.7810 H   0  0  0  0  0  0  0  0  0  0  0  0
   58.4929   30.2112   52.3334 H   0  0  0  0  0  0  0  0  0  0  0  0
   59.5275   31.6367   52.8333 H   0  0  0  0  0  0  0  0  0  0  0  0
   57.0466   31.8435   51.6810 H   0  0  0  0  0  0  0  0  0  0  0  0
   58.3666   33.0983   51.6176 H   0  0  0  0  0  0  0  0  0  0  0  0
   58.3790   31.0500   49.5590 H   0  0  0  0  0  0  0  0  0  0  0  0
   58.3551   33.8194   48.8295 H   0  0  0  0  0  0  0  0  0  0  0  0
   59.6150   33.4093   50.0791 H   0  0  0  0  0  0  0  0  0  0  0  0
   59.7920   31.3559   48.2356 H   0  0  0  0  0  0  0  0  0  0  0  0
   61.0027   34.0503   50.0554 H   0  0  0  0  0  0  0  0  0  0  0  0
   63.4016   34.4122   50.5937 H   0  0  0  0  0  0  0  0  0  0  0  0
   66.0112   32.7064   51.2887 H   0  0  0  0  0  0  0  0  0  0  0  0
   65.9636   31.4176   50.0384 H   0  0  0  0  0  0  0  0  0  0  0  0
   67.2980   32.6201   50.0384 H   0  0  0  0  0  0  0  0  0  0  0  0
   64.5324   31.7240   47.3991 H   0  0  0  0  0  0  0  0  0  0  0  0
   62.1301   31.3495   46.8620 H   0  0  0  0  0  0  0  0  0  0  0  0
   59.8552   34.9611   47.1337 H   0  0  0  0  0  0  0  0  0  0  0  0
   59.0823   35.7337   44.9155 H   0  0  0  0  0  0  0  0  0  0  0  0
   58.1900   34.1220   43.2601 H   0  0  0  0  0  0  0  0  0  0  0  0
   56.5850   32.6270   42.3709 H   0  0  0  0  0  0  0  0  0  0  0  0
   58.2311   32.3694   41.6994 H   0  0  0  0  0  0  0  0  0  0  0  0
   57.0404   31.0244   41.6994 H   0  0  0  0  0  0  0  0  0  0  0  0
   57.3381   29.4062   43.2520 H   0  0  0  0  0  0  0  0  0  0  0  0
   58.1158   28.6026   45.4653 H   0  0  0  0  0  0  0  0  0  0  0  0
   59.1286   30.1734   47.0935 H   0  0  0  0  0  0  0  0  0  0  0  0
  1  2  1  0
  2  3  1  0
  3  4  1  0
  4  5  1  0
  3  6  1  0
  6  7  1  0
  7  8  1  0
  8  9  1  0
  9 10  1  0
 10 11  1  0
 11 12  2  0
 12 13  1  0
 13 14  2  0
 14 15  1  0
 15 16  1  0
 14 17  1  0
 17 18  2  0
 10 19  1  0
 19 20  2  0
 20 21  1  0
 21 22  2  0
 22 23  1  0
 23 24  2  0
 24 25  1  0
 24 26  1  0
 26 27  2  0
 27 28  1  0
 28 29  2  0
 18 11  1  0
 29 19  1  0
 29 23  1  0
  1 30  1  0
  1 31  1  0
  1 32  1  0
  2 33  1  0
  2 34  1  0
  3 35  1  0
  4 36  1  0
  4 37  1  0
  5 38  1  0
  5 39  1  0
  5 40  1  0
  6 41  1  0
  6 42  1  0
  7 43  1  0
  7 44  1  0
  8 45  1  0
  9 46  1  0
  9 47  1  0
 10 48  1  6
 12 49  1  0
 13 50  1  0
 16 51  1  0
 16 52  1  0
 16 53  1  0
 17 54  1  0
 18 55  1  0
 20 56  1  0
 21 57  1  0
 22 58  1  0
 25 59  1  0
 25 60  1  0
 25 61  1  0
 26 62  1  0
 27 63  1  0
 28 64  1  0
M  CHG  1   3   1
M  END
>  <UniqueID>  (2) 
2

>  <SMILES>  (2) 
CC[NH+](CC)CCNC[C@H](c1ccc(OC)cc1)c1cccc2c(C)cccc12

>  <Energy>  (2) 
81.01306549149473

>  <Genealogy>  (2) 
CC[NH+](CC)CCNCC(c1ccc(OC)cc1)c1cccc2c(C)cccc12 (protonated)
CC[NH+](CC)CCNC[C@H](c1ccc(OC)cc1)c1cccc2c(C)cccc12 (chirality)
CC[NH+](CC)CCNC[C@H](c1ccc(OC)cc1)c1cccc2c(C)cccc12 (3D coordinates assigned)
CC[NH+](CC)CCNC[C@H](c1ccc(OC)cc1)c1cccc2c(C)cccc12 (optimized conformer: 81.01306549149473 kcal/mol)

>  <smiles>  (2) 
CCN(CC)CCNCC(c1ccc(OC)cc1)c1cccc2c(C)cccc12

>  <score_type>  (2) 
oracle

>  <origin>  (2) 
adg

>  <m_score__min__energy>  (2) 
-6.3099999999999996

>  <m_primary>  (2) 
energy

$$$$
2:0
     RDKit          3D

 56 60  0  0  0  0  0  0  0  0999 V2000
   55.9850   30.8330   51.9930 C   0  0  0  0  0  0  0  0  0  0  0  0
   57.3360   30.7790   52.3960 O   0  0  0  0  0  0  0  0  0  0  0  0
   58.0370   31.9220   51.9420 C   0  0  0  0  0  0  0  0  0  0  0  0
   57.7660   32.1810   50.4570 C   0  0  0  0  0  0  0  0  0  0  0  0
   59.0030   32.1540   49.6640 N   0  0  0  0  0  0  0  0  0  0  0  0
   59.2490   31.0860   48.7330 C   0  0  0  0  0  0  0  0  0  0  0  0
   58.9840   31.2710   47.3730 C   0  0  0  0  0  0  0  0  0  0  0  0
   58.5270   32.3310   46.5980 C   0  0  0  0  0  0  0  0  0  0  0  0
   58.1340   33.6350   46.9160 C   0  0  0  0  0  0  0  0  0  0  0  0
   57.7480   34.4900   45.8700 C   0  0  0  0  0  0  0  0  0  0  0  0
   57.7520   34.0370   44.5370 C   0  0  0  0  0  0  0  0  0  0  0  0
   58.1450   32.7240   44.2330 C   0  0  0  0  0  0  0  0  0  0  0  0
   58.5290   31.8900   45.2840 C   0  0  0  0  0  0  0  0  0  0  0  0
   58.9580   30.6170   45.1700 N   0  0  0  0  0  0  0  0  0  0  0  0
   59.2450   30.2180   46.4290 C   0  0  0  0  0  0  0  0  0  0  0  0
   59.7630   29.0000   46.8490 C   0  0  0  0  0  0  0  0  0  0  0  0
   60.0260   27.9570   45.9440 C   0  0  0  0  0  0  0  0  0  0  0  0
   60.5510   26.7500   46.3960 C   0  0  0  0  0  0  0  0  0  0  0  0
   60.8210   26.5690   47.7490 C   0  0  0  0  0  0  0  0  0  0  0  0
   60.5670   27.5930   48.6640 C   0  0  0  0  0  0  0  0  0  0  0  0
   60.0290   28.8380   48.2440 C   0  0  0  0  0  0  0  0  0  0  0  0
   59.7730   29.8690   49.1510 N   0  0  0  0  0  0  0  0  0  0  0  0
   60.0660   29.6530   50.5850 C   0  0  0  0  0  0  0  0  0  0  0  0
   60.0980   33.5080   49.6970 S   0  0  0  0  0  0  0  0  0  0  0  0
   59.3910   34.7420   49.2080 O   0  0  0  0  0  0  0  0  0  0  0  0
   60.5580   33.7640   51.1050 O   0  0  0  0  0  0  0  0  0  0  0  0
   61.5000   33.1760   48.6900 C   0  0  0  0  0  0  0  0  0  0  0  0
   62.4490   32.2290   49.1070 C   0  0  0  0  0  0  0  0  0  0  0  0
   63.5360   31.9170   48.2850 C   0  0  0  0  0  0  0  0  0  0  0  0
   63.6830   32.5490   47.0480 C   0  0  0  0  0  0  0  0  0  0  0  0
   62.7410   33.4940   46.6290 C   0  0  0  0  0  0  0  0  0  0  0  0
   61.6520   33.8090   47.4480 C   0  0  0  0  0  0  0  0  0  0  0  0
   55.3379   30.8589   52.8821 H   0  0  0  0  0  0  0  0  0  0  0  0
   55.8178   31.7385   51.3913 H   0  0  0  0  0  0  0  0  0  0  0  0
   55.7460   29.9437   51.3913 H   0  0  0  0  0  0  0  0  0  0  0  0
   57.7128   32.7971   52.5243 H   0  0  0  0  0  0  0  0  0  0  0  0
   59.1147   31.7467   52.0752 H   0  0  0  0  0  0  0  0  0  0  0  0
   57.0836   31.4054   50.0790 H   0  0  0  0  0  0  0  0  0  0  0  0
   57.3194   33.1816   50.3602 H   0  0  0  0  0  0  0  0  0  0  0  0
   58.1273   33.9828   47.9596 H   0  0  0  0  0  0  0  0  0  0  0  0
   57.4401   35.5219   46.0945 H   0  0  0  0  0  0  0  0  0  0  0  0
   57.4451   34.7165   43.7282 H   0  0  0  0  0  0  0  0  0  0  0  0
   58.1501   32.3622   43.1942 H   0  0  0  0  0  0  0  0  0  0  0  0
   59.0600   30.0780   44.2820 H   0  0  0  0  0  0  0  0  0  0  0  0
   59.8158   28.0956   44.8732 H   0  0  0  0  0  0  0  0  0  0  0  0
   60.7529   25.9376   45.6824 H   0  0  0  0  0  0  0  0  0  0  0  0
   61.2372   25.6132   48.1001 H   0  0  0  0  0  0  0  0  0  0  0  0
   60.7878   27.4321   49.7295 H   0  0  0  0  0  0  0  0  0  0  0  0
   59.3295   30.1959   51.1956 H   0  0  0  0  0  0  0  0  0  0  0  0
   60.0102   28.5783   50.8128 H   0  0  0  0  0  0  0  0  0  0  0  0
   61.0761   30.0242   50.8128 H   0  0  0  0  0  0  0  0  0  0  0  0
   62.3371   31.7318   50.0818 H   0  0  0  0  0  0  0  0  0  0  0  0
   64.2766   31.1727   48.6129 H   0  0  0  0  0  0  0  0  0  0  0  0
   64.5398   32.3034   46.4033 H   0  0  0  0  0  0  0  0  0  0  0  0
   62.8568   33.9901   45.6541 H   0  0  0  0  0  0  0  0  0  0  0  0
   60.9137   34.5544   47.1174 H   0  0  0  0  0  0  0  0  0  0  0  0
  1  2  1  0
  2  3  1  0
  3  4  1  0
  4  5  1  0
  5  6  1  0
  6  7  2  0
  7  8  1  0
  8  9  2  0
  9 10  1  0
 10 11  2  0
 11 12  1  0
 12 13  2  0
 13 14  1  0
 14 15  2  0
 15 16  1  0
 16 17  2  0
 17 18  1  0
 18 19  2  0
 19 20  1  0
 20 21  2  0
 21 22  1  0
 22 23  1  0
  5 24  1  0
 24 25  2  0
 24 26  2  0
 24 27  1  0
 27 28  2  0
 28 29  1  0
 29 30  2  0
 30 31  1  0
 31 32  2  0
 22  6  1  0
 32 27  1  0
 15  7  1  0
 21 16  1  0
 13  8  1  0
  1 33  1  0
  1 34  1  0
  1 35  1  0
  3 36  1  0
  3 37  1  0
  4 38  1  0
  4 39  1  0
  9 40  1  0
 10 41  1  0
 11 42  1  0
 12 43  1  0
 14 44  1  0
 17 45  1  0
 18 46  1  0
 19 47  1  0
 20 48  1  0
 23 49  1  0
 23 50  1  0
 23 51  1  0
 28 52  1  0
 29 53  1  0
 30 54  1  0
 31 55  1  0
 32 56  1  0
M  CHG  1  14   1
M  END
>  <UniqueID>  (3) 
3

>  <SMILES>  (3) 
COCCN(c1c2c3ccccc3[nH+]c-2c2ccccc2n1C)S(=O)(=O)c1ccccc1

>  <Energy>  (3) 
117.71159597794447

>  <Genealogy>  (3) 
COCCN(c1c2c3ccccc3[nH+]c-2c2ccccc2n1C)S(=O)(=O)c1ccccc1 (protonated)
COCCN(c1c2c3ccccc3[nH+]c-2c2ccccc2n1C)S(=O)(=O)c1ccccc1 (3D coordinates assigned)
COCCN(c1c2c3ccccc3[nH+]c-2c2ccccc2n1C)S(=O)(=O)c1ccccc1 (optimized conformer: 117.71159597794447 kcal/mol)

>  <smiles>  (3) 
COCCN(c1c2c3ccccc3nc-2c2ccccc2n1C)S(=O)(=O)c1ccccc1

>  <score_type>  (3) 
oracle

>  <origin>  (3) 
adg

>  <m_score__min__energy>  (3) 
-7.3700000000000001

>  <m_primary>  (3) 
energy

$$$$
3:0
     RDKit          3D

 51 53  0  0  0  0  0  0  0  0999 V2000
   60.7590   28.9820   45.1250 C   0  0  0  0  0  0  0  0  0  0  0  0
   59.3250   28.4650   45.3240 C   0  0  0  0  0  0  0  0  0  0  0  0
   58.4580   28.5360   44.1200 N   0  0  0  0  0  0  0  0  0  0  0  0
   57.8440   27.2300   43.7830 C   0  0  0  0  0  0  0  0  0  0  0  0
   58.1370   26.7760   42.3490 C   0  0  0  0  0  0  0  0  0  0  0  0
   57.2850   29.8430   44.2310 S   0  0  0  0  0  0  0  0  0  0  0  0
   56.6140   30.0130   42.8960 O   0  0  0  0  0  0  0  0  0  0  0  0
   56.2130   29.4740   45.2180 O   0  0  0  0  0  0  0  0  0  0  0  0
   57.9770   31.3950   44.7180 C   0  0  0  0  0  0  0  0  0  0  0  0
   57.9480   32.4880   43.8410 C   0  0  0  0  0  0  0  0  0  0  0  0
   58.4560   33.7260   44.2420 C   0  0  0  0  0  0  0  0  0  0  0  0
   58.9850   33.8940   45.5250 C   0  0  0  0  0  0  0  0  0  0  0  0
   59.6490   35.4670   45.9560 Cl  0  0  0  0  0  0  0  0  0  0  0  0
   59.0090   32.8050   46.4210 C   0  0  0  0  0  0  0  0  0  0  0  0
   59.5290   32.9410   47.7970 C   0  0  0  0  0  0  0  0  0  0  0  0
   58.7290   32.9030   48.7700 O   0  0  0  0  0  0  0  0  0  0  0  0
   60.9380   33.0720   48.0390 N   0  0  0  0  0  0  0  0  0  0  0  0
   61.4450   33.7230   49.2610 C   0  0  0  0  0  0  0  0  0  0  0  0
   62.9820   33.5650   49.2980 C   0  0  1  0  0  0  0  0  0  0  0  0
   63.3080   32.0510   49.2700 C   0  0  0  0  0  0  0  0  0  0  0  0
   62.6850   31.3800   48.0120 C   0  0  0  0  0  0  0  0  0  0  0  0
   61.9370   32.4330   47.1670 C   0  0  2  0  0  0  0  0  0  0  0  0
   62.9460   33.5260   46.7490 C   0  0  0  0  0  0  0  0  0  0  0  0
   63.5560   34.2020   48.0090 C   0  0  0  0  0  0  0  0  0  0  0  0
   58.4960   31.5640   46.0090 C   0  0  0  0  0  0  0  0  0  0  0  0
   61.2273   29.1508   46.1059 H   0  0  0  0  0  0  0  0  0  0  0  0
   61.3425   28.2376   44.5634 H   0  0  0  0  0  0  0  0  0  0  0  0
   60.7333   29.9275   44.5634 H   0  0  0  0  0  0  0  0  0  0  0  0
   59.3826   27.4133   45.6411 H   0  0  0  0  0  0  0  0  0  0  0  0
   58.8628   29.1234   46.0742 H   0  0  0  0  0  0  0  0  0  0  0  0
   59.0940   28.8000   43.3310 H   0  0  0  0  0  0  0  0  0  0  0  0
   58.2348   26.4709   44.4766 H   0  0  0  0  0  0  0  0  0  0  0  0
   56.7541   27.3493   43.8713 H   0  0  0  0  0  0  0  0  0  0  0  0
   58.7334   25.8520   42.3716 H   0  0  0  0  0  0  0  0  0  0  0  0
   57.1893   26.5881   41.8230 H   0  0  0  0  0  0  0  0  0  0  0  0
   58.6986   27.5621   41.8230 H   0  0  0  0  0  0  0  0  0  0  0  0
   57.5236   32.3705   42.8330 H   0  0  0  0  0  0  0  0  0  0  0  0
   58.4396   34.5751   43.5429 H   0  0  0  0  0  0  0  0  0  0  0  0
   61.1818   34.7910   49.2492 H   0  0  0  0  0  0  0  0  0  0  0  0
   60.9963   33.2570   50.1507 H   0  0  0  0  0  0  0  0  0  0  0  0
   63.4057   34.0405   50.1948 H   0  0  0  0  0  0  0  0  0  0  0  0
   64.3995   31.9166   49.2483 H   0  0  0  0  0  0  0  0  0  0  0  0
   62.8845   31.5803   50.1695 H   0  0  0  0  0  0  0  0  0  0  0  0
   63.4846   30.9284   47.4065 H   0  0  0  0  0  0  0  0  0  0  0  0
   61.9748   30.6033   48.3318 H   0  0  0  0  0  0  0  0  0  0  0  0
   61.4717   31.9674   46.2857 H   0  0  0  0  0  0  0  0  0  0  0  0
   63.7517   33.0692   46.1555 H   0  0  0  0  0  0  0  0  0  0  0  0
   62.4241   34.2868   46.1500 H   0  0  0  0  0  0  0  0  0  0  0  0
   64.6482   34.0721   47.9965 H   0  0  0  0  0  0  0  0  0  0  0  0
   63.3011   35.2720   47.9971 H   0  0  0  0  0  0  0  0  0  0  0  0
   58.5016   30.7146   46.7079 H   0  0  0  0  0  0  0  0  0  0  0  0
  1  2  1  0
  2  3  1  0
  3  4  1  0
  4  5  1  0
  3  6  1  0
  6  7  2  0
  6  8  2  0
  6  9  1  0
  9 10  2  0
 10 11  1  0
 11 12  2  0
 12 13  1  0
 12 14  1  0
 14 15  1  0
 15 16  2  0
 15 17  1  0
 17 18  1  0
 18 19  1  0
 19 20  1  0
 20 21  1  0
 21 22  1  0
 22 23  1  0
 23 24  1  0
 14 25  2  0
 25  9  1  0
 22 17  1  0
 24 19  1  0
  1 26  1  0
  1 27  1  0
  1 28  1  0
  2 29  1  0
  2 30  1  0
  3 31  1  0
  4 32  1  0
  4 33  1  0
  5 34  1  0
  5 35  1  0
  5 36  1  0
 10 37  1  0
 11 38  1  0
 18 39  1  0
 18 40  1  0
 19 41  1  1
 20 42  1  0
 20 43  1  0
 21 44  1  0
 21 45  1  0
 22 46  1  6
 23 47  1  0
 23 48  1  0
 24 49  1  0
 24 50  1  0
 25 51  1  0
M  CHG  1   3   1
M  END
>  <UniqueID>  (4) 
4

>  <SMILES>  (4) 
CC[NH+](CC)S(=O)(=O)c1ccc(Cl)c(C(=O)N2CC3CCC2CC3)c1

>  <Energy>  (4) 
67.2159421572504

>  <Genealogy>  (4) 
CC[NH+](CC)S(=O)(=O)c1ccc(Cl)c(C(=O)N2CC3CCC2CC3)c1 (protonated)
CC[NH+](CC)S(=O)(=O)c1ccc(Cl)c(C(=O)N2CC3CCC2CC3)c1 (3D coordinates assigned)
CC[NH+](CC)S(=O)(=O)c1ccc(Cl)c(C(=O)N2CC3CCC2CC3)c1 (nonaromatic ring conformer: 67.2159421572504 kcal/mol)

>  <smiles>  (4) 
CCN(CC)S(=O)(=O)c1ccc(Cl)c(C(=O)N2CC3CCC2CC3)c1

>  <score_type>  (4) 
oracle

>  <origin>  (4) 
adg

>  <m_score__min__energy>  (4) 
-8.2599999999999998

>  <m_primary>  (4) 
energy

$$$$
4:0
     RDKit          3D

 45 47  0  0  0  0  0  0  0  0999 V2000
   56.2010   24.6720   46.4650 C   0  0  0  0  0  0  0  0  0  0  0  0
   57.3890   25.2800   47.2240 C   0  0  0  0  0  0  0  0  0  0  0  0
   57.8790   26.5600   46.6570 N   0  0  0  0  0  0  0  0  0  0  0  0
   58.5240   27.4700   47.6310 C   0  0  0  0  0  0  0  0  0  0  0  0
   60.0090   27.1540   47.8060 C   0  0  0  0  0  0  0  0  0  0  0  0
   58.6950   26.3680   45.4350 C   0  0  0  0  0  0  0  0  0  0  0  0
   57.8970   26.8080   44.2050 C   0  0  0  0  0  0  0  0  0  0  0  0
   58.3640   28.1020   43.7030 N   0  0  0  0  0  0  0  0  0  0  0  0
   58.5830   29.2620   44.5330 C   0  0  0  0  0  0  0  0  0  0  0  0
   59.7860   29.4270   45.2350 C   0  0  0  0  0  0  0  0  0  0  0  0
   59.9900   30.5490   46.0440 C   0  0  0  0  0  0  0  0  0  0  0  0
   61.4380   30.7250   46.8810 S   0  0  0  0  0  0  0  0  0  0  0  0
   61.4790   32.1390   47.7930 C   0  0  0  0  0  0  0  0  0  0  0  0
   62.6100   32.4480   48.5560 C   0  0  0  0  0  0  0  0  0  0  0  0
   62.6420   33.6190   49.3110 C   0  0  0  0  0  0  0  0  0  0  0  0
   61.5480   34.4810   49.3040 C   0  0  0  0  0  0  0  0  0  0  0  0
   60.4150   34.1760   48.5430 C   0  0  0  0  0  0  0  0  0  0  0  0
   60.3520   32.9950   47.7670 C   0  0  0  0  0  0  0  0  0  0  0  0
   59.1810   32.7100   46.9980 C   0  0  0  0  0  0  0  0  0  0  0  0
   58.2310   33.5440   47.0460 O   0  0  0  0  0  0  0  0  0  0  0  0
   59.0040   31.5490   46.1760 C   0  0  0  0  0  0  0  0  0  0  0  0
   57.7990   31.3730   45.4600 C   0  0  0  0  0  0  0  0  0  0  0  0
   57.5880   30.2510   44.6500 C   0  0  0  0  0  0  0  0  0  0  0  0
   55.8930   30.0930   43.7660 Br  0  0  0  0  0  0  0  0  0  0  0  0
   55.4609   24.2932   47.1852 H   0  0  0  0  0  0  0  0  0  0  0  0
   55.7363   25.4431   45.8330 H   0  0  0  0  0  0  0  0  0  0  0  0
   56.5547   23.8441   45.8330 H   0  0  0  0  0  0  0  0  0  0  0  0
   57.0792   25.4591   48.2642 H   0  0  0  0  0  0  0  0  0  0  0  0
   58.2174   24.5605   47.1452 H   0  0  0  0  0  0  0  0  0  0  0  0
   58.4200   28.5052   47.2740 H   0  0  0  0  0  0  0  0  0  0  0  0
   58.0289   27.3356   48.6041 H   0  0  0  0  0  0  0  0  0  0  0  0
   60.2491   27.1029   48.8783 H   0  0  0  0  0  0  0  0  0  0  0  0
   60.2364   26.1874   47.3329 H   0  0  0  0  0  0  0  0  0  0  0  0
   60.6103   27.9443   47.3329 H   0  0  0  0  0  0  0  0  0  0  0  0
   59.6124   26.9704   45.5099 H   0  0  0  0  0  0  0  0  0  0  0  0
   58.9574   25.3043   45.3366 H   0  0  0  0  0  0  0  0  0  0  0  0
   58.0136   26.0532   43.4133 H   0  0  0  0  0  0  0  0  0  0  0  0
   56.8405   26.9085   44.4942 H   0  0  0  0  0  0  0  0  0  0  0  0
   58.4930   28.1850   42.6700 H   0  0  0  0  0  0  0  0  0  0  0  0
   60.5762   28.6667   45.1483 H   0  0  0  0  0  0  0  0  0  0  0  0
   63.4738   31.7670   48.5601 H   0  0  0  0  0  0  0  0  0  0  0  0
   63.5306   33.8623   49.9120 H   0  0  0  0  0  0  0  0  0  0  0  0
   61.5753   35.4055   49.8995 H   0  0  0  0  0  0  0  0  0  0  0  0
   59.5584   34.8661   48.5480 H   0  0  0  0  0  0  0  0  0  0  0  0
   57.0092   32.1344   45.5408 H   0  0  0  0  0  0  0  0  0  0  0  0
  1  2  1  0
  2  3  1  0
  3  4  1  0
  4  5  1  0
  3  6  1  0
  6  7  1  0
  7  8  1  0
  8  9  1  0
  9 10  2  0
 10 11  1  0
 11 12  1  0
 12 13  1  0
 13 14  2  0
 14 15  1  0
 15 16  2  0
 16 17  1  0
 17 18  2  0
 18 19  1  0
 19 20  2  0
 19 21  1  0
 21 22  1  0
 22 23  2  0
 23 24  1  0
 23  9  1  0
 21 11  2  0
 18 13  1  0
  1 25  1  0
  1 26  1  0
  1 27  1  0
  2 28  1  0
  2 29  1  0
  4 30  1  0
  4 31  1  0
  5 32  1  0
  5 33  1  0
  5 34  1  0
  6 35  1  0
  6 36  1  0
  7 37  1  0
  7 38  1  0
  8 39  1  0
 10 40  1  0
 14 41  1  0
 15 42  1  0
 16 43  1  0
 17 44  1  0
 22 45  1  0
M  END
>  <UniqueID>  (5) 
5

>  <SMILES>  (5) 
CCN(CC)CCNc1cc2sc3ccccc3c(=O)c2cc1Br

>  <Energy>  (5) 
60.3328526153137

>  <Genealogy>  (5) 
CCN(CC)CCNc1cc2sc3ccccc3c(=O)c2cc1Br (3D coordinates assigned)
CCN(CC)CCNc1cc2sc3ccccc3c(=O)c2cc1Br (optimized conformer: 60.3328526153137 kcal/mol)

>  <smiles>  (5) 
CCN(CC)CCNc1cc2sc3ccccc3c(=O)c2cc1Br

>  <score_type>  (5) 
oracle

>  <origin>  (5) 
adg

>  <m_score__min__energy>  (5) 
-7.8499999999999996

>  <m_primary>  (5) 
energy

$$$$
5:0
     RDKit          3D

 46 48  0  0  0  0  0  0  0  0999 V2000
   56.0900   24.0890   44.4810 C   0  0  0  0  0  0  0  0  0  0  0  0
   55.9210   25.1660   45.5500 C   0  0  0  0  0  0  0  0  0  0  0  0
   56.7830   26.3310   45.2450 N   0  0  0  0  0  0  0  0  0  0  0  0
   57.1090   27.0880   46.4760 C   0  0  0  0  0  0  0  0  0  0  0  0
   58.4040   26.5660   47.0900 C   0  0  0  0  0  0  0  0  0  0  0  0
   58.0130   25.9150   44.5320 C   0  0  0  0  0  0  0  0  0  0  0  0
   58.6200   27.1140   43.7820 C   0  0  0  0  0  0  0  0  0  0  0  0
   57.5910   28.0530   43.3050 N   0  0  0  0  0  0  0  0  0  0  0  0
   57.7030   29.3380   43.9530 C   0  0  0  0  0  0  0  0  0  0  0  0
   56.7490   30.3410   43.7110 C   0  0  0  0  0  0  0  0  0  0  0  0
   56.8370   31.5780   44.3560 C   0  0  0  0  0  0  0  0  0  0  0  0
   57.8840   31.8330   45.2580 C   0  0  0  0  0  0  0  0  0  0  0  0
   58.0100   33.0610   45.9310 C   0  0  0  0  0  0  0  0  0  0  0  0
   57.1690   33.9840   45.7370 O   0  0  0  0  0  0  0  0  0  0  0  0
   59.0790   33.2490   46.8240 C   0  0  0  0  0  0  0  0  0  0  0  0
   59.2620   34.4530   47.5310 C   0  0  0  0  0  0  0  0  0  0  0  0
   60.3400   34.5940   48.4100 C   0  0  0  0  0  0  0  0  0  0  0  0
   61.2410   33.5420   48.5910 C   0  0  0  0  0  0  0  0  0  0  0  0
   61.0720   32.3430   47.8930 C   0  0  0  0  0  0  0  0  0  0  0  0
   59.9970   32.1890   47.0110 C   0  0  0  0  0  0  0  0  0  0  0  0
   59.8450   31.0430   46.3560 O   0  0  0  0  0  0  0  0  0  0  0  0
   58.8470   30.8270   45.5050 C   0  0  0  0  0  0  0  0  0  0  0  0
   58.7520   29.5940   44.8540 C   0  0  0  0  0  0  0  0  0  0  0  0
   56.2431   23.1130   44.9648 H   0  0  0  0  0  0  0  0  0  0  0  0
   55.1870   24.0498   43.8540 H   0  0  0  0  0  0  0  0  0  0  0  0
   56.9616   24.3283   43.8540 H   0  0  0  0  0  0  0  0  0  0  0  0
   54.8699   25.4892   45.5768 H   0  0  0  0  0  0  0  0  0  0  0  0
   56.2120   24.7507   46.5262 H   0  0  0  0  0  0  0  0  0  0  0  0
   57.2288   28.1526   46.2265 H   0  0  0  0  0  0  0  0  0  0  0  0
   56.2920   26.9611   47.2015 H   0  0  0  0  0  0  0  0  0  0  0  0
   58.3281   26.5966   48.1870 H   0  0  0  0  0  0  0  0  0  0  0  0
   58.5731   25.5295   46.7629 H   0  0  0  0  0  0  0  0  0  0  0  0
   59.2447   27.1955   46.7629 H   0  0  0  0  0  0  0  0  0  0  0  0
   58.7440   25.5331   45.2598 H   0  0  0  0  0  0  0  0  0  0  0  0
   57.7603   25.1271   43.8072 H   0  0  0  0  0  0  0  0  0  0  0  0
   59.2997   27.6491   44.4614 H   0  0  0  0  0  0  0  0  0  0  0  0
   59.1550   26.7256   42.9029 H   0  0  0  0  0  0  0  0  0  0  0  0
   57.6520   28.1540   42.2650 H   0  0  0  0  0  0  0  0  0  0  0  0
   56.6480   27.6510   43.5180 H   0  0  0  0  0  0  0  0  0  0  0  0
   55.9252   30.1509   43.0073 H   0  0  0  0  0  0  0  0  0  0  0  0
   56.0839   32.3547   44.1568 H   0  0  0  0  0  0  0  0  0  0  0  0
   58.5553   35.2843   47.3914 H   0  0  0  0  0  0  0  0  0  0  0  0
   60.4791   35.5361   48.9606 H   0  0  0  0  0  0  0  0  0  0  0  0
   62.0864   33.6576   49.2852 H   0  0  0  0  0  0  0  0  0  0  0  0
   61.7858   31.5186   48.0374 H   0  0  0  0  0  0  0  0  0  0  0  0
   59.5051   28.8161   45.0482 H   0  0  0  0  0  0  0  0  0  0  0  0
  1  2  1  0
  2  3  1  0
  3  4  1  0
  4  5  1  0
  3  6  1  0
  6  7  1  0
  7  8  1  0
  8  9  1  0
  9 10  2  0
 10 11  1  0
 11 12  2  0
 12 13  1  0
 13 14  2  0
 13 15  1  0
 15 16  2  0
 16 17  1  0
 17 18  2  0
 18 19  1  0
 19 20  2  0
 20 21  1  0
 21 22  1  0
 22 23  2  0
 23  9  1  0
 22 12  1  0
 20 15  1  0
  1 24  1  0
  1 25  1  0
  1 26  1  0
  2 27  1  0
  2 28  1  0
  4 29  1  0
  4 30  1  0
  5 31  1  0
  5 32  1  0
  5 33  1  0
  6 34  1  0
  6 35  1  0
  7 36  1  0
  7 37  1  0
  8 38  1  0
  8 39  1  0
 10 40  1  0
 11 41  1  0
 16 42  1  0
 17 43  1  0
 18 44  1  0
 19 45  1  0
 23 46  1  0
M  CHG  1   8   1
M  END
>  <UniqueID>  (6) 
6

>  <SMILES>  (6) 
CCN(CC)CC[NH2+]c1ccc2c(=O)c3ccccc3oc2c1

>  <Energy>  (6) 
55.04894862149575

>  <Genealogy>  (6) 
CCN(CC)CC[NH2+]c1ccc2c(=O)c3ccccc3oc2c1 (protonated)
CCN(CC)CC[NH2+]c1ccc2c(=O)c3ccccc3oc2c1 (3D coordinates assigned)
CCN(CC)CC[NH2+]c1ccc2c(=O)c3ccccc3oc2c1 (optimized conformer: 55.04894862149575 kcal/mol)

>  <smiles>  (6) 
CCN(CC)CCNc1ccc2c(=O)c3ccccc3oc2c1

>  <score_type>  (6) 
oracle

>  <origin>  (6) 
adg

>  <m_score__min__energy>  (6) 
-5.4800000000000004

>  <m_primary>  (6) 
energy

$$$$
6:0
     RDKit          3D

 71 73  0  0  0  0  0  0  0  0999 V2000
   61.3240   29.5230   50.9760 C   0  0  0  0  0  0  0  0  0  0  0  0
   62.4310   30.4630   50.4970 C   0  0  0  0  0  0  0  0  0  0  0  0
   62.0520   31.1350   49.2300 N   0  0  0  0  0  0  0  0  0  0  0  0
   61.1910   30.2350   48.4240 C   0  0  0  0  0  0  0  0  0  0  0  0
   61.2200   30.5920   46.9380 C   0  0  0  0  0  0  0  0  0  0  0  0
   63.2560   31.5740   48.4730 C   0  0  0  0  0  0  0  0  0  0  0  0
   64.0580   32.6040   49.2740 C   0  0  0  0  0  0  0  0  0  0  0  0
   63.1530   33.5630   49.9310 N   0  0  0  0  0  0  0  0  0  0  0  0
   62.6420   34.5660   48.9840 C   0  0  0  0  0  0  0  0  0  0  0  0
   61.3540   34.0840   48.3480 C   0  0  0  0  0  0  0  0  0  0  0  0
   61.2100   34.2320   46.9610 C   0  0  0  0  0  0  0  0  0  0  0  0
   60.0730   33.7790   46.3050 C   0  0  0  0  0  0  0  0  0  0  0  0
   59.0310   33.1600   47.0100 C   0  0  0  0  0  0  0  0  0  0  0  0
   57.8590   32.7100   46.3020 N   0  0  0  0  0  0  0  0  0  0  0  0
   57.6310   33.0070   44.8850 C   0  0  0  0  0  0  0  0  0  0  0  0
   57.4510   31.7240   44.0610 C   0  0  0  0  0  0  0  0  0  0  0  0
   56.8710   30.6380   44.8850 N   0  0  0  0  0  0  0  0  0  0  0  0
   57.8880   29.8480   45.6170 C   0  0  0  0  0  0  0  0  0  0  0  0
   59.0130   29.3090   44.7180 C   0  0  0  0  0  0  0  0  0  0  0  0
   55.8910   29.7910   44.1640 C   0  0  0  0  0  0  0  0  0  0  0  0
   56.2820   29.7050   42.6920 C   0  0  0  0  0  0  0  0  0  0  0  0
   59.1440   33.0050   48.4160 C   0  0  0  0  0  0  0  0  0  0  0  0
   58.1320   32.3770   49.1670 C   0  0  0  0  0  0  0  0  0  0  0  0
   58.2720   32.2070   50.5440 C   0  0  0  0  0  0  0  0  0  0  0  0
   57.2700   31.5750   51.2970 C   0  0  0  0  0  0  0  0  0  0  0  0
   57.4280   31.4090   52.6740 C   0  0  0  0  0  0  0  0  0  0  0  0
   58.5840   31.8710   53.3090 C   0  0  0  0  0  0  0  0  0  0  0  0
   59.5880   32.4990   52.5660 C   0  0  0  0  0  0  0  0  0  0  0  0
   59.4390   32.6720   51.1780 C   0  0  0  0  0  0  0  0  0  0  0  0
   60.4190   33.2760   50.4480 N   0  0  0  0  0  0  0  0  0  0  0  0
   60.3140   33.4580   49.0930 C   0  0  0  0  0  0  0  0  0  0  0  0
   61.3062   29.5079   52.0758 H   0  0  0  0  0  0  0  0  0  0  0  0
   60.3534   29.8771   50.5984 H   0  0  0  0  0  0  0  0  0  0  0  0
   61.5161   28.5079   50.5984 H   0  0  0  0  0  0  0  0  0  0  0  0
   62.6122   31.2264   51.2680 H   0  0  0  0  0  0  0  0  0  0  0  0
   63.3396   29.8693   50.3185 H   0  0  0  0  0  0  0  0  0  0  0  0
   61.5449   29.2008   48.5475 H   0  0  0  0  0  0  0  0  0  0  0  0
   60.1562   30.3473   48.7797 H   0  0  0  0  0  0  0  0  0  0  0  0
   61.3086   31.6825   46.8246 H   0  0  0  0  0  0  0  0  0  0  0  0
   62.0813   30.1025   46.4600 H   0  0  0  0  0  0  0  0  0  0  0  0
   60.2909   30.2479   46.4600 H   0  0  0  0  0  0  0  0  0  0  0  0
   63.8926   30.7002   48.2702 H   0  0  0  0  0  0  0  0  0  0  0  0
   62.9295   32.0377   47.5305 H   0  0  0  0  0  0  0  0  0  0  0  0
   64.6527   32.0842   50.0396 H   0  0  0  0  0  0  0  0  0  0  0  0
   64.7204   33.1519   48.5876 H   0  0  0  0  0  0  0  0  0  0  0  0
   63.6880   34.0510   50.6860 H   0  0  0  0  0  0  0  0  0  0  0  0
   62.4512   35.5071   49.5207 H   0  0  0  0  0  0  0  0  0  0  0  0
   63.3915   34.7261   48.1949 H   0  0  0  0  0  0  0  0  0  0  0  0
   62.0114   34.7152   46.3828 H   0  0  0  0  0  0  0  0  0  0  0  0
   59.9885   33.9077   45.2158 H   0  0  0  0  0  0  0  0  0  0  0  0
   57.0510   32.3500   46.8550 H   0  0  0  0  0  0  0  0  0  0  0  0
   56.7240   33.6222   44.7906 H   0  0  0  0  0  0  0  0  0  0  0  0
   58.5109   33.5430   44.4997 H   0  0  0  0  0  0  0  0  0  0  0  0
   56.7788   31.9315   43.2153 H   0  0  0  0  0  0  0  0  0  0  0  0
   58.4380   31.3994   43.6997 H   0  0  0  0  0  0  0  0  0  0  0  0
   58.3373   30.4898   46.3892 H   0  0  0  0  0  0  0  0  0  0  0  0
   57.3721   28.9762   46.0457 H   0  0  0  0  0  0  0  0  0  0  0  0
   59.8281   28.9185   45.3450 H   0  0  0  0  0  0  0  0  0  0  0  0
   58.6198   28.5015   44.0829 H   0  0  0  0  0  0  0  0  0  0  0  0
   59.3959   30.1214   44.0829 H   0  0  0  0  0  0  0  0  0  0  0  0
   55.8858   28.7819   44.6019 H   0  0  0  0  0  0  0  0  0  0  0  0
   54.8877   30.2333   44.2525 H   0  0  0  0  0  0  0  0  0  0  0  0
   57.3534   29.4694   42.6104 H   0  0  0  0  0  0  0  0  0  0  0  0
   55.6944   28.9146   42.2021 H   0  0  0  0  0  0  0  0  0  0  0  0
   56.0802   30.6690   42.2021 H   0  0  0  0  0  0  0  0  0  0  0  0
   57.2228   32.0173   48.6630 H   0  0  0  0  0  0  0  0  0  0  0  0
   56.3586   31.2099   50.8011 H   0  0  0  0  0  0  0  0  0  0  0  0
   56.6406   30.9133   53.2607 H   0  0  0  0  0  0  0  0  0  0  0  0
   58.7041   31.7404   54.3946 H   0  0  0  0  0  0  0  0  0  0  0  0
   60.4978   32.8591   53.0686 H   0  0  0  0  0  0  0  0  0  0  0  0
   61.2660   33.5940   50.9650 H   0  0  0  0  0  0  0  0  0  0  0  0
  1  2  1  0
  2  3  1  0
  3  4  1  0
  4  5  1  0
  3  6  1  0
  6  7  1  0
  7  8  1  0
  8  9  1  0
  9 10  1  0
 10 11  2  0
 11 12  1  0
 12 13  2  0
 13 14  1  0
 14 15  1  0
 15 16  1  0
 16 17  1  0
 17 18  1  0
 18 19  1  0
 17 20  1  0
 20 21  1  0
 13 22  1  0
 22 23  2  0
 23 24  1  0
 24 25  2  0
 25 26  1  0
 26 27  2  0
 27 28  1  0
 28 29  2  0
 29 30  1  0
 30 31  2  0
 31 10  1  0
 31 22  1  0
 29 24  1  0
  1 32  1  0
  1 33  1  0
  1 34  1  0
  2 35  1  0
  2 36  1  0
  4 37  1  0
  4 38  1  0
  5 39  1  0
  5 40  1  0
  5 41  1  0
  6 42  1  0
  6 43  1  0
  7 44  1  0
  7 45  1  0
  8 46  1  0
  9 47  1  0
  9 48  1  0
 11 49  1  0
 12 50  1  0
 14 51  1  0
 15 52  1  0
 15 53  1  0
 16 54  1  0
 16 55  1  0
 18 56  1  0
 18 57  1  0
 19 58  1  0
 19 59  1  0
 19 60  1  0
 20 61  1  0
 20 62  1  0
 21 63  1  0
 21 64  1  0
 21 65  1  0
 23 66  1  0
 25 67  1  0
 26 68  1  0
 27 69  1  0
 28 70  1  0
 30 71  1  0
M  CHG  1  30   1
M  END
>  <UniqueID>  (7) 
7

>  <SMILES>  (7) 
CCN(CC)CCNCc1ccc(NCCN(CC)CC)c2cc3ccccc3[nH+]c12

>  <Energy>  (7) 
82.43852236767519

>  <Genealogy>  (7) 
CCN(CC)CCNCc1ccc(NCCN(CC)CC)c2cc3ccccc3[nH+]c12 (protonated)
CCN(CC)CCNCc1ccc(NCCN(CC)CC)c2cc3ccccc3[nH+]c12 (3D coordinates assigned)
CCN(CC)CCNCc1ccc(NCCN(CC)CC)c2cc3ccccc3[nH+]c12 (optimized conformer: 82.43852236767519 kcal/mol)

>  <smiles>  (7) 
CCN(CC)CCNCc1ccc(NCCN(CC)CC)c2cc3ccccc3nc12

>  <score_type>  (7) 
oracle

>  <origin>  (7) 
adg

>  <m_score__min__energy>  (7) 
-6.3300000000000001

>  <m_primary>  (7) 
energy

$$$$
7:0
     RDKit          3D

 55 57  0  0  0  0  0  0  0  0999 V2000
   57.7730   26.3450   42.6180 C   0  0  0  0  0  0  0  0  0  0  0  0
   58.2120   27.4840   43.5470 C   0  0  0  0  0  0  0  0  0  0  0  0
   58.0170   27.1570   44.9860 N   0  0  0  0  0  0  0  0  0  0  0  0
   57.3410   25.8400   45.1450 C   0  0  0  0  0  0  0  0  0  0  0  0
   56.0870   25.8700   46.0300 C   0  0  0  0  0  0  0  0  0  0  0  0
   59.3010   27.2570   45.7320 C   0  0  0  0  0  0  0  0  0  0  0  0
   59.1050   27.3200   47.2630 C   0  0  0  0  0  0  0  0  0  0  0  0
   59.5390   28.6650   47.8660 C   0  0  0  0  0  0  0  0  0  0  0  0
   60.4720   29.3770   46.9910 N   0  0  0  0  0  0  0  0  0  0  0  0
   60.3410   30.7790   46.6960 C   0  0  0  0  0  0  0  0  0  0  0  0
   61.3460   31.6870   47.0740 C   0  0  0  0  0  0  0  0  0  0  0  0
   62.5760   31.2310   47.5940 C   0  0  0  0  0  0  0  0  0  0  0  0
   63.5810   32.1310   47.9390 C   0  0  0  0  0  0  0  0  0  0  0  0
   63.3890   33.4950   47.7490 C   0  0  0  0  0  0  0  0  0  0  0  0
   62.1900   33.9680   47.2200 C   0  0  0  0  0  0  0  0  0  0  0  0
   61.1350   33.0790   46.8880 C   0  0  0  0  0  0  0  0  0  0  0  0
   59.9370   33.5340   46.3710 N   0  0  0  0  0  0  0  0  0  0  0  0
   59.5930   34.9720   46.4510 C   0  0  0  0  0  0  0  0  0  0  0  0
   59.0520   32.6430   45.7930 C   0  0  0  0  0  0  0  0  0  0  0  0
   57.9580   33.0820   45.0090 C   0  0  0  0  0  0  0  0  0  0  0  0
   57.0340   32.1790   44.4870 C   0  0  0  0  0  0  0  0  0  0  0  0
   57.1720   30.8050   44.7140 C   0  0  0  0  0  0  0  0  0  0  0  0
   56.2040   29.8740   44.1960 N   0  0  0  0  0  0  0  0  0  0  0  0
   55.9260   29.8560   42.9780 O   0  0  0  0  0  0  0  0  0  0  0  0
   55.5530   28.9990   45.0340 O   0  0  0  0  0  0  0  0  0  0  0  0
   58.2760   30.3470   45.4470 C   0  0  0  0  0  0  0  0  0  0  0  0
   59.2290   31.2480   45.9710 C   0  0  0  0  0  0  0  0  0  0  0  0
   57.4422   25.4867   43.2212 H   0  0  0  0  0  0  0  0  0  0  0  0
   56.9430   26.6888   41.9833 H   0  0  0  0  0  0  0  0  0  0  0  0
   58.6191   26.0428   41.9833 H   0  0  0  0  0  0  0  0  0  0  0  0
   59.2788   27.6885   43.3737 H   0  0  0  0  0  0  0  0  0  0  0  0
   57.5881   28.3603   43.3172 H   0  0  0  0  0  0  0  0  0  0  0  0
   57.3610   27.8670   45.3900 H   0  0  0  0  0  0  0  0  0  0  0  0
   57.0486   25.4814   44.1471 H   0  0  0  0  0  0  0  0  0  0  0  0
   58.0617   25.1773   45.6465 H   0  0  0  0  0  0  0  0  0  0  0  0
   56.3852   25.8629   47.0888 H   0  0  0  0  0  0  0  0  0  0  0  0
   55.5101   26.7822   45.8177 H   0  0  0  0  0  0  0  0  0  0  0  0
   55.4671   24.9864   45.8177 H   0  0  0  0  0  0  0  0  0  0  0  0
   59.9150   26.3762   45.4930 H   0  0  0  0  0  0  0  0  0  0  0  0
   59.7892   28.1932   45.4235 H   0  0  0  0  0  0  0  0  0  0  0  0
   58.0398   27.1620   47.4874 H   0  0  0  0  0  0  0  0  0  0  0  0
   59.7374   26.5384   47.7094 H   0  0  0  0  0  0  0  0  0  0  0  0
   58.6474   29.2905   48.0200 H   0  0  0  0  0  0  0  0  0  0  0  0
   60.0499   28.4636   48.8191 H   0  0  0  0  0  0  0  0  0  0  0  0
   61.2190   28.8290   46.5070 H   0  0  0  0  0  0  0  0  0  0  0  0
   62.7429   30.1521   47.7284 H   0  0  0  0  0  0  0  0  0  0  0  0
   64.5273   31.7627   48.3620 H   0  0  0  0  0  0  0  0  0  0  0  0
   64.1867   34.2033   48.0174 H   0  0  0  0  0  0  0  0  0  0  0  0
   62.0591   35.0480   47.0571 H   0  0  0  0  0  0  0  0  0  0  0  0
   59.5209   35.2736   47.5064 H   0  0  0  0  0  0  0  0  0  0  0  0
   60.3748   35.5643   45.9530 H   0  0  0  0  0  0  0  0  0  0  0  0
   58.6278   35.1464   45.9530 H   0  0  0  0  0  0  0  0  0  0  0  0
   57.8350   34.1565   44.8081 H   0  0  0  0  0  0  0  0  0  0  0  0
   56.1875   32.5499   43.8904 H   0  0  0  0  0  0  0  0  0  0  0  0
   58.4020   29.2675   45.6168 H   0  0  0  0  0  0  0  0  0  0  0  0
  1  2  1  0
  2  3  1  0
  3  4  1  0
  4  5  1  0
  3  6  1  0
  6  7  1  0
  7  8  1  0
  8  9  1  0
  9 10  1  0
 10 11  2  0
 11 12  1  0
 12 13  2  0
 13 14  1  0
 14 15  2  0
 15 16  1  0
 16 17  2  0
 17 18  1  0
 17 19  1  0
 19 20  2  0
 20 21  1  0
 21 22  2  0
 22 23  1  0
 23 24  2  0
 23 25  1  0
 22 26  1  0
 26 27  2  0
 27 10  1  0
 16 11  1  0
 27 19  1  0
  1 28  1  0
  1 29  1  0
  1 30  1  0
  2 31  1  0
  2 32  1  0
  3 33  1  0
  4 34  1  0
  4 35  1  0
  5 36  1  0
  5 37  1  0
  5 38  1  0
  6 39  1  0
  6 40  1  0
  7 41  1  0
  7 42  1  0
  8 43  1  0
  8 44  1  0
  9 45  1  0
 12 46  1  0
 13 47  1  0
 14 48  1  0
 15 49  1  0
 18 50  1  0
 18 51  1  0
 18 52  1  0
 20 53  1  0
 21 54  1  0
 26 55  1  0
M  CHG  4   3   1  17   1  23   1  25  -1
M  END
>  <UniqueID>  (8) 
8

>  <SMILES>  (8) 
CC[NH+](CC)CCCNc1c2ccccc2[n+](C)c2ccc([N+](=O)[O-])cc12

>  <Energy>  (8) 
82.15726488635303

>  <Genealogy>  (8) 
CC[NH+](CC)CCCNc1c2ccccc2[n+](C)c2ccc([N+](=O)[O-])cc12 (protonated)
CC[NH+](CC)CCCNc1c2ccccc2[n+](C)c2ccc([N+](=O)[O-])cc12 (3D coordinates assigned)
CC[NH+](CC)CCCNc1c2ccccc2[n+](C)c2ccc([N+](=O)[O-])cc12 (optimized conformer: 82.15726488635303 kcal/mol)

>  <smiles>  (8) 
CCN(CC)CCCNc1c2ccccc2[n+](C)c2ccc([N+](=O)[O-])cc12

>  <score_type>  (8) 
oracle

>  <origin>  (8) 
adg

>  <m_score__min__energy>  (8) 
-5.25

>  <m_primary>  (8) 
energy

$$$$
8:0
     RDKit          3D

 37 39  0  0  0  0  0  0  0  0999 V2000
   63.3900   33.9690   46.3760 C   0  0  0  0  0  0  0  0  0  0  0  0
   63.7560   32.6950   47.1450 C   0  0  0  0  0  0  0  0  0  0  0  0
   62.5750   31.9670   47.6410 N   0  0  0  0  0  0  0  0  0  0  0  0
   61.6290   32.8190   48.3770 C   0  0  0  0  0  0  0  0  0  0  0  0
   60.4020   33.1110   47.5430 C   0  0  0  0  0  0  0  0  0  0  0  0
   59.9880   34.4430   47.3770 C   0  0  0  0  0  0  0  0  0  0  0  0
   58.8700   34.7490   46.5950 C   0  0  0  0  0  0  0  0  0  0  0  0
   58.1540   33.7300   45.9620 C   0  0  0  0  0  0  0  0  0  0  0  0
   58.5570   32.4000   46.1080 C   0  0  0  0  0  0  0  0  0  0  0  0
   57.8710   31.4040   45.4880 N   0  0  0  0  0  0  0  0  0  0  0  0
   58.2400   30.1000   45.6100 C   0  0  0  0  0  0  0  0  0  0  0  0
   57.5290   29.0710   44.9520 C   0  0  0  0  0  0  0  0  0  0  0  0
   56.3220   29.3440   44.1370 C   0  0  0  0  0  0  0  0  0  0  0  0
   56.4110   29.5670   42.7280 N   0  0  0  0  0  0  0  0  0  0  0  0
   55.1950   29.4160   44.6990 O   0  0  0  0  0  0  0  0  0  0  0  0
   57.9950   27.7480   45.0600 C   0  0  0  0  0  0  0  0  0  0  0  0
   59.1230   27.4470   45.8300 C   0  0  0  0  0  0  0  0  0  0  0  0
   59.8100   28.4620   46.4960 C   0  0  0  0  0  0  0  0  0  0  0  0
   59.3780   29.7860   46.3860 C   0  0  0  0  0  0  0  0  0  0  0  0
   60.0610   30.7810   47.0090 N   0  0  0  0  0  0  0  0  0  0  0  0
   59.6820   32.0830   46.8990 C   0  0  0  0  0  0  0  0  0  0  0  0
   63.1587   34.7740   47.0891 H   0  0  0  0  0  0  0  0  0  0  0  0
   64.2375   34.2717   45.7435 H   0  0  0  0  0  0  0  0  0  0  0  0
   62.5110   33.7757   45.7435 H   0  0  0  0  0  0  0  0  0  0  0  0
   64.3223   32.0310   46.4754 H   0  0  0  0  0  0  0  0  0  0  0  0
   64.3504   32.9963   48.0202 H   0  0  0  0  0  0  0  0  0  0  0  0
   62.0740   31.5310   46.8320 H   0  0  0  0  0  0  0  0  0  0  0  0
   61.3229   32.3035   49.2993 H   0  0  0  0  0  0  0  0  0  0  0  0
   62.1262   33.7710   48.6149 H   0  0  0  0  0  0  0  0  0  0  0  0
   60.5486   35.2529   47.8668 H   0  0  0  0  0  0  0  0  0  0  0  0
   58.5531   35.7958   46.4778 H   0  0  0  0  0  0  0  0  0  0  0  0
   57.2738   33.9744   45.3492 H   0  0  0  0  0  0  0  0  0  0  0  0
   55.5430   29.7030   42.1640 H   0  0  0  0  0  0  0  0  0  0  0  0
   57.3340   29.6930   42.2570 H   0  0  0  0  0  0  0  0  0  0  0  0
   57.4658   26.9407   44.5325 H   0  0  0  0  0  0  0  0  0  0  0  0
   59.4697   26.4062   45.9107 H   0  0  0  0  0  0  0  0  0  0  0  0
   60.6917   28.2200   47.1076 H   0  0  0  0  0  0  0  0  0  0  0  0
  1  2  1  0
  2  3  1  0
  3  4  1  0
  4  5  1  0
  5  6  2  0
  6  7  1  0
  7  8  2  0
  8  9  1  0
  9 10  2  0
 10 11  1  0
 11 12  2  0
 12 13  1  0
 13 14  1  0
 13 15  2  0
 12 16  1  0
 16 17  2  0
 17 18  1  0
 18 19  2  0
 19 20  1  0
 20 21  2  0
 21  5  1  0
 21  9  1  0
 19 11  1  0
  1 22  1  0
  1 23  1  0
  1 24  1  0
  2 25  1  0
  2 26  1  0
  3 27  1  0
  4 28  1  0
  4 29  1  0
  6 30  1  0
  7 31  1  0
  8 32  1  0
 14 33  1  0
 14 34  1  0
 16 35  1  0
 17 36  1  0
 18 37  1  0
M  END
>  <UniqueID>  (9) 
9

>  <SMILES>  (9) 
CCNCc1cccc2nc3c(C(N)=O)cccc3nc12

>  <Energy>  (9) 
47.36703194003865

>  <Genealogy>  (9) 
CCNCc1cccc2nc3c(C(N)=O)cccc3nc12 (3D coordinates assigned)
CCNCc1cccc2nc3c(C(N)=O)cccc3nc12 (optimized conformer: 47.36703194003865 kcal/mol)

>  <smiles>  (9) 
CCNCc1cccc2nc3c(C(N)=O)cccc3nc12

>  <score_type>  (9) 
oracle

>  <origin>  (9) 
adg

>  <m_score__min__energy>  (9) 
-8.25

>  <m_primary>  (9) 
energy

$$$$
9:0
     RDKit          3D

 46 48  0  0  0  0  0  0  0  0999 V2000
   58.1000   32.2570   42.1300 C   0  0  0  0  0  0  0  0  0  0  0  0
   57.6410   31.9430   43.4810 N   0  0  0  0  0  0  0  0  0  0  0  0
   57.6250   32.7530   44.5590 C   0  0  0  0  0  0  0  0  0  0  0  0
   58.2330   34.1220   44.6120 C   0  0  0  0  0  0  0  0  0  0  0  0
   58.4280   34.5440   46.0000 N   0  0  0  0  0  0  0  0  0  0  0  0
   59.6330   34.2790   46.7450 C   0  0  0  0  0  0  0  0  0  0  0  0
   60.7830   33.8500   46.0600 C   0  0  0  0  0  0  0  0  0  0  0  0
   61.9660   33.5860   46.7560 C   0  0  0  0  0  0  0  0  0  0  0  0
   62.0150   33.7470   48.1430 C   0  0  0  0  0  0  0  0  0  0  0  0
   63.5010   33.4140   49.0150 Cl  0  0  0  0  0  0  0  0  0  0  0  0
   60.8780   34.1730   48.8360 C   0  0  0  0  0  0  0  0  0  0  0  0
   59.6920   34.4380   48.1440 C   0  0  0  0  0  0  0  0  0  0  0  0
   57.0470   32.1530   45.6170 N   0  0  0  0  0  0  0  0  0  0  0  0
   56.6630   30.9480   45.2180 N   0  0  0  0  0  0  0  0  0  0  0  0
   57.0250   30.8300   43.9270 C   0  0  0  0  0  0  0  0  0  0  0  0
   56.7180   29.3560   42.9480 S   0  0  0  0  0  0  0  0  0  0  0  0
   57.3960   28.2000   44.1900 C   0  0  0  0  0  0  0  0  0  0  0  0
   58.8700   27.8760   43.9000 C   0  0  0  0  0  0  0  0  0  0  0  0
   59.7820   28.2060   45.0180 N   0  0  0  0  0  0  0  0  0  0  0  0
   59.6600   27.3330   46.2040 C   0  0  0  0  0  0  0  0  0  0  0  0
   58.6890   27.8890   47.2730 C   0  0  0  0  0  0  0  0  0  0  0  0
   58.2480   29.2060   47.0030 O   0  0  0  0  0  0  0  0  0  0  0  0
   59.3540   30.0210   46.6940 C   0  0  0  0  0  0  0  0  0  0  0  0
   59.9070   29.6530   45.3110 C   0  0  0  0  0  0  0  0  0  0  0  0
   59.0067   32.8773   42.1857 H   0  0  0  0  0  0  0  0  0  0  0  0
   58.3265   31.3238   41.5936 H   0  0  0  0  0  0  0  0  0  0  0  0
   57.3123   32.8064   41.5936 H   0  0  0  0  0  0  0  0  0  0  0  0
   59.2057   34.1060   44.0986 H   0  0  0  0  0  0  0  0  0  0  0  0
   57.5540   34.8318   44.1169 H   0  0  0  0  0  0  0  0  0  0  0  0
   57.6550   35.0570   46.4840 H   0  0  0  0  0  0  0  0  0  0  0  0
   60.7517   33.7211   44.9680 H   0  0  0  0  0  0  0  0  0  0  0  0
   62.8605   33.2507   46.2105 H   0  0  0  0  0  0  0  0  0  0  0  0
   60.9164   34.3000   49.9280 H   0  0  0  0  0  0  0  0  0  0  0  0
   58.8004   34.7724   48.6947 H   0  0  0  0  0  0  0  0  0  0  0  0
   57.3186   28.6584   45.1870 H   0  0  0  0  0  0  0  0  0  0  0  0
   56.8185   27.2647   44.1477 H   0  0  0  0  0  0  0  0  0  0  0  0
   58.9542   26.7997   43.6891 H   0  0  0  0  0  0  0  0  0  0  0  0
   59.1733   28.4960   43.0435 H   0  0  0  0  0  0  0  0  0  0  0  0
   59.2938   26.3486   45.8773 H   0  0  0  0  0  0  0  0  0  0  0  0
   60.6556   27.2705   46.6676 H   0  0  0  0  0  0  0  0  0  0  0  0
   57.8095   27.2301   47.3211 H   0  0  0  0  0  0  0  0  0  0  0  0
   59.2388   27.9202   48.2252 H   0  0  0  0  0  0  0  0  0  0  0  0
   59.0403   31.0753   46.6921 H   0  0  0  0  0  0  0  0  0  0  0  0
   60.1386   29.8665   47.4494 H   0  0  0  0  0  0  0  0  0  0  0  0
   59.3516   30.2171   44.5472 H   0  0  0  0  0  0  0  0  0  0  0  0
   60.9776   29.9055   45.3005 H   0  0  0  0  0  0  0  0  0  0  0  0
  1  2  1  0
  2  3  1  0
  3  4  1  0
  4  5  1  0
  5  6  1  0
  6  7  2  0
  7  8  1  0
  8  9  2  0
  9 10  1  0
  9 11  1  0
 11 12  2  0
  3 13  2  0
 13 14  1  0
 14 15  2  0
 15 16  1  0
 16 17  1  0
 17 18  1  0
 18 19  1  0
 19 20  1  0
 20 21  1  0
 21 22  1  0
 22 23  1  0
 23 24  1  0
 15  2  1  0
 24 19  1  0
 12  6  1  0
  1 25  1  0
  1 26  1  0
  1 27  1  0
  4 28  1  0
  4 29  1  0
  5 30  1  0
  7 31  1  0
  8 32  1  0
 11 33  1  0
 12 34  1  0
 17 35  1  0
 17 36  1  0
 18 37  1  0
 18 38  1  0
 20 39  1  0
 20 40  1  0
 21 41  1  0
 21 42  1  0
 23 43  1  0
 23 44  1  0
 24 45  1  0
 24 46  1  0
M  END
>  <UniqueID>  (10) 
10

>  <SMILES>  (10) 
Cn1c(CNc2ccc(Cl)cc2)nnc1SCCN1CCOCC1

>  <Energy>  (10) 
90.12044967193782

>  <Genealogy>  (10) 
Cn1c(CNc2ccc(Cl)cc2)nnc1SCCN1CCOCC1 (3D coordinates assigned)
Cn1c(CNc2ccc(Cl)cc2)nnc1SCCN1CCOCC1 (nonaromatic ring conformer: 90.12044967193782 kcal/mol)

>  <smiles>  (10) 
Cn1c(CNc2ccc(Cl)cc2)nnc1SCCN1CCOCC1

>  <score_type>  (10) 
oracle

>  <origin>  (10) 
adg

>  <m_score__min__energy>  (10) 
-8.0500000000000007

>  <m_primary>  (10) 
energy

$$$$
10:0
     RDKit          3D

 73 72  0  0  0  0  0  0  0  0999 V2000
   59.5060   28.8110   44.9520 C   0  0  0  0  0  0  0  0  0  0  0  0
   60.2150   29.8190   45.8480 C   0  0  0  0  0  0  0  0  0  0  0  0
   59.2300   30.6260   46.5860 N   0  0  0  0  0  0  0  0  0  0  0  0
   57.9860   30.8370   45.8240 C   0  0  0  0  0  0  0  0  0  0  0  0
   57.9740   32.1950   45.0970 C   0  0  0  0  0  0  0  0  0  0  0  0
   57.4460   33.3460   45.9740 C   0  0  0  0  0  0  0  0  0  0  0  0
   57.5400   33.0630   47.4810 C   0  0  0  0  0  0  0  0  0  0  0  0
   58.9160   33.2530   47.9600 N   0  0  0  0  0  0  0  0  0  0  0  0
   59.3060   34.6720   48.0090 C   0  0  0  0  0  0  0  0  0  0  0  0
   59.7280   35.2370   46.6370 C   0  0  0  0  0  0  0  0  0  0  0  0
   60.4500   34.1890   45.7720 C   0  0  0  0  0  0  0  0  0  0  0  0
   61.7700   33.7200   46.3920 C   0  0  0  0  0  0  0  0  0  0  0  0
   61.5780   32.4650   47.1340 N   0  0  0  0  0  0  0  0  0  0  0  0
   62.8710   31.8880   47.5230 C   0  0  0  0  0  0  0  0  0  0  0  0
   63.2190   32.3030   48.9610 C   0  0  0  0  0  0  0  0  0  0  0  0
   63.0000   33.8080   49.2180 C   0  0  0  0  0  0  0  0  0  0  0  0
   62.0220   34.1040   50.3710 C   0  0  0  0  0  0  0  0  0  0  0  0
   60.8530   33.2070   50.3530 N   0  0  0  0  0  0  0  0  0  0  0  0
   59.8910   33.5190   51.4300 C   0  0  0  0  0  0  0  0  0  0  0  0
   58.5450   32.7780   51.2930 C   0  0  0  0  0  0  0  0  0  0  0  0
   58.7110   31.2600   51.1120 C   0  0  0  0  0  0  0  0  0  0  0  0
   58.7250   30.8610   49.6330 C   0  0  0  0  0  0  0  0  0  0  0  0
   60.0550   31.1180   49.0520 N   0  0  0  0  0  0  0  0  0  0  0  0
   60.9070   29.9220   49.0980 C   0  0  0  0  0  0  0  0  0  0  0  0
   60.0470   28.6650   49.0770 C   0  0  0  0  0  0  0  0  0  0  0  0
   58.9845   28.0696   45.5752 H   0  0  0  0  0  0  0  0  0  0  0  0
   58.7762   29.3346   44.3170 H   0  0  0  0  0  0  0  0  0  0  0  0
   60.2454   28.3011   44.3170 H   0  0  0  0  0  0  0  0  0  0  0  0
   60.8540   29.2817   46.5642 H   0  0  0  0  0  0  0  0  0  0  0  0
   60.8280   30.4851   45.2230 H   0  0  0  0  0  0  0  0  0  0  0  0
   59.6550   31.5490   46.8350 H   0  0  0  0  0  0  0  0  0  0  0  0
   57.8867   30.0347   45.0781 H   0  0  0  0  0  0  0  0  0  0  0  0
   57.1474   30.8268   46.5358 H   0  0  0  0  0  0  0  0  0  0  0  0
   59.0016   32.4347   44.7864 H   0  0  0  0  0  0  0  0  0  0  0  0
   57.2949   32.1003   44.2369 H   0  0  0  0  0  0  0  0  0  0  0  0
   58.0329   34.2496   45.7524 H   0  0  0  0  0  0  0  0  0  0  0  0
   56.3796   33.4711   45.7349 H   0  0  0  0  0  0  0  0  0  0  0  0
   56.8718   33.7507   48.0200 H   0  0  0  0  0  0  0  0  0  0  0  0
   57.2424   32.0200   47.6643 H   0  0  0  0  0  0  0  0  0  0  0  0
   59.5720   32.7140   47.3480 H   0  0  0  0  0  0  0  0  0  0  0  0
   58.4508   35.2565   48.3791 H   0  0  0  0  0  0  0  0  0  0  0  0
   60.1787   34.7470   48.6744 H   0  0  0  0  0  0  0  0  0  0  0  0
   58.8288   35.5780   46.1029 H   0  0  0  0  0  0  0  0  0  0  0  0
   60.4278   36.0668   46.8151 H   0  0  0  0  0  0  0  0  0  0  0  0
   59.7894   33.3180   45.6496 H   0  0  0  0  0  0  0  0  0  0  0  0
   60.6849   34.6597   44.8060 H   0  0  0  0  0  0  0  0  0  0  0  0
   62.5072   33.5575   45.5920 H   0  0  0  0  0  0  0  0  0  0  0  0
   62.1277   34.4921   47.0890 H   0  0  0  0  0  0  0  0  0  0  0  0
   61.0580   32.6950   48.0130 H   0  0  0  0  0  0  0  0  0  0  0  0
   62.8132   30.7911   47.4641 H   0  0  0  0  0  0  0  0  0  0  0  0
   63.6514   32.2570   46.8412 H   0  0  0  0  0  0  0  0  0  0  0  0
   62.5847   31.7319   49.6549 H   0  0  0  0  0  0  0  0  0  0  0  0
   64.2872   32.0922   49.1174 H   0  0  0  0  0  0  0  0  0  0  0  0
   63.9713   34.2637   49.4610 H   0  0  0  0  0  0  0  0  0  0  0  0
   62.5557   34.2287   48.3039 H   0  0  0  0  0  0  0  0  0  0  0  0
   62.5518   33.9765   51.3265 H   0  0  0  0  0  0  0  0  0  0  0  0
   61.6586   35.1351   50.2495 H   0  0  0  0  0  0  0  0  0  0  0  0
   61.1900   32.2300   50.5150 H   0  0  0  0  0  0  0  0  0  0  0  0
   60.3860   33.2360   49.4180 H   0  0  0  0  0  0  0  0  0  0  0  0
   60.3447   33.2399   52.3925 H   0  0  0  0  0  0  0  0  0  0  0  0
   59.6735   34.5953   51.3649 H   0  0  0  0  0  0  0  0  0  0  0  0
   57.9506   32.9600   52.2005 H   0  0  0  0  0  0  0  0  0  0  0  0
   58.0467   33.1645   50.3917 H   0  0  0  0  0  0  0  0  0  0  0  0
   59.6594   30.9481   51.5738 H   0  0  0  0  0  0  0  0  0  0  0  0
   57.8550   30.7631   51.5919 H   0  0  0  0  0  0  0  0  0  0  0  0
   58.4891   29.7904   49.5427 H   0  0  0  0  0  0  0  0  0  0  0  0
   57.9746   31.4563   49.0922 H   0  0  0  0  0  0  0  0  0  0  0  0
   59.9350   31.3990   48.0500 H   0  0  0  0  0  0  0  0  0  0  0  0
   61.5770   29.9189   48.2256 H   0  0  0  0  0  0  0  0  0  0  0  0
   61.4991   29.9374   50.0249 H   0  0  0  0  0  0  0  0  0  0  0  0
   59.8319   28.3506   50.1089 H   0  0  0  0  0  0  0  0  0  0  0  0
   59.1028   28.8755   48.5534 H   0  0  0  0  0  0  0  0  0  0  0  0
   60.5853   27.8612   48.5534 H   0  0  0  0  0  0  0  0  0  0  0  0
  1  2  1  0
  2  3  1  0
  3  4  1  0
  4  5  1  0
  5  6  1  0
  6  7  1  0
  7  8  1  0
  8  9  1  0
  9 10  1  0
 10 11  1  0
 11 12  1  0
 12 13  1  0
 13 14  1  0
 14 15  1  0
 15 16  1  0
 16 17  1  0
 17 18  1  0
 18 19  1  0
 19 20  1  0
 20 21  1  0
 21 22  1  0
 22 23  1  0
 23 24  1  0
 24 25  1  0
  1 26  1  0
  1 27  1  0
  1 28  1  0
  2 29  1  0
  2 30  1  0
  3 31  1  0
  4 32  1  0
  4 33  1  0
  5 34  1  0
  5 35  1  0
  6 36  1  0
  6 37  1  0
  7 38  1  0
  7 39  1  0
  8 40  1  0
  9 41  1  0
  9 42  1  0
 10 43  1  0
 10 44  1  0
 11 45  1  0
 11 46  1  0
 12 47  1  0
 12 48  1  0
 13 49  1  0
 14 50  1  0
 14 51  1  0
 15 52  1  0
 15 53  1  0
 16 54  1  0
 16 55  1  0
 17 56  1  0
 17 57  1  0
 18 58  1  0
 18 59  1  0
 19 60  1  0
 19 61  1  0
 20 62  1  0
 20 63  1  0
 21 64  1  0
 21 65  1  0
 22 66  1  0
 22 67  1  0
 23 68  1  0
 24 69  1  0
 24 70  1  0
 25 71  1  0
 25 72  1  0
 25 73  1  0
M  CHG  1  18   1
M  END
>  <UniqueID>  (11) 
11

>  <SMILES>  (11) 
CCNCCCCNCCCCNCCCC[NH2+]CCCCNCC

>  <Energy>  (11) 
48.277640165566886

>  <Genealogy>  (11) 
CCNCCCCNCCCCNCCCC[NH2+]CCCCNCC (protonated)
CCNCCCCNCCCCNCCCC[NH2+]CCCCNCC (3D coordinates assigned)
CCNCCCCNCCCCNCCCC[NH2+]CCCCNCC (optimized conformer: 48.277640165566886 kcal/mol)

>  <smiles>  (11) 
CCNCCCCNCCCCNCCCCNCCCCNCC

>  <score_type>  (11) 
oracle

>  <origin>  (11) 
adg

>  <m_score__min__energy>  (11) 
-2.0800000000000001

>  <m_primary>  (11) 
energy

$$$$
11:0
     RDKit          3D

 28 28  0  0  0  0  0  0  0  0999 V2000
   57.9350   32.5810   42.6510 C   0  0  0  0  0  0  0  0  0  0  0  0
   57.5920   31.3750   43.5340 C   0  0  2  0  0  0  0  0  0  0  0  0
   56.5910   30.4230   42.8500 C   0  0  0  0  0  0  0  0  0  0  0  0
   56.1090   29.2540   43.7390 C   0  0  0  0  0  0  0  0  0  0  0  0
   55.3310   29.7280   44.8850 N   0  0  0  0  0  0  0  0  0  0  0  0
   57.0510   31.8090   44.7860 O   0  0  0  0  0  0  0  0  0  0  0  0
   57.7380   32.5320   45.7760 C   0  0  0  0  0  0  0  0  0  0  0  0
   57.9060   33.9310   45.7240 C   0  0  0  0  0  0  0  0  0  0  0  0
   58.6000   34.5950   46.7390 C   0  0  0  0  0  0  0  0  0  0  0  0
   59.1350   33.8760   47.8110 C   0  0  0  0  0  0  0  0  0  0  0  0
   59.8080   34.5260   48.7930 F   0  0  0  0  0  0  0  0  0  0  0  0
   58.9780   32.4890   47.8690 C   0  0  0  0  0  0  0  0  0  0  0  0
   59.4990   31.7900   48.9090 F   0  0  0  0  0  0  0  0  0  0  0  0
   58.2830   31.8200   46.8550 C   0  0  0  0  0  0  0  0  0  0  0  0
   58.1360   30.4730   46.9190 F   0  0  0  0  0  0  0  0  0  0  0  0
   58.1804   33.4437   43.2878 H   0  0  0  0  0  0  0  0  0  0  0  0
   58.7992   32.3365   42.0159 H   0  0  0  0  0  0  0  0  0  0  0  0
   57.0714   32.8279   42.0159 H   0  0  0  0  0  0  0  0  0  0  0  0
   58.5293   30.8245   43.7028 H   0  0  0  0  0  0  0  0  0  0  0  0
   55.7112   31.0095   42.5467 H   0  0  0  0  0  0  0  0  0  0  0  0
   57.1207   29.9710   41.9985 H   0  0  0  0  0  0  0  0  0  0  0  0
   55.4806   28.5829   43.1350 H   0  0  0  0  0  0  0  0  0  0  0  0
   56.9955   28.7272   44.1217 H   0  0  0  0  0  0  0  0  0  0  0  0
   54.7410   28.9600   45.2740 H   0  0  0  0  0  0  0  0  0  0  0  0
   54.7080   30.5070   44.5750 H   0  0  0  0  0  0  0  0  0  0  0  0
   55.9740   30.0890   45.6280 H   0  0  0  0  0  0  0  0  0  0  0  0
   57.4892   34.5019   44.8812 H   0  0  0  0  0  0  0  0  0  0  0  0
   58.7255   35.6869   46.6939 H   0  0  0  0  0  0  0  0  0  0  0  0
  1  2  1  0
  2  3  1  0
  3  4  1  0
  4  5  1  0
  2  6  1  0
  6  7  1  0
  7  8  2  0
  8  9  1  0
  9 10  2  0
 10 11  1  0
 10 12  1  0
 12 13  1  0
 12 14  2  0
 14 15  1  0
 14  7  1  0
  1 16  1  0
  1 17  1  0
  1 18  1  0
  2 19  1  1
  3 20  1  0
  3 21  1  0
  4 22  1  0
  4 23  1  0
  5 24  1  0
  5 25  1  0
  5 26  1  0
  8 27  1  0
  9 28  1  0
M  CHG  1   5   1
M  END
>  <UniqueID>  (12) 
12

>  <SMILES>  (12) 
C[C@H](CC[NH3+])Oc1ccc(F)c(F)c1F

>  <Energy>  (12) 
24.006012412292066

>  <Genealogy>  (12) 
CC(CC[NH3+])Oc1ccc(F)c(F)c1F (protonated)
C[C@H](CC[NH3+])Oc1ccc(F)c(F)c1F (chirality)
C[C@H](CC[NH3+])Oc1ccc(F)c(F)c1F (3D coordinates assigned)
C[C@H](CC[NH3+])Oc1ccc(F)c(F)c1F (optimized conformer: 24.006012412292066 kcal/mol)

>  <smiles>  (12) 
CC(CCN)Oc1ccc(F)c(F)c1F

>  <score_type>  (12) 
oracle

>  <origin>  (12) 
adg

>  <m_score__min__energy>  (12) 
-3.3199999999999998

>  <m_primary>  (12) 
energy

$$$$
12:0
     RDKit          3D

 43 45  0  0  0  0  0  0  0  0999 V2000
   58.8590   34.2470   44.9460 C   0  0  0  0  0  0  0  0  0  0  0  0
   57.4230   33.8540   45.2650 C   0  0  0  0  0  0  0  0  0  0  0  0
   57.3150   33.4630   46.6760 N   0  0  0  0  0  0  0  0  0  0  0  0
   58.5530   33.7510   47.4190 C   0  0  0  0  0  0  0  0  0  0  0  0
   58.8470   32.6240   48.4140 C   0  0  0  0  0  0  0  0  0  0  0  0
   59.3160   31.4190   47.7240 N   0  0  0  0  0  0  0  0  0  0  0  0
   58.5210   30.4790   47.1820 C   0  0  0  0  0  0  0  0  0  0  0  0
   59.3070   29.6320   46.4240 C   0  0  0  0  0  0  0  0  0  0  0  0
   58.8520   28.4770   45.6110 C   0  0  0  0  0  0  0  0  0  0  0  0
   58.7050   27.2120   46.2110 C   0  0  0  0  0  0  0  0  0  0  0  0
   58.2820   26.1140   45.4580 C   0  0  0  0  0  0  0  0  0  0  0  0
   57.9980   26.2630   44.0990 C   0  0  0  0  0  0  0  0  0  0  0  0
   57.5860   25.1960   43.3710 F   0  0  0  0  0  0  0  0  0  0  0  0
   58.1390   27.5120   43.4910 C   0  0  0  0  0  0  0  0  0  0  0  0
   58.5630   28.6150   44.2390 C   0  0  0  0  0  0  0  0  0  0  0  0
   60.5910   30.0460   46.4800 N   0  0  0  0  0  0  0  0  0  0  0  0
   60.5630   31.1280   47.2850 C   0  0  0  0  0  0  0  0  0  0  0  0
   61.7640   31.9420   47.5480 C   0  0  0  0  0  0  0  0  0  0  0  0
   62.0110   33.0880   46.7750 C   0  0  0  0  0  0  0  0  0  0  0  0
   63.1500   33.8640   47.0110 C   0  0  0  0  0  0  0  0  0  0  0  0
   64.0550   33.4930   48.0090 C   0  0  0  0  0  0  0  0  0  0  0  0
   63.8270   32.3420   48.7670 C   0  0  0  0  0  0  0  0  0  0  0  0
   62.6890   31.5640   48.5360 C   0  0  0  0  0  0  0  0  0  0  0  0
   59.4144   34.3990   45.8833 H   0  0  0  0  0  0  0  0  0  0  0  0
   59.3371   33.4467   44.3621 H   0  0  0  0  0  0  0  0  0  0  0  0
   58.8629   35.1793   44.3621 H   0  0  0  0  0  0  0  0  0  0  0  0
   56.7589   34.7093   45.0714 H   0  0  0  0  0  0  0  0  0  0  0  0
   57.1296   33.0051   44.6299 H   0  0  0  0  0  0  0  0  0  0  0  0
   56.5330   34.0150   47.1030 H   0  0  0  0  0  0  0  0  0  0  0  0
   59.3901   33.8379   46.7106 H   0  0  0  0  0  0  0  0  0  0  0  0
   58.4290   34.6942   47.9713 H   0  0  0  0  0  0  0  0  0  0  0  0
   59.6228   32.9597   49.1179 H   0  0  0  0  0  0  0  0  0  0  0  0
   57.9177   32.3801   48.9497 H   0  0  0  0  0  0  0  0  0  0  0  0
   57.4325   30.3984   47.3186 H   0  0  0  0  0  0  0  0  0  0  0  0
   58.9250   27.0871   47.2815 H   0  0  0  0  0  0  0  0  0  0  0  0
   58.1724   25.1297   45.9368 H   0  0  0  0  0  0  0  0  0  0  0  0
   57.9159   27.6288   42.4202 H   0  0  0  0  0  0  0  0  0  0  0  0
   58.6715   29.5960   43.7533 H   0  0  0  0  0  0  0  0  0  0  0  0
   61.3061   33.3762   45.9812 H   0  0  0  0  0  0  0  0  0  0  0  0
   63.3338   34.7672   46.4106 H   0  0  0  0  0  0  0  0  0  0  0  0
   64.9475   34.1077   48.1978 H   0  0  0  0  0  0  0  0  0  0  0  0
   64.5444   32.0474   49.5471 H   0  0  0  0  0  0  0  0  0  0  0  0
   62.5171   30.6536   49.1290 H   0  0  0  0  0  0  0  0  0  0  0  0
  1  2  1  0
  2  3  1  0
  3  4  1  0
  4  5  1  0
  5  6  1  0
  6  7  1  0
  7  8  2  0
  8  9  1  0
  9 10  2  0
 10 11  1  0
 11 12  2  0
 12 13  1  0
 12 14  1  0
 14 15  2  0
  8 16  1  0
 16 17  2  0
 17 18  1  0
 18 19  2  0
 19 20  1  0
 20 21  2  0
 21 22  1  0
 22 23  2  0
 17  6  1  0
 23 18  1  0
 15  9  1  0
  1 24  1  0
  1 25  1  0
  1 26  1  0
  2 27  1  0
  2 28  1  0
  3 29  1  0
  4 30  1  0
  4 31  1  0
  5 32  1  0
  5 33  1  0
  7 34  1  0
 10 35  1  0
 11 36  1  0
 14 37  1  0
 15 38  1  0
 19 39  1  0
 20 40  1  0
 21 41  1  0
 22 42  1  0
 23 43  1  0
M  END
>  <UniqueID>  (13) 
13

>  <SMILES>  (13) 
CCNCCn1cc(-c2ccc(F)cc2)nc1-c1ccccc1

>  <Energy>  (13) 
74.6737020832374

>  <Genealogy>  (13) 
CCNCCn1cc(-c2ccc(F)cc2)nc1-c1ccccc1 (3D coordinates assigned)
CCNCCn1cc(-c2ccc(F)cc2)nc1-c1ccccc1 (optimized conformer: 74.6737020832374 kcal/mol)

>  <smiles>  (13) 
CCNCCn1cc(-c2ccc(F)cc2)nc1-c1ccccc1

>  <score_type>  (13) 
oracle

>  <origin>  (13) 
adg

>  <m_score__min__energy>  (13) 
-6.7699999999999996

>  <m_primary>  (13) 
energy

$$$$
13:0
     RDKit          3D

 43 45  0  0  0  0  0  0  0  0999 V2000
   60.7270   29.3590   49.6500 C   0  0  0  0  0  0  0  0  0  0  0  0
   60.0780   29.4110   48.2920 C   0  0  0  0  0  0  0  0  0  0  0  0
   58.9280   28.6350   48.0720 C   0  0  0  0  0  0  0  0  0  0  0  0
   58.2910   28.6400   46.8310 C   0  0  0  0  0  0  0  0  0  0  0  0
   58.7940   29.4170   45.7820 C   0  0  0  0  0  0  0  0  0  0  0  0
   58.0620   29.4890   44.4650 C   0  0  0  0  0  0  0  0  0  0  0  0
   58.3580   30.7430   43.7520 N   0  0  0  0  0  0  0  0  0  0  0  0
   57.3990   31.8170   44.0650 C   0  0  0  0  0  0  0  0  0  0  0  0
   58.0110   32.8180   45.0110 C   0  0  0  0  0  0  0  0  0  0  0  0
   57.7990   32.7150   46.3970 C   0  0  0  0  0  0  0  0  0  0  0  0
   58.4260   33.6060   47.2740 C   0  0  0  0  0  0  0  0  0  0  0  0
   59.2580   34.6120   46.7730 C   0  0  0  0  0  0  0  0  0  0  0  0
   59.4600   34.7320   45.3960 C   0  0  0  0  0  0  0  0  0  0  0  0
   58.8360   33.8420   44.5170 C   0  0  0  0  0  0  0  0  0  0  0  0
   59.9580   30.1730   45.9820 C   0  0  0  0  0  0  0  0  0  0  0  0
   60.5810   30.2190   47.2400 C   0  0  0  0  0  0  0  0  0  0  0  0
   61.7240   31.1440   47.4130 C   0  0  0  0  0  0  0  0  0  0  0  0
   61.7290   32.3550   48.0840 C   0  0  0  0  0  0  0  0  0  0  0  0
   62.9430   32.8920   47.8810 N   0  0  0  0  0  0  0  0  0  0  0  0
   63.3880   34.2170   48.2920 C   0  0  0  0  0  0  0  0  0  0  0  0
   63.6280   32.0710   47.1010 N   0  0  0  0  0  0  0  0  0  0  0  0
   62.9150   31.0000   46.7920 N   0  0  0  0  0  0  0  0  0  0  0  0
   59.9528   29.4210   50.4290 H   0  0  0  0  0  0  0  0  0  0  0  0
   61.2794   28.4137   49.7565 H   0  0  0  0  0  0  0  0  0  0  0  0
   61.4228   30.2043   49.7565 H   0  0  0  0  0  0  0  0  0  0  0  0
   58.5252   28.0164   48.8875 H   0  0  0  0  0  0  0  0  0  0  0  0
   57.3888   28.0300   46.6765 H   0  0  0  0  0  0  0  0  0  0  0  0
   58.3702   28.6396   43.8377 H   0  0  0  0  0  0  0  0  0  0  0  0
   56.9814   29.4536   44.6678 H   0  0  0  0  0  0  0  0  0  0  0  0
   58.2790   30.5390   42.7280 H   0  0  0  0  0  0  0  0  0  0  0  0
   57.1126   32.3281   43.1340 H   0  0  0  0  0  0  0  0  0  0  0  0
   56.5140   31.3727   44.5439 H   0  0  0  0  0  0  0  0  0  0  0  0
   57.1374   31.9306   46.7932 H   0  0  0  0  0  0  0  0  0  0  0  0
   58.2646   33.5153   48.3583 H   0  0  0  0  0  0  0  0  0  0  0  0
   59.7540   35.3096   47.4639 H   0  0  0  0  0  0  0  0  0  0  0  0
   60.1105   35.5273   45.0031 H   0  0  0  0  0  0  0  0  0  0  0  0
   58.9918   33.9441   43.4329 H   0  0  0  0  0  0  0  0  0  0  0  0
   60.3891   30.7377   45.1422 H   0  0  0  0  0  0  0  0  0  0  0  0
   60.9038   32.7902   48.6667 H   0  0  0  0  0  0  0  0  0  0  0  0
   63.4068   34.2731   49.3904 H   0  0  0  0  0  0  0  0  0  0  0  0
   64.3980   34.4032   47.8980 H   0  0  0  0  0  0  0  0  0  0  0  0
   62.6952   34.9751   47.8980 H   0  0  0  0  0  0  0  0  0  0  0  0
   64.5930   32.2540   46.7470 H   0  0  0  0  0  0  0  0  0  0  0  0
  1  2  1  0
  2  3  2  0
  3  4  1  0
  4  5  2  0
  5  6  1  0
  6  7  1  0
  7  8  1  0
  8  9  1  0
  9 10  2  0
 10 11  1  0
 11 12  2  0
 12 13  1  0
 13 14  2  0
  5 15  1  0
 15 16  2  0
 16 17  1  0
 17 18  2  0
 18 19  1  0
 19 20  1  0
 19 21  1  0
 21 22  2  0
 16  2  1  0
 22 17  1  0
 14  9  1  0
  1 23  1  0
  1 24  1  0
  1 25  1  0
  3 26  1  0
  4 27  1  0
  6 28  1  0
  6 29  1  0
  7 30  1  0
  8 31  1  0
  8 32  1  0
 10 33  1  0
 11 34  1  0
 12 35  1  0
 13 36  1  0
 14 37  1  0
 15 38  1  0
 18 39  1  0
 20 40  1  0
 20 41  1  0
 20 42  1  0
 21 43  1  0
M  CHG  1  21   1
M  END
>  <UniqueID>  (14) 
14

>  <SMILES>  (14) 
Cc1ccc(CNCc2ccccc2)cc1-c1cn(C)[nH+]n1

>  <Energy>  (14) 
79.75206742373685

>  <Genealogy>  (14) 
Cc1ccc(CNCc2ccccc2)cc1-c1cn(C)[nH+]n1 (protonated)
Cc1ccc(CNCc2ccccc2)cc1-c1cn(C)[nH+]n1 (3D coordinates assigned)
Cc1ccc(CNCc2ccccc2)cc1-c1cn(C)[nH+]n1 (optimized conformer: 79.75206742373685 kcal/mol)

>  <smiles>  (14) 
Cc1ccc(CNCc2ccccc2)cc1-c1cn(C)nn1

>  <score_type>  (14) 
oracle

>  <origin>  (14) 
adg

>  <m_score__min__energy>  (14) 
-6.8899999999999997

>  <m_primary>  (14) 
energy

$$$$
14:0
     RDKit          3D

 48 49  0  0  0  0  0  0  0  0999 V2000
   58.2820   33.7670   47.4190 C   0  0  0  0  0  0  0  0  0  0  0  0
   58.1320   32.3630   46.8120 C   0  0  0  0  0  0  0  0  0  0  0  0
   57.2410   32.2950   45.6260 N   0  0  0  0  0  0  0  0  0  0  0  0
   57.3960   33.4750   44.7430 C   0  0  0  0  0  0  0  0  0  0  0  0
   58.8570   33.7380   44.3610 C   0  0  0  0  0  0  0  0  0  0  0  0
   57.4130   30.7660   44.7730 S   0  0  0  0  0  0  0  0  0  0  0  0
   56.0830   30.0630   44.8080 O   0  0  0  0  0  0  0  0  0  0  0  0
   57.7400   31.0310   43.3290 O   0  0  0  0  0  0  0  0  0  0  0  0
   58.6520   29.7450   45.5020 N   0  0  0  0  0  0  0  0  0  0  0  0
   59.3820   28.9170   44.5030 C   0  0  0  0  0  0  0  0  0  0  0  0
   59.3070   27.3980   44.7490 C   0  0  0  0  0  0  0  0  0  0  0  0
   57.9550   27.0010   45.1580 N   0  0  0  0  0  0  0  0  0  0  0  0
   57.4200   25.7160   44.7730 C   0  0  0  0  0  0  0  0  0  0  0  0
   56.9080   24.8360   45.7440 C   0  0  0  0  0  0  0  0  0  0  0  0
   56.4040   23.5850   45.3750 C   0  0  0  0  0  0  0  0  0  0  0  0
   56.4050   23.1890   44.0240 C   0  0  0  0  0  0  0  0  0  0  0  0
   55.9170   21.9420   43.6020 O   0  0  0  0  0  0  0  0  0  0  0  0
   56.7270   20.8970   43.0760 C   0  0  0  0  0  0  0  0  0  0  0  0
   56.9110   24.0660   43.0570 C   0  0  0  0  0  0  0  0  0  0  0  0
   57.4160   25.3160   43.4250 C   0  0  0  0  0  0  0  0  0  0  0  0
   57.2460   27.8040   46.1650 C   0  0  0  0  0  0  0  0  0  0  0  0
   58.1200   28.9720   46.6410 C   0  0  0  0  0  0  0  0  0  0  0  0
   58.2743   33.6947   48.5166 H   0  0  0  0  0  0  0  0  0  0  0  0
   59.2326   34.2102   47.0874 H   0  0  0  0  0  0  0  0  0  0  0  0
   57.4465   34.4010   47.0874 H   0  0  0  0  0  0  0  0  0  0  0  0
   59.1299   32.0102   46.5123 H   0  0  0  0  0  0  0  0  0  0  0  0
   57.6679   31.7358   47.5874 H   0  0  0  0  0  0  0  0  0  0  0  0
   56.2670   32.3010   46.0100 H   0  0  0  0  0  0  0  0  0  0  0  0
   56.8166   33.3054   43.8235 H   0  0  0  0  0  0  0  0  0  0  0  0
   57.0328   34.3542   45.2953 H   0  0  0  0  0  0  0  0  0  0  0  0
   59.4608   33.8467   45.2740 H   0  0  0  0  0  0  0  0  0  0  0  0
   59.2384   32.8941   43.7674 H   0  0  0  0  0  0  0  0  0  0  0  0
   58.9202   34.6620   43.7674 H   0  0  0  0  0  0  0  0  0  0  0  0
   58.9575   29.1248   43.5097 H   0  0  0  0  0  0  0  0  0  0  0  0
   60.4434   29.1935   44.5860 H   0  0  0  0  0  0  0  0  0  0  0  0
   59.5728   26.8692   43.8218 H   0  0  0  0  0  0  0  0  0  0  0  0
   60.0092   27.1369   45.5544 H   0  0  0  0  0  0  0  0  0  0  0  0
   56.9041   25.1347   46.8027 H   0  0  0  0  0  0  0  0  0  0  0  0
   56.0049   22.9071   46.1439 H   0  0  0  0  0  0  0  0  0  0  0  0
   57.1706   20.3247   43.9041 H   0  0  0  0  0  0  0  0  0  0  0  0
   56.1084   20.2290   42.4586 H   0  0  0  0  0  0  0  0  0  0  0  0
   57.5282   21.3295   42.4586 H   0  0  0  0  0  0  0  0  0  0  0  0
   56.9110   23.7684   41.9980 H   0  0  0  0  0  0  0  0  0  0  0  0
   57.8135   25.9924   42.6540 H   0  0  0  0  0  0  0  0  0  0  0  0
   56.3206   28.2021   45.7232 H   0  0  0  0  0  0  0  0  0  0  0  0
   57.0120   27.1629   47.0277 H   0  0  0  0  0  0  0  0  0  0  0  0
   57.5144   29.6376   47.2737 H   0  0  0  0  0  0  0  0  0  0  0  0
   58.9688   28.5611   47.2074 H   0  0  0  0  0  0  0  0  0  0  0  0
  1  2  1  0
  2  3  1  0
  3  4  1  0
  4  5  1  0
  3  6  1  0
  6  7  2  0
  6  8  2  0
  6  9  1  0
  9 10  1  0
 10 11  1  0
 11 12  1  0
 12 13  1  0
 13 14  2  0
 14 15  1  0
 15 16  2  0
 16 17  1  0
 17 18  1  0
 16 19  1  0
 19 20  2  0
 12 21  1  0
 21 22  1  0
 22  9  1  0
 20 13  1  0
  1 23  1  0
  1 24  1  0
  1 25  1  0
  2 26  1  0
  2 27  1  0
  3 28  1  0
  4 29  1  0
  4 30  1  0
  5 31  1  0
  5 32  1  0
  5 33  1  0
 10 34  1  0
 10 35  1  0
 11 36  1  0
 11 37  1  0
 14 38  1  0
 15 39  1  0
 18 40  1  0
 18 41  1  0
 18 42  1  0
 19 43  1  0
 20 44  1  0
 21 45  1  0
 21 46  1  0
 22 47  1  0
 22 48  1  0
M  CHG  1   3   1
M  END
>  <UniqueID>  (15) 
15

>  <SMILES>  (15) 
CC[NH+](CC)S(=O)(=O)N1CCN(c2ccc(OC)cc2)CC1

>  <Energy>  (15) 
56.7836695837862

>  <Genealogy>  (15) 
CC[NH+](CC)S(=O)(=O)N1CCN(c2ccc(OC)cc2)CC1 (protonated)
CC[NH+](CC)S(=O)(=O)N1CCN(c2ccc(OC)cc2)CC1 (3D coordinates assigned)
CC[NH+](CC)S(=O)(=O)N1CCN(c2ccc(OC)cc2)CC1 (nonaromatic ring conformer: 56.7836695837862 kcal/mol)

>  <smiles>  (15) 
CCN(CC)S(=O)(=O)N1CCN(c2ccc(OC)cc2)CC1

>  <score_type>  (15) 
oracle

>  <origin>  (15) 
adg

>  <m_score__min__energy>  (15) 
-6.0599999999999996

>  <m_primary>  (15) 
energy

$$$$
15:0
     RDKit          3D

 48 51  0  0  0  0  0  0  0  0999 V2000
   60.1160   30.2010   48.7940 C   0  0  0  0  0  0  0  0  0  0  0  0
   60.6220   29.7080   50.1460 C   0  0  0  0  0  0  0  0  0  0  0  0
   60.3270   30.6560   51.1710 O   0  0  0  0  0  0  0  0  0  0  0  0
   59.0400   31.0550   51.5750 C   0  0  0  0  0  0  0  0  0  0  0  0
   57.9590   30.1520   51.6330 C   0  0  0  0  0  0  0  0  0  0  0  0
   56.6930   30.5900   52.0280 C   0  0  0  0  0  0  0  0  0  0  0  0
   56.4880   31.9270   52.3670 C   0  0  0  0  0  0  0  0  0  0  0  0
   57.5490   32.8320   52.3180 C   0  0  0  0  0  0  0  0  0  0  0  0
   58.8310   32.4040   51.9340 C   0  0  0  0  0  0  0  0  0  0  0  0
   59.9540   33.4070   51.8380 C   0  0  0  0  0  0  0  0  0  0  0  0
   60.4400   33.5070   50.4220 C   0  0  0  0  0  0  0  0  0  0  0  0
   59.5360   33.6540   49.3670 C   0  0  0  0  0  0  0  0  0  0  0  0
   59.9980   33.6730   48.0420 C   0  0  0  0  0  0  0  0  0  0  0  0
   59.0000   33.8030   46.9550 C   0  0  0  0  0  0  0  0  0  0  0  0
   57.8130   33.0820   46.8570 C   0  0  0  0  0  0  0  0  0  0  0  0
   57.0980   33.3430   45.6820 C   0  0  0  0  0  0  0  0  0  0  0  0
   57.7200   34.2530   44.8390 C   0  0  0  0  0  0  0  0  0  0  0  0
   59.1630   34.7300   45.5570 S   0  0  0  0  0  0  0  0  0  0  0  0
   61.3910   33.5680   47.7950 C   0  0  0  0  0  0  0  0  0  0  0  0
   62.2620   33.3980   48.8950 C   0  0  0  0  0  0  0  0  0  0  0  0
   61.7650   33.3830   50.1590 N   0  0  0  0  0  0  0  0  0  0  0  0
   63.7570   33.3350   48.7140 C   0  0  0  0  0  0  0  0  0  0  0  0
   64.1360   32.9640   47.3440 N   0  0  0  0  0  0  0  0  0  0  0  0
   63.4640   33.8270   46.3660 C   0  0  0  0  0  0  0  0  0  0  0  0
   61.9510   33.5870   46.3880 C   0  0  0  0  0  0  0  0  0  0  0  0
   59.3360   30.9609   48.9493 H   0  0  0  0  0  0  0  0  0  0  0  0
   60.9503   30.6421   48.2289 H   0  0  0  0  0  0  0  0  0  0  0  0
   59.6968   29.3555   48.2289 H   0  0  0  0  0  0  0  0  0  0  0  0
   60.1345   28.7519   50.3872 H   0  0  0  0  0  0  0  0  0  0  0  0
   61.7126   29.5766   50.0890 H   0  0  0  0  0  0  0  0  0  0  0  0
   58.1135   29.0962   51.3656 H   0  0  0  0  0  0  0  0  0  0  0  0
   55.8553   29.8784   52.0718 H   0  0  0  0  0  0  0  0  0  0  0  0
   55.4884   32.2688   52.6735 H   0  0  0  0  0  0  0  0  0  0  0  0
   57.3807   33.8866   52.5815 H   0  0  0  0  0  0  0  0  0  0  0  0
   59.5910   34.3916   52.1679 H   0  0  0  0  0  0  0  0  0  0  0  0
   60.7845   33.0784   52.4801 H   0  0  0  0  0  0  0  0  0  0  0  0
   58.4606   33.7550   49.5752 H   0  0  0  0  0  0  0  0  0  0  0  0
   57.4703   32.3760   47.6278 H   0  0  0  0  0  0  0  0  0  0  0  0
   56.1325   32.8704   45.4486 H   0  0  0  0  0  0  0  0  0  0  0  0
   57.3355   34.6017   43.8692 H   0  0  0  0  0  0  0  0  0  0  0  0
   64.1834   34.3225   48.9442 H   0  0  0  0  0  0  0  0  0  0  0  0
   64.1466   32.5620   49.3927 H   0  0  0  0  0  0  0  0  0  0  0  0
   63.8920   31.9600   47.1670 H   0  0  0  0  0  0  0  0  0  0  0  0
   65.1710   33.0740   47.2390 H   0  0  0  0  0  0  0  0  0  0  0  0
   63.6671   34.8796   46.6124 H   0  0  0  0  0  0  0  0  0  0  0  0
   63.8467   33.5916   45.3620 H   0  0  0  0  0  0  0  0  0  0  0  0
   61.4574   34.3907   45.8219 H   0  0  0  0  0  0  0  0  0  0  0  0
   61.7606   32.6018   45.9374 H   0  0  0  0  0  0  0  0  0  0  0  0
  1  2  1  0
  2  3  1  0
  3  4  1  0
  4  5  2  0
  5  6  1  0
  6  7  2  0
  7  8  1  0
  8  9  2  0
  9 10  1  0
 10 11  1  0
 11 12  2  0
 12 13  1  0
 13 14  1  0
 14 15  2  0
 15 16  1  0
 16 17  2  0
 17 18  1  0
 13 19  2  0
 19 20  1  0
 20 21  2  0
 20 22  1  0
 22 23  1  0
 23 24  1  0
 24 25  1  0
  9  4  1  0
 21 11  1  0
 18 14  1  0
 25 19  1  0
  1 26  1  0
  1 27  1  0
  1 28  1  0
  2 29  1  0
  2 30  1  0
  5 31  1  0
  6 32  1  0
  7 33  1  0
  8 34  1  0
 10 35  1  0
 10 36  1  0
 12 37  1  0
 15 38  1  0
 16 39  1  0
 17 40  1  0
 22 41  1  0
 22 42  1  0
 23 43  1  0
 23 44  1  0
 24 45  1  0
 24 46  1  0
 25 47  1  0
 25 48  1  0
M  CHG  1  23   1
M  END
>  <UniqueID>  (16) 
16

>  <SMILES>  (16) 
CCOc1ccccc1Cc1cc(-c2cccs2)c2c(n1)C[NH2+]CC2

>  <Energy>  (16) 
81.03062754328182

>  <Genealogy>  (16) 
CCOc1ccccc1Cc1cc(-c2cccs2)c2c(n1)C[NH2+]CC2 (protonated)
CCOc1ccccc1Cc1cc(-c2cccs2)c2c(n1)C[NH2+]CC2 (3D coordinates assigned)
CCOc1ccccc1Cc1cc(-c2cccs2)c2c(n1)C[NH2+]CC2 (nonaromatic ring conformer: 81.03062754328182 kcal/mol)

>  <smiles>  (16) 
CCOc1ccccc1Cc1cc(-c2cccs2)c2c(n1)CNCC2

>  <score_type>  (16) 
oracle

>  <origin>  (16) 
adg

>  <m_score__min__energy>  (16) 
-6.4900000000000002

>  <m_primary>  (16) 
energy

$$$$
16:0
     RDKit          3D

 48 50  0  0  0  0  0  0  0  0999 V2000
   64.9040   33.1170   49.7360 C   0  0  0  0  0  0  0  0  0  0  0  0
   64.1650   31.9730   49.0490 C   0  0  0  0  0  0  0  0  0  0  0  0
   62.8920   32.4580   48.4710 N   0  0  0  0  0  0  0  0  0  0  0  0
   63.0160   33.8180   47.8930 C   0  0  0  0  0  0  0  0  0  0  0  0
   63.3730   33.8400   46.3990 C   0  0  0  0  0  0  0  0  0  0  0  0
   61.7540   32.2980   49.4090 C   0  0  0  0  0  0  0  0  0  0  0  0
   60.6420   31.4230   48.8040 C   0  0  0  0  0  0  0  0  0  0  0  0
   60.9050   31.0930   47.4030 N   0  0  0  0  0  0  0  0  0  0  0  0
   59.8180   30.9850   46.4730 C   0  0  0  0  0  0  0  0  0  0  0  0
   59.3390   29.7200   46.0900 C   0  0  0  0  0  0  0  0  0  0  0  0
   59.9160   28.5450   46.6150 C   0  0  0  0  0  0  0  0  0  0  0  0
   59.4430   27.2900   46.2370 C   0  0  0  0  0  0  0  0  0  0  0  0
   58.3920   27.1830   45.3330 C   0  0  0  0  0  0  0  0  0  0  0  0
   57.7470   25.4570   44.8260 Br  0  0  0  0  0  0  0  0  0  0  0  0
   57.8090   28.3330   44.7960 C   0  0  0  0  0  0  0  0  0  0  0  0
   58.2700   29.6250   45.1560 C   0  0  0  0  0  0  0  0  0  0  0  0
   57.7090   30.7710   44.6230 N   0  0  0  0  0  0  0  0  0  0  0  0
   56.6110   30.6660   43.6360 C   0  0  0  0  0  0  0  0  0  0  0  0
   58.1600   32.0130   45.0120 C   0  0  0  0  0  0  0  0  0  0  0  0
   57.5910   33.1480   44.5090 N   0  0  0  0  0  0  0  0  0  0  0  0
   57.9890   34.3940   44.8680 C   0  0  0  0  0  0  0  0  0  0  0  0
   59.0160   34.5560   45.7910 C   0  0  0  0  0  0  0  0  0  0  0  0
   59.6290   33.4290   46.3340 C   0  0  0  0  0  0  0  0  0  0  0  0
   59.2170   32.1390   45.9450 C   0  0  0  0  0  0  0  0  0  0  0  0
   64.8282   32.9996   50.8271 H   0  0  0  0  0  0  0  0  0  0  0  0
   65.9628   33.1008   49.4382 H   0  0  0  0  0  0  0  0  0  0  0  0
   64.4539   34.0755   49.4382 H   0  0  0  0  0  0  0  0  0  0  0  0
   64.7957   31.5639   48.2459 H   0  0  0  0  0  0  0  0  0  0  0  0
   63.9462   31.1913   49.7913 H   0  0  0  0  0  0  0  0  0  0  0  0
   62.0554   34.3374   48.0253 H   0  0  0  0  0  0  0  0  0  0  0  0
   63.8450   34.3107   48.4222 H   0  0  0  0  0  0  0  0  0  0  0  0
   64.4649   33.9073   46.2839 H   0  0  0  0  0  0  0  0  0  0  0  0
   63.0101   32.9178   45.9217 H   0  0  0  0  0  0  0  0  0  0  0  0
   62.8996   34.7107   45.9217 H   0  0  0  0  0  0  0  0  0  0  0  0
   62.1169   31.8257   50.3338 H   0  0  0  0  0  0  0  0  0  0  0  0
   61.3350   33.2938   49.6157 H   0  0  0  0  0  0  0  0  0  0  0  0
   60.5710   30.4894   49.3814 H   0  0  0  0  0  0  0  0  0  0  0  0
   59.7010   31.9909   48.8483 H   0  0  0  0  0  0  0  0  0  0  0  0
   61.8730   31.1660   47.0150 H   0  0  0  0  0  0  0  0  0  0  0  0
   60.7482   28.6201   47.3304 H   0  0  0  0  0  0  0  0  0  0  0  0
   59.9021   26.3819   46.6547 H   0  0  0  0  0  0  0  0  0  0  0  0
   56.9782   28.2350   44.0817 H   0  0  0  0  0  0  0  0  0  0  0  0
   55.6506   30.5742   44.1643 H   0  0  0  0  0  0  0  0  0  0  0  0
   56.5977   31.5670   43.0051 H   0  0  0  0  0  0  0  0  0  0  0  0
   56.7687   29.7788   43.0051 H   0  0  0  0  0  0  0  0  0  0  0  0
   57.4994   35.2759   44.4291 H   0  0  0  0  0  0  0  0  0  0  0  0
   59.3412   35.5636   46.0894 H   0  0  0  0  0  0  0  0  0  0  0  0
   60.4383   33.5468   47.0697 H   0  0  0  0  0  0  0  0  0  0  0  0
  1  2  1  0
  2  3  1  0
  3  4  1  0
  4  5  1  0
  3  6  1  0
  6  7  1  0
  7  8  1  0
  8  9  1  0
  9 10  2  0
 10 11  1  0
 11 12  2  0
 12 13  1  0
 13 14  1  0
 13 15  2  0
 15 16  1  0
 16 17  2  0
 17 18  1  0
 17 19  1  0
 19 20  2  0
 20 21  1  0
 21 22  2  0
 22 23  1  0
 23 24  2  0
 24  9  1  0
 16 10  1  0
 24 19  1  0
  1 25  1  0
  1 26  1  0
  1 27  1  0
  2 28  1  0
  2 29  1  0
  4 30  1  0
  4 31  1  0
  5 32  1  0
  5 33  1  0
  5 34  1  0
  6 35  1  0
  6 36  1  0
  7 37  1  0
  7 38  1  0
  8 39  1  0
 11 40  1  0
 12 41  1  0
 15 42  1  0
 18 43  1  0
 18 44  1  0
 18 45  1  0
 21 46  1  0
 22 47  1  0
 23 48  1  0
M  CHG  1  17   1
M  END
>  <UniqueID>  (17) 
17

>  <SMILES>  (17) 
CCN(CC)CCNc1c2ccc(Br)cc2[n+](C)c2ncccc12

>  <Energy>  (17) 
71.91207192335966

>  <Genealogy>  (17) 
CCN(CC)CCNc1c2ccc(Br)cc2[n+](C)c2ncccc12 (3D coordinates assigned)
CCN(CC)CCNc1c2ccc(Br)cc2[n+](C)c2ncccc12 (optimized conformer: 71.91207192335966 kcal/mol)

>  <smiles>  (17) 
CCN(CC)CCNc1c2ccc(Br)cc2[n+](C)c2ncccc12

>  <score_type>  (17) 
oracle

>  <origin>  (17) 
adg

>  <m_score__min__energy>  (17) 
-5.6799999999999997

>  <m_primary>  (17) 
energy

$$$$
17:0
     RDKit          3D

 51 53  0  0  0  0  0  0  0  0999 V2000
   65.7020   32.1580   50.1180 C   0  0  0  0  0  0  0  0  0  0  0  0
   64.5360   33.0940   49.7860 C   0  0  0  0  0  0  0  0  0  0  0  0
   63.8490   32.7070   48.5140 N   0  0  0  0  0  0  0  0  0  0  0  0
   63.2200   33.8860   47.8640 C   0  0  0  0  0  0  0  0  0  0  0  0
   63.3680   33.8670   46.3390 C   0  0  0  0  0  0  0  0  0  0  0  0
   62.8340   31.6530   48.7830 C   0  0  0  0  0  0  0  0  0  0  0  0
   62.1870   31.0810   47.4980 C   0  0  0  0  0  0  0  0  0  0  0  0
   60.7320   30.9880   47.6390 N   0  0  0  0  0  0  0  0  0  0  0  0
   59.8570   31.0050   46.5000 C   0  0  0  0  0  0  0  0  0  0  0  0
   59.5320   29.8100   45.8590 C   0  0  0  0  0  0  0  0  0  0  0  0
   58.6210   29.7800   44.8360 C   0  0  0  0  0  0  0  0  0  0  0  0
   57.9980   30.9160   44.3830 N   0  0  0  0  0  0  0  0  0  0  0  0
   56.9970   30.8310   43.3020 C   0  0  0  0  0  0  0  0  0  0  0  0
   58.3370   32.1370   44.9400 C   0  0  0  0  0  0  0  0  0  0  0  0
   57.7740   33.3490   44.4720 C   0  0  0  0  0  0  0  0  0  0  0  0
   58.1500   34.5750   45.0210 C   0  0  0  0  0  0  0  0  0  0  0  0
   59.1000   34.6290   46.0350 C   0  0  0  0  0  0  0  0  0  0  0  0
   59.6730   33.4560   46.5210 C   0  0  0  0  0  0  0  0  0  0  0  0
   59.2900   32.2000   46.0060 C   0  0  0  0  0  0  0  0  0  0  0  0
   58.4060   28.3890   44.3470 C   0  0  0  0  0  0  0  0  0  0  0  0
   59.3910   27.5340   45.1590 C   0  0  0  0  0  0  0  0  0  0  0  0
   60.0420   28.4570   46.1980 C   0  0  0  0  0  0  0  0  0  0  0  0
   65.8058   32.0747   51.2099 H   0  0  0  0  0  0  0  0  0  0  0  0
   65.5066   31.1632   49.6913 H   0  0  0  0  0  0  0  0  0  0  0  0
   66.6310   32.5640   49.6913 H   0  0  0  0  0  0  0  0  0  0  0  0
   63.8065   33.0577   50.6085 H   0  0  0  0  0  0  0  0  0  0  0  0
   64.9416   34.1084   49.6573 H   0  0  0  0  0  0  0  0  0  0  0  0
   64.5470   32.2970   47.8470 H   0  0  0  0  0  0  0  0  0  0  0  0
   62.1488   33.8963   48.1139 H   0  0  0  0  0  0  0  0  0  0  0  0
   63.7324   34.7850   48.2372 H   0  0  0  0  0  0  0  0  0  0  0  0
   64.4272   33.7310   46.0751 H   0  0  0  0  0  0  0  0  0  0  0  0
   62.7772   33.0373   45.9236 H   0  0  0  0  0  0  0  0  0  0  0  0
   63.0059   34.8190   45.9236 H   0  0  0  0  0  0  0  0  0  0  0  0
   63.3218   30.8290   49.3244 H   0  0  0  0  0  0  0  0  0  0  0  0
   62.0301   32.1187   49.3720 H   0  0  0  0  0  0  0  0  0  0  0  0
   62.4248   31.7414   46.6510 H   0  0  0  0  0  0  0  0  0  0  0  0
   62.5873   30.0713   47.3239 H   0  0  0  0  0  0  0  0  0  0  0  0
   60.3260   31.2070   48.5770 H   0  0  0  0  0  0  0  0  0  0  0  0
   55.9913   30.7456   43.7394 H   0  0  0  0  0  0  0  0  0  0  0  0
   57.0508   31.7369   42.6804 H   0  0  0  0  0  0  0  0  0  0  0  0
   57.2028   29.9471   42.6804 H   0  0  0  0  0  0  0  0  0  0  0  0
   57.0288   33.3234   43.6633 H   0  0  0  0  0  0  0  0  0  0  0  0
   57.6926   35.5040   44.6498 H   0  0  0  0  0  0  0  0  0  0  0  0
   59.3998   35.6007   46.4545 H   0  0  0  0  0  0  0  0  0  0  0  0
   60.4324   33.5098   47.3150 H   0  0  0  0  0  0  0  0  0  0  0  0
   57.3701   28.0685   44.5320 H   0  0  0  0  0  0  0  0  0  0  0  0
   58.5713   28.2984   43.2633 H   0  0  0  0  0  0  0  0  0  0  0  0
   58.8541   26.7174   45.6639 H   0  0  0  0  0  0  0  0  0  0  0  0
   60.1519   27.0855   44.5033 H   0  0  0  0  0  0  0  0  0  0  0  0
   59.7404   28.1709   47.2164 H   0  0  0  0  0  0  0  0  0  0  0  0
   61.1405   28.4048   46.1763 H   0  0  0  0  0  0  0  0  0  0  0  0
  1  2  1  0
  2  3  1  0
  3  4  1  0
  4  5  1  0
  3  6  1  0
  6  7  1  0
  7  8  1  0
  8  9  1  0
  9 10  2  0
 10 11  1  0
 11 12  2  0
 12 13  1  0
 12 14  1  0
 14 15  2  0
 15 16  1  0
 16 17  2  0
 17 18  1  0
 18 19  2  0
 11 20  1  0
 20 21  1  0
 21 22  1  0
 19  9  1  0
 22 10  1  0
 19 14  1  0
  1 23  1  0
  1 24  1  0
  1 25  1  0
  2 26  1  0
  2 27  1  0
  3 28  1  0
  4 29  1  0
  4 30  1  0
  5 31  1  0
  5 32  1  0
  5 33  1  0
  6 34  1  0
  6 35  1  0
  7 36  1  0
  7 37  1  0
  8 38  1  0
 13 39  1  0
 13 40  1  0
 13 41  1  0
 15 42  1  0
 16 43  1  0
 17 44  1  0
 18 45  1  0
 20 46  1  0
 20 47  1  0
 21 48  1  0
 21 49  1  0
 22 50  1  0
 22 51  1  0
M  CHG  2   3   1  12   1
M  END
>  <UniqueID>  (18) 
18

>  <SMILES>  (18) 
CC[NH+](CC)CCNc1c2c([n+](C)c3ccccc13)CCC2

>  <Energy>  (18) 
76.72237505859994

>  <Genealogy>  (18) 
CC[NH+](CC)CCNc1c2c([n+](C)c3ccccc13)CCC2 (protonated)
CC[NH+](CC)CCNc1c2c([n+](C)c3ccccc13)CCC2 (3D coordinates assigned)
CC[NH+](CC)CCNc1c2c([n+](C)c3ccccc13)CCC2 (nonaromatic ring conformer: 76.72237505859994 kcal/mol)

>  <smiles>  (18) 
CCN(CC)CCNc1c2c([n+](C)c3ccccc13)CCC2

>  <score_type>  (18) 
oracle

>  <origin>  (18) 
adg

>  <m_score__min__energy>  (18) 
-4.3700000000000001

>  <m_primary>  (18) 
energy

$$$$
18:0
     RDKit          3D

 67 69  0  0  0  0  0  0  0  0999 V2000
   60.7760   28.5740   45.0170 C   0  0  0  0  0  0  0  0  0  0  0  0
   60.9630   29.7100   46.0180 C   0  0  0  0  0  0  0  0  0  0  0  0
   60.0700   29.5200   47.1860 N   0  0  0  0  0  0  0  0  0  0  0  0
   60.8490   29.4260   48.4420 C   0  0  0  0  0  0  0  0  0  0  0  0
   59.9690   28.9060   49.5740 C   0  0  0  0  0  0  0  0  0  0  0  0
   59.2150   28.3250   47.0010 C   0  0  0  0  0  0  0  0  0  0  0  0
   57.8260   28.7370   46.4900 C   0  0  0  0  0  0  0  0  0  0  0  0
   57.8030   30.1170   46.1730 O   0  0  0  0  0  0  0  0  0  0  0  0
   57.7990   30.2870   44.7700 C   0  0  0  0  0  0  0  0  0  0  0  0
   57.0910   31.5850   44.4050 C   0  0  0  0  0  0  0  0  0  0  0  0
   56.9860   32.3660   45.5730 O   0  0  0  0  0  0  0  0  0  0  0  0
   57.6780   33.5840   45.4230 C   0  0  0  0  0  0  0  0  0  0  0  0
   58.9910   33.5160   46.2160 C   0  0  0  0  0  0  0  0  0  0  0  0
   59.1530   32.2760   47.0090 N   0  0  0  0  0  0  0  0  0  0  0  0
   60.0260   32.4300   48.1690 C   0  0  0  0  0  0  0  0  0  0  0  0
   61.4010   32.7880   48.0180 C   0  0  0  0  0  0  0  0  0  0  0  0
   61.9850   33.0660   46.7550 C   0  0  0  0  0  0  0  0  0  0  0  0
   63.3290   33.4150   46.6400 C   0  0  0  0  0  0  0  0  0  0  0  0
   64.1280   33.5010   47.7700 C   0  0  0  0  0  0  0  0  0  0  0  0
   63.5900   33.2340   49.0230 C   0  0  0  0  0  0  0  0  0  0  0  0
   62.2290   32.8680   49.1740 C   0  0  0  0  0  0  0  0  0  0  0  0
   61.7090   32.6040   50.4210 N   0  0  0  0  0  0  0  0  0  0  0  0
   62.6240   32.1720   51.4990 C   0  0  0  0  0  0  0  0  0  0  0  0
   60.3450   32.5660   50.6070 C   0  0  0  0  0  0  0  0  0  0  0  0
   59.7390   32.7630   51.8900 C   0  0  0  0  0  0  0  0  0  0  0  0
   60.4310   33.4620   53.0350 C   0  0  0  0  0  0  0  0  0  0  0  0
   58.3930   32.4250   52.0780 C   0  0  0  0  0  0  0  0  0  0  0  0
   57.6150   32.0040   51.0120 C   0  0  0  0  0  0  0  0  0  0  0  0
   58.1440   31.9850   49.7270 C   0  0  0  0  0  0  0  0  0  0  0  0
   59.4990   32.3210   49.4890 C   0  0  0  0  0  0  0  0  0  0  0  0
   60.6205   27.6295   45.5591 H   0  0  0  0  0  0  0  0  0  0  0  0
   59.9001   28.7826   44.3851 H   0  0  0  0  0  0  0  0  0  0  0  0
   61.6725   28.4908   44.3851 H   0  0  0  0  0  0  0  0  0  0  0  0
   62.0086   29.7242   46.3594 H   0  0  0  0  0  0  0  0  0  0  0  0
   60.7131   30.6627   45.5282 H   0  0  0  0  0  0  0  0  0  0  0  0
   61.6941   28.7376   48.2940 H   0  0  0  0  0  0  0  0  0  0  0  0
   61.2198   30.4268   48.7084 H   0  0  0  0  0  0  0  0  0  0  0  0
   60.4201   29.1726   50.5412 H   0  0  0  0  0  0  0  0  0  0  0  0
   58.9692   29.3584   49.4986 H   0  0  0  0  0  0  0  0  0  0  0  0
   59.8830   27.8120   49.4986 H   0  0  0  0  0  0  0  0  0  0  0  0
   59.6858   27.6517   46.2695 H   0  0  0  0  0  0  0  0  0  0  0  0
   59.1030   27.8121   47.9676 H   0  0  0  0  0  0  0  0  0  0  0  0
   57.5845   28.1545   45.5887 H   0  0  0  0  0  0  0  0  0  0  0  0
   57.0845   28.5409   47.2784 H   0  0  0  0  0  0  0  0  0  0  0  0
   58.8358   30.3222   44.4043 H   0  0  0  0  0  0  0  0  0  0  0  0
   57.2682   29.4430   44.3054 H   0  0  0  0  0  0  0  0  0  0  0  0
   57.6727   32.1267   43.6446 H   0  0  0  0  0  0  0  0  0  0  0  0
   56.0923   31.3738   43.9950 H   0  0  0  0  0  0  0  0  0  0  0  0
   57.8986   33.7538   44.3588 H   0  0  0  0  0  0  0  0  0  0  0  0
   57.0590   34.4112   45.8007 H   0  0  0  0  0  0  0  0  0  0  0  0
   59.8280   33.5838   45.5054 H   0  0  0  0  0  0  0  0  0  0  0  0
   58.9737   34.3511   46.9317 H   0  0  0  0  0  0  0  0  0  0  0  0
   59.4410   31.4960   46.3820 H   0  0  0  0  0  0  0  0  0  0  0  0
   58.2100   31.9570   47.3280 H   0  0  0  0  0  0  0  0  0  0  0  0
   61.3644   33.0048   45.8488 H   0  0  0  0  0  0  0  0  0  0  0  0
   63.7580   33.6232   45.6487 H   0  0  0  0  0  0  0  0  0  0  0  0
   65.1876   33.7805   47.6745 H   0  0  0  0  0  0  0  0  0  0  0  0
   64.2316   33.3080   49.9134 H   0  0  0  0  0  0  0  0  0  0  0  0
   62.1671   32.3877   52.4761 H   0  0  0  0  0  0  0  0  0  0  0  0
   62.8094   31.0913   51.4115 H   0  0  0  0  0  0  0  0  0  0  0  0
   63.5763   32.7156   51.4115 H   0  0  0  0  0  0  0  0  0  0  0  0
   60.0456   33.0727   53.9889 H   0  0  0  0  0  0  0  0  0  0  0  0
   61.5141   33.2794   52.9752 H   0  0  0  0  0  0  0  0  0  0  0  0
   60.2376   34.5432   52.9752 H   0  0  0  0  0  0  0  0  0  0  0  0
   57.9492   32.4945   53.0821 H   0  0  0  0  0  0  0  0  0  0  0  0
   56.5765   31.6841   51.1829 H   0  0  0  0  0  0  0  0  0  0  0  0
   57.4996   31.7044   48.8808 H   0  0  0  0  0  0  0  0  0  0  0  0
  1  2  1  0
  2  3  1  0
  3  4  1  0
  4  5  1  0
  3  6  1  0
  6  7  1  0
  7  8  1  0
  8  9  1  0
  9 10  1  0
 10 11  1  0
 11 12  1  0
 12 13  1  0
 13 14  1  0
 14 15  1  0
 15 16  2  0
 16 17  1  0
 17 18  2  0
 18 19  1  0
 19 20  2  0
 20 21  1  0
 21 22  2  0
 22 23  1  0
 22 24  1  0
 24 25  2  0
 25 26  1  0
 25 27  1  0
 27 28  2  0
 28 29  1  0
 29 30  2  0
 30 15  1  0
 21 16  1  0
 30 24  1  0
  1 31  1  0
  1 32  1  0
  1 33  1  0
  2 34  1  0
  2 35  1  0
  4 36  1  0
  4 37  1  0
  5 38  1  0
  5 39  1  0
  5 40  1  0
  6 41  1  0
  6 42  1  0
  7 43  1  0
  7 44  1  0
  9 45  1  0
  9 46  1  0
 10 47  1  0
 10 48  1  0
 12 49  1  0
 12 50  1  0
 13 51  1  0
 13 52  1  0
 14 53  1  0
 14 54  1  0
 17 55  1  0
 18 56  1  0
 19 57  1  0
 20 58  1  0
 23 59  1  0
 23 60  1  0
 23 61  1  0
 26 62  1  0
 26 63  1  0
 26 64  1  0
 27 65  1  0
 28 66  1  0
 29 67  1  0
M  CHG  2  14   1  22   1
M  END
>  <UniqueID>  (19) 
19

>  <SMILES>  (19) 
CCN(CC)CCOCCOCC[NH2+]c1c2ccccc2[n+](C)c2c(C)cccc12

>  <Energy>  (19) 
101.41538815669568

>  <Genealogy>  (19) 
CCN(CC)CCOCCOCC[NH2+]c1c2ccccc2[n+](C)c2c(C)cccc12 (protonated)
CCN(CC)CCOCCOCC[NH2+]c1c2ccccc2[n+](C)c2c(C)cccc12 (3D coordinates assigned)
CCN(CC)CCOCCOCC[NH2+]c1c2ccccc2[n+](C)c2c(C)cccc12 (optimized conformer: 101.41538815669568 kcal/mol)

>  <smiles>  (19) 
CCN(CC)CCOCCOCCNc1c2ccccc2[n+](C)c2c(C)cccc12

>  <score_type>  (19) 
oracle

>  <origin>  (19) 
adg

>  <m_score__min__energy>  (19) 
-3.8300000000000001

>  <m_primary>  (19) 
energy

$$$$
19:0
     RDKit          3D

 53 55  0  0  0  0  0  0  0  0999 V2000
   58.2510   24.9310   45.6120 C   0  0  0  0  0  0  0  0  0  0  0  0
   59.4620   25.7710   46.0010 C   0  0  0  0  0  0  0  0  0  0  0  0
   59.1640   27.2300   45.8460 C   0  0  0  0  0  0  0  0  0  0  0  0
   59.9580   28.2730   46.3120 C   0  0  0  0  0  0  0  0  0  0  0  0
   59.4570   29.5430   45.9660 C   0  0  0  0  0  0  0  0  0  0  0  0
   60.0230   30.7870   46.2930 C   0  0  0  0  0  0  0  0  0  0  0  0
   61.2880   30.8510   47.0020 N   0  0  0  0  0  0  0  0  0  0  0  0
   61.0690   30.7070   48.4490 C   0  0  0  0  0  0  0  0  0  0  0  0
   61.9010   31.7380   49.2320 C   0  0  0  0  0  0  0  0  0  0  0  0
   62.1280   33.0000   48.4940 N   0  0  0  0  0  0  0  0  0  0  0  0
   61.6010   34.2180   49.1630 C   0  0  0  0  0  0  0  0  0  0  0  0
   60.0850   34.2180   49.4130 C   0  0  0  0  0  0  0  0  0  0  0  0
   63.4640   33.1030   47.8680 C   0  0  0  0  0  0  0  0  0  0  0  0
   63.3840   33.8410   46.5340 C   0  0  0  0  0  0  0  0  0  0  0  0
   59.2950   31.9600   45.9340 C   0  0  0  0  0  0  0  0  0  0  0  0
   59.7280   33.2480   46.3290 C   0  0  0  0  0  0  0  0  0  0  0  0
   59.0150   34.3870   45.9620 C   0  0  0  0  0  0  0  0  0  0  0  0
   57.8540   34.2750   45.2090 C   0  0  0  0  0  0  0  0  0  0  0  0
   57.3880   33.0220   44.8200 C   0  0  0  0  0  0  0  0  0  0  0  0
   58.0850   31.8390   45.1720 C   0  0  0  0  0  0  0  0  0  0  0  0
   57.6080   30.5930   44.8050 N   0  0  0  0  0  0  0  0  0  0  0  0
   56.3810   30.4530   43.9980 C   0  0  0  0  0  0  0  0  0  0  0  0
   58.2820   29.4820   45.2320 C   0  0  0  0  0  0  0  0  0  0  0  0
   57.8590   27.8630   44.9930 S   0  0  0  0  0  0  0  0  0  0  0  0
   57.7422   24.5781   46.5212 H   0  0  0  0  0  0  0  0  0  0  0  0
   57.5565   25.5423   45.0170 H   0  0  0  0  0  0  0  0  0  0  0  0
   58.5803   24.0664   45.0170 H   0  0  0  0  0  0  0  0  0  0  0  0
   59.7230   25.5649   47.0495 H   0  0  0  0  0  0  0  0  0  0  0  0
   60.3019   25.5088   45.3408 H   0  0  0  0  0  0  0  0  0  0  0  0
   60.8812   28.1215   46.8906 H   0  0  0  0  0  0  0  0  0  0  0  0
   61.7920   31.7410   46.7890 H   0  0  0  0  0  0  0  0  0  0  0  0
   61.9300   30.0990   46.6660 H   0  0  0  0  0  0  0  0  0  0  0  0
   60.0025   30.8616   48.6696 H   0  0  0  0  0  0  0  0  0  0  0  0
   61.3803   29.6971   48.7543 H   0  0  0  0  0  0  0  0  0  0  0  0
   61.3726   31.9727   50.1678 H   0  0  0  0  0  0  0  0  0  0  0  0
   62.8882   31.2869   49.4106 H   0  0  0  0  0  0  0  0  0  0  0  0
   62.1069   34.3195   50.1345 H   0  0  0  0  0  0  0  0  0  0  0  0
   61.7992   35.0550   48.4774 H   0  0  0  0  0  0  0  0  0  0  0  0
   59.7232   33.1809   49.4727 H   0  0  0  0  0  0  0  0  0  0  0  0
   59.8694   34.7365   50.3588 H   0  0  0  0  0  0  0  0  0  0  0  0
   59.5771   34.7365   48.5865 H   0  0  0  0  0  0  0  0  0  0  0  0
   64.1371   33.6514   48.5434 H   0  0  0  0  0  0  0  0  0  0  0  0
   63.8466   32.0878   47.6861 H   0  0  0  0  0  0  0  0  0  0  0  0
   63.2671   34.9192   46.7179 H   0  0  0  0  0  0  0  0  0  0  0  0
   64.3065   33.6646   45.9615 H   0  0  0  0  0  0  0  0  0  0  0  0
   62.5207   33.4710   45.9615 H   0  0  0  0  0  0  0  0  0  0  0  0
   60.6406   33.3512   46.9344 H   0  0  0  0  0  0  0  0  0  0  0  0
   59.3736   35.3801   46.2703 H   0  0  0  0  0  0  0  0  0  0  0  0
   57.3001   35.1799   44.9185 H   0  0  0  0  0  0  0  0  0  0  0  0
   56.4630   32.9488   44.2293 H   0  0  0  0  0  0  0  0  0  0  0  0
   55.5124   30.3539   44.6656 H   0  0  0  0  0  0  0  0  0  0  0  0
   56.2560   31.3427   43.3633 H   0  0  0  0  0  0  0  0  0  0  0  0
   56.4597   29.5580   43.3633 H   0  0  0  0  0  0  0  0  0  0  0  0
  1  2  1  0
  2  3  1  0
  3  4  2  0
  4  5  1  0
  5  6  2  0
  6  7  1  0
  7  8  1  0
  8  9  1  0
  9 10  1  0
 10 11  1  0
 11 12  1  0
 10 13  1  0
 13 14  1  0
  6 15  1  0
 15 16  2  0
 16 17  1  0
 17 18  2  0
 18 19  1  0
 19 20  2  0
 20 21  1  0
 21 22  1  0
 21 23  2  0
 23 24  1  0
 24  3  1  0
 23  5  1  0
 20 15  1  0
  1 25  1  0
  1 26  1  0
  1 27  1  0
  2 28  1  0
  2 29  1  0
  4 30  1  0
  7 31  1  0
  7 32  1  0
  8 33  1  0
  8 34  1  0
  9 35  1  0
  9 36  1  0
 11 37  1  0
 11 38  1  0
 12 39  1  0
 12 40  1  0
 12 41  1  0
 13 42  1  0
 13 43  1  0
 14 44  1  0
 14 45  1  0
 14 46  1  0
 16 47  1  0
 17 48  1  0
 18 49  1  0
 19 50  1  0
 22 51  1  0
 22 52  1  0
 22 53  1  0
M  CHG  2   7   1  21   1
M  END
>  <UniqueID>  (20) 
20

>  <SMILES>  (20) 
CCc1cc2c([NH2+]CCN(CC)CC)c3ccccc3[n+](C)c2s1

>  <Energy>  (20) 
99.2990477887157

>  <Genealogy>  (20) 
CCc1cc2c([NH2+]CCN(CC)CC)c3ccccc3[n+](C)c2s1 (protonated)
CCc1cc2c([NH2+]CCN(CC)CC)c3ccccc3[n+](C)c2s1 (3D coordinates assigned)
CCc1cc2c([NH2+]CCN(CC)CC)c3ccccc3[n+](C)c2s1 (optimized conformer: 99.2990477887157 kcal/mol)

>  <smiles>  (20) 
CCc1cc2c(NCCN(CC)CC)c3ccccc3[n+](C)c2s1

>  <score_type>  (20) 
oracle

>  <origin>  (20) 
adg

>  <m_score__min__energy>  (20) 
-4

>  <m_primary>  (20) 
energy

$$$$
20:0
     RDKit          3D

 30 32  0  0  0  0  0  0  0  0999 V2000
   58.9410   32.4580   48.6550 O   0  0  0  0  0  0  0  0  0  0  0  0
   59.4940   32.1190   47.5740 C   0  0  0  0  0  0  0  0  0  0  0  0
   60.9470   32.3580   47.3920 C   0  0  0  0  0  0  0  0  0  0  0  0
   61.8890   31.3590   47.7040 C   0  0  0  0  0  0  0  0  0  0  0  0
   63.2560   31.5970   47.5330 C   0  0  0  0  0  0  0  0  0  0  0  0
   63.6980   32.8350   47.0610 C   0  0  0  0  0  0  0  0  0  0  0  0
   62.7740   33.8380   46.7620 C   0  0  0  0  0  0  0  0  0  0  0  0
   61.4050   33.6050   46.9300 C   0  0  0  0  0  0  0  0  0  0  0  0
   58.6730   31.4760   46.5280 C   0  0  0  0  0  0  0  0  0  0  0  0
   57.7680   32.1000   45.6760 C   0  0  0  0  0  0  0  0  0  0  0  0
   57.3890   33.5480   45.6800 C   0  0  0  0  0  0  0  0  0  0  0  0
   58.8230   34.6060   44.9230 Br  0  0  0  0  0  0  0  0  0  0  0  0
   57.1690   31.1810   44.8800 N   0  0  0  0  0  0  0  0  0  0  0  0
   57.7450   30.0200   45.2520 C   0  0  0  0  0  0  0  0  0  0  0  0
   57.4740   28.7680   44.7040 C   0  0  0  0  0  0  0  0  0  0  0  0
   58.1860   27.6670   45.2030 C   0  0  0  0  0  0  0  0  0  0  0  0
   59.1450   27.8410   46.2190 C   0  0  0  0  0  0  0  0  0  0  0  0
   60.0450   26.4670   46.8310 Cl  0  0  0  0  0  0  0  0  0  0  0  0
   59.3790   29.1260   46.7340 C   0  0  0  0  0  0  0  0  0  0  0  0
   58.6520   30.1620   46.2360 N   0  0  0  0  0  0  0  0  0  0  0  0
   61.5472   30.3852   48.0847 H   0  0  0  0  0  0  0  0  0  0  0  0
   63.9847   30.8079   47.7706 H   0  0  0  0  0  0  0  0  0  0  0  0
   64.7738   33.0197   46.9249 H   0  0  0  0  0  0  0  0  0  0  0  0
   63.1234   34.8138   46.3934 H   0  0  0  0  0  0  0  0  0  0  0  0
   60.6824   34.4017   46.6994 H   0  0  0  0  0  0  0  0  0  0  0  0
   56.4770   33.6880   45.0812 H   0  0  0  0  0  0  0  0  0  0  0  0
   57.2072   33.8721   46.7153 H   0  0  0  0  0  0  0  0  0  0  0  0
   56.7263   28.6468   43.9063 H   0  0  0  0  0  0  0  0  0  0  0  0
   57.9940   26.6624   44.7983 H   0  0  0  0  0  0  0  0  0  0  0  0
   60.1308   29.2906   47.5199 H   0  0  0  0  0  0  0  0  0  0  0  0
  1  2  2  0
  2  3  1  0
  3  4  2  0
  4  5  1  0
  5  6  2  0
  6  7  1  0
  7  8  2  0
  2  9  1  0
  9 10  2  0
 10 11  1  0
 11 12  1  0
 10 13  1  0
 13 14  2  0
 14 15  1  0
 15 16  2  0
 16 17  1  0
 17 18  1  0
 17 19  2  0
 19 20  1  0
  8  3  1  0
 20  9  1  0
 20 14  1  0
  4 21  1  0
  5 22  1  0
  6 23  1  0
  7 24  1  0
  8 25  1  0
 11 26  1  0
 11 27  1  0
 15 28  1  0
 16 29  1  0
 19 30  1  0
M  END
>  <UniqueID>  (21) 
21

>  <SMILES>  (21) 
O=C(c1ccccc1)c1c(CBr)nc2ccc(Cl)cn12

>  <Energy>  (21) 
72.26300392729358

>  <Genealogy>  (21) 
O=C(c1ccccc1)c1c(CBr)nc2ccc(Cl)cn12 (3D coordinates assigned)
O=C(c1ccccc1)c1c(CBr)nc2ccc(Cl)cn12 (optimized conformer: 72.26300392729358 kcal/mol)

>  <smiles>  (21) 
O=C(c1ccccc1)c1c(CBr)nc2ccc(Cl)cn12

>  <score_type>  (21) 
oracle

>  <origin>  (21) 
adg

>  <m_score__min__energy>  (21) 
-7.7800000000000002

>  <m_primary>  (21) 
energy

$$$$
21:0
     RDKit          3D

 52 53  0  0  0  0  0  0  0  0999 V2000
   61.8630   33.4100   51.3260 C   0  0  0  0  0  0  0  0  0  0  0  0
   61.6830   33.6510   49.8300 C   0  0  0  0  0  0  0  0  0  0  0  0
   60.2790   33.4660   49.4370 N   0  0  0  0  0  0  0  0  0  0  0  0
   59.6210   34.4780   48.5930 C   0  0  0  0  0  0  0  0  0  0  0  0
   60.2840   34.5830   47.1970 C   0  0  0  0  0  0  0  0  0  0  0  0
   59.2290   34.9480   46.1170 C   0  0  0  0  0  0  0  0  0  0  0  0
   58.8700   33.7960   45.1570 C   0  0  0  0  0  0  0  0  0  0  0  0
   58.9240   32.4870   45.8310 N   0  0  0  0  0  0  0  0  0  0  0  0
   57.9200   31.4770   45.5980 C   0  0  0  0  0  0  0  0  0  0  0  0
   57.7850   30.5320   46.4240 O   0  0  0  0  0  0  0  0  0  0  0  0
   57.0030   31.5310   44.4020 C   0  0  0  0  0  0  0  0  0  0  0  0
   55.9480   30.5950   44.5240 O   0  0  0  0  0  0  0  0  0  0  0  0
   55.9430   29.7180   43.4180 C   0  0  0  0  0  0  0  0  0  0  0  0
   60.1100   32.1180   46.6200 C   0  0  0  0  0  0  0  0  0  0  0  0
   61.0590   33.3070   46.8100 C   0  0  0  0  0  0  0  0  0  0  0  0
   59.5590   32.2860   49.8480 C   0  0  0  0  0  0  0  0  0  0  0  0
   58.4860   32.3880   50.7430 C   0  0  0  0  0  0  0  0  0  0  0  0
   57.8040   31.2270   51.1130 C   0  0  0  0  0  0  0  0  0  0  0  0
   56.6560   31.2960   52.0690 C   0  0  0  0  0  0  0  0  0  0  0  0
   58.2000   30.0270   50.6140 N   0  0  0  0  0  0  0  0  0  0  0  0
   59.2510   29.9330   49.7580 C   0  0  0  0  0  0  0  0  0  0  0  0
   59.6470   28.5980   49.2140 C   0  0  0  0  0  0  0  0  0  0  0  0
   59.9220   31.0570   49.3790 N   0  0  0  0  0  0  0  0  0  0  0  0
   61.2978   34.1667   51.8899 H   0  0  0  0  0  0  0  0  0  0  0  0
   61.4909   32.4073   51.5833 H   0  0  0  0  0  0  0  0  0  0  0  0
   62.9301   33.4822   51.5833 H   0  0  0  0  0  0  0  0  0  0  0  0
   61.9921   34.6792   49.5906 H   0  0  0  0  0  0  0  0  0  0  0  0
   62.3017   32.9272   49.2792 H   0  0  0  0  0  0  0  0  0  0  0  0
   58.5639   34.2021   48.4651 H   0  0  0  0  0  0  0  0  0  0  0  0
   59.7177   35.4538   49.0914 H   0  0  0  0  0  0  0  0  0  0  0  0
   61.0261   35.3931   47.2522 H   0  0  0  0  0  0  0  0  0  0  0  0
   58.3094   35.2672   46.6294 H   0  0  0  0  0  0  0  0  0  0  0  0
   59.6757   35.7413   45.4996 H   0  0  0  0  0  0  0  0  0  0  0  0
   57.8521   33.9569   44.7722 H   0  0  0  0  0  0  0  0  0  0  0  0
   59.6050   33.7905   44.3386 H   0  0  0  0  0  0  0  0  0  0  0  0
   56.5780   32.5423   44.3209 H   0  0  0  0  0  0  0  0  0  0  0  0
   57.5870   31.2829   43.5034 H   0  0  0  0  0  0  0  0  0  0  0  0
   55.9371   28.6776   43.7751 H   0  0  0  0  0  0  0  0  0  0  0  0
   55.0459   29.9016   42.8085 H   0  0  0  0  0  0  0  0  0  0  0  0
   56.8421   29.8914   42.8085 H   0  0  0  0  0  0  0  0  0  0  0  0
   59.7836   31.7613   47.6081 H   0  0  0  0  0  0  0  0  0  0  0  0
   60.6522   31.3310   46.0752 H   0  0  0  0  0  0  0  0  0  0  0  0
   61.7781   33.0682   47.6074 H   0  0  0  0  0  0  0  0  0  0  0  0
   61.5809   33.4914   45.8594 H   0  0  0  0  0  0  0  0  0  0  0  0
   58.1859   33.3660   51.1474 H   0  0  0  0  0  0  0  0  0  0  0  0
   57.0363   31.2731   53.1009 H   0  0  0  0  0  0  0  0  0  0  0  0
   56.0975   32.2293   51.9046 H   0  0  0  0  0  0  0  0  0  0  0  0
   55.9898   30.4363   51.9046 H   0  0  0  0  0  0  0  0  0  0  0  0
   59.8514   27.9088   50.0466 H   0  0  0  0  0  0  0  0  0  0  0  0
   58.8294   28.1961   48.5976 H   0  0  0  0  0  0  0  0  0  0  0  0
   60.5515   28.7069   48.5976 H   0  0  0  0  0  0  0  0  0  0  0  0
   60.7120   30.9690   48.7010 H   0  0  0  0  0  0  0  0  0  0  0  0
  1  2  1  0
  2  3  1  0
  3  4  1  0
  4  5  1  0
  5  6  1  0
  6  7  1  0
  7  8  1  0
  8  9  1  0
  9 10  2  0
  9 11  1  0
 11 12  1  0
 12 13  1  0
  8 14  1  0
 14 15  1  0
  3 16  1  0
 16 17  2  0
 17 18  1  0
 18 19  1  0
 18 20  2  0
 20 21  1  0
 21 22  1  0
 21 23  2  0
 15  5  1  0
 23 16  1  0
  1 24  1  0
  1 25  1  0
  1 26  1  0
  2 27  1  0
  2 28  1  0
  4 29  1  0
  4 30  1  0
  5 31  1  0
  6 32  1  0
  6 33  1  0
  7 34  1  0
  7 35  1  0
 11 36  1  0
 11 37  1  0
 13 38  1  0
 13 39  1  0
 13 40  1  0
 14 41  1  0
 14 42  1  0
 15 43  1  0
 15 44  1  0
 17 45  1  0
 19 46  1  0
 19 47  1  0
 19 48  1  0
 22 49  1  0
 22 50  1  0
 22 51  1  0
 23 52  1  0
M  CHG  1  23   1
M  END
>  <UniqueID>  (22) 
22

>  <SMILES>  (22) 
CCN(CC1CCN(C(=O)COC)CC1)c1cc(C)nc(C)[nH+]1

>  <Energy>  (22) 
51.47734400696229

>  <Genealogy>  (22) 
CCN(CC1CCN(C(=O)COC)CC1)c1cc(C)nc(C)[nH+]1 (protonated)
CCN(CC1CCN(C(=O)COC)CC1)c1cc(C)nc(C)[nH+]1 (3D coordinates assigned)
CCN(CC1CCN(C(=O)COC)CC1)c1cc(C)nc(C)[nH+]1 (nonaromatic ring conformer: 51.47734400696229 kcal/mol)

>  <smiles>  (22) 
CCN(CC1CCN(C(=O)COC)CC1)c1cc(C)nc(C)n1

>  <score_type>  (22) 
oracle

>  <origin>  (22) 
adg

>  <m_score__min__energy>  (22) 
-5.6799999999999997

>  <m_primary>  (22) 
energy

$$$$
22:0
     RDKit          3D

 67 69  0  0  0  0  0  0  0  0999 V2000
   64.2740   33.4450   50.3830 C   0  0  0  0  0  0  0  0  0  0  0  0
   63.1940   33.8020   49.3590 C   0  0  0  0  0  0  0  0  0  0  0  0
   62.8630   32.6300   48.5020 N   0  0  0  0  0  0  0  0  0  0  0  0
   63.5760   32.6670   47.2000 C   0  0  0  0  0  0  0  0  0  0  0  0
   63.1800   33.8700   46.3470 C   0  0  0  0  0  0  0  0  0  0  0  0
   63.1430   31.3430   49.1990 C   0  0  0  0  0  0  0  0  0  0  0  0
   61.8420   30.5720   49.4740 C   0  0  0  0  0  0  0  0  0  0  0  0
   61.0530   30.2060   48.2130 C   0  0  0  0  0  0  0  0  0  0  0  0
   59.7470   30.8670   48.1850 N   0  0  0  0  0  0  0  0  0  0  0  0
   59.1650   31.3090   46.9500 C   0  0  0  0  0  0  0  0  0  0  0  0
   58.4700   30.3870   46.1480 C   0  0  0  0  0  0  0  0  0  0  0  0
   58.2230   29.0730   46.6020 C   0  0  0  0  0  0  0  0  0  0  0  0
   57.5070   28.1710   45.8190 C   0  0  0  0  0  0  0  0  0  0  0  0
   57.0130   28.5640   44.5800 C   0  0  0  0  0  0  0  0  0  0  0  0
   57.2560   29.8540   44.1070 C   0  0  0  0  0  0  0  0  0  0  0  0
   58.0170   30.7820   44.8630 C   0  0  0  0  0  0  0  0  0  0  0  0
   58.3140   32.0400   44.3820 N   0  0  0  0  0  0  0  0  0  0  0  0
   58.1340   32.3420   42.9450 C   0  0  0  0  0  0  0  0  0  0  0  0
   58.7960   33.0130   45.2400 C   0  0  0  0  0  0  0  0  0  0  0  0
   58.8220   34.3760   44.8580 C   0  0  0  0  0  0  0  0  0  0  0  0
   59.3360   35.3490   45.7040 C   0  0  0  0  0  0  0  0  0  0  0  0
   59.8070   35.0080   46.9610 C   0  0  0  0  0  0  0  0  0  0  0  0
   59.7490   33.6800   47.4120 C   0  0  0  0  0  0  0  0  0  0  0  0
   60.1670   33.3560   48.7140 O   0  0  0  0  0  0  0  0  0  0  0  0
   59.6320   33.8800   49.9310 C   0  0  0  0  0  0  0  0  0  0  0  0
   59.6730   32.8230   51.0400 C   0  0  0  0  0  0  0  0  0  0  0  0
   58.5660   31.8540   50.8910 N   0  0  0  0  0  0  0  0  0  0  0  0
   57.3810   32.2830   51.6550 C   0  0  0  0  0  0  0  0  0  0  0  0
   58.9820   30.5150   51.3370 C   0  0  0  0  0  0  0  0  0  0  0  0
   59.2570   32.6610   46.5430 C   0  0  0  0  0  0  0  0  0  0  0  0
   63.8739   33.5772   51.3991 H   0  0  0  0  0  0  0  0  0  0  0  0
   64.5803   32.3978   50.2429 H   0  0  0  0  0  0  0  0  0  0  0  0
   65.1440   34.1033   50.2429 H   0  0  0  0  0  0  0  0  0  0  0  0
   62.2873   34.1264   49.8907 H   0  0  0  0  0  0  0  0  0  0  0  0
   63.5737   34.6100   48.7164 H   0  0  0  0  0  0  0  0  0  0  0  0
   64.6581   32.7125   47.3922 H   0  0  0  0  0  0  0  0  0  0  0  0
   63.3003   31.7591   46.6435 H   0  0  0  0  0  0  0  0  0  0  0  0
   62.9038   34.7092   47.0024 H   0  0  0  0  0  0  0  0  0  0  0  0
   64.0286   34.1646   45.7121 H   0  0  0  0  0  0  0  0  0  0  0  0
   62.3224   33.6029   45.7121 H   0  0  0  0  0  0  0  0  0  0  0  0
   63.7997   30.7270   48.5671 H   0  0  0  0  0  0  0  0  0  0  0  0
   63.6300   31.5634   50.1604 H   0  0  0  0  0  0  0  0  0  0  0  0
   62.0969   29.6424   50.0039 H   0  0  0  0  0  0  0  0  0  0  0  0
   61.1987   31.2374   50.0685 H   0  0  0  0  0  0  0  0  0  0  0  0
   61.6292   30.5158   47.3287 H   0  0  0  0  0  0  0  0  0  0  0  0
   60.8888   29.1183   48.2129 H   0  0  0  0  0  0  0  0  0  0  0  0
   59.1780   30.9270   49.0580 H   0  0  0  0  0  0  0  0  0  0  0  0
   58.6007   28.7580   47.5860 H   0  0  0  0  0  0  0  0  0  0  0  0
   57.3321   27.1470   46.1808 H   0  0  0  0  0  0  0  0  0  0  0  0
   56.4298   27.8569   43.9719 H   0  0  0  0  0  0  0  0  0  0  0  0
   56.8502   30.1567   43.1304 H   0  0  0  0  0  0  0  0  0  0  0  0
   57.5736   33.2822   42.8353 H   0  0  0  0  0  0  0  0  0  0  0  0
   59.1188   32.4440   42.4656 H   0  0  0  0  0  0  0  0  0  0  0  0
   57.5758   31.5243   42.4656 H   0  0  0  0  0  0  0  0  0  0  0  0
   58.4280   34.6690   43.8737 H   0  0  0  0  0  0  0  0  0  0  0  0
   59.3695   36.3978   45.3739 H   0  0  0  0  0  0  0  0  0  0  0  0
   60.2310   35.7861   47.6128 H   0  0  0  0  0  0  0  0  0  0  0  0
   60.2267   34.7519   50.2410 H   0  0  0  0  0  0  0  0  0  0  0  0
   58.5856   34.1730   49.7602 H   0  0  0  0  0  0  0  0  0  0  0  0
   60.6311   32.2850   50.9887 H   0  0  0  0  0  0  0  0  0  0  0  0
   59.5665   33.3296   52.0105 H   0  0  0  0  0  0  0  0  0  0  0  0
   57.5917   32.2067   52.7319 H   0  0  0  0  0  0  0  0  0  0  0  0
   57.1391   33.3257   51.4017 H   0  0  0  0  0  0  0  0  0  0  0  0
   56.5277   31.6367   51.4017 H   0  0  0  0  0  0  0  0  0  0  0  0
   58.9924   30.4815   52.4364 H   0  0  0  0  0  0  0  0  0  0  0  0
   58.2746   29.7647   50.9540 H   0  0  0  0  0  0  0  0  0  0  0  0
   59.9900   30.2977   50.9540 H   0  0  0  0  0  0  0  0  0  0  0  0
  1  2  1  0
  2  3  1  0
  3  4  1  0
  4  5  1  0
  3  6  1  0
  6  7  1  0
  7  8  1  0
  8  9  1  0
  9 10  1  0
 10 11  2  0
 11 12  1  0
 12 13  2  0
 13 14  1  0
 14 15  2  0
 15 16  1  0
 16 17  2  0
 17 18  1  0
 17 19  1  0
 19 20  2  0
 20 21  1  0
 21 22  2  0
 22 23  1  0
 23 24  1  0
 24 25  1  0
 25 26  1  0
 26 27  1  0
 27 28  1  0
 27 29  1  0
 23 30  2  0
 30 10  1  0
 16 11  1  0
 30 19  1  0
  1 31  1  0
  1 32  1  0
  1 33  1  0
  2 34  1  0
  2 35  1  0
  4 36  1  0
  4 37  1  0
  5 38  1  0
  5 39  1  0
  5 40  1  0
  6 41  1  0
  6 42  1  0
  7 43  1  0
  7 44  1  0
  8 45  1  0
  8 46  1  0
  9 47  1  0
 12 48  1  0
 13 49  1  0
 14 50  1  0
 15 51  1  0
 18 52  1  0
 18 53  1  0
 18 54  1  0
 20 55  1  0
 21 56  1  0
 22 57  1  0
 25 58  1  0
 25 59  1  0
 26 60  1  0
 26 61  1  0
 28 62  1  0
 28 63  1  0
 28 64  1  0
 29 65  1  0
 29 66  1  0
 29 67  1  0
M  CHG  1  17   1
M  END
>  <UniqueID>  (23) 
23

>  <SMILES>  (23) 
CCN(CC)CCCNc1c2ccccc2[n+](C)c2cccc(OCCN(C)C)c12

>  <Energy>  (23) 
96.6554512120723

>  <Genealogy>  (23) 
CCN(CC)CCCNc1c2ccccc2[n+](C)c2cccc(OCCN(C)C)c12 (3D coordinates assigned)
CCN(CC)CCCNc1c2ccccc2[n+](C)c2cccc(OCCN(C)C)c12 (optimized conformer: 96.6554512120723 kcal/mol)

>  <smiles>  (23) 
CCN(CC)CCCNc1c2ccccc2[n+](C)c2cccc(OCCN(C)C)c12

>  <score_type>  (23) 
oracle

>  <origin>  (23) 
adg

>  <m_score__min__energy>  (23) 
-5.5599999999999996

>  <m_primary>  (23) 
energy

$$$$
23:0
     RDKit          3D

 22 23  0  0  0  0  0  0  0  0999 V2000
   58.3510   34.2960   45.5230 C   0  0  0  0  0  0  0  0  0  0  0  0
   59.4870   34.1280   46.4860 C   0  0  0  0  0  0  0  0  0  0  0  0
   59.2860   34.3230   47.8730 C   0  0  0  0  0  0  0  0  0  0  0  0
   60.3560   34.2050   48.7730 C   0  0  0  0  0  0  0  0  0  0  0  0
   61.6140   33.9020   48.2470 C   0  0  0  0  0  0  0  0  0  0  0  0
   62.7680   33.7510   48.9290 N   0  0  0  0  0  0  0  0  0  0  0  0
   62.9830   33.8730   50.3660 C   0  0  0  0  0  0  0  0  0  0  0  0
   63.7030   33.4840   47.9860 C   0  0  0  0  0  0  0  0  0  0  0  0
   63.0920   33.4730   46.7390 C   0  0  0  0  0  0  0  0  0  0  0  0
   61.7860   33.7370   46.9260 N   0  0  0  0  0  0  0  0  0  0  0  0
   60.7830   33.8410   46.0180 C   0  0  0  0  0  0  0  0  0  0  0  0
   57.4139   34.4346   46.0821 H   0  0  0  0  0  0  0  0  0  0  0  0
   58.5341   35.1768   44.8901 H   0  0  0  0  0  0  0  0  0  0  0  0
   58.2713   33.3999   44.8901 H   0  0  0  0  0  0  0  0  0  0  0  0
   58.2820   34.5693   48.2490 H   0  0  0  0  0  0  0  0  0  0  0  0
   60.2094   34.3461   49.8540 H   0  0  0  0  0  0  0  0  0  0  0  0
   62.1481   33.3993   50.9032 H   0  0  0  0  0  0  0  0  0  0  0  0
   63.9248   33.3747   50.6394 H   0  0  0  0  0  0  0  0  0  0  0  0
   63.0383   34.9370   50.6394 H   0  0  0  0  0  0  0  0  0  0  0  0
   64.7715   33.3052   48.1768 H   0  0  0  0  0  0  0  0  0  0  0  0
   63.5856   33.2831   45.7745 H   0  0  0  0  0  0  0  0  0  0  0  0
   60.9777   33.7045   44.9440 H   0  0  0  0  0  0  0  0  0  0  0  0
  1  2  1  0
  2  3  2  0
  3  4  1  0
  4  5  2  0
  5  6  1  0
  6  7  1  0
  6  8  1  0
  8  9  2  0
  9 10  1  0
 10 11  2  0
 11  2  1  0
 10  5  1  0
  1 12  1  0
  1 13  1  0
  1 14  1  0
  3 15  1  0
  4 16  1  0
  7 17  1  0
  7 18  1  0
  7 19  1  0
  8 20  1  0
  9 21  1  0
 11 22  1  0
M  CHG  1  10   1
M  END
>  <UniqueID>  (24) 
24

>  <SMILES>  (24) 
Cc1ccc2n(C)cc[n+]2c1

>  <Energy>  (24) 
57.224664033903466

>  <Genealogy>  (24) 
Cc1ccc2n(C)cc[n+]2c1 (3D coordinates assigned)
Cc1ccc2n(C)cc[n+]2c1 (optimized conformer: 57.224664033903466 kcal/mol)

>  <smiles>  (24) 
Cc1ccc2n(C)cc[n+]2c1

>  <score_type>  (24) 
oracle

>  <origin>  (24) 
adg

>  <m_score__min__energy>  (24) 
-3.1699999999999999

>  <m_primary>  (24) 
energy

$$$$
24:0
     RDKit          3D

 70 73  0  0  0  0  0  0  0  0999 V2000
   57.8159   31.2148   43.2268 H   0  0  0  0  0  0  0  0  0  0  0  0
   57.7650   32.2870   43.4670 C   0  0  0  0  0  0  0  0  0  0  0  0
   57.1442   32.9587   42.8559 H   0  0  0  0  0  0  0  0  0  0  0  0
   58.4580   32.7740   44.5020 C   0  0  0  0  0  0  0  0  0  0  0  0
   59.0751   32.0918   45.1052 H   0  0  0  0  0  0  0  0  0  0  0  0
   58.4120   34.2300   44.8580 C   0  0  0  0  0  0  0  0  0  0  0  0
   59.2424   34.7548   44.3629 H   0  0  0  0  0  0  0  0  0  0  0  0
   57.4557   34.6588   44.5240 H   0  0  0  0  0  0  0  0  0  0  0  0
   58.5340   34.3820   46.3040 N   0  0  0  0  0  0  0  0  0  0  0  0
   59.1680   33.6100   47.1440 C   0  0  0  0  0  0  0  0  0  0  0  0
   58.2170   32.3600   48.0190 S   0  0  0  0  0  0  0  0  0  0  0  0
   59.5650   31.1150   48.1880 C   0  0  0  0  0  0  0  0  0  0  0  0
   60.5209   31.6175   47.9790 H   0  0  0  0  0  0  0  0  0  0  0  0
   59.4912   30.7214   49.2125 H   0  0  0  0  0  0  0  0  0  0  0  0
   59.4510   29.8880   47.2450 C   0  0  2  0  0  0  0  0  0  0  0  0
   59.3190   28.5660   48.0530 C   0  0  0  0  0  0  0  0  0  0  0  0
   60.2224   28.4223   48.6639 H   0  0  0  0  0  0  0  0  0  0  0  0
   58.4323   28.6295   48.7009 H   0  0  0  0  0  0  0  0  0  0  0  0
   59.1560   27.3660   47.0940 C   0  0  1  0  0  0  0  0  0  0  0  0
   59.0670   26.4388   47.6792 H   0  0  0  0  0  0  0  0  0  0  0  0
   57.8850   27.5560   46.2390 C   0  0  0  0  0  0  0  0  0  0  0  0
   57.7700   26.6997   45.5582 H   0  0  0  0  0  0  0  0  0  0  0  0
   57.0069   27.6218   46.8982 H   0  0  0  0  0  0  0  0  0  0  0  0
   58.0070   28.8550   45.4150 C   0  0  2  0  0  0  0  0  0  0  0  0
   57.1014   28.9891   44.8051 H   0  0  0  0  0  0  0  0  0  0  0  0
   59.2400   28.7670   44.4910 C   0  0  0  0  0  0  0  0  0  0  0  0
   59.1253   27.9123   43.8082 H   0  0  0  0  0  0  0  0  0  0  0  0
   59.3261   29.6957   43.9078 H   0  0  0  0  0  0  0  0  0  0  0  0
   60.5130   28.5770   45.3420 C   0  0  2  0  0  0  0  0  0  0  0  0
   61.3895   28.5094   44.6808 H   0  0  0  0  0  0  0  0  0  0  0  0
   60.3910   27.2780   46.1680 C   0  0  0  0  0  0  0  0  0  0  0  0
   60.2782   26.4209   45.4878 H   0  0  0  0  0  0  0  0  0  0  0  0
   61.2966   27.1470   46.7785 H   0  0  0  0  0  0  0  0  0  0  0  0
   60.6800   29.7820   46.2960 C   0  0  0  0  0  0  0  0  0  0  0  0
   61.5922   29.6473   46.8959 H   0  0  0  0  0  0  0  0  0  0  0  0
   60.7557   30.7041   45.7010 H   0  0  0  0  0  0  0  0  0  0  0  0
   58.1710   30.0540   46.3740 C   0  0  0  0  0  0  0  0  0  0  0  0
   58.2520   30.9795   45.7851 H   0  0  0  0  0  0  0  0  0  0  0  0
   57.2945   30.1003   47.0370 H   0  0  0  0  0  0  0  0  0  0  0  0
   60.5850   33.6920   47.4000 N   0  0  0  0  0  0  0  0  0  0  0  0
   60.9150   33.2060   48.2620 H   0  0  0  0  0  0  0  0  0  0  0  0
   61.5920   34.0030   46.3820 C   0  0  0  0  0  0  0  0  0  0  0  0
   61.4436   33.3382   45.5183 H   0  0  0  0  0  0  0  0  0  0  0  0
   61.4732   35.0572   46.0912 H   0  0  0  0  0  0  0  0  0  0  0  0
   63.0150   33.8110   46.9190 C   0  0  0  0  0  0  0  0  0  0  0  0
   63.7282   34.1521   46.1542 H   0  0  0  0  0  0  0  0  0  0  0  0
   63.1005   34.3959   47.8467 H   0  0  0  0  0  0  0  0  0  0  0  0
   63.3900   32.0620   47.3320 S   0  0  0  0  0  0  0  0  0  0  0  0
   64.1620   32.3240   48.9720 C   0  0  0  0  0  0  0  0  0  0  0  0
   64.8896   31.5201   49.1574 H   0  0  0  0  0  0  0  0  0  0  0  0
   64.6573   33.3062   48.9680 H   0  0  0  0  0  0  0  0  0  0  0  0
   63.1420   32.3170   50.0630 C   0  0  0  0  0  0  0  0  0  0  0  0
   61.8600   32.0970   49.8730 O   0  0  0  0  0  0  0  0  0  0  0  0
   61.2570   32.1460   51.0400 C   0  0  0  0  0  0  0  0  0  0  0  0
   59.7790   31.9400   51.2310 C   0  0  0  0  0  0  0  0  0  0  0  0
   59.4296   31.2125   50.4836 H   0  0  0  0  0  0  0  0  0  0  0  0
   59.6330   31.5833   52.2613 H   0  0  0  0  0  0  0  0  0  0  0  0
   58.9860   33.1790   51.0840 N   0  0  0  0  0  0  0  0  0  0  0  0
   58.5290   33.7060   52.3820 C   0  0  0  0  0  0  0  0  0  0  0  0
   59.0138   33.1470   53.1959 H   0  0  0  0  0  0  0  0  0  0  0  0
   58.7946   34.7706   52.4595 H   0  0  0  0  0  0  0  0  0  0  0  0
   57.4375   33.5938   52.4595 H   0  0  0  0  0  0  0  0  0  0  0  0
   59.7050   34.2140   50.3240 C   0  0  0  0  0  0  0  0  0  0  0  0
   60.1897   34.9117   51.0227 H   0  0  0  0  0  0  0  0  0  0  0  0
   60.4690   33.7395   49.6906 H   0  0  0  0  0  0  0  0  0  0  0  0
   58.9937   34.7644   49.6906 H   0  0  0  0  0  0  0  0  0  0  0  0
   62.1760   32.4120   52.0390 C   0  0  0  0  0  0  0  0  0  0  0  0
   61.9753   32.5146   53.1157 H   0  0  0  0  0  0  0  0  0  0  0  0
   63.3970   32.5220   51.4050 C   0  0  0  0  0  0  0  0  0  0  0  0
   64.3712   32.7298   51.8716 H   0  0  0  0  0  0  0  0  0  0  0  0
  1  2  1  0
  2  3  1  0
  2  4  2  0
  4  5  1  0
  4  6  1  0
  6  7  1  0
  6  8  1  0
  6  9  1  0
  9 10  2  0
 10 11  1  0
 11 12  1  0
 12 13  1  0
 12 14  1  0
 15 12  1  1
 15 16  1  0
 16 17  1  0
 16 18  1  0
 16 19  1  0
 19 20  1  1
 19 21  1  0
 21 22  1  0
 21 23  1  0
 21 24  1  0
 24 25  1  6
 24 26  1  0
 26 27  1  0
 26 28  1  0
 26 29  1  0
 29 30  1  6
 29 31  1  0
 31 32  1  0
 31 33  1  0
 29 34  1  0
 34 35  1  0
 34 36  1  0
 24 37  1  0
 37 38  1  0
 37 39  1  0
 10 40  1  0
 40 41  1  0
 40 42  1  0
 42 43  1  0
 42 44  1  0
 42 45  1  0
 45 46  1  0
 45 47  1  0
 45 48  1  0
 48 49  1  0
 49 50  1  0
 49 51  1  0
 49 52  1  0
 52 53  1  0
 53 54  1  0
 54 55  1  0
 55 56  1  0
 55 57  1  0
 55 58  1  0
 58 59  1  0
 59 60  1  0
 59 61  1  0
 59 62  1  0
 58 63  1  0
 63 64  1  0
 63 65  1  0
 63 66  1  0
 54 67  2  0
 67 68  1  0
 67 69  1  0
 69 70  1  0
 34 15  1  0
 69 52  2  0
 37 15  1  0
 31 19  1  0
M  END
>  <UniqueID>  (25) 
25

>  <SMILES>  (25) 
C=CC/N=C(\NCCSCc1ccc(CN(C)C)o1)SCC12CC3CC(CC(C3)C1)C2

>  <Energy>  (25) 
89.65597875323968

>  <Genealogy>  (25) 
C=CC/N=C(\NCCSCc1ccc(CN(C)C)o1)SCC12CC3CC(CC(C3)C1)C2 (cis-trans isomerization)
C=CC/N=C(\NCCSCc1ccc(CN(C)C)o1)SCC12CC3CC(CC(C3)C1)C2 (3D coordinates assigned)
C=CC/N=C(\NCCSCc1ccc(CN(C)C)o1)SCC12CC3CC(CC(C3)C1)C2 (nonaromatic ring conformer: 89.65597875323968 kcal/mol)

>  <smiles>  (25) 
C=CCN=C(NCCSCc1ccc(CN(C)C)o1)SCC12CC3CC(CC(C3)C1)C2

>  <score_type>  (25) 
oracle

>  <origin>  (25) 
adg

>  <m_score__min__energy>  (25) 
-8.3900000000000006

>  <m_primary>  (25) 
energy

$$$$
25:0
     RDKit          3D

 50 52  0  0  0  0  0  0  0  0999 V2000
   59.2810   33.4510   50.7460 C   0  0  0  0  0  0  0  0  0  0  0  0
   60.0300   33.1520   49.5740 O   0  0  0  0  0  0  0  0  0  0  0  0
   59.4590   32.5000   48.4740 C   0  0  0  0  0  0  0  0  0  0  0  0
   59.0750   31.1460   48.5620 C   0  0  0  0  0  0  0  0  0  0  0  0
   59.1930   30.3930   49.8260 C   0  0  0  0  0  0  0  0  0  0  0  0
   58.1490   30.1050   50.4670 O   0  0  0  0  0  0  0  0  0  0  0  0
   60.4640   29.9920   50.3500 N   0  0  0  0  0  0  0  0  0  0  0  0
   60.9890   30.4090   51.6460 C   0  0  0  0  0  0  0  0  0  0  0  0
   62.2030   31.3440   51.4670 C   0  0  0  0  0  0  0  0  0  0  0  0
   62.3110   32.0090   50.1420 N   0  0  1  0  0  0  0  0  0  0  0  0
   62.8220   33.3940   50.2310 C   0  0  0  0  0  0  0  0  0  0  0  0
   62.7350   34.0970   48.8670 C   0  0  0  0  0  0  0  0  0  0  0  0
   63.5030   33.2990   47.7990 C   0  0  2  0  0  0  0  0  0  0  0  0
   63.3510   33.9530   46.4220 C   0  0  0  0  0  0  0  0  0  0  0  0
   63.0150   31.8400   47.7660 C   0  0  0  0  0  0  0  0  0  0  0  0
   63.0940   31.2140   49.1670 C   0  0  0  0  0  0  0  0  0  0  0  0
   58.5680   30.4920   47.4330 C   0  0  0  0  0  0  0  0  0  0  0  0
   58.3880   31.1740   46.2270 C   0  0  0  0  0  0  0  0  0  0  0  0
   57.6670   30.1770   44.7510 Br  0  0  0  0  0  0  0  0  0  0  0  0
   58.7220   32.5420   46.1360 C   0  0  0  0  0  0  0  0  0  0  0  0
   58.5400   33.2650   44.9400 C   0  0  0  0  0  0  0  0  0  0  0  0
   58.8820   34.6170   44.8690 C   0  0  0  0  0  0  0  0  0  0  0  0
   59.4120   35.2660   45.9830 C   0  0  0  0  0  0  0  0  0  0  0  0
   59.6010   34.5700   47.1770 C   0  0  0  0  0  0  0  0  0  0  0  0
   59.2600   33.2070   47.2710 C   0  0  0  0  0  0  0  0  0  0  0  0
   59.8814   33.2113   51.6360 H   0  0  0  0  0  0  0  0  0  0  0  0
   59.0242   34.5206   50.7541 H   0  0  0  0  0  0  0  0  0  0  0  0
   58.3582   32.8523   50.7541 H   0  0  0  0  0  0  0  0  0  0  0  0
   60.2019   30.9412   52.2002 H   0  0  0  0  0  0  0  0  0  0  0  0
   61.3095   29.5156   52.2019 H   0  0  0  0  0  0  0  0  0  0  0  0
   62.1423   32.1286   52.2356 H   0  0  0  0  0  0  0  0  0  0  0  0
   63.0925   30.7029   51.5556 H   0  0  0  0  0  0  0  0  0  0  0  0
   61.3280   32.0620   49.7780 H   0  0  0  0  0  0  0  0  0  0  0  0
   63.8719   33.3706   50.5583 H   0  0  0  0  0  0  0  0  0  0  0  0
   62.2076   33.9505   50.9541 H   0  0  0  0  0  0  0  0  0  0  0  0
   63.1712   35.1034   48.9501 H   0  0  0  0  0  0  0  0  0  0  0  0
   61.6784   34.1648   48.5687 H   0  0  0  0  0  0  0  0  0  0  0  0
   64.5709   33.3020   48.0628 H   0  0  0  0  0  0  0  0  0  0  0  0
   63.1036   35.0175   46.5470 H   0  0  0  0  0  0  0  0  0  0  0  0
   64.2950   33.8589   45.8652 H   0  0  0  0  0  0  0  0  0  0  0  0
   62.5453   33.4522   45.8652 H   0  0  0  0  0  0  0  0  0  0  0  0
   63.6471   31.2625   47.0754 H   0  0  0  0  0  0  0  0  0  0  0  0
   61.9686   31.8226   47.4272 H   0  0  0  0  0  0  0  0  0  0  0  0
   64.1453   31.1817   49.4891 H   0  0  0  0  0  0  0  0  0  0  0  0
   62.6762   30.1974   49.1236 H   0  0  0  0  0  0  0  0  0  0  0  0
   58.3074   29.4252   47.4963 H   0  0  0  0  0  0  0  0  0  0  0  0
   58.1251   32.7601   44.0551 H   0  0  0  0  0  0  0  0  0  0  0  0
   58.7327   35.1717   43.9309 H   0  0  0  0  0  0  0  0  0  0  0  0
   59.6821   36.3305   45.9203 H   0  0  0  0  0  0  0  0  0  0  0  0
   60.0195   35.0897   48.0515 H   0  0  0  0  0  0  0  0  0  0  0  0
  1  2  1  0
  2  3  1  0
  3  4  2  0
  4  5  1  0
  5  6  2  0
  5  7  1  0
  7  8  1  0
  8  9  1  0
  9 10  1  0
 10 11  1  0
 11 12  1  0
 12 13  1  0
 13 14  1  0
 13 15  1  0
 15 16  1  0
  4 17  1  0
 17 18  2  0
 18 19  1  0
 18 20  1  0
 20 21  2  0
 21 22  1  0
 22 23  2  0
 23 24  1  0
 24 25  2  0
 25  3  1  0
 16 10  1  0
 25 20  1  0
  1 26  1  0
  1 27  1  0
  1 28  1  0
  8 29  1  0
  8 30  1  0
  9 31  1  0
  9 32  1  0
 10 33  1  6
 11 34  1  0
 11 35  1  0
 12 36  1  0
 12 37  1  0
 13 38  1  1
 14 39  1  0
 14 40  1  0
 14 41  1  0
 15 42  1  0
 15 43  1  0
 16 44  1  0
 16 45  1  0
 17 46  1  0
 21 47  1  0
 22 48  1  0
 23 49  1  0
 24 50  1  0
M  CHG  2   7  -1  10   1
M  END
>  <UniqueID>  (26) 
26

>  <SMILES>  (26) 
COc1c(C(=O)[N-]CC[NH+]2CCC(C)CC2)cc(Br)c2ccccc12

>  <Energy>  (26) 
63.940264829384425

>  <Genealogy>  (26) 
COc1c(C(=O)[N-]CC[NH+]2CCC(C)CC2)cc(Br)c2ccccc12 (protonated)
COc1c(C(=O)[N-]CC[NH+]2CCC(C)CC2)cc(Br)c2ccccc12 (3D coordinates assigned)
COc1c(C(=O)[N-]CC[NH+]2CCC(C)CC2)cc(Br)c2ccccc12 (nonaromatic ring conformer: 63.940264829384425 kcal/mol)

>  <smiles>  (26) 
COc1c(C(=O)NCCN2CCC(C)CC2)cc(Br)c2ccccc12

>  <score_type>  (26) 
oracle

>  <origin>  (26) 
adg

>  <m_score__min__energy>  (26) 
-6.8300000000000001

>  <m_primary>  (26) 
energy

$$$$
26:0
     RDKit          3D

 27 28  0  0  0  0  0  0  0  0999 V2000
   63.0760   32.3550   47.4730 C   0  0  0  0  0  0  0  0  0  0  0  0
   62.0530   31.2280   47.5670 C   0  0  0  0  0  0  0  0  0  0  0  0
   60.8950   31.5120   46.7210 N   0  0  0  0  0  0  0  0  0  0  0  0
   59.8120   30.5830   46.5480 C   0  0  0  0  0  0  0  0  0  0  0  0
   59.8410   28.9740   47.0650 S   0  0  0  0  0  0  0  0  0  0  0  0
   58.3340   28.5860   46.4350 C   0  0  0  0  0  0  0  0  0  0  0  0
   57.6650   27.3630   46.4700 C   0  0  0  0  0  0  0  0  0  0  0  0
   58.2500   26.1610   47.1430 C   0  0  0  0  0  0  0  0  0  0  0  0
   56.4500   27.2860   45.8610 N   0  0  0  0  0  0  0  0  0  0  0  0
   55.9050   28.3400   45.2430 N   0  0  0  0  0  0  0  0  0  0  0  0
   56.5300   29.5500   45.1880 C   0  0  0  0  0  0  0  0  0  0  0  0
   55.9810   30.5030   44.5790 O   0  0  0  0  0  0  0  0  0  0  0  0
   57.7820   29.6930   45.8080 C   0  0  0  0  0  0  0  0  0  0  0  0
   58.6030   30.8450   45.8810 C   0  0  0  0  0  0  0  0  0  0  0  0
   58.2300   32.1830   45.3040 C   0  0  0  0  0  0  0  0  0  0  0  0
   63.3649   32.6733   48.4855 H   0  0  0  0  0  0  0  0  0  0  0  0
   63.9655   31.9987   46.9328 H   0  0  0  0  0  0  0  0  0  0  0  0
   62.6355   33.2060   46.9328 H   0  0  0  0  0  0  0  0  0  0  0  0
   62.5195   30.2879   47.2375 H   0  0  0  0  0  0  0  0  0  0  0  0
   61.7167   31.1406   48.6107 H   0  0  0  0  0  0  0  0  0  0  0  0
   60.9110   32.3970   46.1690 H   0  0  0  0  0  0  0  0  0  0  0  0
   58.1892   26.2858   48.2342 H   0  0  0  0  0  0  0  0  0  0  0  0
   57.6878   25.2638   46.8447 H   0  0  0  0  0  0  0  0  0  0  0  0
   59.3029   26.0499   46.8447 H   0  0  0  0  0  0  0  0  0  0  0  0
   58.0322   32.8924   46.1211 H   0  0  0  0  0  0  0  0  0  0  0  0
   59.0576   32.5587   44.6845 H   0  0  0  0  0  0  0  0  0  0  0  0
   57.3273   32.0764   44.6845 H   0  0  0  0  0  0  0  0  0  0  0  0
  1  2  1  0
  2  3  1  0
  3  4  1  0
  4  5  1  0
  5  6  1  0
  6  7  1  0
  7  8  1  0
  7  9  2  0
  9 10  1  0
 10 11  1  0
 11 12  2  0
 11 13  1  0
 13 14  1  0
 14 15  1  0
 14  4  2  0
 13  6  2  0
  1 16  1  0
  1 17  1  0
  1 18  1  0
  2 19  1  0
  2 20  1  0
  3 21  1  0
  8 22  1  0
  8 23  1  0
  8 24  1  0
 15 25  1  0
 15 26  1  0
 15 27  1  0
M  CHG  1  10  -1
M  END
>  <UniqueID>  (27) 
27

>  <SMILES>  (27) 
CCNc1sc2c(C)n[n-]c(=O)c2c1C

>  <Energy>  (27) 
57.710093420838

>  <Genealogy>  (27) 
CCNc1sc2c(C)n[n-]c(=O)c2c1C (protonated)
CCNc1sc2c(C)n[n-]c(=O)c2c1C (3D coordinates assigned)
CCNc1sc2c(C)n[n-]c(=O)c2c1C (optimized conformer: 57.710093420838 kcal/mol)

>  <smiles>  (27) 
CCNc1sc2c(C)n[nH]c(=O)c2c1C

>  <score_type>  (27) 
oracle

>  <origin>  (27) 
adg

>  <m_score__min__energy>  (27) 
-7.9800000000000004

>  <m_primary>  (27) 
energy

$$$$
27:0
     RDKit          3D

 56 59  0  0  0  0  0  0  0  0999 V2000
   65.1900   32.8280   49.8410 C   0  0  0  0  0  0  0  0  0  0  0  0
   63.7810   33.2010   50.3300 C   0  0  0  0  0  0  0  0  0  0  0  0
   62.7720   33.2590   49.2460 N   0  0  0  0  0  0  0  0  0  0  0  0
   63.3800   33.4400   47.9100 C   0  0  0  0  0  0  0  0  0  0  0  0
   63.3630   32.1330   47.1200 C   0  0  0  0  0  0  0  0  0  0  0  0
   61.6730   34.2130   49.5300 C   0  0  0  0  0  0  0  0  0  0  0  0
   60.6480   33.5460   50.4500 C   0  0  0  0  0  0  0  0  0  0  0  0
   59.7110   32.6200   49.6610 C   0  0  0  0  0  0  0  0  0  0  0  0
   60.4730   31.7900   48.7140 N   0  0  0  0  0  0  0  0  0  0  0  0
   59.7490   31.6550   47.4670 C   0  0  0  0  0  0  0  0  0  0  0  0
   59.4630   32.7630   46.6230 C   0  0  0  0  0  0  0  0  0  0  0  0
   59.9200   34.0660   46.9290 C   0  0  0  0  0  0  0  0  0  0  0  0
   59.6450   35.1380   46.0840 C   0  0  0  0  0  0  0  0  0  0  0  0
   58.9220   34.9390   44.9150 C   0  0  0  0  0  0  0  0  0  0  0  0
   58.4570   33.6680   44.5830 C   0  0  0  0  0  0  0  0  0  0  0  0
   58.6960   32.5570   45.4290 C   0  0  0  0  0  0  0  0  0  0  0  0
   58.2150   31.2970   45.1100 N   0  0  0  0  0  0  0  0  0  0  0  0
   57.1110   31.1550   44.1420 C   0  0  0  0  0  0  0  0  0  0  0  0
   58.6880   30.2060   45.8050 C   0  0  0  0  0  0  0  0  0  0  0  0
   59.3830   30.3900   47.0010 C   0  0  0  0  0  0  0  0  0  0  0  0
   59.7170   28.9010   47.7250 S   0  0  0  0  0  0  0  0  0  0  0  0
   59.0310   27.9920   46.4940 C   0  0  0  0  0  0  0  0  0  0  0  0
   59.0050   26.6030   46.4040 C   0  0  0  0  0  0  0  0  0  0  0  0
   58.4900   26.0200   45.2410 C   0  0  0  0  0  0  0  0  0  0  0  0
   58.0470   26.8320   44.1830 C   0  0  0  0  0  0  0  0  0  0  0  0
   58.0890   28.2310   44.2880 C   0  0  0  0  0  0  0  0  0  0  0  0
   58.5390   28.8240   45.4850 C   0  0  0  0  0  0  0  0  0  0  0  0
   65.8449   32.6546   50.7076 H   0  0  0  0  0  0  0  0  0  0  0  0
   65.1368   31.9130   49.2328 H   0  0  0  0  0  0  0  0  0  0  0  0
   65.5965   33.6495   49.2328 H   0  0  0  0  0  0  0  0  0  0  0  0
   63.4581   32.4496   51.0656 H   0  0  0  0  0  0  0  0  0  0  0  0
   63.8468   34.2099   50.7633 H   0  0  0  0  0  0  0  0  0  0  0  0
   62.8122   34.2024   47.3565 H   0  0  0  0  0  0  0  0  0  0  0  0
   64.4251   33.7574   48.0404 H   0  0  0  0  0  0  0  0  0  0  0  0
   63.3519   31.2828   47.8179 H   0  0  0  0  0  0  0  0  0  0  0  0
   62.4643   32.0991   46.4866 H   0  0  0  0  0  0  0  0  0  0  0  0
   64.2605   32.0757   46.4866 H   0  0  0  0  0  0  0  0  0  0  0  0
   62.0814   35.1076   50.0227 H   0  0  0  0  0  0  0  0  0  0  0  0
   61.1866   34.5052   48.5877 H   0  0  0  0  0  0  0  0  0  0  0  0
   61.1797   32.9548   51.2101 H   0  0  0  0  0  0  0  0  0  0  0  0
   60.0419   34.3326   50.9233 H   0  0  0  0  0  0  0  0  0  0  0  0
   59.1748   31.9654   50.3639 H   0  0  0  0  0  0  0  0  0  0  0  0
   58.9989   33.2381   49.0946 H   0  0  0  0  0  0  0  0  0  0  0  0
   61.4050   32.2330   48.5410 H   0  0  0  0  0  0  0  0  0  0  0  0
   60.6830   30.8520   49.1240 H   0  0  0  0  0  0  0  0  0  0  0  0
   60.5010   34.2350   47.8477 H   0  0  0  0  0  0  0  0  0  0  0  0
   60.0016   36.1458   46.3432 H   0  0  0  0  0  0  0  0  0  0  0  0
   58.7154   35.7889   44.2479 H   0  0  0  0  0  0  0  0  0  0  0  0
   57.8949   33.5249   43.6483 H   0  0  0  0  0  0  0  0  0  0  0  0
   56.1616   31.0329   44.6840 H   0  0  0  0  0  0  0  0  0  0  0  0
   57.0595   32.0539   43.5101 H   0  0  0  0  0  0  0  0  0  0  0  0
   57.2887   30.2723   43.5101 H   0  0  0  0  0  0  0  0  0  0  0  0
   59.3806   25.9784   47.2279 H   0  0  0  0  0  0  0  0  0  0  0  0
   58.4318   24.9249   45.1547 H   0  0  0  0  0  0  0  0  0  0  0  0
   57.6634   26.3664   43.2632 H   0  0  0  0  0  0  0  0  0  0  0  0
   57.7731   28.8599   43.4426 H   0  0  0  0  0  0  0  0  0  0  0  0
  1  2  1  0
  2  3  1  0
  3  4  1  0
  4  5  1  0
  3  6  1  0
  6  7  1  0
  7  8  1  0
  8  9  1  0
  9 10  1  0
 10 11  2  0
 11 12  1  0
 12 13  2  0
 13 14  1  0
 14 15  2  0
 15 16  1  0
 16 17  2  0
 17 18  1  0
 17 19  1  0
 19 20  2  0
 20 21  1  0
 21 22  1  0
 22 23  2  0
 23 24  1  0
 24 25  2  0
 25 26  1  0
 26 27  2  0
 20 10  1  0
 27 22  1  0
 16 11  1  0
 27 19  1  0
  1 28  1  0
  1 29  1  0
  1 30  1  0
  2 31  1  0
  2 32  1  0
  4 33  1  0
  4 34  1  0
  5 35  1  0
  5 36  1  0
  5 37  1  0
  6 38  1  0
  6 39  1  0
  7 40  1  0
  7 41  1  0
  8 42  1  0
  8 43  1  0
  9 44  1  0
  9 45  1  0
 12 46  1  0
 13 47  1  0
 14 48  1  0
 15 49  1  0
 18 50  1  0
 18 51  1  0
 18 52  1  0
 23 53  1  0
 24 54  1  0
 25 55  1  0
 26 56  1  0
M  CHG  2   9   1  17   1
M  END
>  <UniqueID>  (28) 
28

>  <SMILES>  (28) 
CCN(CC)CCC[NH2+]c1c2ccccc2[n+](C)c2c1sc1ccccc12

>  <Energy>  (28) 
116.02769366779954

>  <Genealogy>  (28) 
CCN(CC)CCC[NH2+]c1c2ccccc2[n+](C)c2c1sc1ccccc12 (protonated)
CCN(CC)CCC[NH2+]c1c2ccccc2[n+](C)c2c1sc1ccccc12 (3D coordinates assigned)
CCN(CC)CCC[NH2+]c1c2ccccc2[n+](C)c2c1sc1ccccc12 (optimized conformer: 116.02769366779954 kcal/mol)

>  <smiles>  (28) 
CCN(CC)CCCNc1c2ccccc2[n+](C)c2c1sc1ccccc12

>  <score_type>  (28) 
oracle

>  <origin>  (28) 
adg

>  <m_score__min__energy>  (28) 
-5.3899999999999997

>  <m_primary>  (28) 
energy

$$$$
28:0
     RDKit          3D

 39 40  0  0  0  0  0  0  0  0999 V2000
   63.2110   32.1730   47.5470 C   0  0  0  0  0  0  0  0  0  0  0  0
   62.2310   31.0250   47.7600 C   0  0  0  0  0  0  0  0  0  0  0  0
   61.8020   30.4860   46.5090 O   0  0  0  0  0  0  0  0  0  0  0  0
   60.5490   29.9040   46.2520 C   0  0  0  0  0  0  0  0  0  0  0  0
   60.4090   28.7000   45.5350 C   0  0  0  0  0  0  0  0  0  0  0  0
   59.1450   28.1600   45.3000 C   0  0  0  0  0  0  0  0  0  0  0  0
   57.9970   28.8160   45.7610 C   0  0  0  0  0  0  0  0  0  0  0  0
   56.6560   28.2450   45.5260 C   0  0  0  0  0  0  0  0  0  0  0  0
   56.4100   27.0770   45.9280 O   0  0  0  0  0  0  0  0  0  0  0  0
   55.6090   28.9900   44.8900 N   0  0  0  0  0  0  0  0  0  0  0  0
   55.7430   29.6950   43.6210 C   0  0  0  0  0  0  0  0  0  0  0  0
   56.6210   30.8860   43.8110 C   0  0  0  0  0  0  0  0  0  0  0  0
   57.5660   31.3450   42.9140 C   0  0  0  0  0  0  0  0  0  0  0  0
   58.1060   32.4730   43.4920 C   0  0  0  0  0  0  0  0  0  0  0  0
   57.4570   32.6340   44.6990 C   0  0  0  0  0  0  0  0  0  0  0  0
   56.5750   31.6750   44.8600 O   0  0  0  0  0  0  0  0  0  0  0  0
   58.1320   30.0010   46.4980 C   0  0  0  0  0  0  0  0  0  0  0  0
   59.4050   30.5530   46.7450 C   0  0  0  0  0  0  0  0  0  0  0  0
   59.5820   31.7470   47.4660 O   0  0  0  0  0  0  0  0  0  0  0  0
   59.8620   33.0280   46.9040 C   0  0  0  0  0  0  0  0  0  0  0  0
   58.9340   34.0900   47.4870 C   0  0  0  0  0  0  0  0  0  0  0  0
   63.5408   32.5594   48.5227 H   0  0  0  0  0  0  0  0  0  0  0  0
   64.0828   31.8109   46.9823 H   0  0  0  0  0  0  0  0  0  0  0  0
   62.7166   32.9772   46.9823 H   0  0  0  0  0  0  0  0  0  0  0  0
   62.7239   30.2336   48.3437 H   0  0  0  0  0  0  0  0  0  0  0  0
   61.3518   31.4073   48.2994 H   0  0  0  0  0  0  0  0  0  0  0  0
   61.3030   28.1819   45.1577 H   0  0  0  0  0  0  0  0  0  0  0  0
   59.0491   27.2128   44.7490 H   0  0  0  0  0  0  0  0  0  0  0  0
   56.1903   29.0239   42.8729 H   0  0  0  0  0  0  0  0  0  0  0  0
   54.7514   30.0191   43.2722 H   0  0  0  0  0  0  0  0  0  0  0  0
   57.8315   30.9028   41.9424 H   0  0  0  0  0  0  0  0  0  0  0  0
   58.8954   33.1157   43.0753 H   0  0  0  0  0  0  0  0  0  0  0  0
   57.6496   33.4439   45.4180 H   0  0  0  0  0  0  0  0  0  0  0  0
   57.2352   30.5050   46.8874 H   0  0  0  0  0  0  0  0  0  0  0  0
   60.9047   33.2991   47.1259 H   0  0  0  0  0  0  0  0  0  0  0  0
   59.7024   32.9786   45.8168 H   0  0  0  0  0  0  0  0  0  0  0  0
   58.9717   34.0468   48.5855 H   0  0  0  0  0  0  0  0  0  0  0  0
   59.2570   35.0853   47.1479 H   0  0  0  0  0  0  0  0  0  0  0  0
   57.9044   33.9034   47.1479 H   0  0  0  0  0  0  0  0  0  0  0  0
  1  2  1  0
  2  3  1  0
  3  4  1  0
  4  5  2  0
  5  6  1  0
  6  7  2  0
  7  8  1  0
  8  9  2  0
  8 10  1  0
 10 11  1  0
 11 12  1  0
 12 13  2  0
 13 14  1  0
 14 15  2  0
 15 16  1  0
  7 17  1  0
 17 18  2  0
 18 19  1  0
 19 20  1  0
 20 21  1  0
 18  4  1  0
 16 12  1  0
  1 22  1  0
  1 23  1  0
  1 24  1  0
  2 25  1  0
  2 26  1  0
  5 27  1  0
  6 28  1  0
 11 29  1  0
 11 30  1  0
 13 31  1  0
 14 32  1  0
 15 33  1  0
 17 34  1  0
 20 35  1  0
 20 36  1  0
 21 37  1  0
 21 38  1  0
 21 39  1  0
M  CHG  1  10  -1
M  END
>  <UniqueID>  (29) 
29

>  <SMILES>  (29) 
CCOc1ccc(C(=O)[N-]Cc2ccco2)cc1OCC

>  <Energy>  (29) 
63.41859422546954

>  <Genealogy>  (29) 
CCOc1ccc(C(=O)[N-]Cc2ccco2)cc1OCC (protonated)
CCOc1ccc(C(=O)[N-]Cc2ccco2)cc1OCC (3D coordinates assigned)
CCOc1ccc(C(=O)[N-]Cc2ccco2)cc1OCC (optimized conformer: 63.41859422546954 kcal/mol)

>  <smiles>  (29) 
CCOc1ccc(C(=O)NCc2ccco2)cc1OCC

>  <score_type>  (29) 
oracle

>  <origin>  (29) 
adg

>  <m_score__min__energy>  (29) 
-7.8099999999999996

>  <m_primary>  (29) 
energy

$$$$
