0:0
     RDKit          3D

 42 44  0  0  0  0  0  0  0  0999 V2000
   59.9170   26.3670   46.1770 C   0  0  0  0  0  0  0  0  0  0  0  0
   59.0710   27.5990   46.0980 C   0  0  0  0  0  0  0  0  0  0  0  0
   57.8990   27.7220   45.3730 C   0  0  0  0  0  0  0  0  0  0  0  0
   57.5260   29.0430   45.5420 C   0  0  0  0  0  0  0  0  0  0  0  0
   56.3430   29.6900   44.9590 C   0  0  0  0  0  0  0  0  0  0  0  0
   56.4090   30.8780   44.5480 O   0  0  0  0  0  0  0  0  0  0  0  0
   55.1460   28.9940   44.8570 O   0  0  0  0  0  0  0  0  0  0  0  0
   58.4330   29.6670   46.3180 N   0  0  0  0  0  0  0  0  0  0  0  0
   59.3730   28.7960   46.6500 N   0  0  0  0  0  0  0  0  0  0  0  0
   60.5540   29.1320   47.4490 C   0  0  0  0  0  0  0  0  0  0  0  0
   60.1960   29.2310   48.9130 C   0  0  0  0  0  0  0  0  0  0  0  0
   60.7800   28.3430   49.8340 C   0  0  0  0  0  0  0  0  0  0  0  0
   60.4600   28.4190   51.1900 C   0  0  0  0  0  0  0  0  0  0  0  0
   61.0310   27.5600   52.0700 F   0  0  0  0  0  0  0  0  0  0  0  0
   59.5550   29.3800   51.6410 C   0  0  0  0  0  0  0  0  0  0  0  0
   58.9660   30.2680   50.7380 C   0  0  0  0  0  0  0  0  0  0  0  0
   59.2760   30.2010   49.3660 C   0  0  0  0  0  0  0  0  0  0  0  0
   58.7040   31.0780   48.4280 O   0  0  0  0  0  0  0  0  0  0  0  0
   58.4540   32.4680   48.6290 C   0  0  0  0  0  0  0  0  0  0  0  0
   58.4980   33.2140   47.3180 C   0  0  0  0  0  0  0  0  0  0  0  0
   57.3450   33.2860   46.5180 C   0  0  0  0  0  0  0  0  0  0  0  0
   57.3700   33.9660   45.2970 C   0  0  0  0  0  0  0  0  0  0  0  0
   58.5440   34.5870   44.8670 C   0  0  0  0  0  0  0  0  0  0  0  0
   59.6930   34.5330   45.6570 C   0  0  0  0  0  0  0  0  0  0  0  0
   59.6790   33.8550   46.8810 C   0  0  0  0  0  0  0  0  0  0  0  0
   61.1540   33.8370   47.8440 Cl  0  0  0  0  0  0  0  0  0  0  0  0
   60.0933   26.1103   47.2320 H   0  0  0  0  0  0  0  0  0  0  0  0
   59.3994   25.5342   45.6785 H   0  0  0  0  0  0  0  0  0  0  0  0
   60.8802   26.5510   45.6785 H   0  0  0  0  0  0  0  0  0  0  0  0
   57.3807   26.9443   44.7929 H   0  0  0  0  0  0  0  0  0  0  0  0
   58.4200   30.6710   46.6050 H   0  0  0  0  0  0  0  0  0  0  0  0
   61.3153   28.3494   47.3153 H   0  0  0  0  0  0  0  0  0  0  0  0
   60.9440   30.1042   47.1132 H   0  0  0  0  0  0  0  0  0  0  0  0
   61.4939   27.5833   49.4830 H   0  0  0  0  0  0  0  0  0  0  0  0
   59.3046   29.4386   52.7105 H   0  0  0  0  0  0  0  0  0  0  0  0
   58.2551   31.0249   51.1011 H   0  0  0  0  0  0  0  0  0  0  0  0
   57.4599   32.5940   49.0827 H   0  0  0  0  0  0  0  0  0  0  0  0
   59.2313   32.8743   49.2928 H   0  0  0  0  0  0  0  0  0  0  0  0
   56.4157   32.8036   46.8552 H   0  0  0  0  0  0  0  0  0  0  0  0
   56.4641   34.0118   44.6746 H   0  0  0  0  0  0  0  0  0  0  0  0
   58.5633   35.1194   43.9046 H   0  0  0  0  0  0  0  0  0  0  0  0
   60.6150   35.0262   45.3156 H   0  0  0  0  0  0  0  0  0  0  0  0
  1  2  1  0
  2  3  2  0
  3  4  1  0
  4  5  1  0
  5  6  2  0
  5  7  1  0
  4  8  2  0
  8  9  1  0
  9 10  1  0
 10 11  1  0
 11 12  2  0
 12 13  1  0
 13 14  1  0
 13 15  2  0
 15 16  1  0
 16 17  2  0
 17 18  1  0
 18 19  1  0
 19 20  1  0
 20 21  2  0
 21 22  1  0
 22 23  2  0
 23 24  1  0
 24 25  2  0
 25 26  1  0
  9  2  1  0
 17 11  1  0
 25 20  1  0
  1 27  1  0
  1 28  1  0
  1 29  1  0
  3 30  1  0
  8 31  1  0
 10 32  1  0
 10 33  1  0
 12 34  1  0
 15 35  1  0
 16 36  1  0
 19 37  1  0
 19 38  1  0
 21 39  1  0
 22 40  1  0
 23 41  1  0
 24 42  1  0
M  CHG  2   7  -1   8   1
M  END
>  <UniqueID>  (1) 
1

>  <SMILES>  (1) 
Cc1cc(C(=O)[O-])[nH+]n1Cc1cc(F)ccc1OCc1ccccc1Cl

>  <Energy>  (1) 
71.75463334037681

>  <Genealogy>  (1) 
Cc1cc(C(=O)[O-])[nH+]n1Cc1cc(F)ccc1OCc1ccccc1Cl (protonated)
Cc1cc(C(=O)[O-])[nH+]n1Cc1cc(F)ccc1OCc1ccccc1Cl (3D coordinates assigned)
Cc1cc(C(=O)[O-])[nH+]n1Cc1cc(F)ccc1OCc1ccccc1Cl (optimized conformer: 71.75463334037681 kcal/mol)

>  <smiles>  (1) 
Cc1cc(C(=O)O)nn1Cc1cc(F)ccc1OCc1ccccc1Cl

>  <score_type>  (1) 
oracle

>  <origin>  (1) 
adg

>  <m_score__min__energy>  (1) 
-9.8300000000000001

>  <m_primary>  (1) 
energy

$$$$
1:0
     RDKit          3D

 31 32  0  0  0  0  0  0  0  0999 V2000
   55.4673   31.8593   44.6990 H   0  0  0  0  0  0  0  0  0  0  0  0
   56.1980   31.0750   44.4520 C   0  0  0  0  0  0  0  0  0  0  0  0
   55.7130   29.6940   44.2550 C   0  0  0  0  0  0  0  0  0  0  0  0
   55.1120   29.4160   43.1850 O   0  0  0  0  0  0  0  0  0  0  0  0
   55.8880   28.6590   45.2350 N   0  0  0  0  0  0  0  0  0  0  0  0
   57.0890   27.9060   45.4650 C   0  0  0  0  0  0  0  0  0  0  0  0
   58.3070   28.4870   45.0870 C   0  0  0  0  0  0  0  0  0  0  0  0
   58.3096   29.4491   44.5537 H   0  0  0  0  0  0  0  0  0  0  0  0
   59.5170   27.8560   45.3810 C   0  0  0  0  0  0  0  0  0  0  0  0
   60.4673   28.3249   45.0858 H   0  0  0  0  0  0  0  0  0  0  0  0
   59.5220   26.6330   46.0480 C   0  0  0  0  0  0  0  0  0  0  0  0
   60.4769   26.1489   46.3008 H   0  0  0  0  0  0  0  0  0  0  0  0
   58.3160   26.0210   46.3960 C   0  0  0  0  0  0  0  0  0  0  0  0
   58.3281   25.0516   46.9157 H   0  0  0  0  0  0  0  0  0  0  0  0
   57.0850   26.6310   46.0890 C   0  0  0  0  0  0  0  0  0  0  0  0
   55.8340   25.8890   46.3650 C   0  0  0  0  0  0  0  0  0  0  0  0
   54.7270   26.3420   45.9700 O   0  0  0  0  0  0  0  0  0  0  0  0
   55.8580   24.7130   47.1040 O   0  0  0  0  0  0  0  0  0  0  0  0
   57.4870   31.4130   44.3430 C   0  0  0  0  0  0  0  0  0  0  0  0
   58.0075   31.2147   43.3944 H   0  0  0  0  0  0  0  0  0  0  0  0
   58.2370   32.0410   45.4450 C   0  0  0  0  0  0  0  0  0  0  0  0
   58.0610   33.6180   46.0190 S   0  0  0  0  0  0  0  0  0  0  0  0
   59.2200   33.4900   47.2290 C   0  0  0  0  0  0  0  0  0  0  0  0
   59.6560   34.6020   48.1230 C   0  0  0  0  0  0  0  0  0  0  0  0
   59.5363   34.2967   49.1730 H   0  0  0  0  0  0  0  0  0  0  0  0
   60.7127   34.8367   47.9276 H   0  0  0  0  0  0  0  0  0  0  0  0
   59.0404   35.4924   47.9276 H   0  0  0  0  0  0  0  0  0  0  0  0
   59.7780   32.2190   47.1870 C   0  0  0  0  0  0  0  0  0  0  0  0
   60.5778   31.8859   47.8647 H   0  0  0  0  0  0  0  0  0  0  0  0
   59.2190   31.4040   46.1940 C   0  0  0  0  0  0  0  0  0  0  0  0
   59.5272   30.3619   46.0239 H   0  0  0  0  0  0  0  0  0  0  0  0
  1  2  1  0
  2  3  1  0
  3  4  2  0
  3  5  1  0
  5  6  1  0
  6  7  2  0
  7  8  1  0
  7  9  1  0
  9 10  1  0
  9 11  2  0
 11 12  1  0
 11 13  1  0
 13 14  1  0
 13 15  2  0
 15 16  1  0
 16 17  2  0
 16 18  1  0
  2 19  2  0
 19 20  1  0
 19 21  1  0
 21 22  1  0
 22 23  1  0
 23 24  1  0
 24 25  1  0
 24 26  1  0
 24 27  1  0
 23 28  2  0
 28 29  1  0
 28 30  1  0
 30 31  1  0
 15  6  1  0
 30 21  2  0
M  CHG  2   5  -1  18  -1
M  END
>  <UniqueID>  (2) 
2

>  <SMILES>  (2) 
Cc1ccc(/C=C/C(=O)[N-]c2ccccc2C(=O)[O-])s1

>  <Energy>  (2) 
67.26203281200186

>  <Genealogy>  (2) 
Cc1ccc(C=CC(=O)[N-]c2ccccc2C(=O)[O-])s1 (protonated)
Cc1ccc(/C=C/C(=O)[N-]c2ccccc2C(=O)[O-])s1 (cis-trans isomerization)
Cc1ccc(/C=C/C(=O)[N-]c2ccccc2C(=O)[O-])s1 (3D coordinates assigned)
Cc1ccc(/C=C/C(=O)[N-]c2ccccc2C(=O)[O-])s1 (optimized conformer: 67.26203281200186 kcal/mol)

>  <smiles>  (2) 
Cc1ccc(C=CC(=O)Nc2ccccc2C(=O)O)s1

>  <score_type>  (2) 
oracle

>  <origin>  (2) 
adg

>  <m_score__min__energy>  (2) 
-13.07

>  <m_primary>  (2) 
energy

$$$$
2:0
     RDKit          3D

 69 72  0  0  0  0  0  0  0  0999 V2000
   59.6760   33.3540   49.8790 C   0  0  0  0  0  0  0  0  0  0  0  0
   58.5510   32.3290   49.7070 C   0  0  0  0  0  0  0  0  0  0  0  0
   58.5570   31.1690   50.7450 C   0  0  0  0  0  0  0  0  0  0  0  0
   57.2860   31.2230   51.6160 C   0  0  0  0  0  0  0  0  0  0  0  0
   59.7860   31.2360   51.6770 C   0  0  0  0  0  0  0  0  0  0  0  0
   58.5140   29.8680   50.0580 N   0  0  0  0  0  0  0  0  0  0  0  0
   59.0500   29.3930   48.8090 C   0  0  0  0  0  0  0  0  0  0  0  0
   59.9450   28.5080   48.8650 O   0  0  0  0  0  0  0  0  0  0  0  0
   58.5630   29.8440   47.4470 C   0  0  2  0  0  0  0  0  0  0  0  0
   58.3440   28.6710   46.4990 C   0  0  0  0  0  0  0  0  0  0  0  0
   58.4270   28.8200   45.0980 C   0  0  0  0  0  0  0  0  0  0  0  0
   58.1570   27.7380   44.2550 C   0  0  0  0  0  0  0  0  0  0  0  0
   57.7870   26.5040   44.7930 C   0  0  0  0  0  0  0  0  0  0  0  0
   57.6780   26.3500   46.1750 C   0  0  0  0  0  0  0  0  0  0  0  0
   57.9450   27.4270   47.0250 C   0  0  0  0  0  0  0  0  0  0  0  0
   59.4880   30.8550   46.8740 N   0  0  0  0  0  0  0  0  0  0  0  0
   60.8950   30.5620   46.7450 C   0  0  0  0  0  0  0  0  0  0  0  0
   61.2870   29.7520   45.8620 O   0  0  0  0  0  0  0  0  0  0  0  0
   61.8970   31.1810   47.6340 C   0  0  0  0  0  0  0  0  0  0  0  0
   62.8390   32.0790   47.1210 C   0  0  0  0  0  0  0  0  0  0  0  0
   63.7570   32.6800   47.9820 C   0  0  0  0  0  0  0  0  0  0  0  0
   63.7410   32.3850   49.3550 C   0  0  0  0  0  0  0  0  0  0  0  0
   64.6510   33.0420   50.2670 N   0  0  0  0  0  0  0  0  0  0  0  0
   64.2320   33.9900   51.2880 C   0  0  0  0  0  0  0  0  0  0  0  0
   65.4650   34.2560   52.1420 C   0  0  0  0  0  0  0  0  0  0  0  0
   66.6530   33.7800   51.3160 C   0  0  0  0  0  0  0  0  0  0  0  0
   66.0860   32.7930   50.3060 C   0  0  0  0  0  0  0  0  0  0  0  0
   62.8020   31.4440   49.8180 C   0  0  0  0  0  0  0  0  0  0  0  0
   61.9190   30.8660   48.9600 N   0  0  0  0  0  0  0  0  0  0  0  0
   58.9940   32.0560   46.2580 C   0  0  0  0  0  0  0  0  0  0  0  0
   59.6830   33.2700   46.4040 C   0  0  0  0  0  0  0  0  0  0  0  0
   59.2070   34.4270   45.7800 C   0  0  0  0  0  0  0  0  0  0  0  0
   58.0400   34.3780   45.0110 C   0  0  0  0  0  0  0  0  0  0  0  0
   57.3470   33.1720   44.8680 C   0  0  0  0  0  0  0  0  0  0  0  0
   57.8210   32.0140   45.4910 C   0  0  0  0  0  0  0  0  0  0  0  0
   59.8592   33.5209   50.9507 H   0  0  0  0  0  0  0  0  0  0  0  0
   60.5933   32.9747   49.4049 H   0  0  0  0  0  0  0  0  0  0  0  0
   59.3835   34.3025   49.4049 H   0  0  0  0  0  0  0  0  0  0  0  0
   57.5905   32.8584   49.7917 H   0  0  0  0  0  0  0  0  0  0  0  0
   58.7060   31.8630   48.7227 H   0  0  0  0  0  0  0  0  0  0  0  0
   57.5691   31.2110   52.6789 H   0  0  0  0  0  0  0  0  0  0  0  0
   56.7292   32.1456   51.3953 H   0  0  0  0  0  0  0  0  0  0  0  0
   56.6529   30.3509   51.3953 H   0  0  0  0  0  0  0  0  0  0  0  0
   59.4527   31.2178   52.7251 H   0  0  0  0  0  0  0  0  0  0  0  0
   60.4393   30.3721   51.4849 H   0  0  0  0  0  0  0  0  0  0  0  0
   60.3416   32.1658   51.4849 H   0  0  0  0  0  0  0  0  0  0  0  0
   57.5798   30.3189   47.5807 H   0  0  0  0  0  0  0  0  0  0  0  0
   58.7057   29.7929   44.6670 H   0  0  0  0  0  0  0  0  0  0  0  0
   58.2363   27.8592   43.1646 H   0  0  0  0  0  0  0  0  0  0  0  0
   57.5814   25.6531   44.1269 H   0  0  0  0  0  0  0  0  0  0  0  0
   57.3812   25.3785   46.5970 H   0  0  0  0  0  0  0  0  0  0  0  0
   57.8427   27.3020   48.1131 H   0  0  0  0  0  0  0  0  0  0  0  0
   62.8556   32.3096   46.0456 H   0  0  0  0  0  0  0  0  0  0  0  0
   64.4976   33.3890   47.5835 H   0  0  0  0  0  0  0  0  0  0  0  0
   63.8803   34.9227   50.8228 H   0  0  0  0  0  0  0  0  0  0  0  0
   63.4013   33.5938   51.8904 H   0  0  0  0  0  0  0  0  0  0  0  0
   65.5557   35.3305   52.3595 H   0  0  0  0  0  0  0  0  0  0  0  0
   65.4085   33.7333   53.1082 H   0  0  0  0  0  0  0  0  0  0  0  0
   67.1249   34.6286   50.7991 H   0  0  0  0  0  0  0  0  0  0  0  0
   67.4250   33.3154   51.9470 H   0  0  0  0  0  0  0  0  0  0  0  0
   66.5308   32.9623   49.3143 H   0  0  0  0  0  0  0  0  0  0  0  0
   66.3081   31.7534   50.5886 H   0  0  0  0  0  0  0  0  0  0  0  0
   62.7822   31.1735   50.8840 H   0  0  0  0  0  0  0  0  0  0  0  0
   61.2250   30.1860   49.3440 H   0  0  0  0  0  0  0  0  0  0  0  0
   60.5996   33.3112   47.0108 H   0  0  0  0  0  0  0  0  0  0  0  0
   59.7507   35.3764   45.8940 H   0  0  0  0  0  0  0  0  0  0  0  0
   57.6672   35.2883   44.5186 H   0  0  0  0  0  0  0  0  0  0  0  0
   56.4280   33.1345   44.2647 H   0  0  0  0  0  0  0  0  0  0  0  0
   57.2723   31.0672   45.3793 H   0  0  0  0  0  0  0  0  0  0  0  0
  1  2  1  0
  2  3  1  0
  3  4  1  0
  3  5  1  0
  3  6  1  0
  6  7  1  0
  7  8  2  0
  7  9  1  0
  9 10  1  0
 10 11  2  0
 11 12  1  0
 12 13  2  0
 13 14  1  0
 14 15  2  0
  9 16  1  0
 16 17  1  0
 17 18  2  0
 17 19  1  0
 19 20  2  0
 20 21  1  0
 21 22  2  0
 22 23  1  0
 23 24  1  0
 24 25  1  0
 25 26  1  0
 26 27  1  0
 22 28  1  0
 28 29  2  0
 16 30  1  0
 30 31  2  0
 31 32  1  0
 32 33  2  0
 33 34  1  0
 34 35  2  0
 15 10  1  0
 29 19  1  0
 35 30  1  0
 27 23  1  0
  1 36  1  0
  1 37  1  0
  1 38  1  0
  2 39  1  0
  2 40  1  0
  4 41  1  0
  4 42  1  0
  4 43  1  0
  5 44  1  0
  5 45  1  0
  5 46  1  0
  9 47  1  1
 11 48  1  0
 12 49  1  0
 13 50  1  0
 14 51  1  0
 15 52  1  0
 20 53  1  0
 21 54  1  0
 24 55  1  0
 24 56  1  0
 25 57  1  0
 25 58  1  0
 26 59  1  0
 26 60  1  0
 27 61  1  0
 27 62  1  0
 28 63  1  0
 29 64  1  0
 31 65  1  0
 32 66  1  0
 33 67  1  0
 34 68  1  0
 35 69  1  0
M  CHG  2   6  -1  29   1
M  END
>  <UniqueID>  (3) 
3

>  <SMILES>  (3) 
CCC(C)(C)[N-]C(=O)[C@H](c1ccccc1)N(C(=O)c1ccc(N2CCCC2)c[nH+]1)c1ccccc1

>  <Energy>  (3) 
85.15167536744168

>  <Genealogy>  (3) 
CCC(C)(C)[N-]C(=O)C(c1ccccc1)N(C(=O)c1ccc(N2CCCC2)c[nH+]1)c1ccccc1 (protonated)
CCC(C)(C)[N-]C(=O)[C@H](c1ccccc1)N(C(=O)c1ccc(N2CCCC2)c[nH+]1)c1ccccc1 (chirality)
CCC(C)(C)[N-]C(=O)[C@H](c1ccccc1)N(C(=O)c1ccc(N2CCCC2)c[nH+]1)c1ccccc1 (3D coordinates assigned)
CCC(C)(C)[N-]C(=O)[C@H](c1ccccc1)N(C(=O)c1ccc(N2CCCC2)c[nH+]1)c1ccccc1 (nonaromatic ring conformer: 85.15167536744168 kcal/mol)

>  <smiles>  (3) 
CCC(C)(C)NC(=O)C(c1ccccc1)N(C(=O)c1ccc(N2CCCC2)cn1)c1ccccc1

>  <score_type>  (3) 
oracle

>  <origin>  (3) 
adg

>  <m_score__min__energy>  (3) 
-7.9299999999999997

>  <m_primary>  (3) 
energy

$$$$
3:0
     RDKit          3D

 39 41  0  0  0  0  0  0  0  0999 V2000
   58.5300   29.0160   49.0910 O   0  0  0  0  0  0  0  0  0  0  0  0
   58.8920   29.7540   48.1360 C   0  0  0  0  0  0  0  0  0  0  0  0
   59.3040   31.1400   48.4230 C   0  0  0  0  0  0  0  0  0  0  0  0
   58.7200   32.0110   49.3380 C   0  0  0  0  0  0  0  0  0  0  0  0
   59.3710   33.2480   49.4190 C   0  0  0  0  0  0  0  0  0  0  0  0
   60.4730   33.3550   48.5810 C   0  0  0  0  0  0  0  0  0  0  0  0
   60.6370   31.9080   47.7420 S   0  0  0  0  0  0  0  0  0  0  0  0
   58.8660   29.2360   46.7930 N   0  0  0  0  0  0  0  0  0  0  0  0
   57.7960   28.3130   46.4060 C   0  0  0  0  0  0  0  0  0  0  0  0
   57.8770   27.9690   44.9090 C   0  0  0  0  0  0  0  0  0  0  0  0
   58.2720   29.1350   44.0870 N   0  0  0  0  0  0  0  0  0  0  0  0
   57.0110   30.3520   44.0510 S   0  0  0  0  0  0  0  0  0  0  0  0
   56.5020   30.5300   42.6480 O   0  0  0  0  0  0  0  0  0  0  0  0
   55.8590   29.9460   44.9290 O   0  0  0  0  0  0  0  0  0  0  0  0
   57.6650   31.8900   44.6110 C   0  0  0  0  0  0  0  0  0  0  0  0
   57.3990   32.3250   45.9160 C   0  0  0  0  0  0  0  0  0  0  0  0
   57.9020   33.5510   46.3640 C   0  0  0  0  0  0  0  0  0  0  0  0
   58.6680   34.3480   45.5090 C   0  0  0  0  0  0  0  0  0  0  0  0
   58.9320   33.9200   44.2050 C   0  0  0  0  0  0  0  0  0  0  0  0
   58.4310   32.6950   43.7540 C   0  0  0  0  0  0  0  0  0  0  0  0
   59.5850   29.7180   44.4780 C   0  0  0  0  0  0  0  0  0  0  0  0
   60.0290   29.3710   45.9120 C   0  0  0  0  0  0  0  0  0  0  0  0
   57.8348   31.7532   49.9380 H   0  0  0  0  0  0  0  0  0  0  0  0
   59.0403   34.0592   50.0843 H   0  0  0  0  0  0  0  0  0  0  0  0
   61.1259   34.2349   48.4832 H   0  0  0  0  0  0  0  0  0  0  0  0
   57.8899   27.3875   46.9930 H   0  0  0  0  0  0  0  0  0  0  0  0
   56.8282   28.7979   46.6015 H   0  0  0  0  0  0  0  0  0  0  0  0
   58.6193   27.1694   44.7691 H   0  0  0  0  0  0  0  0  0  0  0  0
   56.8767   27.6490   44.5818 H   0  0  0  0  0  0  0  0  0  0  0  0
   58.3590   28.7910   43.1020 H   0  0  0  0  0  0  0  0  0  0  0  0
   56.7933   31.7011   46.5897 H   0  0  0  0  0  0  0  0  0  0  0  0
   57.6944   33.8881   47.3903 H   0  0  0  0  0  0  0  0  0  0  0  0
   59.0630   35.3119   45.8622 H   0  0  0  0  0  0  0  0  0  0  0  0
   59.5349   34.5478   43.5324 H   0  0  0  0  0  0  0  0  0  0  0  0
   58.6375   32.3619   42.7262 H   0  0  0  0  0  0  0  0  0  0  0  0
   60.3494   29.3449   43.7805 H   0  0  0  0  0  0  0  0  0  0  0  0
   59.4693   30.8112   44.4391 H   0  0  0  0  0  0  0  0  0  0  0  0
   60.5847   28.4218   45.8988 H   0  0  0  0  0  0  0  0  0  0  0  0
   60.6692   30.1812   46.2911 H   0  0  0  0  0  0  0  0  0  0  0  0
  1  2  2  0
  2  3  1  0
  3  4  2  0
  4  5  1  0
  5  6  2  0
  6  7  1  0
  2  8  1  0
  8  9  1  0
  9 10  1  0
 10 11  1  0
 11 12  1  0
 12 13  2  0
 12 14  2  0
 12 15  1  0
 15 16  2  0
 16 17  1  0
 17 18  2  0
 18 19  1  0
 19 20  2  0
 11 21  1  0
 21 22  1  0
  7  3  1  0
 22  8  1  0
 20 15  1  0
  4 23  1  0
  5 24  1  0
  6 25  1  0
  9 26  1  0
  9 27  1  0
 10 28  1  0
 10 29  1  0
 11 30  1  0
 16 31  1  0
 17 32  1  0
 18 33  1  0
 19 34  1  0
 20 35  1  0
 21 36  1  0
 21 37  1  0
 22 38  1  0
 22 39  1  0
M  CHG  1  11   1
M  END
>  <UniqueID>  (4) 
4

>  <SMILES>  (4) 
O=C(c1cccs1)N1CC[NH+](S(=O)(=O)c2ccccc2)CC1

>  <Energy>  (4) 
75.06843663880908

>  <Genealogy>  (4) 
O=C(c1cccs1)N1CC[NH+](S(=O)(=O)c2ccccc2)CC1 (protonated)
O=C(c1cccs1)N1CC[NH+](S(=O)(=O)c2ccccc2)CC1 (3D coordinates assigned)
O=C(c1cccs1)N1CC[NH+](S(=O)(=O)c2ccccc2)CC1 (nonaromatic ring conformer: 75.06843663880908 kcal/mol)

>  <smiles>  (4) 
O=C(c1cccs1)N1CCN(S(=O)(=O)c2ccccc2)CC1

>  <score_type>  (4) 
oracle

>  <origin>  (4) 
adg

>  <m_score__min__energy>  (4) 
-6.2999999999999998

>  <m_primary>  (4) 
energy

$$$$
4:0
     RDKit          3D

 31 33  0  0  0  0  0  0  0  0999 V2000
   65.2560   32.7340   49.4040 Cl  0  0  0  0  0  0  0  0  0  0  0  0
   63.5880   33.1610   49.0700 C   0  0  0  0  0  0  0  0  0  0  0  0
   62.7430   33.5490   50.1130 C   0  0  0  0  0  0  0  0  0  0  0  0
   61.4120   33.8890   49.8490 C   0  0  0  0  0  0  0  0  0  0  0  0
   60.9120   33.8430   48.5350 C   0  0  0  0  0  0  0  0  0  0  0  0
   59.4680   34.2130   48.2650 C   0  0  1  0  0  0  0  0  0  0  0  0
   59.2610   34.7710   46.8480 C   0  0  0  0  0  0  0  0  0  0  0  0
   58.7590   33.6900   46.0210 N   0  0  0  0  0  0  0  0  0  0  0  0
   58.2680   32.6860   46.6650 C   0  0  0  0  0  0  0  0  0  0  0  0
   57.8410   31.4920   45.9940 N   0  0  0  0  0  0  0  0  0  0  0  0
   57.5900   31.4000   44.5810 C   0  0  0  0  0  0  0  0  0  0  0  0
   56.8030   30.3510   44.0870 C   0  0  0  0  0  0  0  0  0  0  0  0
   56.5390   30.2690   42.7190 C   0  0  0  0  0  0  0  0  0  0  0  0
   57.0290   31.2120   41.8720 N   0  0  0  0  0  0  0  0  0  0  0  0
   57.7780   32.2530   42.3220 C   0  0  0  0  0  0  0  0  0  0  0  0
   58.0680   32.3720   43.6840 C   0  0  0  0  0  0  0  0  0  0  0  0
   58.3880   32.7510   48.4420 S   0  0  0  0  0  0  0  0  0  0  0  0
   61.7720   33.4500   47.4920 C   0  0  0  0  0  0  0  0  0  0  0  0
   63.1020   33.1110   47.7600 C   0  0  0  0  0  0  0  0  0  0  0  0
   63.1252   33.5872   51.1438 H   0  0  0  0  0  0  0  0  0  0  0  0
   60.7520   34.1943   50.6744 H   0  0  0  0  0  0  0  0  0  0  0  0
   59.2096   34.9886   49.0009 H   0  0  0  0  0  0  0  0  0  0  0  0
   58.5324   35.5948   46.8718 H   0  0  0  0  0  0  0  0  0  0  0  0
   60.2071   35.1601   46.4435 H   0  0  0  0  0  0  0  0  0  0  0  0
   57.7840   30.6180   46.5630 H   0  0  0  0  0  0  0  0  0  0  0  0
   56.3951   29.5954   44.7745 H   0  0  0  0  0  0  0  0  0  0  0  0
   55.9331   29.4394   42.3256 H   0  0  0  0  0  0  0  0  0  0  0  0
   58.1568   33.0035   41.6126 H   0  0  0  0  0  0  0  0  0  0  0  0
   58.6655   33.2193   44.0515 H   0  0  0  0  0  0  0  0  0  0  0  0
   61.3953   33.4093   46.4593 H   0  0  0  0  0  0  0  0  0  0  0  0
   63.7668   32.8046   46.9389 H   0  0  0  0  0  0  0  0  0  0  0  0
  1  2  1  0
  2  3  2  0
  3  4  1  0
  4  5  2  0
  5  6  1  0
  6  7  1  0
  7  8  1  0
  8  9  2  0
  9 10  1  0
 10 11  1  0
 11 12  2  0
 12 13  1  0
 13 14  2  0
 14 15  1  0
 15 16  2  0
  9 17  1  0
  5 18  1  0
 18 19  2  0
 19  2  1  0
 17  6  1  0
 16 11  1  0
  3 20  1  0
  4 21  1  0
  6 22  1  1
  7 23  1  0
  7 24  1  0
 10 25  1  0
 12 26  1  0
 13 27  1  0
 15 28  1  0
 16 29  1  0
 18 30  1  0
 19 31  1  0
M  END
>  <UniqueID>  (5) 
5

>  <SMILES>  (5) 
Clc1ccc([C@H]2CN=C(Nc3ccncc3)S2)cc1

>  <Energy>  (5) 
44.48402620394917

>  <Genealogy>  (5) 
Clc1ccc([C@H]2CN=C(Nc3ccncc3)S2)cc1 (chirality)
Clc1ccc([C@H]2CN=C(Nc3ccncc3)S2)cc1 (3D coordinates assigned)
Clc1ccc([C@H]2CN=C(Nc3ccncc3)S2)cc1 (nonaromatic ring conformer: 44.48402620394917 kcal/mol)

>  <smiles>  (5) 
Clc1ccc(C2CN=C(Nc3ccncc3)S2)cc1

>  <score_type>  (5) 
oracle

>  <origin>  (5) 
adg

>  <m_score__min__energy>  (5) 
-7.0099999999999998

>  <m_primary>  (5) 
energy

$$$$
5:0
     RDKit          3D

 39 41  0  0  0  0  0  0  0  0999 V2000
   55.1290   29.7170   43.4070 C   0  0  0  0  0  0  0  0  0  0  0  0
   56.3650   29.8590   44.2370 C   0  0  0  0  0  0  0  0  0  0  0  0
   56.7520   31.0890   44.6640 N   0  0  0  0  0  0  0  0  0  0  0  0
   57.8610   31.2650   45.4270 C   0  0  0  0  0  0  0  0  0  0  0  0
   58.2300   32.5950   45.8520 N   0  0  0  0  0  0  0  0  0  0  0  0
   58.2280   33.6890   44.8730 C   0  0  0  0  0  0  0  0  0  0  0  0
   59.2160   34.7810   45.2910 C   0  0  0  0  0  0  0  0  0  0  0  0
   58.9870   35.1790   46.6280 O   0  0  0  0  0  0  0  0  0  0  0  0
   59.2740   34.1020   47.4980 C   0  0  0  0  0  0  0  0  0  0  0  0
   58.2930   32.9460   47.2770 C   0  0  0  0  0  0  0  0  0  0  0  0
   58.6180   30.1400   45.7900 C   0  0  0  0  0  0  0  0  0  0  0  0
   58.2170   28.8680   45.3500 C   0  0  0  0  0  0  0  0  0  0  0  0
   58.9760   27.6900   45.7070 N   0  0  0  0  0  0  0  0  0  0  0  0
   60.4020   27.7030   45.9940 C   0  0  0  0  0  0  0  0  0  0  0  0
   60.7410   26.3050   46.4930 C   0  0  0  0  0  0  0  0  0  0  0  0
   59.5820   25.4180   46.0550 C   0  0  0  0  0  0  0  0  0  0  0  0
   58.4050   26.3560   45.8300 C   0  0  0  0  0  0  0  0  0  0  0  0
   57.0930   28.7610   44.5790 N   0  0  0  0  0  0  0  0  0  0  0  0
   54.2542   29.6165   44.0662 H   0  0  0  0  0  0  0  0  0  0  0  0
   55.0094   30.6073   42.7721 H   0  0  0  0  0  0  0  0  0  0  0  0
   55.2144   28.8228   42.7721 H   0  0  0  0  0  0  0  0  0  0  0  0
   58.5190   33.2946   43.8882 H   0  0  0  0  0  0  0  0  0  0  0  0
   57.2179   34.1217   44.8235 H   0  0  0  0  0  0  0  0  0  0  0  0
   60.2415   34.3935   45.2005 H   0  0  0  0  0  0  0  0  0  0  0  0
   59.0772   35.6527   44.6346 H   0  0  0  0  0  0  0  0  0  0  0  0
   60.2977   33.7475   47.3071 H   0  0  0  0  0  0  0  0  0  0  0  0
   59.1768   34.4526   48.5361 H   0  0  0  0  0  0  0  0  0  0  0  0
   58.6289   32.0703   47.8517 H   0  0  0  0  0  0  0  0  0  0  0  0
   57.2928   33.2568   47.6131 H   0  0  0  0  0  0  0  0  0  0  0  0
   59.5171   30.2537   46.4134 H   0  0  0  0  0  0  0  0  0  0  0  0
   60.9735   27.9328   45.0826 H   0  0  0  0  0  0  0  0  0  0  0  0
   60.6565   28.4704   46.7399 H   0  0  0  0  0  0  0  0  0  0  0  0
   61.6824   25.9554   46.0440 H   0  0  0  0  0  0  0  0  0  0  0  0
   60.8769   26.2856   47.5844 H   0  0  0  0  0  0  0  0  0  0  0  0
   59.8344   24.8897   45.1238 H   0  0  0  0  0  0  0  0  0  0  0  0
   59.3508   24.6516   46.8094 H   0  0  0  0  0  0  0  0  0  0  0  0
   57.8686   26.0829   44.9093 H   0  0  0  0  0  0  0  0  0  0  0  0
   57.6809   26.3011   46.6563 H   0  0  0  0  0  0  0  0  0  0  0  0
   56.7670   27.8260   44.2470 H   0  0  0  0  0  0  0  0  0  0  0  0
  1  2  1  0
  2  3  2  0
  3  4  1  0
  4  5  1  0
  5  6  1  0
  6  7  1  0
  7  8  1  0
  8  9  1  0
  9 10  1  0
  4 11  2  0
 11 12  1  0
 12 13  1  0
 13 14  1  0
 14 15  1  0
 15 16  1  0
 16 17  1  0
 12 18  2  0
 18  2  1  0
 10  5  1  0
 17 13  1  0
  1 19  1  0
  1 20  1  0
  1 21  1  0
  6 22  1  0
  6 23  1  0
  7 24  1  0
  7 25  1  0
  9 26  1  0
  9 27  1  0
 10 28  1  0
 10 29  1  0
 11 30  1  0
 14 31  1  0
 14 32  1  0
 15 33  1  0
 15 34  1  0
 16 35  1  0
 16 36  1  0
 17 37  1  0
 17 38  1  0
 18 39  1  0
M  CHG  1  18   1
M  END
>  <UniqueID>  (6) 
6

>  <SMILES>  (6) 
Cc1nc(N2CCOCC2)cc(N2CCCC2)[nH+]1

>  <Energy>  (6) 
42.64346523233657

>  <Genealogy>  (6) 
Cc1nc(N2CCOCC2)cc(N2CCCC2)[nH+]1 (protonated)
Cc1nc(N2CCOCC2)cc(N2CCCC2)[nH+]1 (3D coordinates assigned)
Cc1nc(N2CCOCC2)cc(N2CCCC2)[nH+]1 (nonaromatic ring conformer: 42.64346523233657 kcal/mol)

>  <smiles>  (6) 
Cc1nc(N2CCCC2)cc(N2CCOCC2)n1

>  <score_type>  (6) 
oracle

>  <origin>  (6) 
adg

>  <m_score__min__energy>  (6) 
-4.8399999999999999

>  <m_primary>  (6) 
energy

$$$$
6:0
     RDKit          3D

 34 36  0  0  0  0  0  0  0  0999 V2000
   58.1130   26.3200   45.8270 C   0  0  0  0  0  0  0  0  0  0  0  0
   56.6430   26.4610   46.0770 C   0  0  0  0  0  0  0  0  0  0  0  0
   56.0500   25.5720   46.7430 O   0  0  0  0  0  0  0  0  0  0  0  0
   55.8950   27.5950   45.6170 N   0  0  0  0  0  0  0  0  0  0  0  0
   56.4310   28.8430   45.1560 C   0  0  0  0  0  0  0  0  0  0  0  0
   55.9190   29.4070   43.9840 C   0  0  0  0  0  0  0  0  0  0  0  0
   56.4390   30.6030   43.4890 C   0  0  0  0  0  0  0  0  0  0  0  0
   57.4870   31.2510   44.1530 C   0  0  0  0  0  0  0  0  0  0  0  0
   58.1630   32.6940   43.4060 Cl  0  0  0  0  0  0  0  0  0  0  0  0
   58.0210   30.6890   45.3360 C   0  0  0  0  0  0  0  0  0  0  0  0
   59.1280   31.3200   46.0840 C   0  0  0  0  0  0  0  0  0  0  0  0
   60.3130   30.7170   46.3630 N   0  0  0  0  0  0  0  0  0  0  0  0
   61.0000   31.6680   47.0120 C   0  0  0  0  0  0  0  0  0  0  0  0
   62.2910   31.6050   47.5280 C   0  0  0  0  0  0  0  0  0  0  0  0
   62.8010   32.7630   48.1600 C   0  0  0  0  0  0  0  0  0  0  0  0
   64.1700   32.7410   48.7740 C   0  0  0  0  0  0  0  0  0  0  0  0
   61.9920   33.9250   48.2670 C   0  0  0  0  0  0  0  0  0  0  0  0
   60.6930   33.9480   47.7250 C   0  0  0  0  0  0  0  0  0  0  0  0
   60.2370   32.7920   47.1010 C   0  0  0  0  0  0  0  0  0  0  0  0
   59.0830   32.5710   46.5220 O   0  0  0  0  0  0  0  0  0  0  0  0
   57.5030   29.4720   45.8100 C   0  0  0  0  0  0  0  0  0  0  0  0
   58.6452   26.2690   46.7883 H   0  0  0  0  0  0  0  0  0  0  0  0
   58.3010   25.3997   45.2545 H   0  0  0  0  0  0  0  0  0  0  0  0
   58.4725   27.1878   45.2545 H   0  0  0  0  0  0  0  0  0  0  0  0
   55.1003   28.9042   43.4483 H   0  0  0  0  0  0  0  0  0  0  0  0
   56.0222   31.0403   42.5697 H   0  0  0  0  0  0  0  0  0  0  0  0
   60.6410   29.7640   46.0940 H   0  0  0  0  0  0  0  0  0  0  0  0
   62.8929   30.6879   47.4472 H   0  0  0  0  0  0  0  0  0  0  0  0
   64.0802   32.7424   49.8703 H   0  0  0  0  0  0  0  0  0  0  0  0
   64.7022   31.8342   48.4509 H   0  0  0  0  0  0  0  0  0  0  0  0
   64.7311   33.6302   48.4509 H   0  0  0  0  0  0  0  0  0  0  0  0
   62.3843   34.8163   48.7786 H   0  0  0  0  0  0  0  0  0  0  0  0
   60.0623   34.8467   47.7926 H   0  0  0  0  0  0  0  0  0  0  0  0
   57.9425   29.0061   46.7043 H   0  0  0  0  0  0  0  0  0  0  0  0
  1  2  1  0
  2  3  2  0
  2  4  1  0
  4  5  1  0
  5  6  2  0
  6  7  1  0
  7  8  2  0
  8  9  1  0
  8 10  1  0
 10 11  1  0
 11 12  2  0
 12 13  1  0
 13 14  2  0
 14 15  1  0
 15 16  1  0
 15 17  2  0
 17 18  1  0
 18 19  2  0
 19 20  1  0
 10 21  2  0
 21  5  1  0
 20 11  1  0
 19 13  1  0
  1 22  1  0
  1 23  1  0
  1 24  1  0
  6 25  1  0
  7 26  1  0
 12 27  1  0
 14 28  1  0
 16 29  1  0
 16 30  1  0
 16 31  1  0
 17 32  1  0
 18 33  1  0
 21 34  1  0
M  CHG  2   4  -1  12   1
M  END
>  <UniqueID>  (7) 
7

>  <SMILES>  (7) 
CC(=O)[N-]c1ccc(Cl)c(-c2[nH+]c3cc(C)ccc3o2)c1

>  <Energy>  (7) 
83.1245344600156

>  <Genealogy>  (7) 
CC(=O)[N-]c1ccc(Cl)c(-c2[nH+]c3cc(C)ccc3o2)c1 (protonated)
CC(=O)[N-]c1ccc(Cl)c(-c2[nH+]c3cc(C)ccc3o2)c1 (3D coordinates assigned)
CC(=O)[N-]c1ccc(Cl)c(-c2[nH+]c3cc(C)ccc3o2)c1 (optimized conformer: 83.1245344600156 kcal/mol)

>  <smiles>  (7) 
CC(=O)Nc1ccc(Cl)c(-c2nc3cc(C)ccc3o2)c1

>  <score_type>  (7) 
oracle

>  <origin>  (7) 
adg

>  <m_score__min__energy>  (7) 
-8.4399999999999995

>  <m_primary>  (7) 
energy

$$$$
7:0
     RDKit          3D

 31 32  0  0  0  0  0  0  0  0999 V2000
   57.4010   25.3950   44.4890 C   0  0  0  0  0  0  0  0  0  0  0  0
   58.4270   26.3590   45.0270 C   0  0  0  0  0  0  0  0  0  0  0  0
   59.3180   25.9200   46.0220 C   0  0  0  0  0  0  0  0  0  0  0  0
   60.2840   26.7820   46.5440 C   0  0  0  0  0  0  0  0  0  0  0  0
   61.1370   26.3430   47.5020 F   0  0  0  0  0  0  0  0  0  0  0  0
   60.3750   28.0930   46.0800 C   0  0  0  0  0  0  0  0  0  0  0  0
   59.4990   28.5480   45.0940 C   0  0  0  0  0  0  0  0  0  0  0  0
   58.5130   27.6980   44.5560 C   0  0  0  0  0  0  0  0  0  0  0  0
   57.6410   28.1980   43.5150 N   0  0  0  0  0  0  0  0  0  0  0  0
   57.1640   29.5120   43.8570 C   0  0  0  0  0  0  0  0  0  0  0  0
   55.5550   29.7500   44.1130 S   0  0  0  0  0  0  0  0  0  0  0  0
   58.0370   30.6440   43.7110 N   0  0  0  0  0  0  0  0  0  0  0  0
   57.9560   31.8320   44.5170 C   0  0  0  0  0  0  0  0  0  0  0  0
   58.1020   31.7860   45.9130 C   0  0  0  0  0  0  0  0  0  0  0  0
   58.0480   32.9650   46.6580 C   0  0  0  0  0  0  0  0  0  0  0  0
   57.8620   34.1830   46.0020 C   0  0  0  0  0  0  0  0  0  0  0  0
   57.7440   34.2140   44.6480 N   0  0  0  0  0  0  0  0  0  0  0  0
   57.7930   33.0800   43.8990 C   0  0  0  0  0  0  0  0  0  0  0  0
   56.8816   24.9070   45.3269 H   0  0  0  0  0  0  0  0  0  0  0  0
   56.6713   25.9418   43.8737 H   0  0  0  0  0  0  0  0  0  0  0  0
   57.9013   24.6327   43.8737 H   0  0  0  0  0  0  0  0  0  0  0  0
   59.2532   24.8865   46.3930 H   0  0  0  0  0  0  0  0  0  0  0  0
   61.1383   28.7697   46.4916 H   0  0  0  0  0  0  0  0  0  0  0  0
   59.5794   29.5837   44.7322 H   0  0  0  0  0  0  0  0  0  0  0  0
   56.8200   27.5610   43.3820 H   0  0  0  0  0  0  0  0  0  0  0  0
   58.1490   28.2180   42.6010 H   0  0  0  0  0  0  0  0  0  0  0  0
   58.7910   30.5900   42.9900 H   0  0  0  0  0  0  0  0  0  0  0  0
   58.2587   30.8218   46.4187 H   0  0  0  0  0  0  0  0  0  0  0  0
   58.1511   32.9346   47.7527 H   0  0  0  0  0  0  0  0  0  0  0  0
   57.8109   35.1173   46.5803 H   0  0  0  0  0  0  0  0  0  0  0  0
   57.7044   33.1420   42.8043 H   0  0  0  0  0  0  0  0  0  0  0  0
  1  2  1  0
  2  3  2  0
  3  4  1  0
  4  5  1  0
  4  6  2  0
  6  7  1  0
  7  8  2  0
  8  9  1  0
  9 10  1  0
 10 11  2  0
 10 12  1  0
 12 13  1  0
 13 14  2  0
 14 15  1  0
 15 16  2  0
 16 17  1  0
 17 18  2  0
  8  2  1  0
 18 13  1  0
  1 19  1  0
  1 20  1  0
  1 21  1  0
  3 22  1  0
  6 23  1  0
  7 24  1  0
  9 25  1  0
  9 26  1  0
 12 27  1  0
 14 28  1  0
 15 29  1  0
 16 30  1  0
 18 31  1  0
M  CHG  1   9   1
M  END
>  <UniqueID>  (8) 
8

>  <SMILES>  (8) 
Cc1cc(F)ccc1[NH2+]C(=S)Nc1cccnc1

>  <Energy>  (8) 
39.527210301134055

>  <Genealogy>  (8) 
Cc1cc(F)ccc1[NH2+]C(=S)Nc1cccnc1 (protonated)
Cc1cc(F)ccc1[NH2+]C(=S)Nc1cccnc1 (3D coordinates assigned)
Cc1cc(F)ccc1[NH2+]C(=S)Nc1cccnc1 (optimized conformer: 39.527210301134055 kcal/mol)

>  <smiles>  (8) 
Cc1cc(F)ccc1NC(=S)Nc1cccnc1

>  <score_type>  (8) 
oracle

>  <origin>  (8) 
adg

>  <m_score__min__energy>  (8) 
-5.71

>  <m_primary>  (8) 
energy

$$$$
8:0
     RDKit          3D

 39 39  0  0  0  0  0  0  0  0999 V2000
   59.6760   34.9980   46.0610 C   0  0  0  0  0  0  0  0  0  0  0  0
   58.3620   34.2450   46.2420 C   0  0  0  0  0  0  0  0  0  0  0  0
   57.8190   33.7410   44.9000 C   0  0  0  0  0  0  0  0  0  0  0  0
   57.4450   32.2540   44.9720 C   0  0  0  0  0  0  0  0  0  0  0  0
   58.0880   31.4310   43.8350 C   0  0  0  0  0  0  0  0  0  0  0  0
   57.0750   30.9290   42.7880 C   0  0  0  0  0  0  0  0  0  0  0  0
   56.5180   29.5290   43.0790 C   0  0  0  0  0  0  0  0  0  0  0  0
   55.8390   29.4500   44.4250 C   0  0  0  0  0  0  0  0  0  0  0  0
   55.1610   30.4300   44.8310 O   0  0  0  0  0  0  0  0  0  0  0  0
   55.9170   28.2790   45.2490 N   0  0  0  0  0  0  0  0  0  0  0  0
   57.1040   27.7350   45.8480 C   0  0  0  0  0  0  0  0  0  0  0  0
   58.2150   28.5560   46.1110 C   0  0  0  0  0  0  0  0  0  0  0  0
   59.3530   28.0310   46.7240 C   0  0  0  0  0  0  0  0  0  0  0  0
   59.3880   26.6880   47.1000 C   0  0  0  0  0  0  0  0  0  0  0  0
   58.2810   25.8680   46.8700 C   0  0  0  0  0  0  0  0  0  0  0  0
   57.1340   26.3800   46.2390 C   0  0  0  0  0  0  0  0  0  0  0  0
   55.9460   25.4870   46.0190 C   0  0  0  0  0  0  0  0  0  0  0  0
   60.0987   35.2402   47.0473 H   0  0  0  0  0  0  0  0  0  0  0  0
   60.3851   34.3692   45.5026 H   0  0  0  0  0  0  0  0  0  0  0  0
   59.4919   35.9277   45.5026 H   0  0  0  0  0  0  0  0  0  0  0  0
   58.5308   33.3845   46.9061 H   0  0  0  0  0  0  0  0  0  0  0  0
   57.6241   34.9345   46.6780 H   0  0  0  0  0  0  0  0  0  0  0  0
   56.9242   34.3230   44.6343 H   0  0  0  0  0  0  0  0  0  0  0  0
   58.6041   33.8648   44.1395 H   0  0  0  0  0  0  0  0  0  0  0  0
   57.7855   31.8502   45.9369 H   0  0  0  0  0  0  0  0  0  0  0  0
   56.3528   32.1768   44.8664 H   0  0  0  0  0  0  0  0  0  0  0  0
   58.8306   32.0627   43.3255 H   0  0  0  0  0  0  0  0  0  0  0  0
   58.5417   30.5419   44.2971 H   0  0  0  0  0  0  0  0  0  0  0  0
   56.2330   31.6361   42.7546 H   0  0  0  0  0  0  0  0  0  0  0  0
   57.6126   30.8647   41.8305 H   0  0  0  0  0  0  0  0  0  0  0  0
   55.7873   29.2699   42.2986 H   0  0  0  0  0  0  0  0  0  0  0  0
   57.3638   28.8258   43.0874 H   0  0  0  0  0  0  0  0  0  0  0  0
   58.1866   29.6195   45.8315 H   0  0  0  0  0  0  0  0  0  0  0  0
   60.2237   28.6767   46.9111 H   0  0  0  0  0  0  0  0  0  0  0  0
   60.2883   26.2745   47.5780 H   0  0  0  0  0  0  0  0  0  0  0  0
   58.3069   24.8143   47.1848 H   0  0  0  0  0  0  0  0  0  0  0  0
   55.5347   25.1778   46.9912 H   0  0  0  0  0  0  0  0  0  0  0  0
   55.1771   26.0326   45.4524 H   0  0  0  0  0  0  0  0  0  0  0  0
   56.2564   24.5967   45.4524 H   0  0  0  0  0  0  0  0  0  0  0  0
  1  2  1  0
  2  3  1  0
  3  4  1  0
  4  5  1  0
  5  6  1  0
  6  7  1  0
  7  8  1  0
  8  9  2  0
  8 10  1  0
 10 11  1  0
 11 12  2  0
 12 13  1  0
 13 14  2  0
 14 15  1  0
 15 16  2  0
 16 17  1  0
 16 11  1  0
  1 18  1  0
  1 19  1  0
  1 20  1  0
  2 21  1  0
  2 22  1  0
  3 23  1  0
  3 24  1  0
  4 25  1  0
  4 26  1  0
  5 27  1  0
  5 28  1  0
  6 29  1  0
  6 30  1  0
  7 31  1  0
  7 32  1  0
 12 33  1  0
 13 34  1  0
 14 35  1  0
 15 36  1  0
 17 37  1  0
 17 38  1  0
 17 39  1  0
M  CHG  1  10  -1
M  END
>  <UniqueID>  (9) 
9

>  <SMILES>  (9) 
CCCCCCCC(=O)[N-]c1ccccc1C

>  <Energy>  (9) 
28.852499062479684

>  <Genealogy>  (9) 
CCCCCCCC(=O)[N-]c1ccccc1C (protonated)
CCCCCCCC(=O)[N-]c1ccccc1C (3D coordinates assigned)
CCCCCCCC(=O)[N-]c1ccccc1C (optimized conformer: 28.852499062479684 kcal/mol)

>  <smiles>  (9) 
CCCCCCCC(=O)Nc1ccccc1C

>  <score_type>  (9) 
oracle

>  <origin>  (9) 
adg

>  <m_score__min__energy>  (9) 
-8.4000000000000004

>  <m_primary>  (9) 
energy

$$$$
9:0
     RDKit          3D

 57 60  0  0  0  0  0  0  0  0999 V2000
   56.1630   29.7550   43.9400 C   0  0  0  0  0  0  0  0  0  0  0  0
   56.6400   30.9580   44.5020 O   0  0  0  0  0  0  0  0  0  0  0  0
   57.5100   31.6150   43.6000 C   0  0  0  0  0  0  0  0  0  0  0  0
   57.7560   33.0630   44.0620 C   0  0  0  0  0  0  0  0  0  0  0  0
   58.7480   33.1570   45.1650 N   0  0  1  0  0  0  0  0  0  0  0  0
   59.1500   34.5780   45.3550 C   0  0  0  0  0  0  0  0  0  0  0  0
   59.6750   34.9010   46.7710 C   0  0  0  0  0  0  0  0  0  0  0  0
   60.2830   33.6800   47.4700 C   0  0  1  0  0  0  0  0  0  0  0  0
   59.2980   32.5040   47.5370 C   0  0  1  0  0  0  0  0  0  0  0  0
   58.2140   32.5790   46.4200 C   0  0  0  0  0  0  0  0  0  0  0  0
   60.2320   31.2850   47.5110 C   0  0  1  0  0  0  0  0  0  0  0  0
   59.6070   29.9660   47.0760 C   0  0  0  0  0  0  0  0  0  0  0  0
   59.6440   29.6190   45.7110 C   0  0  0  0  0  0  0  0  0  0  0  0
   59.1210   28.4000   45.2690 C   0  0  0  0  0  0  0  0  0  0  0  0
   58.5640   27.5050   46.1840 C   0  0  0  0  0  0  0  0  0  0  0  0
   58.5350   27.8230   47.5420 C   0  0  0  0  0  0  0  0  0  0  0  0
   59.0560   29.0410   47.9890 C   0  0  0  0  0  0  0  0  0  0  0  0
   61.4840   31.7370   46.7530 C   0  0  0  0  0  0  0  0  0  0  0  0
   61.4820   33.2070   46.7500 N   0  0  0  0  0  0  0  0  0  0  0  0
   62.7670   33.8420   47.1320 C   0  0  0  0  0  0  0  0  0  0  0  0
   63.2660   33.4910   48.5220 C   0  0  0  0  0  0  0  0  0  0  0  0
   64.1450   32.4070   48.7050 C   0  0  0  0  0  0  0  0  0  0  0  0
   64.5940   32.0660   49.9840 C   0  0  0  0  0  0  0  0  0  0  0  0
   64.1520   32.7880   51.0960 C   0  0  0  0  0  0  0  0  0  0  0  0
   63.2520   33.8420   50.9300 C   0  0  0  0  0  0  0  0  0  0  0  0
   62.8000   34.1860   49.6510 C   0  0  0  0  0  0  0  0  0  0  0  0
   55.8868   29.0583   44.7452 H   0  0  0  0  0  0  0  0  0  0  0  0
   55.2803   29.9654   43.3183 H   0  0  0  0  0  0  0  0  0  0  0  0
   56.9501   29.3033   43.3183 H   0  0  0  0  0  0  0  0  0  0  0  0
   58.4688   31.0772   43.5624 H   0  0  0  0  0  0  0  0  0  0  0  0
   57.0494   31.6291   42.6012 H   0  0  0  0  0  0  0  0  0  0  0  0
   58.1262   33.6465   43.2062 H   0  0  0  0  0  0  0  0  0  0  0  0
   56.8012   33.4552   44.4421 H   0  0  0  0  0  0  0  0  0  0  0  0
   59.6000   32.6210   44.8790 H   0  0  0  0  0  0  0  0  0  0  0  0
   59.9439   34.8122   44.6305 H   0  0  0  0  0  0  0  0  0  0  0  0
   58.2456   35.1861   45.2057 H   0  0  0  0  0  0  0  0  0  0  0  0
   60.4466   35.6808   46.6907 H   0  0  0  0  0  0  0  0  0  0  0  0
   58.8184   35.2364   47.3741 H   0  0  0  0  0  0  0  0  0  0  0  0
   60.5388   34.0077   48.4884 H   0  0  0  0  0  0  0  0  0  0  0  0
   58.6598   32.4806   48.4326 H   0  0  0  0  0  0  0  0  0  0  0  0
   57.8454   31.5632   46.2143 H   0  0  0  0  0  0  0  0  0  0  0  0
   57.4039   33.2321   46.7766 H   0  0  0  0  0  0  0  0  0  0  0  0
   60.5017   30.9864   48.5348 H   0  0  0  0  0  0  0  0  0  0  0  0
   60.0894   30.3150   44.9848 H   0  0  0  0  0  0  0  0  0  0  0  0
   59.1485   28.1460   44.1991 H   0  0  0  0  0  0  0  0  0  0  0  0
   58.1478   26.5487   45.8342 H   0  0  0  0  0  0  0  0  0  0  0  0
   58.1013   27.1140   48.2626 H   0  0  0  0  0  0  0  0  0  0  0  0
   59.0364   29.2808   49.0624 H   0  0  0  0  0  0  0  0  0  0  0  0
   62.3864   31.3622   47.2581 H   0  0  0  0  0  0  0  0  0  0  0  0
   61.4822   31.3440   45.7256 H   0  0  0  0  0  0  0  0  0  0  0  0
   63.5316   33.5295   46.4056 H   0  0  0  0  0  0  0  0  0  0  0  0
   62.5858   34.9270   47.1345 H   0  0  0  0  0  0  0  0  0  0  0  0
   64.4811   31.8238   47.8350 H   0  0  0  0  0  0  0  0  0  0  0  0
   65.2956   31.2290   50.1154 H   0  0  0  0  0  0  0  0  0  0  0  0
   64.5131   32.5258   52.1014 H   0  0  0  0  0  0  0  0  0  0  0  0
   62.8971   34.4036   51.8067 H   0  0  0  0  0  0  0  0  0  0  0  0
   62.0759   35.0050   49.5287 H   0  0  0  0  0  0  0  0  0  0  0  0
  1  2  1  0
  2  3  1  0
  3  4  1  0
  4  5  1  0
  5  6  1  0
  6  7  1  0
  7  8  1  0
  8  9  1  0
  9 10  1  0
  9 11  1  0
 11 12  1  0
 12 13  2  0
 13 14  1  0
 14 15  2  0
 15 16  1  0
 16 17  2  0
 11 18  1  0
 18 19  1  0
 19 20  1  0
 20 21  1  0
 21 22  2  0
 22 23  1  0
 23 24  2  0
 24 25  1  0
 25 26  2  0
 10  5  1  0
 17 12  1  0
 26 21  1  0
 19  8  1  0
  1 27  1  0
  1 28  1  0
  1 29  1  0
  3 30  1  0
  3 31  1  0
  4 32  1  0
  4 33  1  0
  5 34  1  6
  6 35  1  0
  6 36  1  0
  7 37  1  0
  7 38  1  0
  8 39  1  1
  9 40  1  1
 10 41  1  0
 10 42  1  0
 11 43  1  1
 13 44  1  0
 14 45  1  0
 15 46  1  0
 16 47  1  0
 17 48  1  0
 18 49  1  0
 18 50  1  0
 20 51  1  0
 20 52  1  0
 22 53  1  0
 23 54  1  0
 24 55  1  0
 25 56  1  0
 26 57  1  0
M  CHG  1   5   1
M  END
>  <UniqueID>  (10) 
10

>  <SMILES>  (10) 
COCC[N@H+]1CC[C@H]2C(C1)C(c1ccccc1)CN2Cc1ccccc1

>  <Energy>  (10) 
83.62746129244842

>  <Genealogy>  (10) 
COCC[NH+]1CCC2C(C1)C(c1ccccc1)CN2Cc1ccccc1 (protonated)
COCC[N@H+]1CC[C@H]2C(C1)C(c1ccccc1)CN2Cc1ccccc1 (chirality)
COCC[N@H+]1CC[C@H]2C(C1)C(c1ccccc1)CN2Cc1ccccc1 (3D coordinates assigned)
COCC[N@H+]1CC[C@H]2C(C1)C(c1ccccc1)CN2Cc1ccccc1 (nonaromatic ring conformer: 83.62746129244842 kcal/mol)

>  <smiles>  (10) 
COCCN1CCC2C(C1)C(c1ccccc1)CN2Cc1ccccc1

>  <score_type>  (10) 
oracle

>  <origin>  (10) 
adg

>  <m_score__min__energy>  (10) 
-6.7199999999999998

>  <m_primary>  (10) 
energy

$$$$
10:0
     RDKit          3D

 38 41  0  0  0  0  0  0  0  0999 V2000
   56.8590   27.3140   45.6980 C   0  0  0  0  0  0  0  0  0  0  0  0
   56.0410   28.3900   45.2490 O   0  0  0  0  0  0  0  0  0  0  0  0
   56.5190   29.5240   44.5750 C   0  0  0  0  0  0  0  0  0  0  0  0
   56.1950   29.6790   43.2240 C   0  0  0  0  0  0  0  0  0  0  0  0
   56.6490   30.7890   42.5100 C   0  0  0  0  0  0  0  0  0  0  0  0
   57.4320   31.7580   43.1400 C   0  0  0  0  0  0  0  0  0  0  0  0
   57.7700   31.6260   44.4980 C   0  0  0  0  0  0  0  0  0  0  0  0
   58.6010   32.6580   45.1710 C   0  0  0  0  0  0  0  0  0  0  0  0
   58.3820   34.0220   44.9260 C   0  0  0  0  0  0  0  0  0  0  0  0
   59.1760   34.9750   45.5650 C   0  0  0  0  0  0  0  0  0  0  0  0
   60.1570   34.5890   46.4240 N   0  0  0  0  0  0  0  0  0  0  0  0
   60.4000   33.2720   46.6890 C   0  0  0  0  0  0  0  0  0  0  0  0
   61.4750   32.8880   47.6320 C   0  0  0  0  0  0  0  0  0  0  0  0
   61.3420   31.8730   48.5280 N   0  0  0  0  0  0  0  0  0  0  0  0
   62.5240   31.8800   49.1590 C   0  0  0  0  0  0  0  0  0  0  0  0
   62.9480   31.0410   50.1870 C   0  0  0  0  0  0  0  0  0  0  0  0
   64.2440   31.2380   50.6990 C   0  0  0  0  0  0  0  0  0  0  0  0
   65.0720   32.2580   50.1740 C   0  0  0  0  0  0  0  0  0  0  0  0
   64.6080   33.0860   49.1340 C   0  0  0  0  0  0  0  0  0  0  0  0
   63.3200   32.8600   48.6550 C   0  0  0  0  0  0  0  0  0  0  0  0
   62.6790   33.5210   47.6790 N   0  0  0  0  0  0  0  0  0  0  0  0
   59.6200   32.2860   46.0620 C   0  0  0  0  0  0  0  0  0  0  0  0
   57.3090   30.5020   45.2110 C   0  0  0  0  0  0  0  0  0  0  0  0
   56.8717   27.2973   46.7978 H   0  0  0  0  0  0  0  0  0  0  0  0
   56.4535   26.3633   45.3215 H   0  0  0  0  0  0  0  0  0  0  0  0
   57.8835   27.4504   45.3215 H   0  0  0  0  0  0  0  0  0  0  0  0
   55.5778   28.9207   42.7200 H   0  0  0  0  0  0  0  0  0  0  0  0
   56.3889   30.9007   41.4470 H   0  0  0  0  0  0  0  0  0  0  0  0
   57.7865   32.6298   42.5704 H   0  0  0  0  0  0  0  0  0  0  0  0
   57.5882   34.3386   44.2335 H   0  0  0  0  0  0  0  0  0  0  0  0
   59.0074   36.0449   45.3728 H   0  0  0  0  0  0  0  0  0  0  0  0
   60.7290   35.3340   46.8820 H   0  0  0  0  0  0  0  0  0  0  0  0
   62.2927   30.2520   50.5847 H   0  0  0  0  0  0  0  0  0  0  0  0
   64.6150   30.5958   51.5113 H   0  0  0  0  0  0  0  0  0  0  0  0
   66.0835   32.4049   50.5804 H   0  0  0  0  0  0  0  0  0  0  0  0
   65.2401   33.8827   48.7149 H   0  0  0  0  0  0  0  0  0  0  0  0
   59.8078   31.2222   46.2693 H   0  0  0  0  0  0  0  0  0  0  0  0
   57.5681   30.3868   46.2738 H   0  0  0  0  0  0  0  0  0  0  0  0
  1  2  1  0
  2  3  1  0
  3  4  2  0
  4  5  1  0
  5  6  2  0
  6  7  1  0
  7  8  1  0
  8  9  2  0
  9 10  1  0
 10 11  2  0
 11 12  1  0
 12 13  1  0
 13 14  2  0
 14 15  1  0
 15 16  2  0
 16 17  1  0
 17 18  2  0
 18 19  1  0
 19 20  2  0
 20 21  1  0
 12 22  2  0
  7 23  2  0
 23  3  1  0
 22  8  1  0
 21 13  1  0
 20 15  1  0
  1 24  1  0
  1 25  1  0
  1 26  1  0
  4 27  1  0
  5 28  1  0
  6 29  1  0
  9 30  1  0
 10 31  1  0
 11 32  1  0
 16 33  1  0
 17 34  1  0
 18 35  1  0
 19 36  1  0
 22 37  1  0
 23 38  1  0
M  CHG  2  11   1  21  -1
M  END
>  <UniqueID>  (11) 
11

>  <SMILES>  (11) 
COc1cccc(-c2cc[nH+]c(-c3nc4ccccc4[n-]3)c2)c1

>  <Energy>  (11) 
82.70849543931831

>  <Genealogy>  (11) 
COc1cccc(-c2cc[nH+]c(-c3nc4ccccc4[n-]3)c2)c1 (protonated)
COc1cccc(-c2cc[nH+]c(-c3nc4ccccc4[n-]3)c2)c1 (3D coordinates assigned)
COc1cccc(-c2cc[nH+]c(-c3nc4ccccc4[n-]3)c2)c1 (optimized conformer: 82.70849543931831 kcal/mol)

>  <smiles>  (11) 
COc1cccc(-c2ccnc(-c3nc4ccccc4[nH]3)c2)c1

>  <score_type>  (11) 
oracle

>  <origin>  (11) 
adg

>  <m_score__min__energy>  (11) 
-7.46

>  <m_primary>  (11) 
energy

$$$$
11:0
     RDKit          3D

 57 59  0  0  0  0  0  0  0  0999 V2000
   63.6020   31.4190   49.9990 C   0  0  0  0  0  0  0  0  0  0  0  0
   64.1410   32.4510   49.1030 N   0  0  0  0  0  0  0  0  0  0  0  0
   65.2690   33.1500   49.7370 C   0  0  0  0  0  0  0  0  0  0  0  0
   62.8860   33.5910   48.6890 S   0  0  0  0  0  0  0  0  0  0  0  0
   63.0920   34.8780   49.4390 O   0  0  0  0  0  0  0  0  0  0  0  0
   62.9260   33.8830   47.2130 O   0  0  0  0  0  0  0  0  0  0  0  0
   61.3150   32.9280   49.1330 C   0  0  0  0  0  0  0  0  0  0  0  0
   60.4970   33.6280   50.0300 C   0  0  0  0  0  0  0  0  0  0  0  0
   59.2640   33.0980   50.4170 C   0  0  0  0  0  0  0  0  0  0  0  0
   58.8480   31.8590   49.9220 C   0  0  0  0  0  0  0  0  0  0  0  0
   59.6730   31.1370   49.0440 C   0  0  0  0  0  0  0  0  0  0  0  0
   59.2740   29.8600   48.5340 N   0  0  0  0  0  0  0  0  0  0  0  0
   60.0160   29.0730   47.5910 C   0  0  0  0  0  0  0  0  0  0  0  0
   60.7640   29.6600   46.7670 O   0  0  0  0  0  0  0  0  0  0  0  0
   59.9660   27.5670   47.5920 C   0  0  0  0  0  0  0  0  0  0  0  0
   59.1650   27.0690   46.4540 N   0  0  0  0  0  0  0  0  0  0  0  0
   57.7430   27.4490   46.6100 C   0  0  0  0  0  0  0  0  0  0  0  0
   56.9950   27.3820   45.2700 C   0  0  0  0  0  0  0  0  0  0  0  0
   57.5800   28.2860   44.2530 N   0  0  0  0  0  0  0  0  0  0  0  0
   56.6230   29.7370   44.0530 S   0  0  0  0  0  0  0  0  0  0  0  0
   56.2600   29.9050   42.6030 O   0  0  0  0  0  0  0  0  0  0  0  0
   55.3480   29.5980   44.8390 O   0  0  0  0  0  0  0  0  0  0  0  0
   57.4940   31.1700   44.6040 C   0  0  0  0  0  0  0  0  0  0  0  0
   57.8150   32.1930   43.6990 C   0  0  0  0  0  0  0  0  0  0  0  0
   58.4820   33.3400   44.1400 C   0  0  0  0  0  0  0  0  0  0  0  0
   58.8390   33.4690   45.4860 C   0  0  0  0  0  0  0  0  0  0  0  0
   59.6740   34.9100   46.0400 Cl  0  0  0  0  0  0  0  0  0  0  0  0
   58.5290   32.4480   46.3910 C   0  0  0  0  0  0  0  0  0  0  0  0
   57.8630   31.3000   45.9510 C   0  0  0  0  0  0  0  0  0  0  0  0
   58.9940   28.6340   44.5030 C   0  0  0  0  0  0  0  0  0  0  0  0
   59.7480   27.4610   45.1440 C   0  0  0  0  0  0  0  0  0  0  0  0
   60.8930   31.6870   48.6340 C   0  0  0  0  0  0  0  0  0  0  0  0
   63.7603   31.7221   51.0445 H   0  0  0  0  0  0  0  0  0  0  0  0
   62.5250   31.2969   49.8117 H   0  0  0  0  0  0  0  0  0  0  0  0
   64.1172   30.4653   49.8117 H   0  0  0  0  0  0  0  0  0  0  0  0
   64.4760   31.9940   48.2220 H   0  0  0  0  0  0  0  0  0  0  0  0
   65.1702   33.0888   50.8308 H   0  0  0  0  0  0  0  0  0  0  0  0
   66.2133   32.6786   49.4272 H   0  0  0  0  0  0  0  0  0  0  0  0
   65.2671   34.2055   49.4272 H   0  0  0  0  0  0  0  0  0  0  0  0
   60.8270   34.5979   50.4306 H   0  0  0  0  0  0  0  0  0  0  0  0
   58.6197   33.6564   51.1121 H   0  0  0  0  0  0  0  0  0  0  0  0
   57.8722   31.4483   50.2207 H   0  0  0  0  0  0  0  0  0  0  0  0
   60.9896   27.1719   47.5132 H   0  0  0  0  0  0  0  0  0  0  0  0
   59.4972   27.2298   48.5282 H   0  0  0  0  0  0  0  0  0  0  0  0
   57.2645   26.7603   47.3219 H   0  0  0  0  0  0  0  0  0  0  0  0
   57.6997   28.4842   46.9794 H   0  0  0  0  0  0  0  0  0  0  0  0
   57.0381   26.3498   44.8922 H   0  0  0  0  0  0  0  0  0  0  0  0
   55.9578   27.7023   45.4476 H   0  0  0  0  0  0  0  0  0  0  0  0
   57.5409   32.0923   42.6385 H   0  0  0  0  0  0  0  0  0  0  0  0
   58.7262   34.1417   43.4275 H   0  0  0  0  0  0  0  0  0  0  0  0
   58.8095   32.5485   47.4499 H   0  0  0  0  0  0  0  0  0  0  0  0
   57.6276   30.4959   46.6638 H   0  0  0  0  0  0  0  0  0  0  0  0
   59.4749   28.8907   43.5476 H   0  0  0  0  0  0  0  0  0  0  0  0
   59.0258   29.4888   45.1946 H   0  0  0  0  0  0  0  0  0  0  0  0
   59.7043   26.5975   44.4639 H   0  0  0  0  0  0  0  0  0  0  0  0
   60.7860   27.7808   45.3179 H   0  0  0  0  0  0  0  0  0  0  0  0
   61.5245   31.1428   47.9163 H   0  0  0  0  0  0  0  0  0  0  0  0
  1  2  1  0
  2  3  1  0
  2  4  1  0
  4  5  2  0
  4  6  2  0
  4  7  1  0
  7  8  2  0
  8  9  1  0
  9 10  2  0
 10 11  1  0
 11 12  1  0
 12 13  1  0
 13 14  2  0
 13 15  1  0
 15 16  1  0
 16 17  1  0
 17 18  1  0
 18 19  1  0
 19 20  1  0
 20 21  2  0
 20 22  2  0
 20 23  1  0
 23 24  2  0
 24 25  1  0
 25 26  2  0
 26 27  1  0
 26 28  1  0
 28 29  2  0
 19 30  1  0
 30 31  1  0
 11 32  2  0
 32  7  1  0
 31 16  1  0
 29 23  1  0
  1 33  1  0
  1 34  1  0
  1 35  1  0
  2 36  1  0
  3 37  1  0
  3 38  1  0
  3 39  1  0
  8 40  1  0
  9 41  1  0
 10 42  1  0
 15 43  1  0
 15 44  1  0
 17 45  1  0
 17 46  1  0
 18 47  1  0
 18 48  1  0
 24 49  1  0
 25 50  1  0
 28 51  1  0
 29 52  1  0
 30 53  1  0
 30 54  1  0
 31 55  1  0
 31 56  1  0
 32 57  1  0
M  CHG  2   2   1  12  -1
M  END
>  <UniqueID>  (12) 
12

>  <SMILES>  (12) 
C[NH+](C)S(=O)(=O)c1cccc([N-]C(=O)CN2CCN(S(=O)(=O)c3ccc(Cl)cc3)CC2)c1

>  <Energy>  (12) 
67.8355869447802

>  <Genealogy>  (12) 
C[NH+](C)S(=O)(=O)c1cccc([N-]C(=O)CN2CCN(S(=O)(=O)c3ccc(Cl)cc3)CC2)c1 (protonated)
C[NH+](C)S(=O)(=O)c1cccc([N-]C(=O)CN2CCN(S(=O)(=O)c3ccc(Cl)cc3)CC2)c1 (3D coordinates assigned)
C[NH+](C)S(=O)(=O)c1cccc([N-]C(=O)CN2CCN(S(=O)(=O)c3ccc(Cl)cc3)CC2)c1 (nonaromatic ring conformer: 67.8355869447802 kcal/mol)

>  <smiles>  (12) 
CN(C)S(=O)(=O)c1cccc(NC(=O)CN2CCN(S(=O)(=O)c3ccc(Cl)cc3)CC2)c1

>  <score_type>  (12) 
oracle

>  <origin>  (12) 
adg

>  <m_score__min__energy>  (12) 
-9.6400000000000006

>  <m_primary>  (12) 
energy

$$$$
12:0
     RDKit          3D

 64 67  0  0  0  0  0  0  0  0999 V2000
   58.4768   27.1857   43.5531 H   0  0  0  0  0  0  0  0  0  0  0  0
   58.5310   27.7970   44.4660 C   0  0  0  0  0  0  0  0  0  0  0  0
   59.2520   27.3560   45.5260 N   0  0  0  0  0  0  0  0  0  0  0  0
   59.3390   28.0640   46.6790 C   0  0  0  0  0  0  0  0  0  0  0  0
   60.0880   27.5500   47.7430 C   0  0  0  0  0  0  0  0  0  0  0  0
   60.5988   26.5823   47.6303 H   0  0  0  0  0  0  0  0  0  0  0  0
   60.1960   28.2560   48.9560 C   0  0  0  0  0  0  0  0  0  0  0  0
   60.9770   27.7320   50.0520 N   0  0  0  0  0  0  0  0  0  0  0  0
   61.7510   28.3050   50.4560 H   0  0  0  0  0  0  0  0  0  0  0  0
   60.7690   26.4090   50.6310 C   0  0  0  0  0  0  0  0  0  0  0  0
   60.7806   26.4831   51.7284 H   0  0  0  0  0  0  0  0  0  0  0  0
   59.7975   26.0127   50.3005 H   0  0  0  0  0  0  0  0  0  0  0  0
   61.5720   25.7338   50.3005 H   0  0  0  0  0  0  0  0  0  0  0  0
   59.5310   29.4930   49.0840 C   0  0  0  0  0  0  0  0  0  0  0  0
   59.6060   30.2480   50.3000 N   0  0  0  0  0  0  0  0  0  0  0  0
   58.3950   30.8930   50.8180 C   0  0  0  0  0  0  0  0  0  0  0  0
   57.9791   31.5521   50.0417 H   0  0  0  0  0  0  0  0  0  0  0  0
   57.6715   30.1101   51.0894 H   0  0  0  0  0  0  0  0  0  0  0  0
   58.7030   31.7240   52.0670 C   0  0  0  0  0  0  0  0  0  0  0  0
   57.8463   32.3756   52.2939 H   0  0  0  0  0  0  0  0  0  0  0  0
   58.8886   31.0513   52.9173 H   0  0  0  0  0  0  0  0  0  0  0  0
   59.9460   32.5840   51.8170 C   0  0  0  0  0  0  0  0  0  0  0  0
   59.7445   33.2543   50.9684 H   0  0  0  0  0  0  0  0  0  0  0  0
   60.1515   33.1447   52.7408 H   0  0  0  0  0  0  0  0  0  0  0  0
   61.2120   31.7370   51.4920 C   0  0  2  0  0  0  0  0  0  0  0  0
   61.7824   31.6731   52.4304 H   0  0  0  0  0  0  0  0  0  0  0  0
   62.1030   32.4190   50.4270 C   0  0  0  0  0  0  0  0  0  0  0  0
   61.5365   33.2637   50.0079 H   0  0  0  0  0  0  0  0  0  0  0  0
   63.0236   32.7056   50.9565 H   0  0  0  0  0  0  0  0  0  0  0  0
   62.5690   31.5280   49.2420 C   0  0  0  0  0  0  0  0  0  0  0  0
   63.6648   31.4500   49.2984 H   0  0  0  0  0  0  0  0  0  0  0  0
   62.0250   30.5806   49.3704 H   0  0  0  0  0  0  0  0  0  0  0  0
   62.2230   31.9840   47.8660 N   0  0  0  0  0  0  0  0  0  0  0  0
   61.4280   32.6590   47.9780 H   0  0  0  0  0  0  0  0  0  0  0  0
   63.3020   32.7510   47.2180 C   0  0  0  0  0  0  0  0  0  0  0  0
   63.9420   33.2060   47.9883 H   0  0  0  0  0  0  0  0  0  0  0  0
   63.9050   32.0777   46.5911 H   0  0  0  0  0  0  0  0  0  0  0  0
   62.8642   33.5418   46.5911 H   0  0  0  0  0  0  0  0  0  0  0  0
   61.7260   30.9140   46.9820 C   0  0  0  0  0  0  0  0  0  0  0  0
   61.3404   30.0839   47.5921 H   0  0  0  0  0  0  0  0  0  0  0  0
   60.9188   31.3082   46.3472 H   0  0  0  0  0  0  0  0  0  0  0  0
   62.5479   30.5515   46.3472 H   0  0  0  0  0  0  0  0  0  0  0  0
   60.8620   30.2890   51.0560 C   0  0  0  0  0  0  0  0  0  0  0  0
   61.6734   29.8993   50.4238 H   0  0  0  0  0  0  0  0  0  0  0  0
   60.7428   29.6739   51.9601 H   0  0  0  0  0  0  0  0  0  0  0  0
   58.7860   30.0100   48.0170 C   0  0  0  0  0  0  0  0  0  0  0  0
   58.2756   30.9778   48.1306 H   0  0  0  0  0  0  0  0  0  0  0  0
   58.6810   29.3080   46.8000 C   0  0  0  0  0  0  0  0  0  0  0  0
   57.9590   29.8250   45.6940 C   0  0  0  0  0  0  0  0  0  0  0  0
   57.4150   31.0110   45.8140 N   0  0  0  0  0  0  0  0  0  0  0  0
   58.0390   32.3000   45.8830 C   0  0  0  0  0  0  0  0  0  0  0  0
   57.9490   33.1700   44.7910 C   0  0  0  0  0  0  0  0  0  0  0  0
   57.4429   32.8446   43.8701 H   0  0  0  0  0  0  0  0  0  0  0  0
   58.5010   34.4520   44.8680 C   0  0  0  0  0  0  0  0  0  0  0  0
   58.4450   35.1261   44.0006 H   0  0  0  0  0  0  0  0  0  0  0  0
   59.1240   34.8800   46.0440 C   0  0  0  0  0  0  0  0  0  0  0  0
   59.6570   36.1260   46.1080 F   0  0  0  0  0  0  0  0  0  0  0  0
   59.1840   34.0260   47.1540 C   0  0  0  0  0  0  0  0  0  0  0  0
   59.9530   34.5540   48.6420 Cl  0  0  0  0  0  0  0  0  0  0  0  0
   58.6290   32.7430   47.0780 C   0  0  0  0  0  0  0  0  0  0  0  0
   58.6551   32.0807   47.9559 H   0  0  0  0  0  0  0  0  0  0  0  0
   57.8550   29.0210   44.5200 C   0  0  0  0  0  0  0  0  0  0  0  0
   56.9860   29.3300   43.4080 C   0  0  0  0  0  0  0  0  0  0  0  0
   56.2940   29.5870   42.5140 N   0  0  0  0  0  0  0  0  0  0  0  0
  1  2  1  0
  2  3  1  0
  3  4  1  0
  4  5  2  0
  5  6  1  0
  5  7  1  0
  7  8  1  0
  8  9  1  0
  8 10  1  0
 10 11  1  0
 10 12  1  0
 10 13  1  0
  7 14  2  0
 14 15  1  0
 15 16  1  0
 16 17  1  0
 16 18  1  0
 16 19  1  0
 19 20  1  0
 19 21  1  0
 19 22  1  0
 22 23  1  0
 22 24  1  0
 22 25  1  0
 25 26  1  1
 25 27  1  0
 27 28  1  0
 27 29  1  0
 27 30  1  0
 30 31  1  0
 30 32  1  0
 30 33  1  0
 33 34  1  0
 33 35  1  0
 35 36  1  0
 35 37  1  0
 35 38  1  0
 33 39  1  0
 39 40  1  0
 39 41  1  0
 39 42  1  0
 25 43  1  0
 43 44  1  0
 43 45  1  0
 14 46  1  0
 46 47  1  0
 46 48  2  0
 48 49  1  0
 49 50  2  0
 50 51  1  0
 51 52  2  0
 52 53  1  0
 52 54  1  0
 54 55  1  0
 54 56  2  0
 56 57  1  0
 56 58  1  0
 58 59  1  0
 58 60  2  0
 60 61  1  0
 49 62  1  0
 62 63  1  0
 63 64  3  0
 62  2  2  0
 48  4  1  0
 60 51  1  0
 43 15  1  0
M  CHG  2   3  -1  33   1
M  END
>  <UniqueID>  (13) 
13

>  <SMILES>  (13) 
CNc1cc2[n-]cc(C#N)/c(=N\c3ccc(F)c(Cl)c3)c2cc1N1CCC[C@H](CC[NH+](C)C)C1

>  <Energy>  (13) 
99.83253837030936

>  <Genealogy>  (13) 
CNc1cc2[n-]cc(C#N)c(=Nc3ccc(F)c(Cl)c3)c2cc1N1CCCC(CC[NH+](C)C)C1 (protonated)
CNc1cc2[n-]cc(C#N)c(=Nc3ccc(F)c(Cl)c3)c2cc1N1CCC[C@H](CC[NH+](C)C)C1 (chirality)
CNc1cc2[n-]cc(C#N)/c(=N\c3ccc(F)c(Cl)c3)c2cc1N1CCC[C@H](CC[NH+](C)C)C1 (cis-trans isomerization)
CNc1cc2[n-]cc(C#N)/c(=N\c3ccc(F)c(Cl)c3)c2cc1N1CCC[C@H](CC[NH+](C)C)C1 (3D coordinates assigned)
CNc1cc2[n-]cc(C#N)/c(=N\c3ccc(F)c(Cl)c3)c2cc1N1CCC[C@H](CC[NH+](C)C)C1 (nonaromatic ring conformer: 99.83253837030936 kcal/mol)

>  <smiles>  (13) 
CNc1cc2[nH]cc(C#N)c(=Nc3ccc(F)c(Cl)c3)c2cc1N1CCCC(CCN(C)C)C1

>  <score_type>  (13) 
oracle

>  <origin>  (13) 
adg

>  <m_score__min__energy>  (13) 
-8.2799999999999994

>  <m_primary>  (13) 
energy

$$$$
13:0
     RDKit          3D

 36 39  0  0  0  0  0  0  0  0999 V2000
   57.1520   24.0170   45.0540 C   0  0  0  0  0  0  0  0  0  0  0  0
   57.3270   25.5040   44.9570 C   0  0  0  0  0  0  0  0  0  0  0  0
   57.7760   26.0860   43.7640 C   0  0  0  0  0  0  0  0  0  0  0  0
   57.9050   27.4740   43.6610 C   0  0  0  0  0  0  0  0  0  0  0  0
   57.5670   28.3080   44.7430 C   0  0  0  0  0  0  0  0  0  0  0  0
   57.7250   29.7780   44.6080 C   0  0  0  0  0  0  0  0  0  0  0  0
   57.4620   30.4440   43.3990 C   0  0  0  0  0  0  0  0  0  0  0  0
   57.6300   31.8280   43.3320 C   0  0  0  0  0  0  0  0  0  0  0  0
   57.3960   32.4290   42.2490 O   0  0  0  0  0  0  0  0  0  0  0  0
   58.0620   32.5280   44.4700 C   0  0  0  0  0  0  0  0  0  0  0  0
   58.2470   33.9210   44.4590 C   0  0  0  0  0  0  0  0  0  0  0  0
   58.6830   34.5830   45.6080 C   0  0  0  0  0  0  0  0  0  0  0  0
   58.9430   33.8680   46.7850 C   0  0  0  0  0  0  0  0  0  0  0  0
   59.3820   34.5360   47.9380 C   0  0  0  0  0  0  0  0  0  0  0  0
   59.6400   33.8210   49.1100 C   0  0  0  0  0  0  0  0  0  0  0  0
   59.4630   32.4370   49.1420 C   0  0  0  0  0  0  0  0  0  0  0  0
   59.0260   31.7570   48.0010 C   0  0  0  0  0  0  0  0  0  0  0  0
   58.7610   32.4610   46.8110 C   0  0  0  0  0  0  0  0  0  0  0  0
   58.3190   31.7940   45.6500 C   0  0  0  0  0  0  0  0  0  0  0  0
   58.1430   30.4740   45.6630 O   0  0  0  0  0  0  0  0  0  0  0  0
   57.1130   27.7160   45.9380 C   0  0  0  0  0  0  0  0  0  0  0  0
   56.9850   26.3280   46.0390 C   0  0  0  0  0  0  0  0  0  0  0  0
   57.1171   23.7202   46.1126 H   0  0  0  0  0  0  0  0  0  0  0  0
   56.2133   23.7253   44.5602 H   0  0  0  0  0  0  0  0  0  0  0  0
   57.9973   23.5153   44.5602 H   0  0  0  0  0  0  0  0  0  0  0  0
   58.0281   25.4475   42.9045 H   0  0  0  0  0  0  0  0  0  0  0  0
   58.2743   27.9187   42.7251 H   0  0  0  0  0  0  0  0  0  0  0  0
   57.1275   29.8809   42.5152 H   0  0  0  0  0  0  0  0  0  0  0  0
   58.0473   34.4925   43.5406 H   0  0  0  0  0  0  0  0  0  0  0  0
   58.8235   35.6738   45.5895 H   0  0  0  0  0  0  0  0  0  0  0  0
   59.5235   35.6267   47.9190 H   0  0  0  0  0  0  0  0  0  0  0  0
   59.9838   34.3506   50.0107 H   0  0  0  0  0  0  0  0  0  0  0  0
   59.6679   31.8793   50.0678 H   0  0  0  0  0  0  0  0  0  0  0  0
   58.8885   30.6661   48.0334 H   0  0  0  0  0  0  0  0  0  0  0  0
   56.8571   28.3515   46.7987 H   0  0  0  0  0  0  0  0  0  0  0  0
   56.6140   25.8794   46.9723 H   0  0  0  0  0  0  0  0  0  0  0  0
  1  2  1  0
  2  3  2  0
  3  4  1  0
  4  5  2  0
  5  6  1  0
  6  7  2  0
  7  8  1  0
  8  9  2  0
  8 10  1  0
 10 11  2  0
 11 12  1  0
 12 13  2  0
 13 14  1  0
 14 15  2  0
 15 16  1  0
 16 17  2  0
 17 18  1  0
 18 19  2  0
 19 20  1  0
  5 21  1  0
 21 22  2  0
 22  2  1  0
 20  6  1  0
 19 10  1  0
 18 13  1  0
  1 23  1  0
  1 24  1  0
  1 25  1  0
  3 26  1  0
  4 27  1  0
  7 28  1  0
 11 29  1  0
 12 30  1  0
 14 31  1  0
 15 32  1  0
 16 33  1  0
 17 34  1  0
 21 35  1  0
 22 36  1  0
M  END
>  <UniqueID>  (14) 
14

>  <SMILES>  (14) 
Cc1ccc(-c2cc(=O)c3ccc4ccccc4c3o2)cc1

>  <Energy>  (14) 
52.43522642643165

>  <Genealogy>  (14) 
Cc1ccc(-c2cc(=O)c3ccc4ccccc4c3o2)cc1 (3D coordinates assigned)
Cc1ccc(-c2cc(=O)c3ccc4ccccc4c3o2)cc1 (optimized conformer: 52.43522642643165 kcal/mol)

>  <smiles>  (14) 
Cc1ccc(-c2cc(=O)c3ccc4ccccc4c3o2)cc1

>  <score_type>  (14) 
oracle

>  <origin>  (14) 
adg

>  <m_score__min__energy>  (14) 
-7.9199999999999999

>  <m_primary>  (14) 
energy

$$$$
14:0
     RDKit          3D

 42 45  0  0  0  0  0  0  0  0999 V2000
   60.2680   28.5440   48.8360 C   0  0  0  0  0  0  0  0  0  0  0  0
   59.2500   28.8260   47.7760 C   0  0  0  0  0  0  0  0  0  0  0  0
   58.5040   27.7660   47.2100 C   0  0  0  0  0  0  0  0  0  0  0  0
   57.5460   28.0250   46.2050 C   0  0  0  0  0  0  0  0  0  0  0  0
   56.7470   26.9140   45.6560 C   0  0  0  0  0  0  0  0  0  0  0  0
   55.5520   26.7570   46.0250 O   0  0  0  0  0  0  0  0  0  0  0  0
   57.3710   25.9550   44.7940 N   0  0  0  0  0  0  0  0  0  0  0  0
   56.9800   24.5850   44.6210 C   0  0  0  0  0  0  0  0  0  0  0  0
   56.6900   24.0480   43.3540 C   0  0  0  0  0  0  0  0  0  0  0  0
   56.3390   22.7030   43.2300 C   0  0  0  0  0  0  0  0  0  0  0  0
   56.2920   21.8990   44.3700 C   0  0  0  0  0  0  0  0  0  0  0  0
   56.5970   22.4240   45.5860 N   0  0  0  0  0  0  0  0  0  0  0  0
   56.9440   23.7320   45.7360 C   0  0  0  0  0  0  0  0  0  0  0  0
   57.3260   24.3290   47.3420 Cl  0  0  0  0  0  0  0  0  0  0  0  0
   57.3980   29.3630   45.8000 C   0  0  0  0  0  0  0  0  0  0  0  0
   56.6980   30.0170   44.7890 C   0  0  0  0  0  0  0  0  0  0  0  0
   55.7960   29.4250   43.7550 C   0  0  0  0  0  0  0  0  0  0  0  0
   57.0050   31.3370   44.8240 N   0  0  0  0  0  0  0  0  0  0  0  0
   57.8720   31.5440   45.8070 N   0  0  0  0  0  0  0  0  0  0  0  0
   58.4460   32.8300   46.1080 C   0  0  0  0  0  0  0  0  0  0  0  0
   58.7400   33.1700   47.4400 C   0  0  0  0  0  0  0  0  0  0  0  0
   59.3050   34.4110   47.7460 C   0  0  0  0  0  0  0  0  0  0  0  0
   59.5940   35.3200   46.7260 C   0  0  0  0  0  0  0  0  0  0  0  0
   59.3220   34.9870   45.3970 C   0  0  0  0  0  0  0  0  0  0  0  0
   58.7550   33.7470   45.0860 C   0  0  0  0  0  0  0  0  0  0  0  0
   58.1280   30.3580   46.3930 C   0  0  0  0  0  0  0  0  0  0  0  0
   59.0540   30.1080   47.3510 N   0  0  0  0  0  0  0  0  0  0  0  0
   59.8095   28.6710   49.8278 H   0  0  0  0  0  0  0  0  0  0  0  0
   60.6316   27.5113   48.7297 H   0  0  0  0  0  0  0  0  0  0  0  0
   61.1112   29.2424   48.7297 H   0  0  0  0  0  0  0  0  0  0  0  0
   58.6708   26.7347   47.5543 H   0  0  0  0  0  0  0  0  0  0  0  0
   56.7398   24.6881   42.4608 H   0  0  0  0  0  0  0  0  0  0  0  0
   56.1015   22.2802   42.2426 H   0  0  0  0  0  0  0  0  0  0  0  0
   56.0079   20.8398   44.2842 H   0  0  0  0  0  0  0  0  0  0  0  0
   54.9748   28.8860   44.2501 H   0  0  0  0  0  0  0  0  0  0  0  0
   55.3818   30.2275   43.1269 H   0  0  0  0  0  0  0  0  0  0  0  0
   56.3675   28.7257   43.1269 H   0  0  0  0  0  0  0  0  0  0  0  0
   58.5238   32.4543   48.2469 H   0  0  0  0  0  0  0  0  0  0  0  0
   59.5225   34.6723   48.7922 H   0  0  0  0  0  0  0  0  0  0  0  0
   60.0356   36.2977   46.9690 H   0  0  0  0  0  0  0  0  0  0  0  0
   59.5542   35.7015   44.5935 H   0  0  0  0  0  0  0  0  0  0  0  0
   58.5495   33.4870   44.0371 H   0  0  0  0  0  0  0  0  0  0  0  0
  1  2  1  0
  2  3  2  0
  3  4  1  0
  4  5  1  0
  5  6  2  0
  5  7  1  0
  7  8  1  0
  8  9  2  0
  9 10  1  0
 10 11  2  0
 11 12  1  0
 12 13  2  0
 13 14  1  0
  4 15  2  0
 15 16  1  0
 16 17  1  0
 16 18  2  0
 18 19  1  0
 19 20  1  0
 20 21  2  0
 21 22  1  0
 22 23  2  0
 23 24  1  0
 24 25  2  0
 19 26  1  0
 26 27  2  0
 27  2  1  0
 13  8  1  0
 26 15  1  0
 25 20  1  0
  1 28  1  0
  1 29  1  0
  1 30  1  0
  3 31  1  0
  9 32  1  0
 10 33  1  0
 11 34  1  0
 17 35  1  0
 17 36  1  0
 17 37  1  0
 21 38  1  0
 22 39  1  0
 23 40  1  0
 24 41  1  0
 25 42  1  0
M  CHG  1   7  -1
M  END
>  <UniqueID>  (15) 
15

>  <SMILES>  (15) 
Cc1cc(C(=O)[N-]c2cccnc2Cl)c2c(C)nn(-c3ccccc3)c2n1

>  <Energy>  (15) 
99.02525092832653

>  <Genealogy>  (15) 
Cc1cc(C(=O)[N-]c2cccnc2Cl)c2c(C)nn(-c3ccccc3)c2n1 (protonated)
Cc1cc(C(=O)[N-]c2cccnc2Cl)c2c(C)nn(-c3ccccc3)c2n1 (3D coordinates assigned)
Cc1cc(C(=O)[N-]c2cccnc2Cl)c2c(C)nn(-c3ccccc3)c2n1 (optimized conformer: 99.02525092832653 kcal/mol)

>  <smiles>  (15) 
Cc1cc(C(=O)Nc2cccnc2Cl)c2c(C)nn(-c3ccccc3)c2n1

>  <score_type>  (15) 
oracle

>  <origin>  (15) 
adg

>  <m_score__min__energy>  (15) 
-10.15

>  <m_primary>  (15) 
energy

$$$$
15:0
     RDKit          3D

 46 47  0  0  0  0  0  0  0  0999 V2000
   65.4270   31.9520   50.4420 C   0  0  0  0  0  0  0  0  0  0  0  0
   65.2500   32.8780   49.3710 O   0  0  0  0  0  0  0  0  0  0  0  0
   64.0040   33.2020   48.8070 C   0  0  0  0  0  0  0  0  0  0  0  0
   63.7240   33.0320   47.4330 C   0  0  0  0  0  0  0  0  0  0  0  0
   62.4620   33.3570   46.9220 C   0  0  0  0  0  0  0  0  0  0  0  0
   61.4580   33.8750   47.7640 C   0  0  0  0  0  0  0  0  0  0  0  0
   60.1110   34.2310   47.2370 C   0  0  0  0  0  0  0  0  0  0  0  0
   59.2380   34.6980   48.0250 O   0  0  0  0  0  0  0  0  0  0  0  0
   59.7340   34.0340   45.7890 C   0  0  0  0  0  0  0  0  0  0  0  0
   58.9890   32.8250   45.6460 O   0  0  0  0  0  0  0  0  0  0  0  0
   57.8370   32.7500   44.8580 C   0  0  0  0  0  0  0  0  0  0  0  0
   57.0000   33.6940   44.8480 O   0  0  0  0  0  0  0  0  0  0  0  0
   57.6030   31.5510   43.9940 C   0  0  0  0  0  0  0  0  0  0  0  0
   56.2760   30.8440   44.3220 C   0  0  0  0  0  0  0  0  0  0  0  0
   56.3080   29.3350   44.0220 C   0  0  0  0  0  0  0  0  0  0  0  0
   55.7790   28.5950   45.1620 N   0  0  0  0  0  0  0  0  0  0  0  0
   56.2760   27.3300   45.6210 C   0  0  0  0  0  0  0  0  0  0  0  0
   55.5260   26.5290   46.2450 O   0  0  0  0  0  0  0  0  0  0  0  0
   57.7190   26.9990   45.4110 C   0  0  0  0  0  0  0  0  0  0  0  0
   58.5720   28.1340   45.8900 C   0  0  0  0  0  0  0  0  0  0  0  0
   59.5870   28.7670   45.1810 C   0  0  0  0  0  0  0  0  0  0  0  0
   60.2540   29.7430   45.9270 C   0  0  0  0  0  0  0  0  0  0  0  0
   59.7710   29.8720   47.2240 C   0  0  0  0  0  0  0  0  0  0  0  0
   58.5250   28.7640   47.4470 S   0  0  0  0  0  0  0  0  0  0  0  0
   61.7520   34.0580   49.1340 C   0  0  0  0  0  0  0  0  0  0  0  0
   63.0080   33.7160   49.6470 C   0  0  0  0  0  0  0  0  0  0  0  0
   65.3263   32.4787   51.4025 H   0  0  0  0  0  0  0  0  0  0  0  0
   64.6634   31.1631   50.3746 H   0  0  0  0  0  0  0  0  0  0  0  0
   66.4277   31.5004   50.3746 H   0  0  0  0  0  0  0  0  0  0  0  0
   64.5023   32.6419   46.7606 H   0  0  0  0  0  0  0  0  0  0  0  0
   62.2521   33.2065   45.8528 H   0  0  0  0  0  0  0  0  0  0  0  0
   59.1213   34.8831   45.4519 H   0  0  0  0  0  0  0  0  0  0  0  0
   60.6478   33.9730   45.1797 H   0  0  0  0  0  0  0  0  0  0  0  0
   57.5822   31.8718   42.9420 H   0  0  0  0  0  0  0  0  0  0  0  0
   58.4192   30.8376   44.1807 H   0  0  0  0  0  0  0  0  0  0  0  0
   56.0592   30.9842   45.3913 H   0  0  0  0  0  0  0  0  0  0  0  0
   55.4992   31.2898   43.6834 H   0  0  0  0  0  0  0  0  0  0  0  0
   55.6939   29.1259   43.1337 H   0  0  0  0  0  0  0  0  0  0  0  0
   57.3462   29.0229   43.8356 H   0  0  0  0  0  0  0  0  0  0  0  0
   57.9712   26.0887   45.9747 H   0  0  0  0  0  0  0  0  0  0  0  0
   57.9024   26.8323   44.3393 H   0  0  0  0  0  0  0  0  0  0  0  0
   59.8396   28.5242   44.1383 H   0  0  0  0  0  0  0  0  0  0  0  0
   61.0800   30.3494   45.5269 H   0  0  0  0  0  0  0  0  0  0  0  0
   60.1419   30.5808   47.9791 H   0  0  0  0  0  0  0  0  0  0  0  0
   60.9853   34.4737   49.8043 H   0  0  0  0  0  0  0  0  0  0  0  0
   63.2149   33.8519   50.7188 H   0  0  0  0  0  0  0  0  0  0  0  0
  1  2  1  0
  2  3  1  0
  3  4  2  0
  4  5  1  0
  5  6  2  0
  6  7  1  0
  7  8  2  0
  7  9  1  0
  9 10  1  0
 10 11  1  0
 11 12  2  0
 11 13  1  0
 13 14  1  0
 14 15  1  0
 15 16  1  0
 16 17  1  0
 17 18  2  0
 17 19  1  0
 19 20  1  0
 20 21  2  0
 21 22  1  0
 22 23  2  0
 23 24  1  0
  6 25  1  0
 25 26  2  0
 26  3  1  0
 24 20  1  0
  1 27  1  0
  1 28  1  0
  1 29  1  0
  4 30  1  0
  5 31  1  0
  9 32  1  0
  9 33  1  0
 13 34  1  0
 13 35  1  0
 14 36  1  0
 14 37  1  0
 15 38  1  0
 15 39  1  0
 19 40  1  0
 19 41  1  0
 21 42  1  0
 22 43  1  0
 23 44  1  0
 25 45  1  0
 26 46  1  0
M  CHG  1  16  -1
M  END
>  <UniqueID>  (16) 
16

>  <SMILES>  (16) 
COc1ccc(C(=O)COC(=O)CCC[N-]C(=O)Cc2cccs2)cc1

>  <Energy>  (16) 
55.30166537778452

>  <Genealogy>  (16) 
COc1ccc(C(=O)COC(=O)CCC[N-]C(=O)Cc2cccs2)cc1 (protonated)
COc1ccc(C(=O)COC(=O)CCC[N-]C(=O)Cc2cccs2)cc1 (3D coordinates assigned)
COc1ccc(C(=O)COC(=O)CCC[N-]C(=O)Cc2cccs2)cc1 (optimized conformer: 55.30166537778452 kcal/mol)

>  <smiles>  (16) 
COc1ccc(C(=O)COC(=O)CCCNC(=O)Cc2cccs2)cc1

>  <score_type>  (16) 
oracle

>  <origin>  (16) 
adg

>  <m_score__min__energy>  (16) 
-10.07

>  <m_primary>  (16) 
energy

$$$$
16:0
     RDKit          3D

 34 36  0  0  0  0  0  0  0  0999 V2000
   57.9970   34.1440   45.2210 C   0  0  0  0  0  0  0  0  0  0  0  0
   57.3870   33.1370   44.4790 O   0  0  0  0  0  0  0  0  0  0  0  0
   57.5600   31.7830   44.6030 C   0  0  0  0  0  0  0  0  0  0  0  0
   56.8130   30.8370   43.9120 C   0  0  0  0  0  0  0  0  0  0  0  0
   57.0390   29.4790   44.0830 C   0  0  0  0  0  0  0  0  0  0  0  0
   58.0230   29.0560   44.9540 C   0  0  0  0  0  0  0  0  0  0  0  0
   58.2640   27.6290   45.1360 C   0  0  0  0  0  0  0  0  0  0  0  0
   59.1770   27.0580   45.9840 C   0  0  0  0  0  0  0  0  0  0  0  0
   59.0560   25.7200   45.8260 N   0  0  0  0  0  0  0  0  0  0  0  0
   58.1050   25.4420   44.9150 C   0  0  0  0  0  0  0  0  0  0  0  0
   57.6490   24.1330   44.4400 C   0  0  0  0  0  0  0  0  0  0  0  0
   58.1800   22.9470   44.9060 C   0  0  0  0  0  0  0  0  0  0  0  0
   57.7510   21.7080   44.4590 C   0  0  0  0  0  0  0  0  0  0  0  0
   56.7510   21.7150   43.5060 C   0  0  0  0  0  0  0  0  0  0  0  0
   56.2680   20.4940   43.0070 O   0  0  0  0  0  0  0  0  0  0  0  0
   56.1950   22.8840   43.0140 C   0  0  0  0  0  0  0  0  0  0  0  0
   56.6410   24.1110   43.4790 C   0  0  0  0  0  0  0  0  0  0  0  0
   57.6220   26.6330   44.4950 N   0  0  0  0  0  0  0  0  0  0  0  0
   58.7800   29.9720   45.6520 C   0  0  0  0  0  0  0  0  0  0  0  0
   58.5270   31.3140   45.4560 C   0  0  0  0  0  0  0  0  0  0  0  0
   57.8712   33.9364   46.2939 H   0  0  0  0  0  0  0  0  0  0  0  0
   59.0692   34.1805   44.9778 H   0  0  0  0  0  0  0  0  0  0  0  0
   57.5328   35.1111   44.9778 H   0  0  0  0  0  0  0  0  0  0  0  0
   56.0284   31.1708   43.2170 H   0  0  0  0  0  0  0  0  0  0  0  0
   56.4378   28.7438   43.5280 H   0  0  0  0  0  0  0  0  0  0  0  0
   59.8697   27.5829   46.6583 H   0  0  0  0  0  0  0  0  0  0  0  0
   59.6260   25.0250   46.3450 H   0  0  0  0  0  0  0  0  0  0  0  0
   58.9766   22.9875   45.6635 H   0  0  0  0  0  0  0  0  0  0  0  0
   58.1824   20.7712   44.8414 H   0  0  0  0  0  0  0  0  0  0  0  0
   56.7420   19.6190   43.1080 H   0  0  0  0  0  0  0  0  0  0  0  0
   55.4002   22.8387   42.2549 H   0  0  0  0  0  0  0  0  0  0  0  0
   56.2082   25.0475   43.0973 H   0  0  0  0  0  0  0  0  0  0  0  0
   59.5656   29.6417   46.3474 H   0  0  0  0  0  0  0  0  0  0  0  0
   59.1316   32.0456   46.0121 H   0  0  0  0  0  0  0  0  0  0  0  0
  1  2  1  0
  2  3  1  0
  3  4  2  0
  4  5  1  0
  5  6  2  0
  6  7  1  0
  7  8  2  0
  8  9  1  0
  9 10  1  0
 10 11  1  0
 11 12  2  0
 12 13  1  0
 13 14  2  0
 14 15  1  0
 14 16  1  0
 16 17  2  0
 10 18  2  0
  6 19  1  0
 19 20  2  0
 20  3  1  0
 18  7  1  0
 17 11  1  0
  1 21  1  0
  1 22  1  0
  1 23  1  0
  4 24  1  0
  5 25  1  0
  8 26  1  0
  9 27  1  0
 12 28  1  0
 13 29  1  0
 15 30  1  0
 16 31  1  0
 17 32  1  0
 19 33  1  0
 20 34  1  0
M  END
>  <smiles>  (17) 
COc1ccc(-c2c[nH]c(-c3ccc(O)cc3)n2)cc1

>  <score_type>  (17) 
oracle

>  <origin>  (17) 
adg

>  <m_score__min__energy>  (17) 
-6.46

>  <m_primary>  (17) 
energy

$$$$
17:0
     RDKit          3D

 42 44  0  0  0  0  0  0  0  0999 V2000
   57.8390   22.7700   45.6290 C   0  0  0  0  0  0  0  0  0  0  0  0
   57.6760   24.2540   45.7640 C   0  0  0  0  0  0  0  0  0  0  0  0
   56.3980   24.8110   45.9100 C   0  0  0  0  0  0  0  0  0  0  0  0
   56.2350   26.1950   45.9970 C   0  0  0  0  0  0  0  0  0  0  0  0
   57.3530   27.0480   45.9320 C   0  0  0  0  0  0  0  0  0  0  0  0
   57.2010   28.4770   45.9910 N   0  0  0  0  0  0  0  0  0  0  0  0
   56.6620   29.4500   44.6590 S   0  0  0  0  0  0  0  0  0  0  0  0
   57.0450   28.7780   43.3690 O   0  0  0  0  0  0  0  0  0  0  0  0
   55.1650   29.5930   44.7250 O   0  0  0  0  0  0  0  0  0  0  0  0
   57.3840   31.0510   44.7740 C   0  0  0  0  0  0  0  0  0  0  0  0
   57.5490   31.8430   43.6320 C   0  0  0  0  0  0  0  0  0  0  0  0
   58.1650   33.0930   43.7270 C   0  0  0  0  0  0  0  0  0  0  0  0
   58.6280   33.5640   44.9650 C   0  0  0  0  0  0  0  0  0  0  0  0
   58.4300   32.7860   46.1260 C   0  0  0  0  0  0  0  0  0  0  0  0
   57.8220   31.5250   46.0180 C   0  0  0  0  0  0  0  0  0  0  0  0
   58.9610   33.2440   47.4640 C   0  0  0  0  0  0  0  0  0  0  0  0
   59.1780   34.7010   47.5040 N   0  0  0  0  0  0  0  0  0  0  0  0
   60.0010   35.1430   46.3680 C   0  0  0  0  0  0  0  0  0  0  0  0
   59.2470   34.9360   45.0480 C   0  0  0  0  0  0  0  0  0  0  0  0
   58.6430   26.4930   45.7960 C   0  0  0  0  0  0  0  0  0  0  0  0
   59.8460   27.3800   45.6680 C   0  0  0  0  0  0  0  0  0  0  0  0
   58.7910   25.0990   45.6910 C   0  0  0  0  0  0  0  0  0  0  0  0
   57.8891   22.3142   46.6289 H   0  0  0  0  0  0  0  0  0  0  0  0
   56.9810   22.3554   45.0795 H   0  0  0  0  0  0  0  0  0  0  0  0
   58.7665   22.5515   45.0795 H   0  0  0  0  0  0  0  0  0  0  0  0
   55.5175   24.1533   45.9563 H   0  0  0  0  0  0  0  0  0  0  0  0
   55.2279   26.6209   46.1169 H   0  0  0  0  0  0  0  0  0  0  0  0
   57.1925   31.4800   42.6567 H   0  0  0  0  0  0  0  0  0  0  0  0
   58.2879   33.7118   42.8259 H   0  0  0  0  0  0  0  0  0  0  0  0
   57.6885   30.9046   46.9165 H   0  0  0  0  0  0  0  0  0  0  0  0
   58.2364   32.9716   48.2455 H   0  0  0  0  0  0  0  0  0  0  0  0
   59.9307   32.7520   47.6305 H   0  0  0  0  0  0  0  0  0  0  0  0
   59.6760   34.9440   48.3930 H   0  0  0  0  0  0  0  0  0  0  0  0
   58.2550   35.1980   47.4950 H   0  0  0  0  0  0  0  0  0  0  0  0
   60.2383   36.2106   46.4862 H   0  0  0  0  0  0  0  0  0  0  0  0
   60.9271   34.5498   46.3465 H   0  0  0  0  0  0  0  0  0  0  0  0
   58.4507   35.6910   44.9708 H   0  0  0  0  0  0  0  0  0  0  0  0
   59.9682   35.0357   44.2235 H   0  0  0  0  0  0  0  0  0  0  0  0
   60.2113   27.6493   46.6700 H   0  0  0  0  0  0  0  0  0  0  0  0
   60.6374   26.8477   45.1201 H   0  0  0  0  0  0  0  0  0  0  0  0
   59.5714   28.2934   45.1201 H   0  0  0  0  0  0  0  0  0  0  0  0
   59.7928   24.6672   45.5500 H   0  0  0  0  0  0  0  0  0  0  0  0
  1  2  1  0
  2  3  2  0
  3  4  1  0
  4  5  2  0
  5  6  1  0
  6  7  1  0
  7  8  2  0
  7  9  2  0
  7 10  1  0
 10 11  2  0
 11 12  1  0
 12 13  2  0
 13 14  1  0
 14 15  2  0
 14 16  1  0
 16 17  1  0
 17 18  1  0
 18 19  1  0
  5 20  1  0
 20 21  1  0
 20 22  2  0
 22  2  1  0
 15 10  1  0
 19 13  1  0
  1 23  1  0
  1 24  1  0
  1 25  1  0
  3 26  1  0
  4 27  1  0
 11 28  1  0
 12 29  1  0
 15 30  1  0
 16 31  1  0
 16 32  1  0
 17 33  1  0
 17 34  1  0
 18 35  1  0
 18 36  1  0
 19 37  1  0
 19 38  1  0
 21 39  1  0
 21 40  1  0
 21 41  1  0
 22 42  1  0
M  CHG  2   6  -1  17   1
M  END
>  <UniqueID>  (18) 
17

>  <SMILES>  (18) 
Cc1ccc([N-]S(=O)(=O)c2ccc3c(c2)C[NH2+]CC3)c(C)c1

>  <Energy>  (18) 
47.56903224655188

>  <Genealogy>  (18) 
Cc1ccc([N-]S(=O)(=O)c2ccc3c(c2)C[NH2+]CC3)c(C)c1 (protonated)
Cc1ccc([N-]S(=O)(=O)c2ccc3c(c2)C[NH2+]CC3)c(C)c1 (3D coordinates assigned)
Cc1ccc([N-]S(=O)(=O)c2ccc3c(c2)C[NH2+]CC3)c(C)c1 (nonaromatic ring conformer: 47.56903224655188 kcal/mol)

>  <smiles>  (18) 
Cc1ccc(NS(=O)(=O)c2ccc3c(c2)CNCC3)c(C)c1

>  <score_type>  (18) 
oracle

>  <origin>  (18) 
adg

>  <m_score__min__energy>  (18) 
-8.2899999999999991

>  <m_primary>  (18) 
energy

$$$$
18:0
     RDKit          3D

 47 49  0  0  0  0  0  0  0  0999 V2000
   56.2080   30.6590   44.5730 O   0  0  0  0  0  0  0  0  0  0  0  0
   57.4320   30.0540   43.9420 S   0  0  0  0  0  0  0  0  0  0  0  0
   57.0120   28.9550   43.0080 O   0  0  0  0  0  0  0  0  0  0  0  0
   58.2860   31.2740   43.0460 N   0  0  0  0  0  0  0  0  0  0  0  0
   57.8490   32.6060   43.4780 C   0  0  0  0  0  0  0  0  0  0  0  0
   58.4350   32.9320   44.8620 C   0  0  0  0  0  0  0  0  0  0  0  0
   59.1250   34.2990   44.8530 C   0  0  0  0  0  0  0  0  0  0  0  0
   59.8440   34.5340   46.1910 C   0  0  0  0  0  0  0  0  0  0  0  0
   59.0470   34.1240   47.3710 N   0  0  0  0  0  0  0  0  0  0  0  0
   59.7370   33.2520   48.3460 C   0  0  0  0  0  0  0  0  0  0  0  0
   61.1600   32.9200   47.9600 C   0  0  0  0  0  0  0  0  0  0  0  0
   62.1890   33.8620   48.1110 C   0  0  0  0  0  0  0  0  0  0  0  0
   63.4940   33.5380   47.7390 C   0  0  0  0  0  0  0  0  0  0  0  0
   63.7660   32.2670   47.2320 C   0  0  0  0  0  0  0  0  0  0  0  0
   62.7670   31.3530   47.1140 N   0  0  0  0  0  0  0  0  0  0  0  0
   61.4870   31.6450   47.4700 C   0  0  0  0  0  0  0  0  0  0  0  0
   57.6140   33.8400   47.1440 C   0  0  0  0  0  0  0  0  0  0  0  0
   57.3490   32.8820   45.9610 C   0  0  0  0  0  0  0  0  0  0  0  0
   58.4850   29.3800   45.1820 C   0  0  0  0  0  0  0  0  0  0  0  0
   59.5770   28.5740   44.8300 C   0  0  0  0  0  0  0  0  0  0  0  0
   60.4040   28.0400   45.8230 C   0  0  0  0  0  0  0  0  0  0  0  0
   60.1460   28.3090   47.1700 C   0  0  0  0  0  0  0  0  0  0  0  0
   59.0620   29.1170   47.5260 C   0  0  0  0  0  0  0  0  0  0  0  0
   58.8130   29.3800   48.8320 F   0  0  0  0  0  0  0  0  0  0  0  0
   58.2340   29.6540   46.5350 C   0  0  0  0  0  0  0  0  0  0  0  0
   58.0240   31.1560   42.0400 H   0  0  0  0  0  0  0  0  0  0  0  0
   58.1945   33.3557   42.7510 H   0  0  0  0  0  0  0  0  0  0  0  0
   56.7508   32.6220   43.5394 H   0  0  0  0  0  0  0  0  0  0  0  0
   59.1862   32.1625   45.0933 H   0  0  0  0  0  0  0  0  0  0  0  0
   59.8591   34.3311   44.0345 H   0  0  0  0  0  0  0  0  0  0  0  0
   58.3686   35.0842   44.7069 H   0  0  0  0  0  0  0  0  0  0  0  0
   60.7819   33.9593   46.1877 H   0  0  0  0  0  0  0  0  0  0  0  0
   60.0180   35.6166   46.2787 H   0  0  0  0  0  0  0  0  0  0  0  0
   59.7511   33.7627   49.3202 H   0  0  0  0  0  0  0  0  0  0  0  0
   59.1820   32.3029   48.3791 H   0  0  0  0  0  0  0  0  0  0  0  0
   61.9664   34.8572   48.5232 H   0  0  0  0  0  0  0  0  0  0  0  0
   64.3011   34.2779   47.8445 H   0  0  0  0  0  0  0  0  0  0  0  0
   64.7899   32.0044   46.9275 H   0  0  0  0  0  0  0  0  0  0  0  0
   60.7039   30.8785   47.3736 H   0  0  0  0  0  0  0  0  0  0  0  0
   57.2013   33.3863   48.0571 H   0  0  0  0  0  0  0  0  0  0  0  0
   57.1326   34.7974   46.8956 H   0  0  0  0  0  0  0  0  0  0  0  0
   57.2977   31.8549   46.3513 H   0  0  0  0  0  0  0  0  0  0  0  0
   56.4060   33.2027   45.4942 H   0  0  0  0  0  0  0  0  0  0  0  0
   59.7835   28.3614   43.7707 H   0  0  0  0  0  0  0  0  0  0  0  0
   61.2592   27.4071   45.5435 H   0  0  0  0  0  0  0  0  0  0  0  0
   60.7957   27.8851   47.9499 H   0  0  0  0  0  0  0  0  0  0  0  0
   57.3840   30.2927   46.8170 H   0  0  0  0  0  0  0  0  0  0  0  0
  1  2  2  0
  2  3  2  0
  2  4  1  0
  4  5  1  0
  5  6  1  0
  6  7  1  0
  7  8  1  0
  8  9  1  0
  9 10  1  0
 10 11  1  0
 11 12  2  0
 12 13  1  0
 13 14  2  0
 14 15  1  0
 15 16  2  0
  9 17  1  0
 17 18  1  0
  2 19  1  0
 19 20  2  0
 20 21  1  0
 21 22  2  0
 22 23  1  0
 23 24  1  0
 23 25  2  0
 18  6  1  0
 25 19  1  0
 16 11  1  0
  4 26  1  0
  5 27  1  0
  5 28  1  0
  6 29  1  0
  7 30  1  0
  7 31  1  0
  8 32  1  0
  8 33  1  0
 10 34  1  0
 10 35  1  0
 12 36  1  0
 13 37  1  0
 14 38  1  0
 16 39  1  0
 17 40  1  0
 17 41  1  0
 18 42  1  0
 18 43  1  0
 20 44  1  0
 21 45  1  0
 22 46  1  0
 25 47  1  0
M  END
>  <UniqueID>  (19) 
18

>  <SMILES>  (19) 
O=S(=O)(NCC1CCN(Cc2cccnc2)CC1)c1cccc(F)c1

>  <Energy>  (19) 
56.78252203835816

>  <Genealogy>  (19) 
O=S(=O)(NCC1CCN(Cc2cccnc2)CC1)c1cccc(F)c1 (3D coordinates assigned)
O=S(=O)(NCC1CCN(Cc2cccnc2)CC1)c1cccc(F)c1 (nonaromatic ring conformer: 56.78252203835816 kcal/mol)

>  <smiles>  (19) 
O=S(=O)(NCC1CCN(Cc2cccnc2)CC1)c1cccc(F)c1

>  <score_type>  (19) 
oracle

>  <origin>  (19) 
adg

>  <m_score__min__energy>  (19) 
-8.8200000000000003

>  <m_primary>  (19) 
energy

$$$$
19:0
     RDKit          3D

 49 50  0  0  0  0  0  0  0  0999 V2000
   58.9080   33.5260   48.2710 C   0  0  0  0  0  0  0  0  0  0  0  0
   58.5080   33.3160   46.8370 C   0  0  0  0  0  0  0  0  0  0  0  0
   57.7760   32.1710   46.4750 C   0  0  0  0  0  0  0  0  0  0  0  0
   57.3900   31.9600   45.1360 C   0  0  0  0  0  0  0  0  0  0  0  0
   56.6540   30.8370   44.7230 O   0  0  0  0  0  0  0  0  0  0  0  0
   57.1510   29.4990   44.6410 C   0  0  0  0  0  0  0  0  0  0  0  0
   58.6820   29.4770   44.5490 C   0  0  0  0  0  0  0  0  0  0  0  0
   59.2710   28.2290   45.2270 C   0  0  0  0  0  0  0  0  0  0  0  0
   60.3290   28.5760   46.2880 C   0  0  0  0  0  0  0  0  0  0  0  0
   60.2310   30.0350   46.7630 C   0  0  0  0  0  0  0  0  0  0  0  0
   61.3990   30.4740   47.6750 C   0  0  0  0  0  0  0  0  0  0  0  0
   61.5190   31.9310   47.9020 N   0  0  0  0  0  0  0  0  0  0  0  0
   61.9330   32.7590   46.7480 C   0  0  0  0  0  0  0  0  0  0  0  0
   63.3950   33.2230   46.8530 C   0  0  0  0  0  0  0  0  0  0  0  0
   63.7440   33.8420   48.2220 C   0  0  0  0  0  0  0  0  0  0  0  0
   62.6060   33.7380   49.2440 C   0  0  0  0  0  0  0  0  0  0  0  0
   62.0030   32.3310   49.2410 C   0  0  0  0  0  0  0  0  0  0  0  0
   57.7540   32.8990   44.1660 C   0  0  0  0  0  0  0  0  0  0  0  0
   58.4820   34.0370   44.5170 C   0  0  0  0  0  0  0  0  0  0  0  0
   58.8610   34.2520   45.8450 C   0  0  0  0  0  0  0  0  0  0  0  0
   59.7780   35.7040   46.2350 Cl  0  0  0  0  0  0  0  0  0  0  0  0
   58.1297   33.1174   48.9323 H   0  0  0  0  0  0  0  0  0  0  0  0
   59.8609   33.0119   48.4649 H   0  0  0  0  0  0  0  0  0  0  0  0
   59.0260   34.6023   48.4649 H   0  0  0  0  0  0  0  0  0  0  0  0
   57.5023   31.4335   47.2438 H   0  0  0  0  0  0  0  0  0  0  0  0
   56.8381   28.9451   45.5383 H   0  0  0  0  0  0  0  0  0  0  0  0
   56.7422   29.0322   43.7327 H   0  0  0  0  0  0  0  0  0  0  0  0
   58.9762   29.4800   43.4891 H   0  0  0  0  0  0  0  0  0  0  0  0
   59.0710   30.3662   45.0667 H   0  0  0  0  0  0  0  0  0  0  0  0
   58.4549   27.6732   45.7119 H   0  0  0  0  0  0  0  0  0  0  0  0
   59.7643   27.6285   44.4485 H   0  0  0  0  0  0  0  0  0  0  0  0
   60.1900   27.9129   47.1546 H   0  0  0  0  0  0  0  0  0  0  0  0
   61.3194   28.4400   45.8290 H   0  0  0  0  0  0  0  0  0  0  0  0
   60.2180   30.6878   45.8777 H   0  0  0  0  0  0  0  0  0  0  0  0
   59.3106   30.1164   47.3598 H   0  0  0  0  0  0  0  0  0  0  0  0
   61.2656   29.9888   48.6532 H   0  0  0  0  0  0  0  0  0  0  0  0
   62.3189   30.1738   47.1519 H   0  0  0  0  0  0  0  0  0  0  0  0
   61.8156   32.1669   45.8284 H   0  0  0  0  0  0  0  0  0  0  0  0
   61.2969   33.6563   46.7341 H   0  0  0  0  0  0  0  0  0  0  0  0
   64.0493   32.3547   46.6859 H   0  0  0  0  0  0  0  0  0  0  0  0
   63.5424   34.0065   46.0951 H   0  0  0  0  0  0  0  0  0  0  0  0
   64.6245   33.3211   48.6261 H   0  0  0  0  0  0  0  0  0  0  0  0
   63.9349   34.9125   48.0557 H   0  0  0  0  0  0  0  0  0  0  0  0
   62.9999   33.9599   50.2468 H   0  0  0  0  0  0  0  0  0  0  0  0
   61.8211   34.4598   48.9739 H   0  0  0  0  0  0  0  0  0  0  0  0
   62.7723   31.6157   49.5674 H   0  0  0  0  0  0  0  0  0  0  0  0
   61.1407   32.3328   49.9240 H   0  0  0  0  0  0  0  0  0  0  0  0
   57.4641   32.7394   43.1170 H   0  0  0  0  0  0  0  0  0  0  0  0
   58.7590   34.7689   43.7440 H   0  0  0  0  0  0  0  0  0  0  0  0
  1  2  1  0
  2  3  2  0
  3  4  1  0
  4  5  1  0
  5  6  1  0
  6  7  1  0
  7  8  1  0
  8  9  1  0
  9 10  1  0
 10 11  1  0
 11 12  1  0
 12 13  1  0
 13 14  1  0
 14 15  1  0
 15 16  1  0
 16 17  1  0
  4 18  2  0
 18 19  1  0
 19 20  2  0
 20 21  1  0
 20  2  1  0
 17 12  1  0
  1 22  1  0
  1 23  1  0
  1 24  1  0
  3 25  1  0
  6 26  1  0
  6 27  1  0
  7 28  1  0
  7 29  1  0
  8 30  1  0
  8 31  1  0
  9 32  1  0
  9 33  1  0
 10 34  1  0
 10 35  1  0
 11 36  1  0
 11 37  1  0
 13 38  1  0
 13 39  1  0
 14 40  1  0
 14 41  1  0
 15 42  1  0
 15 43  1  0
 16 44  1  0
 16 45  1  0
 17 46  1  0
 17 47  1  0
 18 48  1  0
 19 49  1  0
M  END
>  <UniqueID>  (20) 
19

>  <SMILES>  (20) 
Cc1cc(OCCCCCCN2CCCCC2)ccc1Cl

>  <Energy>  (20) 
54.20523248799388

>  <Genealogy>  (20) 
Cc1cc(OCCCCCCN2CCCCC2)ccc1Cl (3D coordinates assigned)
Cc1cc(OCCCCCCN2CCCCC2)ccc1Cl (nonaromatic ring conformer: 54.20523248799388 kcal/mol)

>  <smiles>  (20) 
Cc1cc(OCCCCCCN2CCCCC2)ccc1Cl

>  <score_type>  (20) 
oracle

>  <origin>  (20) 
adg

>  <m_score__min__energy>  (20) 
-7.5999999999999996

>  <m_primary>  (20) 
energy

$$$$
20:0
     RDKit          3D

 50 53  0  0  0  0  0  0  0  0999 V2000
   63.0070   34.2060   49.8870 C   0  0  0  0  0  0  0  0  0  0  0  0
   61.6890   34.4670   49.1490 C   0  0  0  0  0  0  0  0  0  0  0  0
   61.3640   33.3890   48.1770 N   0  0  1  0  0  0  0  0  0  0  0  0
   61.6990   32.0370   48.6510 C   0  0  1  0  0  0  0  0  0  0  0  0
   60.6040   31.6610   49.6480 C   0  0  0  0  0  0  0  0  0  0  0  0
   59.3830   32.4130   49.1410 C   0  0  0  0  0  0  0  0  0  0  0  0
   59.9080   33.2640   47.9640 C   0  0  2  0  0  0  0  0  0  0  0  0
   59.6880   32.5830   46.5840 C   0  0  2  0  0  0  0  0  0  0  0  0
   58.2140   32.4880   46.1970 C   0  0  0  0  0  0  0  0  0  0  0  0
   57.3210   32.7930   47.0320 O   0  0  0  0  0  0  0  0  0  0  0  0
   57.7890   32.0340   44.8500 C   0  0  0  0  0  0  0  0  0  0  0  0
   58.2190   32.7390   43.7110 C   0  0  0  0  0  0  0  0  0  0  0  0
   57.8340   32.3240   42.4330 C   0  0  0  0  0  0  0  0  0  0  0  0
   57.0260   31.1960   42.2760 C   0  0  0  0  0  0  0  0  0  0  0  0
   56.6040   30.4780   43.3980 C   0  0  0  0  0  0  0  0  0  0  0  0
   56.9840   30.8900   44.6790 C   0  0  0  0  0  0  0  0  0  0  0  0
   60.5490   31.2700   46.3930 C   0  0  2  0  0  0  0  0  0  0  0  0
   59.7370   30.0070   46.1110 C   0  0  0  0  0  0  0  0  0  0  0  0
   59.8300   29.3140   44.8890 C   0  0  0  0  0  0  0  0  0  0  0  0
   59.1110   28.1340   44.6820 C   0  0  0  0  0  0  0  0  0  0  0  0
   58.2970   27.6200   45.6940 C   0  0  0  0  0  0  0  0  0  0  0  0
   57.3220   26.0020   45.4100 Br  0  0  0  0  0  0  0  0  0  0  0  0
   58.2080   28.2850   46.9180 C   0  0  0  0  0  0  0  0  0  0  0  0
   58.9240   29.4660   47.1290 C   0  0  0  0  0  0  0  0  0  0  0  0
   61.7020   31.0520   47.4450 C   0  0  0  0  0  0  0  0  0  0  0  0
   62.8325   34.2406   50.9725 H   0  0  0  0  0  0  0  0  0  0  0  0
   63.3927   33.2140   49.6090 H   0  0  0  0  0  0  0  0  0  0  0  0
   63.7416   34.9761   49.6090 H   0  0  0  0  0  0  0  0  0  0  0  0
   60.8769   34.5338   49.8879 H   0  0  0  0  0  0  0  0  0  0  0  0
   61.7982   35.4060   48.5865 H   0  0  0  0  0  0  0  0  0  0  0  0
   61.8660   33.6080   47.2820 H   0  0  0  0  0  0  0  0  0  0  0  0
   62.6933   31.9946   49.1196 H   0  0  0  0  0  0  0  0  0  0  0  0
   60.4259   30.5755   49.6445 H   0  0  0  0  0  0  0  0  0  0  0  0
   60.8641   31.9192   50.6851 H   0  0  0  0  0  0  0  0  0  0  0  0
   58.6097   31.7103   48.7971 H   0  0  0  0  0  0  0  0  0  0  0  0
   58.9180   33.0287   49.9250 H   0  0  0  0  0  0  0  0  0  0  0  0
   59.3723   34.2245   47.9442 H   0  0  0  0  0  0  0  0  0  0  0  0
   60.1032   33.2579   45.8210 H   0  0  0  0  0  0  0  0  0  0  0  0
   58.8629   33.6233   43.8270 H   0  0  0  0  0  0  0  0  0  0  0  0
   58.1682   32.8871   41.5491 H   0  0  0  0  0  0  0  0  0  0  0  0
   56.7218   30.8728   41.2695 H   0  0  0  0  0  0  0  0  0  0  0  0
   55.9715   29.5867   43.2732 H   0  0  0  0  0  0  0  0  0  0  0  0
   56.6527   30.3180   45.5582 H   0  0  0  0  0  0  0  0  0  0  0  0
   61.0839   31.4796   45.4549 H   0  0  0  0  0  0  0  0  0  0  0  0
   60.4754   29.7056   44.0889 H   0  0  0  0  0  0  0  0  0  0  0  0
   59.1863   27.6080   43.7188 H   0  0  0  0  0  0  0  0  0  0  0  0
   57.5726   27.8782   47.7185 H   0  0  0  0  0  0  0  0  0  0  0  0
   58.8530   29.9794   48.0992 H   0  0  0  0  0  0  0  0  0  0  0  0
   61.6115   30.0298   47.8412 H   0  0  0  0  0  0  0  0  0  0  0  0
   62.6433   31.2347   46.9060 H   0  0  0  0  0  0  0  0  0  0  0  0
  1  2  1  0
  2  3  1  0
  3  4  1  0
  4  5  1  0
  5  6  1  0
  6  7  1  0
  7  8  1  0
  8  9  1  0
  9 10  2  0
  9 11  1  0
 11 12  2  0
 12 13  1  0
 13 14  2  0
 14 15  1  0
 15 16  2  0
  8 17  1  0
 17 18  1  0
 18 19  2  0
 19 20  1  0
 20 21  2  0
 21 22  1  0
 21 23  1  0
 23 24  2  0
 17 25  1  0
  7  3  1  0
 16 11  1  0
 24 18  1  0
 25  4  1  0
  1 26  1  0
  1 27  1  0
  1 28  1  0
  2 29  1  0
  2 30  1  0
  3 31  1  6
  4 32  1  1
  5 33  1  0
  5 34  1  0
  6 35  1  0
  6 36  1  0
  7 37  1  6
  8 38  1  6
 12 39  1  0
 13 40  1  0
 14 41  1  0
 15 42  1  0
 16 43  1  0
 17 44  1  6
 19 45  1  0
 20 46  1  0
 23 47  1  0
 24 48  1  0
 25 49  1  0
 25 50  1  0
M  CHG  1   3   1
M  END
>  <UniqueID>  (21) 
20

>  <SMILES>  (21) 
CC[N@@H+]1C2CC[C@H]1CC(c1ccc(Br)cc1)C2C(=O)c1ccccc1

>  <Energy>  (21) 
84.78707906748075

>  <Genealogy>  (21) 
CC[NH+]1C2CCC1C(C(=O)c1ccccc1)C(c1ccc(Br)cc1)C2 (protonated)
CC[N@@H+]1C2CC[C@H]1CC(c1ccc(Br)cc1)C2C(=O)c1ccccc1 (chirality)
CC[N@@H+]1C2CC[C@H]1CC(c1ccc(Br)cc1)C2C(=O)c1ccccc1 (3D coordinates assigned)
CC[N@@H+]1C2CC[C@H]1CC(c1ccc(Br)cc1)C2C(=O)c1ccccc1 (nonaromatic ring conformer: 84.78707906748075 kcal/mol)

>  <smiles>  (21) 
CCN1C2CCC1C(C(=O)c1ccccc1)C(c1ccc(Br)cc1)C2

>  <score_type>  (21) 
oracle

>  <origin>  (21) 
adg

>  <m_score__min__energy>  (21) 
-6.71

>  <m_primary>  (21) 
energy

$$$$
21:0
     RDKit          3D

 44 46  0  0  0  0  0  0  0  0999 V2000
   57.7500   31.2170   46.5870 H   0  0  0  0  0  0  0  0  0  0  0  0
   58.1440   31.9390   47.1800 O   0  0  0  0  0  0  0  0  0  0  0  0
   59.5120   32.2060   47.1990 C   0  0  0  0  0  0  0  0  0  0  0  0
   59.9570   33.5350   47.1950 C   0  0  0  0  0  0  0  0  0  0  0  0
   59.2264   34.3546   47.1282 H   0  0  0  0  0  0  0  0  0  0  0  0
   61.3190   33.8270   47.2750 C   0  0  0  0  0  0  0  0  0  0  0  0
   61.6569   34.8738   47.2689 H   0  0  0  0  0  0  0  0  0  0  0  0
   62.2570   32.7910   47.3630 C   0  0  0  0  0  0  0  0  0  0  0  0
   63.7170   33.1020   47.5160 C   0  0  0  0  0  0  0  0  0  0  0  0
   63.9703   33.1560   48.5851 H   0  0  0  0  0  0  0  0  0  0  0  0
   64.3126   32.3106   47.0375 H   0  0  0  0  0  0  0  0  0  0  0  0
   63.9383   34.0674   47.0375 H   0  0  0  0  0  0  0  0  0  0  0  0
   61.8150   31.4600   47.3780 C   0  0  0  0  0  0  0  0  0  0  0  0
   62.5469   30.6466   47.4906 H   0  0  0  0  0  0  0  0  0  0  0  0
   60.4480   31.1510   47.2510 C   0  0  0  0  0  0  0  0  0  0  0  0
   60.0090   29.6950   47.2390 C   0  0  0  0  0  0  0  0  0  0  0  0
   60.8796   29.0736   46.9821 H   0  0  0  0  0  0  0  0  0  0  0  0
   59.6113   29.4750   48.2407 H   0  0  0  0  0  0  0  0  0  0  0  0
   58.9250   29.3990   46.2740 N   0  0  0  0  0  0  0  0  0  0  0  0
   59.3440   29.3720   44.8510 C   0  0  0  0  0  0  0  0  0  0  0  0
   58.7068   30.0658   44.2830 H   0  0  0  0  0  0  0  0  0  0  0  0
   60.4028   29.6673   44.8099 H   0  0  0  0  0  0  0  0  0  0  0  0
   59.2270   27.9760   44.2280 C   0  0  0  0  0  0  0  0  0  0  0  0
   59.5204   28.0301   43.1692 H   0  0  0  0  0  0  0  0  0  0  0  0
   59.8886   27.2922   44.7800 H   0  0  0  0  0  0  0  0  0  0  0  0
   57.7840   27.4410   44.3230 C   0  0  0  0  0  0  0  0  0  0  0  0
   57.2303   27.7696   43.4312 H   0  0  0  0  0  0  0  0  0  0  0  0
   57.8466   26.3449   44.3912 H   0  0  0  0  0  0  0  0  0  0  0  0
   57.0300   27.9360   45.5790 C   0  0  2  0  0  0  0  0  0  0  0  0
   56.3744   27.1323   45.9455 H   0  0  0  0  0  0  0  0  0  0  0  0
   56.2100   29.1020   45.2350 N   0  0  0  0  0  0  0  0  0  0  0  0
   56.6050   30.0820   44.4800 C   0  0  0  0  0  0  0  0  0  0  0  0
   57.0540   31.2670   44.9530 N   0  0  0  0  0  0  0  0  0  0  0  0
   57.4010   32.1060   43.9410 C   0  0  0  0  0  0  0  0  0  0  0  0
   57.8000   33.1159   44.1170 H   0  0  0  0  0  0  0  0  0  0  0  0
   57.2110   31.5850   42.6650 C   0  0  0  0  0  0  0  0  0  0  0  0
   57.5790   32.2590   41.3870 C   0  0  0  0  0  0  0  0  0  0  0  0
   58.0955   33.2050   41.6069 H   0  0  0  0  0  0  0  0  0  0  0  0
   58.2448   31.6042   40.8056 H   0  0  0  0  0  0  0  0  0  0  0  0
   56.6682   32.4650   40.8056 H   0  0  0  0  0  0  0  0  0  0  0  0
   56.6190   30.0150   42.8020 S   0  0  0  0  0  0  0  0  0  0  0  0
   58.0300   28.2950   46.6940 C   0  0  0  0  0  0  0  0  0  0  0  0
   57.4725   28.6057   47.5899 H   0  0  0  0  0  0  0  0  0  0  0  0
   58.6457   27.4092   46.9091 H   0  0  0  0  0  0  0  0  0  0  0  0
  1  2  1  0
  2  3  1  0
  3  4  2  0
  4  5  1  0
  4  6  1  0
  6  7  1  0
  6  8  2  0
  8  9  1  0
  9 10  1  0
  9 11  1  0
  9 12  1  0
  8 13  1  0
 13 14  1  0
 13 15  2  0
 15 16  1  0
 16 17  1  0
 16 18  1  0
 16 19  1  0
 19 20  1  0
 20 21  1  0
 20 22  1  0
 20 23  1  0
 23 24  1  0
 23 25  1  0
 23 26  1  0
 26 27  1  0
 26 28  1  0
 26 29  1  0
 29 30  1  1
 29 31  1  0
 31 32  2  0
 32 33  1  0
 33 34  1  0
 34 35  1  0
 34 36  2  0
 36 37  1  0
 37 38  1  0
 37 39  1  0
 37 40  1  0
 36 41  1  0
 29 42  1  0
 42 43  1  0
 42 44  1  0
 15  3  1  0
 42 19  1  0
 41 32  1  0
M  CHG  1  33  -1
M  END
>  <UniqueID>  (22) 
21

>  <SMILES>  (22) 
Cc1ccc(O)c(CN2CCC[C@H](/N=c3\[n-]cc(C)s3)C2)c1

>  <Energy>  (22) 
84.4677310809529

>  <Genealogy>  (22) 
Cc1ccc(O)c(CN2CCCC(N=c3[n-]cc(C)s3)C2)c1 (protonated)
Cc1ccc(O)c(CN2CCC[C@H](N=c3[n-]cc(C)s3)C2)c1 (chirality)
Cc1ccc(O)c(CN2CCC[C@H](/N=c3\[n-]cc(C)s3)C2)c1 (cis-trans isomerization)
Cc1ccc(O)c(CN2CCC[C@H](/N=c3\[n-]cc(C)s3)C2)c1 (3D coordinates assigned)
Cc1ccc(O)c(CN2CCC[C@H](/N=c3\[n-]cc(C)s3)C2)c1 (nonaromatic ring conformer: 84.4677310809529 kcal/mol)

>  <smiles>  (22) 
Cc1ccc(O)c(CN2CCCC(N=c3[nH]cc(C)s3)C2)c1

>  <score_type>  (22) 
oracle

>  <origin>  (22) 
adg

>  <m_score__min__energy>  (22) 
-10.35

>  <m_primary>  (22) 
energy

$$$$
22:0
     RDKit          3D

 47 50  0  0  0  0  0  0  0  0999 V2000
   60.7210   29.1230   48.4600 O   0  0  0  0  0  0  0  0  0  0  0  0
   60.6200   29.5620   47.2830 C   0  0  0  0  0  0  0  0  0  0  0  0
   61.2480   30.8030   46.9170 N   0  0  0  0  0  0  0  0  0  0  0  0
   61.8160   31.7260   47.8620 C   0  0  0  0  0  0  0  0  0  0  0  0
   63.1710   32.0760   47.7510 C   0  0  0  0  0  0  0  0  0  0  0  0
   63.7420   32.9890   48.6430 C   0  0  0  0  0  0  0  0  0  0  0  0
   62.9600   33.5720   49.6440 C   0  0  0  0  0  0  0  0  0  0  0  0
   63.5170   34.4590   50.5060 F   0  0  0  0  0  0  0  0  0  0  0  0
   61.6040   33.2490   49.7480 C   0  0  0  0  0  0  0  0  0  0  0  0
   60.8390   33.8300   50.7050 F   0  0  0  0  0  0  0  0  0  0  0  0
   61.0300   32.3360   48.8580 C   0  0  0  0  0  0  0  0  0  0  0  0
   59.9180   28.7860   46.2940 N   0  0  0  0  0  0  0  0  0  0  0  0
   60.3610   27.4130   46.0250 C   0  0  0  0  0  0  0  0  0  0  0  0
   59.1510   26.4920   45.8750 C   0  0  0  0  0  0  0  0  0  0  0  0
   58.2470   26.9770   44.7420 C   0  0  0  0  0  0  0  0  0  0  0  0
   57.9270   28.4470   44.8580 C   0  0  0  0  0  0  0  0  0  0  0  0
   56.8310   28.9630   44.1550 C   0  0  0  0  0  0  0  0  0  0  0  0
   56.5560   30.3300   44.1730 C   0  0  0  0  0  0  0  0  0  0  0  0
   57.3820   31.2100   44.8880 C   0  0  0  0  0  0  0  0  0  0  0  0
   57.1430   32.6280   44.8820 N   0  0  0  0  0  0  0  0  0  0  0  0
   57.9870   33.5930   45.5330 C   0  0  0  0  0  0  0  0  0  0  0  0
   58.7760   34.4510   44.7530 C   0  0  0  0  0  0  0  0  0  0  0  0
   59.6180   35.3860   45.3620 C   0  0  0  0  0  0  0  0  0  0  0  0
   59.6900   35.4610   46.7550 C   0  0  0  0  0  0  0  0  0  0  0  0
   58.9280   34.5930   47.5410 C   0  0  0  0  0  0  0  0  0  0  0  0
   58.0830   33.6540   46.9370 C   0  0  0  0  0  0  0  0  0  0  0  0
   57.3950   32.7860   47.7210 F   0  0  0  0  0  0  0  0  0  0  0  0
   58.5000   30.7040   45.5640 C   0  0  0  0  0  0  0  0  0  0  0  0
   58.7770   29.3210   45.5770 C   0  0  0  0  0  0  0  0  0  0  0  0
   61.3430   31.0290   45.9010 H   0  0  0  0  0  0  0  0  0  0  0  0
   63.7875   31.6291   46.9572 H   0  0  0  0  0  0  0  0  0  0  0  0
   64.8075   33.2486   48.5568 H   0  0  0  0  0  0  0  0  0  0  0  0
   59.9600   32.0934   48.9364 H   0  0  0  0  0  0  0  0  0  0  0  0
   60.9491   27.3957   45.0956 H   0  0  0  0  0  0  0  0  0  0  0  0
   60.9790   27.0625   46.8648 H   0  0  0  0  0  0  0  0  0  0  0  0
   59.4976   25.4725   45.6505 H   0  0  0  0  0  0  0  0  0  0  0  0
   58.5792   26.4995   46.8147 H   0  0  0  0  0  0  0  0  0  0  0  0
   58.7552   26.7997   43.7827 H   0  0  0  0  0  0  0  0  0  0  0  0
   57.3007   26.4195   44.8027 H   0  0  0  0  0  0  0  0  0  0  0  0
   56.1813   28.2838   43.5835 H   0  0  0  0  0  0  0  0  0  0  0  0
   55.6867   30.7204   43.6236 H   0  0  0  0  0  0  0  0  0  0  0  0
   56.2730   32.9780   44.4190 H   0  0  0  0  0  0  0  0  0  0  0  0
   58.7320   34.3878   43.6557 H   0  0  0  0  0  0  0  0  0  0  0  0
   60.2247   36.0637   44.7434 H   0  0  0  0  0  0  0  0  0  0  0  0
   60.3464   36.2032   47.2329 H   0  0  0  0  0  0  0  0  0  0  0  0
   58.9921   34.6474   48.6378 H   0  0  0  0  0  0  0  0  0  0  0  0
   59.1721   31.3959   46.0927 H   0  0  0  0  0  0  0  0  0  0  0  0
  1  2  2  0
  2  3  1  0
  3  4  1  0
  4  5  2  0
  5  6  1  0
  6  7  2  0
  7  8  1  0
  7  9  1  0
  9 10  1  0
  9 11  2  0
  2 12  1  0
 12 13  1  0
 13 14  1  0
 14 15  1  0
 15 16  1  0
 16 17  2  0
 17 18  1  0
 18 19  2  0
 19 20  1  0
 20 21  1  0
 21 22  2  0
 22 23  1  0
 23 24  2  0
 24 25  1  0
 25 26  2  0
 26 27  1  0
 19 28  1  0
 28 29  2  0
 11  4  1  0
 29 12  1  0
 29 16  1  0
 26 21  1  0
  3 30  1  0
  5 31  1  0
  6 32  1  0
 11 33  1  0
 13 34  1  0
 13 35  1  0
 14 36  1  0
 14 37  1  0
 15 38  1  0
 15 39  1  0
 17 40  1  0
 18 41  1  0
 20 42  1  0
 22 43  1  0
 23 44  1  0
 24 45  1  0
 25 46  1  0
 28 47  1  0
M  END
>  <UniqueID>  (23) 
22

>  <SMILES>  (23) 
O=C(Nc1ccc(F)c(F)c1)N1CCCc2ccc(Nc3ccccc3F)cc21

>  <Energy>  (23) 
66.67372498633328

>  <Genealogy>  (23) 
O=C(Nc1ccc(F)c(F)c1)N1CCCc2ccc(Nc3ccccc3F)cc21 (3D coordinates assigned)
O=C(Nc1ccc(F)c(F)c1)N1CCCc2ccc(Nc3ccccc3F)cc21 (nonaromatic ring conformer: 66.67372498633328 kcal/mol)

>  <smiles>  (23) 
O=C(Nc1ccc(F)c(F)c1)N1CCCc2ccc(Nc3ccccc3F)cc21

>  <score_type>  (23) 
oracle

>  <origin>  (23) 
adg

>  <m_score__min__energy>  (23) 
-8.1999999999999993

>  <m_primary>  (23) 
energy

$$$$
23:0
     RDKit          3D

 22 22  0  0  0  0  0  0  0  0999 V2000
   56.8168   33.3464   43.4120 H   0  0  0  0  0  0  0  0  0  0  0  0
   57.5290   32.7810   44.0310 C   0  0  0  0  0  0  0  0  0  0  0  0
   57.7520   31.4990   43.7130 C   0  0  0  0  0  0  0  0  0  0  0  0
   58.4512   31.2938   42.8890 H   0  0  0  0  0  0  0  0  0  0  0  0
   57.0080   30.1130   44.5170 S   0  0  0  0  0  0  0  0  0  0  0  0
   55.5090   30.2100   44.4850 O   0  0  0  0  0  0  0  0  0  0  0  0
   57.4530   30.1090   45.9530 O   0  0  0  0  0  0  0  0  0  0  0  0
   57.5320   28.5920   43.7540 C   0  0  0  0  0  0  0  0  0  0  0  0
   57.7847   27.8586   44.5339 H   0  0  0  0  0  0  0  0  0  0  0  0
   56.7184   28.1963   43.1284 H   0  0  0  0  0  0  0  0  0  0  0  0
   58.4167   28.7814   43.1284 H   0  0  0  0  0  0  0  0  0  0  0  0
   58.1720   33.4840   45.1520 C   0  0  0  0  0  0  0  0  0  0  0  0
   57.9600   33.0370   46.4640 C   0  0  0  0  0  0  0  0  0  0  0  0
   57.3030   32.1747   46.6503 H   0  0  0  0  0  0  0  0  0  0  0  0
   58.5820   33.6850   47.5370 C   0  0  0  0  0  0  0  0  0  0  0  0
   58.4012   33.3412   48.5661 H   0  0  0  0  0  0  0  0  0  0  0  0
   59.4330   34.7690   47.3020 C   0  0  0  0  0  0  0  0  0  0  0  0
   59.9161   35.2820   48.1466 H   0  0  0  0  0  0  0  0  0  0  0  0
   59.6700   35.2010   45.9940 C   0  0  0  0  0  0  0  0  0  0  0  0
   60.3457   36.0492   45.8096 H   0  0  0  0  0  0  0  0  0  0  0  0
   59.0490   34.5560   44.9190 C   0  0  0  0  0  0  0  0  0  0  0  0
   59.2479   34.8890   43.8897 H   0  0  0  0  0  0  0  0  0  0  0  0
  1  2  1  0
  2  3  2  0
  3  4  1  0
  3  5  1  0
  5  6  2  0
  5  7  2  0
  5  8  1  0
  8  9  1  0
  8 10  1  0
  8 11  1  0
  2 12  1  0
 12 13  2  0
 13 14  1  0
 13 15  1  0
 15 16  1  0
 15 17  2  0
 17 18  1  0
 17 19  1  0
 19 20  1  0
 19 21  2  0
 21 22  1  0
 21 12  1  0
M  END
>  <UniqueID>  (24) 
23

>  <SMILES>  (24) 
CS(=O)(=O)/C=C\c1ccccc1

>  <Energy>  (24) 
25.15875862767589

>  <Genealogy>  (24) 
CS(=O)(=O)/C=C\c1ccccc1 (cis-trans isomerization)
CS(=O)(=O)/C=C\c1ccccc1 (3D coordinates assigned)
CS(=O)(=O)/C=C\c1ccccc1 (optimized conformer: 25.15875862767589 kcal/mol)

>  <smiles>  (24) 
CS(=O)(=O)C=Cc1ccccc1

>  <score_type>  (24) 
oracle

>  <origin>  (24) 
adg

>  <m_score__min__energy>  (24) 
-6.2000000000000002

>  <m_primary>  (24) 
energy

$$$$
24:0
     RDKit          3D

 79 82  0  0  0  0  0  0  0  0999 V2000
   55.9780   29.7450   44.4310 C   0  0  0  0  0  0  0  0  0  0  0  0
   57.3010   29.3760   45.0500 C   0  0  0  0  0  0  0  0  0  0  0  0
   58.3590   30.4400   45.2070 C   0  0  0  0  0  0  0  0  0  0  0  0
   57.4940   28.0940   45.4220 C   0  0  0  0  0  0  0  0  0  0  0  0
   57.7500   27.6090   46.8010 C   0  0  0  0  0  0  0  0  0  0  0  0
   57.5710   26.4030   47.1210 O   0  0  0  0  0  0  0  0  0  0  0  0
   58.2260   28.5770   47.8500 C   0  0  0  0  0  0  0  0  0  0  0  0
   59.7430   28.4080   48.1500 C   0  0  1  0  0  0  0  0  0  0  0  0
   60.4920   28.0110   46.8610 C   0  0  0  0  0  0  0  0  0  0  0  0
   60.4540   29.6430   48.8180 C   0  0  1  0  0  0  0  0  0  0  0  0
   60.0590   31.0250   48.2200 C   0  0  0  0  0  0  0  0  0  0  0  0
   59.4960   31.8820   49.3690 C   0  0  0  0  0  0  0  0  0  0  0  0
   59.1900   30.8720   50.4630 C   0  0  2  0  0  0  0  0  0  0  0  0
   58.9330   31.3560   51.9150 C   0  0  1  0  0  0  0  0  0  0  0  0
   57.8650   32.4630   51.9960 C   0  0  0  0  0  0  0  0  0  0  0  0
   56.4450   31.9450   51.7460 C   0  0  0  0  0  0  0  0  0  0  0  0
   56.0710   30.8340   52.7610 C   0  0  2  0  0  0  0  0  0  0  0  0
   57.0820   29.6480   52.5620 C   0  0  2  0  0  0  0  0  0  0  0  0
   56.6890   28.4340   53.4350 C   0  0  0  0  0  0  0  0  0  0  0  0
   55.2700   28.0270   53.1780 C   0  0  0  0  0  0  0  0  0  0  0  0
   54.8440   26.9790   53.6380 O   0  0  0  0  0  0  0  0  0  0  0  0
   54.3800   28.9060   52.3500 C   0  0  0  0  0  0  0  0  0  0  0  0
   54.5230   30.3960   52.7750 C   0  0  1  0  0  0  0  0  0  0  0  0
   53.9700   30.5140   54.2270 C   0  0  0  0  0  0  0  0  0  0  0  0
   53.5920   31.2190   51.8070 C   0  0  0  0  0  0  0  0  0  0  0  0
   52.0830   31.2630   52.1610 C   0  0  0  0  0  0  0  0  0  0  0  0
   51.3540   32.3230   51.3890 C   0  0  0  0  0  0  0  0  0  0  0  0
   51.3850   32.3280   50.1300 O   0  0  0  0  0  0  0  0  0  0  0  0
   50.6440   33.3080   52.0640 O   0  0  0  0  0  0  0  0  0  0  0  0
   58.5540   30.1330   52.8200 C   0  0  1  0  0  0  0  0  0  0  0  0
   59.6290   29.0060   52.6850 C   0  0  0  0  0  0  0  0  0  0  0  0
   59.9270   28.5990   51.2210 C   0  0  0  0  0  0  0  0  0  0  0  0
   60.3190   29.8330   50.3640 C   0  0  1  0  0  0  0  0  0  0  0  0
   61.6960   30.3840   50.8740 C   0  0  0  0  0  0  0  0  0  0  0  0
   55.2456   29.9493   45.2259 H   0  0  0  0  0  0  0  0  0  0  0  0
   56.1025   30.6427   43.8076 H   0  0  0  0  0  0  0  0  0  0  0  0
   55.6199   28.9124   43.8076 H   0  0  0  0  0  0  0  0  0  0  0  0
   58.5400   30.6221   46.2766 H   0  0  0  0  0  0  0  0  0  0  0  0
   59.2911   30.1036   44.7294 H   0  0  0  0  0  0  0  0  0  0  0  0
   58.0173   31.3701   44.7294 H   0  0  0  0  0  0  0  0  0  0  0  0
   57.4582   27.3349   44.6267 H   0  0  0  0  0  0  0  0  0  0  0  0
   58.0458   29.6026   47.4954 H   0  0  0  0  0  0  0  0  0  0  0  0
   57.6705   28.3746   48.7776 H   0  0  0  0  0  0  0  0  0  0  0  0
   59.7905   27.6111   48.9067 H   0  0  0  0  0  0  0  0  0  0  0  0
   61.4356   27.5108   47.1245 H   0  0  0  0  0  0  0  0  0  0  0  0
   59.8666   27.3260   46.2697 H   0  0  0  0  0  0  0  0  0  0  0  0
   60.7078   28.9131   46.2697 H   0  0  0  0  0  0  0  0  0  0  0  0
   61.4878   29.3498   48.5827 H   0  0  0  0  0  0  0  0  0  0  0  0
   60.9439   31.5133   47.7859 H   0  0  0  0  0  0  0  0  0  0  0  0
   59.3096   30.9031   47.4241 H   0  0  0  0  0  0  0  0  0  0  0  0
   60.2407   32.6158   49.7111 H   0  0  0  0  0  0  0  0  0  0  0  0
   58.6119   32.4641   49.0699 H   0  0  0  0  0  0  0  0  0  0  0  0
   58.1821   30.4786   50.2647 H   0  0  0  0  0  0  0  0  0  0  0  0
   59.8649   31.8080   52.2854 H   0  0  0  0  0  0  0  0  0  0  0  0
   57.9023   32.9132   52.9990 H   0  0  0  0  0  0  0  0  0  0  0  0
   58.0910   33.1963   51.2078 H   0  0  0  0  0  0  0  0  0  0  0  0
   55.7349   32.7789   51.8479 H   0  0  0  0  0  0  0  0  0  0  0  0
   56.4003   31.5219   50.7316 H   0  0  0  0  0  0  0  0  0  0  0  0
   56.1729   31.2426   53.7772 H   0  0  0  0  0  0  0  0  0  0  0  0
   57.0341   29.3080   51.5170 H   0  0  0  0  0  0  0  0  0  0  0  0
   57.3540   27.5902   53.1987 H   0  0  0  0  0  0  0  0  0  0  0  0
   56.7872   28.7162   54.4937 H   0  0  0  0  0  0  0  0  0  0  0  0
   54.6584   28.8051   51.2906 H   0  0  0  0  0  0  0  0  0  0  0  0
   53.3362   28.5947   52.5035 H   0  0  0  0  0  0  0  0  0  0  0  0
   54.7850   30.3401   54.9450 H   0  0  0  0  0  0  0  0  0  0  0  0
   53.5547   31.5210   54.3805 H   0  0  0  0  0  0  0  0  0  0  0  0
   53.1799   29.7642   54.3805 H   0  0  0  0  0  0  0  0  0  0  0  0
   53.9608   32.2552   51.7912 H   0  0  0  0  0  0  0  0  0  0  0  0
   53.6466   30.6965   50.8405 H   0  0  0  0  0  0  0  0  0  0  0  0
   51.6357   30.2849   51.9302 H   0  0  0  0  0  0  0  0  0  0  0  0
   51.9924   31.5001   53.2313 H   0  0  0  0  0  0  0  0  0  0  0  0
   58.5636   30.4505   53.8731 H   0  0  0  0  0  0  0  0  0  0  0  0
   60.5637   29.3615   53.1433 H   0  0  0  0  0  0  0  0  0  0  0  0
   59.2250   28.1157   53.1892 H   0  0  0  0  0  0  0  0  0  0  0  0
   60.7568   27.8770   51.2111 H   0  0  0  0  0  0  0  0  0  0  0  0
   59.0184   28.1514   50.7920 H   0  0  0  0  0  0  0  0  0  0  0  0
   61.7048   30.3875   51.9740 H   0  0  0  0  0  0  0  0  0  0  0  0
   62.5081   29.7416   50.5029 H   0  0  0  0  0  0  0  0  0  0  0  0
   61.8408   31.4093   50.5029 H   0  0  0  0  0  0  0  0  0  0  0  0
  1  2  1  0
  2  3  1  0
  2  4  2  3
  4  5  1  0
  5  6  2  0
  5  7  1  0
  7  8  1  0
  8  9  1  0
  8 10  1  0
 10 11  1  0
 11 12  1  0
 12 13  1  0
 13 14  1  0
 14 15  1  0
 15 16  1  0
 16 17  1  0
 17 18  1  0
 18 19  1  0
 19 20  1  0
 20 21  2  0
 20 22  1  0
 22 23  1  0
 23 24  1  1
 23 25  1  0
 25 26  1  0
 26 27  1  0
 27 28  2  0
 27 29  1  0
 18 30  1  0
 30 31  1  0
 31 32  1  0
 32 33  1  0
 33 34  1  1
 33 10  1  0
 33 13  1  0
 30 14  1  0
 23 17  1  0
  1 35  1  0
  1 36  1  0
  1 37  1  0
  3 38  1  0
  3 39  1  0
  3 40  1  0
  4 41  1  0
  7 42  1  0
  7 43  1  0
  8 44  1  1
  9 45  1  0
  9 46  1  0
  9 47  1  0
 10 48  1  1
 11 49  1  0
 11 50  1  0
 12 51  1  0
 12 52  1  0
 13 53  1  6
 14 54  1  1
 15 55  1  0
 15 56  1  0
 16 57  1  0
 16 58  1  0
 17 59  1  1
 18 60  1  6
 19 61  1  0
 19 62  1  0
 22 63  1  0
 22 64  1  0
 24 65  1  0
 24 66  1  0
 24 67  1  0
 25 68  1  0
 25 69  1  0
 26 70  1  0
 26 71  1  0
 30 72  1  1
 31 73  1  0
 31 74  1  0
 32 75  1  0
 32 76  1  0
 34 77  1  0
 34 78  1  0
 34 79  1  0
M  CHG  1  29  -1
M  END
>  <UniqueID>  (25) 
24

>  <SMILES>  (25) 
CC(C)=CC(=O)C[C@@H](C)[C@H]1CCC2C3CCC4C(CC(=O)CC4(C)CCC(=O)[O-])C3CCC21C

>  <Energy>  (25) 
109.8339190254396

>  <Genealogy>  (25) 
CC(C)=CC(=O)CC(C)C1CCC2C3CCC4C(CC(=O)CC4(C)CCC(=O)[O-])C3CCC12C (protonated)
CC(C)=CC(=O)C[C@@H](C)[C@H]1CCC2C3CCC4C(CC(=O)CC4(C)CCC(=O)[O-])C3CCC21C (chirality)
CC(C)=CC(=O)C[C@@H](C)[C@H]1CCC2C3CCC4C(CC(=O)CC4(C)CCC(=O)[O-])C3CCC21C (3D coordinates assigned)
CC(C)=CC(=O)C[C@@H](C)[C@H]1CCC2C3CCC4C(CC(=O)CC4(C)CCC(=O)[O-])C3CCC21C (nonaromatic ring conformer: 109.8339190254396 kcal/mol)

>  <smiles>  (25) 
CC(C)=CC(=O)CC(C)C1CCC2C3CCC4C(CC(=O)CC4(C)CCC(=O)O)C3CCC12C

>  <score_type>  (25) 
oracle

>  <origin>  (25) 
adg

>  <m_score__min__energy>  (25) 
-13.56

>  <m_primary>  (25) 
energy

$$$$
25:0
     RDKit          3D

 44 46  0  0  0  0  0  0  0  0999 V2000
   55.8410   30.5580   44.8540 O   0  0  0  0  0  0  0  0  0  0  0  0
   56.8070   29.8680   44.4290 C   0  0  0  0  0  0  0  0  0  0  0  0
   57.7180   30.4130   43.4640 N   0  0  0  0  0  0  0  0  0  0  0  0
   57.7830   31.8110   43.1460 C   0  0  0  0  0  0  0  0  0  0  0  0
   58.1630   32.2670   41.6210 S   0  0  0  0  0  0  0  0  0  0  0  0
   57.5080   32.8220   44.1300 N   0  0  0  0  0  0  0  0  0  0  0  0
   57.8620   32.7050   45.5200 C   0  0  0  0  0  0  0  0  0  0  0  0
   57.0380   33.2240   46.5310 C   0  0  0  0  0  0  0  0  0  0  0  0
   57.4020   33.0920   47.8720 C   0  0  0  0  0  0  0  0  0  0  0  0
   58.5830   32.4320   48.2270 C   0  0  0  0  0  0  0  0  0  0  0  0
   58.9700   32.2940   49.9380 Cl  0  0  0  0  0  0  0  0  0  0  0  0
   59.4130   31.8920   47.2210 C   0  0  0  0  0  0  0  0  0  0  0  0
   60.9070   31.0290   47.6180 S   0  0  0  0  0  0  0  0  0  0  0  0
   60.5930   29.8800   48.5370 O   0  0  0  0  0  0  0  0  0  0  0  0
   61.4960   30.4680   46.3530 O   0  0  0  0  0  0  0  0  0  0  0  0
   62.0350   32.1330   48.3810 N   0  0  0  0  0  0  0  0  0  0  0  0
   63.3970   32.0080   47.8080 C   0  0  0  0  0  0  0  0  0  0  0  0
   63.7000   33.0880   46.7510 C   0  0  0  0  0  0  0  0  0  0  0  0
   62.5240   33.4440   46.0620 O   0  0  0  0  0  0  0  0  0  0  0  0
   61.6400   34.1390   46.9240 C   0  0  0  0  0  0  0  0  0  0  0  0
   61.5410   33.5230   48.3410 C   0  0  0  0  0  0  0  0  0  0  0  0
   59.0360   32.0260   45.8740 C   0  0  0  0  0  0  0  0  0  0  0  0
   56.9840   28.4920   44.9140 C   0  0  0  0  0  0  0  0  0  0  0  0
   58.1030   27.7030   44.7280 C   0  0  0  0  0  0  0  0  0  0  0  0
   57.8160   26.5030   45.3410 C   0  0  0  0  0  0  0  0  0  0  0  0
   56.5450   26.6320   45.8620 C   0  0  0  0  0  0  0  0  0  0  0  0
   56.0760   27.8280   45.5910 O   0  0  0  0  0  0  0  0  0  0  0  0
   58.3060   29.7530   42.9050 H   0  0  0  0  0  0  0  0  0  0  0  0
   57.0650   33.7100   43.8060 H   0  0  0  0  0  0  0  0  0  0  0  0
   56.1018   33.7367   46.2654 H   0  0  0  0  0  0  0  0  0  0  0  0
   56.7544   33.5107   48.6565 H   0  0  0  0  0  0  0  0  0  0  0  0
   62.0850   31.8510   49.3880 H   0  0  0  0  0  0  0  0  0  0  0  0
   64.1309   32.0973   48.6225 H   0  0  0  0  0  0  0  0  0  0  0  0
   63.4588   31.0293   47.3096 H   0  0  0  0  0  0  0  0  0  0  0  0
   64.1115   33.9779   47.2497 H   0  0  0  0  0  0  0  0  0  0  0  0
   64.4286   32.6879   46.0305 H   0  0  0  0  0  0  0  0  0  0  0  0
   61.9926   35.1765   47.0201 H   0  0  0  0  0  0  0  0  0  0  0  0
   60.6376   34.0766   46.4753 H   0  0  0  0  0  0  0  0  0  0  0  0
   62.1398   34.1317   49.0344 H   0  0  0  0  0  0  0  0  0  0  0  0
   60.4800   33.5125   48.6310 H   0  0  0  0  0  0  0  0  0  0  0  0
   59.6705   31.5923   45.0870 H   0  0  0  0  0  0  0  0  0  0  0  0
   59.0291   27.9759   44.2009 H   0  0  0  0  0  0  0  0  0  0  0  0
   58.4688   25.6198   45.4026 H   0  0  0  0  0  0  0  0  0  0  0  0
   56.0065   25.8516   46.4196 H   0  0  0  0  0  0  0  0  0  0  0  0
  1  2  2  0
  2  3  1  0
  3  4  1  0
  4  5  2  0
  4  6  1  0
  6  7  1  0
  7  8  2  0
  8  9  1  0
  9 10  2  0
 10 11  1  0
 10 12  1  0
 12 13  1  0
 13 14  2  0
 13 15  2  0
 13 16  1  0
 16 17  1  0
 17 18  1  0
 18 19  1  0
 19 20  1  0
 20 21  1  0
 12 22  2  0
  2 23  1  0
 23 24  2  0
 24 25  1  0
 25 26  2  0
 26 27  1  0
 22  7  1  0
 27 23  1  0
 21 16  1  0
  3 28  1  0
  6 29  1  0
  8 30  1  0
  9 31  1  0
 16 32  1  0
 17 33  1  0
 17 34  1  0
 18 35  1  0
 18 36  1  0
 20 37  1  0
 20 38  1  0
 21 39  1  0
 21 40  1  0
 22 41  1  0
 24 42  1  0
 25 43  1  0
 26 44  1  0
M  CHG  1  16   1
M  END
>  <UniqueID>  (26) 
25

>  <SMILES>  (26) 
O=C(NC(=S)Nc1ccc(Cl)c(S(=O)(=O)[NH+]2CCOCC2)c1)c1ccco1

>  <Energy>  (26) 
87.32921528811734

>  <Genealogy>  (26) 
O=C(NC(=S)Nc1ccc(Cl)c(S(=O)(=O)[NH+]2CCOCC2)c1)c1ccco1 (protonated)
O=C(NC(=S)Nc1ccc(Cl)c(S(=O)(=O)[NH+]2CCOCC2)c1)c1ccco1 (3D coordinates assigned)
O=C(NC(=S)Nc1ccc(Cl)c(S(=O)(=O)[NH+]2CCOCC2)c1)c1ccco1 (nonaromatic ring conformer: 87.32921528811734 kcal/mol)

>  <smiles>  (26) 
O=C(NC(=S)Nc1ccc(Cl)c(S(=O)(=O)N2CCOCC2)c1)c1ccco1

>  <score_type>  (26) 
oracle

>  <origin>  (26) 
adg

>  <m_score__min__energy>  (26) 
-7.9299999999999997

>  <m_primary>  (26) 
energy

$$$$
26:0
     RDKit          3D

 30 31  0  0  0  0  0  0  0  0999 V2000
   60.2510   27.6220   46.0770 C   0  0  0  0  0  0  0  0  0  0  0  0
   60.5430   29.1170   46.0530 C   0  0  0  0  0  0  0  0  0  0  0  0
   59.4240   29.8460   45.4550 N   0  0  0  0  0  0  0  0  0  0  0  0
   58.6350   29.3970   44.4490 C   0  0  0  0  0  0  0  0  0  0  0  0
   57.7210   30.3770   44.0810 C   0  0  0  0  0  0  0  0  0  0  0  0
   56.7350   30.2960   42.9550 C   0  0  0  0  0  0  0  0  0  0  0  0
   55.4040   29.7120   43.4450 C   0  0  0  0  0  0  0  0  0  0  0  0
   55.2870   29.8020   44.8980 N   0  0  0  0  0  0  0  0  0  0  0  0
   57.9970   31.4710   44.8810 C   0  0  0  0  0  0  0  0  0  0  0  0
   57.4300   32.7450   44.9170 C   0  0  0  0  0  0  0  0  0  0  0  0
   57.9520   33.6700   45.8380 C   0  0  0  0  0  0  0  0  0  0  0  0
   59.0210   33.3090   46.6880 C   0  0  0  0  0  0  0  0  0  0  0  0
   59.7210   34.5830   47.9260 Br  0  0  0  0  0  0  0  0  0  0  0  0
   59.5770   32.0180   46.6240 C   0  0  0  0  0  0  0  0  0  0  0  0
   59.0360   31.1140   45.7050 C   0  0  0  0  0  0  0  0  0  0  0  0
   60.1839   27.2782   47.1197 H   0  0  0  0  0  0  0  0  0  0  0  0
   59.2977   27.4263   45.5643 H   0  0  0  0  0  0  0  0  0  0  0  0
   61.0606   27.0820   45.5643 H   0  0  0  0  0  0  0  0  0  0  0  0
   60.6984   29.4725   47.0823 H   0  0  0  0  0  0  0  0  0  0  0  0
   61.4466   29.2944   45.4513 H   0  0  0  0  0  0  0  0  0  0  0  0
   58.7075   28.4001   43.9897 H   0  0  0  0  0  0  0  0  0  0  0  0
   56.5611   31.3051   42.5533 H   0  0  0  0  0  0  0  0  0  0  0  0
   57.1435   29.6403   42.1719 H   0  0  0  0  0  0  0  0  0  0  0  0
   54.5763   30.2707   42.9837 H   0  0  0  0  0  0  0  0  0  0  0  0
   55.3647   28.6506   43.1590 H   0  0  0  0  0  0  0  0  0  0  0  0
   54.7630   28.9670   45.2470 H   0  0  0  0  0  0  0  0  0  0  0  0
   54.7280   30.6540   45.1400 H   0  0  0  0  0  0  0  0  0  0  0  0
   56.6014   33.0170   44.2466 H   0  0  0  0  0  0  0  0  0  0  0  0
   57.5250   34.6820   45.8972 H   0  0  0  0  0  0  0  0  0  0  0  0
   60.4128   31.7285   47.2779 H   0  0  0  0  0  0  0  0  0  0  0  0
  1  2  1  0
  2  3  1  0
  3  4  1  0
  4  5  2  0
  5  6  1  0
  6  7  1  0
  7  8  1  0
  5  9  1  0
  9 10  2  0
 10 11  1  0
 11 12  2  0
 12 13  1  0
 12 14  1  0
 14 15  2  0
 15  3  1  0
 15  9  1  0
  1 16  1  0
  1 17  1  0
  1 18  1  0
  2 19  1  0
  2 20  1  0
  4 21  1  0
  6 22  1  0
  6 23  1  0
  7 24  1  0
  7 25  1  0
  8 26  1  0
  8 27  1  0
 10 28  1  0
 11 29  1  0
 14 30  1  0
M  END
>  <UniqueID>  (27) 
26

>  <SMILES>  (27) 
CCn1cc(CCN)c2ccc(Br)cc21

>  <Energy>  (27) 
55.54853587295374

>  <Genealogy>  (27) 
CCn1cc(CCN)c2ccc(Br)cc21 (3D coordinates assigned)
CCn1cc(CCN)c2ccc(Br)cc21 (optimized conformer: 55.54853587295374 kcal/mol)

>  <smiles>  (27) 
CCn1cc(CCN)c2ccc(Br)cc21

>  <score_type>  (27) 
oracle

>  <origin>  (27) 
adg

>  <m_score__min__energy>  (27) 
-6.7699999999999996

>  <m_primary>  (27) 
energy

$$$$
27:0
     RDKit          3D

 42 44  0  0  0  0  0  0  0  0999 V2000
   57.0360   31.0390   42.9420 C   0  0  0  0  0  0  0  0  0  0  0  0
   56.9880   31.2450   44.4240 C   0  0  0  0  0  0  0  0  0  0  0  0
   56.5820   32.3530   44.8660 O   0  0  0  0  0  0  0  0  0  0  0  0
   57.3890   30.1900   45.3820 C   0  0  0  0  0  0  0  0  0  0  0  0
   56.7170   28.9990   45.5830 C   0  0  0  0  0  0  0  0  0  0  0  0
   55.5440   28.5950   44.9580 O   0  0  0  0  0  0  0  0  0  0  0  0
   57.4300   28.2730   46.5080 C   0  0  0  0  0  0  0  0  0  0  0  0
   57.0850   27.0130   46.9900 O   0  0  0  0  0  0  0  0  0  0  0  0
   58.5230   28.9590   46.9000 N   0  0  0  0  0  0  0  0  0  0  0  0
   59.4590   28.5260   47.9440 C   0  0  0  0  0  0  0  0  0  0  0  0
   58.9880   28.9660   49.3360 C   0  0  0  0  0  0  0  0  0  0  0  0
   59.4410   30.3640   49.6650 C   0  0  0  0  0  0  0  0  0  0  0  0
   58.5170   31.4230   49.6730 C   0  0  0  0  0  0  0  0  0  0  0  0
   58.9360   32.7200   49.9830 C   0  0  0  0  0  0  0  0  0  0  0  0
   60.2760   32.9680   50.2950 C   0  0  0  0  0  0  0  0  0  0  0  0
   61.1980   31.9180   50.3010 C   0  0  0  0  0  0  0  0  0  0  0  0
   60.7830   30.6190   49.9940 C   0  0  0  0  0  0  0  0  0  0  0  0
   58.5070   30.1370   46.2210 C   0  0  0  0  0  0  0  0  0  0  0  0
   59.4750   31.2320   46.4360 C   0  0  0  0  0  0  0  0  0  0  0  0
   60.8190   30.9460   46.7230 C   0  0  0  0  0  0  0  0  0  0  0  0
   61.7280   31.9860   46.9380 C   0  0  0  0  0  0  0  0  0  0  0  0
   61.3030   33.3150   46.8610 C   0  0  0  0  0  0  0  0  0  0  0  0
   59.9690   33.6070   46.5640 C   0  0  0  0  0  0  0  0  0  0  0  0
   59.5570   34.8970   46.4880 F   0  0  0  0  0  0  0  0  0  0  0  0
   59.0570   32.5680   46.3500 C   0  0  0  0  0  0  0  0  0  0  0  0
   57.2807   29.9886   42.7256 H   0  0  0  0  0  0  0  0  0  0  0  0
   56.0565   31.2847   42.5057 H   0  0  0  0  0  0  0  0  0  0  0  0
   57.8060   31.6923   42.5057 H   0  0  0  0  0  0  0  0  0  0  0  0
   56.1150   26.7520   47.1210 H   0  0  0  0  0  0  0  0  0  0  0  0
   59.5363   27.4289   47.9226 H   0  0  0  0  0  0  0  0  0  0  0  0
   60.4365   28.9903   47.7466 H   0  0  0  0  0  0  0  0  0  0  0  0
   57.8890   28.9315   49.3672 H   0  0  0  0  0  0  0  0  0  0  0  0
   59.4268   28.2817   50.0770 H   0  0  0  0  0  0  0  0  0  0  0  0
   57.4606   31.2305   49.4345 H   0  0  0  0  0  0  0  0  0  0  0  0
   58.2104   33.5467   49.9815 H   0  0  0  0  0  0  0  0  0  0  0  0
   60.6046   33.9898   50.5358 H   0  0  0  0  0  0  0  0  0  0  0  0
   62.2519   32.1140   50.5477 H   0  0  0  0  0  0  0  0  0  0  0  0
   61.5097   29.7934   50.0100 H   0  0  0  0  0  0  0  0  0  0  0  0
   61.1577   29.9009   46.7789 H   0  0  0  0  0  0  0  0  0  0  0  0
   62.7792   31.7579   47.1681 H   0  0  0  0  0  0  0  0  0  0  0  0
   62.0190   34.1319   47.0343 H   0  0  0  0  0  0  0  0  0  0  0  0
   58.0080   32.7998   46.1134 H   0  0  0  0  0  0  0  0  0  0  0  0
  1  2  1  0
  2  3  2  0
  2  4  1  0
  4  5  1  0
  5  6  1  0
  5  7  2  0
  7  8  1  0
  7  9  1  0
  9 10  1  0
 10 11  1  0
 11 12  1  0
 12 13  2  0
 13 14  1  0
 14 15  2  0
 15 16  1  0
 16 17  2  0
  9 18  1  0
 18 19  1  0
 19 20  2  0
 20 21  1  0
 21 22  2  0
 22 23  1  0
 23 24  1  0
 23 25  2  0
 18  4  2  0
 25 19  1  0
 17 12  1  0
  1 26  1  0
  1 27  1  0
  1 28  1  0
  8 29  1  0
 10 30  1  0
 10 31  1  0
 11 32  1  0
 11 33  1  0
 13 34  1  0
 14 35  1  0
 15 36  1  0
 16 37  1  0
 17 38  1  0
 20 39  1  0
 21 40  1  0
 22 41  1  0
 25 42  1  0
M  CHG  1   6  -1
M  END
>  <UniqueID>  (28) 
27

>  <SMILES>  (28) 
CC(=O)c1c([O-])c(O)n(CCc2ccccc2)c1-c1cccc(F)c1

>  <Energy>  (28) 
73.00654751333748

>  <Genealogy>  (28) 
CC(=O)c1c([O-])c(O)n(CCc2ccccc2)c1-c1cccc(F)c1 (protonated)
CC(=O)c1c([O-])c(O)n(CCc2ccccc2)c1-c1cccc(F)c1 (3D coordinates assigned)
CC(=O)c1c([O-])c(O)n(CCc2ccccc2)c1-c1cccc(F)c1 (optimized conformer: 73.00654751333748 kcal/mol)

>  <smiles>  (28) 
CC(=O)c1c(O)c(O)n(CCc2ccccc2)c1-c1cccc(F)c1

>  <score_type>  (28) 
oracle

>  <origin>  (28) 
adg

>  <m_score__min__energy>  (28) 
-9.9499999999999993

>  <m_primary>  (28) 
energy

$$$$
28:0
     RDKit          3D

 46 49  0  0  0  0  0  0  0  0999 V2000
   60.0370   34.1990   49.2020 C   0  0  0  0  0  0  0  0  0  0  0  0
   59.3020   33.5370   48.0740 C   0  0  0  0  0  0  0  0  0  0  0  0
   58.7360   34.3220   47.0440 C   0  0  0  0  0  0  0  0  0  0  0  0
   58.0740   33.7170   45.9580 C   0  0  0  0  0  0  0  0  0  0  0  0
   57.4670   34.5440   44.8620 C   0  0  0  0  0  0  0  0  0  0  0  0
   58.0150   32.3190   45.9300 C   0  0  0  0  0  0  0  0  0  0  0  0
   57.4440   31.4800   44.9930 C   0  0  0  0  0  0  0  0  0  0  0  0
   57.6910   30.2010   45.4700 C   0  0  0  0  0  0  0  0  0  0  0  0
   57.3220   28.9930   44.8850 C   0  0  0  0  0  0  0  0  0  0  0  0
   56.6920   28.9750   43.7920 O   0  0  0  0  0  0  0  0  0  0  0  0
   57.6660   27.8340   45.5300 N   0  0  0  0  0  0  0  0  0  0  0  0
   57.3410   26.5180   44.9700 C   0  0  0  0  0  0  0  0  0  0  0  0
   56.1300   25.9420   45.6510 C   0  0  0  0  0  0  0  0  0  0  0  0
   55.1950   26.7110   46.0000 O   0  0  0  0  0  0  0  0  0  0  0  0
   55.9860   24.5340   45.8830 N   0  0  0  0  0  0  0  0  0  0  0  0
   56.4150   23.4780   45.0110 C   0  0  0  0  0  0  0  0  0  0  0  0
   57.4540   22.6360   45.4290 C   0  0  0  0  0  0  0  0  0  0  0  0
   57.9160   21.6150   44.5900 C   0  0  0  0  0  0  0  0  0  0  0  0
   57.3540   21.4430   43.3230 C   0  0  0  0  0  0  0  0  0  0  0  0
   56.3360   22.2970   42.8870 C   0  0  0  0  0  0  0  0  0  0  0  0
   55.8720   23.3180   43.7230 C   0  0  0  0  0  0  0  0  0  0  0  0
   58.3540   27.8800   46.6780 N   0  0  0  0  0  0  0  0  0  0  0  0
   58.7230   29.0570   47.2600 C   0  0  0  0  0  0  0  0  0  0  0  0
   59.4850   29.0020   48.5470 C   0  0  0  0  0  0  0  0  0  0  0  0
   58.3780   30.2230   46.6340 N   0  0  0  0  0  0  0  0  0  0  0  0
   58.5780   31.5370   46.9210 C   0  0  0  0  0  0  0  0  0  0  0  0
   59.2380   32.1290   48.0080 C   0  0  0  0  0  0  0  0  0  0  0  0
   59.6372   33.8390   50.1615 H   0  0  0  0  0  0  0  0  0  0  0  0
   61.1074   33.9544   49.1358 H   0  0  0  0  0  0  0  0  0  0  0  0
   59.9052   35.2891   49.1358 H   0  0  0  0  0  0  0  0  0  0  0  0
   58.8134   35.4183   47.0911 H   0  0  0  0  0  0  0  0  0  0  0  0
   56.8707   35.3564   45.3030 H   0  0  0  0  0  0  0  0  0  0  0  0
   58.2668   34.9722   44.2399 H   0  0  0  0  0  0  0  0  0  0  0  0
   56.8187   33.9094   44.2399 H   0  0  0  0  0  0  0  0  0  0  0  0
   56.9117   31.7631   44.0730 H   0  0  0  0  0  0  0  0  0  0  0  0
   57.1363   26.6225   43.8943 H   0  0  0  0  0  0  0  0  0  0  0  0
   58.1944   25.8424   45.1289 H   0  0  0  0  0  0  0  0  0  0  0  0
   57.9086   22.7778   46.4206 H   0  0  0  0  0  0  0  0  0  0  0  0
   58.7222   20.9477   44.9289 H   0  0  0  0  0  0  0  0  0  0  0  0
   57.7123   20.6354   42.6677 H   0  0  0  0  0  0  0  0  0  0  0  0
   55.8998   22.1657   41.8858 H   0  0  0  0  0  0  0  0  0  0  0  0
   55.0809   23.9973   43.3726 H   0  0  0  0  0  0  0  0  0  0  0  0
   58.7822   29.0527   49.3917 H   0  0  0  0  0  0  0  0  0  0  0  0
   60.0518   28.0606   48.5976 H   0  0  0  0  0  0  0  0  0  0  0  0
   60.1811   29.8522   48.5976 H   0  0  0  0  0  0  0  0  0  0  0  0
   59.6960   31.5086   48.7924 H   0  0  0  0  0  0  0  0  0  0  0  0
  1  2  1  0
  2  3  2  0
  3  4  1  0
  4  5  1  0
  4  6  2  0
  6  7  1  0
  7  8  2  0
  8  9  1  0
  9 10  2  0
  9 11  1  0
 11 12  1  0
 12 13  1  0
 13 14  2  0
 13 15  1  0
 15 16  1  0
 16 17  2  0
 17 18  1  0
 18 19  2  0
 19 20  1  0
 20 21  2  0
 11 22  1  0
 22 23  2  0
 23 24  1  0
 23 25  1  0
 25 26  1  0
 26 27  2  0
 27  2  1  0
 26  6  1  0
 25  8  1  0
 21 16  1  0
  1 28  1  0
  1 29  1  0
  1 30  1  0
  3 31  1  0
  5 32  1  0
  5 33  1  0
  5 34  1  0
  7 35  1  0
 12 36  1  0
 12 37  1  0
 17 38  1  0
 18 39  1  0
 19 40  1  0
 20 41  1  0
 21 42  1  0
 24 43  1  0
 24 44  1  0
 24 45  1  0
 27 46  1  0
M  CHG  1  15  -1
M  END
>  <UniqueID>  (29) 
28

>  <SMILES>  (29) 
Cc1cc(C)c2cc3c(=O)n(CC(=O)[N-]c4ccccc4)nc(C)n3c2c1

>  <Energy>  (29) 
97.93228061523139

>  <Genealogy>  (29) 
Cc1cc(C)c2cc3c(=O)n(CC(=O)[N-]c4ccccc4)nc(C)n3c2c1 (protonated)
Cc1cc(C)c2cc3c(=O)n(CC(=O)[N-]c4ccccc4)nc(C)n3c2c1 (3D coordinates assigned)
Cc1cc(C)c2cc3c(=O)n(CC(=O)[N-]c4ccccc4)nc(C)n3c2c1 (optimized conformer: 97.93228061523139 kcal/mol)

>  <smiles>  (29) 
Cc1cc(C)c2cc3c(=O)n(CC(=O)Nc4ccccc4)nc(C)n3c2c1

>  <score_type>  (29) 
oracle

>  <origin>  (29) 
adg

>  <m_score__min__energy>  (29) 
-10.4

>  <m_primary>  (29) 
energy

$$$$
29:0
     RDKit          3D

 29 30  0  0  0  0  0  0  0  0999 V2000
   54.3019   24.6561   46.1769 H   0  0  0  0  0  0  0  0  0  0  0  0
   55.2630   25.0880   45.8610 C   0  0  0  0  0  0  0  0  0  0  0  0
   55.4890   26.4210   46.0040 N   0  0  0  0  0  0  0  0  0  0  0  0
   56.6670   26.9980   45.6250 C   0  0  0  0  0  0  0  0  0  0  0  0
   56.8590   28.2740   45.7650 N   0  0  0  0  0  0  0  0  0  0  0  0
   56.6120   29.4320   44.4970 S   0  0  0  0  0  0  0  0  0  0  0  0
   55.1430   29.7190   44.3690 O   0  0  0  0  0  0  0  0  0  0  0  0
   57.1130   28.8550   43.2030 O   0  0  0  0  0  0  0  0  0  0  0  0
   57.4570   30.9300   44.8760 C   0  0  0  0  0  0  0  0  0  0  0  0
   57.4330   32.0060   43.9780 C   0  0  0  0  0  0  0  0  0  0  0  0
   56.8782   31.9191   43.0321 H   0  0  0  0  0  0  0  0  0  0  0  0
   58.1130   33.1900   44.2820 C   0  0  0  0  0  0  0  0  0  0  0  0
   58.0930   34.0304   43.5726 H   0  0  0  0  0  0  0  0  0  0  0  0
   58.8230   33.3110   45.4920 C   0  0  0  0  0  0  0  0  0  0  0  0
   59.5220   34.4760   45.8420 O   0  0  0  0  0  0  0  0  0  0  0  0
   59.6240   34.9840   47.1690 C   0  0  0  0  0  0  0  0  0  0  0  0
   59.4601   34.1676   47.8878 H   0  0  0  0  0  0  0  0  0  0  0  0
   60.6259   35.4115   47.3220 H   0  0  0  0  0  0  0  0  0  0  0  0
   58.8648   35.7651   47.3220 H   0  0  0  0  0  0  0  0  0  0  0  0
   58.8380   32.2330   46.3850 C   0  0  0  0  0  0  0  0  0  0  0  0
   59.3895   32.3176   47.3330 H   0  0  0  0  0  0  0  0  0  0  0  0
   58.1580   31.0500   46.0820 C   0  0  0  0  0  0  0  0  0  0  0  0
   58.1737   30.2109   46.7931 H   0  0  0  0  0  0  0  0  0  0  0  0
   57.6780   26.2030   45.0730 C   0  0  0  0  0  0  0  0  0  0  0  0
   58.6320   26.6550   44.7637 H   0  0  0  0  0  0  0  0  0  0  0  0
   57.4660   24.8310   44.9180 C   0  0  0  0  0  0  0  0  0  0  0  0
   58.2539   24.1966   44.4860 H   0  0  0  0  0  0  0  0  0  0  0  0
   56.2510   24.2670   45.3130 C   0  0  0  0  0  0  0  0  0  0  0  0
   56.0741   23.1879   45.1938 H   0  0  0  0  0  0  0  0  0  0  0  0
  1  2  1  0
  2  3  1  0
  3  4  1  0
  4  5  2  0
  5  6  1  0
  6  7  2  0
  6  8  2  0
  6  9  1  0
  9 10  2  0
 10 11  1  0
 10 12  1  0
 12 13  1  0
 12 14  2  0
 14 15  1  0
 15 16  1  0
 16 17  1  0
 16 18  1  0
 16 19  1  0
 14 20  1  0
 20 21  1  0
 20 22  2  0
 22 23  1  0
  4 24  1  0
 24 25  1  0
 24 26  2  0
 26 27  1  0
 26 28  1  0
 28 29  1  0
 28  2  2  0
 22  9  1  0
M  CHG  1   3  -1
M  END
>  <UniqueID>  (30) 
29

>  <SMILES>  (30) 
COc1ccc(S(=O)(=O)/N=c2/cccc[n-]2)cc1

>  <Energy>  (30) 
32.605163902224156

>  <Genealogy>  (30) 
COc1ccc(S(=O)(=O)N=c2cccc[n-]2)cc1 (protonated)
COc1ccc(S(=O)(=O)/N=c2/cccc[n-]2)cc1 (cis-trans isomerization)
COc1ccc(S(=O)(=O)/N=c2/cccc[n-]2)cc1 (3D coordinates assigned)
COc1ccc(S(=O)(=O)/N=c2/cccc[n-]2)cc1 (optimized conformer: 32.605163902224156 kcal/mol)

>  <smiles>  (30) 
COc1ccc(S(=O)(=O)N=c2cccc[nH]2)cc1

>  <score_type>  (30) 
oracle

>  <origin>  (30) 
adg

>  <m_score__min__energy>  (30) 
-8.3699999999999992

>  <m_primary>  (30) 
energy

$$$$
30:0
     RDKit          3D

 34 35  0  0  0  0  0  0  0  0999 V2000
   59.6780   34.2960   48.2840 C   0  0  0  0  0  0  0  0  0  0  0  0
   59.3640   33.0130   47.7540 O   0  0  0  0  0  0  0  0  0  0  0  0
   58.8520   32.7920   46.4660 C   0  0  0  0  0  0  0  0  0  0  0  0
   59.1250   33.7350   45.4720 C   0  0  0  0  0  0  0  0  0  0  0  0
   58.6400   33.5590   44.1750 C   0  0  0  0  0  0  0  0  0  0  0  0
   57.8740   32.4250   43.8460 C   0  0  0  0  0  0  0  0  0  0  0  0
   57.3670   32.2260   42.5510 O   0  0  0  0  0  0  0  0  0  0  0  0
   58.1310   32.3460   41.3560 C   0  0  0  0  0  0  0  0  0  0  0  0
   57.6050   31.4660   44.8400 C   0  0  0  0  0  0  0  0  0  0  0  0
   56.6610   30.0200   44.4610 S   0  0  0  0  0  0  0  0  0  0  0  0
   55.2020   30.3770   44.4830 O   0  0  0  0  0  0  0  0  0  0  0  0
   57.0200   29.4980   43.0980 O   0  0  0  0  0  0  0  0  0  0  0  0
   56.9470   28.7710   45.6310 N   0  0  0  0  0  0  0  0  0  0  0  0
   56.9690   27.3650   45.3500 C   0  0  0  0  0  0  0  0  0  0  0  0
   57.7880   26.9020   44.3100 C   0  0  0  0  0  0  0  0  0  0  0  0
   57.8270   25.5410   43.9930 C   0  0  0  0  0  0  0  0  0  0  0  0
   57.0480   24.6310   44.7130 C   0  0  0  0  0  0  0  0  0  0  0  0
   57.1000   22.7720   44.2760 Br  0  0  0  0  0  0  0  0  0  0  0  0
   56.2310   25.0830   45.7540 C   0  0  0  0  0  0  0  0  0  0  0  0
   56.1910   26.4430   46.0740 C   0  0  0  0  0  0  0  0  0  0  0  0
   58.0800   31.6600   46.1460 C   0  0  0  0  0  0  0  0  0  0  0  0
   59.6671   34.2514   49.3830 H   0  0  0  0  0  0  0  0  0  0  0  0
   60.6772   34.6006   47.9393 H   0  0  0  0  0  0  0  0  0  0  0  0
   58.9324   35.0276   47.9393 H   0  0  0  0  0  0  0  0  0  0  0  0
   59.7270   34.6234   45.7134 H   0  0  0  0  0  0  0  0  0  0  0  0
   58.8582   34.3125   43.4039 H   0  0  0  0  0  0  0  0  0  0  0  0
   59.1879   32.5120   41.6116 H   0  0  0  0  0  0  0  0  0  0  0  0
   58.0371   31.4221   40.7664 H   0  0  0  0  0  0  0  0  0  0  0  0
   57.7584   33.1966   40.7664 H   0  0  0  0  0  0  0  0  0  0  0  0
   58.4033   27.6139   43.7403 H   0  0  0  0  0  0  0  0  0  0  0  0
   58.4718   25.1858   43.1756 H   0  0  0  0  0  0  0  0  0  0  0  0
   55.6188   24.3670   46.3220 H   0  0  0  0  0  0  0  0  0  0  0  0
   55.5487   26.7939   46.8952 H   0  0  0  0  0  0  0  0  0  0  0  0
   57.8468   30.9207   46.9264 H   0  0  0  0  0  0  0  0  0  0  0  0
  1  2  1  0
  2  3  1  0
  3  4  2  0
  4  5  1  0
  5  6  2  0
  6  7  1  0
  7  8  1  0
  6  9  1  0
  9 10  1  0
 10 11  2  0
 10 12  2  0
 10 13  1  0
 13 14  1  0
 14 15  2  0
 15 16  1  0
 16 17  2  0
 17 18  1  0
 17 19  1  0
 19 20  2  0
  9 21  2  0
 21  3  1  0
 20 14  1  0
  1 22  1  0
  1 23  1  0
  1 24  1  0
  4 25  1  0
  5 26  1  0
  8 27  1  0
  8 28  1  0
  8 29  1  0
 15 30  1  0
 16 31  1  0
 19 32  1  0
 20 33  1  0
 21 34  1  0
M  CHG  1  13  -1
M  END
>  <UniqueID>  (31) 
30

>  <SMILES>  (31) 
COc1ccc(OC)c(S(=O)(=O)[N-]c2ccc(Br)cc2)c1

>  <Energy>  (31) 
36.490440394910806

>  <Genealogy>  (31) 
COc1ccc(OC)c(S(=O)(=O)[N-]c2ccc(Br)cc2)c1 (protonated)
COc1ccc(OC)c(S(=O)(=O)[N-]c2ccc(Br)cc2)c1 (3D coordinates assigned)
COc1ccc(OC)c(S(=O)(=O)[N-]c2ccc(Br)cc2)c1 (optimized conformer: 36.490440394910806 kcal/mol)

>  <smiles>  (31) 
COc1ccc(OC)c(S(=O)(=O)Nc2ccc(Br)cc2)c1

>  <score_type>  (31) 
oracle

>  <origin>  (31) 
adg

>  <m_score__min__energy>  (31) 
-8.4900000000000002

>  <m_primary>  (31) 
energy

$$$$
31:0
     RDKit          3D

 35 36  0  0  0  0  0  0  0  0999 V2000
   56.6630   30.2360   43.3700 C   0  0  0  0  0  0  0  0  0  0  0  0
   56.5270   30.8880   44.6290 O   0  0  0  0  0  0  0  0  0  0  0  0
   57.3960   31.8830   45.1020 C   0  0  0  0  0  0  0  0  0  0  0  0
   57.4930   33.1510   44.4990 C   0  0  0  0  0  0  0  0  0  0  0  0
   58.3760   34.1080   45.0080 C   0  0  0  0  0  0  0  0  0  0  0  0
   59.1770   33.8180   46.1270 C   0  0  0  0  0  0  0  0  0  0  0  0
   60.1020   34.8010   46.6430 N   0  0  0  0  0  0  0  0  0  0  0  0
   61.2630   34.1480   47.2170 C   0  0  0  0  0  0  0  0  0  0  0  0
   62.3460   33.8470   46.3700 C   0  0  0  0  0  0  0  0  0  0  0  0
   63.4810   33.2090   46.8560 C   0  0  0  0  0  0  0  0  0  0  0  0
   63.5670   32.8630   48.1990 C   0  0  0  0  0  0  0  0  0  0  0  0
   62.5200   33.1620   49.0850 C   0  0  0  0  0  0  0  0  0  0  0  0
   62.6840   32.7740   50.5340 C   0  0  0  0  0  0  0  0  0  0  0  0
   61.3510   33.8190   48.6030 C   0  0  0  0  0  0  0  0  0  0  0  0
   60.2310   34.2060   49.5490 C   0  0  0  0  0  0  0  0  0  0  0  0
   59.0770   32.5490   46.7240 C   0  0  0  0  0  0  0  0  0  0  0  0
   58.1940   31.5930   46.2150 C   0  0  0  0  0  0  0  0  0  0  0  0
   56.8852   29.1708   43.5309 H   0  0  0  0  0  0  0  0  0  0  0  0
   55.7252   30.3335   42.8034 H   0  0  0  0  0  0  0  0  0  0  0  0
   57.4836   30.7002   42.8034 H   0  0  0  0  0  0  0  0  0  0  0  0
   56.8714   33.3901   43.6235 H   0  0  0  0  0  0  0  0  0  0  0  0
   58.4448   35.0960   44.5293 H   0  0  0  0  0  0  0  0  0  0  0  0
   59.5960   35.4120   47.3190 H   0  0  0  0  0  0  0  0  0  0  0  0
   60.4250   35.4350   45.8740 H   0  0  0  0  0  0  0  0  0  0  0  0
   62.2932   34.1212   45.3060 H   0  0  0  0  0  0  0  0  0  0  0  0
   64.3136   32.9773   46.1756 H   0  0  0  0  0  0  0  0  0  0  0  0
   64.4653   32.3492   48.5720 H   0  0  0  0  0  0  0  0  0  0  0  0
   62.3361   33.5970   51.1756 H   0  0  0  0  0  0  0  0  0  0  0  0
   62.0904   31.8714   50.7413 H   0  0  0  0  0  0  0  0  0  0  0  0
   63.7450   32.5707   50.7413 H   0  0  0  0  0  0  0  0  0  0  0  0
   60.5717   34.0883   50.5883 H   0  0  0  0  0  0  0  0  0  0  0  0
   59.9477   35.2541   49.3725 H   0  0  0  0  0  0  0  0  0  0  0  0
   59.3611   33.5563   49.3725 H   0  0  0  0  0  0  0  0  0  0  0  0
   59.6987   32.3068   47.5986 H   0  0  0  0  0  0  0  0  0  0  0  0
   58.1254   30.6046   46.6928 H   0  0  0  0  0  0  0  0  0  0  0  0
  1  2  1  0
  2  3  1  0
  3  4  2  0
  4  5  1  0
  5  6  2  0
  6  7  1  0
  7  8  1  0
  8  9  2  0
  9 10  1  0
 10 11  2  0
 11 12  1  0
 12 13  1  0
 12 14  2  0
 14 15  1  0
  6 16  1  0
 16 17  2  0
 17  3  1  0
 14  8  1  0
  1 18  1  0
  1 19  1  0
  1 20  1  0
  4 21  1  0
  5 22  1  0
  7 23  1  0
  7 24  1  0
  9 25  1  0
 10 26  1  0
 11 27  1  0
 13 28  1  0
 13 29  1  0
 13 30  1  0
 15 31  1  0
 15 32  1  0
 15 33  1  0
 16 34  1  0
 17 35  1  0
M  CHG  1   7   1
M  END
>  <UniqueID>  (32) 
31

>  <SMILES>  (32) 
COc1ccc([NH2+]c2cccc(C)c2C)cc1

>  <Energy>  (32) 
41.89867924007801

>  <Genealogy>  (32) 
COc1ccc([NH2+]c2cccc(C)c2C)cc1 (protonated)
COc1ccc([NH2+]c2cccc(C)c2C)cc1 (3D coordinates assigned)
COc1ccc([NH2+]c2cccc(C)c2C)cc1 (optimized conformer: 41.89867924007801 kcal/mol)

>  <smiles>  (32) 
COc1ccc(Nc2cccc(C)c2C)cc1

>  <score_type>  (32) 
oracle

>  <origin>  (32) 
adg

>  <m_score__min__energy>  (32) 
-4.96

>  <m_primary>  (32) 
energy

$$$$
32:0
     RDKit          3D

 21 20  0  0  0  0  0  0  0  0999 V2000
   57.4290   33.9120   45.0760 C   0  0  0  0  0  0  0  0  0  0  0  0
   57.7610   32.4690   45.4480 C   0  0  0  0  0  0  0  0  0  0  0  0
   57.2720   31.4330   44.4160 C   0  0  0  0  0  0  0  0  0  0  0  0
   57.0170   29.9960   44.9470 C   0  0  1  0  0  0  0  0  0  0  0  0
   55.6550   29.6530   44.8630 O   0  0  0  0  0  0  0  0  0  0  0  0
   57.9150   28.9080   44.2990 C   0  0  0  0  0  0  0  0  0  0  0  0
   57.2870   28.3000   43.1240 N   0  0  0  0  0  0  0  0  0  0  0  0
   57.2926   34.5048   45.9925 H   0  0  0  0  0  0  0  0  0  0  0  0
   58.2529   34.3368   44.4837 H   0  0  0  0  0  0  0  0  0  0  0  0
   56.5023   33.9340   44.4837 H   0  0  0  0  0  0  0  0  0  0  0  0
   58.8532   32.3772   45.5411 H   0  0  0  0  0  0  0  0  0  0  0  0
   57.2389   32.2528   46.3917 H   0  0  0  0  0  0  0  0  0  0  0  0
   56.3283   31.8047   43.9901 H   0  0  0  0  0  0  0  0  0  0  0  0
   58.0923   31.3346   43.6898 H   0  0  0  0  0  0  0  0  0  0  0  0
   57.3087   30.0210   46.0073 H   0  0  0  0  0  0  0  0  0  0  0  0
   55.1810   30.0930   45.6140 H   0  0  0  0  0  0  0  0  0  0  0  0
   58.8658   29.3692   43.9937 H   0  0  0  0  0  0  0  0  0  0  0  0
   58.0757   28.1150   45.0442 H   0  0  0  0  0  0  0  0  0  0  0  0
   57.7750   28.6430   42.2650 H   0  0  0  0  0  0  0  0  0  0  0  0
   56.2800   28.5740   43.0660 H   0  0  0  0  0  0  0  0  0  0  0  0
   57.3720   27.2590   43.1570 H   0  0  0  0  0  0  0  0  0  0  0  0
  1  2  1  0
  2  3  1  0
  3  4  1  0
  4  5  1  0
  4  6  1  0
  6  7  1  0
  1  8  1  0
  1  9  1  0
  1 10  1  0
  2 11  1  0
  2 12  1  0
  3 13  1  0
  3 14  1  0
  4 15  1  1
  5 16  1  0
  6 17  1  0
  6 18  1  0
  7 19  1  0
  7 20  1  0
  7 21  1  0
M  CHG  1   7   1
M  END
>  <UniqueID>  (33) 
32

>  <SMILES>  (33) 
CCC[C@@H](O)C[NH3+]

>  <Energy>  (33) 
14.953223597971355

>  <Genealogy>  (33) 
CCCC(O)C[NH3+] (protonated)
CCC[C@@H](O)C[NH3+] (chirality)
CCC[C@@H](O)C[NH3+] (3D coordinates assigned)
CCC[C@@H](O)C[NH3+] (optimized conformer: 14.953223597971355 kcal/mol)

>  <smiles>  (33) 
CCCC(O)CN

>  <score_type>  (33) 
oracle

>  <origin>  (33) 
adg

>  <m_score__min__energy>  (33) 
-2.75

>  <m_primary>  (33) 
energy

$$$$
33:0
     RDKit          3D

 43 45  0  0  0  0  0  0  0  0999 V2000
   56.2650   29.3520   42.6070 C   0  0  0  0  0  0  0  0  0  0  0  0
   56.8320   30.4380   43.4630 C   0  0  0  0  0  0  0  0  0  0  0  0
   57.4690   31.5390   42.8870 C   0  0  0  0  0  0  0  0  0  0  0  0
   57.9780   32.5400   43.7110 C   0  0  0  0  0  0  0  0  0  0  0  0
   57.8490   32.4180   45.1010 C   0  0  0  0  0  0  0  0  0  0  0  0
   58.3400   33.4360   45.9930 N   0  0  0  0  0  0  0  0  0  0  0  0
   58.0700   33.3970   47.4340 C   0  0  0  0  0  0  0  0  0  0  0  0
   59.3600   33.6630   48.2350 C   0  0  0  0  0  0  0  0  0  0  0  0
   60.3370   34.5400   47.5330 N   0  0  0  0  0  0  0  0  0  0  0  0
   61.4610   33.7790   46.9460 C   0  0  0  0  0  0  0  0  0  0  0  0
   61.2880   32.3140   47.2130 C   0  0  0  0  0  0  0  0  0  0  0  0
   61.9610   31.7680   48.1280 O   0  0  0  0  0  0  0  0  0  0  0  0
   60.4080   31.5370   46.3850 N   0  0  0  0  0  0  0  0  0  0  0  0
   60.0410   30.1730   46.6530 C   0  0  0  0  0  0  0  0  0  0  0  0
   59.4050   29.7980   47.8490 C   0  0  0  0  0  0  0  0  0  0  0  0
   59.0430   28.4660   48.0590 C   0  0  0  0  0  0  0  0  0  0  0  0
   59.3060   27.5200   47.0670 C   0  0  0  0  0  0  0  0  0  0  0  0
   59.9040   27.8990   45.9060 N   0  0  0  0  0  0  0  0  0  0  0  0
   60.2660   29.1910   45.6780 C   0  0  0  0  0  0  0  0  0  0  0  0
   59.6950   35.4300   46.5420 C   0  0  0  0  0  0  0  0  0  0  0  0
   58.9920   34.6250   45.4350 C   0  0  0  0  0  0  0  0  0  0  0  0
   57.2000   31.3320   45.6060 N   0  0  0  0  0  0  0  0  0  0  0  0
   56.7110   30.3750   44.8160 N   0  0  0  0  0  0  0  0  0  0  0  0
   55.8510   28.5590   43.2471 H   0  0  0  0  0  0  0  0  0  0  0  0
   55.4672   29.7645   41.9719 H   0  0  0  0  0  0  0  0  0  0  0  0
   57.0595   28.9332   41.9719 H   0  0  0  0  0  0  0  0  0  0  0  0
   57.5678   31.6150   41.7941 H   0  0  0  0  0  0  0  0  0  0  0  0
   58.4766   33.4181   43.2747 H   0  0  0  0  0  0  0  0  0  0  0  0
   57.3246   34.1666   47.6831 H   0  0  0  0  0  0  0  0  0  0  0  0
   57.6889   32.3991   47.6966 H   0  0  0  0  0  0  0  0  0  0  0  0
   59.0845   34.1432   49.1855 H   0  0  0  0  0  0  0  0  0  0  0  0
   59.8518   32.6898   48.3799 H   0  0  0  0  0  0  0  0  0  0  0  0
   61.4878   33.9499   45.8597 H   0  0  0  0  0  0  0  0  0  0  0  0
   62.4024   34.1189   47.4023 H   0  0  0  0  0  0  0  0  0  0  0  0
   60.0840   31.9650   45.4890 H   0  0  0  0  0  0  0  0  0  0  0  0
   59.1925   30.5538   48.6194 H   0  0  0  0  0  0  0  0  0  0  0  0
   58.5550   28.1649   48.9977 H   0  0  0  0  0  0  0  0  0  0  0  0
   59.0293   26.4671   47.2245 H   0  0  0  0  0  0  0  0  0  0  0  0
   60.7378   29.4663   44.7232 H   0  0  0  0  0  0  0  0  0  0  0  0
   58.9516   36.0584   47.0543 H   0  0  0  0  0  0  0  0  0  0  0  0
   60.4759   36.0491   46.0763 H   0  0  0  0  0  0  0  0  0  0  0  0
   58.2339   35.2598   44.9530 H   0  0  0  0  0  0  0  0  0  0  0  0
   59.7442   34.3034   44.6997 H   0  0  0  0  0  0  0  0  0  0  0  0
  1  2  1  0
  2  3  2  0
  3  4  1  0
  4  5  2  0
  5  6  1  0
  6  7  1  0
  7  8  1  0
  8  9  1  0
  9 10  1  0
 10 11  1  0
 11 12  2  0
 11 13  1  0
 13 14  1  0
 14 15  2  0
 15 16  1  0
 16 17  2  0
 17 18  1  0
 18 19  2  0
  9 20  1  0
 20 21  1  0
  5 22  1  0
 22 23  2  0
 23  2  1  0
 21  6  1  0
 19 14  1  0
  1 24  1  0
  1 25  1  0
  1 26  1  0
  3 27  1  0
  4 28  1  0
  7 29  1  0
  7 30  1  0
  8 31  1  0
  8 32  1  0
 10 33  1  0
 10 34  1  0
 13 35  1  0
 15 36  1  0
 16 37  1  0
 17 38  1  0
 19 39  1  0
 20 40  1  0
 20 41  1  0
 21 42  1  0
 21 43  1  0
M  END
>  <UniqueID>  (34) 
33

>  <SMILES>  (34) 
Cc1ccc(N2CCN(CC(=O)Nc3cccnc3)CC2)nn1

>  <Energy>  (34) 
58.54208407746244

>  <Genealogy>  (34) 
Cc1ccc(N2CCN(CC(=O)Nc3cccnc3)CC2)nn1 (3D coordinates assigned)
Cc1ccc(N2CCN(CC(=O)Nc3cccnc3)CC2)nn1 (nonaromatic ring conformer: 58.54208407746244 kcal/mol)

>  <smiles>  (34) 
Cc1ccc(N2CCN(CC(=O)Nc3cccnc3)CC2)nn1

>  <score_type>  (34) 
oracle

>  <origin>  (34) 
adg

>  <m_score__min__energy>  (34) 
-8.0199999999999996

>  <m_primary>  (34) 
energy

$$$$
34:0
     RDKit          3D

 51 54  0  0  0  0  0  0  0  0999 V2000
   61.7160   32.2160   47.4100 C   0  0  0  0  0  0  0  0  0  0  0  0
   60.5180   32.8120   46.7290 C   0  0  0  0  0  0  0  0  0  0  0  0
   60.4720   34.1840   46.4460 C   0  0  0  0  0  0  0  0  0  0  0  0
   59.3460   34.7400   45.8350 C   0  0  0  0  0  0  0  0  0  0  0  0
   58.2410   33.9350   45.5130 C   0  0  0  0  0  0  0  0  0  0  0  0
   57.0230   34.5510   44.8810 C   0  0  0  0  0  0  0  0  0  0  0  0
   58.2590   32.5670   45.8480 C   0  0  0  0  0  0  0  0  0  0  0  0
   57.1320   31.7380   45.5360 N   0  0  0  0  0  0  0  0  0  0  0  0
   57.0590   30.8060   44.4500 C   0  0  0  0  0  0  0  0  0  0  0  0
   56.6670   31.2210   43.3250 O   0  0  0  0  0  0  0  0  0  0  0  0
   57.2680   29.3210   44.6660 C   0  0  0  0  0  0  0  0  0  0  0  0
   58.4900   29.0430   45.5630 C   0  0  0  0  0  0  0  0  0  0  0  0
   58.5850   27.5410   45.8670 C   0  0  0  0  0  0  0  0  0  0  0  0
   58.2640   26.7270   44.6830 N   0  0  0  0  0  0  0  0  0  0  0  0
   58.0320   25.3160   44.8400 C   0  0  0  0  0  0  0  0  0  0  0  0
   57.2820   24.5690   43.9880 N   0  0  0  0  0  0  0  0  0  0  0  0
   57.1780   23.2970   44.3750 N   0  0  0  0  0  0  0  0  0  0  0  0
   56.4760   22.3300   43.7200 C   0  0  0  0  0  0  0  0  0  0  0  0
   55.8670   22.5850   42.6480 O   0  0  0  0  0  0  0  0  0  0  0  0
   56.4440   21.0370   44.2600 C   0  0  0  0  0  0  0  0  0  0  0  0
   57.1330   20.7850   45.4630 C   0  0  0  0  0  0  0  0  0  0  0  0
   57.1160   19.4170   46.0660 C   0  0  0  0  0  0  0  0  0  0  0  0
   57.8160   21.7910   46.0810 N   0  0  0  0  0  0  0  0  0  0  0  0
   57.8270   23.0270   45.5280 C   0  0  0  0  0  0  0  0  0  0  0  0
   58.5870   24.3900   46.1550 S   0  0  0  0  0  0  0  0  0  0  0  0
   58.2920   27.3500   43.3520 C   0  0  0  0  0  0  0  0  0  0  0  0
   57.3820   28.5910   43.3030 C   0  0  0  0  0  0  0  0  0  0  0  0
   59.4070   32.0090   46.4350 C   0  0  0  0  0  0  0  0  0  0  0  0
   61.5874   32.2800   48.5006 H   0  0  0  0  0  0  0  0  0  0  0  0
   61.8191   31.1616   47.1142 H   0  0  0  0  0  0  0  0  0  0  0  0
   62.6192   32.7698   47.1142 H   0  0  0  0  0  0  0  0  0  0  0  0
   61.3267   34.8257   46.7063 H   0  0  0  0  0  0  0  0  0  0  0  0
   59.3244   35.8153   45.6044 H   0  0  0  0  0  0  0  0  0  0  0  0
   56.3372   34.8978   45.6680 H   0  0  0  0  0  0  0  0  0  0  0  0
   57.3259   35.4043   44.2564 H   0  0  0  0  0  0  0  0  0  0  0  0
   56.5152   33.8014   44.2564 H   0  0  0  0  0  0  0  0  0  0  0  0
   56.3896   28.9244   45.1962 H   0  0  0  0  0  0  0  0  0  0  0  0
   59.4041   29.3687   45.0451 H   0  0  0  0  0  0  0  0  0  0  0  0
   58.3796   29.5970   46.5069 H   0  0  0  0  0  0  0  0  0  0  0  0
   59.6088   27.3071   46.1941 H   0  0  0  0  0  0  0  0  0  0  0  0
   57.8564   27.3029   46.6560 H   0  0  0  0  0  0  0  0  0  0  0  0
   56.7990   24.9460   43.1430 H   0  0  0  0  0  0  0  0  0  0  0  0
   55.8905   20.2327   43.7533 H   0  0  0  0  0  0  0  0  0  0  0  0
   57.1170   19.4998   47.1629 H   0  0  0  0  0  0  0  0  0  0  0  0
   56.2112   18.8835   45.7394 H   0  0  0  0  0  0  0  0  0  0  0  0
   58.0073   18.8612   45.7394 H   0  0  0  0  0  0  0  0  0  0  0  0
   59.3237   27.6513   43.1177 H   0  0  0  0  0  0  0  0  0  0  0  0
   57.9267   26.6189   42.6157 H   0  0  0  0  0  0  0  0  0  0  0  0
   57.7906   29.2948   42.5629 H   0  0  0  0  0  0  0  0  0  0  0  0
   56.3733   28.2453   43.0328 H   0  0  0  0  0  0  0  0  0  0  0  0
   59.4344   30.9338   46.6657 H   0  0  0  0  0  0  0  0  0  0  0  0
  1  2  1  0
  2  3  2  0
  3  4  1  0
  4  5  2  0
  5  6  1  0
  5  7  1  0
  7  8  1  0
  8  9  1  0
  9 10  2  0
  9 11  1  0
 11 12  1  0
 12 13  1  0
 13 14  1  0
 14 15  1  0
 15 16  2  0
 16 17  1  0
 17 18  1  0
 18 19  2  0
 18 20  1  0
 20 21  2  0
 21 22  1  0
 21 23  1  0
 23 24  2  0
 24 25  1  0
 14 26  1  0
 26 27  1  0
  7 28  2  0
 28  2  1  0
 27 11  1  0
 25 15  1  0
 24 17  1  0
  1 29  1  0
  1 30  1  0
  1 31  1  0
  3 32  1  0
  4 33  1  0
  6 34  1  0
  6 35  1  0
  6 36  1  0
 11 37  1  0
 12 38  1  0
 12 39  1  0
 13 40  1  0
 13 41  1  0
 16 42  1  0
 20 43  1  0
 22 44  1  0
 22 45  1  0
 22 46  1  0
 26 47  1  0
 26 48  1  0
 27 49  1  0
 27 50  1  0
 28 51  1  0
M  CHG  2   8  -1  16   1
M  END
>  <UniqueID>  (35) 
34

>  <SMILES>  (35) 
Cc1ccc(C)c([N-]C(=O)C2CCN(c3[nH+]n4c(=O)cc(C)nc4s3)CC2)c1

>  <Energy>  (35) 
100.29326756118611

>  <Genealogy>  (35) 
Cc1ccc(C)c([N-]C(=O)C2CCN(c3[nH+]n4c(=O)cc(C)nc4s3)CC2)c1 (protonated)
Cc1ccc(C)c([N-]C(=O)C2CCN(c3[nH+]n4c(=O)cc(C)nc4s3)CC2)c1 (3D coordinates assigned)
Cc1ccc(C)c([N-]C(=O)C2CCN(c3[nH+]n4c(=O)cc(C)nc4s3)CC2)c1 (nonaromatic ring conformer: 100.29326756118611 kcal/mol)

>  <smiles>  (35) 
Cc1ccc(C)c(NC(=O)C2CCN(c3nn4c(=O)cc(C)nc4s3)CC2)c1

>  <score_type>  (35) 
oracle

>  <origin>  (35) 
adg

>  <m_score__min__energy>  (35) 
-9

>  <m_primary>  (35) 
energy

$$$$
35:0
     RDKit          3D

 48 52  0  0  0  0  0  0  0  0999 V2000
   58.1480   32.0170   42.0390 C   0  0  0  0  0  0  0  0  0  0  0  0
   57.1880   31.4750   43.0960 C   0  0  0  0  0  0  0  0  0  0  0  0
   57.8540   31.3920   44.4160 N   0  0  0  0  0  0  0  0  0  0  0  0
   58.0210   30.1460   44.9850 C   0  0  0  0  0  0  0  0  0  0  0  0
   57.6680   29.1010   44.3730 O   0  0  0  0  0  0  0  0  0  0  0  0
   58.6050   30.0480   46.2490 C   0  0  0  0  0  0  0  0  0  0  0  0
   58.8820   28.9290   47.0290 C   0  0  0  0  0  0  0  0  0  0  0  0
   58.6290   27.5100   46.7110 C   0  0  0  0  0  0  0  0  0  0  0  0
   57.3190   27.0020   46.7460 C   0  0  0  0  0  0  0  0  0  0  0  0
   57.0740   25.6670   46.4150 C   0  0  0  0  0  0  0  0  0  0  0  0
   58.1310   24.8310   46.0420 C   0  0  0  0  0  0  0  0  0  0  0  0
   57.8200   23.1550   45.6240 Cl  0  0  0  0  0  0  0  0  0  0  0  0
   59.4360   25.3330   45.9970 C   0  0  0  0  0  0  0  0  0  0  0  0
   59.6840   26.6680   46.3270 C   0  0  0  0  0  0  0  0  0  0  0  0
   59.5390   29.4440   48.1490 C   0  0  0  0  0  0  0  0  0  0  0  0
   60.0530   28.6940   49.3150 C   0  0  0  0  0  0  0  0  0  0  0  0
   60.6430   27.4310   49.1330 C   0  0  0  0  0  0  0  0  0  0  0  0
   61.1340   26.7150   50.2290 C   0  0  0  0  0  0  0  0  0  0  0  0
   61.0480   27.2550   51.5140 C   0  0  0  0  0  0  0  0  0  0  0  0
   60.4760   28.5160   51.7050 C   0  0  0  0  0  0  0  0  0  0  0  0
   59.9840   29.2350   50.6120 C   0  0  0  0  0  0  0  0  0  0  0  0
   59.6290   30.7870   48.0240 N   0  0  0  0  0  0  0  0  0  0  0  0
   59.0590   31.1410   46.8790 N   0  0  0  0  0  0  0  0  0  0  0  0
   58.9560   32.3910   46.3460 C   0  0  0  0  0  0  0  0  0  0  0  0
   59.4430   33.5290   47.0160 C   0  0  0  0  0  0  0  0  0  0  0  0
   59.3370   34.7890   46.4310 C   0  0  0  0  0  0  0  0  0  0  0  0
   58.7540   34.9320   45.1750 C   0  0  0  0  0  0  0  0  0  0  0  0
   58.2630   33.8170   44.4940 C   0  0  0  0  0  0  0  0  0  0  0  0
   58.3380   32.5220   45.0650 C   0  0  0  0  0  0  0  0  0  0  0  0
   59.0035   32.5000   42.5338 H   0  0  0  0  0  0  0  0  0  0  0  0
   58.5075   31.1886   41.4109 H   0  0  0  0  0  0  0  0  0  0  0  0
   57.6244   32.7528   41.4109 H   0  0  0  0  0  0  0  0  0  0  0  0
   56.3189   32.1450   43.1717 H   0  0  0  0  0  0  0  0  0  0  0  0
   56.8676   30.4658   42.7979 H   0  0  0  0  0  0  0  0  0  0  0  0
   56.4842   27.6575   47.0349 H   0  0  0  0  0  0  0  0  0  0  0  0
   56.0476   25.2728   46.4479 H   0  0  0  0  0  0  0  0  0  0  0  0
   60.2676   24.6763   45.7016 H   0  0  0  0  0  0  0  0  0  0  0  0
   60.7107   27.0607   46.2856 H   0  0  0  0  0  0  0  0  0  0  0  0
   60.7188   27.0035   48.1223 H   0  0  0  0  0  0  0  0  0  0  0  0
   61.5888   25.7247   50.0788 H   0  0  0  0  0  0  0  0  0  0  0  0
   61.4303   26.6881   52.3757 H   0  0  0  0  0  0  0  0  0  0  0  0
   60.4130   28.9431   52.7168 H   0  0  0  0  0  0  0  0  0  0  0  0
   59.5403   30.2296   50.7667 H   0  0  0  0  0  0  0  0  0  0  0  0
   60.0640   31.4310   48.7200 H   0  0  0  0  0  0  0  0  0  0  0  0
   59.9096   33.4230   48.0065 H   0  0  0  0  0  0  0  0  0  0  0  0
   59.7154   35.6740   46.9635 H   0  0  0  0  0  0  0  0  0  0  0  0
   58.6799   35.9292   44.7167 H   0  0  0  0  0  0  0  0  0  0  0  0
   57.8111   33.9452   43.4993 H   0  0  0  0  0  0  0  0  0  0  0  0
  1  2  1  0
  2  3  1  0
  3  4  1  0
  4  5  2  0
  4  6  1  0
  6  7  2  0
  7  8  1  0
  8  9  2  0
  9 10  1  0
 10 11  2  0
 11 12  1  0
 11 13  1  0
 13 14  2  0
  7 15  1  0
 15 16  1  0
 16 17  2  0
 17 18  1  0
 18 19  2  0
 19 20  1  0
 20 21  2  0
 15 22  2  0
 22 23  1  0
 23 24  1  0
 24 25  2  0
 25 26  1  0
 26 27  2  0
 27 28  1  0
 28 29  2  0
 29  3  1  0
 23  6  1  0
 29 24  1  0
 14  8  1  0
 21 16  1  0
  1 30  1  0
  1 31  1  0
  1 32  1  0
  2 33  1  0
  2 34  1  0
  9 35  1  0
 10 36  1  0
 13 37  1  0
 14 38  1  0
 17 39  1  0
 18 40  1  0
 19 41  1  0
 20 42  1  0
 21 43  1  0
 22 44  1  0
 25 45  1  0
 26 46  1  0
 27 47  1  0
 28 48  1  0
M  CHG  1  22   1
M  END
>  <UniqueID>  (36) 
35

>  <SMILES>  (36) 
CCn1c(=O)c2c(-c3ccc(Cl)cc3)c(-c3ccccc3)[nH+]n2c2ccccc21

>  <Energy>  (36) 
111.13964087805546

>  <Genealogy>  (36) 
CCn1c(=O)c2c(-c3ccc(Cl)cc3)c(-c3ccccc3)[nH+]n2c2ccccc21 (protonated)
CCn1c(=O)c2c(-c3ccc(Cl)cc3)c(-c3ccccc3)[nH+]n2c2ccccc21 (3D coordinates assigned)
CCn1c(=O)c2c(-c3ccc(Cl)cc3)c(-c3ccccc3)[nH+]n2c2ccccc21 (optimized conformer: 111.13964087805546 kcal/mol)

>  <smiles>  (36) 
CCn1c(=O)c2c(-c3ccc(Cl)cc3)c(-c3ccccc3)nn2c2ccccc21

>  <score_type>  (36) 
oracle

>  <origin>  (36) 
adg

>  <m_score__min__energy>  (36) 
-6.9400000000000004

>  <m_primary>  (36) 
energy

$$$$
36:0
     RDKit          3D

 58 62  0  0  0  0  0  0  0  0999 V2000
   60.2380   26.7100   46.3570 C   0  0  0  0  0  0  0  0  0  0  0  0
   59.4440   27.8640   45.8230 C   0  0  0  0  0  0  0  0  0  0  0  0
   60.0490   28.8270   45.0000 C   0  0  0  0  0  0  0  0  0  0  0  0
   59.3040   29.9020   44.5040 C   0  0  0  0  0  0  0  0  0  0  0  0
   57.9340   30.0080   44.8030 C   0  0  0  0  0  0  0  0  0  0  0  0
   56.9930   31.3770   44.1940 S   0  0  0  0  0  0  0  0  0  0  0  0
   55.5330   31.1550   44.4980 O   0  0  0  0  0  0  0  0  0  0  0  0
   57.1490   31.4570   42.6940 O   0  0  0  0  0  0  0  0  0  0  0  0
   57.5170   32.8840   44.9150 N   0  0  0  0  0  0  0  0  0  0  0  0
   57.0380   33.0170   46.3110 C   0  0  0  0  0  0  0  0  0  0  0  0
   58.1380   32.7870   47.3560 C   0  0  0  0  0  0  0  0  0  0  0  0
   59.2640   33.6860   47.0950 N   0  0  0  0  0  0  0  0  0  0  0  0
   60.0010   34.2390   48.1990 C   0  0  0  0  0  0  0  0  0  0  0  0
   59.3790   34.6910   49.2020 O   0  0  0  0  0  0  0  0  0  0  0  0
   61.5030   34.2670   48.2020 C   0  0  0  0  0  0  0  0  0  0  0  0
   62.1580   33.1430   49.4830 S   0  0  0  0  0  0  0  0  0  0  0  0
   61.3750   31.6810   48.7940 C   0  0  0  0  0  0  0  0  0  0  0  0
   61.8490   30.9910   47.7310 N   0  0  0  0  0  0  0  0  0  0  0  0
   61.0940   29.9090   47.5470 N   0  0  0  0  0  0  0  0  0  0  0  0
   60.1650   29.9950   48.5130 C   0  0  0  0  0  0  0  0  0  0  0  0
   58.9470   28.9620   49.0120 S   0  0  0  0  0  0  0  0  0  0  0  0
   58.5730   29.9820   50.3380 C   0  0  0  0  0  0  0  0  0  0  0  0
   59.4250   31.0980   50.3260 C   0  0  0  0  0  0  0  0  0  0  0  0
   59.3680   32.1800   51.3250 C   0  0  0  0  0  0  0  0  0  0  0  0
   58.1840   32.9070   51.5180 C   0  0  0  0  0  0  0  0  0  0  0  0
   58.1300   33.9210   52.4760 C   0  0  0  0  0  0  0  0  0  0  0  0
   59.2530   34.2030   53.2630 C   0  0  0  0  0  0  0  0  0  0  0  0
   60.4270   33.4650   53.0950 C   0  0  0  0  0  0  0  0  0  0  0  0
   60.4860   32.4520   52.1320 C   0  0  0  0  0  0  0  0  0  0  0  0
   60.2970   31.0510   49.2870 N   0  0  0  0  0  0  0  0  0  0  0  0
   59.5570   34.0840   45.7110 C   0  0  0  0  0  0  0  0  0  0  0  0
   58.9760   33.0560   44.7340 C   0  0  0  0  0  0  0  0  0  0  0  0
   57.3190   29.0210   45.5880 C   0  0  0  0  0  0  0  0  0  0  0  0
   58.0690   27.9570   46.1000 C   0  0  0  0  0  0  0  0  0  0  0  0
   60.2228   26.7321   47.4567 H   0  0  0  0  0  0  0  0  0  0  0  0
   59.7970   25.7665   46.0031 H   0  0  0  0  0  0  0  0  0  0  0  0
   61.2768   26.7847   46.0031 H   0  0  0  0  0  0  0  0  0  0  0  0
   61.1148   28.7357   44.7437 H   0  0  0  0  0  0  0  0  0  0  0  0
   59.7905   30.6655   43.8792 H   0  0  0  0  0  0  0  0  0  0  0  0
   56.6348   34.0314   46.4464 H   0  0  0  0  0  0  0  0  0  0  0  0
   56.2733   32.2420   46.4677 H   0  0  0  0  0  0  0  0  0  0  0  0
   57.7358   32.9871   48.3601 H   0  0  0  0  0  0  0  0  0  0  0  0
   58.4836   31.7444   47.2969 H   0  0  0  0  0  0  0  0  0  0  0  0
   61.8734   33.9484   47.2165 H   0  0  0  0  0  0  0  0  0  0  0  0
   61.8403   35.2911   48.4196 H   0  0  0  0  0  0  0  0  0  0  0  0
   62.6900   31.2290   47.1600 H   0  0  0  0  0  0  0  0  0  0  0  0
   57.7868   29.7916   51.0834 H   0  0  0  0  0  0  0  0  0  0  0  0
   57.2949   32.6773   50.9124 H   0  0  0  0  0  0  0  0  0  0  0  0
   57.2041   34.4990   52.6126 H   0  0  0  0  0  0  0  0  0  0  0  0
   59.2108   35.0059   54.0138 H   0  0  0  0  0  0  0  0  0  0  0  0
   61.3058   33.6805   53.7204 H   0  0  0  0  0  0  0  0  0  0  0  0
   61.4092   31.8673   52.0062 H   0  0  0  0  0  0  0  0  0  0  0  0
   59.1084   35.0686   45.5127 H   0  0  0  0  0  0  0  0  0  0  0  0
   60.6472   34.1354   45.5739 H   0  0  0  0  0  0  0  0  0  0  0  0
   59.1690   33.3946   43.7054 H   0  0  0  0  0  0  0  0  0  0  0  0
   59.4599   32.0880   44.9308 H   0  0  0  0  0  0  0  0  0  0  0  0
   56.2418   29.0842   45.8019 H   0  0  0  0  0  0  0  0  0  0  0  0
   57.5815   27.1910   46.7210 H   0  0  0  0  0  0  0  0  0  0  0  0
  1  2  1  0
  2  3  2  0
  3  4  1  0
  4  5  2  0
  5  6  1  0
  6  7  2  0
  6  8  2  0
  6  9  1  0
  9 10  1  0
 10 11  1  0
 11 12  1  0
 12 13  1  0
 13 14  2  0
 13 15  1  0
 15 16  1  0
 16 17  1  0
 17 18  2  0
 18 19  1  0
 19 20  2  0
 20 21  1  0
 21 22  1  0
 22 23  2  0
 23 24  1  0
 24 25  2  0
 25 26  1  0
 26 27  2  0
 27 28  1  0
 28 29  2  0
 23 30  1  0
 12 31  1  0
 31 32  1  0
  5 33  1  0
 33 34  2  0
 34  2  1  0
 32  9  1  0
 30 17  1  0
 30 20  1  0
 29 24  1  0
  1 35  1  0
  1 36  1  0
  1 37  1  0
  3 38  1  0
  4 39  1  0
 10 40  1  0
 10 41  1  0
 11 42  1  0
 11 43  1  0
 15 44  1  0
 15 45  1  0
 18 46  1  0
 22 47  1  0
 25 48  1  0
 26 49  1  0
 27 50  1  0
 28 51  1  0
 29 52  1  0
 31 53  1  0
 31 54  1  0
 32 55  1  0
 32 56  1  0
 33 57  1  0
 34 58  1  0
M  CHG  1  18   1
M  END
>  <UniqueID>  (37) 
36

>  <SMILES>  (37) 
Cc1ccc(S(=O)(=O)N2CCN(C(=O)CSc3[nH+]nc4scc(-c5ccccc5)n34)CC2)cc1

>  <Energy>  (37) 
153.73118697907822

>  <Genealogy>  (37) 
Cc1ccc(S(=O)(=O)N2CCN(C(=O)CSc3[nH+]nc4scc(-c5ccccc5)n34)CC2)cc1 (protonated)
Cc1ccc(S(=O)(=O)N2CCN(C(=O)CSc3[nH+]nc4scc(-c5ccccc5)n34)CC2)cc1 (3D coordinates assigned)
Cc1ccc(S(=O)(=O)N2CCN(C(=O)CSc3[nH+]nc4scc(-c5ccccc5)n34)CC2)cc1 (nonaromatic ring conformer: 153.73118697907822 kcal/mol)

>  <smiles>  (37) 
Cc1ccc(S(=O)(=O)N2CCN(C(=O)CSc3nnc4scc(-c5ccccc5)n34)CC2)cc1

>  <score_type>  (37) 
oracle

>  <origin>  (37) 
adg

>  <m_score__min__energy>  (37) 
-8.4199999999999999

>  <m_primary>  (37) 
energy

$$$$
37:0
     RDKit          3D

 23 25  0  0  0  0  0  0  0  0999 V2000
   56.5680   26.1860   53.9800 C   0  0  0  0  0  0  0  0  0  0  0  0
   55.6210   27.2630   54.3840 C   0  0  0  0  0  0  0  0  0  0  0  0
   55.0070   28.0850   53.5060 N   0  0  0  0  0  0  0  0  0  0  0  0
   54.1390   28.9400   54.1170 C   0  0  0  0  0  0  0  0  0  0  0  0
   53.3560   29.9330   53.3360 C   0  0  0  0  0  0  0  0  0  0  0  0
   53.6460   30.1960   51.9650 C   0  0  0  0  0  0  0  0  0  0  0  0
   52.8960   31.1370   51.2350 C   0  0  0  0  0  0  0  0  0  0  0  0
   51.8650   31.7960   51.8940 C   0  0  0  0  0  0  0  0  0  0  0  0
   51.0270   32.7230   51.3990 N   0  0  0  0  0  0  0  0  0  0  0  0
   50.2030   33.0710   52.3850 N   0  0  0  0  0  0  0  0  0  0  0  0
   50.5160   32.3690   53.4990 C   0  0  0  0  0  0  0  0  0  0  0  0
   51.5760   31.5490   53.2000 C   0  0  0  0  0  0  0  0  0  0  0  0
   52.2890   30.6280   53.9600 C   0  0  0  0  0  0  0  0  0  0  0  0
   54.0490   28.7760   55.5030 C   0  0  0  0  0  0  0  0  0  0  0  0
   55.0880   27.5320   55.9510 S   0  0  0  0  0  0  0  0  0  0  0  0
   56.9867   25.7098   54.8788 H   0  0  0  0  0  0  0  0  0  0  0  0
   56.0337   25.4335   53.3815 H   0  0  0  0  0  0  0  0  0  0  0  0
   57.3827   26.6196   53.3815 H   0  0  0  0  0  0  0  0  0  0  0  0
   54.4672   29.6560   51.4710 H   0  0  0  0  0  0  0  0  0  0  0  0
   53.1185   31.3440   50.1778 H   0  0  0  0  0  0  0  0  0  0  0  0
   50.0100   32.4425   54.4730 H   0  0  0  0  0  0  0  0  0  0  0  0
   52.0329   30.4441   55.0138 H   0  0  0  0  0  0  0  0  0  0  0  0
   53.4097   29.3593   56.1820 H   0  0  0  0  0  0  0  0  0  0  0  0
  1  2  1  0
  2  3  2  0
  3  4  1  0
  4  5  1  0
  5  6  2  0
  6  7  1  0
  7  8  2  0
  8  9  1  0
  9 10  1  0
 10 11  2  0
 11 12  1  0
 12 13  2  0
  4 14  2  0
 14 15  1  0
 15  2  1  0
 13  5  1  0
 12  8  1  0
  1 16  1  0
  1 17  1  0
  1 18  1  0
  6 19  1  0
  7 20  1  0
 11 21  1  0
 13 22  1  0
 14 23  1  0
M  CHG  1   9  -1
M  END
>  <UniqueID>  (38) 
37

>  <SMILES>  (38) 
Cc1nc(-c2ccc3[n-]ncc3c2)cs1

>  <Energy>  (38) 
93.48141683775125

>  <Genealogy>  (38) 
Cc1nc(-c2ccc3[n-]ncc3c2)cs1 (protonated)
Cc1nc(-c2ccc3[n-]ncc3c2)cs1 (3D coordinates assigned)
Cc1nc(-c2ccc3[n-]ncc3c2)cs1 (optimized conformer: 93.48141683775125 kcal/mol)

>  <smiles>  (38) 
Cc1nc(-c2ccc3[nH]ncc3c2)cs1

>  <score_type>  (38) 
oracle

>  <origin>  (38) 
adg

>  <m_score__min__energy>  (38) 
-8.1999999999999993

>  <m_primary>  (38) 
energy

$$$$
38:0
     RDKit          3D

 41 43  0  0  0  0  0  0  0  0999 V2000
   57.8580   26.1650   42.8300 N   0  0  0  0  0  0  0  0  0  0  0  0
   57.7710   27.2520   43.2180 C   0  0  0  0  0  0  0  0  0  0  0  0
   57.6610   28.6040   43.7000 C   0  0  0  0  0  0  0  0  0  0  0  0
   56.7520   29.4880   43.1090 C   0  0  0  0  0  0  0  0  0  0  0  0
   56.6460   30.8020   43.5770 C   0  0  0  0  0  0  0  0  0  0  0  0
   57.4570   31.2490   44.6330 C   0  0  0  0  0  0  0  0  0  0  0  0
   57.3330   32.6710   45.1470 C   0  0  0  0  0  0  0  0  0  0  0  0
   58.4710   33.1230   45.9880 N   0  0  0  0  0  0  0  0  0  0  0  0
   58.8830   34.5120   45.6920 C   0  0  0  0  0  0  0  0  0  0  0  0
   60.2590   34.8000   46.3150 C   0  0  0  0  0  0  0  0  0  0  0  0
   60.4220   34.0710   47.5800 N   0  0  0  0  0  0  0  0  0  0  0  0
   61.7390   33.8390   48.1170 C   0  0  0  0  0  0  0  0  0  0  0  0
   62.7680   33.3400   47.2970 C   0  0  0  0  0  0  0  0  0  0  0  0
   64.0410   33.1030   47.8250 C   0  0  0  0  0  0  0  0  0  0  0  0
   64.2970   33.3560   49.1750 C   0  0  0  0  0  0  0  0  0  0  0  0
   63.2800   33.8420   50.0000 C   0  0  0  0  0  0  0  0  0  0  0  0
   62.0070   34.0810   49.4760 C   0  0  0  0  0  0  0  0  0  0  0  0
   59.2240   33.6840   48.3350 C   0  0  0  0  0  0  0  0  0  0  0  0
   58.2180   32.9260   47.4390 C   0  0  0  0  0  0  0  0  0  0  0  0
   58.3530   30.3480   45.2350 C   0  0  0  0  0  0  0  0  0  0  0  0
   58.4600   29.0350   44.7660 C   0  0  0  0  0  0  0  0  0  0  0  0
   56.1197   29.1493   42.2751 H   0  0  0  0  0  0  0  0  0  0  0  0
   55.9226   31.4898   43.1148 H   0  0  0  0  0  0  0  0  0  0  0  0
   57.2574   33.3443   44.2804 H   0  0  0  0  0  0  0  0  0  0  0  0
   56.4403   32.6950   45.7892 H   0  0  0  0  0  0  0  0  0  0  0  0
   59.2740   32.4980   45.7300 H   0  0  0  0  0  0  0  0  0  0  0  0
   58.9412   34.6497   44.6022 H   0  0  0  0  0  0  0  0  0  0  0  0
   58.1429   35.2053   46.1182 H   0  0  0  0  0  0  0  0  0  0  0  0
   61.0455   34.4851   45.6134 H   0  0  0  0  0  0  0  0  0  0  0  0
   60.3356   35.8785   46.5173 H   0  0  0  0  0  0  0  0  0  0  0  0
   62.5698   33.1352   46.2346 H   0  0  0  0  0  0  0  0  0  0  0  0
   64.8416   32.7170   47.1769 H   0  0  0  0  0  0  0  0  0  0  0  0
   65.2997   33.1724   49.5883 H   0  0  0  0  0  0  0  0  0  0  0  0
   63.4816   34.0368   51.0637 H   0  0  0  0  0  0  0  0  0  0  0  0
   61.2091   34.4610   50.1310 H   0  0  0  0  0  0  0  0  0  0  0  0
   59.5213   33.0332   49.1705 H   0  0  0  0  0  0  0  0  0  0  0  0
   58.7379   34.5974   48.7083 H   0  0  0  0  0  0  0  0  0  0  0  0
   58.2879   31.8516   47.6645 H   0  0  0  0  0  0  0  0  0  0  0  0
   57.2167   33.3264   47.6561 H   0  0  0  0  0  0  0  0  0  0  0  0
   58.9741   30.6783   46.0807 H   0  0  0  0  0  0  0  0  0  0  0  0
   59.1724   28.3402   45.2349 H   0  0  0  0  0  0  0  0  0  0  0  0
  1  2  3  0
  2  3  1  0
  3  4  2  0
  4  5  1  0
  5  6  2  0
  6  7  1  0
  7  8  1  0
  8  9  1  0
  9 10  1  0
 10 11  1  0
 11 12  1  0
 12 13  2  0
 13 14  1  0
 14 15  2  0
 15 16  1  0
 16 17  2  0
 11 18  1  0
 18 19  1  0
  6 20  1  0
 20 21  2  0
 21  3  1  0
 19  8  1  0
 17 12  1  0
  4 22  1  0
  5 23  1  0
  7 24  1  0
  7 25  1  0
  8 26  1  0
  9 27  1  0
  9 28  1  0
 10 29  1  0
 10 30  1  0
 13 31  1  0
 14 32  1  0
 15 33  1  0
 16 34  1  0
 17 35  1  0
 18 36  1  0
 18 37  1  0
 19 38  1  0
 19 39  1  0
 20 40  1  0
 21 41  1  0
M  CHG  1   8   1
M  END
>  <UniqueID>  (39) 
38

>  <SMILES>  (39) 
N#Cc1ccc(C[NH+]2CCN(c3ccccc3)CC2)cc1

>  <Energy>  (39) 
55.236394508502514

>  <Genealogy>  (39) 
N#Cc1ccc(C[NH+]2CCN(c3ccccc3)CC2)cc1 (protonated)
N#Cc1ccc(C[NH+]2CCN(c3ccccc3)CC2)cc1 (3D coordinates assigned)
N#Cc1ccc(C[NH+]2CCN(c3ccccc3)CC2)cc1 (nonaromatic ring conformer: 55.236394508502514 kcal/mol)

>  <smiles>  (39) 
N#Cc1ccc(CN2CCN(c3ccccc3)CC2)cc1

>  <score_type>  (39) 
oracle

>  <origin>  (39) 
adg

>  <m_score__min__energy>  (39) 
-5.71

>  <m_primary>  (39) 
energy

$$$$
39:0
     RDKit          3D

 43 45  0  0  0  0  0  0  0  0999 V2000
   57.7360   31.9710   42.9190 C   0  0  0  0  0  0  0  0  0  0  0  0
   57.4200   32.1220   44.3740 C   0  0  0  0  0  0  0  0  0  0  0  0
   56.3120   31.6980   44.8030 O   0  0  0  0  0  0  0  0  0  0  0  0
   58.3270   32.8040   45.2650 N   0  0  0  0  0  0  0  0  0  0  0  0
   58.4390   34.2680   45.1310 C   0  0  0  0  0  0  0  0  0  0  0  0
   59.4850   34.8690   46.0760 C   0  0  0  0  0  0  0  0  0  0  0  0
   59.2740   34.3570   47.4980 C   0  0  0  0  0  0  0  0  0  0  0  0
   59.3620   32.8580   47.5160 C   0  0  0  0  0  0  0  0  0  0  0  0
   59.8790   32.1970   48.6380 C   0  0  0  0  0  0  0  0  0  0  0  0
   59.9930   30.8070   48.6500 C   0  0  0  0  0  0  0  0  0  0  0  0
   59.5990   30.0530   47.5300 C   0  0  0  0  0  0  0  0  0  0  0  0
   59.7430   28.6230   47.4940 N   0  0  0  0  0  0  0  0  0  0  0  0
   59.3940   27.6540   46.0970 S   0  0  0  0  0  0  0  0  0  0  0  0
   60.2410   26.4140   46.1280 O   0  0  0  0  0  0  0  0  0  0  0  0
   59.7290   28.4420   44.8610 O   0  0  0  0  0  0  0  0  0  0  0  0
   57.6960   27.1770   46.1030 C   0  0  0  0  0  0  0  0  0  0  0  0
   57.1110   26.1020   46.7430 C   0  0  0  0  0  0  0  0  0  0  0  0
   57.7930   25.0780   47.5900 C   0  0  0  0  0  0  0  0  0  0  0  0
   55.7960   26.0720   46.4500 N   0  0  0  0  0  0  0  0  0  0  0  0
   55.5180   27.0950   45.6550 N   0  0  0  0  0  0  0  0  0  0  0  0
   56.6530   27.7890   45.4400 C   0  0  0  0  0  0  0  0  0  0  0  0
   56.7360   28.9780   44.5380 C   0  0  0  0  0  0  0  0  0  0  0  0
   59.0530   30.7140   46.4200 C   0  0  0  0  0  0  0  0  0  0  0  0
   58.8970   32.1150   46.4110 C   0  0  0  0  0  0  0  0  0  0  0  0
   58.7232   31.4993   42.8052 H   0  0  0  0  0  0  0  0  0  0  0  0
   56.9713   31.3410   42.4412 H   0  0  0  0  0  0  0  0  0  0  0  0
   57.7458   32.9617   42.4412 H   0  0  0  0  0  0  0  0  0  0  0  0
   58.7222   34.5061   44.0951 H   0  0  0  0  0  0  0  0  0  0  0  0
   57.4634   34.7019   45.3954 H   0  0  0  0  0  0  0  0  0  0  0  0
   60.4902   34.5827   45.7331 H   0  0  0  0  0  0  0  0  0  0  0  0
   59.3819   35.9642   46.0722 H   0  0  0  0  0  0  0  0  0  0  0  0
   60.0492   34.7765   48.1562 H   0  0  0  0  0  0  0  0  0  0  0  0
   58.2800   34.6672   47.8525 H   0  0  0  0  0  0  0  0  0  0  0  0
   60.1973   32.7785   49.5158 H   0  0  0  0  0  0  0  0  0  0  0  0
   60.3929   30.2981   49.5395 H   0  0  0  0  0  0  0  0  0  0  0  0
   59.9650   28.1110   48.3770 H   0  0  0  0  0  0  0  0  0  0  0  0
   57.6344   25.3161   48.6522 H   0  0  0  0  0  0  0  0  0  0  0  0
   57.3759   24.0840   47.3708 H   0  0  0  0  0  0  0  0  0  0  0  0
   58.8709   25.0798   47.3708 H   0  0  0  0  0  0  0  0  0  0  0  0
   56.7999   29.8940   45.1437 H   0  0  0  0  0  0  0  0  0  0  0  0
   57.6305   28.8950   43.9032 H   0  0  0  0  0  0  0  0  0  0  0  0
   55.8386   29.0201   43.9032 H   0  0  0  0  0  0  0  0  0  0  0  0
   58.7413   30.1295   45.5418 H   0  0  0  0  0  0  0  0  0  0  0  0
  1  2  1  0
  2  3  2  0
  2  4  1  0
  4  5  1  0
  5  6  1  0
  6  7  1  0
  7  8  1  0
  8  9  2  0
  9 10  1  0
 10 11  2  0
 11 12  1  0
 12 13  1  0
 13 14  2  0
 13 15  2  0
 13 16  1  0
 16 17  1  0
 17 18  1  0
 17 19  2  0
 19 20  1  0
 20 21  1  0
 21 22  1  0
 11 23  1  0
 23 24  2  0
 24  4  1  0
 24  8  1  0
 21 16  2  0
  1 25  1  0
  1 26  1  0
  1 27  1  0
  5 28  1  0
  5 29  1  0
  6 30  1  0
  6 31  1  0
  7 32  1  0
  7 33  1  0
  9 34  1  0
 10 35  1  0
 12 36  1  0
 18 37  1  0
 18 38  1  0
 18 39  1  0
 22 40  1  0
 22 41  1  0
 22 42  1  0
 23 43  1  0
M  CHG  1  20  -1
M  END
>  <UniqueID>  (40) 
39

>  <SMILES>  (40) 
CC(=O)N1CCCc2ccc(NS(=O)(=O)c3c(C)n[n-]c3C)cc21

>  <Energy>  (40) 
78.89075739148203

>  <Genealogy>  (40) 
CC(=O)N1CCCc2ccc(NS(=O)(=O)c3c(C)n[n-]c3C)cc21 (protonated)
CC(=O)N1CCCc2ccc(NS(=O)(=O)c3c(C)n[n-]c3C)cc21 (3D coordinates assigned)
CC(=O)N1CCCc2ccc(NS(=O)(=O)c3c(C)n[n-]c3C)cc21 (nonaromatic ring conformer: 78.89075739148203 kcal/mol)

>  <smiles>  (40) 
CC(=O)N1CCCc2ccc(NS(=O)(=O)c3c(C)n[nH]c3C)cc21

>  <score_type>  (40) 
oracle

>  <origin>  (40) 
adg

>  <m_score__min__energy>  (40) 
-10.91

>  <m_primary>  (40) 
energy

$$$$
40:0
     RDKit          3D

 46 50  0  0  1  0  0  0  0  0999 V2000
   56.1760   23.8970   43.9490 C   0  0  0  0  0  0  0  0  0  0  0  0
   57.2740   24.7160   43.6460 C   0  0  0  0  0  0  0  0  0  0  0  0
   57.6010   25.7840   44.4860 C   0  0  0  0  0  0  0  0  0  0  0  0
   56.8160   26.0160   45.6240 C   0  0  0  0  0  0  0  0  0  0  0  0
   57.0900   27.0720   46.5270 N   0  0  0  0  0  0  0  0  0  0  0  0
   57.7500   28.2380   46.0950 C   0  0  0  0  0  0  0  0  0  0  0  0
   59.0210   28.5840   46.4730 C   0  0  0  0  0  0  0  0  0  0  0  0
   59.5870   29.7440   45.9970 C   0  0  0  0  0  0  0  0  0  0  0  0
   60.7710   30.0600   46.3680 N   0  0  0  0  0  0  0  0  0  0  0  0
   61.1370   30.7660   47.5640 C   0  0  0  0  0  0  0  0  0  0  0  0
   61.7090   32.1060   47.2740 C   0  0  0  0  0  0  0  0  0  0  0  0
   63.0110   32.4430   47.4230 N   0  0  0  0  0  0  0  0  0  0  0  0
   63.1730   33.6960   47.0730 N   0  0  0  0  0  0  0  0  0  0  0  0
   62.0170   34.1770   46.7040 N   0  0  0  0  0  0  0  0  0  0  0  0
   61.1140   33.2180   46.8220 N   0  0  0  0  0  0  0  0  0  0  0  0
   59.7440   33.4310   46.4950 C   0  0  0  0  0  0  0  0  0  0  0  0
   59.4980   33.9170   45.2140 C   0  0  0  0  0  0  0  0  0  0  0  0
   58.2190   34.1830   44.7600 C   0  0  0  0  0  0  0  0  0  0  0  0
   57.1870   33.9470   45.6330 C   0  0  0  0  0  0  0  0  0  0  0  0
   57.4310   33.4660   46.9000 C   0  0  0  0  0  0  0  0  0  0  0  0
   58.7080   33.1930   47.3740 C   0  0  0  0  0  0  0  0  0  0  0  0
   58.8770   30.5340   45.1540 N   0  0  0  0  0  0  0  0  0  0  0  0
   57.6130   30.1880   44.7810 C   0  0  0  0  0  0  0  0  0  0  0  0
   56.7240   30.8460   43.9370 C   0  0  0  0  0  0  0  0  0  0  0  0
   55.5930   30.0290   43.9270 C   0  0  0  0  0  0  0  0  0  0  0  0
   55.8420   28.9680   44.7270 N   0  0  0  0  0  0  0  0  0  0  0  0
   57.0550   29.0530   45.2460 N   0  0  0  0  0  0  0  0  0  0  0  0
   55.7410   25.1760   45.8790 C   0  0  0  0  0  0  0  0  0  0  0  0
   55.4010   24.1190   45.0670 C   0  0  0  0  0  0  0  0  0  0  0  0
   55.9283   23.0597   43.2800 H   0  0  0  0  0  0  0  0  0  0  0  0
   57.8772   24.5177   42.7478 H   0  0  0  0  0  0  0  0  0  0  0  0
   58.4602   26.4319   44.2579 H   0  0  0  0  0  0  0  0  0  0  0  0
   56.8080   27.0060   47.5290 H   0  0  0  0  0  0  0  0  0  0  0  0
   59.5881   27.9348   47.1564 H   0  0  0  0  0  0  0  0  0  0  0  0
   60.2407   30.8916   48.1892 H   0  0  0  0  0  0  0  0  0  0  0  0
   61.9076   30.1755   48.0813 H   0  0  0  0  0  0  0  0  0  0  0  0
   60.3492   34.0954   44.5404 H   0  0  0  0  0  0  0  0  0  0  0  0
   58.0373   34.5664   43.7451 H   0  0  0  0  0  0  0  0  0  0  0  0
   56.1521   34.1445   45.3168 H   0  0  0  0  0  0  0  0  0  0  0  0
   56.5749   33.2897   47.5679 H   0  0  0  0  0  0  0  0  0  0  0  0
   58.8826   32.8097   48.3902 H   0  0  0  0  0  0  0  0  0  0  0  0
   56.8777   31.7938   43.4002 H   0  0  0  0  0  0  0  0  0  0  0  0
   54.6642   30.2150   43.3678 H   0  0  0  0  0  0  0  0  0  0  0  0
   55.1480   28.1960   44.8950 H   0  0  0  0  0  0  0  0  0  0  0  0
   55.1308   25.3648   46.7746 H   0  0  0  0  0  0  0  0  0  0  0  0
   54.5414   23.4740   45.3015 H   0  0  0  0  0  0  0  0  0  0  0  0
  1  2  2  0
  2  3  1  0
  3  4  2  0
  4  5  1  0
  5  6  1  0
  6  7  2  0
  7  8  1  0
  8  9  2  0
  9 10  1  0
 10 11  1  0
 11 12  2  0
 12 13  1  0
 13 14  2  0
 14 15  1  0
 15 16  1  0
 16 17  2  0
 17 18  1  0
 18 19  2  0
 19 20  1  0
 20 21  2  0
  8 22  1  0
 22 23  2  0
 23 24  1  0
 24 25  2  0
 25 26  1  0
 26 27  1  0
  4 28  1  0
 28 29  2  0
 29  1  1  0
 27  6  1  0
 15 11  1  0
 21 16  1  0
 27 23  1  0
  1 30  1  0
  2 31  1  0
  3 32  1  0
  5 33  1  0
  7 34  1  0
 10 35  1  0
 10 36  1  0
 17 37  1  0
 18 38  1  0
 19 39  1  0
 20 40  1  0
 21 41  1  0
 24 42  1  0
 25 43  1  0
 26 44  1  0
 28 45  1  0
 29 46  1  0
M  END
>  <smiles>  (41) 
c1ccc(Nc2cc(=NCc3nnnn3-c3ccccc3)nc3cc[nH]n23)cc1

>  <score_type>  (41) 
oracle

>  <origin>  (41) 
adg

>  <m_score__min__energy>  (41) 
-9.7200000000000006

>  <m_primary>  (41) 
energy

$$$$
41:0
     RDKit          3D

 54 57  0  0  0  0  0  0  0  0999 V2000
   67.9070   28.3420   51.2090 C   0  0  0  0  0  0  0  0  0  0  0  0
   67.6480   29.6610   51.6780 O   0  0  0  0  0  0  0  0  0  0  0  0
   66.5950   30.4710   51.2280 C   0  0  0  0  0  0  0  0  0  0  0  0
   66.9090   31.6360   50.5220 C   0  0  0  0  0  0  0  0  0  0  0  0
   65.8980   32.4830   50.0600 C   0  0  0  0  0  0  0  0  0  0  0  0
   64.5460   32.1800   50.3010 C   0  0  0  0  0  0  0  0  0  0  0  0
   63.4860   33.1040   49.8220 C   0  0  0  0  0  0  0  0  0  0  0  0
   62.5090   32.7330   48.9640 N   0  0  0  0  0  0  0  0  0  0  0  0
   61.8270   33.8890   48.8080 C   0  0  0  0  0  0  0  0  0  0  0  0
   60.6740   34.0400   47.9620 N   0  0  0  0  0  0  0  0  0  0  0  0
   60.8810   34.2330   46.5190 C   0  0  0  0  0  0  0  0  0  0  0  0
   59.5650   34.1590   45.7350 C   0  0  0  0  0  0  0  0  0  0  0  0
   58.6860   33.0340   46.3070 C   0  0  0  0  0  0  0  0  0  0  0  0
   57.4850   32.7440   45.4350 C   0  0  0  0  0  0  0  0  0  0  0  0
   56.7160   33.6850   45.0900 O   0  0  0  0  0  0  0  0  0  0  0  0
   57.3270   31.4370   44.8620 N   0  0  0  0  0  0  0  0  0  0  0  0
   57.8040   30.1920   45.3950 C   0  0  0  0  0  0  0  0  0  0  0  0
   59.1210   30.0880   45.8820 C   0  0  0  0  0  0  0  0  0  0  0  0
   59.5860   28.8910   46.4250 C   0  0  0  0  0  0  0  0  0  0  0  0
   58.7520   27.7800   46.4810 C   0  0  0  0  0  0  0  0  0  0  0  0
   57.4540   27.8480   45.9680 C   0  0  0  0  0  0  0  0  0  0  0  0
   56.3530   26.2830   46.0330 Br  0  0  0  0  0  0  0  0  0  0  0  0
   56.9670   29.0430   45.4040 C   0  0  0  0  0  0  0  0  0  0  0  0
   55.6570   29.0150   44.8850 O   0  0  0  0  0  0  0  0  0  0  0  0
   55.1720   29.7310   43.7530 C   0  0  0  0  0  0  0  0  0  0  0  0
   58.2690   33.3740   47.7590 C   0  0  0  0  0  0  0  0  0  0  0  0
   59.3300   34.1730   48.5470 C   0  0  0  0  0  0  0  0  0  0  0  0
   62.3510   34.8640   49.5110 O   0  0  0  0  0  0  0  0  0  0  0  0
   63.3800   34.4070   50.1520 N   0  0  0  0  0  0  0  0  0  0  0  0
   64.2320   31.0040   51.0040 C   0  0  0  0  0  0  0  0  0  0  0  0
   65.2460   30.1560   51.4630 C   0  0  0  0  0  0  0  0  0  0  0  0
   68.0395   27.6670   52.0674 H   0  0  0  0  0  0  0  0  0  0  0  0
   67.0595   27.9969   50.5986 H   0  0  0  0  0  0  0  0  0  0  0  0
   68.8221   28.3430   50.5986 H   0  0  0  0  0  0  0  0  0  0  0  0
   67.9620   31.8884   50.3283 H   0  0  0  0  0  0  0  0  0  0  0  0
   66.1619   33.3942   49.5032 H   0  0  0  0  0  0  0  0  0  0  0  0
   61.3373   35.2203   46.3546 H   0  0  0  0  0  0  0  0  0  0  0  0
   61.5369   33.4267   46.1589 H   0  0  0  0  0  0  0  0  0  0  0  0
   59.0335   35.1182   45.8206 H   0  0  0  0  0  0  0  0  0  0  0  0
   59.7815   33.9511   44.6768 H   0  0  0  0  0  0  0  0  0  0  0  0
   59.2841   32.1109   46.3202 H   0  0  0  0  0  0  0  0  0  0  0  0
   59.7898   30.9600   45.8336 H   0  0  0  0  0  0  0  0  0  0  0  0
   60.6144   28.8255   46.8097 H   0  0  0  0  0  0  0  0  0  0  0  0
   59.1152   26.8442   46.9307 H   0  0  0  0  0  0  0  0  0  0  0  0
   54.5850   30.5976   44.0912 H   0  0  0  0  0  0  0  0  0  0  0  0
   56.0219   30.0778   43.1468 H   0  0  0  0  0  0  0  0  0  0  0  0
   54.5346   29.0704   43.1468 H   0  0  0  0  0  0  0  0  0  0  0  0
   57.3444   33.9689   47.7230 H   0  0  0  0  0  0  0  0  0  0  0  0
   58.1368   32.4167   48.2844 H   0  0  0  0  0  0  0  0  0  0  0  0
   59.0465   35.2358   48.5453 H   0  0  0  0  0  0  0  0  0  0  0  0
   59.3655   33.7698   49.5698 H   0  0  0  0  0  0  0  0  0  0  0  0
   63.9870   34.9760   50.7820 H   0  0  0  0  0  0  0  0  0  0  0  0
   63.1794   30.7480   51.1951 H   0  0  0  0  0  0  0  0  0  0  0  0
   64.9857   29.2382   52.0106 H   0  0  0  0  0  0  0  0  0  0  0  0
  1  2  1  0
  2  3  1  0
  3  4  2  0
  4  5  1  0
  5  6  2  0
  6  7  1  0
  7  8  1  0
  8  9  2  0
  9 10  1  0
 10 11  1  0
 11 12  1  0
 12 13  1  0
 13 14  1  0
 14 15  2  0
 14 16  1  0
 16 17  1  0
 17 18  2  0
 18 19  1  0
 19 20  2  0
 20 21  1  0
 21 22  1  0
 21 23  2  0
 23 24  1  0
 24 25  1  0
 13 26  1  0
 26 27  1  0
  9 28  1  0
 28 29  1  0
  6 30  1  0
 30 31  2  0
 31  3  1  0
 29  7  2  0
 27 10  1  0
 23 17  1  0
  1 32  1  0
  1 33  1  0
  1 34  1  0
  4 35  1  0
  5 36  1  0
 11 37  1  0
 11 38  1  0
 12 39  1  0
 12 40  1  0
 13 41  1  0
 18 42  1  0
 19 43  1  0
 20 44  1  0
 25 45  1  0
 25 46  1  0
 25 47  1  0
 26 48  1  0
 26 49  1  0
 27 50  1  0
 27 51  1  0
 29 52  1  0
 30 53  1  0
 31 54  1  0
M  CHG  2  16  -1  29   1
M  END
>  <UniqueID>  (42) 
40

>  <SMILES>  (42) 
COc1ccc(-c2nc(N3CCC(C(=O)[N-]c4cccc(Br)c4OC)CC3)o[nH+]2)cc1

>  <Energy>  (42) 
102.10608655561175

>  <Genealogy>  (42) 
COc1ccc(-c2nc(N3CCC(C(=O)[N-]c4cccc(Br)c4OC)CC3)o[nH+]2)cc1 (protonated)
COc1ccc(-c2nc(N3CCC(C(=O)[N-]c4cccc(Br)c4OC)CC3)o[nH+]2)cc1 (3D coordinates assigned)
COc1ccc(-c2nc(N3CCC(C(=O)[N-]c4cccc(Br)c4OC)CC3)o[nH+]2)cc1 (nonaromatic ring conformer: 102.10608655561175 kcal/mol)

>  <smiles>  (42) 
COc1ccc(-c2noc(N3CCC(C(=O)Nc4cccc(Br)c4OC)CC3)n2)cc1

>  <score_type>  (42) 
oracle

>  <origin>  (42) 
adg

>  <m_score__min__energy>  (42) 
-8.9700000000000006

>  <m_primary>  (42) 
energy

$$$$
42:0
     RDKit          3D

 31 33  0  0  0  0  0  0  0  0999 V2000
   58.5900   32.1000   49.6610 N   0  0  0  0  0  0  0  0  0  0  0  0
   58.5150   32.2370   48.5140 C   0  0  0  0  0  0  0  0  0  0  0  0
   58.4280   32.4080   47.0830 C   0  0  0  0  0  0  0  0  0  0  0  0
   57.7900   31.4430   46.3740 N   0  0  0  0  0  0  0  0  0  0  0  0
   57.6590   31.5170   45.0290 C   0  0  0  0  0  0  0  0  0  0  0  0
   56.9930   30.5020   44.3330 C   0  0  0  0  0  0  0  0  0  0  0  0
   56.8580   30.5800   42.9440 C   0  0  0  0  0  0  0  0  0  0  0  0
   57.3860   31.6700   42.2480 C   0  0  0  0  0  0  0  0  0  0  0  0
   58.0530   32.6880   42.9370 C   0  0  0  0  0  0  0  0  0  0  0  0
   58.1950   32.6180   44.3360 C   0  0  0  0  0  0  0  0  0  0  0  0
   58.8550   33.6140   45.0770 C   0  0  0  0  0  0  0  0  0  0  0  0
   59.3430   34.6120   44.4750 O   0  0  0  0  0  0  0  0  0  0  0  0
   58.9680   33.5030   46.4450 N   0  0  0  0  0  0  0  0  0  0  0  0
   59.6410   34.5670   47.2230 C   0  0  0  0  0  0  0  0  0  0  0  0
   61.0690   34.1870   47.5270 C   0  0  0  0  0  0  0  0  0  0  0  0
   61.9440   33.8290   46.4870 C   0  0  0  0  0  0  0  0  0  0  0  0
   63.2690   33.4800   46.7680 C   0  0  0  0  0  0  0  0  0  0  0  0
   63.7290   33.4800   48.0870 C   0  0  0  0  0  0  0  0  0  0  0  0
   62.8640   33.8260   49.1280 C   0  0  0  0  0  0  0  0  0  0  0  0
   61.5390   34.1770   48.8520 C   0  0  0  0  0  0  0  0  0  0  0  0
   56.5758   29.6430   44.8789 H   0  0  0  0  0  0  0  0  0  0  0  0
   56.3348   29.7813   42.3977 H   0  0  0  0  0  0  0  0  0  0  0  0
   57.2769   31.7278   41.1550 H   0  0  0  0  0  0  0  0  0  0  0  0
   58.4673   33.5446   42.3851 H   0  0  0  0  0  0  0  0  0  0  0  0
   59.6324   35.5000   46.6404 H   0  0  0  0  0  0  0  0  0  0  0  0
   59.1028   34.7034   48.1726 H   0  0  0  0  0  0  0  0  0  0  0  0
   61.5851   33.8232   45.4472 H   0  0  0  0  0  0  0  0  0  0  0  0
   63.9499   33.2051   45.9490 H   0  0  0  0  0  0  0  0  0  0  0  0
   64.7720   33.2076   48.3059 H   0  0  0  0  0  0  0  0  0  0  0  0
   63.2260   33.8223   50.1667 H   0  0  0  0  0  0  0  0  0  0  0  0
   60.8612   34.4466   49.6754 H   0  0  0  0  0  0  0  0  0  0  0  0
  1  2  3  0
  2  3  1  0
  3  4  2  0
  4  5  1  0
  5  6  2  0
  6  7  1  0
  7  8  2  0
  8  9  1  0
  9 10  2  0
 10 11  1  0
 11 12  2  0
 11 13  1  0
 13 14  1  0
 14 15  1  0
 15 16  2  0
 16 17  1  0
 17 18  2  0
 18 19  1  0
 19 20  2  0
 13  3  1  0
 20 15  1  0
 10  5  1  0
  6 21  1  0
  7 22  1  0
  8 23  1  0
  9 24  1  0
 14 25  1  0
 14 26  1  0
 16 27  1  0
 17 28  1  0
 18 29  1  0
 19 30  1  0
 20 31  1  0
M  END
>  <UniqueID>  (43) 
41

>  <SMILES>  (43) 
N#Cc1nc2ccccc2c(=O)n1Cc1ccccc1

>  <Energy>  (43) 
41.549697824996024

>  <Genealogy>  (43) 
N#Cc1nc2ccccc2c(=O)n1Cc1ccccc1 (3D coordinates assigned)
N#Cc1nc2ccccc2c(=O)n1Cc1ccccc1 (optimized conformer: 41.549697824996024 kcal/mol)

>  <smiles>  (43) 
N#Cc1nc2ccccc2c(=O)n1Cc1ccccc1

>  <score_type>  (43) 
oracle

>  <origin>  (43) 
adg

>  <m_score__min__energy>  (43) 
-7.1799999999999997

>  <m_primary>  (43) 
energy

$$$$
43:0
     RDKit          3D

 28 30  0  0  0  0  0  0  0  0999 V2000
   64.8250   33.0920   49.6650 Br  0  0  0  0  0  0  0  0  0  0  0  0
   63.2670   33.3660   48.5930 C   0  0  0  0  0  0  0  0  0  0  0  0
   63.3770   33.4210   47.2000 C   0  0  0  0  0  0  0  0  0  0  0  0
   62.2380   33.6220   46.4140 C   0  0  0  0  0  0  0  0  0  0  0  0
   60.9780   33.7820   47.0160 C   0  0  0  0  0  0  0  0  0  0  0  0
   59.7870   34.0040   46.1710 C   0  0  0  0  0  0  0  0  0  0  0  0
   59.6390   35.0710   45.3600 N   0  0  0  0  0  0  0  0  0  0  0  0
   58.4640   34.9750   44.8070 O   0  0  0  0  0  0  0  0  0  0  0  0
   57.8240   33.9050   45.2180 C   0  0  0  0  0  0  0  0  0  0  0  0
   58.6350   33.2390   46.1050 C   0  0  0  0  0  0  0  0  0  0  0  0
   58.1860   31.7880   47.0610 S   0  0  0  0  0  0  0  0  0  0  0  0
   57.7580   30.8500   45.5990 C   0  0  0  0  0  0  0  0  0  0  0  0
   58.5260   29.7420   45.2210 C   0  0  0  0  0  0  0  0  0  0  0  0
   58.1640   29.0200   44.0820 C   0  0  0  0  0  0  0  0  0  0  0  0
   57.0500   29.4100   43.3360 C   0  0  0  0  0  0  0  0  0  0  0  0
   56.3120   30.5240   43.7430 C   0  0  0  0  0  0  0  0  0  0  0  0
   56.6780   31.2150   44.8560 N   0  0  0  0  0  0  0  0  0  0  0  0
   60.8750   33.7050   48.4160 C   0  0  0  0  0  0  0  0  0  0  0  0
   62.0150   33.5040   49.1990 C   0  0  0  0  0  0  0  0  0  0  0  0
   64.3609   33.3060   46.7218 H   0  0  0  0  0  0  0  0  0  0  0  0
   62.3287   33.6551   45.3182 H   0  0  0  0  0  0  0  0  0  0  0  0
   56.8153   33.5958   44.9068 H   0  0  0  0  0  0  0  0  0  0  0  0
   59.4034   29.4441   45.8138 H   0  0  0  0  0  0  0  0  0  0  0  0
   58.7554   28.1455   43.7729 H   0  0  0  0  0  0  0  0  0  0  0  0
   56.7569   28.8464   42.4380 H   0  0  0  0  0  0  0  0  0  0  0  0
   55.4337   30.8429   43.1626 H   0  0  0  0  0  0  0  0  0  0  0  0
   59.8912   33.8036   48.8980 H   0  0  0  0  0  0  0  0  0  0  0  0
   61.9268   33.4543   50.2943 H   0  0  0  0  0  0  0  0  0  0  0  0
  1  2  1  0
  2  3  2  0
  3  4  1  0
  4  5  2  0
  5  6  1  0
  6  7  2  0
  7  8  1  0
  8  9  1  0
  9 10  2  0
 10 11  1  0
 11 12  1  0
 12 13  2  0
 13 14  1  0
 14 15  2  0
 15 16  1  0
 16 17  2  0
  5 18  1  0
 18 19  2  0
 19  2  1  0
 10  6  1  0
 17 12  1  0
  3 20  1  0
  4 21  1  0
  9 22  1  0
 13 23  1  0
 14 24  1  0
 15 25  1  0
 16 26  1  0
 18 27  1  0
 19 28  1  0
M  END
>  <UniqueID>  (44) 
42

>  <SMILES>  (44) 
Brc1ccc(-c2nocc2Sc2ccccn2)cc1

>  <Energy>  (44) 
61.3297587923459

>  <Genealogy>  (44) 
Brc1ccc(-c2nocc2Sc2ccccn2)cc1 (3D coordinates assigned)
Brc1ccc(-c2nocc2Sc2ccccn2)cc1 (optimized conformer: 61.3297587923459 kcal/mol)

>  <smiles>  (44) 
Brc1ccc(-c2nocc2Sc2ccccn2)cc1

>  <score_type>  (44) 
oracle

>  <origin>  (44) 
adg

>  <m_score__min__energy>  (44) 
-8.0600000000000005

>  <m_primary>  (44) 
energy

$$$$
