0:0
     RDKit          3D

 36 37  0  0  0  0  0  0  0  0999 V2000
   58.4300   23.6740   46.0860 C   0  0  0  0  0  0  0  0  0  0  0  0
   58.0050   25.0540   45.7380 C   0  0  0  0  0  0  0  0  0  0  0  0
   57.4870   25.9380   46.6650 C   0  0  0  0  0  0  0  0  0  0  0  0
   57.0970   27.2300   46.3070 C   0  0  0  0  0  0  0  0  0  0  0  0
   57.2310   27.6340   44.9940 C   0  0  0  0  0  0  0  0  0  0  0  0
   56.8530   28.9600   44.5220 C   0  0  0  0  0  0  0  0  0  0  0  0
   56.1360   29.7330   45.2450 O   0  0  0  0  0  0  0  0  0  0  0  0
   57.2400   29.4730   43.2640 N   0  0  0  0  0  0  0  0  0  0  0  0
   56.7930   30.8100   42.9200 C   0  0  0  0  0  0  0  0  0  0  0  0
   57.6470   31.8540   43.5320 C   0  0  0  0  0  0  0  0  0  0  0  0
   58.4800   32.5440   42.8900 O   0  0  0  0  0  0  0  0  0  0  0  0
   57.5050   32.0730   44.9310 N   0  0  0  0  0  0  0  0  0  0  0  0
   58.3510   33.0940   45.4920 C   0  0  0  0  0  0  0  0  0  0  0  0
   58.4340   34.3570   44.9510 C   0  0  0  0  0  0  0  0  0  0  0  0
   59.2510   35.3290   45.4970 C   0  0  0  0  0  0  0  0  0  0  0  0
   59.9830   34.9970   46.6050 C   0  0  0  0  0  0  0  0  0  0  0  0
   59.9450   33.7440   47.1990 C   0  0  0  0  0  0  0  0  0  0  0  0
   59.1130   32.8150   46.6100 C   0  0  0  0  0  0  0  0  0  0  0  0
   58.9890   31.0570   47.3540 Br  0  0  0  0  0  0  0  0  0  0  0  0
   57.7510   26.7320   44.0870 C   0  0  0  0  0  0  0  0  0  0  0  0
   58.1410   25.4550   44.4250 C   0  0  0  0  0  0  0  0  0  0  0  0
   58.4634   23.5656   47.1801 H   0  0  0  0  0  0  0  0  0  0  0  0
   57.7123   22.9529   45.6678 H   0  0  0  0  0  0  0  0  0  0  0  0
   59.4290   23.4816   45.6678 H   0  0  0  0  0  0  0  0  0  0  0  0
   57.3792   25.6158   47.7112 H   0  0  0  0  0  0  0  0  0  0  0  0
   56.6880   27.9174   47.0621 H   0  0  0  0  0  0  0  0  0  0  0  0
   57.8290   28.8940   42.6180 H   0  0  0  0  0  0  0  0  0  0  0  0
   56.8214   30.9238   41.8263 H   0  0  0  0  0  0  0  0  0  0  0  0
   55.7709   30.9369   43.3062 H   0  0  0  0  0  0  0  0  0  0  0  0
   56.8320   31.5360   45.5310 H   0  0  0  0  0  0  0  0  0  0  0  0
   57.8345   34.5990   44.0610 H   0  0  0  0  0  0  0  0  0  0  0  0
   59.3109   36.3350   45.0562 H   0  0  0  0  0  0  0  0  0  0  0  0
   60.6356   35.7640   47.0476 H   0  0  0  0  0  0  0  0  0  0  0  0
   60.5447   33.5048   48.0896 H   0  0  0  0  0  0  0  0  0  0  0  0
   57.8595   27.0500   43.0396 H   0  0  0  0  0  0  0  0  0  0  0  0
   58.5508   24.7717   43.6667 H   0  0  0  0  0  0  0  0  0  0  0  0
  1  2  1  0
  2  3  2  0
  3  4  1  0
  4  5  2  0
  5  6  1  0
  6  7  2  0
  6  8  1  0
  8  9  1  0
  9 10  1  0
 10 11  2  0
 10 12  1  0
 12 13  1  0
 13 14  2  0
 14 15  1  0
 15 16  2  0
 16 17  1  0
 17 18  2  0
 18 19  1  0
  5 20  1  0
 20 21  2  0
 21  2  1  0
 18 13  1  0
  1 22  1  0
  1 23  1  0
  1 24  1  0
  3 25  1  0
  4 26  1  0
  8 27  1  0
  9 28  1  0
  9 29  1  0
 12 30  1  0
 14 31  1  0
 15 32  1  0
 16 33  1  0
 17 34  1  0
 20 35  1  0
 21 36  1  0
M  END
>  <smiles>  (1) 
Cc1ccc(C(=O)NCC(=O)Nc2ccccc2Br)cc1

>  <score_type>  (1) 
oracle

>  <origin>  (1) 
adg

>  <m_score__min__energy>  (1) 
-7.2199999999999998

>  <m_primary>  (1) 
energy

$$$$
1:0
     RDKit          3D

 20 21  0  0  0  0  0  0  0  0999 V2000
   56.6400   30.5350   42.7400 C   0  0  0  0  0  0  0  0  0  0  0  0
   57.3940   31.5630   42.2130 C   0  0  0  0  0  0  0  0  0  0  0  0
   57.9690   32.4320   43.1340 C   0  0  0  0  0  0  0  0  0  0  0  0
   57.8000   32.2830   44.4960 C   0  0  0  0  0  0  0  0  0  0  0  0
   58.3880   33.1750   45.4830 C   0  0  0  0  0  0  0  0  0  0  0  0
   59.0550   34.2880   45.0270 C   0  0  0  0  0  0  0  0  0  0  0  0
   59.6290   35.1630   45.9540 C   0  0  0  0  0  0  0  0  0  0  0  0
   59.5220   34.9060   47.2690 N   0  0  0  0  0  0  0  0  0  0  0  0
   58.8810   33.8320   47.7680 C   0  0  0  0  0  0  0  0  0  0  0  0
   58.3120   32.9650   46.8430 C   0  0  0  0  0  0  0  0  0  0  0  0
   57.0550   31.2610   44.9400 N   0  0  0  0  0  0  0  0  0  0  0  0
   56.4600   30.3690   44.0940 C   0  0  0  0  0  0  0  0  0  0  0  0
   56.1646   29.8208   42.0516 H   0  0  0  0  0  0  0  0  0  0  0  0
   57.5322   31.6879   41.1289 H   0  0  0  0  0  0  0  0  0  0  0  0
   58.5805   33.2682   42.7639 H   0  0  0  0  0  0  0  0  0  0  0  0
   59.1357   34.4869   43.9481 H   0  0  0  0  0  0  0  0  0  0  0  0
   60.1663   36.0585   45.6085 H   0  0  0  0  0  0  0  0  0  0  0  0
   58.8115   33.6506   48.8507 H   0  0  0  0  0  0  0  0  0  0  0  0
   57.7796   32.0755   47.2110 H   0  0  0  0  0  0  0  0  0  0  0  0
   55.8526   29.5394   44.4850 H   0  0  0  0  0  0  0  0  0  0  0  0
  1  2  2  0
  2  3  1  0
  3  4  2  0
  4  5  1  0
  5  6  2  0
  6  7  1  0
  7  8  2  0
  8  9  1  0
  9 10  2  0
  4 11  1  0
 11 12  2  0
 12  1  1  0
 10  5  1  0
  1 13  1  0
  2 14  1  0
  3 15  1  0
  6 16  1  0
  7 17  1  0
  9 18  1  0
 10 19  1  0
 12 20  1  0
M  END
>  <smiles>  (2) 
c1ccc(-c2ccncc2)nc1

>  <score_type>  (2) 
oracle

>  <origin>  (2) 
adg

>  <m_score__min__energy>  (2) 
-5.7199999999999998

>  <m_primary>  (2) 
energy

$$$$
2:0
     RDKit          3D

 32 34  0  0  0  0  0  0  0  0999 V2000
   55.2390   24.6300   45.5860 C   0  0  0  0  0  0  0  0  0  0  0  0
   55.4700   25.9550   45.9980 O   0  0  0  0  0  0  0  0  0  0  0  0
   56.6280   26.6160   45.6460 C   0  0  0  0  0  0  0  0  0  0  0  0
   57.7380   25.8940   45.2530 C   0  0  0  0  0  0  0  0  0  0  0  0
   58.9020   26.4690   44.8960 N   0  0  0  0  0  0  0  0  0  0  0  0
   59.0130   27.8060   44.9140 C   0  0  0  0  0  0  0  0  0  0  0  0
   57.9380   28.6120   45.3010 C   0  0  0  0  0  0  0  0  0  0  0  0
   58.1370   30.0390   45.2940 C   0  0  0  0  0  0  0  0  0  0  0  0
   58.9280   30.7060   46.2170 C   0  0  0  0  0  0  0  0  0  0  0  0
   58.8820   32.0590   45.9000 C   0  0  0  0  0  0  0  0  0  0  0  0
   59.4850   33.1490   46.4910 C   0  0  0  0  0  0  0  0  0  0  0  0
   59.2880   34.4320   45.9860 C   0  0  0  0  0  0  0  0  0  0  0  0
   58.4720   34.5760   44.8780 C   0  0  0  0  0  0  0  0  0  0  0  0
   57.8700   33.4690   44.2900 C   0  0  0  0  0  0  0  0  0  0  0  0
   58.0570   32.1930   44.7790 C   0  0  0  0  0  0  0  0  0  0  0  0
   57.6340   30.9590   44.4530 N   0  0  0  0  0  0  0  0  0  0  0  0
   56.7420   30.6850   43.3230 C   0  0  0  0  0  0  0  0  0  0  0  0
   56.7600   27.9890   45.6600 C   0  0  0  0  0  0  0  0  0  0  0  0
   55.1266   23.9854   46.4702 H   0  0  0  0  0  0  0  0  0  0  0  0
   54.3201   24.5885   44.9828 H   0  0  0  0  0  0  0  0  0  0  0  0
   56.0897   24.2800   44.9828 H   0  0  0  0  0  0  0  0  0  0  0  0
   57.6677   24.7965   45.2306 H   0  0  0  0  0  0  0  0  0  0  0  0
   59.9636   28.2749   44.6200 H   0  0  0  0  0  0  0  0  0  0  0  0
   59.4881   30.2494   47.0463 H   0  0  0  0  0  0  0  0  0  0  0  0
   60.1288   33.0037   47.3710 H   0  0  0  0  0  0  0  0  0  0  0  0
   59.7669   35.3047   46.4541 H   0  0  0  0  0  0  0  0  0  0  0  0
   58.2975   35.5774   44.4575 H   0  0  0  0  0  0  0  0  0  0  0  0
   57.2264   33.6151   43.4100 H   0  0  0  0  0  0  0  0  0  0  0  0
   55.7544   30.3816   43.7006 H   0  0  0  0  0  0  0  0  0  0  0  0
   56.6373   31.5924   42.7101 H   0  0  0  0  0  0  0  0  0  0  0  0
   57.1648   29.8753   42.7101 H   0  0  0  0  0  0  0  0  0  0  0  0
   55.9017   28.6051   45.9661 H   0  0  0  0  0  0  0  0  0  0  0  0
  1  2  1  0
  2  3  1  0
  3  4  2  0
  4  5  1  0
  5  6  2  0
  6  7  1  0
  7  8  1  0
  8  9  2  0
  9 10  1  0
 10 11  2  0
 11 12  1  0
 12 13  2  0
 13 14  1  0
 14 15  2  0
 15 16  1  0
 16 17  1  0
  7 18  2  0
 18  3  1  0
 16  8  1  0
 15 10  1  0
  1 19  1  0
  1 20  1  0
  1 21  1  0
  4 22  1  0
  6 23  1  0
  9 24  1  0
 11 25  1  0
 12 26  1  0
 13 27  1  0
 14 28  1  0
 17 29  1  0
 17 30  1  0
 17 31  1  0
 18 32  1  0
M  END
>  <smiles>  (3) 
COc1cncc(-c2cc3ccccc3n2C)c1

>  <score_type>  (3) 
oracle

>  <origin>  (3) 
adg

>  <m_score__min__energy>  (3) 
-6.5300000000000002

>  <m_primary>  (3) 
energy

$$$$
3:0
     RDKit          3D

 51 54  0  0  0  0  0  0  0  0999 V2000
   54.7050   23.7190   44.5030 C   0  0  0  0  0  0  0  0  0  0  0  0
   54.5300   24.6950   45.6440 C   0  0  0  0  0  0  0  0  0  0  0  0
   55.7480   25.1890   46.1950 N   0  0  0  0  0  0  0  0  0  0  0  0
   56.2410   24.4740   47.3310 C   0  0  0  0  0  0  0  0  0  0  0  0
   55.3490   23.2800   47.6870 C   0  0  0  0  0  0  0  0  0  0  0  0
   56.7550   25.5510   45.2460 C   0  0  0  0  0  0  0  0  0  0  0  0
   57.4390   26.7790   45.7000 C   0  0  0  0  0  0  0  0  0  0  0  0
   58.4810   26.6310   46.6220 C   0  0  0  0  0  0  0  0  0  0  0  0
   59.1580   27.7650   47.0790 C   0  0  0  0  0  0  0  0  0  0  0  0
   58.7860   28.9690   46.6180 N   0  0  0  0  0  0  0  0  0  0  0  0
   59.3110   30.1810   46.9340 C   0  0  0  0  0  0  0  0  0  0  0  0
   60.4090   30.4330   47.8630 C   0  0  0  0  0  0  0  0  0  0  0  0
   61.5850   31.0470   47.4920 C   0  0  0  0  0  0  0  0  0  0  0  0
   62.5360   31.2200   48.4800 C   0  0  0  0  0  0  0  0  0  0  0  0
   62.3620   30.8230   49.7520 N   0  0  0  0  0  0  0  0  0  0  0  0
   61.2110   30.2140   50.1410 C   0  0  0  0  0  0  0  0  0  0  0  0
   60.2140   30.0140   49.1840 C   0  0  0  0  0  0  0  0  0  0  0  0
   59.0750   29.4080   49.5780 F   0  0  0  0  0  0  0  0  0  0  0  0
   58.5990   31.1380   46.2060 C   0  0  0  0  0  0  0  0  0  0  0  0
   58.8790   32.5670   46.2840 C   0  0  0  0  0  0  0  0  0  0  0  0
   58.9560   33.2460   45.0620 C   0  0  0  0  0  0  0  0  0  0  0  0
   59.2140   34.6030   45.0350 C   0  0  0  0  0  0  0  0  0  0  0  0
   59.3930   35.2650   46.2300 C   0  0  0  0  0  0  0  0  0  0  0  0
   59.6440   36.5960   46.1670 F   0  0  0  0  0  0  0  0  0  0  0  0
   59.3220   34.6100   47.4620 C   0  0  0  0  0  0  0  0  0  0  0  0
   59.0600   33.2410   47.4730 C   0  0  0  0  0  0  0  0  0  0  0  0
   57.6780   30.4760   45.4820 N   0  0  0  0  0  0  0  0  0  0  0  0
   57.7900   29.1470   45.7310 C   0  0  0  0  0  0  0  0  0  0  0  0
   57.0820   28.0500   45.2450 C   0  0  0  0  0  0  0  0  0  0  0  0
   54.8856   22.7117   44.9065 H   0  0  0  0  0  0  0  0  0  0  0  0
   53.7943   23.7090   43.8861 H   0  0  0  0  0  0  0  0  0  0  0  0
   55.5624   24.0260   43.8861 H   0  0  0  0  0  0  0  0  0  0  0  0
   53.9476   25.5524   45.2757 H   0  0  0  0  0  0  0  0  0  0  0  0
   54.0242   24.1439   46.4505 H   0  0  0  0  0  0  0  0  0  0  0  0
   57.2537   24.1071   47.1080 H   0  0  0  0  0  0  0  0  0  0  0  0
   56.2480   25.1617   48.1895 H   0  0  0  0  0  0  0  0  0  0  0  0
   55.2798   23.1873   48.7809 H   0  0  0  0  0  0  0  0  0  0  0  0
   54.3439   23.4353   47.2678 H   0  0  0  0  0  0  0  0  0  0  0  0
   55.7830   22.3602   47.2678 H   0  0  0  0  0  0  0  0  0  0  0  0
   57.4869   24.7345   45.1582 H   0  0  0  0  0  0  0  0  0  0  0  0
   56.2884   25.7314   44.2663 H   0  0  0  0  0  0  0  0  0  0  0  0
   58.7646   25.6316   46.9837 H   0  0  0  0  0  0  0  0  0  0  0  0
   59.9807   27.6723   47.8033 H   0  0  0  0  0  0  0  0  0  0  0  0
   61.7588   31.3834   46.4592 H   0  0  0  0  0  0  0  0  0  0  0  0
   63.4845   31.7080   48.2111 H   0  0  0  0  0  0  0  0  0  0  0  0
   61.0686   29.8874   51.1817 H   0  0  0  0  0  0  0  0  0  0  0  0
   58.8105   32.6970   44.1200 H   0  0  0  0  0  0  0  0  0  0  0  0
   59.2752   35.1438   44.0791 H   0  0  0  0  0  0  0  0  0  0  0  0
   59.4695   35.1621   48.4019 H   0  0  0  0  0  0  0  0  0  0  0  0
   58.9978   32.6995   48.4284 H   0  0  0  0  0  0  0  0  0  0  0  0
   56.2635   28.1816   44.5220 H   0  0  0  0  0  0  0  0  0  0  0  0
  1  2  1  0
  2  3  1  0
  3  4  1  0
  4  5  1  0
  3  6  1  0
  6  7  1  0
  7  8  1  0
  8  9  2  0
  9 10  1  0
 10 11  1  0
 11 12  1  0
 12 13  2  0
 13 14  1  0
 14 15  2  0
 15 16  1  0
 16 17  2  0
 17 18  1  0
 11 19  2  0
 19 20  1  0
 20 21  2  0
 21 22  1  0
 22 23  2  0
 23 24  1  0
 23 25  1  0
 25 26  2  0
 19 27  1  0
 27 28  2  0
 28 29  1  0
 29  7  2  0
 28 10  1  0
 17 12  1  0
 26 20  1  0
  1 30  1  0
  1 31  1  0
  1 32  1  0
  2 33  1  0
  2 34  1  0
  4 35  1  0
  4 36  1  0
  5 37  1  0
  5 38  1  0
  5 39  1  0
  6 40  1  0
  6 41  1  0
  8 42  1  0
  9 43  1  0
 13 44  1  0
 14 45  1  0
 16 46  1  0
 21 47  1  0
 22 48  1  0
 25 49  1  0
 26 50  1  0
 29 51  1  0
M  END
>  <smiles>  (4) 
CCN(CC)Cc1ccn2c(-c3ccncc3F)c(-c3ccc(F)cc3)nc2c1

>  <score_type>  (4) 
oracle

>  <origin>  (4) 
adg

>  <m_score__min__energy>  (4) 
-7.3399999999999999

>  <m_primary>  (4) 
energy

$$$$
4:0
     RDKit          3D

 39 41  0  0  1  0  0  0  0  0999 V2000
   56.0150   24.0100   44.1270 C   0  0  0  0  0  0  0  0  0  0  0  0
   55.3690   24.0770   45.4980 C   0  0  0  0  0  0  0  0  0  0  0  0
   55.0630   25.4760   45.8020 N   0  0  0  0  0  0  0  0  0  0  0  0
   55.9990   26.3260   46.0190 C   0  0  0  0  0  0  0  0  0  0  0  0
   57.0660   25.9100   46.7980 C   0  0  0  0  0  0  0  0  0  0  0  0
   58.0630   26.8020   47.0350 C   0  0  0  0  0  0  0  0  0  0  0  0
   58.0180   28.0850   46.5170 C   0  0  0  0  0  0  0  0  0  0  0  0
   59.0240   28.9950   46.7530 C   0  0  0  0  0  0  0  0  0  0  0  0
   58.9860   30.2840   46.2360 C   0  0  0  0  0  0  0  0  0  0  0  0
   60.1090   31.1560   46.5550 C   0  0  0  0  0  0  0  0  0  0  0  0
   61.3080   30.6280   47.0200 C   0  0  0  0  0  0  0  0  0  0  0  0
   62.3760   31.4480   47.3240 C   0  0  0  0  0  0  0  0  0  0  0  0
   62.2680   32.8140   47.1720 C   0  0  0  0  0  0  0  0  0  0  0  0
   63.2980   33.7000   47.4580 O   0  0  0  0  0  0  0  0  0  0  0  0
   64.1350   33.3620   48.5510 C   0  0  0  0  0  0  0  0  0  0  0  0
   61.0760   33.3370   46.7110 C   0  0  0  0  0  0  0  0  0  0  0  0
   59.9910   32.5430   46.3970 C   0  0  0  0  0  0  0  0  0  0  0  0
   57.9150   30.6830   45.4630 C   0  0  0  0  0  0  0  0  0  0  0  0
   56.9160   29.7600   45.2370 C   0  0  0  0  0  0  0  0  0  0  0  0
   56.9440   28.4750   45.7440 C   0  0  0  0  0  0  0  0  0  0  0  0
   55.9560   27.5790   45.5150 N   0  0  0  0  0  0  0  0  0  0  0  0
   57.1034   23.8971   44.2396 H   0  0  0  0  0  0  0  0  0  0  0  0
   55.6124   23.1488   43.5736 H   0  0  0  0  0  0  0  0  0  0  0  0
   55.7977   24.9355   43.5736 H   0  0  0  0  0  0  0  0  0  0  0  0
   54.4414   23.4858   45.4999 H   0  0  0  0  0  0  0  0  0  0  0  0
   56.0532   23.6685   46.2563 H   0  0  0  0  0  0  0  0  0  0  0  0
   57.1049   24.8912   47.2111 H   0  0  0  0  0  0  0  0  0  0  0  0
   58.9228   26.4988   47.6505 H   0  0  0  0  0  0  0  0  0  0  0  0
   59.8834   28.6924   47.3693 H   0  0  0  0  0  0  0  0  0  0  0  0
   61.4072   29.5399   47.1477 H   0  0  0  0  0  0  0  0  0  0  0  0
   63.3167   31.0099   47.6889 H   0  0  0  0  0  0  0  0  0  0  0  0
   63.6100   33.5740   49.4941 H   0  0  0  0  0  0  0  0  0  0  0  0
   64.3859   32.2921   48.5035 H   0  0  0  0  0  0  0  0  0  0  0  0
   65.0585   33.9577   48.5035 H   0  0  0  0  0  0  0  0  0  0  0  0
   60.9876   34.4267   46.5894 H   0  0  0  0  0  0  0  0  0  0  0  0
   59.0547   32.9895   46.0309 H   0  0  0  0  0  0  0  0  0  0  0  0
   57.8603   31.6983   45.0432 H   0  0  0  0  0  0  0  0  0  0  0  0
   56.0545   30.0614   44.6230 H   0  0  0  0  0  0  0  0  0  0  0  0
   55.1450   27.8510   44.9400 H   0  0  0  0  0  0  0  0  0  0  0  0
  1  2  1  0
  2  3  1  0
  3  4  2  0
  4  5  1  0
  5  6  2  0
  6  7  1  0
  7  8  2  0
  8  9  1  0
  9 10  1  0
 10 11  2  0
 11 12  1  0
 12 13  2  0
 13 14  1  0
 14 15  1  0
 13 16  1  0
 16 17  2  0
  9 18  2  0
 18 19  1  0
 19 20  2  0
 20 21  1  0
 21  4  1  0
 20  7  1  0
 17 10  1  0
  1 22  1  0
  1 23  1  0
  1 24  1  0
  2 25  1  0
  2 26  1  0
  5 27  1  0
  6 28  1  0
  8 29  1  0
 11 30  1  0
 12 31  1  0
 15 32  1  0
 15 33  1  0
 15 34  1  0
 16 35  1  0
 17 36  1  0
 18 37  1  0
 19 38  1  0
 21 39  1  0
M  END
>  <smiles>  (5) 
CCN=c1ccc2cc(-c3ccc(OC)cc3)ccc2[nH]1

>  <score_type>  (5) 
oracle

>  <origin>  (5) 
adg

>  <m_score__min__energy>  (5) 
-6.7000000000000002

>  <m_primary>  (5) 
energy

$$$$
5:0
     RDKit          3D

 29 30  0  0  0  0  0  0  0  0999 V2000
   56.6150   29.7290   43.3060 C   0  0  0  0  0  0  0  0  0  0  0  0
   56.3030   30.4450   44.4970 O   0  0  0  0  0  0  0  0  0  0  0  0
   57.1600   31.4710   44.8720 C   0  0  0  0  0  0  0  0  0  0  0  0
   57.7990   31.3690   46.0910 C   0  0  0  0  0  0  0  0  0  0  0  0
   58.6630   32.3520   46.5250 C   0  0  0  0  0  0  0  0  0  0  0  0
   58.9330   33.4910   45.7560 C   0  0  0  0  0  0  0  0  0  0  0  0
   60.0520   34.7610   46.3090 S   0  0  0  0  0  0  0  0  0  0  0  0
   61.3550   34.1990   47.3460 C   0  0  0  0  0  0  0  0  0  0  0  0
   62.5480   33.7960   46.7340 C   0  0  0  0  0  0  0  0  0  0  0  0
   63.5900   33.3490   47.5190 C   0  0  0  0  0  0  0  0  0  0  0  0
   63.5290   33.2740   48.8820 C   0  0  0  0  0  0  0  0  0  0  0  0
   64.9020   32.6930   49.8050 Cl  0  0  0  0  0  0  0  0  0  0  0  0
   62.3580   33.6680   49.4930 C   0  0  0  0  0  0  0  0  0  0  0  0
   61.3070   34.1170   48.7190 C   0  0  0  0  0  0  0  0  0  0  0  0
   60.1230   34.5110   49.3990 N   0  0  0  0  0  0  0  0  0  0  0  0
   58.2710   33.5660   44.5260 C   0  0  0  0  0  0  0  0  0  0  0  0
   57.4080   32.5790   44.0990 C   0  0  0  0  0  0  0  0  0  0  0  0
   57.0418   28.7496   43.5681 H   0  0  0  0  0  0  0  0  0  0  0  0
   55.6987   29.5834   42.7150 H   0  0  0  0  0  0  0  0  0  0  0  0
   57.3455   30.3010   42.7150 H   0  0  0  0  0  0  0  0  0  0  0  0
   57.6162   30.4898   46.7263 H   0  0  0  0  0  0  0  0  0  0  0  0
   59.1541   32.2385   47.5027 H   0  0  0  0  0  0  0  0  0  0  0  0
   62.6529   33.8355   45.6397 H   0  0  0  0  0  0  0  0  0  0  0  0
   64.5198   33.0362   47.0214 H   0  0  0  0  0  0  0  0  0  0  0  0
   62.2619   33.6250   50.5879 H   0  0  0  0  0  0  0  0  0  0  0  0
   59.6400   35.3610   49.0380 H   0  0  0  0  0  0  0  0  0  0  0  0
   59.8060   33.9440   50.2120 H   0  0  0  0  0  0  0  0  0  0  0  0
   58.4442   34.4391   43.8797 H   0  0  0  0  0  0  0  0  0  0  0  0
   56.9100   32.6806   43.1234 H   0  0  0  0  0  0  0  0  0  0  0  0
  1  2  1  0
  2  3  1  0
  3  4  2  0
  4  5  1  0
  5  6  2  0
  6  7  1  0
  7  8  1  0
  8  9  2  0
  9 10  1  0
 10 11  2  0
 11 12  1  0
 11 13  1  0
 13 14  2  0
 14 15  1  0
  6 16  1  0
 16 17  2  0
 17  3  1  0
 14  8  1  0
  1 18  1  0
  1 19  1  0
  1 20  1  0
  4 21  1  0
  5 22  1  0
  9 23  1  0
 10 24  1  0
 13 25  1  0
 15 26  1  0
 15 27  1  0
 16 28  1  0
 17 29  1  0
M  END
>  <smiles>  (6) 
COc1ccc(Sc2ccc(Cl)cc2N)cc1

>  <score_type>  (6) 
oracle

>  <origin>  (6) 
adg

>  <m_score__min__energy>  (6) 
-6.75

>  <m_primary>  (6) 
energy

$$$$
6:0
     RDKit          3D

 43 46  0  0  1  0  0  0  0  0999 V2000
   54.1740   25.0860   45.6240 C   0  0  0  0  0  0  0  0  0  0  0  0
   54.7720   26.3170   45.9810 O   0  0  0  0  0  0  0  0  0  0  0  0
   56.1450   26.3630   46.1010 C   0  0  0  0  0  0  0  0  0  0  0  0
   56.8380   25.4390   46.8870 C   0  0  0  0  0  0  0  0  0  0  0  0
   58.2120   25.4850   47.0060 C   0  0  0  0  0  0  0  0  0  0  0  0
   58.9400   26.4550   46.3450 C   0  0  0  0  0  0  0  0  0  0  0  0
   60.6840   26.4380   46.5440 Cl  0  0  0  0  0  0  0  0  0  0  0  0
   58.2850   27.3780   45.5640 C   0  0  0  0  0  0  0  0  0  0  0  0
   59.0230   28.3750   44.8760 N   0  0  0  0  0  0  0  0  0  0  0  0
   59.3270   29.6460   45.4090 C   0  0  0  0  0  0  0  0  0  0  0  0
   58.5920   30.7740   45.1100 C   0  0  0  0  0  0  0  0  0  0  0  0
   58.9080   32.0020   45.6470 C   0  0  0  0  0  0  0  0  0  0  0  0
   59.9880   32.1770   46.5210 C   0  0  0  0  0  0  0  0  0  0  0  0
   60.6940   31.0160   46.7890 C   0  0  0  0  0  0  0  0  0  0  0  0
   60.3900   29.7990   46.2640 C   0  0  0  0  0  0  0  0  0  0  0  0
   61.9110   31.0990   47.7920 C   0  0  0  0  0  0  0  0  0  0  0  0
   61.6380   32.4660   48.1710 N   0  0  0  0  0  0  0  0  0  0  0  0
   60.9140   33.1140   49.2810 C   0  0  0  0  0  0  0  0  0  0  0  0
   59.7920   33.8190   48.4400 C   0  0  0  0  0  0  0  0  0  0  0  0
   60.2080   33.5610   46.9850 C   0  0  2  0  0  0  0  0  0  0  0  0
   59.8410   34.6290   46.0430 C   0  0  0  0  0  0  0  0  0  0  0  0
   61.7560   33.5580   47.2510 C   0  0  0  0  0  0  0  0  0  0  0  0
   62.5750   34.3130   46.7410 O   0  0  0  0  0  0  0  0  0  0  0  0
   56.9160   27.3150   45.4580 C   0  0  0  0  0  0  0  0  0  0  0  0
   53.9046   24.5314   46.5350 H   0  0  0  0  0  0  0  0  0  0  0  0
   53.2683   25.2770   45.0297 H   0  0  0  0  0  0  0  0  0  0  0  0
   54.8840   24.4921   45.0297 H   0  0  0  0  0  0  0  0  0  0  0  0
   56.2768   24.6587   47.4220 H   0  0  0  0  0  0  0  0  0  0  0  0
   58.7311   24.7440   47.6316 H   0  0  0  0  0  0  0  0  0  0  0  0
   59.3510   28.1260   43.9140 H   0  0  0  0  0  0  0  0  0  0  0  0
   57.7338   30.6908   44.4270 H   0  0  0  0  0  0  0  0  0  0  0  0
   58.2921   32.8737   45.3808 H   0  0  0  0  0  0  0  0  0  0  0  0
   61.0041   28.9254   46.5280 H   0  0  0  0  0  0  0  0  0  0  0  0
   61.8293   30.3925   48.6312 H   0  0  0  0  0  0  0  0  0  0  0  0
   62.9145   30.8549   47.4133 H   0  0  0  0  0  0  0  0  0  0  0  0
   60.5024   32.3822   49.9916 H   0  0  0  0  0  0  0  0  0  0  0  0
   61.5148   33.7721   49.9259 H   0  0  0  0  0  0  0  0  0  0  0  0
   58.8075   33.3757   48.6506 H   0  0  0  0  0  0  0  0  0  0  0  0
   59.6965   34.8901   48.6715 H   0  0  0  0  0  0  0  0  0  0  0  0
   59.5336   35.5235   46.6045 H   0  0  0  0  0  0  0  0  0  0  0  0
   60.7068   34.8730   45.4099 H   0  0  0  0  0  0  0  0  0  0  0  0
   59.0080   34.2893   45.4099 H   0  0  0  0  0  0  0  0  0  0  0  0
   56.4069   28.0603   44.8292 H   0  0  0  0  0  0  0  0  0  0  0  0
  1  2  1  0
  2  3  1  0
  3  4  2  0
  4  5  1  0
  5  6  2  0
  6  7  1  0
  6  8  1  0
  8  9  1  0
  9 10  1  0
 10 11  2  0
 11 12  1  0
 12 13  2  0
 13 14  1  0
 14 15  2  0
 14 16  1  0
 16 17  1  0
 17 18  1  0
 18 19  1  0
 19 20  1  0
 20 21  1  6
 20 22  1  0
 22 23  2  0
  8 24  2  0
 24  3  1  0
 15 10  1  0
 22 17  1  0
 20 13  1  0
  1 25  1  0
  1 26  1  0
  1 27  1  0
  4 28  1  0
  5 29  1  0
  9 30  1  0
 11 31  1  0
 12 32  1  0
 15 33  1  0
 16 34  1  0
 16 35  1  0
 18 36  1  0
 18 37  1  0
 19 38  1  0
 19 39  1  0
 21 40  1  0
 21 41  1  0
 21 42  1  0
 24 43  1  0
M  END
>  <smiles>  (7) 
COc1ccc(Cl)c(Nc2ccc3c(c2)CN2CCC3(C)C2=O)c1

>  <score_type>  (7) 
oracle

>  <origin>  (7) 
adg

>  <m_score__min__energy>  (7) 
-7.9800000000000004

>  <m_primary>  (7) 
energy

$$$$
7:0
     RDKit          3D

 46 48  0  0  1  0  0  0  0  0999 V2000
   62.7200   34.5860   50.5390 C   0  0  0  0  0  0  0  0  0  0  0  0
   61.6820   34.3760   49.6040 O   0  0  0  0  0  0  0  0  0  0  0  0
   61.3850   33.1500   49.0560 C   0  0  0  0  0  0  0  0  0  0  0  0
   60.2520   32.4510   49.4690 C   0  0  0  0  0  0  0  0  0  0  0  0
   59.9220   31.2180   48.9410 C   0  0  0  0  0  0  0  0  0  0  0  0
   58.8950   30.3730   49.1820 N   0  0  0  0  0  0  0  0  0  0  0  0
   59.0260   29.2900   48.4010 C   0  0  0  0  0  0  0  0  0  0  0  0
   58.1600   28.1840   48.3570 O   0  0  0  0  0  0  0  0  0  0  0  0
   60.1700   29.4380   47.6320 C   0  0  0  0  0  0  0  0  0  0  0  0
   60.6390   28.4900   46.6820 N   0  0  0  0  0  0  0  0  0  0  0  0
   59.9490   27.4400   46.5200 N   0  0  0  0  0  0  0  0  0  0  0  0
   58.9930   27.4460   45.4690 C   0  0  0  0  0  0  0  0  0  0  0  0
   57.8810   26.8660   45.5310 O   0  0  0  0  0  0  0  0  0  0  0  0
   59.2700   28.1760   44.1800 C   0  0  0  0  0  0  0  0  0  0  0  0
   58.1010   28.1700   43.4000 N   0  0  0  0  0  0  0  0  0  0  0  0
   57.7690   26.9890   42.7050 C   0  0  0  0  0  0  0  0  0  0  0  0
   56.8570   29.2100   43.8210 S   0  0  0  0  0  0  0  0  0  0  0  0
   55.9340   29.3660   42.6610 O   0  0  0  0  0  0  0  0  0  0  0  0
   56.0910   28.6510   44.9760 O   0  0  0  0  0  0  0  0  0  0  0  0
   57.5200   30.7500   44.3240 C   0  0  0  0  0  0  0  0  0  0  0  0
   57.7660   31.7830   43.4420 C   0  0  0  0  0  0  0  0  0  0  0  0
   58.2910   32.9510   43.9600 C   0  0  0  0  0  0  0  0  0  0  0  0
   58.5650   33.0950   45.3160 C   0  0  0  0  0  0  0  0  0  0  0  0
   59.2900   34.7040   46.0390 Br  0  0  0  0  0  0  0  0  0  0  0  0
   58.3170   32.0610   46.1950 C   0  0  0  0  0  0  0  0  0  0  0  0
   57.7950   30.8940   45.6830 C   0  0  0  0  0  0  0  0  0  0  0  0
   60.7350   30.6670   47.9820 C   0  0  0  0  0  0  0  0  0  0  0  0
   61.8650   31.3190   47.5410 C   0  0  0  0  0  0  0  0  0  0  0  0
   62.1920   32.5630   48.0770 C   0  0  0  0  0  0  0  0  0  0  0  0
   63.7630   33.4910   47.4780 Br  0  0  0  0  0  0  0  0  0  0  0  0
   62.3166   34.5044   51.5591 H   0  0  0  0  0  0  0  0  0  0  0  0
   63.5039   33.8282   50.3930 H   0  0  0  0  0  0  0  0  0  0  0  0
   63.1477   35.5889   50.3930 H   0  0  0  0  0  0  0  0  0  0  0  0
   59.6018   32.8941   50.2377 H   0  0  0  0  0  0  0  0  0  0  0  0
   58.1200   30.5180   49.8570 H   0  0  0  0  0  0  0  0  0  0  0  0
   58.1810   27.5520   47.5640 H   0  0  0  0  0  0  0  0  0  0  0  0
   59.5647   29.2132   44.3977 H   0  0  0  0  0  0  0  0  0  0  0  0
   60.0870   27.6797   43.6357 H   0  0  0  0  0  0  0  0  0  0  0  0
   57.5443   26.1898   43.4266 H   0  0  0  0  0  0  0  0  0  0  0  0
   56.8872   27.1710   42.0731 H   0  0  0  0  0  0  0  0  0  0  0  0
   58.6165   26.6849   42.0731 H   0  0  0  0  0  0  0  0  0  0  0  0
   57.5522   31.6800   42.3679 H   0  0  0  0  0  0  0  0  0  0  0  0
   58.4983   33.7911   43.2808 H   0  0  0  0  0  0  0  0  0  0  0  0
   58.5292   32.1653   47.2693 H   0  0  0  0  0  0  0  0  0  0  0  0
   57.5899   30.0544   46.3635 H   0  0  0  0  0  0  0  0  0  0  0  0
   62.5044   30.8614   46.7717 H   0  0  0  0  0  0  0  0  0  0  0  0
  1  2  1  0
  2  3  1  0
  3  4  2  0
  4  5  1  0
  5  6  1  0
  6  7  1  0
  7  8  1  0
  7  9  2  0
  9 10  1  0
 10 11  2  0
 11 12  1  0
 12 13  2  0
 12 14  1  0
 14 15  1  0
 15 16  1  0
 15 17  1  0
 17 18  2  0
 17 19  2  0
 17 20  1  0
 20 21  2  0
 21 22  1  0
 22 23  2  0
 23 24  1  0
 23 25  1  0
 25 26  2  0
  9 27  1  0
 27 28  1  0
 28 29  2  0
 29 30  1  0
 29  3  1  0
 27  5  2  0
 26 20  1  0
  1 31  1  0
  1 32  1  0
  1 33  1  0
  4 34  1  0
  6 35  1  0
  8 36  1  0
 14 37  1  0
 14 38  1  0
 16 39  1  0
 16 40  1  0
 16 41  1  0
 21 42  1  0
 22 43  1  0
 25 44  1  0
 26 45  1  0
 28 46  1  0
M  END
>  <smiles>  (8) 
COc1cc2[nH]c(O)c(N=NC(=O)CN(C)S(=O)(=O)c3ccc(Br)cc3)c2cc1Br

>  <score_type>  (8) 
oracle

>  <origin>  (8) 
adg

>  <m_score__min__energy>  (8) 
-8.5500000000000007

>  <m_primary>  (8) 
energy

$$$$
8:0
     RDKit          3D

 34 36  0  0  1  0  0  0  0  0999 V2000
   60.7670   27.7920   49.7210 C   0  0  0  0  0  0  0  0  0  0  0  0
   60.4970   27.3930   48.2970 C   0  0  0  0  0  0  0  0  0  0  0  0
   59.6010   28.3200   47.6310 N   0  0  0  0  0  0  0  0  0  0  0  0
   59.3900   29.6030   48.0380 C   0  0  0  0  0  0  0  0  0  0  0  0
   58.5120   30.1210   47.1780 N   0  0  0  0  0  0  0  0  0  0  0  0
   58.1680   29.2150   46.2580 C   0  0  0  0  0  0  0  0  0  0  0  0
   57.2990   29.3400   45.2020 C   0  0  0  0  0  0  0  0  0  0  0  0
   56.6420   30.3640   44.8940 N   0  0  0  0  0  0  0  0  0  0  0  0
   57.1430   31.3710   44.0170 C   0  0  0  0  0  0  0  0  0  0  0  0
   57.7660   32.5110   44.7580 C   0  0  0  0  0  0  0  0  0  0  0  0
   58.6230   33.4110   44.1640 C   0  0  0  0  0  0  0  0  0  0  0  0
   59.1970   34.4710   44.8610 C   0  0  0  0  0  0  0  0  0  0  0  0
   58.9200   34.6590   46.1980 C   0  0  0  0  0  0  0  0  0  0  0  0
   58.0670   33.7730   46.8140 C   0  0  0  0  0  0  0  0  0  0  0  0
   57.5060   32.7290   46.1140 C   0  0  0  0  0  0  0  0  0  0  0  0
   57.1480   28.2310   44.4210 N   0  0  0  0  0  0  0  0  0  0  0  0
   57.8270   27.1000   44.7000 C   0  0  0  0  0  0  0  0  0  0  0  0
   58.6780   26.9950   45.7410 N   0  0  0  0  0  0  0  0  0  0  0  0
   58.8530   28.0670   46.5330 C   0  0  0  0  0  0  0  0  0  0  0  0
   60.2823   27.0757   50.4007 H   0  0  0  0  0  0  0  0  0  0  0  0
   61.8520   27.7928   49.9021 H   0  0  0  0  0  0  0  0  0  0  0  0
   60.3643   28.7995   49.9021 H   0  0  0  0  0  0  0  0  0  0  0  0
   61.4506   27.3659   47.7493 H   0  0  0  0  0  0  0  0  0  0  0  0
   60.0148   26.4044   48.3078 H   0  0  0  0  0  0  0  0  0  0  0  0
   59.8499   30.1085   48.9000 H   0  0  0  0  0  0  0  0  0  0  0  0
   57.9005   30.9213   43.3582 H   0  0  0  0  0  0  0  0  0  0  0  0
   56.2941   31.7681   43.4411 H   0  0  0  0  0  0  0  0  0  0  0  0
   58.8633   33.2876   43.0977 H   0  0  0  0  0  0  0  0  0  0  0  0
   59.8760   35.1629   44.3411 H   0  0  0  0  0  0  0  0  0  0  0  0
   59.3683   35.4939   46.7566 H   0  0  0  0  0  0  0  0  0  0  0  0
   57.8300   33.9005   47.8806 H   0  0  0  0  0  0  0  0  0  0  0  0
   56.8283   32.0411   46.6409 H   0  0  0  0  0  0  0  0  0  0  0  0
   56.5090   28.2530   43.6100 H   0  0  0  0  0  0  0  0  0  0  0  0
   57.6804   26.2247   44.0501 H   0  0  0  0  0  0  0  0  0  0  0  0
  1  2  1  0
  2  3  1  0
  3  4  1  0
  4  5  2  0
  5  6  1  0
  6  7  1  0
  7  8  2  0
  8  9  1  0
  9 10  1  0
 10 11  2  0
 11 12  1  0
 12 13  2  0
 13 14  1  0
 14 15  2  0
  7 16  1  0
 16 17  1  0
 17 18  2  0
 18 19  1  0
 19  3  1  0
 19  6  2  0
 15 10  1  0
  1 20  1  0
  1 21  1  0
  1 22  1  0
  2 23  1  0
  2 24  1  0
  4 25  1  0
  9 26  1  0
  9 27  1  0
 11 28  1  0
 12 29  1  0
 13 30  1  0
 14 31  1  0
 15 32  1  0
 16 33  1  0
 17 34  1  0
M  END
>  <smiles>  (9) 
CCn1cnc2c(=NCc3ccccc3)[nH]cnc21

>  <score_type>  (9) 
oracle

>  <origin>  (9) 
adg

>  <m_score__min__energy>  (9) 
-6.5300000000000002

>  <m_primary>  (9) 
energy

$$$$
9:0
     RDKit          3D

 53 55  0  0  0  0  0  0  0  0999 V2000
   59.1380   22.2380   44.6530 C   0  0  0  0  0  0  0  0  0  0  0  0
   57.9120   22.3050   45.5790 C   0  0  0  0  0  0  0  0  0  0  0  0
   56.8300   22.7420   44.7640 N   0  0  0  0  0  0  0  0  0  0  0  0
   56.8340   22.3100   43.4320 C   0  0  0  0  0  0  0  0  0  0  0  0
   55.7530   22.9880   42.6270 C   0  0  0  0  0  0  0  0  0  0  0  0
   56.0540   23.8220   45.1810 C   0  0  0  0  0  0  0  0  0  0  0  0
   56.6890   25.1580   45.2250 C   0  0  0  0  0  0  0  0  0  0  0  0
   57.5600   25.5890   44.2130 C   0  0  0  0  0  0  0  0  0  0  0  0
   58.1580   26.8370   44.2580 C   0  0  0  0  0  0  0  0  0  0  0  0
   57.9260   27.7090   45.2940 C   0  0  0  0  0  0  0  0  0  0  0  0
   58.5440   29.0400   45.3780 C   0  0  0  0  0  0  0  0  0  0  0  0
   59.7620   29.0990   45.0860 O   0  0  0  0  0  0  0  0  0  0  0  0
   57.8510   30.2010   45.7580 N   0  0  0  0  0  0  0  0  0  0  0  0
   58.3510   31.5020   45.8590 C   0  0  0  0  0  0  0  0  0  0  0  0
   57.6380   32.5510   45.2560 C   0  0  0  0  0  0  0  0  0  0  0  0
   58.0660   33.8400   45.3020 C   0  0  0  0  0  0  0  0  0  0  0  0
   59.2510   34.2040   45.9570 C   0  0  0  0  0  0  0  0  0  0  0  0
   59.6510   35.6160   45.9650 C   0  0  0  0  0  0  0  0  0  0  0  0
   59.9520   33.1960   46.5450 C   0  0  0  0  0  0  0  0  0  0  0  0
   61.2230   33.4900   47.2530 C   0  0  0  0  0  0  0  0  0  0  0  0
   62.4760   33.4600   46.7890 C   0  0  0  0  0  0  0  0  0  0  0  0
   63.4950   33.7710   47.6160 C   0  0  0  0  0  0  0  0  0  0  0  0
   63.1880   34.1030   48.8940 C   0  0  0  0  0  0  0  0  0  0  0  0
   61.3240   33.9620   48.9220 S   0  0  0  0  0  0  0  0  0  0  0  0
   59.5070   31.8890   46.4940 C   0  0  0  0  0  0  0  0  0  0  0  0
   57.0660   27.2750   46.2870 C   0  0  0  0  0  0  0  0  0  0  0  0
   56.4670   26.0350   46.2490 C   0  0  0  0  0  0  0  0  0  0  0  0
   60.0538   22.1880   45.2602 H   0  0  0  0  0  0  0  0  0  0  0  0
   59.0695   21.3423   44.0182 H   0  0  0  0  0  0  0  0  0  0  0  0
   59.1676   23.1359   44.0182 H   0  0  0  0  0  0  0  0  0  0  0  0
   57.6965   21.3122   46.0007 H   0  0  0  0  0  0  0  0  0  0  0  0
   58.0818   22.9879   46.4245 H   0  0  0  0  0  0  0  0  0  0  0  0
   57.8116   22.5417   42.9841 H   0  0  0  0  0  0  0  0  0  0  0  0
   56.6445   21.2265   43.4203 H   0  0  0  0  0  0  0  0  0  0  0  0
   55.0215   23.4468   43.3085 H   0  0  0  0  0  0  0  0  0  0  0  0
   56.2019   23.7666   41.9928 H   0  0  0  0  0  0  0  0  0  0  0  0
   55.2475   22.2449   41.9928 H   0  0  0  0  0  0  0  0  0  0  0  0
   55.1948   23.8906   44.4976 H   0  0  0  0  0  0  0  0  0  0  0  0
   55.8127   23.5979   46.2305 H   0  0  0  0  0  0  0  0  0  0  0  0
   57.7724   24.9209   43.3654 H   0  0  0  0  0  0  0  0  0  0  0  0
   58.8350   27.1375   43.4448 H   0  0  0  0  0  0  0  0  0  0  0  0
   56.8290   30.0630   45.9940 H   0  0  0  0  0  0  0  0  0  0  0  0
   56.7006   32.3213   44.7282 H   0  0  0  0  0  0  0  0  0  0  0  0
   57.4655   34.6201   44.8113 H   0  0  0  0  0  0  0  0  0  0  0  0
   59.7494   35.9633   47.0041 H   0  0  0  0  0  0  0  0  0  0  0  0
   60.6158   35.7267   45.4485 H   0  0  0  0  0  0  0  0  0  0  0  0
   58.8876   36.2163   45.4485 H   0  0  0  0  0  0  0  0  0  0  0  0
   62.6743   33.1843   45.7427 H   0  0  0  0  0  0  0  0  0  0  0  0
   64.5377   33.7558   47.2661 H   0  0  0  0  0  0  0  0  0  0  0  0
   63.8673   34.3854   49.7118 H   0  0  0  0  0  0  0  0  0  0  0  0
   60.1116   31.1149   46.9892 H   0  0  0  0  0  0  0  0  0  0  0  0
   56.8534   27.9423   47.1352 H   0  0  0  0  0  0  0  0  0  0  0  0
   55.7910   25.7427   47.0660 H   0  0  0  0  0  0  0  0  0  0  0  0
  1  2  1  0
  2  3  1  0
  3  4  1  0
  4  5  1  0
  3  6  1  0
  6  7  1  0
  7  8  2  0
  8  9  1  0
  9 10  2  0
 10 11  1  0
 11 12  2  0
 11 13  1  0
 13 14  1  0
 14 15  2  0
 15 16  1  0
 16 17  2  0
 17 18  1  0
 17 19  1  0
 19 20  1  0
 20 21  2  0
 21 22  1  0
 22 23  2  0
 23 24  1  0
 19 25  2  0
 10 26  1  0
 26 27  2  0
 27  7  1  0
 25 14  1  0
 24 20  1  0
  1 28  1  0
  1 29  1  0
  1 30  1  0
  2 31  1  0
  2 32  1  0
  4 33  1  0
  4 34  1  0
  5 35  1  0
  5 36  1  0
  5 37  1  0
  6 38  1  0
  6 39  1  0
  8 40  1  0
  9 41  1  0
 13 42  1  0
 15 43  1  0
 16 44  1  0
 18 45  1  0
 18 46  1  0
 18 47  1  0
 21 48  1  0
 22 49  1  0
 23 50  1  0
 25 51  1  0
 26 52  1  0
 27 53  1  0
M  END
>  <smiles>  (10) 
CCN(CC)Cc1ccc(C(=O)Nc2ccc(C)c(-c3cccs3)c2)cc1

>  <score_type>  (10) 
oracle

>  <origin>  (10) 
adg

>  <m_score__min__energy>  (10) 
-8.1999999999999993

>  <m_primary>  (10) 
energy

$$$$
10:0
     RDKit          3D

 38 39  0  0  0  0  0  0  0  0999 V2000
   58.4950   34.6550   44.8450 C   0  0  0  0  0  0  0  0  0  0  0  0
   57.4720   33.8900   45.6140 C   0  0  0  0  0  0  0  0  0  0  0  0
   57.9730   32.7190   46.2320 N   0  0  0  0  0  0  0  0  0  0  0  0
   58.1420   32.7170   47.6340 C   0  0  0  0  0  0  0  0  0  0  0  0
   59.2250   33.6810   48.0680 C   0  0  0  0  0  0  0  0  0  0  0  0
   58.7280   31.8220   45.4490 C   0  0  0  0  0  0  0  0  0  0  0  0
   58.0270   31.1120   44.3410 C   0  0  0  0  0  0  0  0  0  0  0  0
   57.6450   29.7650   44.7750 N   0  0  0  0  0  0  0  0  0  0  0  0
   56.3590   29.3630   44.8330 C   0  0  0  0  0  0  0  0  0  0  0  0
   55.4420   30.1380   44.5090 O   0  0  0  0  0  0  0  0  0  0  0  0
   56.1450   28.1040   45.2530 N   0  0  0  0  0  0  0  0  0  0  0  0
   57.1160   27.2500   45.6080 C   0  0  0  0  0  0  0  0  0  0  0  0
   56.8640   25.9590   46.0370 C   0  0  0  0  0  0  0  0  0  0  0  0
   57.9220   25.1130   46.3940 C   0  0  0  0  0  0  0  0  0  0  0  0
   59.2180   25.5770   46.3160 C   0  0  0  0  0  0  0  0  0  0  0  0
   59.5000   26.8540   45.8920 C   0  0  0  0  0  0  0  0  0  0  0  0
   58.4370   27.6550   45.5490 C   0  0  0  0  0  0  0  0  0  0  0  0
   58.6710   28.9410   45.1220 C   0  0  0  0  0  0  0  0  0  0  0  0
   59.8710   29.3680   45.0490 O   0  0  0  0  0  0  0  0  0  0  0  0
   59.1749   35.1635   45.5444 H   0  0  0  0  0  0  0  0  0  0  0  0
   59.0703   33.9637   44.2116 H   0  0  0  0  0  0  0  0  0  0  0  0
   57.9945   35.4022   44.2116 H   0  0  0  0  0  0  0  0  0  0  0  0
   57.0649   34.5470   46.3967 H   0  0  0  0  0  0  0  0  0  0  0  0
   56.7074   33.5667   44.8923 H   0  0  0  0  0  0  0  0  0  0  0  0
   57.1934   33.0095   48.1079 H   0  0  0  0  0  0  0  0  0  0  0  0
   58.4405   31.7041   47.9422 H   0  0  0  0  0  0  0  0  0  0  0  0
   59.2652   33.7168   49.1667 H   0  0  0  0  0  0  0  0  0  0  0  0
   60.1956   33.3425   47.6764 H   0  0  0  0  0  0  0  0  0  0  0  0
   59.0013   34.6843   47.6764 H   0  0  0  0  0  0  0  0  0  0  0  0
   59.5560   32.3920   45.0024 H   0  0  0  0  0  0  0  0  0  0  0  0
   59.0252   31.0251   46.1466 H   0  0  0  0  0  0  0  0  0  0  0  0
   57.1243   31.6747   44.0606 H   0  0  0  0  0  0  0  0  0  0  0  0
   58.7014   31.0361   43.4753 H   0  0  0  0  0  0  0  0  0  0  0  0
   55.1460   27.7970   45.2950 H   0  0  0  0  0  0  0  0  0  0  0  0
   55.8277   25.5951   46.0981 H   0  0  0  0  0  0  0  0  0  0  0  0
   57.7203   24.0865   46.7339 H   0  0  0  0  0  0  0  0  0  0  0  0
   60.0455   24.9100   46.5996 H   0  0  0  0  0  0  0  0  0  0  0  0
   60.5354   27.2202   45.8297 H   0  0  0  0  0  0  0  0  0  0  0  0
  1  2  1  0
  2  3  1  0
  3  4  1  0
  4  5  1  0
  3  6  1  0
  6  7  1  0
  7  8  1  0
  8  9  1  0
  9 10  2  0
  9 11  1  0
 11 12  1  0
 12 13  2  0
 13 14  1  0
 14 15  2  0
 15 16  1  0
 16 17  2  0
 17 18  1  0
 18 19  2  0
 18  8  1  0
 17 12  1  0
  1 20  1  0
  1 21  1  0
  1 22  1  0
  2 23  1  0
  2 24  1  0
  4 25  1  0
  4 26  1  0
  5 27  1  0
  5 28  1  0
  5 29  1  0
  6 30  1  0
  6 31  1  0
  7 32  1  0
  7 33  1  0
 11 34  1  0
 13 35  1  0
 14 36  1  0
 15 37  1  0
 16 38  1  0
M  END
>  <smiles>  (11) 
CCN(CC)CCn1c(=O)[nH]c2ccccc2c1=O

>  <score_type>  (11) 
oracle

>  <origin>  (11) 
adg

>  <m_score__min__energy>  (11) 
-6.5899999999999999

>  <m_primary>  (11) 
energy

$$$$
11:0
     RDKit          3D

 64 68  0  0  1  0  0  0  0  0999 V2000
   51.0980   24.3860   44.5170 C   0  0  0  0  0  0  0  0  0  0  0  0
   52.0580   23.4160   44.1960 O   0  0  0  0  0  0  0  0  0  0  0  0
   53.2920   23.4560   44.8290 C   0  0  0  0  0  0  0  0  0  0  0  0
   54.4180   23.6510   44.0630 C   0  0  0  0  0  0  0  0  0  0  0  0
   55.6680   23.6990   44.6310 C   0  0  0  0  0  0  0  0  0  0  0  0
   55.8570   23.5560   46.0030 C   0  0  0  0  0  0  0  0  0  0  0  0
   57.4190   23.6150   46.7400 S   0  0  0  0  0  0  0  0  0  0  0  0
   57.3980   23.0950   48.1560 O   0  0  0  0  0  0  0  0  0  0  0  0
   58.3210   22.6510   45.9840 O   0  0  0  0  0  0  0  0  0  0  0  0
   58.0640   25.2160   46.7560 N   0  0  0  0  0  0  0  0  0  0  0  0
   57.0240   26.1260   47.1330 C   0  0  0  0  0  0  0  0  0  0  0  0
   56.2910   26.6140   45.8780 C   0  0  0  0  0  0  0  0  0  0  0  0
   57.2920   27.5130   45.2320 N   0  0  0  0  0  0  0  0  0  0  0  0
   56.8170   28.7850   44.9080 C   0  0  0  0  0  0  0  0  0  0  0  0
   55.5580   28.9640   45.2330 O   0  0  0  0  0  0  0  0  0  0  0  0
   57.4390   29.9340   44.2880 C   0  0  0  0  0  0  0  0  0  0  0  0
   58.3100   30.7170   45.1000 N   0  0  0  0  0  0  0  0  0  0  0  0
   59.5290   30.3020   45.7480 C   0  0  0  0  0  0  0  0  0  0  0  0
   60.0360   29.1650   45.6820 O   0  0  0  0  0  0  0  0  0  0  0  0
   60.0770   31.3860   46.4820 N   0  0  0  0  0  0  0  0  0  0  0  0
   59.1540   32.5190   46.4300 C   0  0  1  0  0  0  0  0  0  0  0  0
   58.5860   32.8460   47.7680 C   0  0  0  0  0  0  0  0  0  0  0  0
   59.2870   33.9810   48.4330 C   0  0  0  0  0  0  0  0  0  0  0  0
   60.7560   33.9800   48.1730 C   0  0  0  0  0  0  0  0  0  0  0  0
   61.7020   34.1240   49.1440 C   0  0  0  0  0  0  0  0  0  0  0  0
   63.0290   34.1040   48.7540 C   0  0  0  0  0  0  0  0  0  0  0  0
   63.3970   33.9450   47.4160 C   0  0  0  0  0  0  0  0  0  0  0  0
   62.4360   33.7990   46.4250 C   0  0  0  0  0  0  0  0  0  0  0  0
   61.1230   33.8200   46.8360 C   0  0  0  0  0  0  0  0  0  0  0  0
   59.9730   33.6740   45.8850 C   0  0  0  0  0  0  0  0  0  0  0  0
   58.1230   32.0990   45.4590 C   0  0  0  0  0  0  0  0  0  0  0  0
   57.2210   32.8610   45.0240 O   0  0  0  0  0  0  0  0  0  0  0  0
   58.5810   26.9410   45.0400 C   0  0  0  0  0  0  0  0  0  0  0  0
   58.6400   25.4850   45.4690 C   0  0  0  0  0  0  0  0  0  0  0  0
   54.7210   23.3610   46.7530 C   0  0  0  0  0  0  0  0  0  0  0  0
   53.4480   23.3090   46.1940 C   0  0  0  0  0  0  0  0  0  0  0  0
   51.0140   24.4709   45.6105 H   0  0  0  0  0  0  0  0  0  0  0  0
   51.4018   25.3559   44.0962 H   0  0  0  0  0  0  0  0  0  0  0  0
   50.1250   24.0923   44.0962 H   0  0  0  0  0  0  0  0  0  0  0  0
   54.3155   23.7708   42.9744 H   0  0  0  0  0  0  0  0  0  0  0  0
   56.5438   23.8547   43.9839 H   0  0  0  0  0  0  0  0  0  0  0  0
   56.3122   25.6142   47.7974 H   0  0  0  0  0  0  0  0  0  0  0  0
   57.4632   26.9867   47.6587 H   0  0  0  0  0  0  0  0  0  0  0  0
   56.0324   25.7722   45.2189 H   0  0  0  0  0  0  0  0  0  0  0  0
   55.3379   27.1160   46.1006 H   0  0  0  0  0  0  0  0  0  0  0  0
   58.0230   29.5717   43.4291 H   0  0  0  0  0  0  0  0  0  0  0  0
   56.6062   30.6060   44.0334 H   0  0  0  0  0  0  0  0  0  0  0  0
   60.9860   31.4130   46.9910 H   0  0  0  0  0  0  0  0  0  0  0  0
   57.5259   33.1122   47.6440 H   0  0  0  0  0  0  0  0  0  0  0  0
   58.7129   31.9594   48.4066 H   0  0  0  0  0  0  0  0  0  0  0  0
   58.8636   34.9246   48.0583 H   0  0  0  0  0  0  0  0  0  0  0  0
   59.1408   33.8730   49.5179 H   0  0  0  0  0  0  0  0  0  0  0  0
   61.4202   34.2515   50.1996 H   0  0  0  0  0  0  0  0  0  0  0  0
   63.8139   34.2161   49.5165 H   0  0  0  0  0  0  0  0  0  0  0  0
   64.4628   33.9353   47.1439 H   0  0  0  0  0  0  0  0  0  0  0  0
   62.7097   33.6732   45.3670 H   0  0  0  0  0  0  0  0  0  0  0  0
   59.3727   34.5954   45.8605 H   0  0  0  0  0  0  0  0  0  0  0  0
   60.3110   33.4896   44.8546 H   0  0  0  0  0  0  0  0  0  0  0  0
   58.8403   27.0053   43.9729 H   0  0  0  0  0  0  0  0  0  0  0  0
   59.2925   27.5026   45.6632 H   0  0  0  0  0  0  0  0  0  0  0  0
   58.1019   24.8850   44.7204 H   0  0  0  0  0  0  0  0  0  0  0  0
   59.7064   25.2261   45.5452 H   0  0  0  0  0  0  0  0  0  0  0  0
   54.8232   23.2410   47.8416 H   0  0  0  0  0  0  0  0  0  0  0  0
   52.5690   23.1515   46.8363 H   0  0  0  0  0  0  0  0  0  0  0  0
  1  2  1  0
  2  3  1  0
  3  4  2  0
  4  5  1  0
  5  6  2  0
  6  7  1  0
  7  8  2  0
  7  9  2  0
  7 10  1  0
 10 11  1  0
 11 12  1  0
 12 13  1  0
 13 14  1  0
 14 15  2  0
 14 16  1  0
 16 17  1  0
 17 18  1  0
 18 19  2  0
 18 20  1  0
 21 20  1  1
 21 22  1  0
 22 23  1  0
 23 24  1  0
 24 25  2  0
 25 26  1  0
 26 27  2  0
 27 28  1  0
 28 29  2  0
 29 30  1  0
 21 31  1  0
 31 32  2  0
 13 33  1  0
 33 34  1  0
  6 35  1  0
 35 36  2  0
 36  3  1  0
 34 10  1  0
 31 17  1  0
 30 21  1  0
 29 24  1  0
  1 37  1  0
  1 38  1  0
  1 39  1  0
  4 40  1  0
  5 41  1  0
 11 42  1  0
 11 43  1  0
 12 44  1  0
 12 45  1  0
 16 46  1  0
 16 47  1  0
 20 48  1  0
 22 49  1  0
 22 50  1  0
 23 51  1  0
 23 52  1  0
 25 53  1  0
 26 54  1  0
 27 55  1  0
 28 56  1  0
 30 57  1  0
 30 58  1  0
 33 59  1  0
 33 60  1  0
 34 61  1  0
 34 62  1  0
 35 63  1  0
 36 64  1  0
M  END
>  <smiles>  (12) 
COc1ccc(S(=O)(=O)N2CCN(C(=O)CN3C(=O)NC4(CCc5ccccc5C4)C3=O)CC2)cc1

>  <score_type>  (12) 
oracle

>  <origin>  (12) 
adg

>  <m_score__min__energy>  (12) 
-10.16

>  <m_primary>  (12) 
energy

$$$$
12:0
     RDKit          3D

 41 42  0  0  0  0  0  0  0  0999 V2000
   58.1210   27.0700   42.6610 C   0  0  0  0  0  0  0  0  0  0  0  0
   58.2060   27.0240   44.1440 C   0  0  0  0  0  0  0  0  0  0  0  0
   58.0650   28.3900   44.7500 N   0  0  0  0  0  0  0  0  0  0  0  0
   59.2980   29.0740   44.5300 C   0  0  0  0  0  0  0  0  0  0  0  0
   60.1020   29.4390   45.7240 C   0  0  0  0  0  0  0  0  0  0  0  0
   56.9600   28.9360   44.0010 C   0  0  0  0  0  0  0  0  0  0  0  0
   57.1110   30.3030   43.4530 C   0  0  0  0  0  0  0  0  0  0  0  0
   56.6080   31.1910   44.4840 O   0  0  0  0  0  0  0  0  0  0  0  0
   57.3950   32.2020   45.0100 C   0  0  0  0  0  0  0  0  0  0  0  0
   57.7950   33.3110   44.2980 C   0  0  0  0  0  0  0  0  0  0  0  0
   58.5890   34.2800   44.9150 C   0  0  0  0  0  0  0  0  0  0  0  0
   58.9900   34.1580   46.2360 C   0  0  0  0  0  0  0  0  0  0  0  0
   58.5710   33.0250   46.9300 C   0  0  0  0  0  0  0  0  0  0  0  0
   57.7850   32.0610   46.3300 C   0  0  0  0  0  0  0  0  0  0  0  0
   58.9320   32.7990   48.2940 N   0  0  0  0  0  0  0  0  0  0  0  0
   59.7550   33.7990   48.9270 C   0  0  0  0  0  0  0  0  0  0  0  0
   59.6770   33.9870   50.1530 O   0  0  0  0  0  0  0  0  0  0  0  0
   60.6620   34.5500   48.0160 C   0  0  0  0  0  0  0  0  0  0  0  0
   59.8390   35.1970   46.9010 C   0  0  0  0  0  0  0  0  0  0  0  0
   57.1899   27.5739   42.3626 H   0  0  0  0  0  0  0  0  0  0  0  0
   58.9826   27.6250   42.2614 H   0  0  0  0  0  0  0  0  0  0  0  0
   58.1277   26.0452   42.2614 H   0  0  0  0  0  0  0  0  0  0  0  0
   57.4017   26.3790   44.5275 H   0  0  0  0  0  0  0  0  0  0  0  0
   59.1942   26.6268   44.4190 H   0  0  0  0  0  0  0  0  0  0  0  0
   59.9240   28.4291   43.8958 H   0  0  0  0  0  0  0  0  0  0  0  0
   59.0087   30.0361   44.0821 H   0  0  0  0  0  0  0  0  0  0  0  0
   59.5412   29.1844   46.6354 H   0  0  0  0  0  0  0  0  0  0  0  0
   61.0514   28.8837   45.7105 H   0  0  0  0  0  0  0  0  0  0  0  0
   60.3089   30.5193   45.7105 H   0  0  0  0  0  0  0  0  0  0  0  0
   56.7717   28.2608   43.1533 H   0  0  0  0  0  0  0  0  0  0  0  0
   56.1412   29.0171   44.7311 H   0  0  0  0  0  0  0  0  0  0  0  0
   58.1690   30.5183   43.2427 H   0  0  0  0  0  0  0  0  0  0  0  0
   56.5649   30.4260   42.5061 H   0  0  0  0  0  0  0  0  0  0  0  0
   57.4904   33.4329   43.2481 H   0  0  0  0  0  0  0  0  0  0  0  0
   58.9040   35.1621   44.3382 H   0  0  0  0  0  0  0  0  0  0  0  0
   57.4678   31.1777   46.9037 H   0  0  0  0  0  0  0  0  0  0  0  0
   58.6230   31.9520   48.8310 H   0  0  0  0  0  0  0  0  0  0  0  0
   61.1886   35.3310   48.5841 H   0  0  0  0  0  0  0  0  0  0  0  0
   61.3969   33.8591   47.5771 H   0  0  0  0  0  0  0  0  0  0  0  0
   59.1936   35.9784   47.3286 H   0  0  0  0  0  0  0  0  0  0  0  0
   60.5168   35.6446   46.1592 H   0  0  0  0  0  0  0  0  0  0  0  0
  1  2  1  0
  2  3  1  0
  3  4  1  0
  4  5  1  0
  3  6  1  0
  6  7  1  0
  7  8  1  0
  8  9  1  0
  9 10  2  0
 10 11  1  0
 11 12  2  0
 12 13  1  0
 13 14  2  0
 13 15  1  0
 15 16  1  0
 16 17  2  0
 16 18  1  0
 18 19  1  0
 14  9  1  0
 19 12  1  0
  1 20  1  0
  1 21  1  0
  1 22  1  0
  2 23  1  0
  2 24  1  0
  4 25  1  0
  4 26  1  0
  5 27  1  0
  5 28  1  0
  5 29  1  0
  6 30  1  0
  6 31  1  0
  7 32  1  0
  7 33  1  0
 10 34  1  0
 11 35  1  0
 14 36  1  0
 15 37  1  0
 18 38  1  0
 18 39  1  0
 19 40  1  0
 19 41  1  0
M  END
>  <smiles>  (13) 
CCN(CC)CCOc1ccc2c(c1)NC(=O)CC2

>  <score_type>  (13) 
oracle

>  <origin>  (13) 
adg

>  <m_score__min__energy>  (13) 
-6.7699999999999996

>  <m_primary>  (13) 
energy

$$$$
13:0
     RDKit          3D

 54 57  0  0  1  0  0  0  0  0999 V2000
   50.2790   25.9440   41.7230 C   0  0  0  0  0  0  0  0  0  0  0  0
   50.1020   24.7930   42.6790 C   0  0  0  0  0  0  0  0  0  0  0  0
   50.9590   24.8320   43.8240 N   0  0  0  0  0  0  0  0  0  0  0  0
   50.5840   23.8710   44.8340 C   0  0  0  0  0  0  0  0  0  0  0  0
   51.8130   23.2870   45.4420 C   0  0  0  0  0  0  0  0  0  0  0  0
   52.8640   23.0680   44.5050 O   0  0  0  0  0  0  0  0  0  0  0  0
   54.1190   23.6520   44.7160 C   0  0  0  0  0  0  0  0  0  0  0  0
   54.2530   24.7130   45.6210 C   0  0  0  0  0  0  0  0  0  0  0  0
   55.5180   25.2430   45.7830 C   0  0  0  0  0  0  0  0  0  0  0  0
   56.6250   24.7690   45.0980 C   0  0  0  0  0  0  0  0  0  0  0  0
   57.8680   25.4080   45.3640 N   0  0  0  0  0  0  0  0  0  0  0  0
   57.9000   26.6940   45.3940 C   0  0  0  0  0  0  0  0  0  0  0  0
   57.3940   27.3320   44.3270 N   0  0  0  0  0  0  0  0  0  0  0  0
   57.4130   28.6560   44.3300 C   0  0  0  0  0  0  0  0  0  0  0  0
   56.9020   29.2850   43.2500 N   0  0  0  0  0  0  0  0  0  0  0  0
   56.8820   30.6280   43.1710 C   0  0  0  0  0  0  0  0  0  0  0  0
   57.4090   31.3110   44.2480 C   0  0  0  0  0  0  0  0  0  0  0  0
   57.9350   30.6830   45.3600 C   0  0  0  0  0  0  0  0  0  0  0  0
   58.3880   31.3540   46.2870 N   0  0  0  0  0  0  0  0  0  0  0  0
   59.5630   32.0040   46.5560 C   0  0  0  0  0  0  0  0  0  0  0  0
   60.7370   31.3580   47.0200 C   0  0  0  0  0  0  0  0  0  0  0  0
   61.8890   32.1030   47.1510 C   0  0  0  0  0  0  0  0  0  0  0  0
   61.9360   33.4610   46.8440 C   0  0  0  0  0  0  0  0  0  0  0  0
   63.0980   34.1370   46.9940 F   0  0  0  0  0  0  0  0  0  0  0  0
   60.7970   34.0900   46.3930 C   0  0  0  0  0  0  0  0  0  0  0  0
   59.6350   33.3860   46.2500 C   0  0  0  0  0  0  0  0  0  0  0  0
   58.1800   34.2090   45.6690 Cl  0  0  0  0  0  0  0  0  0  0  0  0
   57.9430   29.3140   45.4150 C   0  0  0  0  0  0  0  0  0  0  0  0
   58.4500   28.6450   46.4850 C   0  0  0  0  0  0  0  0  0  0  0  0
   58.4230   27.2730   46.4630 N   0  0  0  0  0  0  0  0  0  0  0  0
   56.4870   23.7220   44.2070 C   0  0  0  0  0  0  0  0  0  0  0  0
   55.2240   23.1830   44.0360 C   0  0  0  0  0  0  0  0  0  0  0  0
   50.4221   26.8745   42.2919 H   0  0  0  0  0  0  0  0  0  0  0  0
   51.1598   25.7624   41.0896 H   0  0  0  0  0  0  0  0  0  0  0  0
   49.3844   26.0354   41.0896 H   0  0  0  0  0  0  0  0  0  0  0  0
   49.0597   24.7962   43.0305 H   0  0  0  0  0  0  0  0  0  0  0  0
   50.3671   23.8821   42.1223 H   0  0  0  0  0  0  0  0  0  0  0  0
   51.9660   24.8380   43.5930 H   0  0  0  0  0  0  0  0  0  0  0  0
   49.9906   24.3708   45.6138 H   0  0  0  0  0  0  0  0  0  0  0  0
   49.9849   23.0706   44.3753 H   0  0  0  0  0  0  0  0  0  0  0  0
   52.1775   23.9752   46.2189 H   0  0  0  0  0  0  0  0  0  0  0  0
   51.5351   22.3043   45.8507 H   0  0  0  0  0  0  0  0  0  0  0  0
   53.3895   25.1062   46.1775 H   0  0  0  0  0  0  0  0  0  0  0  0
   55.6525   26.0778   46.4865 H   0  0  0  0  0  0  0  0  0  0  0  0
   56.5090   28.7210   42.4470 H   0  0  0  0  0  0  0  0  0  0  0  0
   56.4686   31.1522   42.2967 H   0  0  0  0  0  0  0  0  0  0  0  0
   57.4102   32.4106   44.2195 H   0  0  0  0  0  0  0  0  0  0  0  0
   60.7284   30.2867   47.2697 H   0  0  0  0  0  0  0  0  0  0  0  0
   62.8032   31.6081   47.5105 H   0  0  0  0  0  0  0  0  0  0  0  0
   60.8229   35.1619   46.1473 H   0  0  0  0  0  0  0  0  0  0  0  0
   58.8700   29.1884   47.3442 H   0  0  0  0  0  0  0  0  0  0  0  0
   58.7970   26.7080   47.2550 H   0  0  0  0  0  0  0  0  0  0  0  0
   57.3522   23.3300   43.6522 H   0  0  0  0  0  0  0  0  0  0  0  0
   55.0961   22.3485   43.3308 H   0  0  0  0  0  0  0  0  0  0  0  0
  1  2  1  0
  2  3  1  0
  3  4  1  0
  4  5  1  0
  5  6  1  0
  6  7  1  0
  7  8  2  0
  8  9  1  0
  9 10  2  0
 10 11  1  0
 11 12  2  0
 12 13  1  0
 13 14  2  0
 14 15  1  0
 15 16  1  0
 16 17  2  0
 17 18  1  0
 18 19  2  0
 19 20  1  0
 20 21  2  0
 21 22  1  0
 22 23  2  0
 23 24  1  0
 23 25  1  0
 25 26  2  0
 26 27  1  0
 18 28  1  0
 28 29  2  0
 29 30  1  0
 10 31  1  0
 31 32  2  0
 32  7  1  0
 30 12  1  0
 28 14  1  0
 26 20  1  0
  1 33  1  0
  1 34  1  0
  1 35  1  0
  2 36  1  0
  2 37  1  0
  3 38  1  0
  4 39  1  0
  4 40  1  0
  5 41  1  0
  5 42  1  0
  8 43  1  0
  9 44  1  0
 15 45  1  0
 16 46  1  0
 17 47  1  0
 21 48  1  0
 22 49  1  0
 25 50  1  0
 29 51  1  0
 30 52  1  0
 31 53  1  0
 32 54  1  0
M  END
>  <smiles>  (14) 
CCNCCOc1ccc(N=c2nc3[nH]ccc(=Nc4ccc(F)cc4Cl)c3c[nH]2)cc1

>  <score_type>  (14) 
oracle

>  <origin>  (14) 
adg

>  <m_score__min__energy>  (14) 
-8.4600000000000009

>  <m_primary>  (14) 
energy

$$$$
14:0
     RDKit          3D

 36 38  0  0  1  0  0  0  0  0999 V2000
   57.3580   28.7400   43.4570 C   0  0  0  0  0  0  0  0  0  0  0  0
   56.8700   30.4340   42.9810 S   0  0  0  0  0  0  0  0  0  0  0  0
   57.3890   31.6220   44.2090 C   0  0  0  0  0  0  0  0  0  0  0  0
   57.7710   32.9060   43.8990 C   0  0  0  0  0  0  0  0  0  0  0  0
   58.1610   33.7670   44.9110 C   0  0  0  0  0  0  0  0  0  0  0  0
   58.1700   33.3540   46.2310 C   0  0  0  0  0  0  0  0  0  0  0  0
   58.5890   34.2780   47.3290 C   0  0  0  0  0  0  0  0  0  0  0  0
   59.6700   35.0670   46.7970 N   0  0  0  0  0  0  0  0  0  0  0  0
   60.9190   34.5620   47.2510 C   0  0  2  0  0  0  0  0  0  0  0  0
   61.5450   33.5050   46.3800 C   0  0  0  0  0  0  0  0  0  0  0  0
   63.0030   33.3800   46.7830 C   0  0  0  0  0  0  0  0  0  0  0  0
   63.1490   33.4640   48.2410 C   0  0  0  0  0  0  0  0  0  0  0  0
   64.2880   33.3120   48.9790 N   0  0  0  0  0  0  0  0  0  0  0  0
   63.9550   33.4700   50.2510 C   0  0  0  0  0  0  0  0  0  0  0  0
   62.6400   33.7150   50.3250 N   0  0  0  0  0  0  0  0  0  0  0  0
   62.1600   33.7090   49.1020 N   0  0  0  0  0  0  0  0  0  0  0  0
   60.8030   33.9230   48.6410 C   0  0  0  0  0  0  0  0  0  0  0  0
   57.7780   32.0500   46.5100 C   0  0  0  0  0  0  0  0  0  0  0  0
   57.4060   31.2410   45.4920 N   0  0  0  0  0  0  0  0  0  0  0  0
   57.3812   28.6596   44.5538 H   0  0  0  0  0  0  0  0  0  0  0  0
   56.6304   28.0213   43.0520 H   0  0  0  0  0  0  0  0  0  0  0  0
   58.3565   28.5186   43.0520 H   0  0  0  0  0  0  0  0  0  0  0  0
   57.7668   33.2472   42.8533 H   0  0  0  0  0  0  0  0  0  0  0  0
   58.4679   34.7935   44.6617 H   0  0  0  0  0  0  0  0  0  0  0  0
   57.7508   34.9273   47.6221 H   0  0  0  0  0  0  0  0  0  0  0  0
   58.9011   33.7215   48.2251 H   0  0  0  0  0  0  0  0  0  0  0  0
   59.5550   36.0460   47.1050 H   0  0  0  0  0  0  0  0  0  0  0  0
   61.5531   35.4608   47.2413 H   0  0  0  0  0  0  0  0  0  0  0  0
   61.0312   32.5439   46.5292 H   0  0  0  0  0  0  0  0  0  0  0  0
   61.4607   33.7805   45.3184 H   0  0  0  0  0  0  0  0  0  0  0  0
   63.3912   32.4107   46.4368 H   0  0  0  0  0  0  0  0  0  0  0  0
   63.5680   34.2045   46.3237 H   0  0  0  0  0  0  0  0  0  0  0  0
   64.6446   33.4100   51.1059 H   0  0  0  0  0  0  0  0  0  0  0  0
   60.2666   32.9648   48.5767 H   0  0  0  0  0  0  0  0  0  0  0  0
   60.2415   34.5678   49.3330 H   0  0  0  0  0  0  0  0  0  0  0  0
   57.7704   31.6805   47.5461 H   0  0  0  0  0  0  0  0  0  0  0  0
  1  2  1  0
  2  3  1  0
  3  4  2  0
  4  5  1  0
  5  6  2  0
  6  7  1  0
  7  8  1  0
  8  9  1  0
  9 10  1  0
 10 11  1  0
 11 12  1  0
 12 13  2  0
 13 14  1  0
 14 15  2  0
 15 16  1  0
 16 17  1  0
  6 18  1  0
 18 19  2  0
 19  3  1  0
 17  9  1  0
 16 12  1  0
  1 20  1  0
  1 21  1  0
  1 22  1  0
  4 23  1  0
  5 24  1  0
  7 25  1  0
  7 26  1  0
  8 27  1  0
  9 28  1  1
 10 29  1  0
 10 30  1  0
 11 31  1  0
 11 32  1  0
 14 33  1  0
 17 34  1  0
 17 35  1  0
 18 36  1  0
M  END
>  <smiles>  (15) 
CSc1ccc(CNC2CCc3ncnn3C2)cn1

>  <score_type>  (15) 
oracle

>  <origin>  (15) 
adg

>  <m_score__min__energy>  (15) 
-7.0800000000000001

>  <m_primary>  (15) 
energy

$$$$
15:0
     RDKit          3D

 39 41  0  0  0  0  0  0  0  0999 V2000
   57.9920   34.4360   44.8630 C   0  0  0  0  0  0  0  0  0  0  0  0
   58.2550   32.9980   44.5590 C   0  0  0  0  0  0  0  0  0  0  0  0
   57.4280   32.1520   45.4180 N   0  0  0  0  0  0  0  0  0  0  0  0
   57.8790   32.1580   46.7590 C   0  0  0  0  0  0  0  0  0  0  0  0
   59.3210   32.0880   46.9790 C   0  0  0  0  0  0  0  0  0  0  0  0
   59.8420   30.9000   47.5030 C   0  0  0  0  0  0  0  0  0  0  0  0
   61.1940   30.7660   47.7370 C   0  0  0  0  0  0  0  0  0  0  0  0
   62.0510   31.8120   47.4560 C   0  0  0  0  0  0  0  0  0  0  0  0
   63.3560   31.9160   47.5940 O   0  0  0  0  0  0  0  0  0  0  0  0
   63.7530   33.0970   47.1980 C   0  0  0  0  0  0  0  0  0  0  0  0
   62.6500   33.8350   46.7670 C   0  0  0  0  0  0  0  0  0  0  0  0
   61.5750   32.9820   46.9460 C   0  0  0  0  0  0  0  0  0  0  0  0
   60.2180   33.1020   46.7160 C   0  0  0  0  0  0  0  0  0  0  0  0
   57.1840   30.6230   44.6980 S   0  0  0  0  0  0  0  0  0  0  0  0
   57.4100   30.8130   43.2030 O   0  0  0  0  0  0  0  0  0  0  0  0
   55.7730   30.1410   44.8170 O   0  0  0  0  0  0  0  0  0  0  0  0
   58.3590   29.4240   45.1920 C   0  0  0  0  0  0  0  0  0  0  0  0
   57.9980   28.4800   46.1410 C   0  0  0  0  0  0  0  0  0  0  0  0
   58.9450   27.5610   46.4990 C   0  0  0  0  0  0  0  0  0  0  0  0
   60.2120   27.5080   45.9920 C   0  0  0  0  0  0  0  0  0  0  0  0
   61.1110   26.5660   46.3920 F   0  0  0  0  0  0  0  0  0  0  0  0
   60.5770   28.4470   45.0470 C   0  0  0  0  0  0  0  0  0  0  0  0
   59.6470   29.4030   44.6490 C   0  0  0  0  0  0  0  0  0  0  0  0
   57.9654   34.5814   45.9530 H   0  0  0  0  0  0  0  0  0  0  0  0
   58.7919   35.0546   44.4300 H   0  0  0  0  0  0  0  0  0  0  0  0
   57.0249   34.7314   44.4300 H   0  0  0  0  0  0  0  0  0  0  0  0
   58.0120   32.7970   43.5052 H   0  0  0  0  0  0  0  0  0  0  0  0
   59.3165   32.7756   44.7430 H   0  0  0  0  0  0  0  0  0  0  0  0
   57.5179   33.0865   47.2253 H   0  0  0  0  0  0  0  0  0  0  0  0
   57.4804   31.2306   47.1961 H   0  0  0  0  0  0  0  0  0  0  0  0
   59.1652   30.0633   47.7309 H   0  0  0  0  0  0  0  0  0  0  0  0
   61.5903   29.8256   48.1477 H   0  0  0  0  0  0  0  0  0  0  0  0
   64.7937   33.4532   47.2037 H   0  0  0  0  0  0  0  0  0  0  0  0
   62.6377   34.8623   46.3739 H   0  0  0  0  0  0  0  0  0  0  0  0
   59.8361   34.0482   46.3049 H   0  0  0  0  0  0  0  0  0  0  0  0
   56.9925   28.4707   46.5870 H   0  0  0  0  0  0  0  0  0  0  0  0
   58.6656   26.8085   47.2512 H   0  0  0  0  0  0  0  0  0  0  0  0
   61.5886   28.4393   44.6150 H   0  0  0  0  0  0  0  0  0  0  0  0
   59.9297   30.1533   43.8959 H   0  0  0  0  0  0  0  0  0  0  0  0
  1  2  1  0
  2  3  1  0
  3  4  1  0
  4  5  1  0
  5  6  2  0
  6  7  1  0
  7  8  2  0
  8  9  1  0
  9 10  1  0
 10 11  2  0
 11 12  1  0
 12 13  2  0
  3 14  1  0
 14 15  2  0
 14 16  2  0
 14 17  1  0
 17 18  2  0
 18 19  1  0
 19 20  2  0
 20 21  1  0
 20 22  1  0
 22 23  2  0
 13  5  1  0
 23 17  1  0
 12  8  1  0
  1 24  1  0
  1 25  1  0
  1 26  1  0
  2 27  1  0
  2 28  1  0
  4 29  1  0
  4 30  1  0
  6 31  1  0
  7 32  1  0
 10 33  1  0
 11 34  1  0
 13 35  1  0
 18 36  1  0
 19 37  1  0
 22 38  1  0
 23 39  1  0
M  END
>  <smiles>  (16) 
CCN(Cc1ccc2occc2c1)S(=O)(=O)c1ccc(F)cc1

>  <score_type>  (16) 
oracle

>  <origin>  (16) 
adg

>  <m_score__min__energy>  (16) 
-8.2100000000000009

>  <m_primary>  (16) 
energy

$$$$
16:0
     RDKit          3D

 52 53  0  0  0  0  0  0  0  0999 V2000
   56.2620   29.7260   42.9250 C   0  0  0  0  0  0  0  0  0  0  0  0
   56.4680   29.7760   44.4360 C   0  0  0  0  0  0  0  0  0  0  0  0
   56.4810   31.1550   44.7790 O   0  0  0  0  0  0  0  0  0  0  0  0
   57.4810   32.0120   44.3440 C   0  0  0  0  0  0  0  0  0  0  0  0
   58.0960   31.8380   43.2750 O   0  0  0  0  0  0  0  0  0  0  0  0
   57.8290   33.1370   45.1410 N   0  0  0  0  0  0  0  0  0  0  0  0
   58.8620   34.0580   44.7340 C   0  0  0  0  0  0  0  0  0  0  0  0
   59.7850   34.4420   45.8440 C   0  0  0  0  0  0  0  0  0  0  0  0
   59.1550   34.5650   47.1920 C   0  0  0  0  0  0  0  0  0  0  0  0
   60.2460   34.5780   48.2450 C   0  0  0  0  0  0  0  0  0  0  0  0
   60.3360   33.2890   48.8300 N   0  0  0  0  0  0  0  0  0  0  0  0
   61.2070   32.1410   47.9310 S   0  0  0  0  0  0  0  0  0  0  0  0
   62.3540   31.6170   48.8000 O   0  0  0  0  0  0  0  0  0  0  0  0
   61.9390   32.8040   46.7580 O   0  0  0  0  0  0  0  0  0  0  0  0
   60.3160   30.7780   47.3600 C   0  0  0  0  0  0  0  0  0  0  0  0
   60.4450   30.1700   46.1460 C   0  0  0  0  0  0  0  0  0  0  0  0
   59.6560   29.0880   45.7620 C   0  0  0  0  0  0  0  0  0  0  0  0
   59.8450   28.5120   44.5000 O   0  0  0  0  0  0  0  0  0  0  0  0
   58.8950   27.6380   43.9430 C   0  0  0  0  0  0  0  0  0  0  0  0
   58.6940   28.5750   46.6020 C   0  0  0  0  0  0  0  0  0  0  0  0
   58.5630   29.1960   47.8380 C   0  0  0  0  0  0  0  0  0  0  0  0
   59.3360   30.2540   48.2130 C   0  0  0  0  0  0  0  0  0  0  0  0
   59.1370   30.8150   49.4670 O   0  0  0  0  0  0  0  0  0  0  0  0
   59.4370   30.1060   50.6460 C   0  0  0  0  0  0  0  0  0  0  0  0
   58.2500   33.3640   47.4590 C   0  0  0  0  0  0  0  0  0  0  0  0
   57.1600   33.4120   46.4050 C   0  0  0  0  0  0  0  0  0  0  0  0
   55.2144   29.4717   42.7060 H   0  0  0  0  0  0  0  0  0  0  0  0
   56.4997   30.7079   42.4898 H   0  0  0  0  0  0  0  0  0  0  0  0
   56.9234   28.9623   42.4898 H   0  0  0  0  0  0  0  0  0  0  0  0
   55.6447   29.2605   44.9522 H   0  0  0  0  0  0  0  0  0  0  0  0
   57.4010   29.2755   44.7344 H   0  0  0  0  0  0  0  0  0  0  0  0
   59.4540   33.5873   43.9353 H   0  0  0  0  0  0  0  0  0  0  0  0
   58.3623   34.9772   44.3943 H   0  0  0  0  0  0  0  0  0  0  0  0
   60.5744   33.6785   45.9075 H   0  0  0  0  0  0  0  0  0  0  0  0
   60.1574   35.4460   45.5926 H   0  0  0  0  0  0  0  0  0  0  0  0
   58.5636   35.4918   47.2282 H   0  0  0  0  0  0  0  0  0  0  0  0
   61.2069   34.8392   47.7777 H   0  0  0  0  0  0  0  0  0  0  0  0
   60.0078   35.3225   49.0190 H   0  0  0  0  0  0  0  0  0  0  0  0
   59.5000   32.9320   49.2990 H   0  0  0  0  0  0  0  0  0  0  0  0
   61.2014   30.5487   45.4428 H   0  0  0  0  0  0  0  0  0  0  0  0
   58.3449   27.1319   44.7500 H   0  0  0  0  0  0  0  0  0  0  0  0
   58.1903   28.2101   43.3216 H   0  0  0  0  0  0  0  0  0  0  0  0
   59.4065   26.8882   43.3216 H   0  0  0  0  0  0  0  0  0  0  0  0
   58.0642   27.7213   46.3112 H   0  0  0  0  0  0  0  0  0  0  0  0
   57.8059   28.8190   48.5413 H   0  0  0  0  0  0  0  0  0  0  0  0
   59.1767   30.7211   51.5200 H   0  0  0  0  0  0  0  0  0  0  0  0
   58.8572   29.1715   50.6695 H   0  0  0  0  0  0  0  0  0  0  0  0
   60.5115   29.8715   50.6695 H   0  0  0  0  0  0  0  0  0  0  0  0
   58.8225   32.4287   47.3730 H   0  0  0  0  0  0  0  0  0  0  0  0
   57.8275   33.3986   48.4740 H   0  0  0  0  0  0  0  0  0  0  0  0
   56.3943   32.6490   46.6087 H   0  0  0  0  0  0  0  0  0  0  0  0
   56.6471   34.3850   46.3922 H   0  0  0  0  0  0  0  0  0  0  0  0
  1  2  1  0
  2  3  1  0
  3  4  1  0
  4  5  2  0
  4  6  1  0
  6  7  1  0
  7  8  1  0
  8  9  1  0
  9 10  1  0
 10 11  1  0
 11 12  1  0
 12 13  2  0
 12 14  2  0
 12 15  1  0
 15 16  2  0
 16 17  1  0
 17 18  1  0
 18 19  1  0
 17 20  2  0
 20 21  1  0
 21 22  2  0
 22 23  1  0
 23 24  1  0
  9 25  1  0
 25 26  1  0
 26  6  1  0
 22 15  1  0
  1 27  1  0
  1 28  1  0
  1 29  1  0
  2 30  1  0
  2 31  1  0
  7 32  1  0
  7 33  1  0
  8 34  1  0
  8 35  1  0
  9 36  1  0
 10 37  1  0
 10 38  1  0
 11 39  1  0
 16 40  1  0
 19 41  1  0
 19 42  1  0
 19 43  1  0
 20 44  1  0
 21 45  1  0
 24 46  1  0
 24 47  1  0
 24 48  1  0
 25 49  1  0
 25 50  1  0
 26 51  1  0
 26 52  1  0
M  END
>  <smiles>  (17) 
CCOC(=O)N1CCC(CNS(=O)(=O)c2cc(OC)ccc2OC)CC1

>  <score_type>  (17) 
oracle

>  <origin>  (17) 
adg

>  <m_score__min__energy>  (17) 
-8.0700000000000003

>  <m_primary>  (17) 
energy

$$$$
17:0
     RDKit          3D

 44 46  0  0  1  0  0  0  0  0999 V2000
   57.5540   26.9100   46.1960 C   0  0  0  0  0  0  0  0  0  0  0  0
   57.6230   28.3630   45.9120 C   0  0  0  0  0  0  0  0  0  0  0  0
   58.2280   28.7980   44.7390 N   0  0  0  0  0  0  0  0  0  0  0  0
   57.3750   29.1830   43.6620 C   0  0  0  0  0  0  0  0  0  0  0  0
   56.0420   29.7420   44.1120 C   0  0  0  0  0  0  0  0  0  0  0  0
   59.5430   29.2720   44.7060 C   0  0  0  0  0  0  0  0  0  0  0  0
   60.2940   29.3290   45.9900 C   0  0  0  0  0  0  0  0  0  0  0  0
   60.0130   30.3690   46.9020 N   0  0  0  0  0  0  0  0  0  0  0  0
   60.2980   31.5750   46.7510 C   0  0  0  0  0  0  0  0  0  0  0  0
   59.2770   32.4580   46.1730 C   0  0  0  0  0  0  0  0  0  0  0  0
   58.0520   31.9920   45.8020 C   0  0  0  0  0  0  0  0  0  0  0  0
   57.0790   32.7990   45.2580 C   0  0  0  0  0  0  0  0  0  0  0  0
   57.3460   34.1460   45.0750 C   0  0  0  0  0  0  0  0  0  0  0  0
   58.5910   34.6020   45.4550 C   0  0  0  0  0  0  0  0  0  0  0  0
   59.5530   33.7890   45.9950 C   0  0  0  0  0  0  0  0  0  0  0  0
   60.8430   34.3680   46.3590 C   0  0  0  0  0  0  0  0  0  0  0  0
   61.7910   33.4300   46.9290 N   0  0  0  0  0  0  0  0  0  0  0  0
   63.0530   33.7650   47.3520 C   0  0  0  0  0  0  0  0  0  0  0  0
   63.5960   32.5950   47.8160 C   0  0  0  0  0  0  0  0  0  0  0  0
   62.6720   31.5490   47.6790 C   0  0  0  0  0  0  0  0  0  0  0  0
   61.5710   32.1320   47.1210 C   0  0  0  0  0  0  0  0  0  0  0  0
   57.5464   26.7490   47.2841 H   0  0  0  0  0  0  0  0  0  0  0  0
   56.6351   26.4939   45.7573 H   0  0  0  0  0  0  0  0  0  0  0  0
   58.4294   26.4087   45.7573 H   0  0  0  0  0  0  0  0  0  0  0  0
   56.5885   28.7368   45.8974 H   0  0  0  0  0  0  0  0  0  0  0  0
   58.2793   28.7527   46.7041 H   0  0  0  0  0  0  0  0  0  0  0  0
   57.8911   29.9514   43.0677 H   0  0  0  0  0  0  0  0  0  0  0  0
   57.1626   28.2745   43.0793 H   0  0  0  0  0  0  0  0  0  0  0  0
   56.0034   29.7582   45.2112 H   0  0  0  0  0  0  0  0  0  0  0  0
   55.9243   30.7653   43.7259 H   0  0  0  0  0  0  0  0  0  0  0  0
   55.2297   29.1087   43.7259 H   0  0  0  0  0  0  0  0  0  0  0  0
   60.1091   28.6209   44.0237 H   0  0  0  0  0  0  0  0  0  0  0  0
   59.4504   30.3225   44.3931 H   0  0  0  0  0  0  0  0  0  0  0  0
   60.1070   28.3807   46.5151 H   0  0  0  0  0  0  0  0  0  0  0  0
   61.3314   29.5233   45.6802 H   0  0  0  0  0  0  0  0  0  0  0  0
   57.8308   30.9238   45.9434 H   0  0  0  0  0  0  0  0  0  0  0  0
   56.1027   32.3803   44.9724 H   0  0  0  0  0  0  0  0  0  0  0  0
   56.5952   34.8246   44.6439 H   0  0  0  0  0  0  0  0  0  0  0  0
   58.8227   35.6686   45.3182 H   0  0  0  0  0  0  0  0  0  0  0  0
   61.2921   34.8004   45.4527 H   0  0  0  0  0  0  0  0  0  0  0  0
   60.6381   35.1148   47.1402 H   0  0  0  0  0  0  0  0  0  0  0  0
   63.5263   34.7576   47.3246 H   0  0  0  0  0  0  0  0  0  0  0  0
   64.6081   32.4917   48.2344 H   0  0  0  0  0  0  0  0  0  0  0  0
   62.8049   30.4935   47.9589 H   0  0  0  0  0  0  0  0  0  0  0  0
  1  2  1  0
  2  3  1  0
  3  4  1  0
  4  5  1  0
  3  6  1  0
  6  7  1  0
  7  8  1  0
  8  9  2  0
  9 10  1  0
 10 11  2  0
 11 12  1  0
 12 13  2  0
 13 14  1  0
 14 15  2  0
 15 16  1  0
 16 17  1  0
 17 18  1  0
 18 19  2  0
 19 20  1  0
 20 21  2  0
 21  9  1  0
 15 10  1  0
 21 17  1  0
  1 22  1  0
  1 23  1  0
  1 24  1  0
  2 25  1  0
  2 26  1  0
  4 27  1  0
  4 28  1  0
  5 29  1  0
  5 30  1  0
  5 31  1  0
  6 32  1  0
  6 33  1  0
  7 34  1  0
  7 35  1  0
 11 36  1  0
 12 37  1  0
 13 38  1  0
 14 39  1  0
 16 40  1  0
 16 41  1  0
 18 42  1  0
 19 43  1  0
 20 44  1  0
M  END
>  <smiles>  (18) 
CCN(CC)CCN=C1c2ccccc2Cn2cccc21

>  <score_type>  (18) 
oracle

>  <origin>  (18) 
adg

>  <m_score__min__energy>  (18) 
-6.75

>  <m_primary>  (18) 
energy

$$$$
18:0
     RDKit          3D

 39 41  0  0  1  0  0  0  0  0999 V2000
   57.3890   25.0820   44.0400 C   0  0  0  0  0  0  0  0  0  0  0  0
   58.1180   25.7730   45.0460 O   0  0  0  0  0  0  0  0  0  0  0  0
   58.2130   27.1520   45.0460 C   0  0  0  0  0  0  0  0  0  0  0  0
   59.3910   27.8430   44.8660 C   0  0  0  0  0  0  0  0  0  0  0  0
   59.3780   29.2320   44.8820 C   0  0  0  0  0  0  0  0  0  0  0  0
   58.2030   29.9280   45.0770 C   0  0  0  0  0  0  0  0  0  0  0  0
   58.1630   31.3600   45.0980 N   0  0  0  0  0  0  0  0  0  0  0  0
   57.8070   32.0920   44.0550 C   0  0  0  0  0  0  0  0  0  0  0  0
   57.4000   31.5980   42.7240 C   0  0  0  0  0  0  0  0  0  0  0  0
   57.8940   33.4250   44.4680 C   0  0  0  0  0  0  0  0  0  0  0  0
   58.3060   33.4960   45.7740 C   0  0  0  0  0  0  0  0  0  0  0  0
   58.5540   34.5790   46.6680 C   0  0  0  0  0  0  0  0  0  0  0  0
   59.6430   35.1340   46.9910 N   0  0  0  0  0  0  0  0  0  0  0  0
   60.7590   34.4170   47.3220 N   0  0  0  0  0  0  0  0  0  0  0  0
   61.6670   33.8420   46.4750 C   0  0  0  0  0  0  0  0  0  0  0  0
   62.6220   33.2560   47.2000 N   0  0  0  0  0  0  0  0  0  0  0  0
   62.3490   33.4430   48.4740 N   0  0  0  0  0  0  0  0  0  0  0  0
   61.2140   34.1500   48.5840 C   0  0  0  0  0  0  0  0  0  0  0  0
   58.4660   32.1500   46.1390 C   0  0  0  0  0  0  0  0  0  0  0  0
   58.9010   31.6040   47.4530 C   0  0  0  0  0  0  0  0  0  0  0  0
   57.0150   29.2540   45.2600 C   0  0  0  0  0  0  0  0  0  0  0  0
   57.0490   27.8740   45.2390 C   0  0  0  0  0  0  0  0  0  0  0  0
   56.6683   24.3989   44.5133 H   0  0  0  0  0  0  0  0  0  0  0  0
   56.8494   25.8081   43.4141 H   0  0  0  0  0  0  0  0  0  0  0  0
   58.0852   24.5044   43.4141 H   0  0  0  0  0  0  0  0  0  0  0  0
   60.3345   27.2992   44.7108 H   0  0  0  0  0  0  0  0  0  0  0  0
   60.3179   29.7847   44.7371 H   0  0  0  0  0  0  0  0  0  0  0  0
   56.7047   30.7540   42.8430 H   0  0  0  0  0  0  0  0  0  0  0  0
   56.9029   32.4071   42.1688 H   0  0  0  0  0  0  0  0  0  0  0  0
   58.2893   31.2649   42.1688 H   0  0  0  0  0  0  0  0  0  0  0  0
   57.6643   34.2944   43.8344 H   0  0  0  0  0  0  0  0  0  0  0  0
   57.6586   34.9964   47.1518 H   0  0  0  0  0  0  0  0  0  0  0  0
   61.6178   33.8599   45.3762 H   0  0  0  0  0  0  0  0  0  0  0  0
   60.7338   34.4603   49.5238 H   0  0  0  0  0  0  0  0  0  0  0  0
   58.4375   32.1858   48.2634 H   0  0  0  0  0  0  0  0  0  0  0  0
   58.5911   30.5516   47.5335 H   0  0  0  0  0  0  0  0  0  0  0  0
   59.9960   31.6709   47.5335 H   0  0  0  0  0  0  0  0  0  0  0  0
   56.0715   29.7972   45.4175 H   0  0  0  0  0  0  0  0  0  0  0  0
   56.1075   27.3235   45.3823 H   0  0  0  0  0  0  0  0  0  0  0  0
  1  2  1  0
  2  3  1  0
  3  4  2  0
  4  5  1  0
  5  6  2  0
  6  7  1  0
  7  8  1  0
  8  9  1  0
  8 10  2  0
 10 11  1  0
 11 12  1  0
 12 13  2  0
 13 14  1  0
 14 15  1  0
 15 16  2  0
 16 17  1  0
 17 18  2  0
 11 19  2  0
 19 20  1  0
  6 21  1  0
 21 22  2  0
 22  3  1  0
 19  7  1  0
 18 14  1  0
  1 23  1  0
  1 24  1  0
  1 25  1  0
  4 26  1  0
  5 27  1  0
  9 28  1  0
  9 29  1  0
  9 30  1  0
 10 31  1  0
 12 32  1  0
 15 33  1  0
 18 34  1  0
 20 35  1  0
 20 36  1  0
 20 37  1  0
 21 38  1  0
 22 39  1  0
M  END
>  <smiles>  (19) 
COc1ccc(-n2c(C)cc(C=Nn3cnnc3)c2C)cc1

>  <score_type>  (19) 
oracle

>  <origin>  (19) 
adg

>  <m_score__min__energy>  (19) 
-6.9400000000000004

>  <m_primary>  (19) 
energy

$$$$
19:0
     RDKit          3D

 39 41  0  0  0  0  0  0  0  0999 V2000
   63.0100   34.2130   49.4680 C   0  0  0  0  0  0  0  0  0  0  0  0
   63.3900   33.1980   48.6040 N   0  0  0  0  0  0  0  0  0  0  0  0
   63.5660   31.8930   49.0520 C   0  0  0  0  0  0  0  0  0  0  0  0
   63.7480   33.4420   47.2700 C   0  0  0  0  0  0  0  0  0  0  0  0
   62.5640   33.8440   46.3970 C   0  0  0  0  0  0  0  0  0  0  0  0
   61.3360   33.5690   47.0900 N   0  0  0  0  0  0  0  0  0  0  0  0
   60.4480   32.5080   46.8110 C   0  0  0  0  0  0  0  0  0  0  0  0
   60.6720   31.1940   47.1430 C   0  0  0  0  0  0  0  0  0  0  0  0
   59.7640   30.2130   46.8140 C   0  0  0  0  0  0  0  0  0  0  0  0
   60.0290   28.5570   47.2230 S   0  0  0  0  0  0  0  0  0  0  0  0
   58.7660   27.5210   46.7120 C   0  0  0  0  0  0  0  0  0  0  0  0
   58.7850   26.1610   46.9420 C   0  0  0  0  0  0  0  0  0  0  0  0
   57.7500   25.3550   46.5160 C   0  0  0  0  0  0  0  0  0  0  0  0
   56.7080   25.9810   45.8540 C   0  0  0  0  0  0  0  0  0  0  0  0
   56.6940   27.3440   45.6260 C   0  0  0  0  0  0  0  0  0  0  0  0
   57.7440   28.1690   46.0560 C   0  0  0  0  0  0  0  0  0  0  0  0
   57.6700   29.4930   45.8030 C   0  0  0  0  0  0  0  0  0  0  0  0
   56.6340   29.9150   45.1770 O   0  0  0  0  0  0  0  0  0  0  0  0
   58.5870   30.4550   46.1420 C   0  0  0  0  0  0  0  0  0  0  0  0
   58.3550   31.7940   45.8000 C   0  0  0  0  0  0  0  0  0  0  0  0
   59.2580   32.7710   46.1270 C   0  0  0  0  0  0  0  0  0  0  0  0
   58.8900   34.4310   45.6590 Cl  0  0  0  0  0  0  0  0  0  0  0  0
   63.1361   33.8761   50.5075 H   0  0  0  0  0  0  0  0  0  0  0  0
   63.6373   35.0991   49.2911 H   0  0  0  0  0  0  0  0  0  0  0  0
   61.9550   34.4693   49.2911 H   0  0  0  0  0  0  0  0  0  0  0  0
   63.5678   31.8800   50.1519 H   0  0  0  0  0  0  0  0  0  0  0  0
   62.7446   31.2634   48.6792 H   0  0  0  0  0  0  0  0  0  0  0  0
   64.5248   31.5035   48.6792 H   0  0  0  0  0  0  0  0  0  0  0  0
   64.4898   34.2540   47.2495 H   0  0  0  0  0  0  0  0  0  0  0  0
   64.1528   32.5040   46.8621 H   0  0  0  0  0  0  0  0  0  0  0  0
   62.6240   34.9191   46.1719 H   0  0  0  0  0  0  0  0  0  0  0  0
   62.5903   33.2684   45.4600 H   0  0  0  0  0  0  0  0  0  0  0  0
   61.0860   34.2260   47.8810 H   0  0  0  0  0  0  0  0  0  0  0  0
   61.5921   30.9212   47.6806 H   0  0  0  0  0  0  0  0  0  0  0  0
   59.6379   25.7129   47.4728 H   0  0  0  0  0  0  0  0  0  0  0  0
   57.7525   24.2694   46.6934 H   0  0  0  0  0  0  0  0  0  0  0  0
   55.8631   25.3735   45.4976 H   0  0  0  0  0  0  0  0  0  0  0  0
   55.8407   27.7919   45.0956 H   0  0  0  0  0  0  0  0  0  0  0  0
   57.4348   32.0644   45.2614 H   0  0  0  0  0  0  0  0  0  0  0  0
  1  2  1  0
  2  3  1  0
  2  4  1  0
  4  5  1  0
  5  6  1  0
  6  7  1  0
  7  8  2  0
  8  9  1  0
  9 10  1  0
 10 11  1  0
 11 12  2  0
 12 13  1  0
 13 14  2  0
 14 15  1  0
 15 16  2  0
 16 17  1  0
 17 18  2  0
 17 19  1  0
 19 20  1  0
 20 21  2  0
 21 22  1  0
 21  7  1  0
 19  9  2  0
 16 11  1  0
  1 23  1  0
  1 24  1  0
  1 25  1  0
  3 26  1  0
  3 27  1  0
  3 28  1  0
  4 29  1  0
  4 30  1  0
  5 31  1  0
  5 32  1  0
  6 33  1  0
  8 34  1  0
 12 35  1  0
 13 36  1  0
 14 37  1  0
 15 38  1  0
 20 39  1  0
M  END
>  <smiles>  (20) 
CN(C)CCNc1cc2sc3ccccc3c(=O)c2cc1Cl

>  <score_type>  (20) 
oracle

>  <origin>  (20) 
adg

>  <m_score__min__energy>  (20) 
-7.4699999999999998

>  <m_primary>  (20) 
energy

$$$$
20:0
     RDKit          3D

 62 65  0  0  0  0  0  0  0  0999 V2000
   57.9210   26.7790   46.2420 C   0  0  0  0  0  0  0  0  0  0  0  0
   56.8140   27.4130   45.6150 O   0  0  0  0  0  0  0  0  0  0  0  0
   57.0110   28.6750   45.0690 C   0  0  0  0  0  0  0  0  0  0  0  0
   58.3030   29.2000   45.1570 C   0  0  0  0  0  0  0  0  0  0  0  0
   58.5430   30.4500   44.6280 C   0  0  0  0  0  0  0  0  0  0  0  0
   57.5470   31.2060   44.0130 C   0  0  0  0  0  0  0  0  0  0  0  0
   57.8250   32.5530   43.4550 C   0  0  0  0  0  0  0  0  0  0  0  0
   57.7490   33.5460   44.5150 N   0  0  0  0  0  0  0  0  0  0  0  0
   57.3730   32.9080   45.7250 C   0  0  0  0  0  0  0  0  0  0  0  0
   57.5450   33.7570   46.9740 C   0  0  0  0  0  0  0  0  0  0  0  0
   58.9660   34.1610   46.9390 N   0  0  0  0  0  0  0  0  0  0  0  0
   59.8210   33.7540   47.9720 C   0  0  0  0  0  0  0  0  0  0  0  0
   59.3250   33.0520   48.9010 O   0  0  0  0  0  0  0  0  0  0  0  0
   61.2450   34.1610   47.9300 C   0  0  0  0  0  0  0  0  0  0  0  0
   61.9230   33.5080   46.7270 C   0  0  0  0  0  0  0  0  0  0  0  0
   63.1920   32.9080   47.1960 C   0  0  0  0  0  0  0  0  0  0  0  0
   64.1540   32.6820   46.3800 O   0  0  0  0  0  0  0  0  0  0  0  0
   63.3420   32.5780   48.5730 N   0  0  0  0  0  0  0  0  0  0  0  0
   62.6580   31.4330   49.1410 C   0  0  0  0  0  0  0  0  0  0  0  0
   62.9800   31.3720   50.6080 C   0  0  0  0  0  0  0  0  0  0  0  0
   64.4520   31.4220   50.7830 C   0  0  0  0  0  0  0  0  0  0  0  0
   65.1790   30.5030   51.4980 C   0  0  0  0  0  0  0  0  0  0  0  0
   66.5520   30.6600   51.5980 C   0  0  0  0  0  0  0  0  0  0  0  0
   67.1960   31.7220   50.9900 C   0  0  0  0  0  0  0  0  0  0  0  0
   66.4620   32.6620   50.2590 C   0  0  0  0  0  0  0  0  0  0  0  0
   65.1000   32.5000   50.1640 C   0  0  0  0  0  0  0  0  0  0  0  0
   64.2080   33.4240   49.4110 C   0  0  0  0  0  0  0  0  0  0  0  0
   59.3460   34.9600   45.8000 C   0  0  0  0  0  0  0  0  0  0  0  0
   58.9240   34.3410   44.5160 C   0  0  0  0  0  0  0  0  0  0  0  0
   56.2900   30.6380   43.9540 C   0  0  0  0  0  0  0  0  0  0  0  0
   55.9990   29.3910   44.4670 C   0  0  0  0  0  0  0  0  0  0  0  0
   57.8096   26.8428   47.3345 H   0  0  0  0  0  0  0  0  0  0  0  0
   57.9587   25.7224   45.9384 H   0  0  0  0  0  0  0  0  0  0  0  0
   58.8514   27.2812   45.9384 H   0  0  0  0  0  0  0  0  0  0  0  0
   59.1106   28.6284   45.6378 H   0  0  0  0  0  0  0  0  0  0  0  0
   59.5590   30.8664   44.6938 H   0  0  0  0  0  0  0  0  0  0  0  0
   58.8324   32.5654   43.0134 H   0  0  0  0  0  0  0  0  0  0  0  0
   57.0802   32.7881   42.6804 H   0  0  0  0  0  0  0  0  0  0  0  0
   56.3130   32.6246   45.6473 H   0  0  0  0  0  0  0  0  0  0  0  0
   58.0457   32.0455   45.8421 H   0  0  0  0  0  0  0  0  0  0  0  0
   56.8871   34.6380   46.9415 H   0  0  0  0  0  0  0  0  0  0  0  0
   57.2817   33.2146   47.8941 H   0  0  0  0  0  0  0  0  0  0  0  0
   61.3116   35.2553   47.8398 H   0  0  0  0  0  0  0  0  0  0  0  0
   61.7469   33.8394   48.8545 H   0  0  0  0  0  0  0  0  0  0  0  0
   61.2715   32.7268   46.3083 H   0  0  0  0  0  0  0  0  0  0  0  0
   62.1167   34.2541   45.9422 H   0  0  0  0  0  0  0  0  0  0  0  0
   61.5722   31.5418   49.0026 H   0  0  0  0  0  0  0  0  0  0  0  0
   62.9859   30.5092   48.6419 H   0  0  0  0  0  0  0  0  0  0  0  0
   62.5184   32.2276   51.1226 H   0  0  0  0  0  0  0  0  0  0  0  0
   62.5869   30.4379   51.0357 H   0  0  0  0  0  0  0  0  0  0  0  0
   64.6782   29.6533   51.9851 H   0  0  0  0  0  0  0  0  0  0  0  0
   67.1397   29.9275   52.1707 H   0  0  0  0  0  0  0  0  0  0  0  0
   68.2871   31.8278   51.0813 H   0  0  0  0  0  0  0  0  0  0  0  0
   66.9630   33.5113   49.7714 H   0  0  0  0  0  0  0  0  0  0  0  0
   63.5991   34.0174   50.1090 H   0  0  0  0  0  0  0  0  0  0  0  0
   64.7902   34.1278   48.7980 H   0  0  0  0  0  0  0  0  0  0  0  0
   58.8746   35.9499   45.8882 H   0  0  0  0  0  0  0  0  0  0  0  0
   60.4431   35.0392   45.7931 H   0  0  0  0  0  0  0  0  0  0  0  0
   58.7676   35.1570   43.7952 H   0  0  0  0  0  0  0  0  0  0  0  0
   59.7328   33.6367   44.2713 H   0  0  0  0  0  0  0  0  0  0  0  0
   55.4807   31.2079   43.4743 H   0  0  0  0  0  0  0  0  0  0  0  0
   54.9821   28.9774   44.3971 H   0  0  0  0  0  0  0  0  0  0  0  0
  1  2  1  0
  2  3  1  0
  3  4  2  0
  4  5  1  0
  5  6  2  0
  6  7  1  0
  7  8  1  0
  8  9  1  0
  9 10  1  0
 10 11  1  0
 11 12  1  0
 12 13  2  0
 12 14  1  0
 14 15  1  0
 15 16  1  0
 16 17  2  0
 16 18  1  0
 18 19  1  0
 19 20  1  0
 20 21  1  0
 21 22  2  0
 22 23  1  0
 23 24  2  0
 24 25  1  0
 25 26  2  0
 26 27  1  0
 11 28  1  0
 28 29  1  0
  6 30  1  0
 30 31  2  0
 31  3  1  0
 29  8  1  0
 27 18  1  0
 26 21  1  0
  1 32  1  0
  1 33  1  0
  1 34  1  0
  4 35  1  0
  5 36  1  0
  7 37  1  0
  7 38  1  0
  9 39  1  0
  9 40  1  0
 10 41  1  0
 10 42  1  0
 14 43  1  0
 14 44  1  0
 15 45  1  0
 15 46  1  0
 19 47  1  0
 19 48  1  0
 20 49  1  0
 20 50  1  0
 22 51  1  0
 23 52  1  0
 24 53  1  0
 25 54  1  0
 27 55  1  0
 27 56  1  0
 28 57  1  0
 28 58  1  0
 29 59  1  0
 29 60  1  0
 30 61  1  0
 31 62  1  0
M  END
>  <smiles>  (21) 
COc1ccc(CN2CCN(C(=O)CCC(=O)N3CCc4ccccc4C3)CC2)cc1

>  <score_type>  (21) 
oracle

>  <origin>  (21) 
adg

>  <m_score__min__energy>  (21) 
-9.3599999999999994

>  <m_primary>  (21) 
energy

$$$$
21:0
     RDKit          3D

 41 43  0  0  1  0  0  0  0  0999 V2000
   57.5240   31.9750   41.9240 C   0  0  0  0  0  0  0  0  0  0  0  0
   57.5610   32.0610   43.3910 N   0  0  0  0  0  0  0  0  0  0  0  0
   58.1250   33.0620   44.1130 C   0  0  0  0  0  0  0  0  0  0  0  0
   57.9340   32.7650   45.4580 C   0  0  0  0  0  0  0  0  0  0  0  0
   57.2660   31.5990   45.4700 N   0  0  0  0  0  0  0  0  0  0  0  0
   57.0260   31.1460   44.2450 C   0  0  0  0  0  0  0  0  0  0  0  0
   56.2270   29.6880   43.6990 S   0  0  0  0  0  0  0  0  0  0  0  0
   55.1540   29.1140   44.8600 O   0  0  0  0  0  0  0  0  0  0  0  0
   57.4060   28.4260   43.2760 C   0  0  0  0  0  0  0  0  0  0  0  0
   58.4400   28.2300   44.3310 C   0  0  0  0  0  0  0  0  0  0  0  0
   59.4890   29.1170   44.5180 C   0  0  0  0  0  0  0  0  0  0  0  0
   60.4390   28.9260   45.5050 C   0  0  0  0  0  0  0  0  0  0  0  0
   60.3860   27.8370   46.3550 C   0  0  0  0  0  0  0  0  0  0  0  0
   59.3420   26.9480   46.1760 C   0  0  0  0  0  0  0  0  0  0  0  0
   58.3870   27.1450   45.1790 C   0  0  0  0  0  0  0  0  0  0  0  0
   57.3610   26.1520   45.1100 N   0  0  0  0  0  0  0  0  0  0  0  0
   56.2670   26.1230   46.0940 C   0  0  0  0  0  0  0  0  0  0  0  0
   56.2590   24.7130   46.6700 C   0  0  0  0  0  0  0  0  0  0  0  0
   56.2070   23.7230   45.6310 N   0  0  0  0  0  0  0  0  0  0  0  0
   57.3810   23.7900   44.8040 C   0  0  0  0  0  0  0  0  0  0  0  0
   57.3590   25.1370   44.0700 C   0  0  0  0  0  0  0  0  0  0  0  0
   57.1057   31.0028   41.6241 H   0  0  0  0  0  0  0  0  0  0  0  0
   56.8943   32.7839   41.5250 H   0  0  0  0  0  0  0  0  0  0  0  0
   58.5443   32.0739   41.5250 H   0  0  0  0  0  0  0  0  0  0  0  0
   58.6391   33.9463   43.7085 H   0  0  0  0  0  0  0  0  0  0  0  0
   58.2598   33.3573   46.3258 H   0  0  0  0  0  0  0  0  0  0  0  0
   56.8689   27.4774   43.1287 H   0  0  0  0  0  0  0  0  0  0  0  0
   57.9225   28.7468   42.3593 H   0  0  0  0  0  0  0  0  0  0  0  0
   59.5680   29.9973   43.8631 H   0  0  0  0  0  0  0  0  0  0  0  0
   61.2541   29.6562   45.6160 H   0  0  0  0  0  0  0  0  0  0  0  0
   61.1416   27.6843   47.1397 H   0  0  0  0  0  0  0  0  0  0  0  0
   59.2633   26.0688   46.8324 H   0  0  0  0  0  0  0  0  0  0  0  0
   56.4490   26.8602   46.8899 H   0  0  0  0  0  0  0  0  0  0  0  0
   55.3015   26.3751   45.6312 H   0  0  0  0  0  0  0  0  0  0  0  0
   57.1740   24.5630   47.2619 H   0  0  0  0  0  0  0  0  0  0  0  0
   55.3641   24.6013   47.2998 H   0  0  0  0  0  0  0  0  0  0  0  0
   55.3430   23.7710   45.0790 H   0  0  0  0  0  0  0  0  0  0  0  0
   58.2837   23.7185   45.4286 H   0  0  0  0  0  0  0  0  0  0  0  0
   57.3922   22.9590   44.0834 H   0  0  0  0  0  0  0  0  0  0  0  0
   58.2488   25.2404   43.4316 H   0  0  0  0  0  0  0  0  0  0  0  0
   56.4796   25.2282   43.4155 H   0  0  0  0  0  0  0  0  0  0  0  0
  1  2  1  0
  2  3  1  0
  3  4  2  0
  4  5  1  0
  5  6  2  0
  6  7  1  0
  7  8  1  1
  7  9  1  0
  9 10  1  0
 10 11  2  0
 11 12  1  0
 12 13  2  0
 13 14  1  0
 14 15  2  0
 15 16  1  0
 16 17  1  0
 17 18  1  0
 18 19  1  0
 19 20  1  0
 20 21  1  0
  6  2  1  0
 15 10  1  0
 21 16  1  0
  1 22  1  0
  1 23  1  0
  1 24  1  0
  3 25  1  0
  4 26  1  0
  9 27  1  0
  9 28  1  0
 11 29  1  0
 12 30  1  0
 13 31  1  0
 14 32  1  0
 17 33  1  0
 17 34  1  0
 18 35  1  0
 18 36  1  0
 19 37  1  0
 20 38  1  0
 20 39  1  0
 21 40  1  0
 21 41  1  0
M  CHG  2   7   1   8  -1
M  END
>  <smiles>  (22) 
Cn1ccnc1[S+]([O-])Cc1ccccc1N1CCNCC1

>  <score_type>  (22) 
oracle

>  <origin>  (22) 
adg

>  <m_score__min__energy>  (22) 
-8.2599999999999998

>  <m_primary>  (22) 
energy

$$$$
22:0
     RDKit          2D

 76 80  0  0  0  0  0  0  0  0999 V2000
    6.0000    0.0000    0.0000 C   0  0  0  0  0  0  0  0  0  0  0  0
    4.5000    0.0000    0.0000 C   0  0  0  0  0  0  0  0  0  0  0  0
    3.0000    0.0000    0.0000 C   0  0  0  0  0  0  0  0  0  0  0  0
    1.5000    0.0000    0.0000 C   0  0  0  0  0  0  0  0  0  0  0  0
    0.7500   -1.2990    0.0000 N   0  0  0  0  0  0  0  0  0  0  0  0
   -0.7500   -1.2990    0.0000 C   0  0  0  0  0  0  0  0  0  0  0  0
   -2.2124   -1.6328    0.0000 C   0  0  0  0  0  0  0  0  0  0  0  0
   -3.3851   -0.6976    0.0000 C   0  0  0  0  0  0  0  0  0  0  0  0
   -3.3851    0.8024    0.0000 C   0  0  0  0  0  0  0  0  0  0  0  0
   -4.7366    1.4532    0.0000 N   0  0  0  0  0  0  0  0  0  0  0  0
   -5.9760    0.6083    0.0000 C   0  0  0  0  0  0  0  0  0  0  0  0
   -4.8487    2.9490    0.0000 C   0  0  0  0  0  0  0  0  0  0  0  0
   -3.5156    3.6367    0.0000 O   0  0  0  0  0  0  0  0  0  0  0  0
   -6.2001    3.5999    0.0000 C   0  0  0  0  0  0  0  0  0  0  0  0
   -7.5516    4.2507    0.0000 C   0  0  0  0  0  0  0  0  0  0  0  0
   -5.5493    4.9513    0.0000 C   0  0  0  0  0  0  0  0  0  0  0  0
   -6.8510    2.2484    0.0000 C   0  0  0  0  0  0  0  0  0  0  0  0
   -2.2124    1.7376    0.0000 C   0  0  0  0  0  0  0  0  0  0  0  0
   -0.7500    1.2990    0.0000 C   0  0  0  0  0  0  0  0  0  0  0  0
   -1.5000    0.0000    0.0000 C   0  0  0  0  0  0  0  0  0  0  0  0
   -2.6789    0.2940    0.0000 O   0  0  0  0  0  0  0  0  0  0  0  0
    0.7500    1.2990    0.0000 N   0  0  0  0  0  0  0  0  0  0  0  0
    1.5000    2.5981    0.0000 C   0  0  0  0  0  0  0  0  0  0  0  0
    2.2500    3.8971    0.0000 C   0  0  0  0  0  0  0  0  0  0  0  0
    3.7500    3.8971    0.0000 C   0  0  0  0  0  0  0  0  0  0  0  0
    4.5000    5.1962    0.0000 C   0  0  0  0  0  0  0  0  0  0  0  0
    3.7500    6.4952    0.0000 C   0  0  0  0  0  0  0  0  0  0  0  0
    4.5000    7.7942    0.0000 C   0  0  0  0  0  0  0  0  0  0  0  0
    6.0000    7.7942    0.0000 C   0  0  0  0  0  0  0  0  0  0  0  0
    6.7500    9.0933    0.0000 C   0  0  0  0  0  0  0  0  0  0  0  0
    6.0000   10.3923    0.0000 C   0  0  0  0  0  0  0  0  0  0  0  0
    4.5000   10.3923    0.0000 C   0  0  0  0  0  0  0  0  0  0  0  0
    3.7500    9.0933    0.0000 C   0  0  0  0  0  0  0  0  0  0  0  0
    2.2500    9.0933    0.0000 C   0  0  0  0  0  0  0  0  0  0  0  0
    1.3683    7.8797    0.0000 N   0  0  0  0  0  0  0  0  0  0  0  0
   -0.0583    8.3433    0.0000 O   0  0  0  0  0  0  0  0  0  0  0  0
   -0.0583    9.8433    0.0000 C   0  0  0  0  0  0  0  0  0  0  0  0
   -1.2718   10.7249    0.0000 C   0  0  0  0  0  0  0  0  0  0  0  0
    1.3683   10.3068    0.0000 N   0  0  0  0  0  0  0  0  0  0  0  0
    2.2500    6.4952    0.0000 C   0  0  0  0  0  0  0  0  0  0  0  0
    1.5000    5.1962    0.0000 C   0  0  0  0  0  0  0  0  0  0  0  0
    7.5000    0.0000    0.0000 H   0  0  0  0  0  0  0  0  0  0  0  0
    6.0000   -1.5000    0.0000 H   0  0  0  0  0  0  0  0  0  0  0  0
    6.0000    1.5000    0.0000 H   0  0  0  0  0  0  0  0  0  0  0  0
    4.5000   -1.5000    0.0000 H   0  0  0  0  0  0  0  0  0  0  0  0
    4.5000    1.5000    0.0000 H   0  0  0  0  0  0  0  0  0  0  0  0
    3.0000   -1.5000    0.0000 H   0  0  0  0  0  0  0  0  0  0  0  0
    3.1828    1.4888    0.0000 H   0  0  0  0  0  0  0  0  0  0  0  0
   -2.5462   -3.0952    0.0000 H   0  0  0  0  0  0  0  0  0  0  0  0
   -4.6472   -1.5083    0.0000 H   0  0  0  0  0  0  0  0  0  0  0  0
   -7.2153   -0.2367    0.0000 H   0  0  0  0  0  0  0  0  0  0  0  0
   -6.5710    1.1387    0.0000 H   0  0  0  0  0  0  0  0  0  0  0  0
   -5.2883   -0.7249    0.0000 H   0  0  0  0  0  0  0  0  0  0  0  0
   -8.9030    4.9015    0.0000 H   0  0  0  0  0  0  0  0  0  0  0  0
   -7.2674    5.0896    0.0000 H   0  0  0  0  0  0  0  0  0  0  0  0
   -8.3623    2.9887    0.0000 H   0  0  0  0  0  0  0  0  0  0  0  0
   -4.8985    6.3028    0.0000 H   0  0  0  0  0  0  0  0  0  0  0  0
   -6.2945    5.4300    0.0000 H   0  0  0  0  0  0  0  0  0  0  0  0
   -4.1286    4.4701    0.0000 H   0  0  0  0  0  0  0  0  0  0  0  0
   -7.2780    1.3617    0.0000 H   0  0  0  0  0  0  0  0  0  0  0  0
   -8.2717    2.7297    0.0000 H   0  0  0  0  0  0  0  0  0  0  0  0
   -5.6972    1.2899    0.0000 H   0  0  0  0  0  0  0  0  0  0  0  0
   -2.5462    3.2000    0.0000 H   0  0  0  0  0  0  0  0  0  0  0  0
    2.8808    2.0120    0.0000 H   0  0  0  0  0  0  0  0  0  0  0  0
    0.2010    3.3481    0.0000 H   0  0  0  0  0  0  0  0  0  0  0  0
    4.5000    2.5981    0.0000 H   0  0  0  0  0  0  0  0  0  0  0  0
    6.0000    5.1962    0.0000 H   0  0  0  0  0  0  0  0  0  0  0  0
    6.7500    6.4952    0.0000 H   0  0  0  0  0  0  0  0  0  0  0  0
    8.2500    9.0933    0.0000 H   0  0  0  0  0  0  0  0  0  0  0  0
    6.7500   11.6913    0.0000 H   0  0  0  0  0  0  0  0  0  0  0  0
    3.7500   11.6913    0.0000 H   0  0  0  0  0  0  0  0  0  0  0  0
   -2.4853   11.6066    0.0000 H   0  0  0  0  0  0  0  0  0  0  0  0
   -0.3901   11.9385    0.0000 H   0  0  0  0  0  0  0  0  0  0  0  0
   -2.1535    9.5114    0.0000 H   0  0  0  0  0  0  0  0  0  0  0  0
    1.2080    7.5741    0.0000 H   0  0  0  0  0  0  0  0  0  0  0  0
    0.0000    5.1962    0.0000 H   0  0  0  0  0  0  0  0  0  0  0  0
  1  2  1  0
  2  3  1  0
  3  4  1  0
  4  5  2  0
  5  6  1  0
  6  7  2  0
  7  8  1  0
  8  9  2  0
  9 10  1  0
 10 11  1  0
 10 12  1  0
 12 13  2  0
 12 14  1  0
 14 15  1  0
 14 16  1  0
 14 17  1  0
  9 18  1  0
 18 19  2  0
 19 20  1  0
 20 21  2  0
 19 22  1  0
 22 23  1  0
 23 24  1  0
 24 25  2  0
 25 26  1  0
 26 27  2  0
 27 28  1  0
 28 29  2  0
 29 30  1  0
 30 31  2  0
 31 32  1  0
 32 33  2  0
 33 34  1  0
 34 35  2  0
 35 36  1  0
 36 37  1  0
 37 38  1  0
 37 39  2  0
 27 40  1  0
 40 41  2  0
 22  4  1  0
 41 24  1  0
 20  6  1  0
 33 28  1  0
 39 34  1  0
  1 42  1  0
  1 43  1  0
  1 44  1  0
  2 45  1  0
  2 46  1  0
  3 47  1  0
  3 48  1  0
  7 49  1  0
  8 50  1  0
 11 51  1  0
 11 52  1  0
 11 53  1  0
 15 54  1  0
 15 55  1  0
 15 56  1  0
 16 57  1  0
 16 58  1  0
 16 59  1  0
 17 60  1  0
 17 61  1  0
 17 62  1  0
 18 63  1  0
 23 64  1  0
 23 65  1  0
 25 66  1  0
 26 67  1  0
 29 68  1  0
 30 69  1  0
 31 70  1  0
 32 71  1  0
 38 72  1  0
 38 73  1  0
 38 74  1  0
 40 75  1  0
 41 76  1  0
M  END
>  <smiles>  (23) 
CCCc1nc2ccc(N(C)C(=O)C(C)(C)C)cc(c2=O)n1Cc1ccc(-c2ccccc2-c2noc(C)n2)cc1

>  <m_score__min__energy>  (23) 
nan

>  <m_primary>  (23) 
energy

$$$$
23:0
     RDKit          3D

 46 47  0  0  0  0  0  0  0  0999 V2000
   58.5330   34.3710   52.6860 C   0  0  0  0  0  0  0  0  0  0  0  0
   59.0670   33.5630   51.5660 C   0  0  0  0  0  0  0  0  0  0  0  0
   58.2340   32.5050   51.0610 N   0  0  0  0  0  0  0  0  0  0  0  0
   57.2150   32.1150   51.9900 C   0  0  0  0  0  0  0  0  0  0  0  0
   57.0210   30.6260   51.9750 C   0  0  0  0  0  0  0  0  0  0  0  0
   58.9760   31.4010   50.4980 C   0  0  0  0  0  0  0  0  0  0  0  0
   58.9250   31.5070   48.9970 C   0  0  0  0  0  0  0  0  0  0  0  0
   57.9850   32.5480   48.5390 N   0  0  0  0  0  0  0  0  0  0  0  0
   58.1920   33.2280   47.3040 C   0  0  0  0  0  0  0  0  0  0  0  0
   57.4160   32.9250   46.1970 C   0  0  0  0  0  0  0  0  0  0  0  0
   57.5510   33.5850   44.9850 C   0  0  0  0  0  0  0  0  0  0  0  0
   58.4890   34.5810   44.8680 C   0  0  0  0  0  0  0  0  0  0  0  0
   59.2770   34.8940   45.9740 C   0  0  0  0  0  0  0  0  0  0  0  0
   59.1490   34.2430   47.1870 C   0  0  0  0  0  0  0  0  0  0  0  0
   59.9530   34.6200   48.3210 N   0  0  0  0  0  0  0  0  0  0  0  0
   61.2700   34.1110   48.4880 C   0  0  0  0  0  0  0  0  0  0  0  0
   61.9810   34.2110   49.6620 C   0  0  0  0  0  0  0  0  0  0  0  0
   63.2720   33.6690   49.6690 C   0  0  0  0  0  0  0  0  0  0  0  0
   63.7910   33.0700   48.5470 C   0  0  0  0  0  0  0  0  0  0  0  0
   63.0830   32.9670   47.3660 C   0  0  0  0  0  0  0  0  0  0  0  0
   61.8160   33.4970   47.3470 C   0  0  0  0  0  0  0  0  0  0  0  0
   58.8333   33.9166   53.6417 H   0  0  0  0  0  0  0  0  0  0  0  0
   58.9338   35.3935   52.6242 H   0  0  0  0  0  0  0  0  0  0  0  0
   57.4352   34.4031   52.6242 H   0  0  0  0  0  0  0  0  0  0  0  0
   59.2717   34.2496   50.7313 H   0  0  0  0  0  0  0  0  0  0  0  0
   59.9500   33.0544   51.9802 H   0  0  0  0  0  0  0  0  0  0  0  0
   57.5098   32.4301   53.0018 H   0  0  0  0  0  0  0  0  0  0  0  0
   56.2698   32.5966   51.6991 H   0  0  0  0  0  0  0  0  0  0  0  0
   56.9723   30.2522   53.0084 H   0  0  0  0  0  0  0  0  0  0  0  0
   56.0837   30.3836   51.4528 H   0  0  0  0  0  0  0  0  0  0  0  0
   57.8649   30.1515   51.4528 H   0  0  0  0  0  0  0  0  0  0  0  0
   60.0213   31.4448   50.8377 H   0  0  0  0  0  0  0  0  0  0  0  0
   58.5366   30.4466   50.8235 H   0  0  0  0  0  0  0  0  0  0  0  0
   59.9312   31.7512   48.6256 H   0  0  0  0  0  0  0  0  0  0  0  0
   58.5741   30.5414   48.6040 H   0  0  0  0  0  0  0  0  0  0  0  0
   57.1900   32.7270   49.1760 H   0  0  0  0  0  0  0  0  0  0  0  0
   56.6622   32.1285   46.2830 H   0  0  0  0  0  0  0  0  0  0  0  0
   56.9154   33.3144   44.1290 H   0  0  0  0  0  0  0  0  0  0  0  0
   58.6161   35.1219   43.9187 H   0  0  0  0  0  0  0  0  0  0  0  0
   60.0301   35.6900   45.8782 H   0  0  0  0  0  0  0  0  0  0  0  0
   59.6070   35.2670   49.0370 H   0  0  0  0  0  0  0  0  0  0  0  0
   61.5549   34.6943   50.5535 H   0  0  0  0  0  0  0  0  0  0  0  0
   63.8786   33.7236   50.5850 H   0  0  0  0  0  0  0  0  0  0  0  0
   64.8094   32.6566   48.5911 H   0  0  0  0  0  0  0  0  0  0  0  0
   63.5151   32.4814   46.4786 H   0  0  0  0  0  0  0  0  0  0  0  0
   61.2191   33.4402   46.4248 H   0  0  0  0  0  0  0  0  0  0  0  0
  1  2  1  0
  2  3  1  0
  3  4  1  0
  4  5  1  0
  3  6  1  0
  6  7  1  0
  7  8  1  0
  8  9  1  0
  9 10  2  0
 10 11  1  0
 11 12  2  0
 12 13  1  0
 13 14  2  0
 14 15  1  0
 15 16  1  0
 16 17  2  0
 17 18  1  0
 18 19  2  0
 19 20  1  0
 20 21  2  0
 14  9  1  0
 21 16  1  0
  1 22  1  0
  1 23  1  0
  1 24  1  0
  2 25  1  0
  2 26  1  0
  4 27  1  0
  4 28  1  0
  5 29  1  0
  5 30  1  0
  5 31  1  0
  6 32  1  0
  6 33  1  0
  7 34  1  0
  7 35  1  0
  8 36  1  0
 10 37  1  0
 11 38  1  0
 12 39  1  0
 13 40  1  0
 15 41  1  0
 17 42  1  0
 18 43  1  0
 19 44  1  0
 20 45  1  0
 21 46  1  0
M  END
>  <smiles>  (24) 
CCN(CC)CCNc1ccccc1Nc1ccccc1

>  <score_type>  (24) 
oracle

>  <origin>  (24) 
adg

>  <m_score__min__energy>  (24) 
-5.9900000000000002

>  <m_primary>  (24) 
energy

$$$$
24:0
     RDKit          3D

 45 47  0  0  0  0  0  0  0  0999 V2000
   65.0220   33.2840   50.8880 C   0  0  0  0  0  0  0  0  0  0  0  0
   65.0440   33.4350   49.4750 O   0  0  0  0  0  0  0  0  0  0  0  0
   63.8600   33.5140   48.7640 C   0  0  0  0  0  0  0  0  0  0  0  0
   63.7320   33.2080   47.4270 C   0  0  0  0  0  0  0  0  0  0  0  0
   62.4940   33.3160   46.7810 C   0  0  0  0  0  0  0  0  0  0  0  0
   61.3740   33.7270   47.4460 C   0  0  0  0  0  0  0  0  0  0  0  0
   60.0790   33.8720   46.8970 N   0  0  0  0  0  0  0  0  0  0  0  0
   59.7100   34.7050   45.8890 C   0  0  0  0  0  0  0  0  0  0  0  0
   58.3320   34.5040   45.7260 C   0  0  0  0  0  0  0  0  0  0  0  0
   57.9080   33.5750   46.6220 N   0  0  0  0  0  0  0  0  0  0  0  0
   58.9940   33.1900   47.3390 C   0  0  0  0  0  0  0  0  0  0  0  0
   58.9870   31.9700   48.6260 S   0  0  0  0  0  0  0  0  0  0  0  0
   59.5070   30.3770   47.9500 C   0  0  0  0  0  0  0  0  0  0  0  0
   58.9530   30.2740   46.5800 C   0  0  0  0  0  0  0  0  0  0  0  0
   59.6250   29.5460   45.7680 O   0  0  0  0  0  0  0  0  0  0  0  0
   57.7780   30.8960   46.1190 N   0  0  0  0  0  0  0  0  0  0  0  0
   57.3520   30.7030   44.7810 C   0  0  0  0  0  0  0  0  0  0  0  0
   57.8610   31.6230   43.8510 C   0  0  0  0  0  0  0  0  0  0  0  0
   57.5190   31.5480   42.5160 C   0  0  0  0  0  0  0  0  0  0  0  0
   58.1590   32.6980   41.3530 Cl  0  0  0  0  0  0  0  0  0  0  0  0
   56.6520   30.5420   42.0730 C   0  0  0  0  0  0  0  0  0  0  0  0
   56.1660   29.6480   43.0260 C   0  0  0  0  0  0  0  0  0  0  0  0
   56.5020   29.7160   44.3550 C   0  0  0  0  0  0  0  0  0  0  0  0
   56.0030   28.8170   45.2810 O   0  0  0  0  0  0  0  0  0  0  0  0
   56.8290   27.6960   45.6190 C   0  0  0  0  0  0  0  0  0  0  0  0
   61.5100   34.0380   48.8080 C   0  0  0  0  0  0  0  0  0  0  0  0
   62.7270   33.9340   49.4530 C   0  0  0  0  0  0  0  0  0  0  0  0
   65.1650   34.2654   51.3639 H   0  0  0  0  0  0  0  0  0  0  0  0
   64.0532   32.8643   51.1969 H   0  0  0  0  0  0  0  0  0  0  0  0
   65.8308   32.6054   51.1969 H   0  0  0  0  0  0  0  0  0  0  0  0
   64.6133   32.8746   46.8595 H   0  0  0  0  0  0  0  0  0  0  0  0
   62.4220   33.0638   45.7127 H   0  0  0  0  0  0  0  0  0  0  0  0
   60.3554   35.3914   45.3213 H   0  0  0  0  0  0  0  0  0  0  0  0
   57.6955   35.0169   44.9899 H   0  0  0  0  0  0  0  0  0  0  0  0
   60.6052   30.3235   47.9163 H   0  0  0  0  0  0  0  0  0  0  0  0
   59.1429   29.5512   48.5789 H   0  0  0  0  0  0  0  0  0  0  0  0
   57.2410   31.4920   46.7700 H   0  0  0  0  0  0  0  0  0  0  0  0
   58.5430   32.4160   44.1915 H   0  0  0  0  0  0  0  0  0  0  0  0
   56.3654   30.4601   41.0142 H   0  0  0  0  0  0  0  0  0  0  0  0
   55.4819   28.8516   42.6977 H   0  0  0  0  0  0  0  0  0  0  0  0
   56.8952   27.6061   46.7133 H   0  0  0  0  0  0  0  0  0  0  0  0
   56.3899   26.7779   45.2016 H   0  0  0  0  0  0  0  0  0  0  0  0
   57.8360   27.8434   45.2016 H   0  0  0  0  0  0  0  0  0  0  0  0
   60.6280   34.3719   49.3742 H   0  0  0  0  0  0  0  0  0  0  0  0
   62.8009   34.1856   50.5213 H   0  0  0  0  0  0  0  0  0  0  0  0
  1  2  1  0
  2  3  1  0
  3  4  2  0
  4  5  1  0
  5  6  2  0
  6  7  1  0
  7  8  1  0
  8  9  2  0
  9 10  1  0
 10 11  2  0
 11 12  1  0
 12 13  1  0
 13 14  1  0
 14 15  2  0
 14 16  1  0
 16 17  1  0
 17 18  2  0
 18 19  1  0
 19 20  1  0
 19 21  2  0
 21 22  1  0
 22 23  2  0
 23 24  1  0
 24 25  1  0
  6 26  1  0
 26 27  2  0
 27  3  1  0
 11  7  1  0
 23 17  1  0
  1 28  1  0
  1 29  1  0
  1 30  1  0
  4 31  1  0
  5 32  1  0
  8 33  1  0
  9 34  1  0
 13 35  1  0
 13 36  1  0
 16 37  1  0
 18 38  1  0
 21 39  1  0
 22 40  1  0
 25 41  1  0
 25 42  1  0
 25 43  1  0
 26 44  1  0
 27 45  1  0
M  END
>  <smiles>  (25) 
COc1ccc(-n2ccnc2SCC(=O)Nc2cc(Cl)ccc2OC)cc1

>  <score_type>  (25) 
oracle

>  <origin>  (25) 
adg

>  <m_score__min__energy>  (25) 
-7.6299999999999999

>  <m_primary>  (25) 
energy

$$$$
25:0
     RDKit          3D

 55 59  0  0  0  0  0  0  0  0999 V2000
   63.5820   33.8700   50.1430 C   0  0  0  0  0  0  0  0  0  0  0  0
   62.8830   33.2250   48.9900 C   0  0  0  0  0  0  0  0  0  0  0  0
   62.8520   33.8310   47.7410 C   0  0  0  0  0  0  0  0  0  0  0  0
   62.1830   33.1530   46.7510 C   0  0  0  0  0  0  0  0  0  0  0  0
   61.5770   31.9730   46.9300 N   0  0  0  0  0  0  0  0  0  0  0  0
   61.5880   31.3650   48.1190 C   0  0  0  0  0  0  0  0  0  0  0  0
   60.9610   30.1440   48.2870 C   0  0  0  0  0  0  0  0  0  0  0  0
   60.2600   29.4670   47.2590 N   0  0  0  0  0  0  0  0  0  0  0  0
   58.9120   28.9660   47.5540 C   0  0  0  0  0  0  0  0  0  0  0  0
   58.5030   27.8500   46.6590 C   0  0  0  0  0  0  0  0  0  0  0  0
   58.6590   28.0880   45.2640 N   0  0  0  0  0  0  0  0  0  0  0  0
   57.4300   28.2470   44.5480 C   0  0  0  0  0  0  0  0  0  0  0  0
   56.6360   29.4440   44.9060 C   0  0  0  0  0  0  0  0  0  0  0  0
   57.1150   30.6140   44.1350 C   0  0  0  0  0  0  0  0  0  0  0  0
   56.9650   30.5920   42.7480 C   0  0  0  0  0  0  0  0  0  0  0  0
   57.3880   31.6000   41.9330 C   0  0  0  0  0  0  0  0  0  0  0  0
   57.9950   32.7040   42.4750 C   0  0  0  0  0  0  0  0  0  0  0  0
   58.1440   32.7300   43.8470 C   0  0  0  0  0  0  0  0  0  0  0  0
   58.7420   33.8220   44.3930 N   0  0  0  0  0  0  0  0  0  0  0  0
   58.9370   33.9560   45.7120 C   0  0  0  0  0  0  0  0  0  0  0  0
   58.5050   32.9310   46.5270 C   0  0  0  0  0  0  0  0  0  0  0  0
   57.8870   31.7900   46.0370 C   0  0  0  0  0  0  0  0  0  0  0  0
   57.7180   31.7130   44.6770 C   0  0  0  0  0  0  0  0  0  0  0  0
   59.7100   28.9510   44.8980 C   0  0  0  0  0  0  0  0  0  0  0  0
   60.7550   29.2380   45.9330 C   0  0  0  0  0  0  0  0  0  0  0  0
   61.0390   29.6020   49.5700 C   0  0  0  0  0  0  0  0  0  0  0  0
   61.6990   30.2380   50.6050 C   0  0  0  0  0  0  0  0  0  0  0  0
   62.3160   31.4510   50.4170 C   0  0  0  0  0  0  0  0  0  0  0  0
   62.2540   32.0070   49.1630 C   0  0  0  0  0  0  0  0  0  0  0  0
   63.1655   33.4857   51.0858 H   0  0  0  0  0  0  0  0  0  0  0  0
   64.6565   33.6394   50.0959 H   0  0  0  0  0  0  0  0  0  0  0  0
   63.4384   34.9596   50.0959 H   0  0  0  0  0  0  0  0  0  0  0  0
   63.3365   34.8008   47.5545 H   0  0  0  0  0  0  0  0  0  0  0  0
   62.1429   33.6076   45.7501 H   0  0  0  0  0  0  0  0  0  0  0  0
   58.8897   28.6086   48.5941 H   0  0  0  0  0  0  0  0  0  0  0  0
   58.2077   29.7953   47.3923 H   0  0  0  0  0  0  0  0  0  0  0  0
   59.1064   26.9683   46.9209 H   0  0  0  0  0  0  0  0  0  0  0  0
   57.4233   27.7161   46.8212 H   0  0  0  0  0  0  0  0  0  0  0  0
   57.6674   28.3057   43.4755 H   0  0  0  0  0  0  0  0  0  0  0  0
   56.8086   27.3800   44.8169 H   0  0  0  0  0  0  0  0  0  0  0  0
   55.5765   29.2623   44.6729 H   0  0  0  0  0  0  0  0  0  0  0  0
   56.7501   29.6467   45.9811 H   0  0  0  0  0  0  0  0  0  0  0  0
   56.4811   29.7174   42.2888 H   0  0  0  0  0  0  0  0  0  0  0  0
   57.2430   31.5280   40.8450 H   0  0  0  0  0  0  0  0  0  0  0  0
   58.3478   33.5328   41.8437 H   0  0  0  0  0  0  0  0  0  0  0  0
   59.4235   34.8502   46.1290 H   0  0  0  0  0  0  0  0  0  0  0  0
   58.6571   33.0221   47.6126 H   0  0  0  0  0  0  0  0  0  0  0  0
   57.5485   30.9853   46.7063 H   0  0  0  0  0  0  0  0  0  0  0  0
   60.2178   28.5040   44.0306 H   0  0  0  0  0  0  0  0  0  0  0  0
   59.2264   29.9206   44.7082 H   0  0  0  0  0  0  0  0  0  0  0  0
   61.4408   28.3788   45.9703 H   0  0  0  0  0  0  0  0  0  0  0  0
   61.2387   30.1762   45.6236 H   0  0  0  0  0  0  0  0  0  0  0  0
   60.5575   28.6325   49.7655 H   0  0  0  0  0  0  0  0  0  0  0  0
   61.7307   29.7641   51.5972 H   0  0  0  0  0  0  0  0  0  0  0  0
   62.8402   31.9580   51.2405 H   0  0  0  0  0  0  0  0  0  0  0  0
  1  2  1  0
  2  3  2  0
  3  4  1  0
  4  5  2  0
  5  6  1  0
  6  7  2  0
  7  8  1  0
  8  9  1  0
  9 10  1  0
 10 11  1  0
 11 12  1  0
 12 13  1  0
 13 14  1  0
 14 15  2  0
 15 16  1  0
 16 17  2  0
 17 18  1  0
 18 19  2  0
 19 20  1  0
 20 21  2  0
 21 22  1  0
 22 23  2  0
 11 24  1  0
 24 25  1  0
  7 26  1  0
 26 27  2  0
 27 28  1  0
 28 29  2  0
 29  2  1  0
 29  6  1  0
 25  8  1  0
 23 14  1  0
 23 18  1  0
  1 30  1  0
  1 31  1  0
  1 32  1  0
  3 33  1  0
  4 34  1  0
  9 35  1  0
  9 36  1  0
 10 37  1  0
 10 38  1  0
 12 39  1  0
 12 40  1  0
 13 41  1  0
 13 42  1  0
 15 43  1  0
 16 44  1  0
 17 45  1  0
 20 46  1  0
 21 47  1  0
 22 48  1  0
 24 49  1  0
 24 50  1  0
 25 51  1  0
 25 52  1  0
 26 53  1  0
 27 54  1  0
 28 55  1  0
M  END
>  <smiles>  (26) 
Cc1ccnc2c(N3CCN(CCc4cccc5ncccc45)CC3)cccc12

>  <score_type>  (26) 
oracle

>  <origin>  (26) 
adg

>  <m_score__min__energy>  (26) 
-8.7300000000000004

>  <m_primary>  (26) 
energy

$$$$
26:0
     RDKit          3D

 65 69  0  0  0  0  0  0  0  0999 V2000
   57.9210   33.1680   44.5140 C   0  0  0  0  0  0  0  0  0  0  0  0
   58.4660   31.9480   44.0410 O   0  0  0  0  0  0  0  0  0  0  0  0
   57.8450   30.7740   44.4580 C   0  0  0  0  0  0  0  0  0  0  0  0
   56.5090   30.5970   44.0890 C   0  0  0  0  0  0  0  0  0  0  0  0
   55.8550   29.4460   44.4810 C   0  0  0  0  0  0  0  0  0  0  0  0
   56.5430   28.5130   45.2250 C   0  0  0  0  0  0  0  0  0  0  0  0
   55.9290   27.3780   45.6230 N   0  0  0  0  0  0  0  0  0  0  0  0
   56.5890   26.4560   46.3490 C   0  0  0  0  0  0  0  0  0  0  0  0
   57.9120   26.6150   46.7240 C   0  0  0  0  0  0  0  0  0  0  0  0
   58.5800   25.6790   47.4600 F   0  0  0  0  0  0  0  0  0  0  0  0
   58.5480   27.7890   46.3120 C   0  0  0  0  0  0  0  0  0  0  0  0
   59.9630   27.9370   46.7240 C   0  0  0  0  0  0  0  0  0  0  0  0
   60.1490   27.9780   48.2250 C   0  0  0  0  0  0  0  0  0  0  0  0
   60.2930   29.3700   48.6110 N   0  0  0  0  0  0  0  0  0  0  0  0
   61.0920   30.1310   47.7320 C   0  0  0  0  0  0  0  0  0  0  0  0
   60.4450   31.1920   46.9250 C   0  0  0  0  0  0  0  0  0  0  0  0
   59.2350   31.8060   47.5880 C   0  0  0  0  0  0  0  0  0  0  0  0
   59.1250   33.2210   47.4540 N   0  0  0  0  0  0  0  0  0  0  0  0
   59.4970   33.9080   48.6940 C   0  0  0  0  0  0  0  0  0  0  0  0
   60.9600   33.7500   48.9490 C   0  0  0  0  0  0  0  0  0  0  0  0
   61.7630   33.6440   47.8110 C   0  0  0  0  0  0  0  0  0  0  0  0
   63.1190   33.4980   47.9080 C   0  0  0  0  0  0  0  0  0  0  0  0
   63.6510   33.4630   49.1950 C   0  0  0  0  0  0  0  0  0  0  0  0
   62.8600   33.5690   50.3170 C   0  0  0  0  0  0  0  0  0  0  0  0
   61.4930   33.7160   50.2240 C   0  0  0  0  0  0  0  0  0  0  0  0
   63.2970   33.5450   51.6470 O   0  0  0  0  0  0  0  0  0  0  0  0
   64.4360   33.0170   52.2440 C   0  0  0  0  0  0  0  0  0  0  0  0
   65.7410   33.3960   51.6410 C   0  0  0  0  0  0  0  0  0  0  0  0
   65.9330   33.0380   50.2360 C   0  0  0  0  0  0  0  0  0  0  0  0
   66.9950   32.4080   49.9050 O   0  0  0  0  0  0  0  0  0  0  0  0
   65.0680   33.3080   49.1270 N   0  0  0  0  0  0  0  0  0  0  0  0
   59.2250   31.4610   49.0790 C   0  0  0  0  0  0  0  0  0  0  0  0
   59.0870   29.9410   49.0960 C   0  0  0  0  0  0  0  0  0  0  0  0
   57.8610   28.7210   45.5720 C   0  0  0  0  0  0  0  0  0  0  0  0
   58.4660   29.8340   45.1820 N   0  0  0  0  0  0  0  0  0  0  0  0
   57.9212   33.1676   45.6140 H   0  0  0  0  0  0  0  0  0  0  0  0
   58.5295   34.0079   44.1475 H   0  0  0  0  0  0  0  0  0  0  0  0
   56.8894   33.2753   44.1475 H   0  0  0  0  0  0  0  0  0  0  0  0
   55.9868   31.3622   43.4959 H   0  0  0  0  0  0  0  0  0  0  0  0
   54.8039   29.2771   44.2043 H   0  0  0  0  0  0  0  0  0  0  0  0
   56.0575   25.5430   46.6554 H   0  0  0  0  0  0  0  0  0  0  0  0
   60.5336   27.0855   46.3248 H   0  0  0  0  0  0  0  0  0  0  0  0
   60.3191   28.8985   46.3256 H   0  0  0  0  0  0  0  0  0  0  0  0
   59.2723   27.5391   48.7238 H   0  0  0  0  0  0  0  0  0  0  0  0
   61.0378   27.4010   48.5203 H   0  0  0  0  0  0  0  0  0  0  0  0
   61.8714   30.6149   48.3389 H   0  0  0  0  0  0  0  0  0  0  0  0
   61.4405   29.4014   46.9862 H   0  0  0  0  0  0  0  0  0  0  0  0
   61.1822   31.9877   46.7424 H   0  0  0  0  0  0  0  0  0  0  0  0
   60.0970   30.7207   45.9940 H   0  0  0  0  0  0  0  0  0  0  0  0
   58.3736   31.3731   47.0583 H   0  0  0  0  0  0  0  0  0  0  0  0
   59.8250   33.5170   46.7420 H   0  0  0  0  0  0  0  0  0  0  0  0
   59.2569   34.9776   48.6035 H   0  0  0  0  0  0  0  0  0  0  0  0
   58.9359   33.4681   49.5317 H   0  0  0  0  0  0  0  0  0  0  0  0
   61.2948   33.6787   46.8162 H   0  0  0  0  0  0  0  0  0  0  0  0
   63.7569   33.4126   47.0159 H   0  0  0  0  0  0  0  0  0  0  0  0
   60.8585   33.8019   51.1184 H   0  0  0  0  0  0  0  0  0  0  0  0
   64.4454   33.3459   53.2936 H   0  0  0  0  0  0  0  0  0  0  0  0
   64.3579   31.9286   52.1051 H   0  0  0  0  0  0  0  0  0  0  0  0
   65.8453   34.4877   51.7261 H   0  0  0  0  0  0  0  0  0  0  0  0
   66.4985   32.8233   52.1962 H   0  0  0  0  0  0  0  0  0  0  0  0
   65.5340   33.3960   48.1920 H   0  0  0  0  0  0  0  0  0  0  0  0
   60.1625   31.7755   49.5610 H   0  0  0  0  0  0  0  0  0  0  0  0
   58.4194   31.9690   49.6294 H   0  0  0  0  0  0  0  0  0  0  0  0
   58.9019   29.5974   50.1244 H   0  0  0  0  0  0  0  0  0  0  0  0
   58.2439   29.6336   48.4599 H   0  0  0  0  0  0  0  0  0  0  0  0
  1  2  1  0
  2  3  1  0
  3  4  2  0
  4  5  1  0
  5  6  2  0
  6  7  1  0
  7  8  2  0
  8  9  1  0
  9 10  1  0
  9 11  2  0
 11 12  1  0
 12 13  1  0
 13 14  1  0
 14 15  1  0
 15 16  1  0
 16 17  1  0
 17 18  1  0
 18 19  1  0
 19 20  1  0
 20 21  2  0
 21 22  1  0
 22 23  2  0
 23 24  1  0
 24 25  2  0
 24 26  1  0
 26 27  1  0
 27 28  1  0
 28 29  1  0
 29 30  2  0
 29 31  1  0
 17 32  1  0
 32 33  1  0
 11 34  1  0
 34 35  2  0
 35  3  1  0
 34  6  1  0
 33 14  1  0
 25 20  1  0
 31 23  1  0
  1 36  1  0
  1 37  1  0
  1 38  1  0
  4 39  1  0
  5 40  1  0
  8 41  1  0
 12 42  1  0
 12 43  1  0
 13 44  1  0
 13 45  1  0
 15 46  1  0
 15 47  1  0
 16 48  1  0
 16 49  1  0
 17 50  1  0
 18 51  1  0
 19 52  1  0
 19 53  1  0
 21 54  1  0
 22 55  1  0
 25 56  1  0
 27 57  1  0
 27 58  1  0
 28 59  1  0
 28 60  1  0
 31 61  1  0
 32 62  1  0
 32 63  1  0
 33 64  1  0
 33 65  1  0
M  END
>  <smiles>  (27) 
COc1ccc2ncc(F)c(CCN3CCC(NCc4ccc5c(c4)OCCC(=O)N5)CC3)c2n1

>  <score_type>  (27) 
oracle

>  <origin>  (27) 
adg

>  <m_score__min__energy>  (27) 
-6.9500000000000002

>  <m_primary>  (27) 
energy

$$$$
27:0
     RDKit          3D

 37 39  0  0  1  0  0  0  0  0999 V2000
   56.2170   29.7270   43.3290 C   0  0  0  0  0  0  0  0  0  0  0  0
   57.0060   30.9730   43.5530 C   0  0  0  0  0  0  0  0  0  0  0  0
   56.8250   31.5500   44.8550 N   0  0  0  0  0  0  0  0  0  0  0  0
   57.6200   32.4400   45.3070 C   0  0  0  0  0  0  0  0  0  0  0  0
   58.6740   32.3700   46.0870 N   0  0  0  0  0  0  0  0  0  0  0  0
   59.3550   33.4120   46.4350 C   0  0  0  0  0  0  0  0  0  0  0  0
   60.5540   33.4320   47.3090 C   0  0  0  0  0  0  0  0  0  0  0  0
   61.8000   33.0860   46.8280 C   0  0  0  0  0  0  0  0  0  0  0  0
   62.9380   33.0910   47.6040 C   0  0  0  0  0  0  0  0  0  0  0  0
   62.8760   33.4520   48.9280 C   0  0  0  0  0  0  0  0  0  0  0  0
   64.0120   33.4780   49.7810 N   0  0  0  0  0  0  0  0  0  0  0  0
   64.0980   34.2210   50.9210 C   0  0  0  0  0  0  0  0  0  0  0  0
   65.3350   34.0080   51.4960 C   0  0  0  0  0  0  0  0  0  0  0  0
   65.8830   34.7560   52.9750 Cl  0  0  0  0  0  0  0  0  0  0  0  0
   65.9770   33.1180   50.6650 C   0  0  0  0  0  0  0  0  0  0  0  0
   67.3510   32.6200   50.9260 C   0  0  0  0  0  0  0  0  0  0  0  0
   68.2150   33.4730   50.3020 F   0  0  0  0  0  0  0  0  0  0  0  0
   67.5200   31.3350   50.4660 F   0  0  0  0  0  0  0  0  0  0  0  0
   67.6190   32.6030   52.2710 F   0  0  0  0  0  0  0  0  0  0  0  0
   65.1640   32.7960   49.6140 C   0  0  0  0  0  0  0  0  0  0  0  0
   61.6450   33.8010   49.4300 C   0  0  0  0  0  0  0  0  0  0  0  0
   60.4880   33.7940   48.6340 C   0  0  0  0  0  0  0  0  0  0  0  0
   59.3600   34.1600   49.2700 F   0  0  0  0  0  0  0  0  0  0  0  0
   58.9090   34.6680   45.9280 C   0  0  0  0  0  0  0  0  0  0  0  0
   57.4580   34.2300   44.9320 S   0  0  0  0  0  0  0  0  0  0  0  0
   55.9397   29.2892   44.2993 H   0  0  0  0  0  0  0  0  0  0  0  0
   55.3059   29.9670   42.7613 H   0  0  0  0  0  0  0  0  0  0  0  0
   56.8235   29.0060   42.7613 H   0  0  0  0  0  0  0  0  0  0  0  0
   58.0724   30.7355   43.4246 H   0  0  0  0  0  0  0  0  0  0  0  0
   56.6474   31.7136   42.8229 H   0  0  0  0  0  0  0  0  0  0  0  0
   58.9530   31.3710   46.4350 H   0  0  0  0  0  0  0  0  0  0  0  0
   61.8890   32.7914   45.7719 H   0  0  0  0  0  0  0  0  0  0  0  0
   63.9029   32.8040   47.1606 H   0  0  0  0  0  0  0  0  0  0  0  0
   63.3120   34.8808   51.3170 H   0  0  0  0  0  0  0  0  0  0  0  0
   65.4039   32.1102   48.7881 H   0  0  0  0  0  0  0  0  0  0  0  0
   61.5636   34.0946   50.4870 H   0  0  0  0  0  0  0  0  0  0  0  0
   59.3417   35.6646   46.1000 H   0  0  0  0  0  0  0  0  0  0  0  0
  1  2  1  0
  2  3  1  0
  3  4  2  0
  4  5  1  0
  5  6  1  0
  6  7  1  0
  7  8  2  0
  8  9  1  0
  9 10  2  0
 10 11  1  0
 11 12  1  0
 12 13  2  0
 13 14  1  0
 13 15  1  0
 15 16  1  0
 16 17  1  0
 16 18  1  0
 16 19  1  0
 15 20  2  0
 10 21  1  0
 21 22  2  0
 22 23  1  0
  6 24  2  0
 24 25  1  0
 25  4  1  0
 22  7  1  0
 20 11  1  0
  1 26  1  0
  1 27  1  0
  1 28  1  0
  2 29  1  0
  2 30  1  0
  5 31  1  0
  8 32  1  0
  9 33  1  0
 12 34  1  0
 20 35  1  0
 21 36  1  0
 24 37  1  0
M  END
>  <smiles>  (28) 
CCN=c1[nH]c(-c2ccc(-n3cc(Cl)c(C(F)(F)F)c3)cc2F)cs1

>  <score_type>  (28) 
oracle

>  <origin>  (28) 
adg

>  <m_score__min__energy>  (28) 
-6.8499999999999996

>  <m_primary>  (28) 
energy

$$$$
28:0
     RDKit          3D

 61 65  0  0  0  0  0  0  0  0999 V2000
   56.9590   20.6120   45.8460 C   0  0  0  0  0  0  0  0  0  0  0  0
   57.4130   21.5790   46.7580 O   0  0  0  0  0  0  0  0  0  0  0  0
   57.4970   22.9260   46.4990 C   0  0  0  0  0  0  0  0  0  0  0  0
   56.4460   23.7430   46.8560 C   0  0  0  0  0  0  0  0  0  0  0  0
   56.5290   25.0950   46.5970 C   0  0  0  0  0  0  0  0  0  0  0  0
   57.6690   25.6150   45.9790 C   0  0  0  0  0  0  0  0  0  0  0  0
   57.7170   27.0230   45.7250 N   0  0  0  0  0  0  0  0  0  0  0  0
   57.3780   27.6060   44.5880 N   0  0  0  0  0  0  0  0  0  0  0  0
   57.5410   28.9430   44.6810 C   0  0  0  0  0  0  0  0  0  0  0  0
   58.0130   29.1580   45.9710 C   0  0  0  0  0  0  0  0  0  0  0  0
   58.1240   27.9580   46.6240 C   0  0  0  0  0  0  0  0  0  0  0  0
   58.5150   27.7940   47.7890 O   0  0  0  0  0  0  0  0  0  0  0  0
   58.3310   30.2970   46.5630 C   0  0  0  0  0  0  0  0  0  0  0  0
   58.2730   31.6530   46.0130 C   0  0  0  0  0  0  0  0  0  0  0  0
   58.6890   32.5860   46.9380 C   0  0  0  0  0  0  0  0  0  0  0  0
   58.7210   33.9560   46.6410 C   0  0  0  0  0  0  0  0  0  0  0  0
   59.1460   34.7900   47.6210 O   0  0  0  0  0  0  0  0  0  0  0  0
   59.6630   34.5930   48.8690 C   0  0  0  0  0  0  0  0  0  0  0  0
   61.0110   34.0000   49.0350 C   0  0  0  0  0  0  0  0  0  0  0  0
   61.6250   33.4610   47.8500 N   0  0  0  0  0  0  0  0  0  0  0  0
   61.5210   32.0040   47.8600 C   0  0  0  0  0  0  0  0  0  0  0  0
   62.8840   31.3700   48.0620 C   0  0  0  0  0  0  0  0  0  0  0  0
   63.8120   31.7260   47.1180 O   0  0  0  0  0  0  0  0  0  0  0  0
   63.7800   33.0520   46.7670 C   0  0  0  0  0  0  0  0  0  0  0  0
   63.0050   33.8690   47.7920 C   0  0  0  0  0  0  0  0  0  0  0  0
   58.3140   34.3000   45.3790 C   0  0  0  0  0  0  0  0  0  0  0  0
   57.8950   33.3770   44.4460 C   0  0  0  0  0  0  0  0  0  0  0  0
   57.8690   32.0350   44.7500 C   0  0  0  0  0  0  0  0  0  0  0  0
   57.4270   31.2190   43.7170 O   0  0  0  0  0  0  0  0  0  0  0  0
   57.2850   29.8190   43.7030 C   0  0  0  0  0  0  0  0  0  0  0  0
   58.6980   24.7620   45.6370 C   0  0  0  0  0  0  0  0  0  0  0  0
   58.6350   23.4100   45.8870 C   0  0  0  0  0  0  0  0  0  0  0  0
   59.6460   22.5210   45.5600 O   0  0  0  0  0  0  0  0  0  0  0  0
   59.5680   21.8650   44.3080 C   0  0  0  0  0  0  0  0  0  0  0  0
   56.5543   19.7500   46.3967 H   0  0  0  0  0  0  0  0  0  0  0  0
   56.1706   21.0460   45.2136 H   0  0  0  0  0  0  0  0  0  0  0  0
   57.7966   20.2826   45.2136 H   0  0  0  0  0  0  0  0  0  0  0  0
   55.5529   23.3223   47.3411 H   0  0  0  0  0  0  0  0  0  0  0  0
   55.7001   25.7620   46.8762 H   0  0  0  0  0  0  0  0  0  0  0  0
   57.0320   27.1100   43.7410 H   0  0  0  0  0  0  0  0  0  0  0  0
   58.6843   30.2154   47.6015 H   0  0  0  0  0  0  0  0  0  0  0  0
   59.0043   32.2470   47.9358 H   0  0  0  0  0  0  0  0  0  0  0  0
   59.6880   35.5772   49.3597 H   0  0  0  0  0  0  0  0  0  0  0  0
   58.9991   33.8269   49.2960 H   0  0  0  0  0  0  0  0  0  0  0  0
   61.6749   34.7838   49.4286 H   0  0  0  0  0  0  0  0  0  0  0  0
   60.8707   33.1407   49.7072 H   0  0  0  0  0  0  0  0  0  0  0  0
   60.8544   31.6953   48.6787 H   0  0  0  0  0  0  0  0  0  0  0  0
   61.1167   31.6719   46.8924 H   0  0  0  0  0  0  0  0  0  0  0  0
   63.2625   31.6719   49.0497 H   0  0  0  0  0  0  0  0  0  0  0  0
   62.7441   30.2824   47.9751 H   0  0  0  0  0  0  0  0  0  0  0  0
   64.8101   33.4333   46.7074 H   0  0  0  0  0  0  0  0  0  0  0  0
   63.2779   33.1447   45.7927 H   0  0  0  0  0  0  0  0  0  0  0  0
   63.4623   33.7283   48.7825 H   0  0  0  0  0  0  0  0  0  0  0  0
   63.0424   34.9270   47.4933 H   0  0  0  0  0  0  0  0  0  0  0  0
   58.3221   35.3633   45.0973 H   0  0  0  0  0  0  0  0  0  0  0  0
   57.5782   33.7159   43.4486 H   0  0  0  0  0  0  0  0  0  0  0  0
   56.9138   29.3872   42.7618 H   0  0  0  0  0  0  0  0  0  0  0  0
   59.5944   25.1742   45.1506 H   0  0  0  0  0  0  0  0  0  0  0  0
   59.4395   20.7843   44.4677 H   0  0  0  0  0  0  0  0  0  0  0  0
   58.7101   22.2565   43.7417 H   0  0  0  0  0  0  0  0  0  0  0  0
   60.4938   22.0444   43.7417 H   0  0  0  0  0  0  0  0  0  0  0  0
  1  2  1  0
  2  3  1  0
  3  4  2  0
  4  5  1  0
  5  6  2  0
  6  7  1  0
  7  8  1  0
  8  9  1  0
  9 10  1  0
 10 11  1  0
 11 12  2  0
 10 13  2  0
 13 14  1  0
 14 15  2  0
 15 16  1  0
 16 17  1  0
 17 18  1  0
 18 19  1  0
 19 20  1  0
 20 21  1  0
 21 22  1  0
 22 23  1  0
 23 24  1  0
 24 25  1  0
 16 26  2  0
 26 27  1  0
 27 28  2  0
 28 29  1  0
 29 30  1  0
  6 31  1  0
 31 32  2  0
 32 33  1  0
 33 34  1  0
 32  3  1  0
 11  7  1  0
 28 14  1  0
 30  9  2  0
 25 20  1  0
  1 35  1  0
  1 36  1  0
  1 37  1  0
  4 38  1  0
  5 39  1  0
  8 40  1  0
 13 41  1  0
 15 42  1  0
 18 43  1  0
 18 44  1  0
 19 45  1  0
 19 46  1  0
 21 47  1  0
 21 48  1  0
 22 49  1  0
 22 50  1  0
 24 51  1  0
 24 52  1  0
 25 53  1  0
 25 54  1  0
 26 55  1  0
 27 56  1  0
 30 57  1  0
 31 58  1  0
 34 59  1  0
 34 60  1  0
 34 61  1  0
M  END
>  <smiles>  (29) 
COc1ccc(-n2[nH]c3c(c2=O)=Cc2cc(OCCN4CCOCC4)ccc2OC=3)cc1OC

>  <score_type>  (29) 
oracle

>  <origin>  (29) 
adg

>  <m_score__min__energy>  (29) 
-8.9499999999999993

>  <m_primary>  (29) 
energy

$$$$
29:0
     RDKit          3D

 35 38  0  0  0  0  0  0  0  0999 V2000
   59.0910   34.1710   44.9860 C   0  0  0  0  0  0  0  0  0  0  0  0
   59.1560   33.8860   46.4450 C   0  0  0  0  0  0  0  0  0  0  0  0
   59.5810   34.8650   47.3420 C   0  0  0  0  0  0  0  0  0  0  0  0
   59.6390   34.5900   48.7040 C   0  0  0  0  0  0  0  0  0  0  0  0
   59.2760   33.3440   49.1790 C   0  0  0  0  0  0  0  0  0  0  0  0
   58.8480   32.3560   48.2900 C   0  0  0  0  0  0  0  0  0  0  0  0
   58.7970   32.6500   46.9360 C   0  0  0  0  0  0  0  0  0  0  0  0
   58.3460   31.5890   46.0440 C   0  0  0  0  0  0  0  0  0  0  0  0
   58.7380   30.3270   46.2610 N   0  0  0  0  0  0  0  0  0  0  0  0
   58.3560   29.2810   45.4690 C   0  0  0  0  0  0  0  0  0  0  0  0
   58.8300   27.9380   45.7730 C   0  0  0  0  0  0  0  0  0  0  0  0
   58.0170   26.8240   45.7650 C   0  0  0  0  0  0  0  0  0  0  0  0
   58.4860   25.5580   46.0530 C   0  0  0  0  0  0  0  0  0  0  0  0
   59.7890   25.3860   46.3570 N   0  0  0  0  0  0  0  0  0  0  0  0
   60.6420   26.4500   46.3820 C   0  0  0  0  0  0  0  0  0  0  0  0
   60.1720   27.7000   46.0960 C   0  0  0  0  0  0  0  0  0  0  0  0
   57.5290   29.5760   44.4080 C   0  0  0  0  0  0  0  0  0  0  0  0
   56.9860   28.8200   43.4640 N   0  0  0  0  0  0  0  0  0  0  0  0
   56.2360   29.5730   42.6260 C   0  0  0  0  0  0  0  0  0  0  0  0
   56.3310   30.8320   43.0790 N   0  0  0  0  0  0  0  0  0  0  0  0
   57.1160   30.8720   44.1720 C   0  0  0  0  0  0  0  0  0  0  0  0
   57.5380   31.8260   44.9940 N   0  0  0  0  0  0  0  0  0  0  0  0
   58.8489   35.2327   44.8302 H   0  0  0  0  0  0  0  0  0  0  0  0
   60.0637   33.9452   44.5246 H   0  0  0  0  0  0  0  0  0  0  0  0
   58.3124   33.5458   44.5246 H   0  0  0  0  0  0  0  0  0  0  0  0
   59.8716   35.8589   46.9710 H   0  0  0  0  0  0  0  0  0  0  0  0
   59.9751   35.3673   49.4060 H   0  0  0  0  0  0  0  0  0  0  0  0
   59.3242   33.1307   50.2570 H   0  0  0  0  0  0  0  0  0  0  0  0
   58.5562   31.3612   48.6577 H   0  0  0  0  0  0  0  0  0  0  0  0
   56.9521   26.9493   45.5193 H   0  0  0  0  0  0  0  0  0  0  0  0
   57.8026   24.6962   46.0348 H   0  0  0  0  0  0  0  0  0  0  0  0
   61.7031   26.3021   46.6313 H   0  0  0  0  0  0  0  0  0  0  0  0
   60.8712   28.5488   46.1201 H   0  0  0  0  0  0  0  0  0  0  0  0
   57.0940   27.8070   43.3510 H   0  0  0  0  0  0  0  0  0  0  0  0
   55.6655   29.2241   41.7526 H   0  0  0  0  0  0  0  0  0  0  0  0
  1  2  1  0
  2  3  2  0
  3  4  1  0
  4  5  2  0
  5  6  1  0
  6  7  2  0
  7  8  1  0
  8  9  2  0
  9 10  1  0
 10 11  1  0
 11 12  2  0
 12 13  1  0
 13 14  2  0
 14 15  1  0
 15 16  2  0
 10 17  2  0
 17 18  1  0
 18 19  1  0
 19 20  2  0
 20 21  1  0
 21 22  2  0
  7  2  1  0
 22  8  1  0
 16 11  1  0
 21 17  1  0
  1 23  1  0
  1 24  1  0
  1 25  1  0
  3 26  1  0
  4 27  1  0
  5 28  1  0
  6 29  1  0
 12 30  1  0
 13 31  1  0
 15 32  1  0
 16 33  1  0
 18 34  1  0
 19 35  1  0
M  END
>  <smiles>  (30) 
Cc1ccccc1-c1nc(-c2ccncc2)c2[nH]cnc2n1

>  <score_type>  (30) 
oracle

>  <origin>  (30) 
adg

>  <m_score__min__energy>  (30) 
-7.5

>  <m_primary>  (30) 
energy

$$$$
30:0
     RDKit          3D

 48 48  0  0  0  0  0  0  0  0999 V2000
   59.6330   28.9420   49.2300 C   0  0  0  0  0  0  0  0  0  0  0  0
   59.0010   29.3720   47.9570 C   0  0  0  0  0  0  0  0  0  0  0  0
   59.6010   29.0130   46.7450 N   0  0  0  0  0  0  0  0  0  0  0  0
   60.3750   29.9760   46.0470 C   0  0  0  0  0  0  0  0  0  0  0  0
   61.1840   30.8220   47.0090 C   0  0  0  0  0  0  0  0  0  0  0  0
   59.0570   27.9610   45.9700 C   0  0  0  0  0  0  0  0  0  0  0  0
   58.2470   28.4170   44.7920 C   0  0  0  0  0  0  0  0  0  0  0  0
   57.3540   29.4540   45.2450 O   0  0  0  0  0  0  0  0  0  0  0  0
   56.3200   29.8010   44.3960 C   0  0  0  0  0  0  0  0  0  0  0  0
   55.1480   29.6130   44.8270 O   0  0  0  0  0  0  0  0  0  0  0  0
   56.4620   30.3690   43.0450 C   0  0  0  0  0  0  0  0  0  0  0  0
   57.3930   31.5410   43.0040 C   0  0  0  0  0  0  0  0  0  0  0  0
   58.0210   31.7820   44.2910 N   0  0  0  0  0  0  0  0  0  0  0  0
   57.8960   32.9930   45.0170 C   0  0  0  0  0  0  0  0  0  0  0  0
   57.2100   33.9430   44.5260 O   0  0  0  0  0  0  0  0  0  0  0  0
   58.5260   33.2160   46.3210 C   0  0  0  0  0  0  0  0  0  0  0  0
   58.1570   32.5210   47.4590 C   0  0  0  0  0  0  0  0  0  0  0  0
   58.7540   32.7310   48.6850 C   0  0  0  0  0  0  0  0  0  0  0  0
   59.7590   33.6590   48.8260 C   0  0  0  0  0  0  0  0  0  0  0  0
   60.3650   33.8480   50.1680 C   0  0  0  0  0  0  0  0  0  0  0  0
   60.1490   34.3680   47.7080 C   0  0  0  0  0  0  0  0  0  0  0  0
   59.5360   34.1450   46.4740 C   0  0  0  0  0  0  0  0  0  0  0  0
   59.0540   29.3360   50.0782 H   0  0  0  0  0  0  0  0  0  0  0  0
   59.6514   27.8432   49.2774 H   0  0  0  0  0  0  0  0  0  0  0  0
   60.6618   29.3283   49.2774 H   0  0  0  0  0  0  0  0  0  0  0  0
   57.9821   28.9575   47.9472 H   0  0  0  0  0  0  0  0  0  0  0  0
   59.0863   30.4685   47.9782 H   0  0  0  0  0  0  0  0  0  0  0  0
   61.0601   29.4577   45.3599 H   0  0  0  0  0  0  0  0  0  0  0  0
   59.6943   30.6347   45.4877 H   0  0  0  0  0  0  0  0  0  0  0  0
   60.9247   30.5508   48.0430 H   0  0  0  0  0  0  0  0  0  0  0  0
   62.2564   30.6440   46.8412 H   0  0  0  0  0  0  0  0  0  0  0  0
   60.9582   31.8854   46.8412 H   0  0  0  0  0  0  0  0  0  0  0  0
   59.8869   27.3420   45.5986 H   0  0  0  0  0  0  0  0  0  0  0  0
   58.3716   27.4068   46.6281 H   0  0  0  0  0  0  0  0  0  0  0  0
   58.9129   28.8119   44.0105 H   0  0  0  0  0  0  0  0  0  0  0  0
   57.6765   27.5765   44.3700 H   0  0  0  0  0  0  0  0  0  0  0  0
   56.8499   29.5882   42.3743 H   0  0  0  0  0  0  0  0  0  0  0  0
   55.4698   30.7226   42.7281 H   0  0  0  0  0  0  0  0  0  0  0  0
   58.1768   31.3460   42.2573 H   0  0  0  0  0  0  0  0  0  0  0  0
   56.8054   32.4327   42.7403 H   0  0  0  0  0  0  0  0  0  0  0  0
   58.6050   31.0310   44.7280 H   0  0  0  0  0  0  0  0  0  0  0  0
   57.3558   31.7712   47.3833 H   0  0  0  0  0  0  0  0  0  0  0  0
   58.4227   32.1502   49.5585 H   0  0  0  0  0  0  0  0  0  0  0  0
   59.6197   33.6156   50.9429 H   0  0  0  0  0  0  0  0  0  0  0  0
   61.2296   33.1768   50.2777 H   0  0  0  0  0  0  0  0  0  0  0  0
   60.6948   34.8917   50.2777 H   0  0  0  0  0  0  0  0  0  0  0  0
   60.9510   35.1164   47.7902 H   0  0  0  0  0  0  0  0  0  0  0  0
   59.8665   34.7250   45.5997 H   0  0  0  0  0  0  0  0  0  0  0  0
  1  2  1  0
  2  3  1  0
  3  4  1  0
  4  5  1  0
  3  6  1  0
  6  7  1  0
  7  8  1  0
  8  9  1  0
  9 10  2  0
  9 11  1  0
 11 12  1  0
 12 13  1  0
 13 14  1  0
 14 15  2  0
 14 16  1  0
 16 17  2  0
 17 18  1  0
 18 19  2  0
 19 20  1  0
 19 21  1  0
 21 22  2  0
 22 16  1  0
  1 23  1  0
  1 24  1  0
  1 25  1  0
  2 26  1  0
  2 27  1  0
  4 28  1  0
  4 29  1  0
  5 30  1  0
  5 31  1  0
  5 32  1  0
  6 33  1  0
  6 34  1  0
  7 35  1  0
  7 36  1  0
 11 37  1  0
 11 38  1  0
 12 39  1  0
 12 40  1  0
 13 41  1  0
 17 42  1  0
 18 43  1  0
 20 44  1  0
 20 45  1  0
 20 46  1  0
 21 47  1  0
 22 48  1  0
M  END
>  <smiles>  (31) 
CCN(CC)CCOC(=O)CCNC(=O)c1ccc(C)cc1

>  <score_type>  (31) 
oracle

>  <origin>  (31) 
adg

>  <m_score__min__energy>  (31) 
-6.3600000000000003

>  <m_primary>  (31) 
energy

$$$$
31:0
     RDKit          3D

 46 48  0  0  0  0  0  0  0  0999 V2000
   56.3120   30.0560   43.2780 C   0  0  0  0  0  0  0  0  0  0  0  0
   56.3620   30.2640   44.6960 O   0  0  0  0  0  0  0  0  0  0  0  0
   57.2080   29.4350   45.4350 C   0  0  0  0  0  0  0  0  0  0  0  0
   57.1500   28.0600   45.3360 C   0  0  0  0  0  0  0  0  0  0  0  0
   57.9930   27.2520   46.0710 C   0  0  0  0  0  0  0  0  0  0  0  0
   58.8960   27.8740   46.9110 C   0  0  0  0  0  0  0  0  0  0  0  0
   59.7310   27.0450   47.6390 C   0  0  0  0  0  0  0  0  0  0  0  0
   60.6550   27.6220   48.4960 C   0  0  0  0  0  0  0  0  0  0  0  0
   60.7080   28.9920   48.5900 C   0  0  0  0  0  0  0  0  0  0  0  0
   59.8720   29.8120   47.8620 C   0  0  0  0  0  0  0  0  0  0  0  0
   58.9460   29.2540   47.0040 C   0  0  0  0  0  0  0  0  0  0  0  0
   58.1160   30.0790   46.2800 C   0  0  0  0  0  0  0  0  0  0  0  0
   58.1450   31.5570   46.3570 C   0  0  0  0  0  0  0  0  0  0  0  0
   58.2540   32.1620   45.0450 N   0  0  0  0  0  0  0  0  0  0  0  0
   57.3810   33.2690   44.8430 C   0  0  0  0  0  0  0  0  0  0  0  0
   58.0570   34.5820   45.0140 C   0  0  0  0  0  0  0  0  0  0  0  0
   59.5410   34.5630   45.1080 C   0  0  0  0  0  0  0  0  0  0  0  0
   60.0870   34.2840   46.4450 C   0  0  0  0  0  0  0  0  0  0  0  0
   59.4310   34.5010   47.6310 C   0  0  0  0  0  0  0  0  0  0  0  0
   59.9870   34.2180   48.8700 C   0  0  0  0  0  0  0  0  0  0  0  0
   61.2600   33.6920   48.9360 C   0  0  0  0  0  0  0  0  0  0  0  0
   61.9500   33.4610   47.7620 C   0  0  0  0  0  0  0  0  0  0  0  0
   61.3720   33.7510   46.5410 C   0  0  0  0  0  0  0  0  0  0  0  0
   56.0595   29.0057   43.0701 H   0  0  0  0  0  0  0  0  0  0  0  0
   55.5458   30.7113   42.8381 H   0  0  0  0  0  0  0  0  0  0  0  0
   57.2923   30.2914   42.8381 H   0  0  0  0  0  0  0  0  0  0  0  0
   56.4171   27.5988   44.6576 H   0  0  0  0  0  0  0  0  0  0  0  0
   57.9477   26.1558   45.9912 H   0  0  0  0  0  0  0  0  0  0  0  0
   59.6630   25.9516   47.5398 H   0  0  0  0  0  0  0  0  0  0  0  0
   61.3344   26.9939   49.0909 H   0  0  0  0  0  0  0  0  0  0  0  0
   61.4423   29.4500   49.2691 H   0  0  0  0  0  0  0  0  0  0  0  0
   59.9427   30.9049   47.9645 H   0  0  0  0  0  0  0  0  0  0  0  0
   57.2179   31.9069   46.8346 H   0  0  0  0  0  0  0  0  0  0  0  0
   59.0275   31.8516   46.9438 H   0  0  0  0  0  0  0  0  0  0  0  0
   58.1320   31.4380   44.3150 H   0  0  0  0  0  0  0  0  0  0  0  0
   56.9759   33.2139   43.8218 H   0  0  0  0  0  0  0  0  0  0  0  0
   56.5888   33.2058   45.6036 H   0  0  0  0  0  0  0  0  0  0  0  0
   57.7858   35.2109   44.1533 H   0  0  0  0  0  0  0  0  0  0  0  0
   57.7110   34.9602   45.9873 H   0  0  0  0  0  0  0  0  0  0  0  0
   59.9143   33.7891   44.4212 H   0  0  0  0  0  0  0  0  0  0  0  0
   59.8730   35.5801   44.8523 H   0  0  0  0  0  0  0  0  0  0  0  0
   58.4144   34.9199   47.5973 H   0  0  0  0  0  0  0  0  0  0  0  0
   59.4178   34.4114   49.7912 H   0  0  0  0  0  0  0  0  0  0  0  0
   61.7188   33.4600   49.9085 H   0  0  0  0  0  0  0  0  0  0  0  0
   62.9669   33.0432   47.7994 H   0  0  0  0  0  0  0  0  0  0  0  0
   61.9408   33.5562   45.6199 H   0  0  0  0  0  0  0  0  0  0  0  0
  1  2  1  0
  2  3  1  0
  3  4  2  0
  4  5  1  0
  5  6  2  0
  6  7  1  0
  7  8  2  0
  8  9  1  0
  9 10  2  0
 10 11  1  0
 11 12  2  0
 12 13  1  0
 13 14  1  0
 14 15  1  0
 15 16  1  0
 16 17  1  0
 17 18  1  0
 18 19  2  0
 19 20  1  0
 20 21  2  0
 21 22  1  0
 22 23  2  0
 12  3  1  0
 23 18  1  0
 11  6  1  0
  1 24  1  0
  1 25  1  0
  1 26  1  0
  4 27  1  0
  5 28  1  0
  7 29  1  0
  8 30  1  0
  9 31  1  0
 10 32  1  0
 13 33  1  0
 13 34  1  0
 14 35  1  0
 15 36  1  0
 15 37  1  0
 16 38  1  0
 16 39  1  0
 17 40  1  0
 17 41  1  0
 19 42  1  0
 20 43  1  0
 21 44  1  0
 22 45  1  0
 23 46  1  0
M  END
>  <smiles>  (32) 
COc1ccc2ccccc2c1CNCCCc1ccccc1

>  <score_type>  (32) 
oracle

>  <origin>  (32) 
adg

>  <m_score__min__energy>  (32) 
-7.3700000000000001

>  <m_primary>  (32) 
energy

$$$$
32:0
     RDKit          3D

 49 51  0  0  0  0  0  0  0  0999 V2000
   62.6630   32.9530   47.4120 C   0  0  0  0  0  0  0  0  0  0  0  0
   61.7300   33.7870   46.5780 C   0  0  0  0  0  0  0  0  0  0  0  0
   60.5600   34.2170   47.2300 N   0  0  0  0  0  0  0  0  0  0  0  0
   59.6270   35.0330   46.5960 C   0  0  0  0  0  0  0  0  0  0  0  0
   59.2670   34.5480   45.2190 C   0  0  0  0  0  0  0  0  0  0  0  0
   60.7030   34.2320   48.6270 C   0  0  0  0  0  0  0  0  0  0  0  0
   59.6680   33.5880   49.4650 C   0  0  0  0  0  0  0  0  0  0  0  0
   58.8930   32.6390   48.6410 N   0  0  0  0  0  0  0  0  0  0  0  0
   59.2930   31.2870   48.5290 C   0  0  0  0  0  0  0  0  0  0  0  0
   60.0600   30.7510   49.5450 C   0  0  0  0  0  0  0  0  0  0  0  0
   60.5470   29.4570   49.5390 C   0  0  0  0  0  0  0  0  0  0  0  0
   61.3070   28.9310   50.5500 O   0  0  0  0  0  0  0  0  0  0  0  0
   61.1550   27.6460   51.0730 C   0  0  0  0  0  0  0  0  0  0  0  0
   60.2380   28.6820   48.4520 C   0  0  0  0  0  0  0  0  0  0  0  0
   59.4850   29.2120   47.4580 C   0  0  0  0  0  0  0  0  0  0  0  0
   59.1120   28.2050   46.1100 S   0  0  0  0  0  0  0  0  0  0  0  0
   58.1580   28.9960   44.9420 C   0  0  0  0  0  0  0  0  0  0  0  0
   57.7720   28.3380   43.8050 C   0  0  0  0  0  0  0  0  0  0  0  0
   57.0040   29.0000   42.8770 C   0  0  0  0  0  0  0  0  0  0  0  0
   56.6510   30.2910   43.1240 C   0  0  0  0  0  0  0  0  0  0  0  0
   57.0460   30.9400   44.2710 C   0  0  0  0  0  0  0  0  0  0  0  0
   57.8380   30.2930   45.2480 C   0  0  0  0  0  0  0  0  0  0  0  0
   58.2110   30.9760   46.3770 C   0  0  0  0  0  0  0  0  0  0  0  0
   57.7670   32.1850   46.4030 O   0  0  0  0  0  0  0  0  0  0  0  0
   58.9720   30.4930   47.4100 C   0  0  0  0  0  0  0  0  0  0  0  0
   62.4617   33.1330   48.4783 H   0  0  0  0  0  0  0  0  0  0  0  0
   62.5063   31.8884   47.1838 H   0  0  0  0  0  0  0  0  0  0  0  0
   63.7034   33.2276   47.1838 H   0  0  0  0  0  0  0  0  0  0  0  0
   62.2795   34.6792   46.2432 H   0  0  0  0  0  0  0  0  0  0  0  0
   61.3973   33.1382   45.7543 H   0  0  0  0  0  0  0  0  0  0  0  0
   58.7133   35.0629   47.2078 H   0  0  0  0  0  0  0  0  0  0  0  0
   60.0792   36.0299   46.4876 H   0  0  0  0  0  0  0  0  0  0  0  0
   58.6131   33.6671   45.2998 H   0  0  0  0  0  0  0  0  0  0  0  0
   58.7411   35.3463   44.6749 H   0  0  0  0  0  0  0  0  0  0  0  0
   60.1834   34.2757   44.6749 H   0  0  0  0  0  0  0  0  0  0  0  0
   61.6576   33.7365   48.8578 H   0  0  0  0  0  0  0  0  0  0  0  0
   60.6242   35.2980   48.8868 H   0  0  0  0  0  0  0  0  0  0  0  0
   60.1498   33.0472   50.2929 H   0  0  0  0  0  0  0  0  0  0  0  0
   58.9947   34.3559   49.8736 H   0  0  0  0  0  0  0  0  0  0  0  0
   58.0730   33.0850   48.1890 H   0  0  0  0  0  0  0  0  0  0  0  0
   60.2969   31.3902   50.4083 H   0  0  0  0  0  0  0  0  0  0  0  0
   61.1607   27.6944   52.1719 H   0  0  0  0  0  0  0  0  0  0  0  0
   60.2003   27.2209   50.7296 H   0  0  0  0  0  0  0  0  0  0  0  0
   61.9842   27.0099   50.7296 H   0  0  0  0  0  0  0  0  0  0  0  0
   60.5963   27.6440   48.3873 H   0  0  0  0  0  0  0  0  0  0  0  0
   58.0725   27.2934   43.6364 H   0  0  0  0  0  0  0  0  0  0  0  0
   56.6813   28.4967   41.9537 H   0  0  0  0  0  0  0  0  0  0  0  0
   56.0347   30.8288   42.3885 H   0  0  0  0  0  0  0  0  0  0  0  0
   56.7394   31.9841   44.4316 H   0  0  0  0  0  0  0  0  0  0  0  0
  1  2  1  0
  2  3  1  0
  3  4  1  0
  4  5  1  0
  3  6  1  0
  6  7  1  0
  7  8  1  0
  8  9  1  0
  9 10  2  0
 10 11  1  0
 11 12  1  0
 12 13  1  0
 11 14  2  0
 14 15  1  0
 15 16  1  0
 16 17  1  0
 17 18  2  0
 18 19  1  0
 19 20  2  0
 20 21  1  0
 21 22  2  0
 22 23  1  0
 23 24  2  0
 23 25  1  0
 25  9  1  0
 25 15  2  0
 22 17  1  0
  1 26  1  0
  1 27  1  0
  1 28  1  0
  2 29  1  0
  2 30  1  0
  4 31  1  0
  4 32  1  0
  5 33  1  0
  5 34  1  0
  5 35  1  0
  6 36  1  0
  6 37  1  0
  7 38  1  0
  7 39  1  0
  8 40  1  0
 10 41  1  0
 13 42  1  0
 13 43  1  0
 13 44  1  0
 14 45  1  0
 18 46  1  0
 19 47  1  0
 20 48  1  0
 21 49  1  0
M  END
>  <smiles>  (33) 
CCN(CC)CCNc1cc(OC)cc2sc3ccccc3c(=O)c12

>  <score_type>  (33) 
oracle

>  <origin>  (33) 
adg

>  <m_score__min__energy>  (33) 
-6.7999999999999998

>  <m_primary>  (33) 
energy

$$$$
33:0
     RDKit          3D

 42 45  0  0  0  0  0  0  0  0999 V2000
   58.8770   33.7950   52.2360 C   0  0  0  0  0  0  0  0  0  0  0  0
   60.2440   33.9410   51.9000 O   0  0  0  0  0  0  0  0  0  0  0  0
   60.5770   33.8370   50.5530 C   0  0  0  0  0  0  0  0  0  0  0  0
   61.9330   33.8660   50.2590 C   0  0  0  0  0  0  0  0  0  0  0  0
   62.3100   33.7660   48.9370 C   0  0  0  0  0  0  0  0  0  0  0  0
   63.6360   33.7840   48.5250 O   0  0  0  0  0  0  0  0  0  0  0  0
   64.0160   33.1480   47.3160 C   0  0  0  0  0  0  0  0  0  0  0  0
   61.3540   33.6400   47.9510 C   0  0  0  0  0  0  0  0  0  0  0  0
   59.9980   33.6070   48.2030 C   0  0  0  0  0  0  0  0  0  0  0  0
   58.9830   33.5040   47.1680 C   0  0  0  0  0  0  0  0  0  0  0  0
   58.4150   34.5690   46.5260 N   0  0  0  0  0  0  0  0  0  0  0  0
   57.5360   34.1410   45.6370 N   0  0  0  0  0  0  0  0  0  0  0  0
   57.5070   32.7990   45.6730 C   0  0  0  0  0  0  0  0  0  0  0  0
   58.3970   32.4370   46.6130 N   0  0  0  0  0  0  0  0  0  0  0  0
   58.7280   31.1470   47.0270 N   0  0  0  0  0  0  0  0  0  0  0  0
   59.1390   30.9350   48.3980 C   0  0  0  0  0  0  0  0  0  0  0  0
   58.7020   29.9520   46.2170 C   0  0  0  0  0  0  0  0  0  0  0  0
   59.3900   28.9730   46.6010 O   0  0  0  0  0  0  0  0  0  0  0  0
   57.9240   29.7890   44.9670 C   0  0  0  0  0  0  0  0  0  0  0  0
   58.1650   28.5820   44.3870 C   0  0  0  0  0  0  0  0  0  0  0  0
   57.5290   28.2430   43.2050 C   0  0  0  0  0  0  0  0  0  0  0  0
   56.6400   29.1510   42.6180 C   0  0  0  0  0  0  0  0  0  0  0  0
   56.4010   30.3710   43.2110 C   0  0  0  0  0  0  0  0  0  0  0  0
   57.0390   30.7020   44.3890 C   0  0  0  0  0  0  0  0  0  0  0  0
   56.6950   31.9740   44.8700 O   0  0  0  0  0  0  0  0  0  0  0  0
   59.6300   33.7110   49.5580 C   0  0  0  0  0  0  0  0  0  0  0  0
   58.7677   33.7833   53.3305 H   0  0  0  0  0  0  0  0  0  0  0  0
   58.3050   34.6372   51.8193 H   0  0  0  0  0  0  0  0  0  0  0  0
   58.4958   32.8510   51.8193 H   0  0  0  0  0  0  0  0  0  0  0  0
   62.6839   33.9657   51.0566 H   0  0  0  0  0  0  0  0  0  0  0  0
   64.5678   32.2244   47.5452 H   0  0  0  0  0  0  0  0  0  0  0  0
   63.1165   32.9024   46.7324 H   0  0  0  0  0  0  0  0  0  0  0  0
   64.6585   33.8237   46.7324 H   0  0  0  0  0  0  0  0  0  0  0  0
   61.6910   33.5615   46.9068 H   0  0  0  0  0  0  0  0  0  0  0  0
   58.3698   31.3318   49.0769 H   0  0  0  0  0  0  0  0  0  0  0  0
   59.2681   29.8578   48.5797 H   0  0  0  0  0  0  0  0  0  0  0  0
   60.0916   31.4542   48.5797 H   0  0  0  0  0  0  0  0  0  0  0  0
   58.8650   27.8757   44.8572 H   0  0  0  0  0  0  0  0  0  0  0  0
   57.7205   27.2688   42.7314 H   0  0  0  0  0  0  0  0  0  0  0  0
   56.1301   28.8891   41.6792 H   0  0  0  0  0  0  0  0  0  0  0  0
   55.7017   31.0813   42.7457 H   0  0  0  0  0  0  0  0  0  0  0  0
   58.5641   33.6913   49.8291 H   0  0  0  0  0  0  0  0  0  0  0  0
  1  2  1  0
  2  3  1  0
  3  4  2  0
  4  5  1  0
  5  6  1  0
  6  7  1  0
  5  8  2  0
  8  9  1  0
  9 10  1  0
 10 11  2  0
 11 12  1  0
 12 13  2  0
 13 14  1  0
 14 15  1  0
 15 16  1  0
 15 17  1  0
 17 18  2  0
 17 19  1  0
 19 20  2  0
 20 21  1  0
 21 22  2  0
 22 23  1  0
 23 24  2  0
 24 25  1  0
  9 26  2  0
 26  3  1  0
 14 10  1  0
 24 19  1  0
 25 13  1  0
  1 27  1  0
  1 28  1  0
  1 29  1  0
  4 30  1  0
  7 31  1  0
  7 32  1  0
  7 33  1  0
  8 34  1  0
 16 35  1  0
 16 36  1  0
 16 37  1  0
 20 38  1  0
 21 39  1  0
 22 40  1  0
 23 41  1  0
 26 42  1  0
M  END
>  <smiles>  (34) 
COc1cc(OC)cc(-c2nnc3n2N(C)C(=O)c2ccccc2O3)c1

>  <score_type>  (34) 
oracle

>  <origin>  (34) 
adg

>  <m_score__min__energy>  (34) 
-7.3799999999999999

>  <m_primary>  (34) 
energy

$$$$
34:0
     RDKit          3D

 54 56  0  0  1  0  0  0  0  0999 V2000
   59.1540   30.2420   46.0620 C   0  0  0  0  0  0  0  0  0  0  0  0
   57.7490   29.8620   45.6600 C   0  0  0  0  0  0  0  0  0  0  0  0
   57.0550   30.8770   44.9640 N   0  0  0  0  0  0  0  0  0  0  0  0
   56.0040   30.4520   44.1100 C   0  0  0  0  0  0  0  0  0  0  0  0
   56.3740   29.7330   42.8640 C   0  0  0  0  0  0  0  0  0  0  0  0
   57.7850   32.0350   44.5650 C   0  0  0  0  0  0  0  0  0  0  0  0
   57.0230   33.2560   45.0250 C   0  0  0  0  0  0  0  0  0  0  0  0
   57.5370   33.8220   46.3390 C   0  0  0  0  0  0  0  0  0  0  0  0
   58.8980   33.8290   46.5620 N   0  0  0  0  0  0  0  0  0  0  0  0
   59.5780   33.4190   47.5090 C   0  0  0  0  0  0  0  0  0  0  0  0
   58.9590   32.9290   48.6010 N   0  0  0  0  0  0  0  0  0  0  0  0
   59.5920   32.4030   49.6560 C   0  0  0  0  0  0  0  0  0  0  0  0
   58.9760   31.8810   50.8070 N   0  0  0  0  0  0  0  0  0  0  0  0
   57.7380   32.3370   51.3830 C   0  0  0  0  0  0  0  0  0  0  0  0
   57.1580   31.2000   52.1980 C   0  0  0  0  0  0  0  0  0  0  0  0
   57.3610   30.0160   51.5110 O   0  0  0  0  0  0  0  0  0  0  0  0
   58.6910   29.5780   51.5560 C   0  0  0  0  0  0  0  0  0  0  0  0
   59.6350   30.7670   51.4820 C   0  0  0  0  0  0  0  0  0  0  0  0
   60.9560   32.3590   49.6240 N   0  0  0  0  0  0  0  0  0  0  0  0
   61.5910   32.8460   48.5400 C   0  0  0  0  0  0  0  0  0  0  0  0
   62.9670   32.7780   48.5640 C   0  0  0  0  0  0  0  0  0  0  0  0
   63.6200   33.2790   47.4670 C   0  0  0  0  0  0  0  0  0  0  0  0
   63.0080   33.8260   46.3860 C   0  0  0  0  0  0  0  0  0  0  0  0
   61.5970   33.8910   46.3710 C   0  0  0  0  0  0  0  0  0  0  0  0
   60.9450   33.3920   47.4510 C   0  0  0  0  0  0  0  0  0  0  0  0
   59.2286   30.2622   47.1593 H   0  0  0  0  0  0  0  0  0  0  0  0
   59.8629   29.5033   45.6598 H   0  0  0  0  0  0  0  0  0  0  0  0
   59.3940   31.2373   45.6598 H   0  0  0  0  0  0  0  0  0  0  0  0
   57.8027   28.9739   45.0131 H   0  0  0  0  0  0  0  0  0  0  0  0
   57.1916   29.6762   46.5900 H   0  0  0  0  0  0  0  0  0  0  0  0
   55.3557   29.7831   44.6950 H   0  0  0  0  0  0  0  0  0  0  0  0
   55.5335   31.3840   43.7636 H   0  0  0  0  0  0  0  0  0  0  0  0
   56.8634   28.7820   43.1210 H   0  0  0  0  0  0  0  0  0  0  0  0
   55.4677   29.5313   42.2741 H   0  0  0  0  0  0  0  0  0  0  0  0
   57.0649   30.3532   42.2741 H   0  0  0  0  0  0  0  0  0  0  0  0
   58.7832   32.0233   45.0270 H   0  0  0  0  0  0  0  0  0  0  0  0
   57.9035   32.0510   43.4715 H   0  0  0  0  0  0  0  0  0  0  0  0
   57.1089   34.0337   44.2518 H   0  0  0  0  0  0  0  0  0  0  0  0
   55.9794   32.9485   45.1871 H   0  0  0  0  0  0  0  0  0  0  0  0
   57.1918   34.8646   46.4013 H   0  0  0  0  0  0  0  0  0  0  0  0
   57.1413   33.1360   47.1024 H   0  0  0  0  0  0  0  0  0  0  0  0
   57.9130   32.9520   48.6580 H   0  0  0  0  0  0  0  0  0  0  0  0
   57.9251   33.2050   52.0323 H   0  0  0  0  0  0  0  0  0  0  0  0
   57.0356   32.6393   50.5923 H   0  0  0  0  0  0  0  0  0  0  0  0
   57.6593   31.1517   53.1759 H   0  0  0  0  0  0  0  0  0  0  0  0
   56.0817   31.3624   52.3570 H   0  0  0  0  0  0  0  0  0  0  0  0
   58.8635   29.0345   52.4966 H   0  0  0  0  0  0  0  0  0  0  0  0
   58.8806   28.9138   50.6999 H   0  0  0  0  0  0  0  0  0  0  0  0
   59.9176   31.0727   52.5002 H   0  0  0  0  0  0  0  0  0  0  0  0
   60.5348   30.4815   50.9173 H   0  0  0  0  0  0  0  0  0  0  0  0
   63.5118   32.3456   49.4162 H   0  0  0  0  0  0  0  0  0  0  0  0
   64.7191   33.2343   47.4629 H   0  0  0  0  0  0  0  0  0  0  0  0
   63.5976   34.2101   45.5405 H   0  0  0  0  0  0  0  0  0  0  0  0
   61.0511   34.3269   45.5213 H   0  0  0  0  0  0  0  0  0  0  0  0
  1  2  1  0
  2  3  1  0
  3  4  1  0
  4  5  1  0
  3  6  1  0
  6  7  1  0
  7  8  1  0
  8  9  1  0
  9 10  2  0
 10 11  1  0
 11 12  1  0
 12 13  1  0
 13 14  1  0
 14 15  1  0
 15 16  1  0
 16 17  1  0
 17 18  1  0
 12 19  2  0
 19 20  1  0
 20 21  2  0
 21 22  1  0
 22 23  2  0
 23 24  1  0
 24 25  2  0
 25 10  1  0
 18 13  1  0
 25 20  1  0
  1 26  1  0
  1 27  1  0
  1 28  1  0
  2 29  1  0
  2 30  1  0
  4 31  1  0
  4 32  1  0
  5 33  1  0
  5 34  1  0
  5 35  1  0
  6 36  1  0
  6 37  1  0
  7 38  1  0
  7 39  1  0
  8 40  1  0
  8 41  1  0
 11 42  1  0
 14 43  1  0
 14 44  1  0
 15 45  1  0
 15 46  1  0
 17 47  1  0
 17 48  1  0
 18 49  1  0
 18 50  1  0
 21 51  1  0
 22 52  1  0
 23 53  1  0
 24 54  1  0
M  END
>  <smiles>  (35) 
CCN(CC)CCCN=c1[nH]c(N2CCOCC2)nc2ccccc12

>  <score_type>  (35) 
oracle

>  <origin>  (35) 
adg

>  <m_score__min__energy>  (35) 
-7.29

>  <m_primary>  (35) 
energy

$$$$
35:0
     RDKit          3D

 55 59  0  0  0  0  0  0  0  0999 V2000
   53.8940   24.8460   45.5900 C   0  0  0  0  0  0  0  0  0  0  0  0
   55.3060   24.8520   45.8230 O   0  0  0  0  0  0  0  0  0  0  0  0
   56.0620   23.8250   45.2630 C   0  0  0  0  0  0  0  0  0  0  0  0
   55.5050   22.6410   44.8750 C   0  0  0  0  0  0  0  0  0  0  0  0
   56.2680   21.6470   44.3290 C   0  0  0  0  0  0  0  0  0  0  0  0
   57.6230   21.8770   44.1810 C   0  0  0  0  0  0  0  0  0  0  0  0
   58.2030   23.0770   44.5710 C   0  0  0  0  0  0  0  0  0  0  0  0
   57.4230   24.0770   45.1240 C   0  0  0  0  0  0  0  0  0  0  0  0
   58.0390   25.2790   45.5090 N   0  0  0  0  0  0  0  0  0  0  0  0
   58.4060   26.3210   44.5590 C   0  0  0  0  0  0  0  0  0  0  0  0
   59.4080   27.2490   45.2520 C   0  0  0  0  0  0  0  0  0  0  0  0
   58.8680   27.7710   46.4760 N   0  0  0  0  0  0  0  0  0  0  0  0
   59.1350   29.0860   46.9490 C   0  0  0  0  0  0  0  0  0  0  0  0
   58.6410   29.5240   48.0410 O   0  0  0  0  0  0  0  0  0  0  0  0
   60.0040   30.0390   46.2090 C   0  0  0  0  0  0  0  0  0  0  0  0
   59.4140   31.3530   46.3410 N   0  0  0  0  0  0  0  0  0  0  0  0
   58.3920   31.8830   45.6690 C   0  0  0  0  0  0  0  0  0  0  0  0
   57.6240   31.1920   44.6030 C   0  0  0  0  0  0  0  0  0  0  0  0
   57.5370   31.5440   43.2890 C   0  0  0  0  0  0  0  0  0  0  0  0
   56.7910   30.7910   42.4790 C   0  0  0  0  0  0  0  0  0  0  0  0
   56.1590   29.7090   43.0240 C   0  0  0  0  0  0  0  0  0  0  0  0
   56.6680   29.7700   44.8270 S   0  0  0  0  0  0  0  0  0  0  0  0
   58.1640   33.1330   46.1030 N   0  0  0  0  0  0  0  0  0  0  0  0
   59.0510   33.4370   47.0790 C   0  0  0  0  0  0  0  0  0  0  0  0
   59.2580   34.5740   47.8560 C   0  0  0  0  0  0  0  0  0  0  0  0
   60.2680   34.5920   48.7990 C   0  0  0  0  0  0  0  0  0  0  0  0
   61.0570   33.4670   48.9500 C   0  0  0  0  0  0  0  0  0  0  0  0
   60.8520   32.3240   48.1710 C   0  0  0  0  0  0  0  0  0  0  0  0
   59.8300   32.3050   47.2160 C   0  0  0  0  0  0  0  0  0  0  0  0
   58.0090   26.9260   47.2740 C   0  0  0  0  0  0  0  0  0  0  0  0
   58.3150   25.4690   46.9410 C   0  0  0  0  0  0  0  0  0  0  0  0
   53.3634   24.8437   46.5536 H   0  0  0  0  0  0  0  0  0  0  0  0
   53.6128   25.7430   45.0187 H   0  0  0  0  0  0  0  0  0  0  0  0
   53.6205   23.9467   45.0187 H   0  0  0  0  0  0  0  0  0  0  0  0
   54.4239   22.4840   45.0038 H   0  0  0  0  0  0  0  0  0  0  0  0
   55.8176   20.6932   44.0169 H   0  0  0  0  0  0  0  0  0  0  0  0
   58.2567   21.0911   43.7441 H   0  0  0  0  0  0  0  0  0  0  0  0
   59.2840   23.2327   44.4401 H   0  0  0  0  0  0  0  0  0  0  0  0
   58.8669   25.8703   43.6677 H   0  0  0  0  0  0  0  0  0  0  0  0
   57.5160   26.8833   44.2402 H   0  0  0  0  0  0  0  0  0  0  0  0
   60.3252   26.6845   45.4759 H   0  0  0  0  0  0  0  0  0  0  0  0
   59.6271   28.0914   44.5794 H   0  0  0  0  0  0  0  0  0  0  0  0
   61.0165   30.0364   46.6389 H   0  0  0  0  0  0  0  0  0  0  0  0
   60.0817   29.7523   45.1499 H   0  0  0  0  0  0  0  0  0  0  0  0
   58.0689   32.4274   42.9059 H   0  0  0  0  0  0  0  0  0  0  0  0
   56.6883   31.0324   41.4107 H   0  0  0  0  0  0  0  0  0  0  0  0
   55.5074   28.9772   42.5242 H   0  0  0  0  0  0  0  0  0  0  0  0
   58.6175   35.4578   47.7191 H   0  0  0  0  0  0  0  0  0  0  0  0
   60.4409   35.4848   49.4179 H   0  0  0  0  0  0  0  0  0  0  0  0
   61.8629   33.4710   49.6986 H   0  0  0  0  0  0  0  0  0  0  0  0
   61.4934   31.4411   48.3090 H   0  0  0  0  0  0  0  0  0  0  0  0
   58.1971   27.1095   48.3421 H   0  0  0  0  0  0  0  0  0  0  0  0
   56.9542   27.1483   47.0549 H   0  0  0  0  0  0  0  0  0  0  0  0
   59.3716   25.2486   47.1529 H   0  0  0  0  0  0  0  0  0  0  0  0
   57.6963   24.7929   47.5493 H   0  0  0  0  0  0  0  0  0  0  0  0
  1  2  1  0
  2  3  1  0
  3  4  2  0
  4  5  1  0
  5  6  2  0
  6  7  1  0
  7  8  2  0
  8  9  1  0
  9 10  1  0
 10 11  1  0
 11 12  1  0
 12 13  1  0
 13 14  2  0
 13 15  1  0
 15 16  1  0
 16 17  1  0
 17 18  1  0
 18 19  2  0
 19 20  1  0
 20 21  2  0
 21 22  1  0
 17 23  2  0
 23 24  1  0
 24 25  2  0
 25 26  1  0
 26 27  2  0
 27 28  1  0
 28 29  2  0
 12 30  1  0
 30 31  1  0
  8  3  1  0
 31  9  1  0
 29 16  1  0
 22 18  1  0
 29 24  1  0
  1 32  1  0
  1 33  1  0
  1 34  1  0
  4 35  1  0
  5 36  1  0
  6 37  1  0
  7 38  1  0
 10 39  1  0
 10 40  1  0
 11 41  1  0
 11 42  1  0
 15 43  1  0
 15 44  1  0
 19 45  1  0
 20 46  1  0
 21 47  1  0
 25 48  1  0
 26 49  1  0
 27 50  1  0
 28 51  1  0
 30 52  1  0
 30 53  1  0
 31 54  1  0
 31 55  1  0
M  END
>  <smiles>  (36) 
COc1ccccc1N1CCN(C(=O)Cn2c(-c3cccs3)nc3ccccc32)CC1

>  <score_type>  (36) 
oracle

>  <origin>  (36) 
adg

>  <m_score__min__energy>  (36) 
-8.4399999999999995

>  <m_primary>  (36) 
energy

$$$$
36:0
     RDKit          3D

 54 56  0  0  0  0  0  0  0  0999 V2000
   59.3400   26.8330   46.8220 C   0  0  0  0  0  0  0  0  0  0  0  0
   58.0920   27.6900   47.0470 C   0  0  0  0  0  0  0  0  0  0  0  0
   57.4010   27.7880   45.7330 C   0  0  0  0  0  0  0  0  0  0  0  0
   57.2020   29.1710   45.2460 C   0  0  0  0  0  0  0  0  0  0  0  0
   55.9580   29.6100   44.8790 N   0  0  0  0  0  0  0  0  0  0  0  0
   56.0520   30.8520   44.4590 N   0  0  0  0  0  0  0  0  0  0  0  0
   57.3700   31.2140   44.5570 C   0  0  0  0  0  0  0  0  0  0  0  0
   57.8060   32.5670   44.1310 C   0  0  0  0  0  0  0  0  0  0  0  0
   58.3670   33.3600   45.2290 C   0  0  0  0  0  0  0  0  0  0  0  0
   58.0370   32.9830   46.5230 C   0  0  0  0  0  0  0  0  0  0  0  0
   58.5000   33.6570   47.6350 C   0  0  0  0  0  0  0  0  0  0  0  0
   59.3250   34.7550   47.4860 C   0  0  0  0  0  0  0  0  0  0  0  0
   59.6770   35.1630   46.1950 C   0  0  0  0  0  0  0  0  0  0  0  0
   59.1860   34.4510   45.0970 C   0  0  0  0  0  0  0  0  0  0  0  0
   58.0680   30.1770   45.0400 N   0  0  0  0  0  0  0  0  0  0  0  0
   59.4750   30.1130   45.2600 C   0  0  0  0  0  0  0  0  0  0  0  0
   59.9390   30.2760   46.6690 C   0  0  0  0  0  0  0  0  0  0  0  0
   61.3280   30.8720   46.7580 C   0  0  0  0  0  0  0  0  0  0  0  0
   61.3780   32.1560   47.4180 N   0  0  0  0  0  0  0  0  0  0  0  0
   61.3570   32.0500   48.8130 C   0  0  0  0  0  0  0  0  0  0  0  0
   62.0920   33.0840   49.6130 C   0  0  0  0  0  0  0  0  0  0  0  0
   62.6640   34.2070   48.8230 C   0  0  0  0  0  0  0  0  0  0  0  0
   63.3780   33.6060   47.6560 C   0  0  0  0  0  0  0  0  0  0  0  0
   62.3660   32.9530   46.7800 C   0  0  0  0  0  0  0  0  0  0  0  0
   59.7647   26.5414   47.7939 H   0  0  0  0  0  0  0  0  0  0  0  0
   59.0677   25.9305   46.2552 H   0  0  0  0  0  0  0  0  0  0  0  0
   60.0846   27.4112   46.2552 H   0  0  0  0  0  0  0  0  0  0  0  0
   57.4330   27.2136   47.7878 H   0  0  0  0  0  0  0  0  0  0  0  0
   58.3586   28.6860   47.4302 H   0  0  0  0  0  0  0  0  0  0  0  0
   58.0007   27.2444   44.9881 H   0  0  0  0  0  0  0  0  0  0  0  0
   56.3981   27.3587   45.8741 H   0  0  0  0  0  0  0  0  0  0  0  0
   58.5726   32.4584   43.3497 H   0  0  0  0  0  0  0  0  0  0  0  0
   56.9164   33.0985   43.7622 H   0  0  0  0  0  0  0  0  0  0  0  0
   57.3804   32.1125   46.6684 H   0  0  0  0  0  0  0  0  0  0  0  0
   58.2116   33.3193   48.6414 H   0  0  0  0  0  0  0  0  0  0  0  0
   59.6983   35.2986   48.3664 H   0  0  0  0  0  0  0  0  0  0  0  0
   60.3324   36.0338   46.0458 H   0  0  0  0  0  0  0  0  0  0  0  0
   59.4684   34.7796   44.0859 H   0  0  0  0  0  0  0  0  0  0  0  0
   59.8240   29.1321   44.9050 H   0  0  0  0  0  0  0  0  0  0  0  0
   59.8931   30.9726   44.7156 H   0  0  0  0  0  0  0  0  0  0  0  0
   59.2369   30.9379   47.1970 H   0  0  0  0  0  0  0  0  0  0  0  0
   59.9749   29.2762   47.1263 H   0  0  0  0  0  0  0  0  0  0  0  0
   61.9690   30.1724   47.3145 H   0  0  0  0  0  0  0  0  0  0  0  0
   61.6708   31.0328   45.7252 H   0  0  0  0  0  0  0  0  0  0  0  0
   60.3032   32.0830   49.1269 H   0  0  0  0  0  0  0  0  0  0  0  0
   61.8913   31.1118   49.0233 H   0  0  0  0  0  0  0  0  0  0  0  0
   61.3913   33.5071   50.3479 H   0  0  0  0  0  0  0  0  0  0  0  0
   62.9476   32.5652   50.0699 H   0  0  0  0  0  0  0  0  0  0  0  0
   61.8591   34.8696   48.4722 H   0  0  0  0  0  0  0  0  0  0  0  0
   63.3530   34.8057   49.4368 H   0  0  0  0  0  0  0  0  0  0  0  0
   63.9041   34.3927   47.0954 H   0  0  0  0  0  0  0  0  0  0  0  0
   64.1167   32.8674   48.0007 H   0  0  0  0  0  0  0  0  0  0  0  0
   61.8444   33.7476   46.2263 H   0  0  0  0  0  0  0  0  0  0  0  0
   62.9390   32.2516   46.1557 H   0  0  0  0  0  0  0  0  0  0  0  0
  1  2  1  0
  2  3  1  0
  3  4  1  0
  4  5  2  0
  5  6  1  0
  6  7  2  0
  7  8  1  0
  8  9  1  0
  9 10  2  0
 10 11  1  0
 11 12  2  0
 12 13  1  0
 13 14  2  0
  7 15  1  0
 15 16  1  0
 16 17  1  0
 17 18  1  0
 18 19  1  0
 19 20  1  0
 20 21  1  0
 21 22  1  0
 22 23  1  0
 23 24  1  0
 15  4  1  0
 24 19  1  0
 14  9  1  0
  1 25  1  0
  1 26  1  0
  1 27  1  0
  2 28  1  0
  2 29  1  0
  3 30  1  0
  3 31  1  0
  8 32  1  0
  8 33  1  0
 10 34  1  0
 11 35  1  0
 12 36  1  0
 13 37  1  0
 14 38  1  0
 16 39  1  0
 16 40  1  0
 17 41  1  0
 17 42  1  0
 18 43  1  0
 18 44  1  0
 20 45  1  0
 20 46  1  0
 21 47  1  0
 21 48  1  0
 22 49  1  0
 22 50  1  0
 23 51  1  0
 23 52  1  0
 24 53  1  0
 24 54  1  0
M  END
>  <smiles>  (37) 
CCCc1nnc(Cc2ccccc2)n1CCCN1CCCCC1

>  <score_type>  (37) 
oracle

>  <origin>  (37) 
adg

>  <m_score__min__energy>  (37) 
-8.8100000000000005

>  <m_primary>  (37) 
energy

$$$$
37:0
     RDKit          3D

 33 34  0  0  0  0  0  0  0  0999 V2000
   55.5320   29.7420   43.7490 C   0  0  0  0  0  0  0  0  0  0  0  0
   56.6360   29.4240   44.6760 C   0  0  0  0  0  0  0  0  0  0  0  0
   56.7210   28.1770   45.2250 N   0  0  0  0  0  0  0  0  0  0  0  0
   57.7060   27.8520   46.0680 C   0  0  0  0  0  0  0  0  0  0  0  0
   58.6320   28.7510   46.3900 N   0  0  0  0  0  0  0  0  0  0  0  0
   58.5790   29.9990   45.8640 C   0  0  0  0  0  0  0  0  0  0  0  0
   57.5800   30.3780   44.9900 C   0  0  0  0  0  0  0  0  0  0  0  0
   57.5440   31.7270   44.4360 C   0  0  0  0  0  0  0  0  0  0  0  0
   58.2340   32.0040   43.4220 O   0  0  0  0  0  0  0  0  0  0  0  0
   56.7420   32.6810   45.0460 O   0  0  0  0  0  0  0  0  0  0  0  0
   57.2040   33.8350   45.6850 C   0  0  0  0  0  0  0  0  0  0  0  0
   58.4840   33.7130   46.3830 C   0  0  0  0  0  0  0  0  0  0  0  0
   58.5710   34.2150   47.5510 O   0  0  0  0  0  0  0  0  0  0  0  0
   59.6480   33.0840   45.8860 N   0  0  0  0  0  0  0  0  0  0  0  0
   60.8030   33.0580   46.6950 C   0  0  0  0  0  0  0  0  0  0  0  0
   61.8920   33.8330   46.4010 C   0  0  0  0  0  0  0  0  0  0  0  0
   63.0430   33.8190   47.1890 C   0  0  0  0  0  0  0  0  0  0  0  0
   63.0900   33.0030   48.3020 C   0  0  0  0  0  0  0  0  0  0  0  0
   64.6620   32.9790   49.3860 Br  0  0  0  0  0  0  0  0  0  0  0  0
   61.9890   32.2150   48.6050 C   0  0  0  0  0  0  0  0  0  0  0  0
   60.8410   32.2270   47.8200 C   0  0  0  0  0  0  0  0  0  0  0  0
   54.6320   30.0012   44.3259 H   0  0  0  0  0  0  0  0  0  0  0  0
   55.8193   30.5939   43.1152 H   0  0  0  0  0  0  0  0  0  0  0  0
   55.3221   28.8678   43.1152 H   0  0  0  0  0  0  0  0  0  0  0  0
   57.7509   26.8397   46.4961 H   0  0  0  0  0  0  0  0  0  0  0  0
   59.3531   30.7297   46.1411 H   0  0  0  0  0  0  0  0  0  0  0  0
   57.3095   34.6219   44.9237 H   0  0  0  0  0  0  0  0  0  0  0  0
   56.4613   34.0597   46.4647 H   0  0  0  0  0  0  0  0  0  0  0  0
   59.6450   32.6410   44.9450 H   0  0  0  0  0  0  0  0  0  0  0  0
   61.8587   34.4865   45.5168 H   0  0  0  0  0  0  0  0  0  0  0  0
   63.9040   34.4513   46.9266 H   0  0  0  0  0  0  0  0  0  0  0  0
   62.0250   31.5630   49.4902 H   0  0  0  0  0  0  0  0  0  0  0  0
   59.9788   31.5948   48.0788 H   0  0  0  0  0  0  0  0  0  0  0  0
  1  2  1  0
  2  3  2  0
  3  4  1  0
  4  5  2  0
  5  6  1  0
  6  7  2  0
  7  8  1  0
  8  9  2  0
  8 10  1  0
 10 11  1  0
 11 12  1  0
 12 13  2  0
 12 14  1  0
 14 15  1  0
 15 16  2  0
 16 17  1  0
 17 18  2  0
 18 19  1  0
 18 20  1  0
 20 21  2  0
  7  2  1  0
 21 15  1  0
  1 22  1  0
  1 23  1  0
  1 24  1  0
  4 25  1  0
  6 26  1  0
 11 27  1  0
 11 28  1  0
 14 29  1  0
 16 30  1  0
 17 31  1  0
 20 32  1  0
 21 33  1  0
M  END
>  <smiles>  (38) 
Cc1ncncc1C(=O)OCC(=O)Nc1ccc(Br)cc1

>  <score_type>  (38) 
oracle

>  <origin>  (38) 
adg

>  <m_score__min__energy>  (38) 
-7.1699999999999999

>  <m_primary>  (38) 
energy

$$$$
38:0
     RDKit          3D

 51 54  0  0  0  0  0  0  0  0999 V2000
   59.9090   35.3590   46.3740 C   0  0  0  0  0  0  0  0  0  0  0  0
   59.0630   34.2130   45.9560 C   0  0  0  0  0  0  0  0  0  0  0  0
   57.7690   34.3650   45.5150 C   0  0  0  0  0  0  0  0  0  0  0  0
   56.9970   33.2790   45.1230 C   0  0  0  0  0  0  0  0  0  0  0  0
   57.4960   31.9980   45.1590 C   0  0  0  0  0  0  0  0  0  0  0  0
   57.0540   30.7870   44.8710 O   0  0  0  0  0  0  0  0  0  0  0  0
   57.9770   29.8820   45.0960 C   0  0  0  0  0  0  0  0  0  0  0  0
   57.9330   28.4350   44.9180 C   0  0  0  0  0  0  0  0  0  0  0  0
   57.6960   27.5840   45.9850 C   0  0  0  0  0  0  0  0  0  0  0  0
   57.6690   26.2140   45.8360 C   0  0  0  0  0  0  0  0  0  0  0  0
   57.8840   25.6050   44.5870 C   0  0  0  0  0  0  0  0  0  0  0  0
   57.8610   24.2020   44.5340 N   0  0  0  0  0  0  0  0  0  0  0  0
   57.0140   23.3860   43.7590 C   0  0  0  0  0  0  0  0  0  0  0  0
   56.1620   23.9080   43.0020 O   0  0  0  0  0  0  0  0  0  0  0  0
   57.0530   21.8940   43.7650 C   0  0  0  0  0  0  0  0  0  0  0  0
   55.9220   21.3380   44.4890 N   0  0  0  0  0  0  0  0  0  0  0  0
   55.6640   22.1780   45.6630 C   0  0  0  0  0  0  0  0  0  0  0  0
   56.8870   22.3350   46.5140 C   0  0  0  0  0  0  0  0  0  0  0  0
   57.3480   21.0550   47.0270 N   0  0  0  0  0  0  0  0  0  0  0  0
   56.5700   20.6210   48.1770 C   0  0  0  0  0  0  0  0  0  0  0  0
   57.3980   20.0460   46.0220 C   0  0  0  0  0  0  0  0  0  0  0  0
   56.2830   20.0230   45.0290 C   0  0  0  0  0  0  0  0  0  0  0  0
   58.1150   26.4620   43.5480 C   0  0  0  0  0  0  0  0  0  0  0  0
   58.1410   27.8450   43.6980 C   0  0  0  0  0  0  0  0  0  0  0  0
   59.0720   30.5290   45.5540 N   0  0  0  0  0  0  0  0  0  0  0  0
   58.8160   31.8550   45.6100 C   0  0  0  0  0  0  0  0  0  0  0  0
   59.5760   32.9340   45.9970 C   0  0  0  0  0  0  0  0  0  0  0  0
   59.9445   35.4071   47.4724 H   0  0  0  0  0  0  0  0  0  0  0  0
   60.9273   35.2261   45.9797 H   0  0  0  0  0  0  0  0  0  0  0  0
   59.4821   36.2930   45.9797 H   0  0  0  0  0  0  0  0  0  0  0  0
   57.3337   35.3743   45.4716 H   0  0  0  0  0  0  0  0  0  0  0  0
   55.9664   33.4468   44.7770 H   0  0  0  0  0  0  0  0  0  0  0  0
   57.5240   28.0150   46.9823 H   0  0  0  0  0  0  0  0  0  0  0  0
   57.4746   25.5820   46.7151 H   0  0  0  0  0  0  0  0  0  0  0  0
   58.5750   23.6830   45.1290 H   0  0  0  0  0  0  0  0  0  0  0  0
   57.0272   21.5309   42.7270 H   0  0  0  0  0  0  0  0  0  0  0  0
   57.9777   21.5734   44.2672 H   0  0  0  0  0  0  0  0  0  0  0  0
   55.3357   23.1718   45.3246 H   0  0  0  0  0  0  0  0  0  0  0  0
   54.8862   21.6898   46.2686 H   0  0  0  0  0  0  0  0  0  0  0  0
   57.6873   22.7868   45.9095 H   0  0  0  0  0  0  0  0  0  0  0  0
   56.6316   22.9776   47.3695 H   0  0  0  0  0  0  0  0  0  0  0  0
   57.0899   20.9110   49.1020 H   0  0  0  0  0  0  0  0  0  0  0  0
   55.5784   21.0963   48.1493 H   0  0  0  0  0  0  0  0  0  0  0  0
   56.4534   19.5275   48.1493 H   0  0  0  0  0  0  0  0  0  0  0  0
   58.3366   20.1794   45.4641 H   0  0  0  0  0  0  0  0  0  0  0  0
   57.3144   19.0946   46.5677 H   0  0  0  0  0  0  0  0  0  0  0  0
   56.5833   19.3778   44.1902 H   0  0  0  0  0  0  0  0  0  0  0  0
   55.3965   19.6500   45.5628 H   0  0  0  0  0  0  0  0  0  0  0  0
   58.2883   26.0392   42.5474 H   0  0  0  0  0  0  0  0  0  0  0  0
   58.3325   28.4784   42.8193 H   0  0  0  0  0  0  0  0  0  0  0  0
   60.6075   32.7743   46.3441 H   0  0  0  0  0  0  0  0  0  0  0  0
  1  2  1  0
  2  3  2  0
  3  4  1  0
  4  5  2  0
  5  6  1  0
  6  7  1  0
  7  8  1  0
  8  9  2  0
  9 10  1  0
 10 11  2  0
 11 12  1  0
 12 13  1  0
 13 14  2  0
 13 15  1  0
 15 16  1  0
 16 17  1  0
 17 18  1  0
 18 19  1  0
 19 20  1  0
 19 21  1  0
 21 22  1  0
 11 23  1  0
 23 24  2  0
  7 25  2  0
 25 26  1  0
 26 27  2  0
 27  2  1  0
 26  5  1  0
 24  8  1  0
 22 16  1  0
  1 28  1  0
  1 29  1  0
  1 30  1  0
  3 31  1  0
  4 32  1  0
  9 33  1  0
 10 34  1  0
 12 35  1  0
 15 36  1  0
 15 37  1  0
 17 38  1  0
 17 39  1  0
 18 40  1  0
 18 41  1  0
 20 42  1  0
 20 43  1  0
 20 44  1  0
 21 45  1  0
 21 46  1  0
 22 47  1  0
 22 48  1  0
 23 49  1  0
 24 50  1  0
 27 51  1  0
M  END
>  <smiles>  (39) 
Cc1ccc2oc(-c3ccc(NC(=O)CN4CCN(C)CC4)cc3)nc2c1

>  <score_type>  (39) 
oracle

>  <origin>  (39) 
adg

>  <m_score__min__energy>  (39) 
-8.2200000000000006

>  <m_primary>  (39) 
energy

$$$$
39:0
     RDKit          3D

 54 57  0  0  1  0  0  0  0  0999 V2000
   63.2600   32.0060   48.3990 C   0  0  0  0  0  0  0  0  0  0  0  0
   61.9420   31.6820   48.8150 O   0  0  0  0  0  0  0  0  0  0  0  0
   60.8250   32.1380   48.1680 C   0  0  0  0  0  0  0  0  0  0  0  0
   60.8450   33.0720   47.1430 C   0  0  0  0  0  0  0  0  0  0  0  0
   59.7020   33.5120   46.5100 C   0  0  0  0  0  0  0  0  0  0  0  0
   59.7120   34.4380   45.4930 C   0  0  0  0  0  0  0  0  0  0  0  0
   58.5510   34.8740   44.8620 C   0  0  0  0  0  0  0  0  0  0  0  0
   57.3280   34.3550   45.2720 C   0  0  0  0  0  0  0  0  0  0  0  0
   57.2860   33.4230   46.2920 C   0  0  0  0  0  0  0  0  0  0  0  0
   58.4800   33.0150   46.8960 C   0  0  0  0  0  0  0  0  0  0  0  0
   58.4300   32.0850   47.9130 C   0  0  0  0  0  0  0  0  0  0  0  0
   59.5870   31.6330   48.5600 C   0  0  0  0  0  0  0  0  0  0  0  0
   59.4100   30.6650   49.6050 C   0  0  0  0  0  0  0  0  0  0  0  0
   58.5140   30.8720   50.4640 O   0  0  0  0  0  0  0  0  0  0  0  0
   60.1720   29.4740   49.7520 N   0  0  0  0  0  0  0  0  0  0  0  0
   59.9370   28.5230   48.9000 C   0  0  0  0  0  0  0  0  0  0  0  0
   59.2180   28.5540   47.8170 N   0  0  0  0  0  0  0  0  0  0  0  0
   59.0870   27.4870   47.0670 C   0  0  0  0  0  0  0  0  0  0  0  0
   58.2690   27.4860   45.8170 C   0  0  0  0  0  0  0  0  0  0  0  0
   57.8790   26.3770   45.3370 O   0  0  0  0  0  0  0  0  0  0  0  0
   57.9280   28.7020   45.1650 N   0  0  0  0  0  0  0  0  0  0  0  0
   56.5070   28.9790   45.2030 C   0  0  0  0  0  0  0  0  0  0  0  0
   56.1010   30.1400   44.3500 C   0  0  0  0  0  0  0  0  0  0  0  0
   56.7520   30.1380   42.9900 C   0  0  0  0  0  0  0  0  0  0  0  0
   57.9280   30.9740   43.0860 N   0  0  0  0  0  0  0  0  0  0  0  0
   57.6730   32.3470   42.7810 C   0  0  0  0  0  0  0  0  0  0  0  0
   58.5530   30.8620   44.3910 C   0  0  0  0  0  0  0  0  0  0  0  0
   59.0320   29.4360   44.5900 C   0  0  0  0  0  0  0  0  0  0  0  0
   59.7270   26.3440   47.4540 C   0  0  0  0  0  0  0  0  0  0  0  0
   60.6000   26.8460   49.0480 S   0  0  0  0  0  0  0  0  0  0  0  0
   63.8956   32.1622   49.2831 H   0  0  0  0  0  0  0  0  0  0  0  0
   63.6673   31.1812   47.7958 H   0  0  0  0  0  0  0  0  0  0  0  0
   63.2385   32.9256   47.7958 H   0  0  0  0  0  0  0  0  0  0  0  0
   61.8148   33.4794   46.8211 H   0  0  0  0  0  0  0  0  0  0  0  0
   60.6774   34.8508   45.1650 H   0  0  0  0  0  0  0  0  0  0  0  0
   58.5999   35.6169   44.0523 H   0  0  0  0  0  0  0  0  0  0  0  0
   56.3976   34.6847   44.7866 H   0  0  0  0  0  0  0  0  0  0  0  0
   56.3239   33.0066   46.6252 H   0  0  0  0  0  0  0  0  0  0  0  0
   57.4533   31.6867   48.2251 H   0  0  0  0  0  0  0  0  0  0  0  0
   58.7180   29.4830   47.5330 H   0  0  0  0  0  0  0  0  0  0  0  0
   55.9688   28.0855   44.8536 H   0  0  0  0  0  0  0  0  0  0  0  0
   56.2560   29.2382   46.2422 H   0  0  0  0  0  0  0  0  0  0  0  0
   55.0098   30.1090   44.2147 H   0  0  0  0  0  0  0  0  0  0  0  0
   56.4291   31.0540   44.8666 H   0  0  0  0  0  0  0  0  0  0  0  0
   57.0380   29.1137   42.7090 H   0  0  0  0  0  0  0  0  0  0  0  0
   56.0612   30.5168   42.2223 H   0  0  0  0  0  0  0  0  0  0  0  0
   57.5672   32.9168   43.7160 H   0  0  0  0  0  0  0  0  0  0  0  0
   58.5108   32.7544   42.1962 H   0  0  0  0  0  0  0  0  0  0  0  0
   56.7447   32.4264   42.1962 H   0  0  0  0  0  0  0  0  0  0  0  0
   59.4092   31.5500   44.4499 H   0  0  0  0  0  0  0  0  0  0  0  0
   57.8258   31.1219   45.1743 H   0  0  0  0  0  0  0  0  0  0  0  0
   59.3185   28.9943   43.6242 H   0  0  0  0  0  0  0  0  0  0  0  0
   59.9132   29.4034   45.2475 H   0  0  0  0  0  0  0  0  0  0  0  0
   59.7319   25.3639   46.9546 H   0  0  0  0  0  0  0  0  0  0  0  0
  1  2  1  0
  2  3  1  0
  3  4  2  0
  4  5  1  0
  5  6  2  0
  6  7  1  0
  7  8  2  0
  8  9  1  0
  9 10  2  0
 10 11  1  0
 11 12  2  0
 12 13  1  0
 13 14  2  0
 13 15  1  0
 15 16  2  0
 16 17  1  0
 17 18  1  0
 18 19  1  0
 19 20  2  0
 19 21  1  0
 21 22  1  0
 22 23  1  0
 23 24  1  0
 24 25  1  0
 25 26  1  0
 25 27  1  0
 27 28  1  0
 18 29  2  0
 29 30  1  0
 12  3  1  0
 30 16  1  0
 10  5  1  0
 28 21  1  0
  1 31  1  0
  1 32  1  0
  1 33  1  0
  4 34  1  0
  6 35  1  0
  7 36  1  0
  8 37  1  0
  9 38  1  0
 11 39  1  0
 17 40  1  0
 22 41  1  0
 22 42  1  0
 23 43  1  0
 23 44  1  0
 24 45  1  0
 24 46  1  0
 26 47  1  0
 26 48  1  0
 26 49  1  0
 27 50  1  0
 27 51  1  0
 28 52  1  0
 28 53  1  0
 29 54  1  0
M  END
>  <smiles>  (40) 
COc1cc2ccccc2cc1C(=O)N=c1[nH]c(C(=O)N2CCCN(C)CC2)cs1

>  <score_type>  (40) 
oracle

>  <origin>  (40) 
adg

>  <m_score__min__energy>  (40) 
-8.0500000000000007

>  <m_primary>  (40) 
energy

$$$$
40:0
     RDKit          3D

 58 61  0  0  0  0  0  0  0  0999 V2000
   60.8080   28.0300   49.9600 C   0  0  0  0  0  0  0  0  0  0  0  0
   61.0410   29.0030   48.9700 O   0  0  0  0  0  0  0  0  0  0  0  0
   60.1130   29.2210   47.9730 C   0  0  0  0  0  0  0  0  0  0  0  0
   59.1890   28.2100   47.6890 C   0  0  0  0  0  0  0  0  0  0  0  0
   58.2270   28.3480   46.7130 C   0  0  0  0  0  0  0  0  0  0  0  0
   58.1890   29.5290   46.0000 C   0  0  0  0  0  0  0  0  0  0  0  0
   57.1860   29.7060   44.9550 C   0  0  0  0  0  0  0  0  0  0  0  0
   56.2390   30.6700   44.8480 N   0  0  0  0  0  0  0  0  0  0  0  0
   55.5320   30.4680   43.7460 N   0  0  0  0  0  0  0  0  0  0  0  0
   56.0060   29.3920   43.1410 N   0  0  0  0  0  0  0  0  0  0  0  0
   57.0260   28.9050   43.8680 N   0  0  0  0  0  0  0  0  0  0  0  0
   59.0950   30.5310   46.2710 C   0  0  0  0  0  0  0  0  0  0  0  0
   60.0780   30.3950   47.2640 C   0  0  0  0  0  0  0  0  0  0  0  0
   61.0540   31.5200   47.4740 C   0  0  0  0  0  0  0  0  0  0  0  0
   60.6890   32.4960   48.3820 N   0  0  0  0  0  0  0  0  0  0  0  0
   60.5740   32.2470   49.7660 C   0  0  0  0  0  0  0  0  0  0  0  0
   59.3390   32.9330   50.3450 C   0  0  0  0  0  0  0  0  0  0  0  0
   58.3250   31.9530   50.6100 N   0  0  0  0  0  0  0  0  0  0  0  0
   57.6220   32.3190   51.8390 C   0  0  0  0  0  0  0  0  0  0  0  0
   56.4450   31.3740   52.0270 C   0  0  0  0  0  0  0  0  0  0  0  0
   56.7560   30.0850   51.6350 O   0  0  0  0  0  0  0  0  0  0  0  0
   58.1200   29.8110   51.7020 C   0  0  0  0  0  0  0  0  0  0  0  0
   58.9170   30.6460   50.7120 C   0  0  0  0  0  0  0  0  0  0  0  0
   60.3830   33.8130   47.9650 C   0  0  0  0  0  0  0  0  0  0  0  0
   59.3180   33.8220   46.9460 C   0  0  0  0  0  0  0  0  0  0  0  0
   59.6610   34.2010   45.6600 C   0  0  0  0  0  0  0  0  0  0  0  0
   58.7050   34.2290   44.6420 C   0  0  0  0  0  0  0  0  0  0  0  0
   57.3840   33.8800   44.8740 C   0  0  0  0  0  0  0  0  0  0  0  0
   57.0570   33.5040   46.1570 C   0  0  0  0  0  0  0  0  0  0  0  0
   58.0110   33.4780   47.1670 C   0  0  0  0  0  0  0  0  0  0  0  0
   60.9172   28.4859   50.9551 H   0  0  0  0  0  0  0  0  0  0  0  0
   59.7889   27.6310   49.8493 H   0  0  0  0  0  0  0  0  0  0  0  0
   61.5358   27.2127   49.8493 H   0  0  0  0  0  0  0  0  0  0  0  0
   59.2321   27.2735   48.2643 H   0  0  0  0  0  0  0  0  0  0  0  0
   57.5095   27.5399   46.5077 H   0  0  0  0  0  0  0  0  0  0  0  0
   55.6990   28.9350   42.2500 H   0  0  0  0  0  0  0  0  0  0  0  0
   59.0467   31.4652   45.6922 H   0  0  0  0  0  0  0  0  0  0  0  0
   62.0008   31.0798   47.8201 H   0  0  0  0  0  0  0  0  0  0  0  0
   61.1149   32.0352   46.5040 H   0  0  0  0  0  0  0  0  0  0  0  0
   60.4934   31.1624   49.9308 H   0  0  0  0  0  0  0  0  0  0  0  0
   61.4659   32.6483   50.2694 H   0  0  0  0  0  0  0  0  0  0  0  0
   59.6087   33.4434   51.2814 H   0  0  0  0  0  0  0  0  0  0  0  0
   58.9566   33.6687   49.6221 H   0  0  0  0  0  0  0  0  0  0  0  0
   58.3060   32.2335   52.6962 H   0  0  0  0  0  0  0  0  0  0  0  0
   57.2627   33.3564   51.7707 H   0  0  0  0  0  0  0  0  0  0  0  0
   56.1616   31.3647   53.0898 H   0  0  0  0  0  0  0  0  0  0  0  0
   55.6147   31.7319   51.4005 H   0  0  0  0  0  0  0  0  0  0  0  0
   58.4768   30.0295   52.7193 H   0  0  0  0  0  0  0  0  0  0  0  0
   58.2669   28.7507   51.4486 H   0  0  0  0  0  0  0  0  0  0  0  0
   59.9557   30.7391   51.0618 H   0  0  0  0  0  0  0  0  0  0  0  0
   58.9075   30.1584   49.7260 H   0  0  0  0  0  0  0  0  0  0  0  0
   60.0493   34.3956   48.8363 H   0  0  0  0  0  0  0  0  0  0  0  0
   61.2882   34.2547   47.5228 H   0  0  0  0  0  0  0  0  0  0  0  0
   60.7002   34.4839   45.4365 H   0  0  0  0  0  0  0  0  0  0  0  0
   59.0084   34.5359   43.6302 H   0  0  0  0  0  0  0  0  0  0  0  0
   56.6326   33.9024   44.0710 H   0  0  0  0  0  0  0  0  0  0  0  0
   56.0200   33.2184   46.3874 H   0  0  0  0  0  0  0  0  0  0  0  0
   57.7061   33.1707   48.1782 H   0  0  0  0  0  0  0  0  0  0  0  0
  1  2  1  0
  2  3  1  0
  3  4  2  0
  4  5  1  0
  5  6  2  0
  6  7  1  0
  7  8  1  0
  8  9  2  0
  9 10  1  0
 10 11  1  0
  6 12  1  0
 12 13  2  0
 13 14  1  0
 14 15  1  0
 15 16  1  0
 16 17  1  0
 17 18  1  0
 18 19  1  0
 19 20  1  0
 20 21  1  0
 21 22  1  0
 22 23  1  0
 15 24  1  0
 24 25  1  0
 25 26  2  0
 26 27  1  0
 27 28  2  0
 28 29  1  0
 29 30  2  0
 13  3  1  0
 23 18  1  0
 30 25  1  0
 11  7  2  0
  1 31  1  0
  1 32  1  0
  1 33  1  0
  4 34  1  0
  5 35  1  0
 10 36  1  0
 12 37  1  0
 14 38  1  0
 14 39  1  0
 16 40  1  0
 16 41  1  0
 17 42  1  0
 17 43  1  0
 19 44  1  0
 19 45  1  0
 20 46  1  0
 20 47  1  0
 22 48  1  0
 22 49  1  0
 23 50  1  0
 23 51  1  0
 24 52  1  0
 24 53  1  0
 26 54  1  0
 27 55  1  0
 28 56  1  0
 29 57  1  0
 30 58  1  0
M  END
>  <smiles>  (41) 
COc1ccc(-c2nn[nH]n2)cc1CN(CCN1CCOCC1)Cc1ccccc1

>  <score_type>  (41) 
oracle

>  <origin>  (41) 
adg

>  <m_score__min__energy>  (41) 
-9.1500000000000004

>  <m_primary>  (41) 
energy

$$$$
41:0
     RDKit          3D

 38 40  0  0  1  0  0  0  0  0999 V2000
   58.5600   32.8610   51.6030 C   0  0  0  0  0  0  0  0  0  0  0  0
   58.7240   32.1740   50.3770 O   0  0  0  0  0  0  0  0  0  0  0  0
   59.7980   32.5300   49.5360 C   0  0  0  0  0  0  0  0  0  0  0  0
   60.3000   33.8320   49.6110 C   0  0  0  0  0  0  0  0  0  0  0  0
   61.3510   34.1920   48.7940 C   0  0  0  0  0  0  0  0  0  0  0  0
   61.9220   33.3100   47.9040 C   0  0  0  0  0  0  0  0  0  0  0  0
   63.3650   33.7560   46.7610 Br  0  0  0  0  0  0  0  0  0  0  0  0
   61.4030   32.0220   47.8500 C   0  0  0  0  0  0  0  0  0  0  0  0
   60.3510   31.6250   48.6550 C   0  0  0  0  0  0  0  0  0  0  0  0
   59.8750   30.2470   48.5410 C   0  0  0  0  0  0  0  0  0  0  0  0
   58.5230   30.1520   47.9690 N   0  0  0  0  0  0  0  0  0  0  0  0
   58.4240   30.1870   46.6620 C   0  0  0  0  0  0  0  0  0  0  0  0
   58.5360   29.0160   46.0100 N   0  0  0  0  0  0  0  0  0  0  0  0
   58.4250   29.0410   44.6660 C   0  0  0  0  0  0  0  0  0  0  0  0
   58.5550   27.7260   43.9640 C   0  0  0  0  0  0  0  0  0  0  0  0
   58.2140   30.1600   43.9590 N   0  0  0  0  0  0  0  0  0  0  0  0
   58.1060   31.3130   44.6220 C   0  0  0  0  0  0  0  0  0  0  0  0
   57.8820   32.4720   43.8700 C   0  0  0  0  0  0  0  0  0  0  0  0
   57.7660   33.6830   44.5630 C   0  0  0  0  0  0  0  0  0  0  0  0
   57.8710   33.7190   45.9540 C   0  0  0  0  0  0  0  0  0  0  0  0
   58.0940   32.5640   46.6950 C   0  0  0  0  0  0  0  0  0  0  0  0
   58.2060   31.3790   45.9920 C   0  0  0  0  0  0  0  0  0  0  0  0
   58.7262   32.1650   52.4384 H   0  0  0  0  0  0  0  0  0  0  0  0
   59.2868   33.6846   51.6619 H   0  0  0  0  0  0  0  0  0  0  0  0
   57.5396   33.2675   51.6619 H   0  0  0  0  0  0  0  0  0  0  0  0
   59.8632   34.5590   50.3114 H   0  0  0  0  0  0  0  0  0  0  0  0
   61.7460   35.2168   48.8553 H   0  0  0  0  0  0  0  0  0  0  0  0
   61.8412   31.2980   47.1473 H   0  0  0  0  0  0  0  0  0  0  0  0
   60.5689   29.6886   47.8955 H   0  0  0  0  0  0  0  0  0  0  0  0
   59.8328   29.8280   49.5572 H   0  0  0  0  0  0  0  0  0  0  0  0
   58.6347   26.9196   44.7079 H   0  0  0  0  0  0  0  0  0  0  0  0
   57.6691   27.5575   43.3340 H   0  0  0  0  0  0  0  0  0  0  0  0
   59.4567   27.7342   43.3340 H   0  0  0  0  0  0  0  0  0  0  0  0
   58.1400   30.0940   42.9000 H   0  0  0  0  0  0  0  0  0  0  0  0
   57.8000   32.4328   42.7738 H   0  0  0  0  0  0  0  0  0  0  0  0
   57.5904   34.6149   44.0056 H   0  0  0  0  0  0  0  0  0  0  0  0
   57.7752   34.6826   46.4758 H   0  0  0  0  0  0  0  0  0  0  0  0
   58.1776   32.5918   47.7915 H   0  0  0  0  0  0  0  0  0  0  0  0
  1  2  1  0
  2  3  1  0
  3  4  2  0
  4  5  1  0
  5  6  2  0
  6  7  1  0
  6  8  1  0
  8  9  2  0
  9 10  1  0
 10 11  1  0
 11 12  2  0
 12 13  1  0
 13 14  2  0
 14 15  1  0
 14 16  1  0
 16 17  1  0
 17 18  2  0
 18 19  1  0
 19 20  2  0
 20 21  1  0
 21 22  2  0
  9  3  1  0
 22 12  1  0
 22 17  1  0
  1 23  1  0
  1 24  1  0
  1 25  1  0
  4 26  1  0
  5 27  1  0
  8 28  1  0
 10 29  1  0
 10 30  1  0
 15 31  1  0
 15 32  1  0
 15 33  1  0
 16 34  1  0
 18 35  1  0
 19 36  1  0
 20 37  1  0
 21 38  1  0
M  END
>  <smiles>  (42) 
COc1ccc(Br)cc1CN=c1nc(C)[nH]c2ccccc12

>  <score_type>  (42) 
oracle

>  <origin>  (42) 
adg

>  <m_score__min__energy>  (42) 
-7.5899999999999999

>  <m_primary>  (42) 
energy

$$$$
42:0
     RDKit          3D

 55 57  0  0  0  0  0  0  0  0999 V2000
   56.1870   29.6590   43.3210 C   0  0  0  0  0  0  0  0  0  0  0  0
   56.8420   30.4540   44.4000 C   0  0  0  0  0  0  0  0  0  0  0  0
   56.7080   31.7360   44.6470 O   0  0  0  0  0  0  0  0  0  0  0  0
   57.4220   32.1200   45.6700 C   0  0  0  0  0  0  0  0  0  0  0  0
   57.4530   33.5180   46.1610 C   0  0  0  0  0  0  0  0  0  0  0  0
   58.6670   33.8580   46.8660 N   0  0  0  0  0  0  0  0  0  0  0  0
   59.6640   34.6840   46.2150 C   0  0  0  0  0  0  0  0  0  0  0  0
   60.7930   33.7820   45.7800 C   0  0  0  0  0  0  0  0  0  0  0  0
   61.6320   33.3150   46.8330 N   0  0  0  0  0  0  0  0  0  0  0  0
   62.9540   33.8420   46.8470 C   0  0  0  0  0  0  0  0  0  0  0  0
   63.4800   33.7310   48.2840 C   0  0  0  0  0  0  0  0  0  0  0  0
   63.1390   32.4000   48.8750 C   0  0  0  0  0  0  0  0  0  0  0  0
   62.8060   31.3860   47.7870 C   0  0  0  0  0  0  0  0  0  0  0  0
   61.5880   31.9020   47.0530 C   0  0  0  0  0  0  0  0  0  0  0  0
   58.8950   33.3880   48.2030 C   0  0  0  0  0  0  0  0  0  0  0  0
   58.4490   32.3430   48.8410 N   0  0  0  0  0  0  0  0  0  0  0  0
   58.7880   32.0990   50.0760 C   0  0  0  0  0  0  0  0  0  0  0  0
   59.6190   32.9460   50.7080 C   0  0  0  0  0  0  0  0  0  0  0  0
   59.9210   34.2080   49.3580 S   0  0  0  0  0  0  0  0  0  0  0  0
   58.0610   31.0270   46.1200 N   0  0  0  0  0  0  0  0  0  0  0  0
   57.7180   29.9580   45.3420 C   0  0  0  0  0  0  0  0  0  0  0  0
   58.1550   28.5560   45.4380 C   0  0  0  0  0  0  0  0  0  0  0  0
   59.1160   28.3090   46.5650 C   0  0  0  0  0  0  0  0  0  0  0  0
   57.0200   27.5660   45.5180 C   0  0  0  0  0  0  0  0  0  0  0  0
   58.8990   28.2490   44.1340 C   0  0  0  0  0  0  0  0  0  0  0  0
   55.5490   28.8846   43.7719 H   0  0  0  0  0  0  0  0  0  0  0  0
   55.5713   30.3242   42.6977 H   0  0  0  0  0  0  0  0  0  0  0  0
   56.9577   29.1820   42.6977 H   0  0  0  0  0  0  0  0  0  0  0  0
   57.3523   34.1919   45.2974 H   0  0  0  0  0  0  0  0  0  0  0  0
   56.6243   33.6265   46.8762 H   0  0  0  0  0  0  0  0  0  0  0  0
   59.2237   35.1825   45.3388 H   0  0  0  0  0  0  0  0  0  0  0  0
   60.0327   35.4584   46.9038 H   0  0  0  0  0  0  0  0  0  0  0  0
   60.3558   32.9061   45.2784 H   0  0  0  0  0  0  0  0  0  0  0  0
   61.4340   34.3878   45.1226 H   0  0  0  0  0  0  0  0  0  0  0  0
   63.5960   33.2636   46.1664 H   0  0  0  0  0  0  0  0  0  0  0  0
   62.9566   34.8902   46.5136 H   0  0  0  0  0  0  0  0  0  0  0  0
   64.5732   33.8531   48.2780 H   0  0  0  0  0  0  0  0  0  0  0  0
   63.0093   34.5172   48.8926 H   0  0  0  0  0  0  0  0  0  0  0  0
   63.9982   32.0342   49.4563 H   0  0  0  0  0  0  0  0  0  0  0  0
   62.2577   32.5204   49.5222 H   0  0  0  0  0  0  0  0  0  0  0  0
   63.6522   31.2883   47.0910 H   0  0  0  0  0  0  0  0  0  0  0  0
   62.6089   30.3956   48.2231 H   0  0  0  0  0  0  0  0  0  0  0  0
   61.5243   31.3961   46.0783 H   0  0  0  0  0  0  0  0  0  0  0  0
   60.7090   31.6911   47.6797 H   0  0  0  0  0  0  0  0  0  0  0  0
   58.3987   31.2106   50.5948 H   0  0  0  0  0  0  0  0  0  0  0  0
   60.0127   32.9081   51.7344 H   0  0  0  0  0  0  0  0  0  0  0  0
   58.5968   28.4425   47.5255 H   0  0  0  0  0  0  0  0  0  0  0  0
   59.5040   27.2819   46.4975 H   0  0  0  0  0  0  0  0  0  0  0  0
   59.9512   29.0217   46.4975 H   0  0  0  0  0  0  0  0  0  0  0  0
   56.7855   27.3615   46.5731 H   0  0  0  0  0  0  0  0  0  0  0  0
   56.1330   27.9841   45.0196 H   0  0  0  0  0  0  0  0  0  0  0  0
   57.3137   26.6304   45.0196 H   0  0  0  0  0  0  0  0  0  0  0  0
   59.8928   27.8389   44.3667 H   0  0  0  0  0  0  0  0  0  0  0  0
   58.3265   27.5136   43.5496 H   0  0  0  0  0  0  0  0  0  0  0  0
   59.0117   29.1741   43.5496 H   0  0  0  0  0  0  0  0  0  0  0  0
  1  2  1  0
  2  3  1  0
  3  4  1  0
  4  5  1  0
  5  6  1  0
  6  7  1  0
  7  8  1  0
  8  9  1  0
  9 10  1  0
 10 11  1  0
 11 12  1  0
 12 13  1  0
 13 14  1  0
  6 15  1  0
 15 16  2  0
 16 17  1  0
 17 18  2  0
 18 19  1  0
  4 20  2  0
 20 21  1  0
 21 22  1  0
 22 23  1  0
 22 24  1  0
 22 25  1  0
 21  2  2  0
 14  9  1  0
 19 15  1  0
  1 26  1  0
  1 27  1  0
  1 28  1  0
  5 29  1  0
  5 30  1  0
  7 31  1  0
  7 32  1  0
  8 33  1  0
  8 34  1  0
 10 35  1  0
 10 36  1  0
 11 37  1  0
 11 38  1  0
 12 39  1  0
 12 40  1  0
 13 41  1  0
 13 42  1  0
 14 43  1  0
 14 44  1  0
 17 45  1  0
 18 46  1  0
 23 47  1  0
 23 48  1  0
 23 49  1  0
 24 50  1  0
 24 51  1  0
 24 52  1  0
 25 53  1  0
 25 54  1  0
 25 55  1  0
M  END
>  <smiles>  (43) 
Cc1oc(CN(CCN2CCCCC2)c2nccs2)nc1C(C)(C)C

>  <score_type>  (43) 
oracle

>  <origin>  (43) 
adg

>  <m_score__min__energy>  (43) 
-7.6799999999999997

>  <m_primary>  (43) 
energy

$$$$
43:0
     RDKit          3D

 48 49  0  0  0  0  0  0  0  0999 V2000
   55.9400   20.9250   44.6790 C   0  0  0  0  0  0  0  0  0  0  0  0
   56.7240   21.9490   44.0680 N   0  0  0  0  0  0  0  0  0  0  0  0
   56.2840   22.2840   42.7520 C   0  0  0  0  0  0  0  0  0  0  0  0
   58.1570   21.7680   44.1980 C   0  0  0  0  0  0  0  0  0  0  0  0
   58.8160   22.8900   44.9270 C   0  0  0  0  0  0  0  0  0  0  0  0
   57.9670   23.9910   45.2740 N   0  0  0  0  0  0  0  0  0  0  0  0
   58.3680   25.2140   45.8340 C   0  0  0  0  0  0  0  0  0  0  0  0
   59.6800   25.5520   46.0740 C   0  0  0  0  0  0  0  0  0  0  0  0
   60.0660   26.7550   46.6510 C   0  0  0  0  0  0  0  0  0  0  0  0
   59.0950   27.6930   47.0200 C   0  0  0  0  0  0  0  0  0  0  0  0
   59.5810   28.9170   47.6170 C   0  0  0  0  0  0  0  0  0  0  0  0
   59.8790   29.0060   48.9830 C   0  0  0  0  0  0  0  0  0  0  0  0
   60.2940   30.2540   49.2730 N   0  0  0  0  0  0  0  0  0  0  0  0
   60.2560   30.9290   48.1180 C   0  0  0  0  0  0  0  0  0  0  0  0
   59.8270   30.1240   47.1180 N   0  0  0  0  0  0  0  0  0  0  0  0
   59.6970   30.5600   45.7620 C   0  0  0  0  0  0  0  0  0  0  0  0
   58.2620   30.3240   45.3750 C   0  0  0  0  0  0  0  0  0  0  0  0
   57.3940   30.9950   46.0270 O   0  0  0  0  0  0  0  0  0  0  0  0
   57.8890   29.4310   44.3640 N   0  0  0  0  0  0  0  0  0  0  0  0
   56.6570   29.3360   44.0180 C   0  0  0  0  0  0  0  0  0  0  0  0
   55.5830   29.1000   44.9150 N   0  0  0  0  0  0  0  0  0  0  0  0
   56.3620   29.4800   42.6270 N   0  0  0  0  0  0  0  0  0  0  0  0
   57.7960   27.3610   46.7830 C   0  0  0  0  0  0  0  0  0  0  0  0
   57.4180   26.1630   46.2080 C   0  0  0  0  0  0  0  0  0  0  0  0
   56.0410   25.8730   45.9840 C   0  0  0  0  0  0  0  0  0  0  0  0
   54.9050   25.6430   45.7800 N   0  0  0  0  0  0  0  0  0  0  0  0
   56.0085   21.0145   45.7732 H   0  0  0  0  0  0  0  0  0  0  0  0
   54.8905   21.0316   44.3674 H   0  0  0  0  0  0  0  0  0  0  0  0
   56.3167   19.9396   44.3674 H   0  0  0  0  0  0  0  0  0  0  0  0
   55.4103   22.9492   42.8157 H   0  0  0  0  0  0  0  0  0  0  0  0
   57.0954   22.7951   42.2131 H   0  0  0  0  0  0  0  0  0  0  0  0
   56.0073   21.3659   42.2131 H   0  0  0  0  0  0  0  0  0  0  0  0
   58.3451   20.8334   44.7467 H   0  0  0  0  0  0  0  0  0  0  0  0
   58.5810   21.7370   43.1835 H   0  0  0  0  0  0  0  0  0  0  0  0
   59.2409   22.4849   45.8573 H   0  0  0  0  0  0  0  0  0  0  0  0
   59.5662   23.2977   44.2335 H   0  0  0  0  0  0  0  0  0  0  0  0
   56.9290   23.8530   45.0810 H   0  0  0  0  0  0  0  0  0  0  0  0
   60.4636   24.8324   45.7945 H   0  0  0  0  0  0  0  0  0  0  0  0
   61.1319   26.9699   46.8175 H   0  0  0  0  0  0  0  0  0  0  0  0
   59.7880   28.1831   49.7073 H   0  0  0  0  0  0  0  0  0  0  0  0
   60.5337   31.9866   47.9985 H   0  0  0  0  0  0  0  0  0  0  0  0
   59.9418   31.6294   45.6812 H   0  0  0  0  0  0  0  0  0  0  0  0
   60.3836   30.0124   45.0997 H   0  0  0  0  0  0  0  0  0  0  0  0
   55.1820   29.8640   45.5240 H   0  0  0  0  0  0  0  0  0  0  0  0
   55.1490   28.1740   45.0070 H   0  0  0  0  0  0  0  0  0  0  0  0
   55.3670   29.5220   42.2650 H   0  0  0  0  0  0  0  0  0  0  0  0
   57.0960   29.5530   41.8880 H   0  0  0  0  0  0  0  0  0  0  0  0
   57.0114   28.0797   47.0622 H   0  0  0  0  0  0  0  0  0  0  0  0
  1  2  1  0
  2  3  1  0
  2  4  1  0
  4  5  1  0
  5  6  1  0
  6  7  1  0
  7  8  2  0
  8  9  1  0
  9 10  2  0
 10 11  1  0
 11 12  2  0
 12 13  1  0
 13 14  2  0
 14 15  1  0
 15 16  1  0
 16 17  1  0
 17 18  2  0
 17 19  1  0
 19 20  2  3
 20 21  1  0
 20 22  1  0
 10 23  1  0
 23 24  2  0
 24 25  1  0
 25 26  3  0
 24  7  1  0
 15 11  1  0
  1 27  1  0
  1 28  1  0
  1 29  1  0
  3 30  1  0
  3 31  1  0
  3 32  1  0
  4 33  1  0
  4 34  1  0
  5 35  1  0
  5 36  1  0
  6 37  1  0
  8 38  1  0
  9 39  1  0
 12 40  1  0
 14 41  1  0
 16 42  1  0
 16 43  1  0
 21 44  1  0
 21 45  1  0
 22 46  1  0
 22 47  1  0
 23 48  1  0
M  END
>  <smiles>  (44) 
CN(C)CCNc1ccc(-c2cncn2CC(=O)N=C(N)N)cc1C#N

>  <score_type>  (44) 
oracle

>  <origin>  (44) 
adg

>  <m_score__min__energy>  (44) 
-7.29

>  <m_primary>  (44) 
energy

$$$$
44:0
     RDKit          3D

 37 40  0  0  0  0  0  0  0  0999 V2000
   63.6660   31.4250   50.7190 Cl  0  0  0  0  0  0  0  0  0  0  0  0
   63.1660   32.0720   49.1550 C   0  0  0  0  0  0  0  0  0  0  0  0
   64.0340   32.9450   48.5310 C   0  0  0  0  0  0  0  0  0  0  0  0
   63.7160   33.4950   47.3050 C   0  0  0  0  0  0  0  0  0  0  0  0
   62.5040   33.1290   46.7470 C   0  0  0  0  0  0  0  0  0  0  0  0
   61.6250   32.2600   47.3560 C   0  0  0  0  0  0  0  0  0  0  0  0
   60.3430   31.8740   46.7990 C   0  0  0  0  0  0  0  0  0  0  0  0
   59.9660   30.5270   46.8700 C   0  0  0  0  0  0  0  0  0  0  0  0
   58.7780   30.0710   46.3390 C   0  0  0  0  0  0  0  0  0  0  0  0
   58.3550   28.6780   46.3940 C   0  0  0  0  0  0  0  0  0  0  0  0
   58.9720   27.8350   47.2930 C   0  0  0  0  0  0  0  0  0  0  0  0
   58.6230   26.4890   47.4050 C   0  0  0  0  0  0  0  0  0  0  0  0
   57.6270   25.9550   46.5980 C   0  0  0  0  0  0  0  0  0  0  0  0
   57.0150   26.8100   45.6990 C   0  0  0  0  0  0  0  0  0  0  0  0
   57.3670   28.1510   45.5920 C   0  0  0  0  0  0  0  0  0  0  0  0
   57.9500   30.9410   45.7330 N   0  0  0  0  0  0  0  0  0  0  0  0
   58.3060   32.2410   45.6610 C   0  0  0  0  0  0  0  0  0  0  0  0
   57.4310   33.1100   45.0410 C   0  0  0  0  0  0  0  0  0  0  0  0
   57.7430   34.4610   44.9450 C   0  0  0  0  0  0  0  0  0  0  0  0
   58.9330   34.9570   45.4710 C   0  0  0  0  0  0  0  0  0  0  0  0
   59.7950   34.0760   46.0880 C   0  0  0  0  0  0  0  0  0  0  0  0
   59.4750   32.7400   46.1740 C   0  0  0  0  0  0  0  0  0  0  0  0
   61.9480   31.7020   48.5990 C   0  0  0  0  0  0  0  0  0  0  0  0
   64.9873   33.2049   49.0145 H   0  0  0  0  0  0  0  0  0  0  0  0
   64.3960   34.1930   46.7947 H   0  0  0  0  0  0  0  0  0  0  0  0
   62.2287   33.5523   45.7697 H   0  0  0  0  0  0  0  0  0  0  0  0
   60.6385   29.8107   47.3647 H   0  0  0  0  0  0  0  0  0  0  0  0
   59.7642   28.2360   47.9423 H   0  0  0  0  0  0  0  0  0  0  0  0
   59.1387   25.8482   48.1353 H   0  0  0  0  0  0  0  0  0  0  0  0
   57.3368   24.8964   46.6706 H   0  0  0  0  0  0  0  0  0  0  0  0
   56.2225   26.4154   45.0462 H   0  0  0  0  0  0  0  0  0  0  0  0
   56.8534   28.7946   44.8626 H   0  0  0  0  0  0  0  0  0  0  0  0
   56.4861   32.7330   44.6226 H   0  0  0  0  0  0  0  0  0  0  0  0
   57.0414   35.1467   44.4475 H   0  0  0  0  0  0  0  0  0  0  0  0
   59.1793   36.0264   45.3959 H   0  0  0  0  0  0  0  0  0  0  0  0
   60.7414   34.4417   46.5129 H   0  0  0  0  0  0  0  0  0  0  0  0
   61.2694   31.0038   49.1109 H   0  0  0  0  0  0  0  0  0  0  0  0
  1  2  1  0
  2  3  2  0
  3  4  1  0
  4  5  2  0
  5  6  1  0
  6  7  1  0
  7  8  2  0
  8  9  1  0
  9 10  1  0
 10 11  2  0
 11 12  1  0
 12 13  2  0
 13 14  1  0
 14 15  2  0
  9 16  2  0
 16 17  1  0
 17 18  2  0
 18 19  1  0
 19 20  2  0
 20 21  1  0
 21 22  2  0
  6 23  2  0
 23  2  1  0
 22  7  1  0
 15 10  1  0
 22 17  1  0
  3 24  1  0
  4 25  1  0
  5 26  1  0
  8 27  1  0
 11 28  1  0
 12 29  1  0
 13 30  1  0
 14 31  1  0
 15 32  1  0
 18 33  1  0
 19 34  1  0
 20 35  1  0
 21 36  1  0
 23 37  1  0
M  END
>  <smiles>  (45) 
Clc1cccc(-c2cc(-c3ccccc3)nc3ccccc23)c1

>  <score_type>  (45) 
oracle

>  <origin>  (45) 
adg

>  <m_score__min__energy>  (45) 
-8.4100000000000001

>  <m_primary>  (45) 
energy

$$$$
45:0
     RDKit          3D

 31 33  0  0  0  0  0  0  0  0999 V2000
   57.0320   26.0640   45.6340 C   0  0  0  0  0  0  0  0  0  0  0  0
   56.1330   27.1460   45.6180 O   0  0  0  0  0  0  0  0  0  0  0  0
   56.6430   28.4240   45.4300 C   0  0  0  0  0  0  0  0  0  0  0  0
   55.9530   29.3510   44.6420 C   0  0  0  0  0  0  0  0  0  0  0  0
   56.4520   30.6340   44.4470 C   0  0  0  0  0  0  0  0  0  0  0  0
   57.6420   30.9970   45.0360 C   0  0  0  0  0  0  0  0  0  0  0  0
   58.2440   32.3160   44.8880 C   0  0  0  0  0  0  0  0  0  0  0  0
   58.4920   33.0560   43.7620 C   0  0  0  0  0  0  0  0  0  0  0  0
   58.1750   32.6330   42.3730 C   0  0  0  0  0  0  0  0  0  0  0  0
   59.0630   34.2150   44.1300 N   0  0  0  0  0  0  0  0  0  0  0  0
   59.1830   34.2220   45.4910 C   0  0  0  0  0  0  0  0  0  0  0  0
   59.6840   35.1320   46.3990 C   0  0  0  0  0  0  0  0  0  0  0  0
   59.6830   34.8780   47.7570 C   0  0  0  0  0  0  0  0  0  0  0  0
   59.1520   33.6650   48.1550 C   0  0  0  0  0  0  0  0  0  0  0  0
   58.6740   32.8060   47.2400 N   0  0  0  0  0  0  0  0  0  0  0  0
   58.6840   33.0670   45.9390 N   0  0  0  0  0  0  0  0  0  0  0  0
   58.3530   30.0920   45.8270 C   0  0  0  0  0  0  0  0  0  0  0  0
   57.8390   28.8240   46.0080 C   0  0  0  0  0  0  0  0  0  0  0  0
   57.2588   25.7911   46.6752 H   0  0  0  0  0  0  0  0  0  0  0  0
   56.5793   25.2035   45.1197 H   0  0  0  0  0  0  0  0  0  0  0  0
   57.9609   26.3514   45.1197 H   0  0  0  0  0  0  0  0  0  0  0  0
   55.0026   29.0610   44.1701 H   0  0  0  0  0  0  0  0  0  0  0  0
   55.8994   31.3544   43.8260 H   0  0  0  0  0  0  0  0  0  0  0  0
   57.5155   31.7530   42.3992 H   0  0  0  0  0  0  0  0  0  0  0  0
   57.6687   33.4551   41.8459 H   0  0  0  0  0  0  0  0  0  0  0  0
   59.1061   32.3778   41.8459 H   0  0  0  0  0  0  0  0  0  0  0  0
   60.0948   36.0842   46.0322 H   0  0  0  0  0  0  0  0  0  0  0  0
   60.0830   35.6017   48.4824 H   0  0  0  0  0  0  0  0  0  0  0  0
   59.1210   33.4031   49.2229 H   0  0  0  0  0  0  0  0  0  0  0  0
   59.3039   30.3840   46.2965 H   0  0  0  0  0  0  0  0  0  0  0  0
   58.3954   28.1077   46.6304 H   0  0  0  0  0  0  0  0  0  0  0  0
  1  2  1  0
  2  3  1  0
  3  4  2  0
  4  5  1  0
  5  6  2  0
  6  7  1  0
  7  8  2  0
  8  9  1  0
  8 10  1  0
 10 11  2  0
 11 12  1  0
 12 13  2  0
 13 14  1  0
 14 15  2  0
 15 16  1  0
  6 17  1  0
 17 18  2  0
 18  3  1  0
 16  7  1  0
 16 11  1  0
  1 19  1  0
  1 20  1  0
  1 21  1  0
  4 22  1  0
  5 23  1  0
  9 24  1  0
  9 25  1  0
  9 26  1  0
 12 27  1  0
 13 28  1  0
 14 29  1  0
 17 30  1  0
 18 31  1  0
M  END
>  <smiles>  (46) 
COc1ccc(-c2c(C)nc3cccnn23)cc1

>  <score_type>  (46) 
oracle

>  <origin>  (46) 
adg

>  <m_score__min__energy>  (46) 
-6.3200000000000003

>  <m_primary>  (46) 
energy

$$$$
