0:0
     RDKit          3D

 43 46  0  0  0  0  0  0  0  0999 V2000
   60.3890   29.8380   47.5600 C   0  0  0  0  0  0  0  0  0  0  0  0
   59.7220   30.2060   46.3130 N   0  0  0  0  0  0  0  0  0  0  0  0
   59.7040   29.5250   45.1340 C   0  0  0  0  0  0  0  0  0  0  0  0
   60.4620   28.2540   44.8810 C   0  0  0  0  0  0  0  0  0  0  0  0
   59.6360   27.0870   45.2490 N   0  0  0  0  0  0  0  0  0  0  0  0
   60.1840   26.3550   46.4240 C   0  0  0  0  0  0  0  0  0  0  0  0
   59.3500   26.5400   47.6970 C   0  0  0  0  0  0  0  0  0  0  0  0
   57.8860   26.1110   47.4920 C   0  0  0  0  0  0  0  0  0  0  0  0
   57.3680   26.3620   46.0370 C   0  0  2  0  0  0  0  0  0  0  0  0
   55.8560   26.7420   46.0530 C   0  0  0  0  0  0  0  0  0  0  0  0
   55.1240   25.5190   45.7830 N   0  0  0  0  0  0  0  0  0  0  0  0
   56.0260   24.5720   45.2540 C   0  0  0  0  0  0  0  0  0  0  0  0
   55.6600   23.4350   44.8620 O   0  0  0  0  0  0  0  0  0  0  0  0
   57.4210   25.0530   45.1980 C   0  0  0  0  0  0  0  0  0  0  0  0
   58.2120   27.4770   45.3740 C   0  0  0  0  0  0  0  0  0  0  0  0
   58.8780   30.0940   44.2150 N   0  0  0  0  0  0  0  0  0  0  0  0
   58.3560   31.1530   44.8540 C   0  0  0  0  0  0  0  0  0  0  0  0
   57.4160   32.0730   44.4040 C   0  0  0  0  0  0  0  0  0  0  0  0
   57.0110   33.0700   45.3120 C   0  0  0  0  0  0  0  0  0  0  0  0
   57.5540   33.0960   46.6190 C   0  0  0  0  0  0  0  0  0  0  0  0
   58.4730   32.1600   47.0090 N   0  0  0  0  0  0  0  0  0  0  0  0
   58.8580   31.2150   46.1160 C   0  0  0  0  0  0  0  0  0  0  0  0
   59.7815   30.1732   48.4135 H   0  0  0  0  0  0  0  0  0  0  0  0
   60.5099   28.7455   47.6026 H   0  0  0  0  0  0  0  0  0  0  0  0
   61.3777   30.3183   47.6026 H   0  0  0  0  0  0  0  0  0  0  0  0
   60.7231   28.1927   43.8142 H   0  0  0  0  0  0  0  0  0  0  0  0
   61.3769   28.2536   45.4917 H   0  0  0  0  0  0  0  0  0  0  0  0
   60.2185   25.2825   46.1821 H   0  0  0  0  0  0  0  0  0  0  0  0
   61.1837   26.7667   46.6269 H   0  0  0  0  0  0  0  0  0  0  0  0
   59.7894   25.9319   48.5014 H   0  0  0  0  0  0  0  0  0  0  0  0
   59.3586   27.6086   47.9576 H   0  0  0  0  0  0  0  0  0  0  0  0
   57.8024   25.0365   47.7123 H   0  0  0  0  0  0  0  0  0  0  0  0
   57.2690   26.7208   48.1684 H   0  0  0  0  0  0  0  0  0  0  0  0
   55.5751   27.1441   47.0376 H   0  0  0  0  0  0  0  0  0  0  0  0
   55.6310   27.5154   45.3038 H   0  0  0  0  0  0  0  0  0  0  0  0
   58.1103   24.3225   45.6465 H   0  0  0  0  0  0  0  0  0  0  0  0
   57.7876   25.2075   44.1725 H   0  0  0  0  0  0  0  0  0  0  0  0
   57.8089   27.6802   44.3709 H   0  0  0  0  0  0  0  0  0  0  0  0
   58.1568   28.3725   46.0105 H   0  0  0  0  0  0  0  0  0  0  0  0
   58.6700   29.7640   43.2460 H   0  0  0  0  0  0  0  0  0  0  0  0
   57.0069   32.0243   43.3841 H   0  0  0  0  0  0  0  0  0  0  0  0
   56.2740   33.8273   45.0063 H   0  0  0  0  0  0  0  0  0  0  0  0
   57.2346   33.8750   47.3270 H   0  0  0  0  0  0  0  0  0  0  0  0
  1  2  1  0
  2  3  1  0
  3  4  1  0
  4  5  1  0
  5  6  1  0
  6  7  1  0
  7  8  1  0
  9  8  1  1
  9 10  1  0
 10 11  1  0
 11 12  1  0
 12 13  2  0
 12 14  1  0
  9 15  1  0
  3 16  2  0
 16 17  1  0
 17 18  2  0
 18 19  1  0
 19 20  2  0
 20 21  1  0
 21 22  2  0
 22  2  1  0
 15  5  1  0
 22 17  1  0
 14  9  1  0
  1 23  1  0
  1 24  1  0
  1 25  1  0
  4 26  1  0
  4 27  1  0
  6 28  1  0
  6 29  1  0
  7 30  1  0
  7 31  1  0
  8 32  1  0
  8 33  1  0
 10 34  1  0
 10 35  1  0
 14 36  1  0
 14 37  1  0
 15 38  1  0
 15 39  1  0
 16 40  1  0
 18 41  1  0
 19 42  1  0
 20 43  1  0
M  CHG  2  11  -1  16   1
M  END
>  <UniqueID>  (1) 
1

>  <SMILES>  (1) 
Cn1c(CN2CCC[C@@]3(C[N-]C(=O)C3)C2)[nH+]c2cccnc21

>  <Energy>  (1) 
105.06638022593951

>  <Genealogy>  (1) 
Cn1c(CN2CCCC3(C[N-]C(=O)C3)C2)[nH+]c2cccnc21 (protonated)
Cn1c(CN2CCC[C@@]3(C[N-]C(=O)C3)C2)[nH+]c2cccnc21 (chirality)
Cn1c(CN2CCC[C@@]3(C[N-]C(=O)C3)C2)[nH+]c2cccnc21 (3D coordinates assigned)
Cn1c(CN2CCC[C@@]3(C[N-]C(=O)C3)C2)[nH+]c2cccnc21 (nonaromatic ring conformer: 105.06638022593951 kcal/mol)

>  <smiles>  (1) 
Cn1c(CN2CCCC3(CNC(=O)C3)C2)nc2cccnc21

>  <score_type>  (1) 
oracle

>  <origin>  (1) 
adg

>  <m_score__min__energy>  (1) 
-8.8900000000000006

>  <m_primary>  (1) 
energy

$$$$
1:0
     RDKit          3D

 65 67  0  0  0  0  0  0  0  0999 V2000
   63.3130   33.7380   46.7860 C   0  0  0  0  0  0  0  0  0  0  0  0
   62.9080   32.3780   47.3750 C   0  0  0  0  0  0  0  0  0  0  0  0
   62.4900   32.4420   48.7940 N   0  0  0  0  0  0  0  0  0  0  0  0
   62.8100   33.7440   49.4100 C   0  0  0  0  0  0  0  0  0  0  0  0
   63.0060   31.3100   49.5930 C   0  0  0  0  0  0  0  0  0  0  0  0
   62.7190   31.5170   51.0810 C   0  0  0  0  0  0  0  0  0  0  0  0
   61.4480   30.9850   51.4050 O   0  0  0  0  0  0  0  0  0  0  0  0
   61.4420   29.5770   51.2790 C   0  0  0  0  0  0  0  0  0  0  0  0
   60.0550   29.0450   51.6320 C   0  0  0  0  0  0  0  0  0  0  0  0
   58.9500   30.0640   51.2910 C   0  0  0  0  0  0  0  0  0  0  0  0
   58.9770   31.2330   52.1840 N   0  0  0  0  0  0  0  0  0  0  0  0
   59.0090   32.5020   51.4460 C   0  0  0  0  0  0  0  0  0  0  0  0
   58.7020   32.2470   49.9630 C   0  0  0  0  0  0  0  0  0  0  0  0
   59.9320   32.2140   49.1530 N   0  0  0  0  0  0  0  0  0  0  0  0
   59.6010   31.9580   47.7560 C   0  0  0  0  0  0  0  0  0  0  0  0
   59.4230   33.0210   46.8170 C   0  0  0  0  0  0  0  0  0  0  0  0
   59.7970   34.3640   47.0980 C   0  0  0  0  0  0  0  0  0  0  0  0
   59.6470   35.3700   46.1450 C   0  0  0  0  0  0  0  0  0  0  0  0
   59.1250   35.0810   44.8940 C   0  0  0  0  0  0  0  0  0  0  0  0
   58.7390   33.7830   44.5890 C   0  0  0  0  0  0  0  0  0  0  0  0
   58.8560   32.7360   45.5380 C   0  0  0  0  0  0  0  0  0  0  0  0
   58.4480   31.4560   45.2270 N   0  0  0  0  0  0  0  0  0  0  0  0
   57.5480   31.2280   44.0740 C   0  0  0  0  0  0  0  0  0  0  0  0
   58.8450   30.3960   46.0110 C   0  0  0  0  0  0  0  0  0  0  0  0
   58.7310   29.0600   45.5440 C   0  0  0  0  0  0  0  0  0  0  0  0
   59.0350   27.9780   46.3690 C   0  0  0  0  0  0  0  0  0  0  0  0
   58.8700   26.3380   45.7670 Cl  0  0  0  0  0  0  0  0  0  0  0  0
   59.4850   28.2000   47.6640 C   0  0  0  0  0  0  0  0  0  0  0  0
   59.6710   29.5000   48.1260 C   0  0  0  0  0  0  0  0  0  0  0  0
   59.3770   30.6230   47.3100 C   0  0  0  0  0  0  0  0  0  0  0  0
   63.5231   34.4436   47.6033 H   0  0  0  0  0  0  0  0  0  0  0  0
   64.2137   33.6157   46.1665 H   0  0  0  0  0  0  0  0  0  0  0  0
   62.4921   34.1284   46.1665 H   0  0  0  0  0  0  0  0  0  0  0  0
   62.0699   31.9799   46.7842 H   0  0  0  0  0  0  0  0  0  0  0  0
   63.7976   31.7324   47.3318 H   0  0  0  0  0  0  0  0  0  0  0  0
   62.7862   33.6471   50.5055 H   0  0  0  0  0  0  0  0  0  0  0  0
   63.8134   34.0634   49.0919 H   0  0  0  0  0  0  0  0  0  0  0  0
   62.0690   34.4921   49.0919 H   0  0  0  0  0  0  0  0  0  0  0  0
   62.5201   30.3817   49.2582 H   0  0  0  0  0  0  0  0  0  0  0  0
   64.0949   31.2465   49.4505 H   0  0  0  0  0  0  0  0  0  0  0  0
   63.4906   31.0062   51.6758 H   0  0  0  0  0  0  0  0  0  0  0  0
   62.7288   32.5938   51.3054 H   0  0  0  0  0  0  0  0  0  0  0  0
   61.6895   29.2996   50.2437 H   0  0  0  0  0  0  0  0  0  0  0  0
   62.1879   29.1427   51.9609 H   0  0  0  0  0  0  0  0  0  0  0  0
   59.8735   28.1195   51.0659 H   0  0  0  0  0  0  0  0  0  0  0  0
   60.0254   28.8566   52.7153 H   0  0  0  0  0  0  0  0  0  0  0  0
   59.0912   30.4062   50.2552 H   0  0  0  0  0  0  0  0  0  0  0  0
   57.9786   29.5640   51.4187 H   0  0  0  0  0  0  0  0  0  0  0  0
   59.8090   31.1720   52.8180 H   0  0  0  0  0  0  0  0  0  0  0  0
   58.2554   33.1864   51.8629 H   0  0  0  0  0  0  0  0  0  0  0  0
   60.0085   32.9519   51.5387 H   0  0  0  0  0  0  0  0  0  0  0  0
   58.1848   31.2810   49.8664 H   0  0  0  0  0  0  0  0  0  0  0  0
   58.0700   33.0691   49.5959 H   0  0  0  0  0  0  0  0  0  0  0  0
   60.4530   33.1020   49.2970 H   0  0  0  0  0  0  0  0  0  0  0  0
   60.5910   31.4920   49.5170 H   0  0  0  0  0  0  0  0  0  0  0  0
   60.2123   34.6134   48.0856 H   0  0  0  0  0  0  0  0  0  0  0  0
   59.9450   36.4007   46.3875 H   0  0  0  0  0  0  0  0  0  0  0  0
   59.0168   35.8787   44.1443 H   0  0  0  0  0  0  0  0  0  0  0  0
   58.3340   33.5621   43.5904 H   0  0  0  0  0  0  0  0  0  0  0  0
   56.5420   30.9732   44.4389 H   0  0  0  0  0  0  0  0  0  0  0  0
   57.4960   32.1414   43.4632 H   0  0  0  0  0  0  0  0  0  0  0  0
   57.9372   30.4001   43.4632 H   0  0  0  0  0  0  0  0  0  0  0  0
   58.3967   28.8753   44.5124 H   0  0  0  0  0  0  0  0  0  0  0  0
   59.6949   27.3469   48.3260 H   0  0  0  0  0  0  0  0  0  0  0  0
   60.0538   29.6599   49.1448 H   0  0  0  0  0  0  0  0  0  0  0  0
  1  2  1  0
  2  3  1  0
  3  4  1  0
  3  5  1  0
  5  6  1  0
  6  7  1  0
  7  8  1  0
  8  9  1  0
  9 10  1  0
 10 11  1  0
 11 12  1  0
 12 13  1  0
 13 14  1  0
 14 15  1  0
 15 16  2  0
 16 17  1  0
 17 18  2  0
 18 19  1  0
 19 20  2  0
 20 21  1  0
 21 22  2  0
 22 23  1  0
 22 24  1  0
 24 25  2  0
 25 26  1  0
 26 27  1  0
 26 28  2  0
 28 29  1  0
 29 30  2  0
 30 15  1  0
 21 16  1  0
 30 24  1  0
  1 31  1  0
  1 32  1  0
  1 33  1  0
  2 34  1  0
  2 35  1  0
  4 36  1  0
  4 37  1  0
  4 38  1  0
  5 39  1  0
  5 40  1  0
  6 41  1  0
  6 42  1  0
  8 43  1  0
  8 44  1  0
  9 45  1  0
  9 46  1  0
 10 47  1  0
 10 48  1  0
 11 49  1  0
 12 50  1  0
 12 51  1  0
 13 52  1  0
 13 53  1  0
 14 54  1  0
 14 55  1  0
 17 56  1  0
 18 57  1  0
 19 58  1  0
 20 59  1  0
 23 60  1  0
 23 61  1  0
 23 62  1  0
 25 63  1  0
 28 64  1  0
 29 65  1  0
M  CHG  2  14   1  22   1
M  END
>  <UniqueID>  (2) 
2

>  <SMILES>  (2) 
CCN(C)CCOCCCNCC[NH2+]c1c2ccccc2[n+](C)c2cc(Cl)ccc12

>  <Energy>  (2) 
95.15317149903906

>  <Genealogy>  (2) 
CCN(C)CCOCCCNCC[NH2+]c1c2ccccc2[n+](C)c2cc(Cl)ccc12 (protonated)
CCN(C)CCOCCCNCC[NH2+]c1c2ccccc2[n+](C)c2cc(Cl)ccc12 (3D coordinates assigned)
CCN(C)CCOCCCNCC[NH2+]c1c2ccccc2[n+](C)c2cc(Cl)ccc12 (optimized conformer: 95.15317149903906 kcal/mol)

>  <smiles>  (2) 
CCN(C)CCOCCCNCCNc1c2ccccc2[n+](C)c2cc(Cl)ccc12

>  <score_type>  (2) 
oracle

>  <origin>  (2) 
adg

>  <m_score__min__energy>  (2) 
-4.2599999999999998

>  <m_primary>  (2) 
energy

$$$$
2:0
     RDKit          3D

 49 51  0  0  0  0  0  0  0  0999 V2000
   56.5400   27.2190   45.6820 C   0  0  0  0  0  0  0  0  0  0  0  0
   55.8820   28.4020   45.2400 O   0  0  0  0  0  0  0  0  0  0  0  0
   56.5010   29.4350   44.5170 C   0  0  0  0  0  0  0  0  0  0  0  0
   56.1350   29.7410   43.1920 C   0  0  0  0  0  0  0  0  0  0  0  0
   56.7740   30.7750   42.5050 C   0  0  0  0  0  0  0  0  0  0  0  0
   57.7780   31.5130   43.1300 C   0  0  0  0  0  0  0  0  0  0  0  0
   58.1510   31.2180   44.4430 C   0  0  0  0  0  0  0  0  0  0  0  0
   57.5200   30.1700   45.1450 C   0  0  0  0  0  0  0  0  0  0  0  0
   57.8540   29.8370   46.4690 O   0  0  0  0  0  0  0  0  0  0  0  0
   58.9730   29.0530   46.8910 C   0  0  0  0  0  0  0  0  0  0  0  0
   59.0020   28.9160   48.4150 C   0  0  0  0  0  0  0  0  0  0  0  0
   60.7040   28.9250   49.0800 S   0  0  0  0  0  0  0  0  0  0  0  0
   61.0920   30.5750   48.4840 C   0  0  0  0  0  0  0  0  0  0  0  0
   61.4380   30.8220   47.2030 N   0  0  0  0  0  0  0  0  0  0  0  0
   61.6320   32.1540   47.1590 C   0  0  0  0  0  0  0  0  0  0  0  0
   61.4140   32.6890   48.4110 C   0  0  0  0  0  0  0  0  0  0  0  0
   61.4260   34.1500   48.7560 C   0  0  0  0  0  0  0  0  0  0  0  0
   60.0970   34.7350   48.5710 N   0  0  0  0  0  0  0  0  0  0  0  0
   59.3240   34.5690   47.3670 C   0  0  0  0  0  0  0  0  0  0  0  0
   59.7200   35.1460   46.1440 C   0  0  0  0  0  0  0  0  0  0  0  0
   58.9450   34.9650   44.9940 C   0  0  0  0  0  0  0  0  0  0  0  0
   57.7710   34.2100   45.0510 C   0  0  0  0  0  0  0  0  0  0  0  0
   57.3690   33.6340   46.2580 C   0  0  0  0  0  0  0  0  0  0  0  0
   58.1400   33.8130   47.4110 C   0  0  0  0  0  0  0  0  0  0  0  0
   61.0720   31.6900   49.2470 N   0  0  0  0  0  0  0  0  0  0  0  0
   60.6730   31.8150   50.6490 C   0  0  0  0  0  0  0  0  0  0  0  0
   56.5530   27.1957   46.7817 H   0  0  0  0  0  0  0  0  0  0  0  0
   56.0028   26.3372   45.3029 H   0  0  0  0  0  0  0  0  0  0  0  0
   57.5726   27.2103   45.3029 H   0  0  0  0  0  0  0  0  0  0  0  0
   55.3418   29.1625   42.6958 H   0  0  0  0  0  0  0  0  0  0  0  0
   56.4849   31.0075   41.4695 H   0  0  0  0  0  0  0  0  0  0  0  0
   58.2775   32.3294   42.5878 H   0  0  0  0  0  0  0  0  0  0  0  0
   58.9413   31.8062   44.9324 H   0  0  0  0  0  0  0  0  0  0  0  0
   58.9012   28.0518   46.4410 H   0  0  0  0  0  0  0  0  0  0  0  0
   59.8960   29.5557   46.5663 H   0  0  0  0  0  0  0  0  0  0  0  0
   58.4454   29.7559   48.8563 H   0  0  0  0  0  0  0  0  0  0  0  0
   58.5444   27.9500   48.6747 H   0  0  0  0  0  0  0  0  0  0  0  0
   61.9194   32.7257   46.2643 H   0  0  0  0  0  0  0  0  0  0  0  0
   61.7310   34.2708   49.8059 H   0  0  0  0  0  0  0  0  0  0  0  0
   62.1353   34.6650   48.0915 H   0  0  0  0  0  0  0  0  0  0  0  0
   59.6800   35.2940   49.3500 H   0  0  0  0  0  0  0  0  0  0  0  0
   60.6433   35.7418   46.0935 H   0  0  0  0  0  0  0  0  0  0  0  0
   59.2605   35.4181   44.0426 H   0  0  0  0  0  0  0  0  0  0  0  0
   57.1632   34.0692   44.1451 H   0  0  0  0  0  0  0  0  0  0  0  0
   56.4449   33.0389   46.3019 H   0  0  0  0  0  0  0  0  0  0  0  0
   57.8173   33.3587   48.3594 H   0  0  0  0  0  0  0  0  0  0  0  0
   61.5214   31.5492   51.2968 H   0  0  0  0  0  0  0  0  0  0  0  0
   60.3673   32.8520   50.8522 H   0  0  0  0  0  0  0  0  0  0  0  0
   59.8303   31.1378   50.8522 H   0  0  0  0  0  0  0  0  0  0  0  0
  1  2  1  0
  2  3  1  0
  3  4  2  0
  4  5  1  0
  5  6  2  0
  6  7  1  0
  7  8  2  0
  8  9  1  0
  9 10  1  0
 10 11  1  0
 11 12  1  0
 12 13  1  0
 13 14  2  0
 14 15  1  0
 15 16  2  0
 16 17  1  0
 17 18  1  0
 18 19  1  0
 19 20  2  0
 20 21  1  0
 21 22  2  0
 22 23  1  0
 23 24  2  0
 16 25  1  0
 25 26  1  0
  8  3  1  0
 25 13  1  0
 24 19  1  0
  1 27  1  0
  1 28  1  0
  1 29  1  0
  4 30  1  0
  5 31  1  0
  6 32  1  0
  7 33  1  0
 10 34  1  0
 10 35  1  0
 11 36  1  0
 11 37  1  0
 15 38  1  0
 17 39  1  0
 17 40  1  0
 18 41  1  0
 20 42  1  0
 21 43  1  0
 22 44  1  0
 23 45  1  0
 24 46  1  0
 26 47  1  0
 26 48  1  0
 26 49  1  0
M  END
>  <UniqueID>  (3) 
3

>  <SMILES>  (3) 
COc1ccccc1OCCSc1ncc(CNc2ccccc2)n1C

>  <Energy>  (3) 
75.89934891645409

>  <Genealogy>  (3) 
COc1ccccc1OCCSc1ncc(CNc2ccccc2)n1C (3D coordinates assigned)
COc1ccccc1OCCSc1ncc(CNc2ccccc2)n1C (optimized conformer: 75.89934891645409 kcal/mol)

>  <smiles>  (3) 
COc1ccccc1OCCSc1ncc(CNc2ccccc2)n1C

>  <score_type>  (3) 
oracle

>  <origin>  (3) 
adg

>  <m_score__min__energy>  (3) 
-8.8699999999999992

>  <m_primary>  (3) 
energy

$$$$
3:0
     RDKit          3D

 45 48  0  0  0  0  0  0  0  0999 V2000
   57.8320   22.1800   44.1410 C   0  0  0  0  0  0  0  0  0  0  0  0
   58.8970   22.2930   45.2260 C   0  0  0  0  0  0  0  0  0  0  0  0
   58.5110   23.2440   46.2180 O   0  0  0  0  0  0  0  0  0  0  0  0
   58.0760   24.5570   45.9690 C   0  0  0  0  0  0  0  0  0  0  0  0
   56.7130   24.9050   45.8850 C   0  0  0  0  0  0  0  0  0  0  0  0
   56.3350   26.2280   45.6410 C   0  0  0  0  0  0  0  0  0  0  0  0
   57.3130   27.2130   45.4700 C   0  0  0  0  0  0  0  0  0  0  0  0
   58.6820   26.8780   45.5320 C   0  0  0  0  0  0  0  0  0  0  0  0
   59.0480   25.5500   45.7960 C   0  0  0  0  0  0  0  0  0  0  0  0
   59.7520   27.9630   45.4610 C   0  0  0  0  0  0  0  0  0  0  0  0
   59.3420   29.1980   44.6190 C   0  0  0  0  0  0  0  0  0  0  0  0
   57.8960   29.5360   44.8360 C   0  0  0  0  0  0  0  0  0  0  0  0
   57.1580   30.6750   44.5670 C   0  0  0  0  0  0  0  0  0  0  0  0
   57.6580   31.9760   44.0740 C   0  0  0  0  0  0  0  0  0  0  0  0
   57.7940   32.1530   42.8310 O   0  0  0  0  0  0  0  0  0  0  0  0
   57.9220   33.0630   44.9940 N   0  0  0  0  0  0  0  0  0  0  0  0
   59.0340   33.8950   44.4880 C   0  0  0  0  0  0  0  0  0  0  0  0
   59.5740   34.8410   45.5830 C   0  0  0  0  0  0  0  0  0  0  0  0
   58.6480   34.9690   46.6430 O   0  0  0  0  0  0  0  0  0  0  0  0
   58.5100   33.7290   47.3150 C   0  0  0  0  0  0  0  0  0  0  0  0
   58.2250   32.5570   46.3470 C   0  0  0  0  0  0  0  0  0  0  0  0
   55.8510   30.3990   44.7820 N   0  0  0  0  0  0  0  0  0  0  0  0
   55.7690   29.1480   45.1420 O   0  0  0  0  0  0  0  0  0  0  0  0
   56.9600   28.6020   45.1720 C   0  0  0  0  0  0  0  0  0  0  0  0
   56.8419   22.0749   44.6086 H   0  0  0  0  0  0  0  0  0  0  0  0
   57.8481   23.0849   43.5158 H   0  0  0  0  0  0  0  0  0  0  0  0
   58.0376   21.2986   43.5158 H   0  0  0  0  0  0  0  0  0  0  0  0
   59.0328   21.3105   45.7018 H   0  0  0  0  0  0  0  0  0  0  0  0
   59.8373   22.6277   44.7636 H   0  0  0  0  0  0  0  0  0  0  0  0
   55.9421   24.1307   46.0122 H   0  0  0  0  0  0  0  0  0  0  0  0
   55.2693   26.4944   45.5835 H   0  0  0  0  0  0  0  0  0  0  0  0
   60.1131   25.2849   45.8681 H   0  0  0  0  0  0  0  0  0  0  0  0
   59.9717   28.2998   46.4849 H   0  0  0  0  0  0  0  0  0  0  0  0
   60.6265   27.5159   44.9656 H   0  0  0  0  0  0  0  0  0  0  0  0
   59.9614   30.0576   44.9147 H   0  0  0  0  0  0  0  0  0  0  0  0
   59.4932   28.9645   43.5547 H   0  0  0  0  0  0  0  0  0  0  0  0
   57.0650   33.6610   45.0680 H   0  0  0  0  0  0  0  0  0  0  0  0
   59.8482   33.2370   44.1502 H   0  0  0  0  0  0  0  0  0  0  0  0
   58.6568   34.5081   43.6562 H   0  0  0  0  0  0  0  0  0  0  0  0
   60.5174   34.4345   45.9765 H   0  0  0  0  0  0  0  0  0  0  0  0
   59.7380   35.8339   45.1389 H   0  0  0  0  0  0  0  0  0  0  0  0
   59.4421   33.5176   47.8595 H   0  0  0  0  0  0  0  0  0  0  0  0
   57.6518   33.8136   47.9979 H   0  0  0  0  0  0  0  0  0  0  0  0
   59.1091   31.9043   46.2993 H   0  0  0  0  0  0  0  0  0  0  0  0
   57.3560   31.9938   46.7180 H   0  0  0  0  0  0  0  0  0  0  0  0
  1  2  1  0
  2  3  1  0
  3  4  1  0
  4  5  2  0
  5  6  1  0
  6  7  2  0
  7  8  1  0
  8  9  2  0
  8 10  1  0
 10 11  1  0
 11 12  1  0
 12 13  1  0
 13 14  1  0
 14 15  2  0
 14 16  1  0
 16 17  1  0
 17 18  1  0
 18 19  1  0
 19 20  1  0
 20 21  1  0
 13 22  2  0
 22 23  1  0
 23 24  1  0
  9  4  1  0
 24 12  2  0
 24  7  1  0
 21 16  1  0
  1 25  1  0
  1 26  1  0
  1 27  1  0
  2 28  1  0
  2 29  1  0
  5 30  1  0
  6 31  1  0
  9 32  1  0
 10 33  1  0
 10 34  1  0
 11 35  1  0
 11 36  1  0
 16 37  1  0
 17 38  1  0
 17 39  1  0
 18 40  1  0
 18 41  1  0
 20 42  1  0
 20 43  1  0
 21 44  1  0
 21 45  1  0
M  CHG  1  16   1
M  END
>  <UniqueID>  (4) 
4

>  <SMILES>  (4) 
CCOc1ccc2c(c1)CCc1c(C(=O)[NH+]3CCOCC3)noc1-2

>  <Energy>  (4) 
94.20755777517134

>  <Genealogy>  (4) 
CCOc1ccc2c(c1)CCc1c(C(=O)[NH+]3CCOCC3)noc1-2 (protonated)
CCOc1ccc2c(c1)CCc1c(C(=O)[NH+]3CCOCC3)noc1-2 (3D coordinates assigned)
CCOc1ccc2c(c1)CCc1c(C(=O)[NH+]3CCOCC3)noc1-2 (nonaromatic ring conformer: 94.20755777517134 kcal/mol)

>  <smiles>  (4) 
CCOc1ccc2c(c1)CCc1c(C(=O)N3CCOCC3)noc1-2

>  <score_type>  (4) 
oracle

>  <origin>  (4) 
adg

>  <m_score__min__energy>  (4) 
-7.0700000000000003

>  <m_primary>  (4) 
energy

$$$$
4:0
     RDKit          3D

 70 72  0  0  0  0  0  0  0  0999 V2000
   58.5550   31.7410   50.0060 C   0  0  0  0  0  0  0  0  0  0  0  0
   58.7490   30.2240   50.0670 C   0  0  0  0  0  0  0  0  0  0  0  0
   59.9120   29.7830   49.2630 N   0  0  0  0  0  0  0  0  0  0  0  0
   61.1350   29.7670   50.0910 C   0  0  0  0  0  0  0  0  0  0  0  0
   59.6580   28.4400   48.6900 C   0  0  0  0  0  0  0  0  0  0  0  0
   59.9430   28.4030   47.1820 C   0  0  0  0  0  0  0  0  0  0  0  0
   60.5500   29.6540   46.7210 N   0  0  0  0  0  0  0  0  0  0  0  0
   59.7610   30.7480   46.2200 C   0  0  0  0  0  0  0  0  0  0  0  0
   58.7340   30.4900   45.2930 C   0  0  0  0  0  0  0  0  0  0  0  0
   58.5610   29.1990   44.7470 C   0  0  0  0  0  0  0  0  0  0  0  0
   57.5090   28.9270   43.8770 C   0  0  0  0  0  0  0  0  0  0  0  0
   56.6020   29.9260   43.5490 C   0  0  0  0  0  0  0  0  0  0  0  0
   56.7560   31.2100   44.0670 C   0  0  0  0  0  0  0  0  0  0  0  0
   57.8410   31.5310   44.9270 C   0  0  0  0  0  0  0  0  0  0  0  0
   58.0130   32.8040   45.4320 N   0  0  0  0  0  0  0  0  0  0  0  0
   57.2300   33.9310   44.8720 C   0  0  0  0  0  0  0  0  0  0  0  0
   58.9480   33.0390   46.4240 C   0  0  0  0  0  0  0  0  0  0  0  0
   58.9580   34.2490   47.1560 C   0  0  0  0  0  0  0  0  0  0  0  0
   59.9600   34.5240   48.0800 C   0  0  0  0  0  0  0  0  0  0  0  0
   61.0080   33.6220   48.2850 C   0  0  0  0  0  0  0  0  0  0  0  0
   62.0550   33.9350   49.2310 N   0  0  0  0  0  0  0  0  0  0  0  0
   61.5860   33.8400   50.6270 C   0  0  0  0  0  0  0  0  0  0  0  0
   62.3430   32.7710   51.4470 C   0  0  0  0  0  0  0  0  0  0  0  0
   63.5570   32.1990   50.6960 C   0  0  0  0  0  0  0  0  0  0  0  0
   64.4870   33.2870   50.3180 N   0  0  0  0  0  0  0  0  0  0  0  0
   64.8270   34.1210   51.4870 C   0  0  0  0  0  0  0  0  0  0  0  0
   65.7250   32.7300   49.7470 C   0  0  0  0  0  0  0  0  0  0  0  0
   61.0120   32.4020   47.5830 C   0  0  0  0  0  0  0  0  0  0  0  0
   62.1280   31.5690   47.7090 O   0  0  0  0  0  0  0  0  0  0  0  0
   63.3740   31.9050   47.1110 C   0  0  0  0  0  0  0  0  0  0  0  0
   59.9170   32.0520   46.7440 C   0  0  0  0  0  0  0  0  0  0  0  0
   58.5033   32.1454   51.0277 H   0  0  0  0  0  0  0  0  0  0  0  0
   59.4020   32.1978   49.4733 H   0  0  0  0  0  0  0  0  0  0  0  0
   57.6203   31.9700   49.4733 H   0  0  0  0  0  0  0  0  0  0  0  0
   58.9079   29.9277   51.1144 H   0  0  0  0  0  0  0  0  0  0  0  0
   57.8480   29.7482   49.6525 H   0  0  0  0  0  0  0  0  0  0  0  0
   60.8573   29.7706   51.1554 H   0  0  0  0  0  0  0  0  0  0  0  0
   61.7175   28.8612   49.8671 H   0  0  0  0  0  0  0  0  0  0  0  0
   61.7410   30.6573   49.8671 H   0  0  0  0  0  0  0  0  0  0  0  0
   60.3075   27.7089   49.1936 H   0  0  0  0  0  0  0  0  0  0  0  0
   58.5965   28.1964   48.8445 H   0  0  0  0  0  0  0  0  0  0  0  0
   60.6308   27.5716   46.9682 H   0  0  0  0  0  0  0  0  0  0  0  0
   58.9883   28.2663   46.6529 H   0  0  0  0  0  0  0  0  0  0  0  0
   61.5890   29.6920   46.6180 H   0  0  0  0  0  0  0  0  0  0  0  0
   59.2667   28.3981   45.0127 H   0  0  0  0  0  0  0  0  0  0  0  0
   57.3961   27.9200   43.4490 H   0  0  0  0  0  0  0  0  0  0  0  0
   55.7593   29.7028   42.8781 H   0  0  0  0  0  0  0  0  0  0  0  0
   56.0249   31.9892   43.8058 H   0  0  0  0  0  0  0  0  0  0  0  0
   56.8127   34.5316   45.6937 H   0  0  0  0  0  0  0  0  0  0  0  0
   57.8857   34.5614   44.2534 H   0  0  0  0  0  0  0  0  0  0  0  0
   56.4105   33.5364   44.2534 H   0  0  0  0  0  0  0  0  0  0  0  0
   58.1584   34.9862   46.9913 H   0  0  0  0  0  0  0  0  0  0  0  0
   59.9276   35.4609   48.6555 H   0  0  0  0  0  0  0  0  0  0  0  0
   62.4440   34.8920   49.0540 H   0  0  0  0  0  0  0  0  0  0  0  0
   62.8490   33.2680   49.0980 H   0  0  0  0  0  0  0  0  0  0  0  0
   61.7265   34.8176   51.1113 H   0  0  0  0  0  0  0  0  0  0  0  0
   60.5269   33.5440   50.5988 H   0  0  0  0  0  0  0  0  0  0  0  0
   62.6922   33.2283   52.3845 H   0  0  0  0  0  0  0  0  0  0  0  0
   61.6464   31.9407   51.6352 H   0  0  0  0  0  0  0  0  0  0  0  0
   64.0813   31.4830   51.3459 H   0  0  0  0  0  0  0  0  0  0  0  0
   63.2076   31.6939   49.7834 H   0  0  0  0  0  0  0  0  0  0  0  0
   64.6013   33.5675   52.4104 H   0  0  0  0  0  0  0  0  0  0  0  0
   65.8982   34.3695   51.4610 H   0  0  0  0  0  0  0  0  0  0  0  0
   64.2349   35.0477   51.4610 H   0  0  0  0  0  0  0  0  0  0  0  0
   66.3999   32.4263   50.5608 H   0  0  0  0  0  0  0  0  0  0  0  0
   65.4814   31.8548   49.1269 H   0  0  0  0  0  0  0  0  0  0  0  0
   66.2184   33.4929   49.1269 H   0  0  0  0  0  0  0  0  0  0  0  0
   64.1162   32.1051   47.8978 H   0  0  0  0  0  0  0  0  0  0  0  0
   63.7186   31.0677   46.4864 H   0  0  0  0  0  0  0  0  0  0  0  0
   63.2509   32.8020   46.4864 H   0  0  0  0  0  0  0  0  0  0  0  0
  1  2  1  0
  2  3  1  0
  3  4  1  0
  3  5  1  0
  5  6  1  0
  6  7  1  0
  7  8  1  0
  8  9  2  0
  9 10  1  0
 10 11  2  0
 11 12  1  0
 12 13  2  0
 13 14  1  0
 14 15  2  0
 15 16  1  0
 15 17  1  0
 17 18  2  0
 18 19  1  0
 19 20  2  0
 20 21  1  0
 21 22  1  0
 22 23  1  0
 23 24  1  0
 24 25  1  0
 25 26  1  0
 25 27  1  0
 20 28  1  0
 28 29  1  0
 29 30  1  0
 28 31  2  0
 31  8  1  0
 14  9  1  0
 31 17  1  0
  1 32  1  0
  1 33  1  0
  1 34  1  0
  2 35  1  0
  2 36  1  0
  4 37  1  0
  4 38  1  0
  4 39  1  0
  5 40  1  0
  5 41  1  0
  6 42  1  0
  6 43  1  0
  7 44  1  0
 10 45  1  0
 11 46  1  0
 12 47  1  0
 13 48  1  0
 16 49  1  0
 16 50  1  0
 16 51  1  0
 18 52  1  0
 19 53  1  0
 21 54  1  0
 21 55  1  0
 22 56  1  0
 22 57  1  0
 23 58  1  0
 23 59  1  0
 24 60  1  0
 24 61  1  0
 26 62  1  0
 26 63  1  0
 26 64  1  0
 27 65  1  0
 27 66  1  0
 27 67  1  0
 30 68  1  0
 30 69  1  0
 30 70  1  0
M  CHG  2  15   1  21   1
M  END
>  <UniqueID>  (5) 
5

>  <SMILES>  (5) 
CCN(C)CCNc1c2ccccc2[n+](C)c2ccc([NH2+]CCCN(C)C)c(OC)c12

>  <Energy>  (5) 
99.78643187879109

>  <Genealogy>  (5) 
CCN(C)CCNc1c2ccccc2[n+](C)c2ccc([NH2+]CCCN(C)C)c(OC)c12 (protonated)
CCN(C)CCNc1c2ccccc2[n+](C)c2ccc([NH2+]CCCN(C)C)c(OC)c12 (3D coordinates assigned)
CCN(C)CCNc1c2ccccc2[n+](C)c2ccc([NH2+]CCCN(C)C)c(OC)c12 (optimized conformer: 99.78643187879109 kcal/mol)

>  <smiles>  (5) 
CCN(C)CCNc1c2ccccc2[n+](C)c2ccc(NCCCN(C)C)c(OC)c12

>  <score_type>  (5) 
oracle

>  <origin>  (5) 
adg

>  <m_score__min__energy>  (5) 
-4.0499999999999998

>  <m_primary>  (5) 
energy

$$$$
5:0
     RDKit          3D

 31 33  0  0  0  0  0  0  0  0999 V2000
   59.5030   29.3840   44.5580 C   0  0  0  0  0  0  0  0  0  0  0  0
   58.0700   29.6540   44.6680 N   0  0  0  0  0  0  0  0  0  0  0  0
   57.4010   30.7440   44.2390 C   0  0  0  0  0  0  0  0  0  0  0  0
   58.1410   32.1550   43.4080 S   0  0  0  0  0  0  0  0  0  0  0  0
   57.3950   33.3960   44.5220 C   0  0  0  0  0  0  0  0  0  0  0  0
   58.3110   33.7050   45.6730 C   0  0  0  0  0  0  0  0  0  0  0  0
   58.1640   33.0360   46.8970 C   0  0  0  0  0  0  0  0  0  0  0  0
   59.0050   33.3460   47.9670 C   0  0  0  0  0  0  0  0  0  0  0  0
   59.9850   34.3260   47.8050 C   0  0  0  0  0  0  0  0  0  0  0  0
   60.1130   34.9720   46.6150 N   0  0  0  0  0  0  0  0  0  0  0  0
   59.3070   34.6860   45.5580 C   0  0  0  0  0  0  0  0  0  0  0  0
   56.0850   30.6530   44.4960 N   0  0  0  0  0  0  0  0  0  0  0  0
   55.8900   29.4880   45.0930 N   0  0  0  0  0  0  0  0  0  0  0  0
   57.0900   28.8820   45.1950 C   0  0  0  0  0  0  0  0  0  0  0  0
   57.2510   27.5420   45.8030 C   0  0  0  0  0  0  0  0  0  0  0  0
   58.4410   27.0510   46.3310 C   0  0  0  0  0  0  0  0  0  0  0  0
   58.3310   25.7570   46.8560 C   0  0  0  0  0  0  0  0  0  0  0  0
   57.0560   25.2190   46.7490 C   0  0  0  0  0  0  0  0  0  0  0  0
   56.0720   26.3560   46.0010 S   0  0  0  0  0  0  0  0  0  0  0  0
   59.9390   29.3019   45.5646 H   0  0  0  0  0  0  0  0  0  0  0  0
   59.6577   28.4409   44.0133 H   0  0  0  0  0  0  0  0  0  0  0  0
   59.9903   30.2061   44.0133 H   0  0  0  0  0  0  0  0  0  0  0  0
   57.2044   34.3196   43.9557 H   0  0  0  0  0  0  0  0  0  0  0  0
   56.4546   32.9885   44.9216 H   0  0  0  0  0  0  0  0  0  0  0  0
   57.3860   32.2671   47.0137 H   0  0  0  0  0  0  0  0  0  0  0  0
   58.8963   32.8229   48.9285 H   0  0  0  0  0  0  0  0  0  0  0  0
   60.6549   34.5764   48.6408 H   0  0  0  0  0  0  0  0  0  0  0  0
   59.4365   35.2262   44.6086 H   0  0  0  0  0  0  0  0  0  0  0  0
   59.3795   27.6248   46.3357 H   0  0  0  0  0  0  0  0  0  0  0  0
   59.1755   25.2180   47.3103 H   0  0  0  0  0  0  0  0  0  0  0  0
   56.7444   24.2220   47.0939 H   0  0  0  0  0  0  0  0  0  0  0  0
  1  2  1  0
  2  3  1  0
  3  4  1  0
  4  5  1  0
  5  6  1  0
  6  7  2  0
  7  8  1  0
  8  9  2  0
  9 10  1  0
 10 11  2  0
  3 12  2  0
 12 13  1  0
 13 14  2  0
 14 15  1  0
 15 16  2  0
 16 17  1  0
 17 18  2  0
 18 19  1  0
 14  2  1  0
 19 15  1  0
 11  6  1  0
  1 20  1  0
  1 21  1  0
  1 22  1  0
  5 23  1  0
  5 24  1  0
  7 25  1  0
  8 26  1  0
  9 27  1  0
 11 28  1  0
 16 29  1  0
 17 30  1  0
 18 31  1  0
M  END
>  <UniqueID>  (6) 
6

>  <SMILES>  (6) 
Cn1c(SCc2cccnc2)nnc1-c1cccs1

>  <Energy>  (6) 
91.77462583823012

>  <Genealogy>  (6) 
Cn1c(SCc2cccnc2)nnc1-c1cccs1 (3D coordinates assigned)
Cn1c(SCc2cccnc2)nnc1-c1cccs1 (optimized conformer: 91.77462583823012 kcal/mol)

>  <smiles>  (6) 
Cn1c(SCc2cccnc2)nnc1-c1cccs1

>  <score_type>  (6) 
oracle

>  <origin>  (6) 
adg

>  <m_score__min__energy>  (6) 
-7.5

>  <m_primary>  (6) 
energy

$$$$
6:0
     RDKit          3D

 28 29  0  0  0  0  0  0  0  0999 V2000
   60.0870   28.4950   48.9960 C   0  0  0  0  0  0  0  0  0  0  0  0
   59.0940   29.5110   48.8960 O   0  0  0  0  0  0  0  0  0  0  0  0
   58.9640   30.3890   47.8080 C   0  0  0  0  0  0  0  0  0  0  0  0
   58.5310   29.9580   46.5400 C   0  0  0  0  0  0  0  0  0  0  0  0
   58.4290   30.8590   45.4710 C   0  0  0  0  0  0  0  0  0  0  0  0
   57.9820   30.3780   44.1930 N   0  0  0  0  0  0  0  0  0  0  0  0
   56.6360   29.9490   43.9430 C   0  0  0  0  0  0  0  0  0  0  0  0
   56.2720   29.3760   42.6120 C   0  0  0  0  0  0  0  0  0  0  0  0
   55.7370   30.1190   44.8110 O   0  0  0  0  0  0  0  0  0  0  0  0
   58.7180   32.2220   45.6840 C   0  0  0  0  0  0  0  0  0  0  0  0
   58.5570   33.1330   44.6850 N   0  0  0  0  0  0  0  0  0  0  0  0
   58.8210   34.4550   44.8630 C   0  0  0  0  0  0  0  0  0  0  0  0
   59.2690   34.9180   46.1000 C   0  0  0  0  0  0  0  0  0  0  0  0
   59.4340   34.0160   47.1530 C   0  0  0  0  0  0  0  0  0  0  0  0
   59.1520   32.6570   46.9570 C   0  0  0  0  0  0  0  0  0  0  0  0
   59.2800   31.7370   48.0060 C   0  0  0  0  0  0  0  0  0  0  0  0
   60.2918   28.2855   50.0563 H   0  0  0  0  0  0  0  0  0  0  0  0
   59.7258   27.5796   48.5045 H   0  0  0  0  0  0  0  0  0  0  0  0
   61.0104   28.8352   48.5045 H   0  0  0  0  0  0  0  0  0  0  0  0
   58.2693   28.9007   46.3859 H   0  0  0  0  0  0  0  0  0  0  0  0
   58.6190   30.4960   43.3720 H   0  0  0  0  0  0  0  0  0  0  0  0
   55.6873   28.4556   42.7566 H   0  0  0  0  0  0  0  0  0  0  0  0
   55.6723   30.1069   42.0498 H   0  0  0  0  0  0  0  0  0  0  0  0
   57.1885   29.1437   42.0498 H   0  0  0  0  0  0  0  0  0  0  0  0
   58.6811   35.1601   44.0304 H   0  0  0  0  0  0  0  0  0  0  0  0
   59.4907   35.9856   46.2450 H   0  0  0  0  0  0  0  0  0  0  0  0
   59.7843   34.3708   48.1335 H   0  0  0  0  0  0  0  0  0  0  0  0
   59.6312   32.0770   48.9914 H   0  0  0  0  0  0  0  0  0  0  0  0
  1  2  1  0
  2  3  1  0
  3  4  2  0
  4  5  1  0
  5  6  1  0
  6  7  1  0
  7  8  1  0
  7  9  2  0
  5 10  2  0
 10 11  1  0
 11 12  2  0
 12 13  1  0
 13 14  2  0
 14 15  1  0
 15 16  2  0
 16  3  1  0
 15 10  1  0
  1 17  1  0
  1 18  1  0
  1 19  1  0
  4 20  1  0
  6 21  1  0
  8 22  1  0
  8 23  1  0
  8 24  1  0
 12 25  1  0
 13 26  1  0
 14 27  1  0
 16 28  1  0
M  END
>  <UniqueID>  (7) 
7

>  <SMILES>  (7) 
COc1cc(NC(C)=O)c2ncccc2c1

>  <Energy>  (7) 
34.398202805219185

>  <Genealogy>  (7) 
COc1cc(NC(C)=O)c2ncccc2c1 (3D coordinates assigned)
COc1cc(NC(C)=O)c2ncccc2c1 (optimized conformer: 34.398202805219185 kcal/mol)

>  <smiles>  (7) 
COc1cc(NC(C)=O)c2ncccc2c1

>  <score_type>  (7) 
oracle

>  <origin>  (7) 
adg

>  <m_score__min__energy>  (7) 
-5.8600000000000003

>  <m_primary>  (7) 
energy

$$$$
7:0
     RDKit          3D

 39 41  0  0  0  0  0  0  0  0999 V2000
   59.0400   33.7820   51.6960 C   0  0  0  0  0  0  0  0  0  0  0  0
   60.0450   33.7330   50.5910 C   0  0  0  0  0  0  0  0  0  0  0  0
   59.6210   33.8040   49.2410 C   0  0  0  0  0  0  0  0  0  0  0  0
   60.5660   33.7450   48.1950 C   0  0  0  0  0  0  0  0  0  0  0  0
   60.1110   33.7660   46.7960 C   0  0  0  0  0  0  0  0  0  0  0  0
   60.7340   33.0900   45.9330 O   0  0  0  0  0  0  0  0  0  0  0  0
   59.0110   34.5980   46.4060 N   0  0  0  0  0  0  0  0  0  0  0  0
   58.4750   34.6070   45.0480 C   0  0  0  0  0  0  0  0  0  0  0  0
   58.0030   33.2300   44.6660 C   0  0  0  0  0  0  0  0  0  0  0  0
   58.1400   32.7770   43.3450 C   0  0  0  0  0  0  0  0  0  0  0  0
   57.7180   31.4910   43.0020 C   0  0  0  0  0  0  0  0  0  0  0  0
   57.1640   30.6670   43.9840 C   0  0  0  0  0  0  0  0  0  0  0  0
   57.0430   31.1180   45.2620 N   0  0  0  0  0  0  0  0  0  0  0  0
   57.4470   32.3660   45.6210 C   0  0  0  0  0  0  0  0  0  0  0  0
   61.9160   33.6400   48.5620 C   0  0  0  0  0  0  0  0  0  0  0  0
   63.1310   33.6660   47.8810 C   0  0  0  0  0  0  0  0  0  0  0  0
   63.3610   33.8190   46.4120 C   0  0  0  0  0  0  0  0  0  0  0  0
   64.1420   33.5810   48.7800 N   0  0  0  0  0  0  0  0  0  0  0  0
   63.6110   33.5070   49.9940 N   0  0  0  0  0  0  0  0  0  0  0  0
   64.3820   33.4990   51.2300 C   0  0  0  0  0  0  0  0  0  0  0  0
   62.2750   33.5640   49.8780 C   0  0  0  0  0  0  0  0  0  0  0  0
   61.3740   33.6130   50.8890 N   0  0  0  0  0  0  0  0  0  0  0  0
   59.5593   33.7567   52.6654 H   0  0  0  0  0  0  0  0  0  0  0  0
   58.4542   34.7098   51.6180 H   0  0  0  0  0  0  0  0  0  0  0  0
   58.3667   32.9156   51.6180 H   0  0  0  0  0  0  0  0  0  0  0  0
   58.5509   33.9055   49.0075 H   0  0  0  0  0  0  0  0  0  0  0  0
   58.5850   35.2390   47.1130 H   0  0  0  0  0  0  0  0  0  0  0  0
   57.6292   35.3084   44.9959 H   0  0  0  0  0  0  0  0  0  0  0  0
   59.2668   34.9208   44.3519 H   0  0  0  0  0  0  0  0  0  0  0  0
   58.5795   33.4344   42.5804 H   0  0  0  0  0  0  0  0  0  0  0  0
   57.8209   31.1303   41.9679 H   0  0  0  0  0  0  0  0  0  0  0  0
   56.8254   29.6532   43.7243 H   0  0  0  0  0  0  0  0  0  0  0  0
   57.3374   32.6990   46.6637 H   0  0  0  0  0  0  0  0  0  0  0  0
   64.2660   34.4210   46.2433 H   0  0  0  0  0  0  0  0  0  0  0  0
   63.4906   32.8265   45.9558 H   0  0  0  0  0  0  0  0  0  0  0  0
   62.4957   34.3221   45.9558 H   0  0  0  0  0  0  0  0  0  0  0  0
   63.6962   33.5061   52.0900 H   0  0  0  0  0  0  0  0  0  0  0  0
   65.0067   32.5943   51.2666 H   0  0  0  0  0  0  0  0  0  0  0  0
   65.0253   34.3905   51.2666 H   0  0  0  0  0  0  0  0  0  0  0  0
  1  2  1  0
  2  3  2  0
  3  4  1  0
  4  5  1  0
  5  6  2  0
  5  7  1  0
  7  8  1  0
  8  9  1  0
  9 10  2  0
 10 11  1  0
 11 12  2  0
 12 13  1  0
 13 14  2  0
  4 15  2  0
 15 16  1  0
 16 17  1  0
 16 18  2  0
 18 19  1  0
 19 20  1  0
 19 21  1  0
 21 22  2  0
 22  2  1  0
 14  9  1  0
 21 15  1  0
  1 23  1  0
  1 24  1  0
  1 25  1  0
  3 26  1  0
  7 27  1  0
  8 28  1  0
  8 29  1  0
 10 30  1  0
 11 31  1  0
 12 32  1  0
 14 33  1  0
 17 34  1  0
 17 35  1  0
 17 36  1  0
 20 37  1  0
 20 38  1  0
 20 39  1  0
M  END
>  <UniqueID>  (8) 
8

>  <SMILES>  (8) 
Cc1cc(C(=O)NCc2cccnc2)c2c(C)nn(C)c2n1

>  <Energy>  (8) 
83.06317149347275

>  <Genealogy>  (8) 
Cc1cc(C(=O)NCc2cccnc2)c2c(C)nn(C)c2n1 (3D coordinates assigned)
Cc1cc(C(=O)NCc2cccnc2)c2c(C)nn(C)c2n1 (optimized conformer: 83.06317149347275 kcal/mol)

>  <smiles>  (8) 
Cc1cc(C(=O)NCc2cccnc2)c2c(C)nn(C)c2n1

>  <score_type>  (8) 
oracle

>  <origin>  (8) 
adg

>  <m_score__min__energy>  (8) 
-7.5199999999999996

>  <m_primary>  (8) 
energy

$$$$
8:0
     RDKit          3D

 86 90  0  0  0  0  0  0  0  0999 V2000
   58.4040   31.7840   50.5300 C   0  0  0  0  0  0  0  0  0  0  0  0
   58.9150   30.6280   49.6750 C   0  0  0  0  0  0  0  0  0  0  0  0
   59.7440   29.7160   50.4740 N   0  0  0  0  0  0  0  0  0  0  0  0
   60.3420   28.6660   49.6390 C   0  0  0  0  0  0  0  0  0  0  0  0
   61.1130   27.6750   50.5170 C   0  0  0  0  0  0  0  0  0  0  0  0
   61.4560   28.2330   51.8430 N   0  0  0  0  0  0  0  0  0  0  0  0
   62.8270   27.9350   52.2420 C   0  0  0  0  0  0  0  0  0  0  0  0
   63.1310   26.7030   52.8860 C   0  0  0  0  0  0  0  0  0  0  0  0
   62.1560   25.6870   53.0490 C   0  0  0  0  0  0  0  0  0  0  0  0
   62.4770   24.4650   53.6330 C   0  0  0  0  0  0  0  0  0  0  0  0
   63.7720   24.2200   54.0620 C   0  0  0  0  0  0  0  0  0  0  0  0
   64.7480   25.2040   53.9340 C   0  0  0  0  0  0  0  0  0  0  0  0
   64.4440   26.4760   53.3830 C   0  0  0  0  0  0  0  0  0  0  0  0
   65.3920   27.4730   53.3210 N   0  0  0  0  0  0  0  0  0  0  0  0
   66.6300   27.3640   54.1290 C   0  0  0  0  0  0  0  0  0  0  0  0
   65.1820   28.5810   52.5270 C   0  0  0  0  0  0  0  0  0  0  0  0
   66.2410   29.4710   52.2140 C   0  0  0  0  0  0  0  0  0  0  0  0
   66.0260   30.6240   51.4680 C   0  0  0  0  0  0  0  0  0  0  0  0
   64.7530   30.9150   50.9760 C   0  0  0  0  0  0  0  0  0  0  0  0
   64.4770   32.0570   50.2050 O   0  0  0  0  0  0  0  0  0  0  0  0
   64.1350   32.0700   48.8180 C   0  0  0  0  0  0  0  0  0  0  0  0
   63.2740   33.3120   48.4570 C   0  0  0  0  0  0  0  0  0  0  0  0
   61.8260   33.2190   48.8340 N   0  0  2  0  0  0  0  0  0  0  0  0
   61.7170   32.5380   50.1520 C   0  0  0  0  0  0  0  0  0  0  0  0
   61.1200   32.3660   47.8190 C   0  0  0  0  0  0  0  0  0  0  0  0
   60.5580   33.1940   46.6430 C   0  0  0  0  0  0  0  0  0  0  0  0
   59.5140   34.1850   47.0820 N   0  0  1  0  0  0  0  0  0  0  0  0
   59.6270   35.3880   46.2120 C   0  0  0  0  0  0  0  0  0  0  0  0
   58.1610   33.5640   46.9010 C   0  0  0  0  0  0  0  0  0  0  0  0
   58.0210   32.6930   45.6620 C   0  0  0  0  0  0  0  0  0  0  0  0
   57.9730   33.2720   44.3830 C   0  0  0  0  0  0  0  0  0  0  0  0
   57.8360   32.4670   43.2470 C   0  0  0  0  0  0  0  0  0  0  0  0
   57.7680   31.0800   43.3750 C   0  0  0  0  0  0  0  0  0  0  0  0
   57.8400   30.4910   44.6400 C   0  0  0  0  0  0  0  0  0  0  0  0
   57.9730   31.2900   45.7780 C   0  0  0  0  0  0  0  0  0  0  0  0
   59.7190   34.5820   48.5120 C   0  0  0  0  0  0  0  0  0  0  0  0
   61.2060   34.5840   48.9130 C   0  0  0  0  0  0  0  0  0  0  0  0
   63.7020   30.0380   51.2430 C   0  0  0  0  0  0  0  0  0  0  0  0
   63.8890   28.8520   51.9980 C   0  0  0  0  0  0  0  0  0  0  0  0
   58.5162   31.5303   51.5944 H   0  0  0  0  0  0  0  0  0  0  0  0
   58.9852   32.6906   50.3059 H   0  0  0  0  0  0  0  0  0  0  0  0
   57.3423   31.9644   50.3059 H   0  0  0  0  0  0  0  0  0  0  0  0
   58.0567   30.0729   49.2687 H   0  0  0  0  0  0  0  0  0  0  0  0
   59.5273   31.0372   48.8579 H   0  0  0  0  0  0  0  0  0  0  0  0
   59.1160   29.2460   51.1680 H   0  0  0  0  0  0  0  0  0  0  0  0
   59.5460   28.1320   49.0994 H   0  0  0  0  0  0  0  0  0  0  0  0
   61.0352   29.1270   48.9200 H   0  0  0  0  0  0  0  0  0  0  0  0
   60.4933   26.7779   50.6625 H   0  0  0  0  0  0  0  0  0  0  0  0
   62.0560   27.4393   50.0021 H   0  0  0  0  0  0  0  0  0  0  0  0
   61.2320   29.2490   51.8890 H   0  0  0  0  0  0  0  0  0  0  0  0
   60.8030   27.8370   52.5570 H   0  0  0  0  0  0  0  0  0  0  0  0
   61.1261   25.8678   52.7075 H   0  0  0  0  0  0  0  0  0  0  0  0
   61.7025   23.6933   53.7541 H   0  0  0  0  0  0  0  0  0  0  0  0
   64.0288   23.2462   54.5044 H   0  0  0  0  0  0  0  0  0  0  0  0
   65.7749   24.9916   54.2664 H   0  0  0  0  0  0  0  0  0  0  0  0
   66.3731   27.3866   55.1983 H   0  0  0  0  0  0  0  0  0  0  0  0
   67.1390   26.4176   53.8941 H   0  0  0  0  0  0  0  0  0  0  0  0
   67.2966   28.2069   53.8941 H   0  0  0  0  0  0  0  0  0  0  0  0
   67.2566   29.2434   52.5701 H   0  0  0  0  0  0  0  0  0  0  0  0
   66.8621   31.3093   51.2648 H   0  0  0  0  0  0  0  0  0  0  0  0
   65.0592   32.0899   48.2219 H   0  0  0  0  0  0  0  0  0  0  0  0
   63.5476   31.1663   48.5982 H   0  0  0  0  0  0  0  0  0  0  0  0
   63.7037   34.1845   48.9710 H   0  0  0  0  0  0  0  0  0  0  0  0
   63.2984   33.3907   47.3601 H   0  0  0  0  0  0  0  0  0  0  0  0
   61.8354   33.2775   50.9577 H   0  0  0  0  0  0  0  0  0  0  0  0
   60.7307   32.0584   50.2365 H   0  0  0  0  0  0  0  0  0  0  0  0
   62.5044   31.7745   50.2365 H   0  0  0  0  0  0  0  0  0  0  0  0
   61.8316   31.6269   47.4224 H   0  0  0  0  0  0  0  0  0  0  0  0
   60.2716   31.8790   48.3220 H   0  0  0  0  0  0  0  0  0  0  0  0
   61.3864   33.7411   46.1693 H   0  0  0  0  0  0  0  0  0  0  0  0
   60.0805   32.4950   45.9406 H   0  0  0  0  0  0  0  0  0  0  0  0
   59.7115   36.2876   46.8394 H   0  0  0  0  0  0  0  0  0  0  0  0
   60.5207   35.2986   45.5769 H   0  0  0  0  0  0  0  0  0  0  0  0
   58.7323   35.4666   45.5769 H   0  0  0  0  0  0  0  0  0  0  0  0
   57.9491   32.9416   47.7829 H   0  0  0  0  0  0  0  0  0  0  0  0
   57.4519   34.3958   46.7772 H   0  0  0  0  0  0  0  0  0  0  0  0
   58.0435   34.3643   44.2741 H   0  0  0  0  0  0  0  0  0  0  0  0
   57.7818   32.9293   42.2503 H   0  0  0  0  0  0  0  0  0  0  0  0
   57.6577   30.4498   42.4802 H   0  0  0  0  0  0  0  0  0  0  0  0
   57.7919   29.3966   44.7398 H   0  0  0  0  0  0  0  0  0  0  0  0
   58.0407   30.8208   46.7706 H   0  0  0  0  0  0  0  0  0  0  0  0
   59.3118   35.5931   48.6598 H   0  0  0  0  0  0  0  0  0  0  0  0
   59.2024   33.8435   49.1426 H   0  0  0  0  0  0  0  0  0  0  0  0
   61.7523   35.2589   48.2377 H   0  0  0  0  0  0  0  0  0  0  0  0
   61.2691   34.9191   49.9588 H   0  0  0  0  0  0  0  0  0  0  0  0
   62.6991   30.2729   50.8569 H   0  0  0  0  0  0  0  0  0  0  0  0
  1  2  1  0
  2  3  1  0
  3  4  1  0
  4  5  1  0
  5  6  1  0
  6  7  1  0
  7  8  2  0
  8  9  1  0
  9 10  2  0
 10 11  1  0
 11 12  2  0
 12 13  1  0
 13 14  2  0
 14 15  1  0
 14 16  1  0
 16 17  2  0
 17 18  1  0
 18 19  2  0
 19 20  1  0
 20 21  1  0
 21 22  1  0
 23 22  1  6
 23 24  1  0
 23 25  1  0
 25 26  1  0
 26 27  1  0
 27 28  1  6
 27 29  1  0
 29 30  1  0
 30 31  2  0
 31 32  1  0
 32 33  2  0
 33 34  1  0
 34 35  2  0
 27 36  1  0
 36 37  1  0
 19 38  1  0
 38 39  2  0
 39  7  1  0
 13  8  1  0
 39 16  1  0
 37 23  1  0
 35 30  1  0
  1 40  1  0
  1 41  1  0
  1 42  1  0
  2 43  1  0
  2 44  1  0
  3 45  1  0
  4 46  1  0
  4 47  1  0
  5 48  1  0
  5 49  1  0
  6 50  1  0
  6 51  1  0
  9 52  1  0
 10 53  1  0
 11 54  1  0
 12 55  1  0
 15 56  1  0
 15 57  1  0
 15 58  1  0
 17 59  1  0
 18 60  1  0
 21 61  1  0
 21 62  1  0
 22 63  1  0
 22 64  1  0
 24 65  1  0
 24 66  1  0
 24 67  1  0
 25 68  1  0
 25 69  1  0
 26 70  1  0
 26 71  1  0
 28 72  1  0
 28 73  1  0
 28 74  1  0
 29 75  1  0
 29 76  1  0
 31 77  1  0
 32 78  1  0
 33 79  1  0
 34 80  1  0
 35 81  1  0
 36 82  1  0
 36 83  1  0
 37 84  1  0
 37 85  1  0
 38 86  1  0
M  CHG  4   6   1  14   1  23   1  27   1
M  END
>  <UniqueID>  (9) 
9

>  <SMILES>  (9) 
CCNCC[NH2+]c1c2ccccc2[n+](C)c2ccc(OCC[N+]3(C)CC[N+](C)(Cc4ccccc4)CC3)cc12

>  <Energy>  (9) 
147.8665346642342

>  <Genealogy>  (9) 
CCNCC[NH2+]c1c2ccccc2[n+](C)c2ccc(OCC[N+]3(C)CC[N+](C)(Cc4ccccc4)CC3)cc12 (protonated)
CCNCC[NH2+]c1c2ccccc2[n+](C)c2ccc(OCC[N+]3(C)CC[N+](C)(Cc4ccccc4)CC3)cc12 (3D coordinates assigned)
CCNCC[NH2+]c1c2ccccc2[n+](C)c2ccc(OCC[N+]3(C)CC[N+](C)(Cc4ccccc4)CC3)cc12 (nonaromatic ring conformer: 147.8665346642342 kcal/mol)

>  <smiles>  (9) 
CCNCCNc1c2ccccc2[n+](C)c2ccc(OCC[N+]3(C)CC[N+](C)(Cc4ccccc4)CC3)cc12

>  <score_type>  (9) 
oracle

>  <origin>  (9) 
adg

>  <m_score__min__energy>  (9) 
-3.3300000000000001

>  <m_primary>  (9) 
energy

$$$$
9:0
     RDKit          3D

 40 43  0  0  0  0  0  0  0  0999 V2000
   56.6550   24.9140   46.5630 C   0  0  0  0  0  0  0  0  0  0  0  0
   57.1180   26.2980   46.7490 N   0  0  0  0  0  0  0  0  0  0  0  0
   58.4630   26.3170   47.3450 C   0  0  0  0  0  0  0  0  0  0  0  0
   58.8320   27.7580   47.6940 C   0  0  0  0  0  0  0  0  0  0  0  0
   58.6460   28.6450   46.5350 N   0  0  0  0  0  0  0  0  0  0  0  0
   59.2380   29.9620   46.5280 C   0  0  0  0  0  0  0  0  0  0  0  0
   60.4760   30.1510   47.0690 N   0  0  0  0  0  0  0  0  0  0  0  0
   61.0940   31.3700   47.0990 C   0  0  0  0  0  0  0  0  0  0  0  0
   62.3620   31.4770   47.6810 C   0  0  0  0  0  0  0  0  0  0  0  0
   63.0140   32.7090   47.7220 C   0  0  0  0  0  0  0  0  0  0  0  0
   62.4050   33.8410   47.1790 C   0  0  0  0  0  0  0  0  0  0  0  0
   61.1370   33.7540   46.5950 C   0  0  0  0  0  0  0  0  0  0  0  0
   60.4590   32.5200   46.5460 C   0  0  0  0  0  0  0  0  0  0  0  0
   59.1780   32.3190   45.9780 C   0  0  0  0  0  0  0  0  0  0  0  0
   58.5960   31.0760   45.9770 C   0  0  0  0  0  0  0  0  0  0  0  0
   57.3970   31.1110   45.3660 N   0  0  0  0  0  0  0  0  0  0  0  0
   57.2660   32.4080   45.0070 C   0  0  0  0  0  0  0  0  0  0  0  0
   58.3250   33.1730   45.3610 N   0  0  0  0  0  0  0  0  0  0  0  0
   58.4420   34.6030   45.0880 C   0  0  0  0  0  0  0  0  0  0  0  0
   58.1780   28.0750   45.2630 C   0  0  0  0  0  0  0  0  0  0  0  0
   57.0270   27.0680   45.4800 C   0  0  0  0  0  0  0  0  0  0  0  0
   56.4980   24.4447   47.5454 H   0  0  0  0  0  0  0  0  0  0  0  0
   55.7087   24.9162   46.0023 H   0  0  0  0  0  0  0  0  0  0  0  0
   57.4122   24.3463   46.0023 H   0  0  0  0  0  0  0  0  0  0  0  0
   58.4707   25.7029   48.2576 H   0  0  0  0  0  0  0  0  0  0  0  0
   59.1924   25.9094   46.6295 H   0  0  0  0  0  0  0  0  0  0  0  0
   58.1911   28.1040   48.5183 H   0  0  0  0  0  0  0  0  0  0  0  0
   59.8907   27.7867   47.9911 H   0  0  0  0  0  0  0  0  0  0  0  0
   62.8462   30.5862   48.1077 H   0  0  0  0  0  0  0  0  0  0  0  0
   64.0096   32.7886   48.1829 H   0  0  0  0  0  0  0  0  0  0  0  0
   62.9261   34.8092   47.2105 H   0  0  0  0  0  0  0  0  0  0  0  0
   60.6667   34.6538   46.1718 H   0  0  0  0  0  0  0  0  0  0  0  0
   56.3853   32.8027   44.4791 H   0  0  0  0  0  0  0  0  0  0  0  0
   58.4872   35.1552   46.0383 H   0  0  0  0  0  0  0  0  0  0  0  0
   59.3586   34.7922   44.5101 H   0  0  0  0  0  0  0  0  0  0  0  0
   57.5683   34.9386   44.5101 H   0  0  0  0  0  0  0  0  0  0  0  0
   57.8217   28.8903   44.6162 H   0  0  0  0  0  0  0  0  0  0  0  0
   59.0185   27.5411   44.7955 H   0  0  0  0  0  0  0  0  0  0  0  0
   56.0782   27.6246   45.4822 H   0  0  0  0  0  0  0  0  0  0  0  0
   57.0913   26.3354   44.6620 H   0  0  0  0  0  0  0  0  0  0  0  0
  1  2  1  0
  2  3  1  0
  3  4  1  0
  4  5  1  0
  5  6  1  0
  6  7  2  0
  7  8  1  0
  8  9  2  0
  9 10  1  0
 10 11  2  0
 11 12  1  0
 12 13  2  0
 13 14  1  0
 14 15  2  0
 15 16  1  0
 16 17  2  0
 17 18  1  0
 18 19  1  0
  5 20  1  0
 20 21  1  0
 21  2  1  0
 15  6  1  0
 13  8  1  0
 18 14  1  0
  1 22  1  0
  1 23  1  0
  1 24  1  0
  3 25  1  0
  3 26  1  0
  4 27  1  0
  4 28  1  0
  9 29  1  0
 10 30  1  0
 11 31  1  0
 12 32  1  0
 17 33  1  0
 19 34  1  0
 19 35  1  0
 19 36  1  0
 20 37  1  0
 20 38  1  0
 21 39  1  0
 21 40  1  0
M  END
>  <UniqueID>  (10) 
10

>  <SMILES>  (10) 
CN1CCN(c2nc3ccccc3c3c2ncn3C)CC1

>  <Energy>  (10) 
96.60805481910347

>  <Genealogy>  (10) 
CN1CCN(c2nc3ccccc3c3c2ncn3C)CC1 (3D coordinates assigned)
CN1CCN(c2nc3ccccc3c3c2ncn3C)CC1 (nonaromatic ring conformer: 96.60805481910347 kcal/mol)

>  <smiles>  (10) 
CN1CCN(c2nc3ccccc3c3c2ncn3C)CC1

>  <score_type>  (10) 
oracle

>  <origin>  (10) 
adg

>  <m_score__min__energy>  (10) 
-6.71

>  <m_primary>  (10) 
energy

$$$$
11:0
     RDKit          3D

 46 48  0  0  0  0  0  0  0  0999 V2000
   63.7800   32.2990   48.7980 C   0  0  0  0  0  0  0  0  0  0  0  0
   62.5730   32.0090   47.8950 C   0  0  0  0  0  0  0  0  0  0  0  0
   62.0950   33.1840   47.1320 N   0  0  0  0  0  0  0  0  0  0  0  0
   63.1880   33.8760   46.4270 C   0  0  0  0  0  0  0  0  0  0  0  0
   61.2890   34.1110   47.9580 C   0  0  0  0  0  0  0  0  0  0  0  0
   60.0230   34.5780   47.2130 C   0  0  0  0  0  0  0  0  0  0  0  0
   60.0050   34.2000   45.7900 N   0  0  0  0  0  0  0  0  0  0  0  0
   58.7290   33.5900   45.3830 C   0  0  0  0  0  0  0  0  0  0  0  0
   58.6780   32.0900   45.6610 C   0  0  0  0  0  0  0  0  0  0  0  0
   59.3430   31.5610   46.7770 C   0  0  0  0  0  0  0  0  0  0  0  0
   59.2970   30.1980   47.0770 C   0  0  0  0  0  0  0  0  0  0  0  0
   59.9610   29.7280   48.2240 C   0  0  0  0  0  0  0  0  0  0  0  0
   59.9240   28.3770   48.5580 C   0  0  0  0  0  0  0  0  0  0  0  0
   59.2250   27.4830   47.7550 C   0  0  0  0  0  0  0  0  0  0  0  0
   58.5620   27.9290   46.6100 C   0  0  0  0  0  0  0  0  0  0  0  0
   58.5850   29.3000   46.2400 C   0  0  0  0  0  0  0  0  0  0  0  0
   57.9400   29.8040   45.0710 C   0  0  0  0  0  0  0  0  0  0  0  0
   57.2390   28.9610   44.1710 C   0  0  0  0  0  0  0  0  0  0  0  0
   56.6380   29.4710   43.0230 C   0  0  0  0  0  0  0  0  0  0  0  0
   56.7200   30.8250   42.7320 C   0  0  0  0  0  0  0  0  0  0  0  0
   57.3960   31.6840   43.5930 C   0  0  0  0  0  0  0  0  0  0  0  0
   58.0040   31.2040   44.7780 C   0  0  0  0  0  0  0  0  0  0  0  0
   63.4751   32.2257   49.8524 H   0  0  0  0  0  0  0  0  0  0  0  0
   64.5747   31.5662   48.5944 H   0  0  0  0  0  0  0  0  0  0  0  0
   64.1551   33.3128   48.5944 H   0  0  0  0  0  0  0  0  0  0  0  0
   62.8576   31.2241   47.1788 H   0  0  0  0  0  0  0  0  0  0  0  0
   61.7485   31.7017   48.5552 H   0  0  0  0  0  0  0  0  0  0  0  0
   63.8793   34.3137   47.1622 H   0  0  0  0  0  0  0  0  0  0  0  0
   63.7308   33.1566   45.7962 H   0  0  0  0  0  0  0  0  0  0  0  0
   62.7699   34.6743   45.7962 H   0  0  0  0  0  0  0  0  0  0  0  0
   60.9898   33.5968   48.8833 H   0  0  0  0  0  0  0  0  0  0  0  0
   61.9031   34.9957   48.1820 H   0  0  0  0  0  0  0  0  0  0  0  0
   59.1458   34.1305   47.7031 H   0  0  0  0  0  0  0  0  0  0  0  0
   60.0098   35.6771   47.2557 H   0  0  0  0  0  0  0  0  0  0  0  0
   60.7850   33.5300   45.5920 H   0  0  0  0  0  0  0  0  0  0  0  0
   57.9132   34.0784   45.9362 H   0  0  0  0  0  0  0  0  0  0  0  0
   58.6251   33.7303   44.2969 H   0  0  0  0  0  0  0  0  0  0  0  0
   59.9143   32.2359   47.4314 H   0  0  0  0  0  0  0  0  0  0  0  0
   60.5138   30.4331   48.8621 H   0  0  0  0  0  0  0  0  0  0  0  0
   60.4473   28.0173   49.4562 H   0  0  0  0  0  0  0  0  0  0  0  0
   59.1940   26.4167   48.0236 H   0  0  0  0  0  0  0  0  0  0  0  0
   58.0140   27.2081   45.9855 H   0  0  0  0  0  0  0  0  0  0  0  0
   57.1688   27.8841   44.3839 H   0  0  0  0  0  0  0  0  0  0  0  0
   56.0956   28.7970   42.3436 H   0  0  0  0  0  0  0  0  0  0  0  0
   56.2499   31.2201   41.8193 H   0  0  0  0  0  0  0  0  0  0  0  0
   57.4591   32.7547   43.3487 H   0  0  0  0  0  0  0  0  0  0  0  0
  1  2  1  0
  2  3  1  0
  3  4  1  0
  3  5  1  0
  5  6  1  0
  6  7  1  0
  7  8  1  0
  8  9  1  0
  9 10  2  0
 10 11  1  0
 11 12  2  0
 12 13  1  0
 13 14  2  0
 14 15  1  0
 15 16  2  0
 16 17  1  0
 17 18  2  0
 18 19  1  0
 19 20  2  0
 20 21  1  0
 21 22  2  0
 22  9  1  0
 16 11  1  0
 22 17  1  0
  1 23  1  0
  1 24  1  0
  1 25  1  0
  2 26  1  0
  2 27  1  0
  4 28  1  0
  4 29  1  0
  4 30  1  0
  5 31  1  0
  5 32  1  0
  6 33  1  0
  6 34  1  0
  7 35  1  0
  8 36  1  0
  8 37  1  0
 10 38  1  0
 12 39  1  0
 13 40  1  0
 14 41  1  0
 15 42  1  0
 18 43  1  0
 19 44  1  0
 20 45  1  0
 21 46  1  0
M  END
>  <UniqueID>  (11) 
11

>  <SMILES>  (11) 
CCN(C)CCNCc1cc2ccccc2c2ccccc12

>  <Energy>  (11) 
65.61832047854739

>  <Genealogy>  (11) 
CCN(C)CCNCc1cc2ccccc2c2ccccc12 (3D coordinates assigned)
CCN(C)CCNCc1cc2ccccc2c2ccccc12 (optimized conformer: 65.61832047854739 kcal/mol)

>  <smiles>  (11) 
CCN(C)CCNCc1cc2ccccc2c2ccccc12

>  <score_type>  (11) 
oracle

>  <origin>  (11) 
adg

>  <m_score__min__energy>  (11) 
-7.1500000000000004

>  <m_primary>  (11) 
energy

$$$$
12:0
     RDKit          3D

 49 51  0  0  0  0  0  0  0  0999 V2000
   58.9270   32.1960   49.9760 C   0  0  0  0  0  0  0  0  0  0  0  0
   59.6650   33.4210   50.5330 C   0  0  0  0  0  0  0  0  0  0  0  0
   61.0670   33.1200   50.9240 N   0  0  1  0  0  0  0  0  0  0  0  0
   61.2830   33.4180   52.3550 C   0  0  0  0  0  0  0  0  0  0  0  0
   61.3650   31.6940   50.6280 C   0  0  0  0  0  0  0  0  0  0  0  0
   62.8030   31.4580   50.1210 C   0  0  0  0  0  0  0  0  0  0  0  0
   63.5850   32.6350   50.2240 O   0  0  0  0  0  0  0  0  0  0  0  0
   64.4230   32.8010   49.0940 C   0  0  0  0  0  0  0  0  0  0  0  0
   63.7320   33.6760   48.0460 C   0  0  0  0  0  0  0  0  0  0  0  0
   62.3690   33.9090   48.4010 O   0  0  0  0  0  0  0  0  0  0  0  0
   61.2520   33.5750   47.6170 C   0  0  0  0  0  0  0  0  0  0  0  0
   60.3500   34.5930   47.2880 C   0  0  0  0  0  0  0  0  0  0  0  0
   59.2210   34.3240   46.5090 C   0  0  0  0  0  0  0  0  0  0  0  0
   58.9780   33.0210   46.0430 C   0  0  0  0  0  0  0  0  0  0  0  0
   57.8590   32.7060   45.2530 C   0  0  0  0  0  0  0  0  0  0  0  0
   57.0270   33.6030   44.9370 O   0  0  0  0  0  0  0  0  0  0  0  0
   57.6760   31.3810   44.8180 C   0  0  0  0  0  0  0  0  0  0  0  0
   56.5800   30.9990   44.0220 C   0  0  0  0  0  0  0  0  0  0  0  0
   56.4410   29.6700   43.6110 C   0  0  0  0  0  0  0  0  0  0  0  0
   57.3880   28.7150   43.9880 C   0  0  0  0  0  0  0  0  0  0  0  0
   58.4810   29.0830   44.7790 C   0  0  0  0  0  0  0  0  0  0  0  0
   58.6320   30.4090   45.1960 C   0  0  0  0  0  0  0  0  0  0  0  0
   59.6750   30.7460   45.9460 O   0  0  0  0  0  0  0  0  0  0  0  0
   59.8830   31.9870   46.3760 C   0  0  0  0  0  0  0  0  0  0  0  0
   61.0060   32.2650   47.1610 C   0  0  0  0  0  0  0  0  0  0  0  0
   58.5565   31.5809   50.8093 H   0  0  0  0  0  0  0  0  0  0  0  0
   58.0785   32.5280   49.3597 H   0  0  0  0  0  0  0  0  0  0  0  0
   59.6171   31.6011   49.3597 H   0  0  0  0  0  0  0  0  0  0  0  0
   59.6758   34.2054   49.7619 H   0  0  0  0  0  0  0  0  0  0  0  0
   59.1312   33.7460   51.4382 H   0  0  0  0  0  0  0  0  0  0  0  0
   61.7130   33.7170   50.3560 H   0  0  0  0  0  0  0  0  0  0  0  0
   60.7471   32.6787   52.9684 H   0  0  0  0  0  0  0  0  0  0  0  0
   62.3585   33.3715   52.5809 H   0  0  0  0  0  0  0  0  0  0  0  0
   60.9041   34.4257   52.5809 H   0  0  0  0  0  0  0  0  0  0  0  0
   61.2202   31.1097   51.5487 H   0  0  0  0  0  0  0  0  0  0  0  0
   60.6830   31.3812   49.8236 H   0  0  0  0  0  0  0  0  0  0  0  0
   63.2694   30.6642   50.7229 H   0  0  0  0  0  0  0  0  0  0  0  0
   62.7540   31.1654   49.0618 H   0  0  0  0  0  0  0  0  0  0  0  0
   65.3622   33.2812   49.4059 H   0  0  0  0  0  0  0  0  0  0  0  0
   64.6326   31.8143   48.6552 H   0  0  0  0  0  0  0  0  0  0  0  0
   64.2571   34.6402   47.9779 H   0  0  0  0  0  0  0  0  0  0  0  0
   63.7607   33.1559   47.0771 H   0  0  0  0  0  0  0  0  0  0  0  0
   60.5315   35.6169   47.6466 H   0  0  0  0  0  0  0  0  0  0  0  0
   58.5207   35.1349   46.2601 H   0  0  0  0  0  0  0  0  0  0  0  0
   55.8315   31.7474   43.7227 H   0  0  0  0  0  0  0  0  0  0  0  0
   55.5831   29.3755   42.9887 H   0  0  0  0  0  0  0  0  0  0  0  0
   57.2738   27.6707   43.6619 H   0  0  0  0  0  0  0  0  0  0  0  0
   59.2239   28.3273   45.0739 H   0  0  0  0  0  0  0  0  0  0  0  0
   61.7023   31.4552   47.4244 H   0  0  0  0  0  0  0  0  0  0  0  0
  1  2  1  0
  2  3  1  0
  3  4  1  0
  3  5  1  0
  5  6  1  0
  6  7  1  0
  7  8  1  0
  8  9  1  0
  9 10  1  0
 10 11  1  0
 11 12  2  0
 12 13  1  0
 13 14  2  0
 14 15  1  0
 15 16  2  0
 15 17  1  0
 17 18  2  0
 18 19  1  0
 19 20  2  0
 20 21  1  0
 21 22  2  0
 22 23  1  0
 23 24  1  0
 24 25  2  0
 25 11  1  0
 24 14  1  0
 22 17  1  0
  1 26  1  0
  1 27  1  0
  1 28  1  0
  2 29  1  0
  2 30  1  0
  3 31  1  6
  4 32  1  0
  4 33  1  0
  4 34  1  0
  5 35  1  0
  5 36  1  0
  6 37  1  0
  6 38  1  0
  8 39  1  0
  8 40  1  0
  9 41  1  0
  9 42  1  0
 12 43  1  0
 13 44  1  0
 18 45  1  0
 19 46  1  0
 20 47  1  0
 21 48  1  0
 25 49  1  0
M  CHG  1   3   1
M  END
>  <UniqueID>  (12) 
12

>  <SMILES>  (12) 
CC[N@@H+](C)CCOCCOc1ccc2c(=O)c3ccccc3oc2c1

>  <Energy>  (12) 
62.64334249517483

>  <Genealogy>  (12) 
CC[NH+](C)CCOCCOc1ccc2c(=O)c3ccccc3oc2c1 (protonated)
CC[N@@H+](C)CCOCCOc1ccc2c(=O)c3ccccc3oc2c1 (chirality)
CC[N@@H+](C)CCOCCOc1ccc2c(=O)c3ccccc3oc2c1 (3D coordinates assigned)
CC[N@@H+](C)CCOCCOc1ccc2c(=O)c3ccccc3oc2c1 (optimized conformer: 62.64334249517483 kcal/mol)

>  <smiles>  (12) 
CCN(C)CCOCCOc1ccc2c(=O)c3ccccc3oc2c1

>  <score_type>  (12) 
oracle

>  <origin>  (12) 
adg

>  <m_score__min__energy>  (12) 
-5.5800000000000001

>  <m_primary>  (12) 
energy

$$$$
13:0
     RDKit          3D

 44 43  0  0  0  0  0  0  0  0999 V2000
   57.8700   28.0680   44.4070 C   0  0  0  0  0  0  0  0  0  0  0  0
   57.0300   28.6130   45.5540 C   0  0  0  0  0  0  0  0  0  0  0  0
   55.8190   29.2500   45.0290 N   0  0  0  0  0  0  0  0  0  0  0  0
   56.0350   29.7100   43.6520 C   0  0  0  0  0  0  0  0  0  0  0  0
   56.6360   31.1200   43.6510 C   0  0  0  0  0  0  0  0  0  0  0  0
   56.8030   31.6240   44.9650 O   0  0  0  0  0  0  0  0  0  0  0  0
   57.4880   32.8660   44.9790 C   0  0  0  0  0  0  0  0  0  0  0  0
   57.7260   33.3040   46.4450 C   0  0  0  0  0  0  0  0  0  0  0  0
   59.0830   32.9680   47.0100 N   0  0  0  0  0  0  0  0  0  0  0  0
   59.4040   31.5500   46.6090 C   0  0  0  0  0  0  0  0  0  0  0  0
   60.7550   30.9980   47.1040 C   0  0  0  0  0  0  0  0  0  0  0  0
   60.1130   33.8590   46.3660 C   0  0  0  0  0  0  0  0  0  0  0  0
   59.6480   35.2650   45.9500 C   0  0  0  0  0  0  0  0  0  0  0  0
   59.1390   33.0740   48.5150 C   0  0  0  0  0  0  0  0  0  0  0  0
   60.0450   34.1730   49.1090 C   0  0  0  0  0  0  0  0  0  0  0  0
   58.7277   27.5115   44.8128 H   0  0  0  0  0  0  0  0  0  0  0  0
   57.2557   27.3959   43.7898 H   0  0  0  0  0  0  0  0  0  0  0  0
   58.2334   28.9028   43.7898 H   0  0  0  0  0  0  0  0  0  0  0  0
   56.7465   27.7868   46.2227 H   0  0  0  0  0  0  0  0  0  0  0  0
   57.6179   29.3579   46.1103 H   0  0  0  0  0  0  0  0  0  0  0  0
   55.6130   30.0920   45.6180 H   0  0  0  0  0  0  0  0  0  0  0  0
   56.7251   29.0209   43.1431 H   0  0  0  0  0  0  0  0  0  0  0  0
   55.0691   29.7321   43.1261 H   0  0  0  0  0  0  0  0  0  0  0  0
   57.6173   31.0880   43.1550 H   0  0  0  0  0  0  0  0  0  0  0  0
   55.9428   31.7858   43.1160 H   0  0  0  0  0  0  0  0  0  0  0  0
   58.4552   32.7577   44.4664 H   0  0  0  0  0  0  0  0  0  0  0  0
   56.8835   33.6255   44.4615 H   0  0  0  0  0  0  0  0  0  0  0  0
   57.5974   34.3952   46.4980 H   0  0  0  0  0  0  0  0  0  0  0  0
   56.9991   32.7424   47.0501 H   0  0  0  0  0  0  0  0  0  0  0  0
   58.6095   30.9002   47.0046 H   0  0  0  0  0  0  0  0  0  0  0  0
   59.4718   31.5601   45.5111 H   0  0  0  0  0  0  0  0  0  0  0  0
   60.7681   30.9927   48.2039 H   0  0  0  0  0  0  0  0  0  0  0  0
   60.8909   29.9722   46.7307 H   0  0  0  0  0  0  0  0  0  0  0  0
   61.5703   31.6351   46.7307 H   0  0  0  0  0  0  0  0  0  0  0  0
   60.9418   33.9796   47.0791 H   0  0  0  0  0  0  0  0  0  0  0  0
   60.3842   33.3548   45.4267 H   0  0  0  0  0  0  0  0  0  0  0  0
   59.4491   35.8664   46.8493 H   0  0  0  0  0  0  0  0  0  0  0  0
   60.4339   35.7490   45.3516 H   0  0  0  0  0  0  0  0  0  0  0  0
   58.7285   35.1850   45.3516 H   0  0  0  0  0  0  0  0  0  0  0  0
   58.1153   33.2594   48.8725 H   0  0  0  0  0  0  0  0  0  0  0  0
   59.5843   32.1258   48.8507 H   0  0  0  0  0  0  0  0  0  0  0  0
   60.0063   34.1261   50.2073 H   0  0  0  0  0  0  0  0  0  0  0  0
   61.0802   34.0168   48.7715 H   0  0  0  0  0  0  0  0  0  0  0  0
   59.6942   35.1594   48.7715 H   0  0  0  0  0  0  0  0  0  0  0  0
  1  2  1  0
  2  3  1  0
  3  4  1  0
  4  5  1  0
  5  6  1  0
  6  7  1  0
  7  8  1  0
  8  9  1  0
  9 10  1  0
 10 11  1  0
  9 12  1  0
 12 13  1  0
  9 14  1  0
 14 15  1  0
  1 16  1  0
  1 17  1  0
  1 18  1  0
  2 19  1  0
  2 20  1  0
  3 21  1  0
  4 22  1  0
  4 23  1  0
  5 24  1  0
  5 25  1  0
  7 26  1  0
  7 27  1  0
  8 28  1  0
  8 29  1  0
 10 30  1  0
 10 31  1  0
 11 32  1  0
 11 33  1  0
 11 34  1  0
 12 35  1  0
 12 36  1  0
 13 37  1  0
 13 38  1  0
 13 39  1  0
 14 40  1  0
 14 41  1  0
 15 42  1  0
 15 43  1  0
 15 44  1  0
M  CHG  1   9   1
M  END
>  <UniqueID>  (13) 
13

>  <SMILES>  (13) 
CCNCCOCC[N+](CC)(CC)CC

>  <Energy>  (13) 
56.237886815755864

>  <Genealogy>  (13) 
CCNCCOCC[N+](CC)(CC)CC (3D coordinates assigned)
CCNCCOCC[N+](CC)(CC)CC (optimized conformer: 56.237886815755864 kcal/mol)

>  <smiles>  (13) 
CCNCCOCC[N+](CC)(CC)CC

>  <score_type>  (13) 
oracle

>  <origin>  (13) 
adg

>  <m_score__min__energy>  (13) 
-3.4100000000000001

>  <m_primary>  (13) 
energy

$$$$
14:0
     RDKit          3D

 33 34  0  0  0  0  0  0  0  0999 V2000
   55.4620   24.0520   44.2740 C   0  0  0  0  0  0  0  0  0  0  0  0
   54.5610   24.7580   45.6360 S   0  0  0  0  0  0  0  0  0  0  0  0
   54.7440   23.8810   46.8430 O   0  0  0  0  0  0  0  0  0  0  0  0
   53.0980   24.8100   45.2890 O   0  0  0  0  0  0  0  0  0  0  0  0
   55.1990   26.3400   45.9880 N   0  0  0  0  0  0  0  0  0  0  0  0
   56.4980   26.2810   46.6600 C   0  0  0  0  0  0  0  0  0  0  0  0
   57.4600   27.3340   46.0990 C   0  0  0  0  0  0  0  0  0  0  0  0
   56.7740   28.2240   45.1590 N   0  0  0  0  0  0  0  0  0  0  0  0
   57.1640   29.5930   44.9390 C   0  0  0  0  0  0  0  0  0  0  0  0
   56.9510   30.1720   43.6780 C   0  0  0  0  0  0  0  0  0  0  0  0
   57.3170   31.4960   43.4270 C   0  0  0  0  0  0  0  0  0  0  0  0
   57.9060   32.2680   44.4370 C   0  0  0  0  0  0  0  0  0  0  0  0
   58.2770   33.6000   44.1950 C   0  0  0  0  0  0  0  0  0  0  0  0
   58.8630   34.3600   45.2120 C   0  0  0  0  0  0  0  0  0  0  0  0
   59.0830   33.7990   46.4720 C   0  0  0  0  0  0  0  0  0  0  0  0
   58.7170   32.4740   46.7260 C   0  0  0  0  0  0  0  0  0  0  0  0
   58.1270   31.6990   45.7140 C   0  0  0  0  0  0  0  0  0  0  0  0
   57.7560   30.3670   45.9580 C   0  0  0  0  0  0  0  0  0  0  0  0
   56.2726   23.4168   44.6605 H   0  0  0  0  0  0  0  0  0  0  0  0
   54.7813   23.4444   43.6597 H   0  0  0  0  0  0  0  0  0  0  0  0
   55.8892   24.8583   43.6597 H   0  0  0  0  0  0  0  0  0  0  0  0
   56.3544   26.4627   47.7353 H   0  0  0  0  0  0  0  0  0  0  0  0
   56.9335   25.2853   46.4900 H   0  0  0  0  0  0  0  0  0  0  0  0
   57.8642   27.9309   46.9298 H   0  0  0  0  0  0  0  0  0  0  0  0
   58.2714   26.8182   45.5647 H   0  0  0  0  0  0  0  0  0  0  0  0
   55.9640   27.8500   44.6120 H   0  0  0  0  0  0  0  0  0  0  0  0
   56.4899   29.5751   42.8774 H   0  0  0  0  0  0  0  0  0  0  0  0
   57.1424   31.9342   42.4333 H   0  0  0  0  0  0  0  0  0  0  0  0
   58.1066   34.0464   43.2042 H   0  0  0  0  0  0  0  0  0  0  0  0
   59.1518   35.4037   45.0189 H   0  0  0  0  0  0  0  0  0  0  0  0
   59.5459   34.4019   47.2672 H   0  0  0  0  0  0  0  0  0  0  0  0
   58.8914   32.0374   47.7205 H   0  0  0  0  0  0  0  0  0  0  0  0
   57.9283   29.9246   46.9503 H   0  0  0  0  0  0  0  0  0  0  0  0
  1  2  1  0
  2  3  2  0
  2  4  2  0
  2  5  1  0
  5  6  1  0
  6  7  1  0
  7  8  1  0
  8  9  1  0
  9 10  2  0
 10 11  1  0
 11 12  2  0
 12 13  1  0
 13 14  2  0
 14 15  1  0
 15 16  2  0
 16 17  1  0
 17 18  2  0
 18  9  1  0
 17 12  1  0
  1 19  1  0
  1 20  1  0
  1 21  1  0
  6 22  1  0
  6 23  1  0
  7 24  1  0
  7 25  1  0
  8 26  1  0
 10 27  1  0
 11 28  1  0
 13 29  1  0
 14 30  1  0
 15 31  1  0
 16 32  1  0
 18 33  1  0
M  CHG  1   5  -1
M  END
>  <UniqueID>  (14) 
14

>  <SMILES>  (14) 
CS(=O)(=O)[N-]CCNc1ccc2ccccc2c1

>  <Energy>  (14) 
29.58052289876712

>  <Genealogy>  (14) 
CS(=O)(=O)[N-]CCNc1ccc2ccccc2c1 (protonated)
CS(=O)(=O)[N-]CCNc1ccc2ccccc2c1 (3D coordinates assigned)
CS(=O)(=O)[N-]CCNc1ccc2ccccc2c1 (optimized conformer: 29.58052289876712 kcal/mol)

>  <smiles>  (14) 
CS(=O)(=O)NCCNc1ccc2ccccc2c1

>  <score_type>  (14) 
oracle

>  <origin>  (14) 
adg

>  <m_score__min__energy>  (14) 
-9.3000000000000007

>  <m_primary>  (14) 
energy

$$$$
15:0
     RDKit          3D

 60 62  0  0  0  0  0  0  0  0999 V2000
   63.1870   33.8380   46.4130 C   0  0  0  0  0  0  0  0  0  0  0  0
   62.9730   33.5500   47.8960 C   0  0  0  0  0  0  0  0  0  0  0  0
   62.1610   32.4030   48.0630 O   0  0  0  0  0  0  0  0  0  0  0  0
   62.8510   31.3790   48.7590 C   0  0  0  0  0  0  0  0  0  0  0  0
   62.3990   31.3310   50.2190 C   0  0  0  0  0  0  0  0  0  0  0  0
   61.9170   32.5990   50.6220 O   0  0  0  0  0  0  0  0  0  0  0  0
   60.8320   32.4580   51.5160 C   0  0  0  0  0  0  0  0  0  0  0  0
   59.8040   33.5470   51.2370 C   0  0  0  0  0  0  0  0  0  0  0  0
   58.5740   32.9480   50.8820 O   0  0  0  0  0  0  0  0  0  0  0  0
   58.6090   31.5550   51.1290 C   0  0  0  0  0  0  0  0  0  0  0  0
   58.6080   30.7840   49.8070 C   0  0  0  0  0  0  0  0  0  0  0  0
   59.5730   31.3560   48.8700 N   0  0  0  0  0  0  0  0  0  0  0  0
   59.2390   31.4960   47.4810 C   0  0  0  0  0  0  0  0  0  0  0  0
   59.1950   32.7740   46.9040 C   0  0  0  0  0  0  0  0  0  0  0  0
   58.8580   32.9080   45.5310 C   0  0  0  0  0  0  0  0  0  0  0  0
   58.4720   31.7950   44.8030 N   0  0  0  0  0  0  0  0  0  0  0  0
   57.9110   31.9550   43.4420 C   0  0  0  0  0  0  0  0  0  0  0  0
   58.6310   30.5270   45.3310 C   0  0  0  0  0  0  0  0  0  0  0  0
   58.4530   29.3590   44.5410 C   0  0  0  0  0  0  0  0  0  0  0  0
   58.6070   28.0870   45.0900 C   0  0  0  0  0  0  0  0  0  0  0  0
   58.9600   27.9400   46.4270 C   0  0  0  0  0  0  0  0  0  0  0  0
   59.1660   29.0650   47.2210 C   0  0  0  0  0  0  0  0  0  0  0  0
   59.0050   30.3620   46.6900 C   0  0  0  0  0  0  0  0  0  0  0  0
   58.8600   34.2910   44.8890 C   0  0  0  0  0  0  0  0  0  0  0  0
   59.6660   35.3300   45.6660 C   0  0  0  0  0  0  0  0  0  0  0  0
   59.2460   35.3150   47.1270 C   0  0  0  0  0  0  0  0  0  0  0  0
   59.6010   33.9690   47.7540 C   0  0  0  0  0  0  0  0  0  0  0  0
   63.8396   34.7163   46.3005 H   0  0  0  0  0  0  0  0  0  0  0  0
   63.6587   32.9670   45.9347 H   0  0  0  0  0  0  0  0  0  0  0  0
   62.2169   34.0383   45.9347 H   0  0  0  0  0  0  0  0  0  0  0  0
   63.9475   33.3774   48.3761 H   0  0  0  0  0  0  0  0  0  0  0  0
   62.4716   34.4129   48.3586 H   0  0  0  0  0  0  0  0  0  0  0  0
   62.6400   30.4105   48.2820 H   0  0  0  0  0  0  0  0  0  0  0  0
   63.9303   31.5888   48.7257 H   0  0  0  0  0  0  0  0  0  0  0  0
   61.5969   30.5860   50.3270 H   0  0  0  0  0  0  0  0  0  0  0  0
   63.2553   31.0543   50.8515 H   0  0  0  0  0  0  0  0  0  0  0  0
   60.3678   31.4704   51.3773 H   0  0  0  0  0  0  0  0  0  0  0  0
   61.1934   32.5493   52.5509 H   0  0  0  0  0  0  0  0  0  0  0  0
   59.6665   34.1622   52.1384 H   0  0  0  0  0  0  0  0  0  0  0  0
   60.1559   34.1833   50.4116 H   0  0  0  0  0  0  0  0  0  0  0  0
   59.5209   31.3087   51.6927 H   0  0  0  0  0  0  0  0  0  0  0  0
   57.7198   31.2711   51.7109 H   0  0  0  0  0  0  0  0  0  0  0  0
   58.8735   29.7344   50.0018 H   0  0  0  0  0  0  0  0  0  0  0  0
   57.6041   30.8497   49.3621 H   0  0  0  0  0  0  0  0  0  0  0  0
   60.4290   31.8410   49.2240 H   0  0  0  0  0  0  0  0  0  0  0  0
   56.8554   32.2561   43.5136 H   0  0  0  0  0  0  0  0  0  0  0  0
   58.4767   32.7276   42.9007 H   0  0  0  0  0  0  0  0  0  0  0  0
   57.9841   31.0002   42.9007 H   0  0  0  0  0  0  0  0  0  0  0  0
   58.1891   29.4605   43.4780 H   0  0  0  0  0  0  0  0  0  0  0  0
   58.4488   27.1967   44.4636 H   0  0  0  0  0  0  0  0  0  0  0  0
   59.0765   26.9345   46.8575 H   0  0  0  0  0  0  0  0  0  0  0  0
   59.4576   28.9411   48.2744 H   0  0  0  0  0  0  0  0  0  0  0  0
   59.2880   34.2041   43.8794 H   0  0  0  0  0  0  0  0  0  0  0  0
   57.8167   34.6395   44.8754 H   0  0  0  0  0  0  0  0  0  0  0  0
   60.7375   35.0927   45.5909 H   0  0  0  0  0  0  0  0  0  0  0  0
   59.4786   36.3279   45.2429 H   0  0  0  0  0  0  0  0  0  0  0  0
   59.7700   36.1182   47.6657 H   0  0  0  0  0  0  0  0  0  0  0  0
   58.1592   35.4711   47.1938 H   0  0  0  0  0  0  0  0  0  0  0  0
   60.6898   33.9331   47.9067 H   0  0  0  0  0  0  0  0  0  0  0  0
   59.0429   33.8966   48.6991 H   0  0  0  0  0  0  0  0  0  0  0  0
  1  2  1  0
  2  3  1  0
  3  4  1  0
  4  5  1  0
  5  6  1  0
  6  7  1  0
  7  8  1  0
  8  9  1  0
  9 10  1  0
 10 11  1  0
 11 12  1  0
 12 13  1  0
 13 14  2  0
 14 15  1  0
 15 16  2  0
 16 17  1  0
 16 18  1  0
 18 19  2  0
 19 20  1  0
 20 21  2  0
 21 22  1  0
 22 23  2  0
 15 24  1  0
 24 25  1  0
 25 26  1  0
 26 27  1  0
 23 13  1  0
 27 14  1  0
 23 18  1  0
  1 28  1  0
  1 29  1  0
  1 30  1  0
  2 31  1  0
  2 32  1  0
  4 33  1  0
  4 34  1  0
  5 35  1  0
  5 36  1  0
  7 37  1  0
  7 38  1  0
  8 39  1  0
  8 40  1  0
 10 41  1  0
 10 42  1  0
 11 43  1  0
 11 44  1  0
 12 45  1  0
 17 46  1  0
 17 47  1  0
 17 48  1  0
 19 49  1  0
 20 50  1  0
 21 51  1  0
 22 52  1  0
 24 53  1  0
 24 54  1  0
 25 55  1  0
 25 56  1  0
 26 57  1  0
 26 58  1  0
 27 59  1  0
 27 60  1  0
M  CHG  1  16   1
M  END
>  <UniqueID>  (15) 
15

>  <SMILES>  (15) 
CCOCCOCCOCCNc1c2c([n+](C)c3ccccc13)CCCC2

>  <Energy>  (15) 
79.09921157153576

>  <Genealogy>  (15) 
CCOCCOCCOCCNc1c2c([n+](C)c3ccccc13)CCCC2 (3D coordinates assigned)
CCOCCOCCOCCNc1c2c([n+](C)c3ccccc13)CCCC2 (nonaromatic ring conformer: 79.09921157153576 kcal/mol)

>  <smiles>  (15) 
CCOCCOCCOCCNc1c2c([n+](C)c3ccccc13)CCCC2

>  <score_type>  (15) 
oracle

>  <origin>  (15) 
adg

>  <m_score__min__energy>  (15) 
-6.1100000000000003

>  <m_primary>  (15) 
energy

$$$$
16:0
     RDKit          3D

 47 50  0  0  0  0  0  0  0  0999 V2000
   58.5730   29.5890   47.7940 C   0  0  0  0  0  0  0  0  0  0  0  0
   58.4740   29.4110   46.3450 N   0  0  0  0  0  0  0  0  0  0  0  0
   58.5290   30.3600   45.3660 C   0  0  0  0  0  0  0  0  0  0  0  0
   58.6630   31.8140   45.5940 C   0  0  0  0  0  0  0  0  0  0  0  0
   58.1450   32.7400   44.6750 C   0  0  0  0  0  0  0  0  0  0  0  0
   58.3020   34.1100   44.8910 C   0  0  0  0  0  0  0  0  0  0  0  0
   59.0000   34.5680   46.0100 C   0  0  0  0  0  0  0  0  0  0  0  0
   59.5580   33.6560   46.9210 C   0  0  0  0  0  0  0  0  0  0  0  0
   60.3450   34.1570   48.1120 C   0  0  0  0  0  0  0  0  0  0  0  0
   61.8040   34.2180   47.8720 N   0  0  0  0  0  0  0  0  0  0  0  0
   62.3110   33.4080   46.7430 C   0  0  0  0  0  0  0  0  0  0  0  0
   62.7720   31.9950   47.1610 C   0  0  0  0  0  0  0  0  0  0  0  0
   63.3830   31.9330   48.5700 C   0  0  0  0  0  0  0  0  0  0  0  0
   63.8420   33.3060   49.0480 C   0  0  0  0  0  0  0  0  0  0  0  0
   62.6520   34.2740   49.0890 C   0  0  0  0  0  0  0  0  0  0  0  0
   59.3700   32.2790   46.7140 C   0  0  0  0  0  0  0  0  0  0  0  0
   58.4390   29.8230   44.1220 N   0  0  0  0  0  0  0  0  0  0  0  0
   58.2970   28.5050   44.3350 C   0  0  0  0  0  0  0  0  0  0  0  0
   58.1410   27.4930   43.3910 C   0  0  0  0  0  0  0  0  0  0  0  0
   57.9980   26.1760   43.8650 C   0  0  0  0  0  0  0  0  0  0  0  0
   58.0110   25.9090   45.2540 C   0  0  0  0  0  0  0  0  0  0  0  0
   58.1700   26.9560   46.1810 C   0  0  0  0  0  0  0  0  0  0  0  0
   58.3120   28.2510   45.6780 C   0  0  0  0  0  0  0  0  0  0  0  0
   58.0986   28.7361   48.3015 H   0  0  0  0  0  0  0  0  0  0  0  0
   59.6323   29.6458   48.0849 H   0  0  0  0  0  0  0  0  0  0  0  0
   58.0625   30.5189   48.0849 H   0  0  0  0  0  0  0  0  0  0  0  0
   57.6129   32.3843   43.7804 H   0  0  0  0  0  0  0  0  0  0  0  0
   57.8748   34.8305   44.1779 H   0  0  0  0  0  0  0  0  0  0  0  0
   59.1136   35.6490   46.1792 H   0  0  0  0  0  0  0  0  0  0  0  0
   59.9909   35.1677   48.3631 H   0  0  0  0  0  0  0  0  0  0  0  0
   60.1815   33.4420   48.9318 H   0  0  0  0  0  0  0  0  0  0  0  0
   61.5079   33.3067   45.9981 H   0  0  0  0  0  0  0  0  0  0  0  0
   63.1903   33.9300   46.3377 H   0  0  0  0  0  0  0  0  0  0  0  0
   61.9015   31.3231   47.1306 H   0  0  0  0  0  0  0  0  0  0  0  0
   63.5611   31.6940   46.4562 H   0  0  0  0  0  0  0  0  0  0  0  0
   62.6270   31.5467   49.2694 H   0  0  0  0  0  0  0  0  0  0  0  0
   64.2615   31.2720   48.5334 H   0  0  0  0  0  0  0  0  0  0  0  0
   64.2723   33.2153   50.0563 H   0  0  0  0  0  0  0  0  0  0  0  0
   64.5995   33.6953   48.3519 H   0  0  0  0  0  0  0  0  0  0  0  0
   62.0287   34.0235   49.9601 H   0  0  0  0  0  0  0  0  0  0  0  0
   63.0637   35.2921   49.1512 H   0  0  0  0  0  0  0  0  0  0  0  0
   59.7808   31.5585   47.4365 H   0  0  0  0  0  0  0  0  0  0  0  0
   58.4470   30.3220   43.2040 H   0  0  0  0  0  0  0  0  0  0  0  0
   58.1300   27.7153   42.3138 H   0  0  0  0  0  0  0  0  0  0  0  0
   57.8753   25.3485   43.1507 H   0  0  0  0  0  0  0  0  0  0  0  0
   57.8960   24.8754   45.6123 H   0  0  0  0  0  0  0  0  0  0  0  0
   58.1820   26.7611   47.2635 H   0  0  0  0  0  0  0  0  0  0  0  0
  1  2  1  0
  2  3  1  0
  3  4  1  0
  4  5  2  0
  5  6  1  0
  6  7  2  0
  7  8  1  0
  8  9  1  0
  9 10  1  0
 10 11  1  0
 11 12  1  0
 12 13  1  0
 13 14  1  0
 14 15  1  0
  8 16  2  0
  3 17  2  0
 17 18  1  0
 18 19  2  0
 19 20  1  0
 20 21  2  0
 21 22  1  0
 22 23  2  0
 23  2  1  0
 16  4  1  0
 23 18  1  0
 15 10  1  0
  1 24  1  0
  1 25  1  0
  1 26  1  0
  5 27  1  0
  6 28  1  0
  7 29  1  0
  9 30  1  0
  9 31  1  0
 11 32  1  0
 11 33  1  0
 12 34  1  0
 12 35  1  0
 13 36  1  0
 13 37  1  0
 14 38  1  0
 14 39  1  0
 15 40  1  0
 15 41  1  0
 16 42  1  0
 17 43  1  0
 19 44  1  0
 20 45  1  0
 21 46  1  0
 22 47  1  0
M  CHG  1  17   1
M  END
>  <UniqueID>  (16) 
16

>  <SMILES>  (16) 
Cn1c(-c2cccc(CN3CCCCC3)c2)[nH+]c2ccccc21

>  <Energy>  (16) 
104.28460673338994

>  <Genealogy>  (16) 
Cn1c(-c2cccc(CN3CCCCC3)c2)[nH+]c2ccccc21 (protonated)
Cn1c(-c2cccc(CN3CCCCC3)c2)[nH+]c2ccccc21 (3D coordinates assigned)
Cn1c(-c2cccc(CN3CCCCC3)c2)[nH+]c2ccccc21 (nonaromatic ring conformer: 104.28460673338994 kcal/mol)

>  <smiles>  (16) 
Cn1c(-c2cccc(CN3CCCCC3)c2)nc2ccccc21

>  <score_type>  (16) 
oracle

>  <origin>  (16) 
adg

>  <m_score__min__energy>  (16) 
-6.6100000000000003

>  <m_primary>  (16) 
energy

$$$$
17:0
     RDKit          3D

 53 56  0  0  0  0  0  0  0  0999 V2000
   57.3440   23.4160   44.3640 C   0  0  0  0  0  0  0  0  0  0  0  0
   56.5320   24.4190   45.0460 N   0  0  0  0  0  0  0  0  0  0  0  0
   55.1940   24.4170   45.1730 C   0  0  0  0  0  0  0  0  0  0  0  0
   54.7860   25.4210   45.9740 N   0  0  0  0  0  0  0  0  0  0  0  0
   55.8700   26.0700   46.3770 N   0  0  0  0  0  0  0  0  0  0  0  0
   56.9240   25.4570   45.8120 C   0  0  0  0  0  0  0  0  0  0  0  0
   58.6250   25.9460   46.1140 S   0  0  0  0  0  0  0  0  0  0  0  0
   58.2380   27.7070   46.4380 C   0  0  0  0  0  0  0  0  0  0  0  0
   59.0080   28.6510   45.5060 C   0  0  0  0  0  0  0  0  0  0  0  0
   58.0620   29.6490   44.7910 C   0  0  0  0  0  0  0  0  0  0  0  0
   57.6840   30.8420   45.5830 N   0  0  0  0  0  0  0  0  0  0  0  0
   57.2140   31.9950   44.7620 C   0  0  0  0  0  0  0  0  0  0  0  0
   57.8040   33.1920   45.4700 C   0  0  2  0  0  0  0  0  0  0  0  0
   58.1680   34.5510   44.9130 C   0  0  0  0  0  0  0  0  0  0  0  0
   59.2570   34.9920   45.9350 C   0  0  0  0  0  0  0  0  0  0  0  0
   59.7160   33.7560   46.5980 N   0  0  0  0  0  0  0  0  0  0  0  0
   60.9900   33.6310   47.2410 C   0  0  0  0  0  0  0  0  0  0  0  0
   62.1600   33.5090   46.4740 C   0  0  0  0  0  0  0  0  0  0  0  0
   63.3950   33.3340   47.0990 C   0  0  0  0  0  0  0  0  0  0  0  0
   63.4710   33.2750   48.4910 C   0  0  0  0  0  0  0  0  0  0  0  0
   62.3130   33.3970   49.2630 C   0  0  0  0  0  0  0  0  0  0  0  0
   61.0600   33.5730   48.6430 C   0  0  0  0  0  0  0  0  0  0  0  0
   59.8670   33.6920   49.3770 O   0  0  0  0  0  0  0  0  0  0  0  0
   58.9600   32.6290   49.6570 C   0  0  0  0  0  0  0  0  0  0  0  0
   57.8540   32.7100   48.8290 F   0  0  0  0  0  0  0  0  0  0  0  0
   58.5400   32.7340   50.9700 F   0  0  0  0  0  0  0  0  0  0  0  0
   59.5900   31.4090   49.4850 F   0  0  0  0  0  0  0  0  0  0  0  0
   59.1340   32.6650   45.8520 C   0  0  1  0  0  0  0  0  0  0  0  0
   58.7520   31.3510   46.4850 C   0  0  0  0  0  0  0  0  0  0  0  0
   57.8529   22.7874   45.1096 H   0  0  0  0  0  0  0  0  0  0  0  0
   56.6975   22.7872   43.7342 H   0  0  0  0  0  0  0  0  0  0  0  0
   58.0936   23.9175   43.7342 H   0  0  0  0  0  0  0  0  0  0  0  0
   54.5223   23.6932   44.6883 H   0  0  0  0  0  0  0  0  0  0  0  0
   57.1595   27.8655   46.2904 H   0  0  0  0  0  0  0  0  0  0  0  0
   58.5386   27.9339   47.4715 H   0  0  0  0  0  0  0  0  0  0  0  0
   59.7412   29.2174   46.0989 H   0  0  0  0  0  0  0  0  0  0  0  0
   59.5075   28.0421   44.7380 H   0  0  0  0  0  0  0  0  0  0  0  0
   58.5626   29.9944   43.8744 H   0  0  0  0  0  0  0  0  0  0  0  0
   57.1273   29.1003   44.6031 H   0  0  0  0  0  0  0  0  0  0  0  0
   57.5897   31.9230   43.7307 H   0  0  0  0  0  0  0  0  0  0  0  0
   56.1184   32.0433   44.6767 H   0  0  0  0  0  0  0  0  0  0  0  0
   56.9628   33.4732   46.1207 H   0  0  0  0  0  0  0  0  0  0  0  0
   58.5738   34.4769   43.8933 H   0  0  0  0  0  0  0  0  0  0  0  0
   57.3227   35.2478   44.8135 H   0  0  0  0  0  0  0  0  0  0  0  0
   60.0942   35.4803   45.4148 H   0  0  0  0  0  0  0  0  0  0  0  0
   58.8586   35.7153   46.6617 H   0  0  0  0  0  0  0  0  0  0  0  0
   62.1025   33.5516   45.3763 H   0  0  0  0  0  0  0  0  0  0  0  0
   64.3092   33.2425   46.4941 H   0  0  0  0  0  0  0  0  0  0  0  0
   64.4450   33.1321   48.9817 H   0  0  0  0  0  0  0  0  0  0  0  0
   62.3798   33.3555   50.3602 H   0  0  0  0  0  0  0  0  0  0  0  0
   59.9270   32.4109   45.1333 H   0  0  0  0  0  0  0  0  0  0  0  0
   59.6086   30.6614   46.5118 H   0  0  0  0  0  0  0  0  0  0  0  0
   58.4242   31.4527   47.5301 H   0  0  0  0  0  0  0  0  0  0  0  0
  1  2  1  0
  2  3  1  0
  3  4  2  0
  4  5  1  0
  5  6  2  0
  6  7  1  0
  7  8  1  0
  8  9  1  0
  9 10  1  0
 10 11  1  0
 11 12  1  0
 12 13  1  0
 13 14  1  0
 14 15  1  0
 15 16  1  0
 16 17  1  0
 17 18  2  0
 18 19  1  0
 19 20  2  0
 20 21  1  0
 21 22  2  0
 22 23  1  0
 23 24  1  0
 24 25  1  0
 24 26  1  0
 24 27  1  0
 16 28  1  0
 28 29  1  0
  6  2  1  0
 29 11  1  0
 28 13  1  0
 22 17  1  0
  1 30  1  0
  1 31  1  0
  1 32  1  0
  3 33  1  0
  8 34  1  0
  8 35  1  0
  9 36  1  0
  9 37  1  0
 10 38  1  0
 10 39  1  0
 12 40  1  0
 12 41  1  0
 13 42  1  1
 14 43  1  0
 14 44  1  0
 15 45  1  0
 15 46  1  0
 18 47  1  0
 19 48  1  0
 20 49  1  0
 21 50  1  0
 28 51  1  6
 29 52  1  0
 29 53  1  0
M  END
>  <UniqueID>  (17) 
17

>  <SMILES>  (17) 
Cn1cnnc1SCCCN1C[C@@H]2CCN(c3ccccc3OC(F)(F)F)[C@H]2C1

>  <Energy>  (17) 
130.1705603906503

>  <Genealogy>  (17) 
Cn1cnnc1SCCCN1C[C@@H]2CCN(c3ccccc3OC(F)(F)F)[C@H]2C1 (chirality)
Cn1cnnc1SCCCN1C[C@@H]2CCN(c3ccccc3OC(F)(F)F)[C@H]2C1 (3D coordinates assigned)
Cn1cnnc1SCCCN1C[C@@H]2CCN(c3ccccc3OC(F)(F)F)[C@H]2C1 (nonaromatic ring conformer: 130.1705603906503 kcal/mol)

>  <smiles>  (17) 
Cn1cnnc1SCCCN1CC2CCN(c3ccccc3OC(F)(F)F)C2C1

>  <score_type>  (17) 
oracle

>  <origin>  (17) 
adg

>  <m_score__min__energy>  (17) 
-8.7200000000000006

>  <m_primary>  (17) 
energy

$$$$
18:0
     RDKit          3D

 48 51  0  0  0  0  0  0  0  0999 V2000
   59.6160   33.9860   49.6990 C   0  0  0  0  0  0  0  0  0  0  0  0
   60.3290   33.9260   48.4220 N   0  0  0  0  0  0  0  0  0  0  0  0
   59.8810   34.2000   47.1620 C   0  0  0  0  0  0  0  0  0  0  0  0
   58.4860   34.6600   46.8100 C   0  0  0  0  0  0  0  0  0  0  0  0
   57.5560   33.5430   46.5280 N   0  0  0  0  0  0  0  0  0  0  0  0
   57.0860   33.5300   45.1270 C   0  0  0  0  0  0  0  0  0  0  0  0
   58.2140   33.2140   44.1310 C   0  0  0  0  0  0  0  0  0  0  0  0
   58.3810   31.7170   43.8040 C   0  0  0  0  0  0  0  0  0  0  0  0
   58.5340   30.8970   45.0170 N   0  0  0  0  0  0  0  0  0  0  0  0
   58.2760   29.4760   44.9730 C   0  0  0  0  0  0  0  0  0  0  0  0
   58.1710   28.7280   46.1590 C   0  0  0  0  0  0  0  0  0  0  0  0
   57.8920   27.3630   46.0920 C   0  0  0  0  0  0  0  0  0  0  0  0
   57.7170   26.7490   44.8540 C   0  0  0  0  0  0  0  0  0  0  0  0
   57.8210   27.5150   43.6920 C   0  0  0  0  0  0  0  0  0  0  0  0
   58.0930   28.8470   43.7710 N   0  0  0  0  0  0  0  0  0  0  0  0
   59.0510   31.4780   46.2700 C   0  0  0  0  0  0  0  0  0  0  0  0
   57.9900   32.2410   47.0990 C   0  0  0  0  0  0  0  0  0  0  0  0
   60.8440   34.0620   46.2110 N   0  0  0  0  0  0  0  0  0  0  0  0
   61.9290   33.7070   46.9190 C   0  0  0  0  0  0  0  0  0  0  0  0
   63.2130   33.4640   46.4390 C   0  0  0  0  0  0  0  0  0  0  0  0
   64.2100   33.1320   47.3740 C   0  0  0  0  0  0  0  0  0  0  0  0
   63.9030   33.0560   48.7520 C   0  0  0  0  0  0  0  0  0  0  0  0
   62.5940   33.3110   49.2050 C   0  0  0  0  0  0  0  0  0  0  0  0
   61.6290   33.6330   48.2470 C   0  0  0  0  0  0  0  0  0  0  0  0
   60.3390   33.9252   50.5258 H   0  0  0  0  0  0  0  0  0  0  0  0
   59.0619   34.9339   49.7654 H   0  0  0  0  0  0  0  0  0  0  0  0
   58.9113   33.1440   49.7654 H   0  0  0  0  0  0  0  0  0  0  0  0
   58.0869   35.2424   47.6535 H   0  0  0  0  0  0  0  0  0  0  0  0
   58.5625   35.2607   45.8917 H   0  0  0  0  0  0  0  0  0  0  0  0
   56.3011   32.7661   45.0252 H   0  0  0  0  0  0  0  0  0  0  0  0
   56.7048   34.5349   44.8928 H   0  0  0  0  0  0  0  0  0  0  0  0
   58.0032   33.7486   43.1930 H   0  0  0  0  0  0  0  0  0  0  0  0
   59.1511   33.5349   44.6094 H   0  0  0  0  0  0  0  0  0  0  0  0
   57.4928   31.3733   43.2537 H   0  0  0  0  0  0  0  0  0  0  0  0
   59.2941   31.6026   43.2014 H   0  0  0  0  0  0  0  0  0  0  0  0
   58.3082   29.2169   47.1348 H   0  0  0  0  0  0  0  0  0  0  0  0
   57.8102   26.7719   47.0161 H   0  0  0  0  0  0  0  0  0  0  0  0
   57.4993   25.6725   44.7929 H   0  0  0  0  0  0  0  0  0  0  0  0
   57.6828   27.0412   42.7090 H   0  0  0  0  0  0  0  0  0  0  0  0
   58.1750   29.3840   42.8800 H   0  0  0  0  0  0  0  0  0  0  0  0
   59.4517   30.6620   46.8894 H   0  0  0  0  0  0  0  0  0  0  0  0
   59.8188   32.2125   45.9854 H   0  0  0  0  0  0  0  0  0  0  0  0
   57.1028   31.5973   47.1910 H   0  0  0  0  0  0  0  0  0  0  0  0
   58.4660   32.4742   48.0628 H   0  0  0  0  0  0  0  0  0  0  0  0
   63.4402   33.5294   45.3647 H   0  0  0  0  0  0  0  0  0  0  0  0
   65.2354   32.9301   47.0308 H   0  0  0  0  0  0  0  0  0  0  0  0
   64.6909   32.7963   49.4744 H   0  0  0  0  0  0  0  0  0  0  0  0
   62.3405   33.2586   50.2741 H   0  0  0  0  0  0  0  0  0  0  0  0
  1  2  1  0
  2  3  1  0
  3  4  1  0
  4  5  1  0
  5  6  1  0
  6  7  1  0
  7  8  1  0
  8  9  1  0
  9 10  1  0
 10 11  2  0
 11 12  1  0
 12 13  2  0
 13 14  1  0
 14 15  2  0
  9 16  1  0
 16 17  1  0
  3 18  2  0
 18 19  1  0
 19 20  2  0
 20 21  1  0
 21 22  2  0
 22 23  1  0
 23 24  2  0
 24  2  1  0
 17  5  1  0
 24 19  1  0
 15 10  1  0
  1 25  1  0
  1 26  1  0
  1 27  1  0
  4 28  1  0
  4 29  1  0
  6 30  1  0
  6 31  1  0
  7 32  1  0
  7 33  1  0
  8 34  1  0
  8 35  1  0
 11 36  1  0
 12 37  1  0
 13 38  1  0
 14 39  1  0
 15 40  1  0
 16 41  1  0
 16 42  1  0
 17 43  1  0
 17 44  1  0
 20 45  1  0
 21 46  1  0
 22 47  1  0
 23 48  1  0
M  CHG  1  15   1
M  END
>  <UniqueID>  (18) 
18

>  <SMILES>  (18) 
Cn1c(CN2CCCN(c3cccc[nH+]3)CC2)nc2ccccc21

>  <Energy>  (18) 
104.83370809975057

>  <Genealogy>  (18) 
Cn1c(CN2CCCN(c3cccc[nH+]3)CC2)nc2ccccc21 (protonated)
Cn1c(CN2CCCN(c3cccc[nH+]3)CC2)nc2ccccc21 (3D coordinates assigned)
Cn1c(CN2CCCN(c3cccc[nH+]3)CC2)nc2ccccc21 (nonaromatic ring conformer: 104.83370809975057 kcal/mol)

>  <smiles>  (18) 
Cn1c(CN2CCCN(c3ccccn3)CC2)nc2ccccc21

>  <score_type>  (18) 
oracle

>  <origin>  (18) 
adg

>  <m_score__min__energy>  (18) 
-4.4500000000000002

>  <m_primary>  (18) 
energy

$$$$
19:0
     RDKit          3D

 46 48  0  0  0  0  0  0  0  0999 V2000
   60.8330   30.6410   47.1090 C   0  0  0  0  0  0  0  0  0  0  0  0
   61.3750   32.0720   47.1140 C   0  0  0  0  0  0  0  0  0  0  0  0
   60.3150   33.0540   47.4370 N   0  0  0  0  0  0  0  0  0  0  0  0
   60.3750   34.2270   46.5260 C   0  0  0  0  0  0  0  0  0  0  0  0
   59.3680   34.1110   45.3730 C   0  0  0  0  0  0  0  0  0  0  0  0
   57.9750   34.0770   45.8750 N   0  0  0  0  0  0  0  0  0  0  0  0
   57.0670   33.4830   44.8710 C   0  0  0  0  0  0  0  0  0  0  0  0
   57.7750   32.3580   44.1090 C   0  0  0  0  0  0  0  0  0  0  0  0
   57.0210   31.1090   44.2260 N   0  0  0  0  0  0  0  0  0  0  0  0
   57.6370   29.8650   44.6040 C   0  0  0  0  0  0  0  0  0  0  0  0
   58.9830   29.7120   44.4890 N   0  0  0  0  0  0  0  0  0  0  0  0
   59.5960   28.5810   44.8370 N   0  0  0  0  0  0  0  0  0  0  0  0
   60.9630   28.4850   44.6760 O   0  0  0  0  0  0  0  0  0  0  0  0
   58.8810   27.5320   45.3330 C   0  0  0  0  0  0  0  0  0  0  0  0
   59.5050   26.3340   45.7240 C   0  0  0  0  0  0  0  0  0  0  0  0
   58.7440   25.2740   46.2250 C   0  0  0  0  0  0  0  0  0  0  0  0
   57.3590   25.4000   46.3420 C   0  0  0  0  0  0  0  0  0  0  0  0
   56.7260   26.5850   45.9560 C   0  0  0  0  0  0  0  0  0  0  0  0
   57.4790   27.6630   45.4540 C   0  0  0  0  0  0  0  0  0  0  0  0
   56.8820   28.8330   45.0810 N   0  0  0  0  0  0  0  0  0  0  0  0
   55.5150   28.9840   45.2000 O   0  0  0  0  0  0  0  0  0  0  0  0
   57.8480   33.4260   47.2060 C   0  0  0  0  0  0  0  0  0  0  0  0
   58.9740   32.4140   47.4690 C   0  0  0  0  0  0  0  0  0  0  0  0
   60.7019   30.2949   48.1449 H   0  0  0  0  0  0  0  0  0  0  0  0
   59.8638   30.6178   46.5893 H   0  0  0  0  0  0  0  0  0  0  0  0
   61.5436   29.9816   46.5893 H   0  0  0  0  0  0  0  0  0  0  0  0
   62.1741   32.1487   47.8660 H   0  0  0  0  0  0  0  0  0  0  0  0
   61.7595   32.2983   46.1086 H   0  0  0  0  0  0  0  0  0  0  0  0
   60.1514   35.1366   47.1028 H   0  0  0  0  0  0  0  0  0  0  0  0
   61.3850   34.2695   46.0924 H   0  0  0  0  0  0  0  0  0  0  0  0
   59.4869   34.9769   44.7052 H   0  0  0  0  0  0  0  0  0  0  0  0
   59.5651   33.1728   44.8336 H   0  0  0  0  0  0  0  0  0  0  0  0
   56.1815   33.0745   45.3800 H   0  0  0  0  0  0  0  0  0  0  0  0
   56.7662   34.2633   44.1564 H   0  0  0  0  0  0  0  0  0  0  0  0
   57.8559   32.6344   43.0474 H   0  0  0  0  0  0  0  0  0  0  0  0
   58.7768   32.2115   44.5389 H   0  0  0  0  0  0  0  0  0  0  0  0
   56.0020   31.1350   44.0020 H   0  0  0  0  0  0  0  0  0  0  0  0
   61.3650   28.2430   43.7760 H   0  0  0  0  0  0  0  0  0  0  0  0
   60.5965   26.2306   45.6352 H   0  0  0  0  0  0  0  0  0  0  0  0
   59.2377   24.3387   46.5276 H   0  0  0  0  0  0  0  0  0  0  0  0
   56.7639   24.5645   46.7391 H   0  0  0  0  0  0  0  0  0  0  0  0
   55.6334   26.6755   46.0451 H   0  0  0  0  0  0  0  0  0  0  0  0
   57.8811   34.2025   47.9844 H   0  0  0  0  0  0  0  0  0  0  0  0
   56.8932   32.8800   47.2243 H   0  0  0  0  0  0  0  0  0  0  0  0
   58.8202   31.9607   48.4594 H   0  0  0  0  0  0  0  0  0  0  0  0
   58.9407   31.6539   46.6746 H   0  0  0  0  0  0  0  0  0  0  0  0
  1  2  1  0
  2  3  1  0
  3  4  1  0
  4  5  1  0
  5  6  1  0
  6  7  1  0
  7  8  1  0
  8  9  1  0
  9 10  1  0
 10 11  2  0
 11 12  1  0
 12 13  1  0
 12 14  2  0
 14 15  1  0
 15 16  2  0
 16 17  1  0
 17 18  2  0
 18 19  1  0
 19 20  2  0
 20 21  1  0
  6 22  1  0
 22 23  1  0
 23  3  1  0
 20 10  1  0
 19 14  1  0
  1 24  1  0
  1 25  1  0
  1 26  1  0
  2 27  1  0
  2 28  1  0
  4 29  1  0
  4 30  1  0
  5 31  1  0
  5 32  1  0
  7 33  1  0
  7 34  1  0
  8 35  1  0
  8 36  1  0
  9 37  1  0
 13 38  1  0
 15 39  1  0
 16 40  1  0
 17 41  1  0
 18 42  1  0
 22 43  1  0
 22 44  1  0
 23 45  1  0
 23 46  1  0
M  CHG  3  12   1  20   1  21  -1
M  END
>  <UniqueID>  (19) 
19

>  <SMILES>  (19) 
CCN1CCN(CCNc2n[n+](O)c3ccccc3[n+]2[O-])CC1

>  <Energy>  (19) 
61.40572692815894

>  <Genealogy>  (19) 
CCN1CCN(CCNc2n[n+](O)c3ccccc3[n+]2[O-])CC1 (protonated)
CCN1CCN(CCNc2n[n+](O)c3ccccc3[n+]2[O-])CC1 (3D coordinates assigned)
CCN1CCN(CCNc2n[n+](O)c3ccccc3[n+]2[O-])CC1 (nonaromatic ring conformer: 61.40572692815894 kcal/mol)

>  <smiles>  (19) 
CCN1CCN(CCNc2n[n+]([O-])c3ccccc3[n+]2[O-])CC1

>  <score_type>  (19) 
oracle

>  <origin>  (19) 
adg

>  <m_score__min__energy>  (19) 
-7.3700000000000001

>  <m_primary>  (19) 
energy

$$$$
20:0
     RDKit          3D

 63 65  0  0  0  0  0  0  0  0999 V2000
   59.6550   28.9450   49.2720 C   0  0  0  0  0  0  0  0  0  0  0  0
   60.5050   29.5300   48.1470 C   0  0  0  0  0  0  0  0  0  0  0  0
   59.6490   29.8820   46.9880 N   0  0  0  0  0  0  0  0  0  0  0  0
   60.3900   29.7290   45.7220 C   0  0  0  0  0  0  0  0  0  0  0  0
   58.4090   29.0730   46.9640 C   0  0  0  0  0  0  0  0  0  0  0  0
   57.5460   29.4850   45.7650 C   0  0  0  0  0  0  0  0  0  0  0  0
   57.5190   30.8930   45.6200 O   0  0  0  0  0  0  0  0  0  0  0  0
   57.2010   31.2810   44.2940 C   0  0  0  0  0  0  0  0  0  0  0  0
   58.0870   32.4480   43.8380 C   0  0  0  0  0  0  0  0  0  0  0  0
   58.7640   33.0320   44.9380 O   0  0  0  0  0  0  0  0  0  0  0  0
   57.9020   33.8830   45.6750 C   0  0  0  0  0  0  0  0  0  0  0  0
   57.8760   33.4570   47.1490 C   0  0  0  0  0  0  0  0  0  0  0  0
   58.7620   32.3040   47.3790 N   0  0  0  0  0  0  0  0  0  0  0  0
   59.7450   32.6150   48.4070 C   0  0  0  0  0  0  0  0  0  0  0  0
   61.0280   33.1100   48.0530 C   0  0  0  0  0  0  0  0  0  0  0  0
   61.3620   33.4290   46.7130 C   0  0  0  0  0  0  0  0  0  0  0  0
   62.6490   33.8270   46.3660 C   0  0  0  0  0  0  0  0  0  0  0  0
   63.6370   33.9090   47.3370 C   0  0  0  0  0  0  0  0  0  0  0  0
   63.3300   33.6470   48.6690 C   0  0  0  0  0  0  0  0  0  0  0  0
   62.0120   33.2980   49.0660 C   0  0  0  0  0  0  0  0  0  0  0  0
   61.6860   33.1310   50.3970 N   0  0  0  0  0  0  0  0  0  0  0  0
   62.6070   33.6220   51.4480 C   0  0  0  0  0  0  0  0  0  0  0  0
   60.4790   32.5630   50.7510 C   0  0  0  0  0  0  0  0  0  0  0  0
   60.2250   32.1480   52.0810 C   0  0  0  0  0  0  0  0  0  0  0  0
   58.9770   31.6700   52.4670 C   0  0  0  0  0  0  0  0  0  0  0  0
   57.9320   31.5930   51.5470 C   0  0  0  0  0  0  0  0  0  0  0  0
   56.6310   31.1380   51.9640 N   0  0  0  0  0  0  0  0  0  0  0  0
   55.7560   31.9510   52.3320 O   0  0  0  0  0  0  0  0  0  0  0  0
   56.3320   29.7960   51.9830 O   0  0  0  0  0  0  0  0  0  0  0  0
   58.1770   31.9470   50.2120 C   0  0  0  0  0  0  0  0  0  0  0  0
   59.4590   32.3720   49.7790 C   0  0  0  0  0  0  0  0  0  0  0  0
   60.0804   29.2378   50.2432 H   0  0  0  0  0  0  0  0  0  0  0  0
   58.6268   29.3277   49.1917 H   0  0  0  0  0  0  0  0  0  0  0  0
   59.6452   27.8480   49.1917 H   0  0  0  0  0  0  0  0  0  0  0  0
   61.0152   30.4345   48.5098 H   0  0  0  0  0  0  0  0  0  0  0  0
   61.2466   28.7815   47.8312 H   0  0  0  0  0  0  0  0  0  0  0  0
   61.4460   29.5110   45.9393 H   0  0  0  0  0  0  0  0  0  0  0  0
   59.9567   28.9014   45.1412 H   0  0  0  0  0  0  0  0  0  0  0  0
   60.3199   30.6606   45.1412 H   0  0  0  0  0  0  0  0  0  0  0  0
   58.6691   28.0076   46.8784 H   0  0  0  0  0  0  0  0  0  0  0  0
   57.8457   29.2422   47.8935 H   0  0  0  0  0  0  0  0  0  0  0  0
   57.9628   29.0371   44.8509 H   0  0  0  0  0  0  0  0  0  0  0  0
   56.5186   29.1301   45.9339 H   0  0  0  0  0  0  0  0  0  0  0  0
   57.3578   30.4253   43.6209 H   0  0  0  0  0  0  0  0  0  0  0  0
   56.1502   31.6050   44.2648 H   0  0  0  0  0  0  0  0  0  0  0  0
   58.8285   32.0758   43.1157 H   0  0  0  0  0  0  0  0  0  0  0  0
   57.4473   33.2131   43.3740 H   0  0  0  0  0  0  0  0  0  0  0  0
   58.2638   34.9192   45.6019 H   0  0  0  0  0  0  0  0  0  0  0  0
   56.8852   33.8120   45.2613 H   0  0  0  0  0  0  0  0  0  0  0  0
   58.2111   34.2987   47.7730 H   0  0  0  0  0  0  0  0  0  0  0  0
   56.8480   33.1680   47.4129 H   0  0  0  0  0  0  0  0  0  0  0  0
   58.2080   31.4550   47.6260 H   0  0  0  0  0  0  0  0  0  0  0  0
   59.2270   32.0200   46.4890 H   0  0  0  0  0  0  0  0  0  0  0  0
   60.5893   33.3606   45.9331 H   0  0  0  0  0  0  0  0  0  0  0  0
   62.8838   34.0770   45.3208 H   0  0  0  0  0  0  0  0  0  0  0  0
   64.6643   34.1815   47.0535 H   0  0  0  0  0  0  0  0  0  0  0  0
   64.1232   33.7115   49.4284 H   0  0  0  0  0  0  0  0  0  0  0  0
   62.1856   33.3974   52.4389 H   0  0  0  0  0  0  0  0  0  0  0  0
   63.5822   33.1241   51.3428 H   0  0  0  0  0  0  0  0  0  0  0  0
   62.7372   34.7092   51.3428 H   0  0  0  0  0  0  0  0  0  0  0  0
   61.0327   32.2049   52.8255 H   0  0  0  0  0  0  0  0  0  0  0  0
   58.8131   31.3501   53.5066 H   0  0  0  0  0  0  0  0  0  0  0  0
   57.3548   31.8937   49.4832 H   0  0  0  0  0  0  0  0  0  0  0  0
  1  2  1  0
  2  3  1  0
  3  4  1  0
  3  5  1  0
  5  6  1  0
  6  7  1  0
  7  8  1  0
  8  9  1  0
  9 10  1  0
 10 11  1  0
 11 12  1  0
 12 13  1  0
 13 14  1  0
 14 15  2  0
 15 16  1  0
 16 17  2  0
 17 18  1  0
 18 19  2  0
 19 20  1  0
 20 21  2  0
 21 22  1  0
 21 23  1  0
 23 24  2  0
 24 25  1  0
 25 26  2  0
 26 27  1  0
 27 28  2  0
 27 29  1  0
 26 30  1  0
 30 31  2  0
 31 14  1  0
 20 15  1  0
 31 23  1  0
  1 32  1  0
  1 33  1  0
  1 34  1  0
  2 35  1  0
  2 36  1  0
  4 37  1  0
  4 38  1  0
  4 39  1  0
  5 40  1  0
  5 41  1  0
  6 42  1  0
  6 43  1  0
  8 44  1  0
  8 45  1  0
  9 46  1  0
  9 47  1  0
 11 48  1  0
 11 49  1  0
 12 50  1  0
 12 51  1  0
 13 52  1  0
 13 53  1  0
 16 54  1  0
 17 55  1  0
 18 56  1  0
 19 57  1  0
 22 58  1  0
 22 59  1  0
 22 60  1  0
 24 61  1  0
 25 62  1  0
 30 63  1  0
M  CHG  4  13   1  21   1  27   1  29  -1
M  END
>  <UniqueID>  (20) 
20

>  <SMILES>  (20) 
CCN(C)CCOCCOCC[NH2+]c1c2ccccc2[n+](C)c2ccc([N+](=O)[O-])cc12

>  <Energy>  (20) 
96.81644713816021

>  <Genealogy>  (20) 
CCN(C)CCOCCOCC[NH2+]c1c2ccccc2[n+](C)c2ccc([N+](=O)[O-])cc12 (protonated)
CCN(C)CCOCCOCC[NH2+]c1c2ccccc2[n+](C)c2ccc([N+](=O)[O-])cc12 (3D coordinates assigned)
CCN(C)CCOCCOCC[NH2+]c1c2ccccc2[n+](C)c2ccc([N+](=O)[O-])cc12 (optimized conformer: 96.81644713816021 kcal/mol)

>  <smiles>  (20) 
CCN(C)CCOCCOCCNc1c2ccccc2[n+](C)c2ccc([N+](=O)[O-])cc12

>  <score_type>  (20) 
oracle

>  <origin>  (20) 
adg

>  <m_score__min__energy>  (20) 
-3.8599999999999999

>  <m_primary>  (20) 
energy

$$$$
21:0
     RDKit          3D

 29 30  0  0  0  0  0  0  0  0999 V2000
   60.2910   26.9220   46.2430 C   0  0  0  0  0  0  0  0  0  0  0  0
   58.8050   26.7140   46.2010 C   0  0  0  0  0  0  0  0  0  0  0  0
   58.2580   25.4680   46.5390 C   0  0  0  0  0  0  0  0  0  0  0  0
   56.8810   25.2570   46.4450 C   0  0  0  0  0  0  0  0  0  0  0  0
   56.0400   26.2860   46.0110 C   0  0  0  0  0  0  0  0  0  0  0  0
   54.7040   26.0650   45.9210 F   0  0  0  0  0  0  0  0  0  0  0  0
   56.5700   27.5410   45.6770 C   0  0  0  0  0  0  0  0  0  0  0  0
   55.6790   28.5650   45.2080 N   0  0  0  0  0  0  0  0  0  0  0  0
   56.0050   29.6290   44.3090 C   0  0  0  0  0  0  0  0  0  0  0  0
   55.1360   30.0870   43.5190 O   0  0  0  0  0  0  0  0  0  0  0  0
   57.3570   30.0930   44.2480 N   0  0  0  0  0  0  0  0  0  0  0  0
   57.8680   31.3140   44.8070 C   0  0  0  0  0  0  0  0  0  0  0  0
   58.1710   31.4260   46.1770 C   0  0  0  0  0  0  0  0  0  0  0  0
   58.6900   32.6190   46.6890 C   0  0  0  0  0  0  0  0  0  0  0  0
   58.9240   33.7050   45.8400 C   0  0  0  0  0  0  0  0  0  0  0  0
   59.6340   35.3320   46.5430 Br  0  0  0  0  0  0  0  0  0  0  0  0
   58.6480   33.5930   44.4740 C   0  0  0  0  0  0  0  0  0  0  0  0
   58.1290   32.4010   43.9540 C   0  0  0  0  0  0  0  0  0  0  0  0
   57.7710   32.2890   42.0770 Br  0  0  0  0  0  0  0  0  0  0  0  0
   57.9610   27.7410   45.7490 C   0  0  0  0  0  0  0  0  0  0  0  0
   60.6252   26.9688   47.2899 H   0  0  0  0  0  0  0  0  0  0  0  0
   60.7929   26.0853   45.7349 H   0  0  0  0  0  0  0  0  0  0  0  0
   60.5439   27.8643   45.7349 H   0  0  0  0  0  0  0  0  0  0  0  0
   58.9156   24.6544   46.8792 H   0  0  0  0  0  0  0  0  0  0  0  0
   56.4566   24.2782   46.7132 H   0  0  0  0  0  0  0  0  0  0  0  0
   57.9987   30.5713   46.8477 H   0  0  0  0  0  0  0  0  0  0  0  0
   58.9148   32.7034   47.7625 H   0  0  0  0  0  0  0  0  0  0  0  0
   58.8394   34.4449   43.8049 H   0  0  0  0  0  0  0  0  0  0  0  0
   58.3900   28.7085   45.4491 H   0  0  0  0  0  0  0  0  0  0  0  0
  1  2  1  0
  2  3  2  0
  3  4  1  0
  4  5  2  0
  5  6  1  0
  5  7  1  0
  7  8  1  0
  8  9  1  0
  9 10  2  0
  9 11  1  0
 11 12  1  0
 12 13  2  0
 13 14  1  0
 14 15  2  0
 15 16  1  0
 15 17  1  0
 17 18  2  0
 18 19  1  0
  7 20  2  0
 20  2  1  0
 18 12  1  0
  1 21  1  0
  1 22  1  0
  1 23  1  0
  3 24  1  0
  4 25  1  0
 13 26  1  0
 14 27  1  0
 17 28  1  0
 20 29  1  0
M  CHG  2   8  -1  11  -1
M  END
>  <UniqueID>  (21) 
21

>  <SMILES>  (21) 
Cc1ccc(F)c([N-]C(=O)[N-]c2ccc(Br)cc2Br)c1

>  <Energy>  (21) 
36.12791364801139

>  <Genealogy>  (21) 
Cc1ccc(F)c([N-]C(=O)[N-]c2ccc(Br)cc2Br)c1 (protonated)
Cc1ccc(F)c([N-]C(=O)[N-]c2ccc(Br)cc2Br)c1 (3D coordinates assigned)
Cc1ccc(F)c([N-]C(=O)[N-]c2ccc(Br)cc2Br)c1 (optimized conformer: 36.12791364801139 kcal/mol)

>  <smiles>  (21) 
Cc1ccc(F)c(NC(=O)Nc2ccc(Br)cc2Br)c1

>  <score_type>  (21) 
oracle

>  <origin>  (21) 
adg

>  <m_score__min__energy>  (21) 
-11.08

>  <m_primary>  (21) 
energy

$$$$
22:0
     RDKit          3D

 44 47  0  0  0  0  0  0  0  0999 V2000
   66.5620   31.0590   50.9070 C   0  0  0  0  0  0  0  0  0  0  0  0
   66.8920   32.4850   50.4560 C   0  0  0  0  0  0  0  0  0  0  0  0
   65.7980   33.0890   49.6720 N   0  0  0  0  0  0  0  0  0  0  0  0
   64.4820   32.9710   50.3160 C   0  0  0  0  0  0  0  0  0  0  0  0
   63.3500   33.1210   49.3290 C   0  0  0  0  0  0  0  0  0  0  0  0
   62.1360   33.7040   49.7220 C   0  0  0  0  0  0  0  0  0  0  0  0
   61.0790   33.8130   48.8150 C   0  0  0  0  0  0  0  0  0  0  0  0
   61.2120   33.3320   47.4980 C   0  0  0  0  0  0  0  0  0  0  0  0
   60.1020   33.4420   46.5170 C   0  0  0  0  0  0  0  0  0  0  0  0
   59.5670   34.6850   46.1370 C   0  0  0  0  0  0  0  0  0  0  0  0
   58.5140   34.7300   45.2250 C   0  0  0  0  0  0  0  0  0  0  0  0
   57.9970   33.5490   44.6950 C   0  0  0  0  0  0  0  0  0  0  0  0
   58.5500   32.3180   45.0820 C   0  0  0  0  0  0  0  0  0  0  0  0
   58.0240   31.0330   44.5670 C   0  0  0  0  0  0  0  0  0  0  0  0
   56.7390   30.9640   43.9970 C   0  0  0  0  0  0  0  0  0  0  0  0
   56.2650   29.7260   43.5230 C   0  0  0  0  0  0  0  0  0  0  0  0
   57.0360   28.6040   43.6250 N   0  0  0  0  0  0  0  0  0  0  0  0
   58.2620   28.7050   44.1940 C   0  0  0  0  0  0  0  0  0  0  0  0
   59.1120   27.6870   44.4100 N   0  0  0  0  0  0  0  0  0  0  0  0
   60.1330   28.3300   45.0340 C   0  0  0  0  0  0  0  0  0  0  0  0
   59.9120   29.6570   45.1900 N   0  0  0  0  0  0  0  0  0  0  0  0
   58.7310   29.8700   44.6430 N   0  0  0  0  0  0  0  0  0  0  0  0
   59.5690   32.3050   45.9860 N   0  0  0  0  0  0  0  0  0  0  0  0
   62.4360   32.7590   47.1080 C   0  0  0  0  0  0  0  0  0  0  0  0
   63.4920   32.6500   48.0170 C   0  0  0  0  0  0  0  0  0  0  0  0
   66.5518   31.0151   52.0061 H   0  0  0  0  0  0  0  0  0  0  0  0
   65.5735   30.7713   50.5194 H   0  0  0  0  0  0  0  0  0  0  0  0
   67.3236   30.3664   50.5194 H   0  0  0  0  0  0  0  0  0  0  0  0
   67.0739   33.1049   51.3463 H   0  0  0  0  0  0  0  0  0  0  0  0
   67.7826   32.4378   49.8121 H   0  0  0  0  0  0  0  0  0  0  0  0
   65.7610   32.7050   48.6980 H   0  0  0  0  0  0  0  0  0  0  0  0
   64.4080   31.9824   50.7927 H   0  0  0  0  0  0  0  0  0  0  0  0
   64.3942   33.7795   51.0567 H   0  0  0  0  0  0  0  0  0  0  0  0
   62.0157   34.0773   50.7497 H   0  0  0  0  0  0  0  0  0  0  0  0
   60.1343   34.2787   49.1324 H   0  0  0  0  0  0  0  0  0  0  0  0
   59.9765   35.6158   46.5565 H   0  0  0  0  0  0  0  0  0  0  0  0
   58.0902   35.6991   44.9230 H   0  0  0  0  0  0  0  0  0  0  0  0
   57.1624   33.5813   43.9792 H   0  0  0  0  0  0  0  0  0  0  0  0
   56.1132   31.8656   43.9228 H   0  0  0  0  0  0  0  0  0  0  0  0
   55.2660   29.6623   43.0671 H   0  0  0  0  0  0  0  0  0  0  0  0
   56.6790   27.6830   43.2840 H   0  0  0  0  0  0  0  0  0  0  0  0
   61.0471   27.8239   45.3779 H   0  0  0  0  0  0  0  0  0  0  0  0
   62.5632   32.3934   46.0784 H   0  0  0  0  0  0  0  0  0  0  0  0
   64.4405   32.1916   47.7005 H   0  0  0  0  0  0  0  0  0  0  0  0
  1  2  1  0
  2  3  1  0
  3  4  1  0
  4  5  1  0
  5  6  2  0
  6  7  1  0
  7  8  2  0
  8  9  1  0
  9 10  2  0
 10 11  1  0
 11 12  2  0
 12 13  1  0
 13 14  1  0
 14 15  2  0
 15 16  1  0
 16 17  2  0
 17 18  1  0
 18 19  2  0
 19 20  1  0
 20 21  2  0
 21 22  1  0
 13 23  2  0
  8 24  1  0
 24 25  2  0
 25  5  1  0
 23  9  1  0
 22 14  1  0
 22 18  1  0
  1 26  1  0
  1 27  1  0
  1 28  1  0
  2 29  1  0
  2 30  1  0
  3 31  1  0
  4 32  1  0
  4 33  1  0
  6 34  1  0
  7 35  1  0
 10 36  1  0
 11 37  1  0
 12 38  1  0
 15 39  1  0
 16 40  1  0
 17 41  1  0
 20 42  1  0
 24 43  1  0
 25 44  1  0
M  CHG  1  17   1
M  END
>  <UniqueID>  (22) 
22

>  <SMILES>  (22) 
CCNCc1ccc(-c2cccc(-c3cc[nH+]c4ncnn34)n2)cc1

>  <Energy>  (22) 
95.55734480067188

>  <Genealogy>  (22) 
CCNCc1ccc(-c2cccc(-c3cc[nH+]c4ncnn34)n2)cc1 (protonated)
CCNCc1ccc(-c2cccc(-c3cc[nH+]c4ncnn34)n2)cc1 (3D coordinates assigned)
CCNCc1ccc(-c2cccc(-c3cc[nH+]c4ncnn34)n2)cc1 (optimized conformer: 95.55734480067188 kcal/mol)

>  <smiles>  (22) 
CCNCc1ccc(-c2cccc(-c3ccnc4ncnn34)n2)cc1

>  <score_type>  (22) 
oracle

>  <origin>  (22) 
adg

>  <m_score__min__energy>  (22) 
-7.4299999999999997

>  <m_primary>  (22) 
energy

$$$$
23:0
     RDKit          3D

 65 68  0  0  0  0  0  0  0  0999 V2000
   62.4340   33.1160   47.2020 C   0  0  0  0  0  0  0  0  0  0  0  0
   62.5880   33.0590   48.7280 C   0  0  0  0  0  0  0  0  0  0  0  0
   61.3940   32.5370   49.4350 N   0  0  0  0  0  0  0  0  0  0  0  0
   61.7080   31.9650   50.7670 C   0  0  0  0  0  0  0  0  0  0  0  0
   62.1430   30.5110   50.6120 C   0  0  0  0  0  0  0  0  0  0  0  0
   61.6690   30.0080   49.3800 O   0  0  0  0  0  0  0  0  0  0  0  0
   60.5360   29.1960   49.6030 C   0  0  0  0  0  0  0  0  0  0  0  0
   59.3840   29.6840   48.7280 C   0  0  0  0  0  0  0  0  0  0  0  0
   59.8750   30.5420   47.6490 N   0  0  0  0  0  0  0  0  0  0  0  0
   59.1430   30.6920   46.4200 C   0  0  0  0  0  0  0  0  0  0  0  0
   58.6970   31.9630   46.0130 C   0  0  0  0  0  0  0  0  0  0  0  0
   58.9730   33.1110   46.7890 C   0  0  0  0  0  0  0  0  0  0  0  0
   58.4840   34.3580   46.4140 C   0  0  0  0  0  0  0  0  0  0  0  0
   57.6820   34.4820   45.2880 C   0  0  0  0  0  0  0  0  0  0  0  0
   57.4010   33.3660   44.5010 C   0  0  0  0  0  0  0  0  0  0  0  0
   57.9420   32.0910   44.8150 C   0  0  0  0  0  0  0  0  0  0  0  0
   57.7370   30.9930   44.0000 N   0  0  0  0  0  0  0  0  0  0  0  0
   57.2080   31.1760   42.6290 C   0  0  0  0  0  0  0  0  0  0  0  0
   58.0720   29.7280   44.4450 C   0  0  0  0  0  0  0  0  0  0  0  0
   57.6800   28.5590   43.7390 C   0  0  0  0  0  0  0  0  0  0  0  0
   58.0970   27.2930   44.1510 C   0  0  0  0  0  0  0  0  0  0  0  0
   58.9050   27.1540   45.2730 C   0  0  0  0  0  0  0  0  0  0  0  0
   59.2660   28.2770   46.0150 C   0  0  0  0  0  0  0  0  0  0  0  0
   58.8260   29.5650   45.6390 C   0  0  0  0  0  0  0  0  0  0  0  0
   60.2730   33.5010   49.4660 C   0  0  0  0  0  0  0  0  0  0  0  0
   59.3490   33.1940   50.6140 C   0  0  0  0  0  0  0  0  0  0  0  0
   59.2790   34.0490   51.7250 C   0  0  0  0  0  0  0  0  0  0  0  0
   58.4260   33.7520   52.7890 C   0  0  0  0  0  0  0  0  0  0  0  0
   57.6390   32.5970   52.7580 C   0  0  0  0  0  0  0  0  0  0  0  0
   57.6980   31.7250   51.6560 C   0  0  0  0  0  0  0  0  0  0  0  0
   56.8830   30.5380   51.6260 N   0  0  0  0  0  0  0  0  0  0  0  0
   57.4060   29.4050   51.6180 O   0  0  0  0  0  0  0  0  0  0  0  0
   55.5090   30.6370   51.5830 O   0  0  0  0  0  0  0  0  0  0  0  0
   58.5580   32.0350   50.5860 C   0  0  0  0  0  0  0  0  0  0  0  0
   61.4302   33.4876   46.9484 H   0  0  0  0  0  0  0  0  0  0  0  0
   63.1925   33.7929   46.7820 H   0  0  0  0  0  0  0  0  0  0  0  0
   62.5689   32.1084   46.7820 H   0  0  0  0  0  0  0  0  0  0  0  0
   63.4426   32.4084   48.9654 H   0  0  0  0  0  0  0  0  0  0  0  0
   62.7350   34.0934   49.0721 H   0  0  0  0  0  0  0  0  0  0  0  0
   62.5213   32.5426   51.2306 H   0  0  0  0  0  0  0  0  0  0  0  0
   60.8125   32.0116   51.4040 H   0  0  0  0  0  0  0  0  0  0  0  0
   63.2412   30.4522   50.6342 H   0  0  0  0  0  0  0  0  0  0  0  0
   61.7278   29.9134   51.4369 H   0  0  0  0  0  0  0  0  0  0  0  0
   60.7754   28.1533   49.3471 H   0  0  0  0  0  0  0  0  0  0  0  0
   60.2441   29.2543   50.6620 H   0  0  0  0  0  0  0  0  0  0  0  0
   58.8701   28.8149   48.2915 H   0  0  0  0  0  0  0  0  0  0  0  0
   58.6907   30.2666   49.3524 H   0  0  0  0  0  0  0  0  0  0  0  0
   60.6430   31.2190   47.8640 H   0  0  0  0  0  0  0  0  0  0  0  0
   59.5817   33.0175   47.7004 H   0  0  0  0  0  0  0  0  0  0  0  0
   58.7334   35.2476   47.0110 H   0  0  0  0  0  0  0  0  0  0  0  0
   57.2669   35.4636   45.0158 H   0  0  0  0  0  0  0  0  0  0  0  0
   56.7491   33.4749   43.6217 H   0  0  0  0  0  0  0  0  0  0  0  0
   56.1696   31.5352   42.6816 H   0  0  0  0  0  0  0  0  0  0  0  0
   57.8243   31.9132   42.0935 H   0  0  0  0  0  0  0  0  0  0  0  0
   57.2371   30.2156   42.0935 H   0  0  0  0  0  0  0  0  0  0  0  0
   57.0364   28.6538   42.8520 H   0  0  0  0  0  0  0  0  0  0  0  0
   57.7853   26.4022   43.5860 H   0  0  0  0  0  0  0  0  0  0  0  0
   59.2596   26.1576   45.5754 H   0  0  0  0  0  0  0  0  0  0  0  0
   59.9017   28.1586   46.9048 H   0  0  0  0  0  0  0  0  0  0  0  0
   60.6732   34.5187   49.5849 H   0  0  0  0  0  0  0  0  0  0  0  0
   59.7099   33.4241   48.5242 H   0  0  0  0  0  0  0  0  0  0  0  0
   59.8991   34.9570   51.7572 H   0  0  0  0  0  0  0  0  0  0  0  0
   58.3728   34.4287   53.6546 H   0  0  0  0  0  0  0  0  0  0  0  0
   56.9696   32.3688   53.6005 H   0  0  0  0  0  0  0  0  0  0  0  0
   58.6108   31.3614   49.7180 H   0  0  0  0  0  0  0  0  0  0  0  0
  1  2  1  0
  2  3  1  0
  3  4  1  0
  4  5  1  0
  5  6  1  0
  6  7  1  0
  7  8  1  0
  8  9  1  0
  9 10  1  0
 10 11  1  0
 11 12  2  0
 12 13  1  0
 13 14  2  0
 14 15  1  0
 15 16  2  0
 16 17  1  0
 17 18  1  0
 17 19  2  0
 19 20  1  0
 20 21  2  0
 21 22  1  0
 22 23  2  0
 23 24  1  0
  3 25  1  0
 25 26  1  0
 26 27  2  0
 27 28  1  0
 28 29  2  0
 29 30  1  0
 30 31  1  0
 31 32  2  0
 31 33  1  0
 30 34  2  0
 24 10  2  0
 34 26  1  0
 16 11  1  0
 24 19  1  0
  1 35  1  0
  1 36  1  0
  1 37  1  0
  2 38  1  0
  2 39  1  0
  4 40  1  0
  4 41  1  0
  5 42  1  0
  5 43  1  0
  7 44  1  0
  7 45  1  0
  8 46  1  0
  8 47  1  0
  9 48  1  0
 12 49  1  0
 13 50  1  0
 14 51  1  0
 15 52  1  0
 18 53  1  0
 18 54  1  0
 18 55  1  0
 20 56  1  0
 21 57  1  0
 22 58  1  0
 23 59  1  0
 25 60  1  0
 25 61  1  0
 27 62  1  0
 28 63  1  0
 29 64  1  0
 34 65  1  0
M  CHG  3  17   1  31   1  33  -1
M  END
>  <UniqueID>  (23) 
23

>  <SMILES>  (23) 
CCN(CCOCCNc1c2ccccc2[n+](C)c2ccccc12)Cc1cccc([N+](=O)[O-])c1

>  <Energy>  (23) 
93.33799314634378

>  <Genealogy>  (23) 
CCN(CCOCCNc1c2ccccc2[n+](C)c2ccccc12)Cc1cccc([N+](=O)[O-])c1 (3D coordinates assigned)
CCN(CCOCCNc1c2ccccc2[n+](C)c2ccccc12)Cc1cccc([N+](=O)[O-])c1 (optimized conformer: 93.33799314634378 kcal/mol)

>  <smiles>  (23) 
CCN(CCOCCNc1c2ccccc2[n+](C)c2ccccc12)Cc1cccc([N+](=O)[O-])c1

>  <score_type>  (23) 
oracle

>  <origin>  (23) 
adg

>  <m_score__min__energy>  (23) 
-8.4800000000000004

>  <m_primary>  (23) 
energy

$$$$
24:0
     RDKit          3D

 53 55  0  0  0  0  0  0  0  0999 V2000
   62.2920   33.8380   46.4230 C   0  0  0  0  0  0  0  0  0  0  0  0
   63.7640   33.4330   46.5360 C   0  0  0  0  0  0  0  0  0  0  0  0
   64.1600   33.1190   47.9180 N   0  0  0  0  0  0  0  0  0  0  0  0
   63.0940   33.4210   48.8840 C   0  0  0  0  0  0  0  0  0  0  0  0
   62.8190   32.1980   49.7610 C   0  0  0  0  0  0  0  0  0  0  0  0
   62.7850   31.0180   48.9800 O   0  0  0  0  0  0  0  0  0  0  0  0
   61.6780   31.0140   48.0960 C   0  0  0  0  0  0  0  0  0  0  0  0
   60.6710   29.9400   48.5210 C   0  0  0  0  0  0  0  0  0  0  0  0
   59.2440   30.4910   48.6510 C   0  0  0  0  0  0  0  0  0  0  0  0
   58.8290   31.1950   47.4310 N   0  0  0  0  0  0  0  0  0  0  0  0
   58.9480   32.5220   47.1640 C   0  0  0  0  0  0  0  0  0  0  0  0
   58.4560   32.8120   45.9010 C   0  0  0  0  0  0  0  0  0  0  0  0
   57.9800   31.6230   45.3950 C   0  0  0  0  0  0  0  0  0  0  0  0
   57.3610   31.3290   44.1810 C   0  0  0  0  0  0  0  0  0  0  0  0
   57.0020   29.9870   43.9280 C   0  0  0  0  0  0  0  0  0  0  0  0
   56.3000   29.6290   42.6530 C   0  0  0  0  0  0  0  0  0  0  0  0
   57.2530   28.9940   44.9060 C   0  0  0  0  0  0  0  0  0  0  0  0
   57.8760   29.3240   46.1230 C   0  0  0  0  0  0  0  0  0  0  0  0
   58.2280   30.6580   46.3430 C   0  0  0  0  0  0  0  0  0  0  0  0
   58.3980   34.1860   45.3070 C   0  0  0  0  0  0  0  0  0  0  0  0
   59.3800   35.1240   46.0330 C   0  0  0  0  0  0  0  0  0  0  0  0
   59.2810   34.9740   47.5640 C   0  0  0  0  0  0  0  0  0  0  0  0
   59.6380   33.5470   48.0210 C   0  0  0  0  0  0  0  0  0  0  0  0
   61.8656   33.9553   47.4302 H   0  0  0  0  0  0  0  0  0  0  0  0
   62.2146   34.7908   45.8788 H   0  0  0  0  0  0  0  0  0  0  0  0
   61.7381   33.0589   45.8788 H   0  0  0  0  0  0  0  0  0  0  0  0
   63.9339   32.5444   45.9103 H   0  0  0  0  0  0  0  0  0  0  0  0
   64.3712   34.2870   46.2013 H   0  0  0  0  0  0  0  0  0  0  0  0
   64.4060   32.1030   47.9870 H   0  0  0  0  0  0  0  0  0  0  0  0
   63.4067   34.2622   49.5201 H   0  0  0  0  0  0  0  0  0  0  0  0
   62.1769   33.6864   48.3376 H   0  0  0  0  0  0  0  0  0  0  0  0
   63.6146   32.1086   50.5153 H   0  0  0  0  0  0  0  0  0  0  0  0
   61.8418   32.3264   50.2494 H   0  0  0  0  0  0  0  0  0  0  0  0
   61.1904   31.9997   48.1186 H   0  0  0  0  0  0  0  0  0  0  0  0
   62.0306   30.7951   47.0773 H   0  0  0  0  0  0  0  0  0  0  0  0
   60.6722   29.1377   47.7685 H   0  0  0  0  0  0  0  0  0  0  0  0
   60.9769   29.5674   49.5097 H   0  0  0  0  0  0  0  0  0  0  0  0
   58.5529   29.6552   48.8347 H   0  0  0  0  0  0  0  0  0  0  0  0
   59.2232   31.2053   49.4873 H   0  0  0  0  0  0  0  0  0  0  0  0
   57.1584   32.1186   43.4425 H   0  0  0  0  0  0  0  0  0  0  0  0
   55.3424   29.1406   42.8863 H   0  0  0  0  0  0  0  0  0  0  0  0
   56.1132   30.5419   42.0685 H   0  0  0  0  0  0  0  0  0  0  0  0
   56.9293   28.9417   42.0685 H   0  0  0  0  0  0  0  0  0  0  0  0
   56.9573   27.9525   44.7116 H   0  0  0  0  0  0  0  0  0  0  0  0
   58.0804   28.5531   46.8806 H   0  0  0  0  0  0  0  0  0  0  0  0
   58.6675   34.1325   44.2419 H   0  0  0  0  0  0  0  0  0  0  0  0
   57.3774   34.5811   45.4181 H   0  0  0  0  0  0  0  0  0  0  0  0
   60.4052   34.8820   45.7161 H   0  0  0  0  0  0  0  0  0  0  0  0
   59.1225   36.1610   45.7715 H   0  0  0  0  0  0  0  0  0  0  0  0
   59.9751   35.6840   48.0374 H   0  0  0  0  0  0  0  0  0  0  0  0
   58.2424   35.1798   47.8622 H   0  0  0  0  0  0  0  0  0  0  0  0
   60.7263   33.4061   47.9456 H   0  0  0  0  0  0  0  0  0  0  0  0
   59.3056   33.4171   49.0615 H   0  0  0  0  0  0  0  0  0  0  0  0
  1  2  1  0
  2  3  1  0
  3  4  1  0
  4  5  1  0
  5  6  1  0
  6  7  1  0
  7  8  1  0
  8  9  1  0
  9 10  1  0
 10 11  1  0
 11 12  2  0
 12 13  1  0
 13 14  2  0
 14 15  1  0
 15 16  1  0
 15 17  2  0
 17 18  1  0
 18 19  2  0
 12 20  1  0
 20 21  1  0
 21 22  1  0
 22 23  1  0
 19 10  1  0
 23 11  1  0
 19 13  1  0
  1 24  1  0
  1 25  1  0
  1 26  1  0
  2 27  1  0
  2 28  1  0
  3 29  1  0
  4 30  1  0
  4 31  1  0
  5 32  1  0
  5 33  1  0
  7 34  1  0
  7 35  1  0
  8 36  1  0
  8 37  1  0
  9 38  1  0
  9 39  1  0
 14 40  1  0
 16 41  1  0
 16 42  1  0
 16 43  1  0
 17 44  1  0
 18 45  1  0
 20 46  1  0
 20 47  1  0
 21 48  1  0
 21 49  1  0
 22 50  1  0
 22 51  1  0
 23 52  1  0
 23 53  1  0
M  END
>  <UniqueID>  (24) 
24

>  <SMILES>  (24) 
CCNCCOCCCn1c2c(c3cc(C)ccc31)CCCC2

>  <Energy>  (24) 
79.97369163167099

>  <Genealogy>  (24) 
CCNCCOCCCn1c2c(c3cc(C)ccc31)CCCC2 (3D coordinates assigned)
CCNCCOCCCn1c2c(c3cc(C)ccc31)CCCC2 (nonaromatic ring conformer: 79.97369163167099 kcal/mol)

>  <smiles>  (24) 
CCNCCOCCCn1c2c(c3cc(C)ccc31)CCCC2

>  <score_type>  (24) 
oracle

>  <origin>  (24) 
adg

>  <m_score__min__energy>  (24) 
-7.4199999999999999

>  <m_primary>  (24) 
energy

$$$$
25:0
     RDKit          3D

 43 44  0  0  0  0  0  0  0  0999 V2000
   63.0280   33.6940   46.7070 C   0  0  0  0  0  0  0  0  0  0  0  0
   61.5610   33.7920   47.0160 C   0  0  0  0  0  0  0  0  0  0  0  0
   61.1270   34.1130   48.3120 C   0  0  0  0  0  0  0  0  0  0  0  0
   59.7610   34.1530   48.6060 C   0  0  0  0  0  0  0  0  0  0  0  0
   58.8200   33.8650   47.6140 C   0  0  0  0  0  0  0  0  0  0  0  0
   59.2340   33.5340   46.3100 C   0  0  0  0  0  0  0  0  0  0  0  0
   58.2610   33.2540   45.2770 N   0  0  0  0  0  0  0  0  0  0  0  0
   57.1230   34.1590   45.0840 C   0  0  0  0  0  0  0  0  0  0  0  0
   58.3660   32.0330   44.4610 C   0  0  0  0  0  0  0  0  0  0  0  0
   58.0420   30.8240   45.2970 C   0  0  0  0  0  0  0  0  0  0  0  0
   56.8870   30.3230   45.2090 O   0  0  0  0  0  0  0  0  0  0  0  0
   59.0080   30.2460   46.1980 N   0  0  0  0  0  0  0  0  0  0  0  0
   58.5410   29.7440   47.5070 C   0  0  0  0  0  0  0  0  0  0  0  0
   58.6070   28.2080   47.6220 C   0  0  0  0  0  0  0  0  0  0  0  0
   58.6560   27.4450   46.2890 C   0  0  0  0  0  0  0  0  0  0  0  0
   60.0510   27.3920   45.6470 C   0  0  0  0  0  0  0  0  0  0  0  0
   60.4710   28.6600   44.8720 C   0  0  0  0  0  0  0  0  0  0  0  0
   60.3680   29.9650   45.6860 C   0  0  0  0  0  0  0  0  0  0  0  0
   60.6130   33.4930   46.0240 C   0  0  0  0  0  0  0  0  0  0  0  0
   63.5989   33.6559   47.6465 H   0  0  0  0  0  0  0  0  0  0  0  0
   63.2198   32.7810   46.1241 H   0  0  0  0  0  0  0  0  0  0  0  0
   63.3395   34.5733   46.1241 H   0  0  0  0  0  0  0  0  0  0  0  0
   61.8639   34.3336   49.0983 H   0  0  0  0  0  0  0  0  0  0  0  0
   59.4259   34.4119   49.6212 H   0  0  0  0  0  0  0  0  0  0  0  0
   57.7470   33.8972   47.8540 H   0  0  0  0  0  0  0  0  0  0  0  0
   56.7317   34.4702   46.0638 H   0  0  0  0  0  0  0  0  0  0  0  0
   57.4509   35.0457   44.5217 H   0  0  0  0  0  0  0  0  0  0  0  0
   56.3329   33.6398   44.5217 H   0  0  0  0  0  0  0  0  0  0  0  0
   57.6587   32.0948   43.6208 H   0  0  0  0  0  0  0  0  0  0  0  0
   59.3934   31.9421   44.0788 H   0  0  0  0  0  0  0  0  0  0  0  0
   59.1710   30.1818   48.2953 H   0  0  0  0  0  0  0  0  0  0  0  0
   57.4861   30.0368   47.6142 H   0  0  0  0  0  0  0  0  0  0  0  0
   59.5107   27.9497   48.1935 H   0  0  0  0  0  0  0  0  0  0  0  0
   57.6701   27.9018   48.1103 H   0  0  0  0  0  0  0  0  0  0  0  0
   58.3192   26.4134   46.4689 H   0  0  0  0  0  0  0  0  0  0  0  0
   58.0050   27.9886   45.5884 H   0  0  0  0  0  0  0  0  0  0  0  0
   60.7869   27.2238   46.4471 H   0  0  0  0  0  0  0  0  0  0  0  0
   60.0129   26.5812   44.9046 H   0  0  0  0  0  0  0  0  0  0  0  0
   61.5155   28.5366   44.5499 H   0  0  0  0  0  0  0  0  0  0  0  0
   59.7720   28.7592   44.0285 H   0  0  0  0  0  0  0  0  0  0  0  0
   61.0531   29.8934   46.5436 H   0  0  0  0  0  0  0  0  0  0  0  0
   60.6294   30.7881   45.0047 H   0  0  0  0  0  0  0  0  0  0  0  0
   60.9508   33.2238   45.0124 H   0  0  0  0  0  0  0  0  0  0  0  0
  1  2  1  0
  2  3  2  0
  3  4  1  0
  4  5  2  0
  5  6  1  0
  6  7  1  0
  7  8  1  0
  7  9  1  0
  9 10  1  0
 10 11  2  0
 10 12  1  0
 12 13  1  0
 13 14  1  0
 14 15  1  0
 15 16  1  0
 16 17  1  0
 17 18  1  0
  6 19  2  0
 19  2  1  0
 18 12  1  0
  1 20  1  0
  1 21  1  0
  1 22  1  0
  3 23  1  0
  4 24  1  0
  5 25  1  0
  8 26  1  0
  8 27  1  0
  8 28  1  0
  9 29  1  0
  9 30  1  0
 13 31  1  0
 13 32  1  0
 14 33  1  0
 14 34  1  0
 15 35  1  0
 15 36  1  0
 16 37  1  0
 16 38  1  0
 17 39  1  0
 17 40  1  0
 18 41  1  0
 18 42  1  0
 19 43  1  0
M  END
>  <UniqueID>  (25) 
25

>  <SMILES>  (25) 
Cc1cccc(N(C)CC(=O)N2CCCCCC2)c1

>  <Energy>  (25) 
48.67256861695291

>  <Genealogy>  (25) 
Cc1cccc(N(C)CC(=O)N2CCCCCC2)c1 (3D coordinates assigned)
Cc1cccc(N(C)CC(=O)N2CCCCCC2)c1 (nonaromatic ring conformer: 48.67256861695291 kcal/mol)

>  <smiles>  (25) 
Cc1cccc(N(C)CC(=O)N2CCCCCC2)c1

>  <score_type>  (25) 
oracle

>  <origin>  (25) 
adg

>  <m_score__min__energy>  (25) 
-5.1900000000000004

>  <m_primary>  (25) 
energy

$$$$
