0:0
     RDKit          3D

 56 58  0  0  0  0  0  0  0  0999 V2000
   59.4000   28.9720   48.4470 C   0  0  0  0  0  0  0  0  0  0  0  0
   58.2220   28.5580   47.7580 O   0  0  0  0  0  0  0  0  0  0  0  0
   58.1970   28.0810   46.4330 C   0  0  0  0  0  0  0  0  0  0  0  0
   58.1210   26.7050   46.1390 C   0  0  0  0  0  0  0  0  0  0  0  0
   58.0920   26.2650   44.8190 C   0  0  0  0  0  0  0  0  0  0  0  0
   58.1640   27.1810   43.7650 C   0  0  0  0  0  0  0  0  0  0  0  0
   58.1160   26.7000   42.3480 C   0  0  0  0  0  0  0  0  0  0  0  0
   58.2260   28.5530   44.0480 C   0  0  0  0  0  0  0  0  0  0  0  0
   58.2300   29.0120   45.3770 C   0  0  0  0  0  0  0  0  0  0  0  0
   58.3260   30.4170   45.6660 N   0  0  0  0  0  0  0  0  0  0  0  0
   57.4790   31.4170   45.0760 C   0  0  0  0  0  0  0  0  0  0  0  0
   56.4060   31.0900   44.5050 O   0  0  0  0  0  0  0  0  0  0  0  0
   57.8220   32.8670   45.2400 C   0  0  0  0  0  0  0  0  0  0  0  0
   58.7720   33.0350   46.3590 N   0  0  0  0  0  0  0  0  0  0  0  0
   58.1420   32.7070   47.6460 C   0  0  0  0  0  0  0  0  0  0  0  0
   59.2240   32.5650   48.7120 C   0  0  0  0  0  0  0  0  0  0  0  0
   60.2760   33.5690   48.5280 N   0  0  0  0  0  0  0  0  0  0  0  0
   61.4050   33.5420   49.4110 C   0  0  0  0  0  0  0  0  0  0  0  0
   61.2060   33.7920   50.7750 C   0  0  0  0  0  0  0  0  0  0  0  0
   62.2850   33.7850   51.6590 C   0  0  0  0  0  0  0  0  0  0  0  0
   63.5720   33.5300   51.1920 C   0  0  0  0  0  0  0  0  0  0  0  0
   63.7990   33.2800   49.8270 C   0  0  0  0  0  0  0  0  0  0  0  0
   65.2100   33.0100   49.3660 C   0  0  0  0  0  0  0  0  0  0  0  0
   62.7040   33.2600   48.9250 C   0  0  0  0  0  0  0  0  0  0  0  0
   62.9290   33.0150   47.4500 C   0  0  0  0  0  0  0  0  0  0  0  0
   60.0590   34.7500   47.6920 C   0  0  0  0  0  0  0  0  0  0  0  0
   59.3070   34.4120   46.3870 C   0  0  0  0  0  0  0  0  0  0  0  0
   59.2302   28.9123   49.5322 H   0  0  0  0  0  0  0  0  0  0  0  0
   60.2370   28.3142   48.1701 H   0  0  0  0  0  0  0  0  0  0  0  0
   59.6414   30.0088   48.1701 H   0  0  0  0  0  0  0  0  0  0  0  0
   58.0843   25.9729   46.9592 H   0  0  0  0  0  0  0  0  0  0  0  0
   58.0119   25.1893   44.6034 H   0  0  0  0  0  0  0  0  0  0  0  0
   58.0068   25.6055   42.3358 H   0  0  0  0  0  0  0  0  0  0  0  0
   57.2593   27.1597   41.8335 H   0  0  0  0  0  0  0  0  0  0  0  0
   59.0467   26.9814   41.8335 H   0  0  0  0  0  0  0  0  0  0  0  0
   58.2720   29.2777   43.2217 H   0  0  0  0  0  0  0  0  0  0  0  0
   59.0280   30.7320   46.3730 H   0  0  0  0  0  0  0  0  0  0  0  0
   58.2808   33.2405   44.3127 H   0  0  0  0  0  0  0  0  0  0  0  0
   56.9045   33.4343   45.4553 H   0  0  0  0  0  0  0  0  0  0  0  0
   57.4476   33.5110   47.9313 H   0  0  0  0  0  0  0  0  0  0  0  0
   57.5861   31.7622   47.5553 H   0  0  0  0  0  0  0  0  0  0  0  0
   58.7702   32.6970   49.7053 H   0  0  0  0  0  0  0  0  0  0  0  0
   59.6739   31.5651   48.6244 H   0  0  0  0  0  0  0  0  0  0  0  0
   60.1925   33.9951   51.1513 H   0  0  0  0  0  0  0  0  0  0  0  0
   62.1188   33.9815   52.7285 H   0  0  0  0  0  0  0  0  0  0  0  0
   64.4171   33.5241   51.8961 H   0  0  0  0  0  0  0  0  0  0  0  0
   65.8641   32.8848   50.2415 H   0  0  0  0  0  0  0  0  0  0  0  0
   65.2285   32.0920   48.7602 H   0  0  0  0  0  0  0  0  0  0  0  0
   65.5661   33.8563   48.7602 H   0  0  0  0  0  0  0  0  0  0  0  0
   63.6679   32.2105   47.3205 H   0  0  0  0  0  0  0  0  0  0  0  0
   61.9799   32.7206   46.9782 H   0  0  0  0  0  0  0  0  0  0  0  0
   63.3029   33.9357   46.9782 H   0  0  0  0  0  0  0  0  0  0  0  0
   59.4685   35.4830   48.2612 H   0  0  0  0  0  0  0  0  0  0  0  0
   61.0444   35.1549   47.4181 H   0  0  0  0  0  0  0  0  0  0  0  0
   58.4679   35.1146   46.2759 H   0  0  0  0  0  0  0  0  0  0  0  0
   60.0311   34.4963   45.5633 H   0  0  0  0  0  0  0  0  0  0  0  0
  1  2  1  0
  2  3  1  0
  3  4  2  0
  4  5  1  0
  5  6  2  0
  6  7  1  0
  6  8  1  0
  8  9  2  0
  9 10  1  0
 10 11  1  0
 11 12  2  0
 11 13  1  0
 13 14  1  0
 14 15  1  0
 15 16  1  0
 16 17  1  0
 17 18  1  0
 18 19  2  0
 19 20  1  0
 20 21  2  0
 21 22  1  0
 22 23  1  0
 22 24  2  0
 24 25  1  0
 17 26  1  0
 26 27  1  0
  9  3  1  0
 27 14  1  0
 24 18  1  0
  1 28  1  0
  1 29  1  0
  1 30  1  0
  4 31  1  0
  5 32  1  0
  7 33  1  0
  7 34  1  0
  7 35  1  0
  8 36  1  0
 10 37  1  0
 13 38  1  0
 13 39  1  0
 15 40  1  0
 15 41  1  0
 16 42  1  0
 16 43  1  0
 19 44  1  0
 20 45  1  0
 21 46  1  0
 23 47  1  0
 23 48  1  0
 23 49  1  0
 25 50  1  0
 25 51  1  0
 25 52  1  0
 26 53  1  0
 26 54  1  0
 27 55  1  0
 27 56  1  0
M  END
>  <UniqueID>  (1) 
1

>  <SMILES>  (1) 
COc1ccc(C)cc1NC(=O)CN1CCN(c2cccc(C)c2C)CC1

>  <Energy>  (1) 
70.51875299236222

>  <Genealogy>  (1) 
COc1ccc(C)cc1NC(=O)CN1CCN(c2cccc(C)c2C)CC1 (3D coordinates assigned)
COc1ccc(C)cc1NC(=O)CN1CCN(c2cccc(C)c2C)CC1 (nonaromatic ring conformer: 70.51875299236222 kcal/mol)

>  <smiles>  (1) 
COc1ccc(C)cc1NC(=O)CN1CCN(c2cccc(C)c2C)CC1

>  <score_type>  (1) 
oracle

>  <origin>  (1) 
adg

>  <m_score__min__energy>  (1) 
-7.71

>  <m_primary>  (1) 
energy

$$$$
1:0
     RDKit          3D

 36 36  0  0  0  0  0  0  0  0999 V2000
   57.1550   28.3320   42.7980 N   0  0  0  0  0  0  0  0  0  0  0  0
   56.3860   29.4400   42.2270 C   0  0  0  0  0  0  0  0  0  0  0  0
   56.6460   30.7700   42.9580 C   0  0  0  0  0  0  0  0  0  0  0  0
   56.0040   30.8380   44.3540 C   0  0  0  0  0  0  0  0  0  0  0  0
   56.4880   29.7500   45.2160 N   0  0  0  0  0  0  0  0  0  0  0  0
   57.8810   29.9720   45.6350 C   0  0  0  0  0  0  0  0  0  0  0  0
   58.1160   31.4410   46.0510 C   0  0  1  0  0  0  0  0  0  0  0  0
   58.8080   31.5390   47.4410 C   0  0  0  0  0  0  0  0  0  0  0  0
   58.9210   32.9510   47.9610 C   0  0  0  0  0  0  0  0  0  0  0  0
   59.3080   33.9670   47.1730 C   0  0  0  0  0  0  0  0  0  0  0  0
   58.4210   34.5200   46.0860 C   0  0  0  0  0  0  0  0  0  0  0  0
   58.4050   33.6890   44.7800 C   0  0  0  0  0  0  0  0  0  0  0  0
   58.8290   32.2140   44.9100 C   0  0  0  0  0  0  0  0  0  0  0  0
   56.8850   28.1770   43.7960 H   0  0  0  0  0  0  0  0  0  0  0  0
   57.0060   27.4610   42.2420 H   0  0  0  0  0  0  0  0  0  0  0  0
   58.1720   28.5720   42.7620 H   0  0  0  0  0  0  0  0  0  0  0  0
   56.6660   29.5569   41.1697 H   0  0  0  0  0  0  0  0  0  0  0  0
   55.3181   29.1995   42.3358 H   0  0  0  0  0  0  0  0  0  0  0  0
   57.7327   30.9004   43.0677 H   0  0  0  0  0  0  0  0  0  0  0  0
   56.1894   31.5668   42.3525 H   0  0  0  0  0  0  0  0  0  0  0  0
   56.2564   31.8027   44.8183 H   0  0  0  0  0  0  0  0  0  0  0  0
   54.9147   30.7345   44.2415 H   0  0  0  0  0  0  0  0  0  0  0  0
   55.8920   29.7430   46.0770 H   0  0  0  0  0  0  0  0  0  0  0  0
   58.1065   29.3173   46.4897 H   0  0  0  0  0  0  0  0  0  0  0  0
   58.5396   29.7431   44.7842 H   0  0  0  0  0  0  0  0  0  0  0  0
   57.1477   31.9429   46.1942 H   0  0  0  0  0  0  0  0  0  0  0  0
   58.2244   30.9483   48.1625 H   0  0  0  0  0  0  0  0  0  0  0  0
   59.8323   31.1570   47.3192 H   0  0  0  0  0  0  0  0  0  0  0  0
   58.6796   33.1536   49.0149 H   0  0  0  0  0  0  0  0  0  0  0  0
   60.3033   34.4099   47.3251 H   0  0  0  0  0  0  0  0  0  0  0  0
   57.3929   34.5685   46.4741 H   0  0  0  0  0  0  0  0  0  0  0  0
   58.8305   35.5063   45.8221 H   0  0  0  0  0  0  0  0  0  0  0  0
   57.3802   33.7101   44.3808 H   0  0  0  0  0  0  0  0  0  0  0  0
   59.1549   34.1552   44.1240 H   0  0  0  0  0  0  0  0  0  0  0  0
   58.6067   31.7069   43.9595 H   0  0  0  0  0  0  0  0  0  0  0  0
   59.9016   32.2157   45.1541 H   0  0  0  0  0  0  0  0  0  0  0  0
  1  2  1  0
  2  3  1  0
  3  4  1  0
  4  5  1  0
  5  6  1  0
  6  7  1  0
  7  8  1  0
  8  9  1  0
  9 10  2  0
 10 11  1  0
 11 12  1  0
 12 13  1  0
 13  7  1  0
  1 14  1  0
  1 15  1  0
  1 16  1  0
  2 17  1  0
  2 18  1  0
  3 19  1  0
  3 20  1  0
  4 21  1  0
  4 22  1  0
  5 23  1  0
  6 24  1  0
  6 25  1  0
  7 26  1  1
  8 27  1  0
  8 28  1  0
  9 29  1  0
 10 30  1  0
 11 31  1  0
 11 32  1  0
 12 33  1  0
 12 34  1  0
 13 35  1  0
 13 36  1  0
M  CHG  1   1   1
M  END
>  <UniqueID>  (2) 
2

>  <SMILES>  (2) 
[NH3+]CCCNC[C@H]1CC=CCCC1

>  <Energy>  (2) 
31.28849778399277

>  <Genealogy>  (2) 
[NH3+]CCCNCC1CC=CCCC1 (protonated)
[NH3+]CCCNC[C@H]1CC=CCCC1 (chirality)
[NH3+]CCCNC[C@H]1CC=CCCC1 (3D coordinates assigned)
[NH3+]CCCNC[C@H]1CC=CCCC1 (nonaromatic ring conformer: 31.28849778399277 kcal/mol)

>  <smiles>  (2) 
NCCCNCC1CC=CCCC1

>  <score_type>  (2) 
oracle

>  <origin>  (2) 
adg

>  <m_score__min__energy>  (2) 
-2.6200000000000001

>  <m_primary>  (2) 
energy

$$$$
2:0
     RDKit          3D

 55 57  0  0  0  0  0  0  0  0999 V2000
   62.5000   33.8300   48.5390 C   0  0  0  0  0  0  0  0  0  0  0  0
   61.0870   34.3850   48.6740 C   0  0  0  0  0  0  0  0  0  0  0  0
   60.1340   33.6470   47.7730 C   0  0  0  0  0  0  0  0  0  0  0  0
   58.8530   34.1640   47.5200 C   0  0  0  0  0  0  0  0  0  0  0  0
   57.9740   33.4880   46.6690 C   0  0  0  0  0  0  0  0  0  0  0  0
   58.3690   32.3000   46.0380 C   0  0  0  0  0  0  0  0  0  0  0  0
   57.4400   31.6110   45.1840 N   0  0  0  0  0  0  0  0  0  0  0  0
   57.4800   31.6700   43.7510 C   0  0  0  0  0  0  0  0  0  0  0  0
   58.1950   32.5280   43.1610 O   0  0  0  0  0  0  0  0  0  0  0  0
   56.7000   30.6820   42.9350 C   0  0  0  0  0  0  0  0  0  0  0  0
   56.9290   29.2550   43.4400 C   0  0  0  0  0  0  0  0  0  0  0  0
   56.1220   28.9690   44.6820 C   0  0  0  0  0  0  0  0  0  0  0  0
   55.1640   29.7330   44.9720 O   0  0  0  0  0  0  0  0  0  0  0  0
   56.4620   27.9170   45.5980 N   0  0  0  0  0  0  0  0  0  0  0  0
   57.6890   27.7630   46.3260 C   0  0  0  0  0  0  0  0  0  0  0  0
   58.1470   28.7620   47.2030 C   0  0  0  0  0  0  0  0  0  0  0  0
   59.3520   28.6030   47.9090 C   0  0  0  0  0  0  0  0  0  0  0  0
   59.7950   29.6300   48.8850 C   0  0  0  0  0  0  0  0  0  0  0  0
   58.8630   30.4950   49.4890 C   0  0  0  0  0  0  0  0  0  0  0  0
   59.2870   31.4760   50.3910 C   0  0  0  0  0  0  0  0  0  0  0  0
   60.6430   31.6060   50.6980 C   0  0  0  0  0  0  0  0  0  0  0  0
   61.5780   30.7530   50.1080 C   0  0  0  0  0  0  0  0  0  0  0  0
   61.1580   29.7680   49.2070 C   0  0  0  0  0  0  0  0  0  0  0  0
   60.1220   27.4500   47.6870 C   0  0  0  0  0  0  0  0  0  0  0  0
   59.7040   26.4820   46.7720 C   0  0  0  0  0  0  0  0  0  0  0  0
   58.4870   26.6350   46.0790 C   0  0  0  0  0  0  0  0  0  0  0  0
   58.0410   25.6870   45.1450 O   0  0  0  0  0  0  0  0  0  0  0  0
   57.7790   25.9650   43.7740 C   0  0  0  0  0  0  0  0  0  0  0  0
   59.6500   31.7790   46.2980 C   0  0  0  0  0  0  0  0  0  0  0  0
   60.5280   32.4530   47.1520 C   0  0  0  0  0  0  0  0  0  0  0  0
   62.9254   33.6629   49.5395 H   0  0  0  0  0  0  0  0  0  0  0  0
   62.4688   32.8773   47.9900 H   0  0  0  0  0  0  0  0  0  0  0  0
   63.1255   34.5492   47.9900 H   0  0  0  0  0  0  0  0  0  0  0  0
   60.7549   34.2757   49.7170 H   0  0  0  0  0  0  0  0  0  0  0  0
   61.0960   35.4460   48.3839 H   0  0  0  0  0  0  0  0  0  0  0  0
   58.5397   35.1059   47.9940 H   0  0  0  0  0  0  0  0  0  0  0  0
   56.9656   33.8908   46.4932 H   0  0  0  0  0  0  0  0  0  0  0  0
   56.6440   31.1030   45.6310 H   0  0  0  0  0  0  0  0  0  0  0  0
   55.6288   30.9218   43.0064 H   0  0  0  0  0  0  0  0  0  0  0  0
   57.0386   30.7438   41.8902 H   0  0  0  0  0  0  0  0  0  0  0  0
   56.6348   28.5460   42.6521 H   0  0  0  0  0  0  0  0  0  0  0  0
   57.9947   29.1453   43.6894 H   0  0  0  0  0  0  0  0  0  0  0  0
   57.5551   29.6792   47.3383 H   0  0  0  0  0  0  0  0  0  0  0  0
   57.7937   30.3986   49.2498 H   0  0  0  0  0  0  0  0  0  0  0  0
   58.5512   32.1462   50.8594 H   0  0  0  0  0  0  0  0  0  0  0  0
   60.9748   32.3807   51.4049 H   0  0  0  0  0  0  0  0  0  0  0  0
   62.6458   30.8554   50.3517 H   0  0  0  0  0  0  0  0  0  0  0  0
   61.8984   29.0969   48.7472 H   0  0  0  0  0  0  0  0  0  0  0  0
   61.0629   27.3082   48.2389 H   0  0  0  0  0  0  0  0  0  0  0  0
   60.3285   25.5947   46.5911 H   0  0  0  0  0  0  0  0  0  0  0  0
   57.0263   26.7637   43.6992 H   0  0  0  0  0  0  0  0  0  0  0  0
   58.7077   26.2891   43.2816 H   0  0  0  0  0  0  0  0  0  0  0  0
   57.4005   25.0571   43.2816 H   0  0  0  0  0  0  0  0  0  0  0  0
   59.9625   30.8356   45.8264 H   0  0  0  0  0  0  0  0  0  0  0  0
   61.5325   32.0449   47.3377 H   0  0  0  0  0  0  0  0  0  0  0  0
  1  2  1  0
  2  3  1  0
  3  4  2  0
  4  5  1  0
  5  6  2  0
  6  7  1  0
  7  8  1  0
  8  9  2  0
  8 10  1  0
 10 11  1  0
 11 12  1  0
 12 13  2  0
 12 14  1  0
 14 15  1  0
 15 16  2  0
 16 17  1  0
 17 18  1  0
 18 19  2  0
 19 20  1  0
 20 21  2  0
 21 22  1  0
 22 23  2  0
 17 24  2  0
 24 25  1  0
 25 26  2  0
 26 27  1  0
 27 28  1  0
  6 29  1  0
 29 30  2  0
 30  3  1  0
 26 15  1  0
 23 18  1  0
  1 31  1  0
  1 32  1  0
  1 33  1  0
  2 34  1  0
  2 35  1  0
  4 36  1  0
  5 37  1  0
  7 38  1  0
 10 39  1  0
 10 40  1  0
 11 41  1  0
 11 42  1  0
 16 43  1  0
 19 44  1  0
 20 45  1  0
 21 46  1  0
 22 47  1  0
 23 48  1  0
 24 49  1  0
 25 50  1  0
 28 51  1  0
 28 52  1  0
 28 53  1  0
 29 54  1  0
 30 55  1  0
M  CHG  1  14  -1
M  END
>  <UniqueID>  (3) 
3

>  <SMILES>  (3) 
CCc1ccc(NC(=O)CCC(=O)[N-]c2cc(-c3ccccc3)ccc2OC)cc1

>  <Energy>  (3) 
60.25133136207124

>  <Genealogy>  (3) 
CCc1ccc(NC(=O)CCC(=O)[N-]c2cc(-c3ccccc3)ccc2OC)cc1 (protonated)
CCc1ccc(NC(=O)CCC(=O)[N-]c2cc(-c3ccccc3)ccc2OC)cc1 (3D coordinates assigned)
CCc1ccc(NC(=O)CCC(=O)[N-]c2cc(-c3ccccc3)ccc2OC)cc1 (optimized conformer: 60.25133136207124 kcal/mol)

>  <smiles>  (3) 
CCc1ccc(NC(=O)CCC(=O)Nc2cc(-c3ccccc3)ccc2OC)cc1

>  <score_type>  (3) 
oracle

>  <origin>  (3) 
adg

>  <m_score__min__energy>  (3) 
-11.07

>  <m_primary>  (3) 
energy

$$$$
3:0
     RDKit          3D

 51 53  0  0  0  0  0  0  0  0999 V2000
   57.3970   21.1110   42.9890 C   0  0  0  0  0  0  0  0  0  0  0  0
   56.2020   21.8820   43.0560 O   0  0  0  0  0  0  0  0  0  0  0  0
   55.9580   22.8880   44.0030 C   0  0  0  0  0  0  0  0  0  0  0  0
   57.0480   23.4180   44.7020 C   0  0  0  0  0  0  0  0  0  0  0  0
   56.8670   24.4290   45.6640 C   0  0  0  0  0  0  0  0  0  0  0  0
   57.9740   24.9900   46.3930 N   0  0  0  0  0  0  0  0  0  0  0  0
   59.0100   25.8190   45.7720 C   0  0  0  0  0  0  0  0  0  0  0  0
   58.3920   26.8850   44.9100 C   0  0  0  0  0  0  0  0  0  0  0  0
   58.3140   26.6720   43.6690 O   0  0  0  0  0  0  0  0  0  0  0  0
   57.9200   28.1380   45.4580 N   0  0  0  0  0  0  0  0  0  0  0  0
   57.2040   29.1030   44.6150 C   0  0  0  0  0  0  0  0  0  0  0  0
   58.0980   30.3180   44.3710 C   0  0  0  0  0  0  0  0  0  0  0  0
   58.6270   30.8160   45.6490 N   0  0  0  0  0  0  0  0  0  0  0  0
   58.8530   32.2260   45.8190 C   0  0  0  0  0  0  0  0  0  0  0  0
   60.0570   32.6920   46.3780 C   0  0  0  0  0  0  0  0  0  0  0  0
   60.2750   34.0630   46.5390 C   0  0  0  0  0  0  0  0  0  0  0  0
   59.2960   34.9800   46.1480 C   0  0  0  0  0  0  0  0  0  0  0  0
   58.0940   34.5260   45.5970 C   0  0  0  0  0  0  0  0  0  0  0  0
   57.8700   33.1550   45.4340 C   0  0  0  0  0  0  0  0  0  0  0  0
   56.6850   32.7300   44.9260 F   0  0  0  0  0  0  0  0  0  0  0  0
   59.2630   29.8590   46.5640 C   0  0  0  0  0  0  0  0  0  0  0  0
   58.3550   28.6440   46.7680 C   0  0  0  0  0  0  0  0  0  0  0  0
   55.5700   24.9010   45.9180 C   0  0  0  0  0  0  0  0  0  0  0  0
   54.4670   24.3840   45.2310 C   0  0  0  0  0  0  0  0  0  0  0  0
   53.1970   24.8980   45.5340 O   0  0  0  0  0  0  0  0  0  0  0  0
   51.9840   24.4490   44.9390 C   0  0  0  0  0  0  0  0  0  0  0  0
   54.6640   23.3750   44.2700 C   0  0  0  0  0  0  0  0  0  0  0  0
   57.7458   20.8860   44.0077 H   0  0  0  0  0  0  0  0  0  0  0  0
   57.1973   20.1710   42.4538 H   0  0  0  0  0  0  0  0  0  0  0  0
   58.1712   21.6804   42.4538 H   0  0  0  0  0  0  0  0  0  0  0  0
   58.0602   23.0393   44.4968 H   0  0  0  0  0  0  0  0  0  0  0  0
   58.0260   24.8090   47.4220 H   0  0  0  0  0  0  0  0  0  0  0  0
   59.6116   26.2956   46.5600 H   0  0  0  0  0  0  0  0  0  0  0  0
   59.6448   25.1786   45.1419 H   0  0  0  0  0  0  0  0  0  0  0  0
   56.9503   28.6339   43.6530 H   0  0  0  0  0  0  0  0  0  0  0  0
   56.2795   29.4200   45.1199 H   0  0  0  0  0  0  0  0  0  0  0  0
   58.9347   30.0296   43.7177 H   0  0  0  0  0  0  0  0  0  0  0  0
   57.5067   31.1114   43.8905 H   0  0  0  0  0  0  0  0  0  0  0  0
   60.8301   31.9742   46.6897 H   0  0  0  0  0  0  0  0  0  0  0  0
   61.2195   34.4210   46.9746 H   0  0  0  0  0  0  0  0  0  0  0  0
   59.4709   36.0587   46.2737 H   0  0  0  0  0  0  0  0  0  0  0  0
   57.3229   35.2484   45.2911 H   0  0  0  0  0  0  0  0  0  0  0  0
   60.2216   29.5293   46.1370 H   0  0  0  0  0  0  0  0  0  0  0  0
   59.4341   30.3478   47.5345 H   0  0  0  0  0  0  0  0  0  0  0  0
   58.9085   27.8568   47.3008 H   0  0  0  0  0  0  0  0  0  0  0  0
   57.4758   28.9361   47.3610 H   0  0  0  0  0  0  0  0  0  0  0  0
   55.4186   25.6901   46.6693 H   0  0  0  0  0  0  0  0  0  0  0  0
   51.2651   24.1829   45.7279 H   0  0  0  0  0  0  0  0  0  0  0  0
   51.5631   25.2509   44.3147 H   0  0  0  0  0  0  0  0  0  0  0  0
   52.1866   23.5663   44.3147 H   0  0  0  0  0  0  0  0  0  0  0  0
   53.8019   22.9642   43.7241 H   0  0  0  0  0  0  0  0  0  0  0  0
  1  2  1  0
  2  3  1  0
  3  4  2  0
  4  5  1  0
  5  6  1  0
  6  7  1  0
  7  8  1  0
  8  9  2  0
  8 10  1  0
 10 11  1  0
 11 12  1  0
 12 13  1  0
 13 14  1  0
 14 15  2  0
 15 16  1  0
 16 17  2  0
 17 18  1  0
 18 19  2  0
 19 20  1  0
 13 21  1  0
 21 22  1  0
  5 23  2  0
 23 24  1  0
 24 25  1  0
 25 26  1  0
 24 27  2  0
 27  3  1  0
 22 10  1  0
 19 14  1  0
  1 28  1  0
  1 29  1  0
  1 30  1  0
  4 31  1  0
  6 32  1  0
  7 33  1  0
  7 34  1  0
 11 35  1  0
 11 36  1  0
 12 37  1  0
 12 38  1  0
 15 39  1  0
 16 40  1  0
 17 41  1  0
 18 42  1  0
 21 43  1  0
 21 44  1  0
 22 45  1  0
 22 46  1  0
 23 47  1  0
 26 48  1  0
 26 49  1  0
 26 50  1  0
 27 51  1  0
M  END
>  <UniqueID>  (4) 
4

>  <SMILES>  (4) 
COc1cc(NCC(=O)N2CCN(c3ccccc3F)CC2)cc(OC)c1

>  <Energy>  (4) 
55.36005767313433

>  <Genealogy>  (4) 
COc1cc(NCC(=O)N2CCN(c3ccccc3F)CC2)cc(OC)c1 (3D coordinates assigned)
COc1cc(NCC(=O)N2CCN(c3ccccc3F)CC2)cc(OC)c1 (nonaromatic ring conformer: 55.36005767313433 kcal/mol)

>  <smiles>  (4) 
COc1cc(NCC(=O)N2CCN(c3ccccc3F)CC2)cc(OC)c1

>  <score_type>  (4) 
oracle

>  <origin>  (4) 
adg

>  <m_score__min__energy>  (4) 
-7.6799999999999997

>  <m_primary>  (4) 
energy

$$$$
4:0
     RDKit          3D

 28 29  0  0  0  0  0  0  0  0999 V2000
   59.0370   27.8680   44.5550 C   0  0  0  0  0  0  0  0  0  0  0  0
   57.7420   28.2140   43.8280 C   0  0  0  0  0  0  0  0  0  0  0  0
   57.3660   29.6400   44.0760 C   0  0  0  0  0  0  0  0  0  0  0  0
   56.3370   30.0240   44.8570 N   0  0  0  0  0  0  0  0  0  0  0  0
   56.3890   31.3240   44.8700 O   0  0  0  0  0  0  0  0  0  0  0  0
   57.3980   31.7370   44.1410 C   0  0  0  0  0  0  0  0  0  0  0  0
   57.7840   33.1690   43.9650 C   0  0  0  0  0  0  0  0  0  0  0  0
   58.4440   33.6590   45.1720 N   0  0  0  0  0  0  0  0  0  0  0  0
   59.8260   34.0980   45.2340 C   0  0  0  0  0  0  0  0  0  0  0  0
   60.0670   34.5440   46.6910 C   0  0  0  0  0  0  0  0  0  0  0  0
   58.7720   34.2750   47.4770 C   0  0  0  0  0  0  0  0  0  0  0  0
   57.8510   33.7520   46.4510 C   0  0  0  0  0  0  0  0  0  0  0  0
   56.6600   33.4150   46.6840 O   0  0  0  0  0  0  0  0  0  0  0  0
   58.0640   30.6950   43.6150 N   0  0  0  0  0  0  0  0  0  0  0  0
   58.8707   27.9124   45.6414 H   0  0  0  0  0  0  0  0  0  0  0  0
   59.3554   26.8533   44.2740 H   0  0  0  0  0  0  0  0  0  0  0  0
   59.8191   28.5887   44.2740 H   0  0  0  0  0  0  0  0  0  0  0  0
   57.8809   28.0590   42.7479 H   0  0  0  0  0  0  0  0  0  0  0  0
   56.9385   27.5640   44.2046 H   0  0  0  0  0  0  0  0  0  0  0  0
   58.4719   33.2588   43.1114 H   0  0  0  0  0  0  0  0  0  0  0  0
   56.8797   33.7671   43.7791 H   0  0  0  0  0  0  0  0  0  0  0  0
   60.5017   33.2708   44.9710 H   0  0  0  0  0  0  0  0  0  0  0  0
   60.0203   34.9165   44.5253 H   0  0  0  0  0  0  0  0  0  0  0  0
   60.8974   33.9694   47.1272 H   0  0  0  0  0  0  0  0  0  0  0  0
   60.3300   35.6113   46.7311 H   0  0  0  0  0  0  0  0  0  0  0  0
   58.9404   33.5318   48.2703 H   0  0  0  0  0  0  0  0  0  0  0  0
   58.3846   35.1704   47.9851 H   0  0  0  0  0  0  0  0  0  0  0  0
   58.9190   30.7010   43.0160 H   0  0  0  0  0  0  0  0  0  0  0  0
  1  2  1  0
  2  3  1  0
  3  4  2  0
  4  5  1  0
  5  6  1  0
  6  7  1  0
  7  8  1  0
  8  9  1  0
  9 10  1  0
 10 11  1  0
 11 12  1  0
 12 13  2  0
  6 14  2  0
 14  3  1  0
 12  8  1  0
  1 15  1  0
  1 16  1  0
  1 17  1  0
  2 18  1  0
  2 19  1  0
  7 20  1  0
  7 21  1  0
  9 22  1  0
  9 23  1  0
 10 24  1  0
 10 25  1  0
 11 26  1  0
 11 27  1  0
 14 28  1  0
M  CHG  1  14   1
M  END
>  <UniqueID>  (5) 
5

>  <SMILES>  (5) 
CCc1noc(CN2CCCC2=O)[nH+]1

>  <Energy>  (5) 
60.53517211336384

>  <Genealogy>  (5) 
CCc1noc(CN2CCCC2=O)[nH+]1 (protonated)
CCc1noc(CN2CCCC2=O)[nH+]1 (3D coordinates assigned)
CCc1noc(CN2CCCC2=O)[nH+]1 (nonaromatic ring conformer: 60.53517211336384 kcal/mol)

>  <smiles>  (5) 
CCc1noc(CN2CCCC2=O)n1

>  <score_type>  (5) 
oracle

>  <origin>  (5) 
adg

>  <m_score__min__energy>  (5) 
-4.8099999999999996

>  <m_primary>  (5) 
energy

$$$$
5:0
     RDKit          3D

 28 29  0  0  0  0  0  0  0  0999 V2000
   56.6480   27.0960   45.9710 C   0  0  0  0  0  0  0  0  0  0  0  0
   57.8270   27.9130   45.4970 C   0  0  0  0  0  0  0  0  0  0  0  0
   59.1460   27.4490   45.7270 C   0  0  0  0  0  0  0  0  0  0  0  0
   59.5240   25.8540   46.7280 Br  0  0  0  0  0  0  0  0  0  0  0  0
   60.2400   28.1640   45.2300 C   0  0  0  0  0  0  0  0  0  0  0  0
   60.0460   29.3420   44.5170 C   0  0  0  0  0  0  0  0  0  0  0  0
   58.7600   29.8360   44.3160 C   0  0  0  0  0  0  0  0  0  0  0  0
   57.6410   29.1510   44.8210 C   0  0  0  0  0  0  0  0  0  0  0  0
   56.3050   29.7710   44.6420 C   0  0  0  0  0  0  0  0  0  0  0  0
   55.2880   29.0330   44.5200 O   0  0  0  0  0  0  0  0  0  0  0  0
   56.1850   31.1920   44.4990 N   0  0  0  0  0  0  0  0  0  0  0  0
   57.1750   32.1750   44.8400 C   0  0  0  0  0  0  0  0  0  0  0  0
   57.4170   32.5450   46.1770 C   0  0  0  0  0  0  0  0  0  0  0  0
   58.4050   33.4870   46.4790 C   0  0  0  0  0  0  0  0  0  0  0  0
   59.1680   34.0570   45.4570 C   0  0  0  0  0  0  0  0  0  0  0  0
   58.9510   33.6780   44.1310 C   0  0  0  0  0  0  0  0  0  0  0  0
   57.9640   32.7350   43.8200 C   0  0  0  0  0  0  0  0  0  0  0  0
   57.7220   32.2720   42.1410 Cl  0  0  0  0  0  0  0  0  0  0  0  0
   56.6293   27.0830   47.0708 H   0  0  0  0  0  0  0  0  0  0  0  0
   55.7165   27.5433   45.5937 H   0  0  0  0  0  0  0  0  0  0  0  0
   56.7397   26.0668   45.5937 H   0  0  0  0  0  0  0  0  0  0  0  0
   61.2606   27.7923   45.4041 H   0  0  0  0  0  0  0  0  0  0  0  0
   60.9116   29.8854   44.1104 H   0  0  0  0  0  0  0  0  0  0  0  0
   58.6180   30.7722   43.7562 H   0  0  0  0  0  0  0  0  0  0  0  0
   56.8266   32.0913   46.9867 H   0  0  0  0  0  0  0  0  0  0  0  0
   58.5820   33.7802   47.5243 H   0  0  0  0  0  0  0  0  0  0  0  0
   59.9392   34.8038   45.6969 H   0  0  0  0  0  0  0  0  0  0  0  0
   59.5576   34.1218   43.3278 H   0  0  0  0  0  0  0  0  0  0  0  0
  1  2  1  0
  2  3  2  0
  3  4  1  0
  3  5  1  0
  5  6  2  0
  6  7  1  0
  7  8  2  0
  8  9  1  0
  9 10  2  0
  9 11  1  0
 11 12  1  0
 12 13  2  0
 13 14  1  0
 14 15  2  0
 15 16  1  0
 16 17  2  0
 17 18  1  0
  8  2  1  0
 17 12  1  0
  1 19  1  0
  1 20  1  0
  1 21  1  0
  5 22  1  0
  6 23  1  0
  7 24  1  0
 13 25  1  0
 14 26  1  0
 15 27  1  0
 16 28  1  0
M  CHG  1  11  -1
M  END
>  <UniqueID>  (6) 
6

>  <SMILES>  (6) 
Cc1c(Br)cccc1C(=O)[N-]c1ccccc1Cl

>  <Energy>  (6) 
39.751808002130865

>  <Genealogy>  (6) 
Cc1c(Br)cccc1C(=O)[N-]c1ccccc1Cl (protonated)
Cc1c(Br)cccc1C(=O)[N-]c1ccccc1Cl (3D coordinates assigned)
Cc1c(Br)cccc1C(=O)[N-]c1ccccc1Cl (optimized conformer: 39.751808002130865 kcal/mol)

>  <smiles>  (6) 
Cc1c(Br)cccc1C(=O)Nc1ccccc1Cl

>  <score_type>  (6) 
oracle

>  <origin>  (6) 
adg

>  <m_score__min__energy>  (6) 
-9

>  <m_primary>  (6) 
energy

$$$$
6:0
     RDKit          3D

 44 46  0  0  0  0  0  0  0  0999 V2000
   60.3230   31.6550   47.1000 C   0  0  0  0  0  0  0  0  0  0  0  0
   60.3950   30.2990   47.7940 C   0  0  0  0  0  0  0  0  0  0  0  0
   59.6140   29.2970   47.0470 N   0  0  0  0  0  0  0  0  0  0  0  0
   58.6120   29.7290   46.2270 C   0  0  0  0  0  0  0  0  0  0  0  0
   57.8260   28.8270   45.5050 C   0  0  0  0  0  0  0  0  0  0  0  0
   56.6960   29.3620   44.7200 C   0  0  0  0  0  0  0  0  0  0  0  0
   55.5200   29.0680   45.0570 O   0  0  0  0  0  0  0  0  0  0  0  0
   56.9090   30.1700   43.5540 N   0  0  0  0  0  0  0  0  0  0  0  0
   57.9750   31.1570   43.4000 C   0  0  0  0  0  0  0  0  0  0  0  0
   57.7920   32.2960   44.3540 C   0  0  0  0  0  0  0  0  0  0  0  0
   58.5270   33.4630   44.3740 C   0  0  0  0  0  0  0  0  0  0  0  0
   58.0320   34.1930   45.4330 C   0  0  0  0  0  0  0  0  0  0  0  0
   57.0260   33.4300   45.9890 C   0  0  0  0  0  0  0  0  0  0  0  0
   56.9060   32.3040   45.3230 O   0  0  0  0  0  0  0  0  0  0  0  0
   58.1060   27.4470   45.5890 C   0  0  0  0  0  0  0  0  0  0  0  0
   57.3720   26.4970   44.8530 C   0  0  0  0  0  0  0  0  0  0  0  0
   57.6590   25.1280   44.9540 C   0  0  0  0  0  0  0  0  0  0  0  0
   56.8610   24.1320   44.1580 C   0  0  0  0  0  0  0  0  0  0  0  0
   58.7040   24.6900   45.7830 C   0  0  0  0  0  0  0  0  0  0  0  0
   58.9760   23.3130   45.8570 O   0  0  0  0  0  0  0  0  0  0  0  0
   59.7040   22.5760   44.8810 C   0  0  0  0  0  0  0  0  0  0  0  0
   59.4500   25.6340   46.5120 C   0  0  0  0  0  0  0  0  0  0  0  0
   59.1620   27.0090   46.4210 C   0  0  0  0  0  0  0  0  0  0  0  0
   59.9100   27.9610   47.1460 C   0  0  0  0  0  0  0  0  0  0  0  0
   60.8590   27.5800   47.8880 O   0  0  0  0  0  0  0  0  0  0  0  0
   60.2807   32.4523   47.8566 H   0  0  0  0  0  0  0  0  0  0  0  0
   61.2151   31.7930   46.4714 H   0  0  0  0  0  0  0  0  0  0  0  0
   59.4213   31.6978   46.4714 H   0  0  0  0  0  0  0  0  0  0  0  0
   61.4447   29.9743   47.8470 H   0  0  0  0  0  0  0  0  0  0  0  0
   59.9770   30.3942   48.8070 H   0  0  0  0  0  0  0  0  0  0  0  0
   58.4195   30.8079   46.1327 H   0  0  0  0  0  0  0  0  0  0  0  0
   58.9436   30.6744   43.5973 H   0  0  0  0  0  0  0  0  0  0  0  0
   57.9431   31.5506   42.3733 H   0  0  0  0  0  0  0  0  0  0  0  0
   59.3379   33.7506   43.6887 H   0  0  0  0  0  0  0  0  0  0  0  0
   58.3709   35.1846   45.7676 H   0  0  0  0  0  0  0  0  0  0  0  0
   56.4170   33.7203   46.8578 H   0  0  0  0  0  0  0  0  0  0  0  0
   56.5619   26.8335   44.1893 H   0  0  0  0  0  0  0  0  0  0  0  0
   56.3233   23.4609   44.8439 H   0  0  0  0  0  0  0  0  0  0  0  0
   56.1371   24.6649   43.5240 H   0  0  0  0  0  0  0  0  0  0  0  0
   57.5390   23.5418   43.5240 H   0  0  0  0  0  0  0  0  0  0  0  0
   60.3913   21.8802   45.3844 H   0  0  0  0  0  0  0  0  0  0  0  0
   59.0027   22.0079   44.2521 H   0  0  0  0  0  0  0  0  0  0  0  0
   60.2806   23.2703   44.2521 H   0  0  0  0  0  0  0  0  0  0  0  0
   60.2694   25.2931   47.1619 H   0  0  0  0  0  0  0  0  0  0  0  0
  1  2  1  0
  2  3  1  0
  3  4  1  0
  4  5  2  0
  5  6  1  0
  6  7  2  0
  6  8  1  0
  8  9  1  0
  9 10  1  0
 10 11  2  0
 11 12  1  0
 12 13  2  0
 13 14  1  0
  5 15  1  0
 15 16  2  0
 16 17  1  0
 17 18  1  0
 17 19  2  0
 19 20  1  0
 20 21  1  0
 19 22  1  0
 22 23  2  0
 23 24  1  0
 24 25  2  0
 24  3  1  0
 14 10  1  0
 23 15  1  0
  1 26  1  0
  1 27  1  0
  1 28  1  0
  2 29  1  0
  2 30  1  0
  4 31  1  0
  9 32  1  0
  9 33  1  0
 11 34  1  0
 12 35  1  0
 13 36  1  0
 16 37  1  0
 18 38  1  0
 18 39  1  0
 18 40  1  0
 21 41  1  0
 21 42  1  0
 21 43  1  0
 22 44  1  0
M  CHG  1   8  -1
M  END
>  <UniqueID>  (7) 
7

>  <SMILES>  (7) 
CCn1cc(C(=O)[N-]Cc2ccco2)c2cc(C)c(OC)cc2c1=O

>  <Energy>  (7) 
78.6630632538767

>  <Genealogy>  (7) 
CCn1cc(C(=O)[N-]Cc2ccco2)c2cc(C)c(OC)cc2c1=O (protonated)
CCn1cc(C(=O)[N-]Cc2ccco2)c2cc(C)c(OC)cc2c1=O (3D coordinates assigned)
CCn1cc(C(=O)[N-]Cc2ccco2)c2cc(C)c(OC)cc2c1=O (optimized conformer: 78.6630632538767 kcal/mol)

>  <smiles>  (7) 
CCn1cc(C(=O)NCc2ccco2)c2cc(C)c(OC)cc2c1=O

>  <score_type>  (7) 
oracle

>  <origin>  (7) 
adg

>  <m_score__min__energy>  (7) 
-8.6600000000000001

>  <m_primary>  (7) 
energy

$$$$
7:0
     RDKit          3D

 44 45  0  0  0  0  0  0  0  0999 V2000
   61.4410   33.8360   46.3890 C   0  0  0  0  0  0  0  0  0  0  0  0
   60.1450   34.5640   46.0430 C   0  0  0  0  0  0  0  0  0  0  0  0
   59.0870   34.2200   47.0200 N   0  0  0  0  0  0  0  0  0  0  0  0
   59.5780   34.2720   48.4200 C   0  0  0  0  0  0  0  0  0  0  0  0
   59.2960   33.0030   49.2340 C   0  0  0  0  0  0  0  0  0  0  0  0
   58.4070   32.9510   46.6650 C   0  0  0  0  0  0  0  0  0  0  0  0
   58.1190   32.8640   45.1570 C   0  0  0  0  0  0  0  0  0  0  0  0
   56.7140   32.3170   44.8690 C   0  0  0  0  0  0  0  0  0  0  0  0
   56.7630   31.0980   44.0550 N   0  0  0  0  0  0  0  0  0  0  0  0
   57.3640   29.8670   44.5080 C   0  0  0  0  0  0  0  0  0  0  0  0
   58.7600   29.6860   44.4830 C   0  0  0  0  0  0  0  0  0  0  0  0
   59.3410   28.4910   44.9240 C   0  0  0  0  0  0  0  0  0  0  0  0
   60.7280   28.3430   44.8860 O   0  0  0  0  0  0  0  0  0  0  0  0
   58.5260   27.4490   45.4020 C   0  0  0  0  0  0  0  0  0  0  0  0
   59.0900   26.2390   45.8500 C   0  0  0  0  0  0  0  0  0  0  0  0
   58.2710   25.2120   46.3230 C   0  0  0  0  0  0  0  0  0  0  0  0
   56.8870   25.3750   46.3550 C   0  0  0  0  0  0  0  0  0  0  0  0
   56.3100   26.5690   45.9150 C   0  0  0  0  0  0  0  0  0  0  0  0
   57.1190   27.6170   45.4350 C   0  0  0  0  0  0  0  0  0  0  0  0
   56.5470   28.8240   44.9870 C   0  0  0  0  0  0  0  0  0  0  0  0
   55.1640   28.9900   45.0160 O   0  0  0  0  0  0  0  0  0  0  0  0
   61.5474   33.7762   47.4822 H   0  0  0  0  0  0  0  0  0  0  0  0
   61.4150   32.8205   45.9671 H   0  0  0  0  0  0  0  0  0  0  0  0
   62.2947   34.3866   45.9671 H   0  0  0  0  0  0  0  0  0  0  0  0
   60.3212   35.6496   46.0658 H   0  0  0  0  0  0  0  0  0  0  0  0
   59.8187   34.2567   45.0385 H   0  0  0  0  0  0  0  0  0  0  0  0
   60.6660   34.4328   48.3980 H   0  0  0  0  0  0  0  0  0  0  0  0
   59.0354   35.0912   48.9145 H   0  0  0  0  0  0  0  0  0  0  0  0
   59.3480   33.2369   50.3076 H   0  0  0  0  0  0  0  0  0  0  0  0
   58.2921   32.6258   48.9891 H   0  0  0  0  0  0  0  0  0  0  0  0
   60.0456   32.2361   48.9891 H   0  0  0  0  0  0  0  0  0  0  0  0
   59.0516   32.1079   46.9543 H   0  0  0  0  0  0  0  0  0  0  0  0
   57.4469   32.9143   47.2007 H   0  0  0  0  0  0  0  0  0  0  0  0
   58.2044   33.8702   44.7208 H   0  0  0  0  0  0  0  0  0  0  0  0
   58.8498   32.1730   44.7115 H   0  0  0  0  0  0  0  0  0  0  0  0
   56.2178   32.0885   45.8237 H   0  0  0  0  0  0  0  0  0  0  0  0
   56.1565   33.0817   44.3082 H   0  0  0  0  0  0  0  0  0  0  0  0
   56.3380   31.1230   43.1000 H   0  0  0  0  0  0  0  0  0  0  0  0
   59.4043   30.4963   44.1111 H   0  0  0  0  0  0  0  0  0  0  0  0
   61.2290   28.2260   44.0130 H   0  0  0  0  0  0  0  0  0  0  0  0
   60.1812   26.1023   45.8272 H   0  0  0  0  0  0  0  0  0  0  0  0
   58.7198   24.2703   46.6719 H   0  0  0  0  0  0  0  0  0  0  0  0
   56.2474   24.5614   46.7277 H   0  0  0  0  0  0  0  0  0  0  0  0
   55.2172   26.6912   45.9437 H   0  0  0  0  0  0  0  0  0  0  0  0
  1  2  1  0
  2  3  1  0
  3  4  1  0
  4  5  1  0
  3  6  1  0
  6  7  1  0
  7  8  1  0
  8  9  1  0
  9 10  1  0
 10 11  2  0
 11 12  1  0
 12 13  1  0
 12 14  2  0
 14 15  1  0
 15 16  2  0
 16 17  1  0
 17 18  2  0
 18 19  1  0
 19 20  2  0
 20 21  1  0
 20 10  1  0
 19 14  1  0
  1 22  1  0
  1 23  1  0
  1 24  1  0
  2 25  1  0
  2 26  1  0
  4 27  1  0
  4 28  1  0
  5 29  1  0
  5 30  1  0
  5 31  1  0
  6 32  1  0
  6 33  1  0
  7 34  1  0
  7 35  1  0
  8 36  1  0
  8 37  1  0
  9 38  1  0
 11 39  1  0
 13 40  1  0
 15 41  1  0
 16 42  1  0
 17 43  1  0
 18 44  1  0
M  CHG  1  21  -1
M  END
>  <UniqueID>  (8) 
8

>  <SMILES>  (8) 
CCN(CC)CCCNc1cc(O)c2ccccc2c1[O-]

>  <Energy>  (8) 
47.332431297436145

>  <Genealogy>  (8) 
CCN(CC)CCCNc1cc(O)c2ccccc2c1[O-] (protonated)
CCN(CC)CCCNc1cc(O)c2ccccc2c1[O-] (3D coordinates assigned)
CCN(CC)CCCNc1cc(O)c2ccccc2c1[O-] (optimized conformer: 47.332431297436145 kcal/mol)

>  <smiles>  (8) 
CCN(CC)CCCNc1cc(O)c2ccccc2c1O

>  <score_type>  (8) 
oracle

>  <origin>  (8) 
adg

>  <m_score__min__energy>  (8) 
-9.6899999999999995

>  <m_primary>  (8) 
energy

$$$$
8:0
     RDKit          3D

 42 44  0  0  0  0  0  0  0  0999 V2000
   56.6130   30.9684   41.6357 H   0  0  0  0  0  0  0  0  0  0  0  0
   56.7380   30.8320   42.7200 C   0  0  0  0  0  0  0  0  0  0  0  0
   56.2320   29.7290   43.3260 N   0  0  0  0  0  0  0  0  0  0  0  0
   56.3760   29.5410   44.6670 C   0  0  0  0  0  0  0  0  0  0  0  0
   55.8920   28.4850   45.2500 N   0  0  0  0  0  0  0  0  0  0  0  0
   56.7020   27.3650   45.7130 C   0  0  0  0  0  0  0  0  0  0  0  0
   56.7127   27.3502   46.8128 H   0  0  0  0  0  0  0  0  0  0  0  0
   56.2745   26.4235   45.3378 H   0  0  0  0  0  0  0  0  0  0  0  0
   57.7300   27.4761   45.3378 H   0  0  0  0  0  0  0  0  0  0  0  0
   57.0350   30.4690   45.4090 N   0  0  0  0  0  0  0  0  0  0  0  0
   57.5640   31.5950   44.8530 C   0  0  0  0  0  0  0  0  0  0  0  0
   58.2600   32.5530   45.6890 N   0  0  0  0  0  0  0  0  0  0  0  0
   58.4600   33.9330   45.2120 C   0  0  0  0  0  0  0  0  0  0  0  0
   58.3911   33.9436   44.1142 H   0  0  0  0  0  0  0  0  0  0  0  0
   57.6823   34.5665   45.6635 H   0  0  0  0  0  0  0  0  0  0  0  0
   59.8350   34.4910   45.6310 C   0  0  0  0  0  0  0  0  0  0  0  0
   60.5708   34.1906   44.8705 H   0  0  0  0  0  0  0  0  0  0  0  0
   59.7109   35.5808   45.7142 H   0  0  0  0  0  0  0  0  0  0  0  0
   60.3530   34.0030   47.0270 C   0  0  0  0  0  0  0  0  0  0  0  0
   60.7591   34.8378   47.6171 H   0  0  0  0  0  0  0  0  0  0  0  0
   61.5050   33.0520   46.8530 N   0  0  0  0  0  0  0  0  0  0  0  0
   61.3290   32.4420   46.0190 H   0  0  0  0  0  0  0  0  0  0  0  0
   62.7730   33.7930   46.6580 C   0  0  0  0  0  0  0  0  0  0  0  0
   63.4262   33.2407   45.9664 H   0  0  0  0  0  0  0  0  0  0  0  0
   62.5744   34.7867   46.2300 H   0  0  0  0  0  0  0  0  0  0  0  0
   63.4530   33.9260   48.0200 C   0  0  0  0  0  0  0  0  0  0  0  0
   64.5105   33.6308   47.9524 H   0  0  0  0  0  0  0  0  0  0  0  0
   63.4331   34.9627   48.3872 H   0  0  0  0  0  0  0  0  0  0  0  0
   62.6980   32.9870   48.9420 C   0  0  0  0  0  0  0  0  0  0  0  0
   63.3932   32.3229   49.4766 H   0  0  0  0  0  0  0  0  0  0  0  0
   62.1301   33.5238   49.7162 H   0  0  0  0  0  0  0  0  0  0  0  0
   61.8030   32.1920   48.0130 C   0  0  0  0  0  0  0  0  0  0  0  0
   62.3194   31.2788   47.6823 H   0  0  0  0  0  0  0  0  0  0  0  0
   60.8767   31.8922   48.5250 H   0  0  0  0  0  0  0  0  0  0  0  0
   59.1580   33.4310   47.8310 C   0  0  0  0  0  0  0  0  0  0  0  0
   59.5098   33.1088   48.8222 H   0  0  0  0  0  0  0  0  0  0  0  0
   58.3927   34.2141   47.9360 H   0  0  0  0  0  0  0  0  0  0  0  0
   58.5440   32.2340   47.1010 C   0  0  0  0  0  0  0  0  0  0  0  0
   59.2480   31.3898   47.1427 H   0  0  0  0  0  0  0  0  0  0  0  0
   57.5958   31.9761   47.5953 H   0  0  0  0  0  0  0  0  0  0  0  0
   57.4160   31.7930   43.4680 C   0  0  0  0  0  0  0  0  0  0  0  0
   57.8282   32.6906   42.9839 H   0  0  0  0  0  0  0  0  0  0  0  0
  1  2  1  0
  2  3  1  0
  3  4  1  0
  4  5  2  0
  5  6  1  0
  6  7  1  0
  6  8  1  0
  6  9  1  0
  4 10  1  0
 10 11  2  0
 11 12  1  0
 12 13  1  0
 13 14  1  0
 13 15  1  0
 13 16  1  0
 16 17  1  0
 16 18  1  0
 16 19  1  0
 19 20  1  0
 19 21  1  0
 21 22  1  0
 21 23  1  0
 23 24  1  0
 23 25  1  0
 23 26  1  0
 26 27  1  0
 26 28  1  0
 26 29  1  0
 29 30  1  0
 29 31  1  0
 29 32  1  0
 32 33  1  0
 32 34  1  0
 19 35  1  0
 35 36  1  0
 35 37  1  0
 35 38  1  0
 38 39  1  0
 38 40  1  0
 11 41  1  0
 41 42  1  0
 41  2  2  0
 38 12  1  0
 32 21  1  0
M  CHG  2   3  -1  21   1
M  END
>  <UniqueID>  (9) 
9

>  <SMILES>  (9) 
C/N=c1/nc(N2CCC([NH+]3CCCC3)CC2)cc[n-]1

>  <Energy>  (9) 
59.218070099031785

>  <Genealogy>  (9) 
CN=c1nc(N2CCC([NH+]3CCCC3)CC2)cc[n-]1 (protonated)
C/N=c1/nc(N2CCC([NH+]3CCCC3)CC2)cc[n-]1 (cis-trans isomerization)
C/N=c1/nc(N2CCC([NH+]3CCCC3)CC2)cc[n-]1 (3D coordinates assigned)
C/N=c1/nc(N2CCC([NH+]3CCCC3)CC2)cc[n-]1 (nonaromatic ring conformer: 59.218070099031785 kcal/mol)

>  <smiles>  (9) 
CN=c1nc(N2CCC(N3CCCC3)CC2)cc[nH]1

>  <score_type>  (9) 
oracle

>  <origin>  (9) 
adg

>  <m_score__min__energy>  (9) 
-7.5899999999999999

>  <m_primary>  (9) 
energy

$$$$
9:0
     RDKit          3D

 50 52  0  0  0  0  0  0  0  0999 V2000
   57.6250   32.1750   43.7000 C   0  0  0  0  0  0  0  0  0  0  0  0
   58.0030   32.2370   45.1490 C   0  0  0  0  0  0  0  0  0  0  0  0
   57.8020   33.4150   45.8840 C   0  0  0  0  0  0  0  0  0  0  0  0
   58.1180   33.4620   47.2440 C   0  0  0  0  0  0  0  0  0  0  0  0
   58.6120   32.3220   47.9020 C   0  0  0  0  0  0  0  0  0  0  0  0
   58.9660   32.3680   49.3770 C   0  0  0  0  0  0  0  0  0  0  0  0
   57.8430   32.0220   50.2900 N   0  0  1  0  0  0  0  0  0  0  0  0
   57.7340   30.5550   50.5460 C   0  0  0  0  0  0  0  0  0  0  0  0
   57.5940   30.1810   52.0350 C   0  0  0  0  0  0  0  0  0  0  0  0
   56.5500   31.0410   52.8130 C   0  0  2  0  0  0  0  0  0  0  0  0
   56.9600   30.9950   54.3120 C   0  0  0  0  0  0  0  0  0  0  0  0
   55.1340   30.4440   52.5880 C   0  0  0  0  0  0  0  0  0  0  0  0
   54.6810   29.3670   53.3840 C   0  0  0  0  0  0  0  0  0  0  0  0
   53.3980   28.8450   53.2310 C   0  0  0  0  0  0  0  0  0  0  0  0
   52.5220   29.3890   52.2960 C   0  0  0  0  0  0  0  0  0  0  0  0
   52.9180   30.4780   51.5070 C   0  0  0  0  0  0  0  0  0  0  0  0
   51.9790   31.0710   50.5230 C   0  0  0  0  0  0  0  0  0  0  0  0
   51.3140   32.3020   50.8040 N   0  0  0  0  0  0  0  0  0  0  0  0
   51.7560   30.4930   49.4240 O   0  0  0  0  0  0  0  0  0  0  0  0
   54.2150   31.0040   51.6650 C   0  0  0  0  0  0  0  0  0  0  0  0
   56.6050   32.5470   52.3720 C   0  0  0  0  0  0  0  0  0  0  0  0
   57.8380   32.8540   51.5150 C   0  0  0  0  0  0  0  0  0  0  0  0
   58.8250   31.1470   47.1590 C   0  0  0  0  0  0  0  0  0  0  0  0
   58.5080   31.1010   45.7980 C   0  0  0  0  0  0  0  0  0  0  0  0
   56.5431   31.9975   43.6106 H   0  0  0  0  0  0  0  0  0  0  0  0
   57.8819   33.1273   43.2130 H   0  0  0  0  0  0  0  0  0  0  0  0
   58.1726   31.3547   43.2130 H   0  0  0  0  0  0  0  0  0  0  0  0
   57.3932   34.3068   45.3865 H   0  0  0  0  0  0  0  0  0  0  0  0
   57.9792   34.3983   47.8044 H   0  0  0  0  0  0  0  0  0  0  0  0
   59.7864   31.6575   49.5562 H   0  0  0  0  0  0  0  0  0  0  0  0
   59.2432   33.4087   49.6009 H   0  0  0  0  0  0  0  0  0  0  0  0
   56.9780   32.2930   49.7610 H   0  0  0  0  0  0  0  0  0  0  0  0
   58.6382   30.0681   50.1518 H   0  0  0  0  0  0  0  0  0  0  0  0
   56.8143   30.2150   50.0474 H   0  0  0  0  0  0  0  0  0  0  0  0
   58.5746   30.3088   52.5169 H   0  0  0  0  0  0  0  0  0  0  0  0
   57.2362   29.1413   52.0684 H   0  0  0  0  0  0  0  0  0  0  0  0
   56.0630   31.0956   54.9407 H   0  0  0  0  0  0  0  0  0  0  0  0
   57.4534   30.0359   54.5279 H   0  0  0  0  0  0  0  0  0  0  0  0
   57.6537   31.8210   54.5279 H   0  0  0  0  0  0  0  0  0  0  0  0
   55.3539   28.9329   54.1382 H   0  0  0  0  0  0  0  0  0  0  0  0
   53.0753   27.9973   53.8533 H   0  0  0  0  0  0  0  0  0  0  0  0
   51.5151   28.9627   52.1757 H   0  0  0  0  0  0  0  0  0  0  0  0
   50.2750   32.3430   50.8970 H   0  0  0  0  0  0  0  0  0  0  0  0
   54.5219   31.8689   51.0585 H   0  0  0  0  0  0  0  0  0  0  0  0
   56.6327   33.1790   53.2719 H   0  0  0  0  0  0  0  0  0  0  0  0
   55.7114   32.7542   51.7650 H   0  0  0  0  0  0  0  0  0  0  0  0
   58.7458   32.6425   52.0991 H   0  0  0  0  0  0  0  0  0  0  0  0
   57.8112   33.9142   51.2229 H   0  0  0  0  0  0  0  0  0  0  0  0
   59.2441   30.2576   47.6523 H   0  0  0  0  0  0  0  0  0  0  0  0
   58.6555   30.1687   45.2332 H   0  0  0  0  0  0  0  0  0  0  0  0
  1  2  1  0
  2  3  2  0
  3  4  1  0
  4  5  2  0
  5  6  1  0
  6  7  1  0
  7  8  1  0
  8  9  1  0
  9 10  1  0
 10 11  1  1
 10 12  1  0
 12 13  2  0
 13 14  1  0
 14 15  2  0
 15 16  1  0
 16 17  1  0
 17 18  1  0
 17 19  2  0
 16 20  2  0
 10 21  1  0
 21 22  1  0
  5 23  1  0
 23 24  2  0
 24  2  1  0
 22  7  1  0
 20 12  1  0
  1 25  1  0
  1 26  1  0
  1 27  1  0
  3 28  1  0
  4 29  1  0
  6 30  1  0
  6 31  1  0
  7 32  1  6
  8 33  1  0
  8 34  1  0
  9 35  1  0
  9 36  1  0
 11 37  1  0
 11 38  1  0
 11 39  1  0
 13 40  1  0
 14 41  1  0
 15 42  1  0
 18 43  1  0
 20 44  1  0
 21 45  1  0
 21 46  1  0
 22 47  1  0
 22 48  1  0
 23 49  1  0
 24 50  1  0
M  CHG  2   7   1  18  -1
M  END
>  <UniqueID>  (10) 
10

>  <SMILES>  (10) 
Cc1ccc(C[NH+]2CCC(C)(c3cccc(C([NH-])=O)c3)CC2)cc1

>  <Energy>  (10) 
72.4986255985094

>  <Genealogy>  (10) 
Cc1ccc(C[NH+]2CCC(C)(c3cccc(C([NH-])=O)c3)CC2)cc1 (protonated)
Cc1ccc(C[NH+]2CCC(C)(c3cccc(C([NH-])=O)c3)CC2)cc1 (3D coordinates assigned)
Cc1ccc(C[NH+]2CCC(C)(c3cccc(C([NH-])=O)c3)CC2)cc1 (nonaromatic ring conformer: 72.4986255985094 kcal/mol)

>  <smiles>  (10) 
Cc1ccc(CN2CCC(C)(c3cccc(C(N)=O)c3)CC2)cc1

>  <score_type>  (10) 
oracle

>  <origin>  (10) 
adg

>  <m_score__min__energy>  (10) 
-10.43

>  <m_primary>  (10) 
energy

$$$$
10:0
     RDKit          3D

 25 26  0  0  0  0  0  0  0  0999 V2000
   57.4190   32.9550   44.6030 C   0  0  0  0  0  0  0  0  0  0  0  0
   57.6720   31.5460   45.0310 C   0  0  0  0  0  0  0  0  0  0  0  0
   58.8970   31.2040   45.5640 C   0  0  0  0  0  0  0  0  0  0  0  0
   59.0810   29.8830   45.9460 C   0  0  0  0  0  0  0  0  0  0  0  0
   60.2110   29.5490   46.4420 N   0  0  0  0  0  0  0  0  0  0  0  0
   58.1200   28.9540   45.8100 N   0  0  0  0  0  0  0  0  0  0  0  0
   58.0670   27.6410   46.1020 C   0  0  0  0  0  0  0  0  0  0  0  0
   59.1440   26.8040   46.6980 C   0  0  0  0  0  0  0  0  0  0  0  0
   56.8110   27.1940   45.7440 C   0  0  0  0  0  0  0  0  0  0  0  0
   56.3450   25.7860   45.9060 C   0  0  0  0  0  0  0  0  0  0  0  0
   56.1300   28.2380   45.2450 N   0  0  0  0  0  0  0  0  0  0  0  0
   56.9230   29.3380   45.2770 C   0  0  0  0  0  0  0  0  0  0  0  0
   56.7030   30.6130   44.8940 N   0  0  0  0  0  0  0  0  0  0  0  0
   57.3044   33.5932   45.4916 H   0  0  0  0  0  0  0  0  0  0  0  0
   58.2672   33.3133   44.0012 H   0  0  0  0  0  0  0  0  0  0  0  0
   56.4992   32.9958   44.0012 H   0  0  0  0  0  0  0  0  0  0  0  0
   59.6972   31.9496   45.6817 H   0  0  0  0  0  0  0  0  0  0  0  0
   61.1180   29.9380   46.1350 H   0  0  0  0  0  0  0  0  0  0  0  0
   59.0814   26.8526   47.7951 H   0  0  0  0  0  0  0  0  0  0  0  0
   59.0221   25.7613   46.3696 H   0  0  0  0  0  0  0  0  0  0  0  0
   60.1244   27.1796   46.3696 H   0  0  0  0  0  0  0  0  0  0  0  0
   56.2659   25.5469   46.9768 H   0  0  0  0  0  0  0  0  0  0  0  0
   55.3601   25.6687   45.4303 H   0  0  0  0  0  0  0  0  0  0  0  0
   57.0654   25.1043   45.4303 H   0  0  0  0  0  0  0  0  0  0  0  0
   55.1480   28.1890   44.8930 H   0  0  0  0  0  0  0  0  0  0  0  0
  1  2  1  0
  2  3  2  0
  3  4  1  0
  4  5  2  3
  4  6  1  0
  6  7  1  0
  7  8  1  0
  7  9  2  0
  9 10  1  0
  9 11  1  0
 11 12  1  0
 12 13  2  0
 13  2  1  0
 12  6  1  0
  1 14  1  0
  1 15  1  0
  1 16  1  0
  3 17  1  0
  5 18  1  0
  8 19  1  0
  8 20  1  0
  8 21  1  0
 10 22  1  0
 10 23  1  0
 10 24  1  0
 11 25  1  0
M  END
>  <smiles>  (11) 
Cc1cc(=N)n2c(C)c(C)[nH]c2n1

>  <score_type>  (11) 
oracle

>  <origin>  (11) 
adg

>  <m_score__min__energy>  (11) 
-5.2699999999999996

>  <m_primary>  (11) 
energy

$$$$
11:0
     RDKit          3D

 40 43  0  0  0  0  0  0  0  0999 V2000
   58.4980   23.8500   45.4330 C   0  0  0  0  0  0  0  0  0  0  0  0
   59.3890   24.7620   46.0470 O   0  0  0  0  0  0  0  0  0  0  0  0
   59.2380   26.1220   45.8150 C   0  0  0  0  0  0  0  0  0  0  0  0
   60.0930   27.0560   46.3590 C   0  0  0  0  0  0  0  0  0  0  0  0
   59.8640   28.3920   46.0740 C   0  0  0  0  0  0  0  0  0  0  0  0
   58.8230   28.8180   45.2720 C   0  0  0  0  0  0  0  0  0  0  0  0
   58.5790   30.2230   44.9690 C   0  0  0  0  0  0  0  0  0  0  0  0
   58.7810   31.1290   45.9400 N   0  0  0  0  0  0  0  0  0  0  0  0
   58.5670   32.4330   45.6970 C   0  0  0  0  0  0  0  0  0  0  0  0
   58.1400   32.8950   44.4690 C   0  0  0  0  0  0  0  0  0  0  0  0
   58.0110   34.2190   44.5080 N   0  0  0  0  0  0  0  0  0  0  0  0
   58.3470   34.6080   45.7400 N   0  0  0  0  0  0  0  0  0  0  0  0
   58.6840   33.5360   46.4660 N   0  0  0  0  0  0  0  0  0  0  0  0
   59.1050   33.6160   47.8630 C   0  0  0  0  0  0  0  0  0  0  0  0
   60.5890   33.6890   47.9640 C   0  0  0  0  0  0  0  0  0  0  0  0
   61.2550   33.8010   49.1660 C   0  0  0  0  0  0  0  0  0  0  0  0
   62.6490   33.8610   49.1390 C   0  0  0  0  0  0  0  0  0  0  0  0
   63.3540   33.8090   47.9450 C   0  0  0  0  0  0  0  0  0  0  0  0
   62.6690   33.6970   46.7490 C   0  0  0  0  0  0  0  0  0  0  0  0
   61.2790   33.6350   46.7480 C   0  0  0  0  0  0  0  0  0  0  0  0
   57.9390   31.9570   43.4850 C   0  0  0  0  0  0  0  0  0  0  0  0
   57.5510   32.3010   42.3400 O   0  0  0  0  0  0  0  0  0  0  0  0
   58.1650   30.6430   43.7640 N   0  0  0  0  0  0  0  0  0  0  0  0
   58.0020   27.8360   44.7590 C   0  0  0  0  0  0  0  0  0  0  0  0
   58.1730   26.4930   45.0020 C   0  0  0  0  0  0  0  0  0  0  0  0
   57.9527   23.2918   46.2083 H   0  0  0  0  0  0  0  0  0  0  0  0
   57.7819   24.4023   44.8067 H   0  0  0  0  0  0  0  0  0  0  0  0
   59.0668   23.1470   44.8067 H   0  0  0  0  0  0  0  0  0  0  0  0
   60.9324   26.7496   47.0005 H   0  0  0  0  0  0  0  0  0  0  0  0
   60.5397   29.1457   46.5045 H   0  0  0  0  0  0  0  0  0  0  0  0
   58.6676   34.5156   48.3207 H   0  0  0  0  0  0  0  0  0  0  0  0
   58.7595   32.7132   48.3879 H   0  0  0  0  0  0  0  0  0  0  0  0
   60.7043   33.8418   50.1174 H   0  0  0  0  0  0  0  0  0  0  0  0
   63.2015   33.9516   50.0859 H   0  0  0  0  0  0  0  0  0  0  0  0
   64.4530   33.8567   47.9498 H   0  0  0  0  0  0  0  0  0  0  0  0
   63.2225   33.6570   45.7993 H   0  0  0  0  0  0  0  0  0  0  0  0
   60.7279   33.5444   45.8003 H   0  0  0  0  0  0  0  0  0  0  0  0
   57.9990   29.9870   42.9940 H   0  0  0  0  0  0  0  0  0  0  0  0
   57.1623   28.1443   44.1188 H   0  0  0  0  0  0  0  0  0  0  0  0
   57.4943   25.7426   44.5704 H   0  0  0  0  0  0  0  0  0  0  0  0
  1  2  1  0
  2  3  1  0
  3  4  2  0
  4  5  1  0
  5  6  2  0
  6  7  1  0
  7  8  2  0
  8  9  1  0
  9 10  2  0
 10 11  1  0
 11 12  2  0
 12 13  1  0
 13 14  1  0
 14 15  1  0
 15 16  2  0
 16 17  1  0
 17 18  2  0
 18 19  1  0
 19 20  2  0
 10 21  1  0
 21 22  2  0
 21 23  1  0
  6 24  1  0
 24 25  2  0
 25  3  1  0
 23  7  1  0
 13  9  1  0
 20 15  1  0
  1 26  1  0
  1 27  1  0
  1 28  1  0
  4 29  1  0
  5 30  1  0
 14 31  1  0
 14 32  1  0
 16 33  1  0
 17 34  1  0
 18 35  1  0
 19 36  1  0
 20 37  1  0
 23 38  1  0
 24 39  1  0
 25 40  1  0
M  END
>  <smiles>  (12) 
COc1ccc(-c2nc3c(nnn3Cc3ccccc3)c(=O)[nH]2)cc1

>  <score_type>  (12) 
oracle

>  <origin>  (12) 
adg

>  <m_score__min__energy>  (12) 
-7.9100000000000001

>  <m_primary>  (12) 
energy

$$$$
12:0
     RDKit          3D

 35 35  0  0  0  0  0  0  0  0999 V2000
   58.9510   34.5910   45.3010 C   0  0  0  0  0  0  0  0  0  0  0  0
   57.6040   33.9950   44.8810 C   0  0  0  0  0  0  0  0  0  0  0  0
   57.7530   32.9300   43.8750 N   0  0  0  0  0  0  0  0  0  0  0  0
   57.7390   31.6200   44.4820 C   0  0  0  0  0  0  0  0  0  0  0  0
   58.8240   31.1740   45.2440 C   0  0  0  0  0  0  0  0  0  0  0  0
   58.7720   29.9560   45.8410 N   0  0  0  0  0  0  0  0  0  0  0  0
   57.7130   29.1490   45.7250 N   0  0  0  0  0  0  0  0  0  0  0  0
   57.7230   27.8800   46.4590 C   0  0  0  0  0  0  0  0  0  0  0  0
   58.3750   26.7720   45.6260 C   0  0  0  0  0  0  0  0  0  0  0  0
   57.4020   26.2140   44.6700 N   0  0  0  0  0  0  0  0  0  0  0  0
   56.8690   24.9070   45.0910 C   0  0  0  0  0  0  0  0  0  0  0  0
   55.4440   25.0170   45.6540 C   0  0  0  0  0  0  0  0  0  0  0  0
   55.1410   26.3540   45.9450 O   0  0  0  0  0  0  0  0  0  0  0  0
   56.6260   29.5370   44.9850 C   0  0  0  0  0  0  0  0  0  0  0  0
   55.6170   28.7880   44.8760 O   0  0  0  0  0  0  0  0  0  0  0  0
   56.6270   30.7800   44.3530 C   0  0  0  0  0  0  0  0  0  0  0  0
   59.0134   34.6186   46.3989 H   0  0  0  0  0  0  0  0  0  0  0  0
   59.7669   33.9699   44.9029 H   0  0  0  0  0  0  0  0  0  0  0  0
   59.0401   35.6125   44.9029 H   0  0  0  0  0  0  0  0  0  0  0  0
   57.1104   33.5753   45.7699 H   0  0  0  0  0  0  0  0  0  0  0  0
   57.0051   34.8008   44.4316 H   0  0  0  0  0  0  0  0  0  0  0  0
   56.9980   33.0130   43.1540 H   0  0  0  0  0  0  0  0  0  0  0  0
   58.6660   33.0630   43.3810 H   0  0  0  0  0  0  0  0  0  0  0  0
   59.7157   31.8077   45.3590 H   0  0  0  0  0  0  0  0  0  0  0  0
   58.2892   28.0088   47.3933 H   0  0  0  0  0  0  0  0  0  0  0  0
   56.6840   27.5913   46.6762 H   0  0  0  0  0  0  0  0  0  0  0  0
   59.2298   27.1885   45.0729 H   0  0  0  0  0  0  0  0  0  0  0  0
   58.7167   25.9714   46.2986 H   0  0  0  0  0  0  0  0  0  0  0  0
   56.6120   26.8890   44.5370 H   0  0  0  0  0  0  0  0  0  0  0  0
   56.8557   24.2330   44.2218 H   0  0  0  0  0  0  0  0  0  0  0  0
   57.5187   24.5178   45.8887 H   0  0  0  0  0  0  0  0  0  0  0  0
   54.7289   24.6359   44.9101 H   0  0  0  0  0  0  0  0  0  0  0  0
   55.3761   24.4240   46.5780 H   0  0  0  0  0  0  0  0  0  0  0  0
   55.5190   26.8980   45.2050 H   0  0  0  0  0  0  0  0  0  0  0  0
   55.7592   31.0984   43.7568 H   0  0  0  0  0  0  0  0  0  0  0  0
  1  2  1  0
  2  3  1  0
  3  4  1  0
  4  5  1  0
  5  6  2  0
  6  7  1  0
  7  8  1  0
  8  9  1  0
  9 10  1  0
 10 11  1  0
 11 12  1  0
 12 13  1  0
  7 14  1  0
 14 15  2  0
 14 16  1  0
 16  4  2  0
  1 17  1  0
  1 18  1  0
  1 19  1  0
  2 20  1  0
  2 21  1  0
  3 22  1  0
  3 23  1  0
  5 24  1  0
  8 25  1  0
  8 26  1  0
  9 27  1  0
  9 28  1  0
 10 29  1  0
 11 30  1  0
 11 31  1  0
 12 32  1  0
 12 33  1  0
 13 34  1  0
 16 35  1  0
M  CHG  1   3   1
M  END
>  <UniqueID>  (13) 
11

>  <SMILES>  (13) 
CC[NH2+]c1cnn(CCNCCO)c(=O)c1

>  <Energy>  (13) 
29.804475015650993

>  <Genealogy>  (13) 
CC[NH2+]c1cnn(CCNCCO)c(=O)c1 (protonated)
CC[NH2+]c1cnn(CCNCCO)c(=O)c1 (3D coordinates assigned)
CC[NH2+]c1cnn(CCNCCO)c(=O)c1 (optimized conformer: 29.804475015650993 kcal/mol)

>  <smiles>  (13) 
CCNc1cnn(CCNCCO)c(=O)c1

>  <score_type>  (13) 
oracle

>  <origin>  (13) 
adg

>  <m_score__min__energy>  (13) 
-4.1600000000000001

>  <m_primary>  (13) 
energy

$$$$
13:0
     RDKit          3D

 59 63  0  0  0  0  0  0  0  0999 V2000
   60.4639   34.6496   47.5797 H   0  0  0  0  0  0  0  0  0  0  0  0
   60.7910   33.8700   46.8760 C   0  0  0  0  0  0  0  0  0  0  0  0
   62.0930   33.5500   46.8530 C   0  0  0  0  0  0  0  0  0  0  0  0
   62.6258   33.6045   45.8922 H   0  0  0  0  0  0  0  0  0  0  0  0
   62.8500   33.1280   48.0500 C   0  0  0  0  0  0  0  0  0  0  0  0
   62.3710   32.6760   49.2860 C   0  0  0  0  0  0  0  0  0  0  0  0
   60.9710   32.4670   49.7070 C   0  0  0  0  0  0  0  0  0  0  0  0
   60.3750   33.4250   50.5410 C   0  0  0  0  0  0  0  0  0  0  0  0
   60.9532   34.3026   50.8660 H   0  0  0  0  0  0  0  0  0  0  0  0
   59.0520   33.2710   50.9610 C   0  0  0  0  0  0  0  0  0  0  0  0
   58.5893   34.0305   51.6083 H   0  0  0  0  0  0  0  0  0  0  0  0
   58.3170   32.1560   50.5610 C   0  0  0  0  0  0  0  0  0  0  0  0
   57.2724   32.0414   50.8861 H   0  0  0  0  0  0  0  0  0  0  0  0
   58.9050   31.1840   49.7480 C   0  0  0  0  0  0  0  0  0  0  0  0
   58.3206   30.3042   49.4407 H   0  0  0  0  0  0  0  0  0  0  0  0
   60.2370   31.3200   49.3190 C   0  0  0  0  0  0  0  0  0  0  0  0
   60.8480   30.2360   48.4590 C   0  0  0  0  0  0  0  0  0  0  0  0
   60.7198   30.5018   47.3993 H   0  0  0  0  0  0  0  0  0  0  0  0
   61.9163   30.1507   48.7069 H   0  0  0  0  0  0  0  0  0  0  0  0
   60.1990   28.9340   48.7130 N   0  0  0  0  0  0  0  0  0  0  0  0
   60.3330   28.0590   47.5390 C   0  0  0  0  0  0  0  0  0  0  0  0
   60.4918   27.0223   47.8706 H   0  0  0  0  0  0  0  0  0  0  0  0
   59.4159   28.1141   46.9340 H   0  0  0  0  0  0  0  0  0  0  0  0
   61.1915   28.3860   46.9340 H   0  0  0  0  0  0  0  0  0  0  0  0
   60.7790   28.2720   49.8950 C   0  0  0  0  0  0  0  0  0  0  0  0
   60.3752   28.7329   50.8085 H   0  0  0  0  0  0  0  0  0  0  0  0
   60.5218   27.2026   49.8794 H   0  0  0  0  0  0  0  0  0  0  0  0
   61.8729   28.3863   49.8794 H   0  0  0  0  0  0  0  0  0  0  0  0
   63.4390   32.3550   50.0420 N   0  0  0  0  0  0  0  0  0  0  0  0
   63.5100   31.8530   51.3030 C   0  0  0  0  0  0  0  0  0  0  0  0
   62.5968   31.6683   51.8878 H   0  0  0  0  0  0  0  0  0  0  0  0
   64.7800   31.5750   51.8430 C   0  0  0  0  0  0  0  0  0  0  0  0
   64.9130   31.0640   53.2460 C   0  0  0  0  0  0  0  0  0  0  0  0
   64.7010   31.8783   53.9545 H   0  0  0  0  0  0  0  0  0  0  0  0
   64.1986   30.2431   53.4065 H   0  0  0  0  0  0  0  0  0  0  0  0
   65.9370   30.6956   53.4065 H   0  0  0  0  0  0  0  0  0  0  0  0
   65.9290   31.8450   51.0660 C   0  0  0  0  0  0  0  0  0  0  0  0
   66.9280   31.6549   51.4853 H   0  0  0  0  0  0  0  0  0  0  0  0
   65.8060   32.3540   49.7630 C   0  0  0  0  0  0  0  0  0  0  0  0
   66.6925   32.5536   49.1431 H   0  0  0  0  0  0  0  0  0  0  0  0
   64.5210   32.5970   49.2840 C   0  0  0  0  0  0  0  0  0  0  0  0
   64.2020   33.0620   48.0610 N   0  0  0  0  0  0  0  0  0  0  0  0
   64.8570   33.3110   47.2870 H   0  0  0  0  0  0  0  0  0  0  0  0
   59.7670   33.2400   46.0140 C   0  0  0  0  0  0  0  0  0  0  0  0
   59.3380   31.9920   46.3500 N   0  0  0  0  0  0  0  0  0  0  0  0
   58.4090   31.3210   45.6200 C   0  0  0  0  0  0  0  0  0  0  0  0
   58.0070   30.0360   46.0040 C   0  0  0  0  0  0  0  0  0  0  0  0
   58.4422   29.5682   46.8994 H   0  0  0  0  0  0  0  0  0  0  0  0
   57.0520   29.3470   45.2490 C   0  0  0  0  0  0  0  0  0  0  0  0
   56.6640   28.1020   45.6220 F   0  0  0  0  0  0  0  0  0  0  0  0
   56.4970   29.9390   44.1080 C   0  0  0  0  0  0  0  0  0  0  0  0
   55.7481   29.3926   43.5158 H   0  0  0  0  0  0  0  0  0  0  0  0
   56.8920   31.2230   43.7190 C   0  0  0  0  0  0  0  0  0  0  0  0
   56.4522   31.6862   42.8234 H   0  0  0  0  0  0  0  0  0  0  0  0
   57.8490   31.9200   44.4710 C   0  0  0  0  0  0  0  0  0  0  0  0
   58.2640   33.2050   44.1100 C   0  0  0  0  0  0  0  0  0  0  0  0
   57.8380   33.6909   43.2199 H   0  0  0  0  0  0  0  0  0  0  0  0
   59.2200   33.8720   44.8800 C   0  0  0  0  0  0  0  0  0  0  0  0
   59.5441   34.8858   44.6022 H   0  0  0  0  0  0  0  0  0  0  0  0
  1  2  1  0
  2  3  2  0
  3  4  1  0
  3  5  1  0
  5  6  2  0
  6  7  1  0
  7  8  2  0
  8  9  1  0
  8 10  1  0
 10 11  1  0
 10 12  2  0
 12 13  1  0
 12 14  1  0
 14 15  1  0
 14 16  2  0
 16 17  1  0
 17 18  1  0
 17 19  1  0
 17 20  1  0
 20 21  1  0
 21 22  1  0
 21 23  1  0
 21 24  1  0
 20 25  1  0
 25 26  1  0
 25 27  1  0
 25 28  1  0
  6 29  1  0
 29 30  1  0
 30 31  1  0
 30 32  2  0
 32 33  1  0
 33 34  1  0
 33 35  1  0
 33 36  1  0
 32 37  1  0
 37 38  1  0
 37 39  2  0
 39 40  1  0
 39 41  1  0
 41 42  2  0
 42 43  1  0
  2 44  1  0
 44 45  2  0
 45 46  1  0
 46 47  2  0
 47 48  1  0
 47 49  1  0
 49 50  1  0
 49 51  2  0
 51 52  1  0
 51 53  1  0
 53 54  1  0
 53 55  2  0
 55 56  1  0
 56 57  1  0
 56 58  2  0
 58 59  1  0
 42  5  1  0
 58 44  1  0
 16  7  1  0
 41 29  1  0
 55 46  1  0
M  CHG  1  42   1
M  END
>  <UniqueID>  (14) 
12

>  <SMILES>  (14) 
Cc1ccc2[nH+]c(/C=C/c3ccc4ccc(F)cc4n3)c(-c3ccccc3CN(C)C)n2c1

>  <Energy>  (14) 
112.13174971801597

>  <Genealogy>  (14) 
Cc1ccc2[nH+]c(C=Cc3ccc4ccc(F)cc4n3)c(-c3ccccc3CN(C)C)n2c1 (protonated)
Cc1ccc2[nH+]c(/C=C/c3ccc4ccc(F)cc4n3)c(-c3ccccc3CN(C)C)n2c1 (cis-trans isomerization)
Cc1ccc2[nH+]c(/C=C/c3ccc4ccc(F)cc4n3)c(-c3ccccc3CN(C)C)n2c1 (3D coordinates assigned)
Cc1ccc2[nH+]c(/C=C/c3ccc4ccc(F)cc4n3)c(-c3ccccc3CN(C)C)n2c1 (optimized conformer: 112.13174971801597 kcal/mol)

>  <smiles>  (14) 
Cc1ccc2nc(C=Cc3ccc4ccc(F)cc4n3)c(-c3ccccc3CN(C)C)n2c1

>  <score_type>  (14) 
oracle

>  <origin>  (14) 
adg

>  <m_score__min__energy>  (14) 
-8.3399999999999999

>  <m_primary>  (14) 
energy

$$$$
14:0
     RDKit          3D

 44 46  0  0  0  0  0  0  0  0999 V2000
   56.6200   29.9320   43.2180 C   0  0  0  0  0  0  0  0  0  0  0  0
   56.4260   30.5020   44.5080 O   0  0  0  0  0  0  0  0  0  0  0  0
   57.3890   31.2610   45.1900 C   0  0  0  0  0  0  0  0  0  0  0  0
   58.4870   30.6740   45.8480 C   0  0  0  0  0  0  0  0  0  0  0  0
   59.4190   31.4750   46.5140 C   0  0  0  0  0  0  0  0  0  0  0  0
   59.2670   32.8660   46.5370 C   0  0  0  0  0  0  0  0  0  0  0  0
   60.4650   33.8670   47.3560 S   0  0  0  0  0  0  0  0  0  0  0  0
   59.7460   34.8950   48.1850 O   0  0  0  0  0  0  0  0  0  0  0  0
   61.3170   34.5790   46.3430 O   0  0  0  0  0  0  0  0  0  0  0  0
   61.4680   32.8740   48.3880 N   0  0  0  0  0  0  0  0  0  0  0  0
   62.7760   32.6390   47.7300 C   0  0  0  0  0  0  0  0  0  0  0  0
   63.8560   32.2160   48.7320 C   0  0  0  0  0  0  0  0  0  0  0  0
   64.0100   33.2400   49.7730 N   0  0  0  0  0  0  0  0  0  0  0  0
   65.2530   33.3660   50.4990 C   0  0  0  0  0  0  0  0  0  0  0  0
   65.3490   34.2180   51.6160 C   0  0  0  0  0  0  0  0  0  0  0  0
   66.5550   34.3390   52.3140 C   0  0  0  0  0  0  0  0  0  0  0  0
   67.6770   33.6140   51.9070 C   0  0  0  0  0  0  0  0  0  0  0  0
   68.8450   33.7330   52.5850 F   0  0  0  0  0  0  0  0  0  0  0  0
   67.5960   32.7670   50.7990 C   0  0  0  0  0  0  0  0  0  0  0  0
   66.3930   32.6430   50.0960 C   0  0  0  0  0  0  0  0  0  0  0  0
   62.8960   34.1650   50.0260 C   0  0  0  0  0  0  0  0  0  0  0  0
   61.5590   33.4620   49.7530 C   0  0  0  0  0  0  0  0  0  0  0  0
   58.1790   33.4540   45.8770 C   0  0  0  0  0  0  0  0  0  0  0  0
   57.2460   32.6540   45.2110 C   0  0  0  0  0  0  0  0  0  0  0  0
   56.9728   28.8955   43.3244 H   0  0  0  0  0  0  0  0  0  0  0  0
   55.6683   29.9406   42.6664 H   0  0  0  0  0  0  0  0  0  0  0  0
   57.3688   30.5194   42.6664 H   0  0  0  0  0  0  0  0  0  0  0  0
   58.6117   29.5811   45.8378 H   0  0  0  0  0  0  0  0  0  0  0  0
   60.2762   31.0097   47.0226 H   0  0  0  0  0  0  0  0  0  0  0  0
   60.9820   31.9490   48.4690 H   0  0  0  0  0  0  0  0  0  0  0  0
   62.6578   31.8441   46.9789 H   0  0  0  0  0  0  0  0  0  0  0  0
   63.0961   33.5827   47.2643 H   0  0  0  0  0  0  0  0  0  0  0  0
   63.5653   31.2635   49.1992 H   0  0  0  0  0  0  0  0  0  0  0  0
   64.8119   32.0971   48.2009 H   0  0  0  0  0  0  0  0  0  0  0  0
   64.4693   34.7924   51.9419 H   0  0  0  0  0  0  0  0  0  0  0  0
   66.6198   35.0069   53.1856 H   0  0  0  0  0  0  0  0  0  0  0  0
   68.4802   32.1963   50.4787 H   0  0  0  0  0  0  0  0  0  0  0  0
   66.3367   31.9765   49.2227 H   0  0  0  0  0  0  0  0  0  0  0  0
   62.9270   34.4946   51.0750 H   0  0  0  0  0  0  0  0  0  0  0  0
   62.9898   35.0349   49.3593 H   0  0  0  0  0  0  0  0  0  0  0  0
   61.4327   32.6548   50.4895 H   0  0  0  0  0  0  0  0  0  0  0  0
   60.7695   34.2239   49.8317 H   0  0  0  0  0  0  0  0  0  0  0  0
   58.0592   34.5474   45.8832 H   0  0  0  0  0  0  0  0  0  0  0  0
   56.3924   33.1225   44.6992 H   0  0  0  0  0  0  0  0  0  0  0  0
  1  2  1  0
  2  3  1  0
  3  4  2  0
  4  5  1  0
  5  6  2  0
  6  7  1  0
  7  8  2  0
  7  9  2  0
  7 10  1  0
 10 11  1  0
 11 12  1  0
 12 13  1  0
 13 14  1  0
 14 15  2  0
 15 16  1  0
 16 17  2  0
 17 18  1  0
 17 19  1  0
 19 20  2  0
 13 21  1  0
 21 22  1  0
  6 23  1  0
 23 24  2  0
 24  3  1  0
 22 10  1  0
 20 14  1  0
  1 25  1  0
  1 26  1  0
  1 27  1  0
  4 28  1  0
  5 29  1  0
 10 30  1  0
 11 31  1  0
 11 32  1  0
 12 33  1  0
 12 34  1  0
 15 35  1  0
 16 36  1  0
 19 37  1  0
 20 38  1  0
 21 39  1  0
 21 40  1  0
 22 41  1  0
 22 42  1  0
 23 43  1  0
 24 44  1  0
M  CHG  1  10   1
M  END
>  <UniqueID>  (15) 
13

>  <SMILES>  (15) 
COc1ccc(S(=O)(=O)[NH+]2CCN(c3ccc(F)cc3)CC2)cc1

>  <Energy>  (15) 
52.95880461653877

>  <Genealogy>  (15) 
COc1ccc(S(=O)(=O)[NH+]2CCN(c3ccc(F)cc3)CC2)cc1 (protonated)
COc1ccc(S(=O)(=O)[NH+]2CCN(c3ccc(F)cc3)CC2)cc1 (3D coordinates assigned)
COc1ccc(S(=O)(=O)[NH+]2CCN(c3ccc(F)cc3)CC2)cc1 (nonaromatic ring conformer: 52.95880461653877 kcal/mol)

>  <smiles>  (15) 
COc1ccc(S(=O)(=O)N2CCN(c3ccc(F)cc3)CC2)cc1

>  <score_type>  (15) 
oracle

>  <origin>  (15) 
adg

>  <m_score__min__energy>  (15) 
-5.75

>  <m_primary>  (15) 
energy

$$$$
15:0
     RDKit          3D

 34 37  0  0  0  0  0  0  0  0999 V2000
   59.1690   32.4420   50.0180 C   0  0  0  0  0  0  0  0  0  0  0  0
   58.8140   32.1960   48.6610 O   0  0  0  0  0  0  0  0  0  0  0  0
   59.0380   33.0940   47.6050 C   0  0  0  0  0  0  0  0  0  0  0  0
   59.2600   34.4680   47.8260 C   0  0  0  0  0  0  0  0  0  0  0  0
   59.4630   35.3330   46.7480 C   0  0  0  0  0  0  0  0  0  0  0  0
   59.4460   34.8410   45.4420 C   0  0  0  0  0  0  0  0  0  0  0  0
   59.2300   33.4810   45.2090 C   0  0  0  0  0  0  0  0  0  0  0  0
   59.0290   32.6010   46.2850 C   0  0  0  0  0  0  0  0  0  0  0  0
   58.8160   31.2010   46.0290 N   0  0  0  0  0  0  0  0  0  0  0  0
   59.7150   30.2530   46.4660 C   0  0  0  0  0  0  0  0  0  0  0  0
   60.7530   30.6110   47.0920 O   0  0  0  0  0  0  0  0  0  0  0  0
   59.4860   28.8750   46.2090 C   0  0  0  0  0  0  0  0  0  0  0  0
   60.3800   27.8770   46.6380 C   0  0  0  0  0  0  0  0  0  0  0  0
   60.1160   26.5320   46.3640 C   0  0  0  0  0  0  0  0  0  0  0  0
   58.9640   26.1670   45.6620 C   0  0  0  0  0  0  0  0  0  0  0  0
   58.0650   27.1460   45.2280 C   0  0  0  0  0  0  0  0  0  0  0  0
   58.3210   28.5000   45.4970 C   0  0  0  0  0  0  0  0  0  0  0  0
   57.4810   29.4920   45.1010 N   0  0  0  0  0  0  0  0  0  0  0  0
   56.3120   29.4930   44.4350 C   0  0  0  0  0  0  0  0  0  0  0  0
   55.8520   30.7580   44.2950 N   0  0  0  0  0  0  0  0  0  0  0  0
   56.7300   31.5730   44.8720 N   0  0  0  0  0  0  0  0  0  0  0  0
   57.7100   30.7830   45.3500 C   0  0  0  0  0  0  0  0  0  0  0  0
   58.4481   31.9425   50.6819 H   0  0  0  0  0  0  0  0  0  0  0  0
   60.1781   32.0486   50.2101 H   0  0  0  0  0  0  0  0  0  0  0  0
   59.1550   33.5250   50.2101 H   0  0  0  0  0  0  0  0  0  0  0  0
   59.2735   34.8616   48.8531 H   0  0  0  0  0  0  0  0  0  0  0  0
   59.6366   36.4041   46.9288 H   0  0  0  0  0  0  0  0  0  0  0  0
   59.6029   35.5253   44.5951 H   0  0  0  0  0  0  0  0  0  0  0  0
   59.2172   33.0973   44.1782 H   0  0  0  0  0  0  0  0  0  0  0  0
   61.2893   28.1559   47.1906 H   0  0  0  0  0  0  0  0  0  0  0  0
   60.8188   25.7566   46.7028 H   0  0  0  0  0  0  0  0  0  0  0  0
   58.7639   25.1063   45.4502 H   0  0  0  0  0  0  0  0  0  0  0  0
   57.1585   26.8558   44.6766 H   0  0  0  0  0  0  0  0  0  0  0  0
   55.8027   28.5938   44.0580 H   0  0  0  0  0  0  0  0  0  0  0  0
  1  2  1  0
  2  3  1  0
  3  4  2  0
  4  5  1  0
  5  6  2  0
  6  7  1  0
  7  8  2  0
  8  9  1  0
  9 10  1  0
 10 11  2  0
 10 12  1  0
 12 13  2  0
 13 14  1  0
 14 15  2  0
 15 16  1  0
 16 17  2  0
 17 18  1  0
 18 19  1  0
 19 20  2  0
 20 21  1  0
 21 22  2  0
  8  3  1  0
 22  9  1  0
 17 12  1  0
 22 18  1  0
  1 23  1  0
  1 24  1  0
  1 25  1  0
  4 26  1  0
  5 27  1  0
  6 28  1  0
  7 29  1  0
 13 30  1  0
 14 31  1  0
 15 32  1  0
 16 33  1  0
 19 34  1  0
M  END
>  <UniqueID>  (16) 
14

>  <SMILES>  (16) 
COc1ccccc1-n1c(=O)c2ccccc2n2cnnc12

>  <Energy>  (16) 
93.65303013893168

>  <Genealogy>  (16) 
COc1ccccc1-n1c(=O)c2ccccc2n2cnnc12 (3D coordinates assigned)
COc1ccccc1-n1c(=O)c2ccccc2n2cnnc12 (optimized conformer: 93.65303013893168 kcal/mol)

>  <smiles>  (16) 
COc1ccccc1-n1c(=O)c2ccccc2n2cnnc12

>  <score_type>  (16) 
oracle

>  <origin>  (16) 
adg

>  <m_score__min__energy>  (16) 
-7.2599999999999998

>  <m_primary>  (16) 
energy

$$$$
16:0
     RDKit          3D

 55 59  0  0  0  0  0  0  0  0999 V2000
   58.1580   26.6970   44.2370 C   0  0  0  0  0  0  0  0  0  0  0  0
   58.1160   28.1470   44.6250 C   0  0  0  0  0  0  0  0  0  0  0  0
   57.2130   29.0160   44.0030 C   0  0  0  0  0  0  0  0  0  0  0  0
   57.2080   30.3720   44.3260 C   0  0  0  0  0  0  0  0  0  0  0  0
   58.1120   30.8900   45.2660 C   0  0  0  0  0  0  0  0  0  0  0  0
   58.1350   32.3070   45.4820 N   0  0  0  0  0  0  0  0  0  0  0  0
   57.4710   32.9160   46.4520 N   0  0  0  0  0  0  0  0  0  0  0  0
   57.8140   34.2130   46.3830 C   0  0  0  0  0  0  0  0  0  0  0  0
   58.7190   34.3540   45.3530 C   0  0  0  0  0  0  0  0  0  0  0  0
   58.9140   33.1400   44.8080 N   0  0  0  0  0  0  0  0  0  0  0  0
   59.0070   30.0130   45.9320 C   0  0  0  0  0  0  0  0  0  0  0  0
   59.8980   30.4590   47.0400 C   0  0  0  0  0  0  0  0  0  0  0  0
   61.1360   30.5510   46.8210 O   0  0  0  0  0  0  0  0  0  0  0  0
   59.4010   30.6290   48.3870 N   0  0  0  0  0  0  0  0  0  0  0  0
   58.9390   29.4110   49.0730 C   0  0  0  0  0  0  0  0  0  0  0  0
   58.5130   29.7210   50.5050 C   0  0  0  0  0  0  0  0  0  0  0  0
   57.7810   30.9250   50.5150 O   0  0  0  0  0  0  0  0  0  0  0  0
   58.6410   32.0320   50.3050 C   0  0  0  0  0  0  0  0  0  0  0  0
   59.7480   31.8020   49.2260 C   0  0  2  0  0  0  0  0  0  0  0  0
   60.0100   33.0990   48.4090 C   0  0  0  0  0  0  0  0  0  0  0  0
   61.4580   33.2660   48.0250 C   0  0  0  0  0  0  0  0  0  0  0  0
   61.8100   33.7770   46.7670 C   0  0  0  0  0  0  0  0  0  0  0  0
   63.1580   33.8720   46.4200 C   0  0  0  0  0  0  0  0  0  0  0  0
   64.1410   33.4560   47.3200 C   0  0  0  0  0  0  0  0  0  0  0  0
   63.7610   32.9400   48.5690 C   0  0  0  0  0  0  0  0  0  0  0  0
   64.7480   32.4940   49.5130 N   0  0  0  0  0  0  0  0  0  0  0  0
   65.9370   33.0830   49.7560 C   0  0  0  0  0  0  0  0  0  0  0  0
   66.5940   32.3540   50.7250 C   0  0  0  0  0  0  0  0  0  0  0  0
   65.7300   31.3170   51.0300 C   0  0  0  0  0  0  0  0  0  0  0  0
   64.6160   31.4220   50.2810 N   0  0  0  0  0  0  0  0  0  0  0  0
   62.4370   32.8520   48.8780 N   0  0  0  0  0  0  0  0  0  0  0  0
   59.0150   28.6500   45.5770 C   0  0  0  0  0  0  0  0  0  0  0  0
   58.1760   26.0751   45.1441 H   0  0  0  0  0  0  0  0  0  0  0  0
   57.2666   26.4509   43.6413 H   0  0  0  0  0  0  0  0  0  0  0  0
   59.0621   26.5029   43.6413 H   0  0  0  0  0  0  0  0  0  0  0  0
   56.5045   28.6278   43.2565 H   0  0  0  0  0  0  0  0  0  0  0  0
   56.4867   31.0441   43.8381 H   0  0  0  0  0  0  0  0  0  0  0  0
   57.4397   35.0182   47.0322 H   0  0  0  0  0  0  0  0  0  0  0  0
   59.1966   35.2921   45.0337 H   0  0  0  0  0  0  0  0  0  0  0  0
   58.0821   28.9921   48.5250 H   0  0  0  0  0  0  0  0  0  0  0  0
   59.7675   28.6880   49.1015 H   0  0  0  0  0  0  0  0  0  0  0  0
   57.8841   28.9038   50.8879 H   0  0  0  0  0  0  0  0  0  0  0  0
   59.4026   29.8214   51.1441 H   0  0  0  0  0  0  0  0  0  0  0  0
   58.0269   32.8882   49.9891 H   0  0  0  0  0  0  0  0  0  0  0  0
   59.1650   32.2039   51.2568 H   0  0  0  0  0  0  0  0  0  0  0  0
   60.7023   31.5672   49.7201 H   0  0  0  0  0  0  0  0  0  0  0  0
   59.4049   33.0642   47.4910 H   0  0  0  0  0  0  0  0  0  0  0  0
   59.7363   33.9526   49.0466 H   0  0  0  0  0  0  0  0  0  0  0  0
   61.0307   34.0997   46.0609 H   0  0  0  0  0  0  0  0  0  0  0  0
   63.4462   34.2745   45.4377 H   0  0  0  0  0  0  0  0  0  0  0  0
   65.2052   33.5320   47.0524 H   0  0  0  0  0  0  0  0  0  0  0  0
   66.3178   33.9905   49.2648 H   0  0  0  0  0  0  0  0  0  0  0  0
   67.5850   32.5528   51.1591 H   0  0  0  0  0  0  0  0  0  0  0  0
   65.9237   30.5275   51.7711 H   0  0  0  0  0  0  0  0  0  0  0  0
   59.7367   27.9701   46.0533 H   0  0  0  0  0  0  0  0  0  0  0  0
  1  2  1  0
  2  3  2  0
  3  4  1  0
  4  5  2  0
  5  6  1  0
  6  7  1  0
  7  8  2  0
  8  9  1  0
  9 10  2  0
  5 11  1  0
 11 12  1  0
 12 13  2  0
 12 14  1  0
 14 15  1  0
 15 16  1  0
 16 17  1  0
 17 18  1  0
 18 19  1  0
 19 20  1  0
 20 21  1  0
 21 22  2  0
 22 23  1  0
 23 24  2  0
 24 25  1  0
 25 26  1  0
 26 27  1  0
 27 28  2  0
 28 29  1  0
 29 30  2  0
 25 31  2  0
 11 32  2  0
 32  2  1  0
 10  6  1  0
 19 14  1  0
 31 21  1  0
 30 26  1  0
  1 33  1  0
  1 34  1  0
  1 35  1  0
  3 36  1  0
  4 37  1  0
  8 38  1  0
  9 39  1  0
 15 40  1  0
 15 41  1  0
 16 42  1  0
 16 43  1  0
 18 44  1  0
 18 45  1  0
 19 46  1  1
 20 47  1  0
 20 48  1  0
 22 49  1  0
 23 50  1  0
 24 51  1  0
 27 52  1  0
 28 53  1  0
 29 54  1  0
 32 55  1  0
M  END
>  <UniqueID>  (17) 
15

>  <SMILES>  (17) 
Cc1ccc(-n2nccn2)c(C(=O)N2CCOC[C@@H]2Cc2cccc(-n3cccn3)n2)c1

>  <Energy>  (17) 
143.68803160810776

>  <Genealogy>  (17) 
Cc1ccc(-n2nccn2)c(C(=O)N2CCOC[C@@H]2Cc2cccc(-n3cccn3)n2)c1 (chirality)
Cc1ccc(-n2nccn2)c(C(=O)N2CCOC[C@@H]2Cc2cccc(-n3cccn3)n2)c1 (3D coordinates assigned)
Cc1ccc(-n2nccn2)c(C(=O)N2CCOC[C@@H]2Cc2cccc(-n3cccn3)n2)c1 (nonaromatic ring conformer: 143.68803160810776 kcal/mol)

>  <smiles>  (17) 
Cc1ccc(-n2nccn2)c(C(=O)N2CCOCC2Cc2cccc(-n3cccn3)n2)c1

>  <score_type>  (17) 
oracle

>  <origin>  (17) 
adg

>  <m_score__min__energy>  (17) 
-8.8699999999999992

>  <m_primary>  (17) 
energy

$$$$
17:0
     RDKit          3D

 50 52  0  0  0  0  0  0  0  0999 V2000
   61.0290   29.5860   52.2990 C   0  0  0  0  0  0  0  0  0  0  0  0
   60.4860   29.0170   51.0210 C   0  0  0  0  0  0  0  0  0  0  0  0
   61.1240   27.9330   50.4040 C   0  0  0  0  0  0  0  0  0  0  0  0
   60.6540   27.4390   49.1850 C   0  0  0  0  0  0  0  0  0  0  0  0
   59.5530   28.0410   48.5500 C   0  0  0  0  0  0  0  0  0  0  0  0
   59.0940   27.5710   47.2250 C   0  0  0  0  0  0  0  0  0  0  0  0
   59.4930   26.4530   46.7990 O   0  0  0  0  0  0  0  0  0  0  0  0
   58.1500   28.3620   46.4040 C   0  0  0  0  0  0  0  0  0  0  0  0
   56.9460   27.9250   45.8740 C   0  0  0  0  0  0  0  0  0  0  0  0
   56.3950   26.6490   45.9510 O   0  0  0  0  0  0  0  0  0  0  0  0
   56.3760   28.9970   45.2310 C   0  0  0  0  0  0  0  0  0  0  0  0
   55.1450   28.9770   44.5850 O   0  0  0  0  0  0  0  0  0  0  0  0
   57.1670   30.0860   45.3250 N   0  0  0  0  0  0  0  0  0  0  0  0
   56.8180   31.4390   44.8740 C   0  0  0  0  0  0  0  0  0  0  0  0
   57.9660   32.0670   44.0730 C   0  0  0  0  0  0  0  0  0  0  0  0
   57.9670   33.5400   44.2120 N   0  0  0  0  0  0  0  0  0  0  0  0
   57.0110   33.9590   45.2490 C   0  0  0  0  0  0  0  0  0  0  0  0
   59.3120   34.0360   44.5500 C   0  0  0  0  0  0  0  0  0  0  0  0
   58.2530   29.7090   46.0490 C   0  0  0  0  0  0  0  0  0  0  0  0
   59.3250   30.6280   46.4830 C   0  0  0  0  0  0  0  0  0  0  0  0
   60.6710   30.2570   46.3580 C   0  0  0  0  0  0  0  0  0  0  0  0
   61.6800   31.0970   46.8370 C   0  0  0  0  0  0  0  0  0  0  0  0
   61.3510   32.3140   47.4430 C   0  0  0  0  0  0  0  0  0  0  0  0
   62.7290   33.4470   48.1210 Br  0  0  0  0  0  0  0  0  0  0  0  0
   60.0100   32.6950   47.5610 C   0  0  0  0  0  0  0  0  0  0  0  0
   59.0000   31.8570   47.0820 C   0  0  0  0  0  0  0  0  0  0  0  0
   58.9080   29.1190   49.1770 C   0  0  0  0  0  0  0  0  0  0  0  0
   59.3790   29.6110   50.3970 C   0  0  0  0  0  0  0  0  0  0  0  0
   60.5519   29.0861   53.1548 H   0  0  0  0  0  0  0  0  0  0  0  0
   62.1163   29.4244   52.3395 H   0  0  0  0  0  0  0  0  0  0  0  0
   60.8168   30.6646   52.3395 H   0  0  0  0  0  0  0  0  0  0  0  0
   61.9993   27.4687   50.8819 H   0  0  0  0  0  0  0  0  0  0  0  0
   61.1480   26.5738   48.7188 H   0  0  0  0  0  0  0  0  0  0  0  0
   55.8970   26.2360   45.1740 H   0  0  0  0  0  0  0  0  0  0  0  0
   55.9226   31.3857   44.2373 H   0  0  0  0  0  0  0  0  0  0  0  0
   56.6263   32.0638   45.7588 H   0  0  0  0  0  0  0  0  0  0  0  0
   58.9225   31.6702   44.4441 H   0  0  0  0  0  0  0  0  0  0  0  0
   57.8301   31.8157   43.0107 H   0  0  0  0  0  0  0  0  0  0  0  0
   57.4422   33.7700   46.2431 H   0  0  0  0  0  0  0  0  0  0  0  0
   56.7986   35.0327   45.1396 H   0  0  0  0  0  0  0  0  0  0  0  0
   56.0775   33.3875   45.1396 H   0  0  0  0  0  0  0  0  0  0  0  0
   59.4235   34.0771   45.6436 H   0  0  0  0  0  0  0  0  0  0  0  0
   60.0692   33.3580   44.1294 H   0  0  0  0  0  0  0  0  0  0  0  0
   59.4477   35.0433   44.1294 H   0  0  0  0  0  0  0  0  0  0  0  0
   60.9340   29.3012   45.8812 H   0  0  0  0  0  0  0  0  0  0  0  0
   62.7346   30.8006   46.7373 H   0  0  0  0  0  0  0  0  0  0  0  0
   59.7507   33.6550   48.0312 H   0  0  0  0  0  0  0  0  0  0  0  0
   57.9466   32.1603   47.1740 H   0  0  0  0  0  0  0  0  0  0  0  0
   58.0271   29.5788   48.7052 H   0  0  0  0  0  0  0  0  0  0  0  0
   58.8790   30.4687   50.8707 H   0  0  0  0  0  0  0  0  0  0  0  0
  1  2  1  0
  2  3  2  0
  3  4  1  0
  4  5  2  0
  5  6  1  0
  6  7  2  0
  6  8  1  0
  8  9  1  0
  9 10  1  0
  9 11  2  0
 11 12  1  0
 11 13  1  0
 13 14  1  0
 14 15  1  0
 15 16  1  0
 16 17  1  0
 16 18  1  0
 13 19  1  0
 19 20  1  0
 20 21  2  0
 21 22  1  0
 22 23  2  0
 23 24  1  0
 23 25  1  0
 25 26  2  0
  5 27  1  0
 27 28  2  0
 28  2  1  0
 19  8  2  0
 26 20  1  0
  1 29  1  0
  1 30  1  0
  1 31  1  0
  3 32  1  0
  4 33  1  0
 10 34  1  0
 14 35  1  0
 14 36  1  0
 15 37  1  0
 15 38  1  0
 17 39  1  0
 17 40  1  0
 17 41  1  0
 18 42  1  0
 18 43  1  0
 18 44  1  0
 21 45  1  0
 22 46  1  0
 25 47  1  0
 26 48  1  0
 27 49  1  0
 28 50  1  0
M  CHG  1  12  -1
M  END
>  <UniqueID>  (18) 
16

>  <SMILES>  (18) 
Cc1ccc(C(=O)c2c(O)c([O-])n(CCN(C)C)c2-c2ccc(Br)cc2)cc1

>  <Energy>  (18) 
86.4317752980846

>  <Genealogy>  (18) 
Cc1ccc(C(=O)c2c(O)c([O-])n(CCN(C)C)c2-c2ccc(Br)cc2)cc1 (protonated)
Cc1ccc(C(=O)c2c(O)c([O-])n(CCN(C)C)c2-c2ccc(Br)cc2)cc1 (3D coordinates assigned)
Cc1ccc(C(=O)c2c(O)c([O-])n(CCN(C)C)c2-c2ccc(Br)cc2)cc1 (optimized conformer: 86.4317752980846 kcal/mol)

>  <smiles>  (18) 
Cc1ccc(C(=O)c2c(O)c(O)n(CCN(C)C)c2-c2ccc(Br)cc2)cc1

>  <score_type>  (18) 
oracle

>  <origin>  (18) 
adg

>  <m_score__min__energy>  (18) 
-10.35

>  <m_primary>  (18) 
energy

$$$$
18:0
     RDKit          3D

 50 53  0  0  0  0  0  0  0  0999 V2000
   56.2380   30.0900   43.6700 C   0  0  0  0  0  0  0  0  0  0  0  0
   56.2540   29.6520   45.0260 O   0  0  0  0  0  0  0  0  0  0  0  0
   57.4030   29.2720   45.7360 C   0  0  0  0  0  0  0  0  0  0  0  0
   58.3160   30.2390   46.2020 C   0  0  0  0  0  0  0  0  0  0  0  0
   59.4580   29.8660   46.9180 C   0  0  0  0  0  0  0  0  0  0  0  0
   60.3760   30.8730   47.3760 N   0  0  0  0  0  0  0  0  0  0  0  0
   61.4490   30.5980   48.0950 N   0  0  0  0  0  0  0  0  0  0  0  0
   61.9970   31.7860   48.4160 C   0  0  0  0  0  0  0  0  0  0  0  0
   63.2250   31.9290   49.2260 C   0  0  0  0  0  0  0  0  0  0  0  0
   64.1400   32.9600   48.9530 C   0  0  0  0  0  0  0  0  0  0  0  0
   65.2940   33.0800   49.7280 C   0  0  0  0  0  0  0  0  0  0  0  0
   65.5300   32.1790   50.7650 C   0  0  0  0  0  0  0  0  0  0  0  0
   64.6030   31.1650   51.0130 C   0  0  0  0  0  0  0  0  0  0  0  0
   63.4810   31.0590   50.2490 N   0  0  0  0  0  0  0  0  0  0  0  0
   61.2990   32.8290   47.9150 N   0  0  0  0  0  0  0  0  0  0  0  0
   60.2900   32.2190   47.2610 C   0  0  0  0  0  0  0  0  0  0  0  0
   59.2880   32.9650   46.4700 C   0  0  0  0  0  0  0  0  0  0  0  0
   59.6360   33.5800   45.2540 C   0  0  0  0  0  0  0  0  0  0  0  0
   58.6760   34.2820   44.5200 C   0  0  0  0  0  0  0  0  0  0  0  0
   57.3690   34.3930   45.0010 C   0  0  0  0  0  0  0  0  0  0  0  0
   57.0220   33.8080   46.2210 C   0  0  0  0  0  0  0  0  0  0  0  0
   57.9780   33.1020   46.9570 C   0  0  0  0  0  0  0  0  0  0  0  0
   59.7180   28.5080   47.1370 C   0  0  0  0  0  0  0  0  0  0  0  0
   58.8160   27.5260   46.6950 C   0  0  0  0  0  0  0  0  0  0  0  0
   59.0370   26.1590   46.9350 O   0  0  0  0  0  0  0  0  0  0  0  0
   59.6250   25.2600   46.0000 C   0  0  0  0  0  0  0  0  0  0  0  0
   57.6580   27.8980   45.9930 C   0  0  0  0  0  0  0  0  0  0  0  0
   56.8050   26.8550   45.5820 O   0  0  0  0  0  0  0  0  0  0  0  0
   56.2800   25.8170   46.4010 C   0  0  0  0  0  0  0  0  0  0  0  0
   56.1979   31.1889   43.6401 H   0  0  0  0  0  0  0  0  0  0  0  0
   57.1494   29.7424   43.1616 H   0  0  0  0  0  0  0  0  0  0  0  0
   55.3544   29.6768   43.1616 H   0  0  0  0  0  0  0  0  0  0  0  0
   58.1276   31.3036   45.9995 H   0  0  0  0  0  0  0  0  0  0  0  0
   63.9477   33.6680   48.1334 H   0  0  0  0  0  0  0  0  0  0  0  0
   66.0159   33.8838   49.5211 H   0  0  0  0  0  0  0  0  0  0  0  0
   66.4369   32.2660   51.3814 H   0  0  0  0  0  0  0  0  0  0  0  0
   64.7798   30.4488   51.8290 H   0  0  0  0  0  0  0  0  0  0  0  0
   62.8110   30.2880   50.4650 H   0  0  0  0  0  0  0  0  0  0  0  0
   60.6677   33.5082   44.8792 H   0  0  0  0  0  0  0  0  0  0  0  0
   58.9499   34.7479   43.5619 H   0  0  0  0  0  0  0  0  0  0  0  0
   56.6133   34.9410   44.4190 H   0  0  0  0  0  0  0  0  0  0  0  0
   55.9949   33.9030   46.6032 H   0  0  0  0  0  0  0  0  0  0  0  0
   57.7029   32.6517   47.9221 H   0  0  0  0  0  0  0  0  0  0  0  0
   60.6375   28.2070   47.6603 H   0  0  0  0  0  0  0  0  0  0  0  0
   60.1491   24.4587   46.5415 H   0  0  0  0  0  0  0  0  0  0  0  0
   58.8384   24.8218   45.3681 H   0  0  0  0  0  0  0  0  0  0  0  0
   60.3417   25.8051   45.3681 H   0  0  0  0  0  0  0  0  0  0  0  0
   56.4142   26.0823   47.4601 H   0  0  0  0  0  0  0  0  0  0  0  0
   55.2085   25.6884   46.1881 H   0  0  0  0  0  0  0  0  0  0  0  0
   56.8114   24.8777   46.1881 H   0  0  0  0  0  0  0  0  0  0  0  0
  1  2  1  0
  2  3  1  0
  3  4  2  0
  4  5  1  0
  5  6  1  0
  6  7  1  0
  7  8  2  0
  8  9  1  0
  9 10  2  0
 10 11  1  0
 11 12  2  0
 12 13  1  0
 13 14  2  0
  8 15  1  0
 15 16  2  0
 16 17  1  0
 17 18  2  0
 18 19  1  0
 19 20  2  0
 20 21  1  0
 21 22  2  0
  5 23  2  0
 23 24  1  0
 24 25  1  0
 25 26  1  0
 24 27  2  0
 27 28  1  0
 28 29  1  0
 27  3  1  0
 16  6  1  0
 22 17  1  0
 14  9  1  0
  1 30  1  0
  1 31  1  0
  1 32  1  0
  4 33  1  0
 10 34  1  0
 11 35  1  0
 12 36  1  0
 13 37  1  0
 14 38  1  0
 18 39  1  0
 19 40  1  0
 20 41  1  0
 21 42  1  0
 22 43  1  0
 23 44  1  0
 26 45  1  0
 26 46  1  0
 26 47  1  0
 29 48  1  0
 29 49  1  0
 29 50  1  0
M  CHG  1  14   1
M  END
>  <UniqueID>  (19) 
17

>  <SMILES>  (19) 
COc1cc(-n2nc(-c3cccc[nH+]3)nc2-c2ccccc2)cc(OC)c1OC

>  <Energy>  (19) 
97.42600970485304

>  <Genealogy>  (19) 
COc1cc(-n2nc(-c3cccc[nH+]3)nc2-c2ccccc2)cc(OC)c1OC (protonated)
COc1cc(-n2nc(-c3cccc[nH+]3)nc2-c2ccccc2)cc(OC)c1OC (3D coordinates assigned)
COc1cc(-n2nc(-c3cccc[nH+]3)nc2-c2ccccc2)cc(OC)c1OC (optimized conformer: 97.42600970485304 kcal/mol)

>  <smiles>  (19) 
COc1cc(-n2nc(-c3ccccn3)nc2-c2ccccc2)cc(OC)c1OC

>  <score_type>  (19) 
oracle

>  <origin>  (19) 
adg

>  <m_score__min__energy>  (19) 
-6.3099999999999996

>  <m_primary>  (19) 
energy

$$$$
19:0
     RDKit          3D

 34 35  0  0  0  0  0  0  0  0999 V2000
   61.4930   34.5057   50.3381 H   0  0  0  0  0  0  0  0  0  0  0  0
   61.8510   34.0780   49.3900 C   0  0  0  0  0  0  0  0  0  0  0  0
   63.1440   34.2240   49.0710 C   0  0  0  0  0  0  0  0  0  0  0  0
   63.5947   35.2271   49.0977 H   0  0  0  0  0  0  0  0  0  0  0  0
   63.9910   33.0490   48.6780 C   0  0  0  0  0  0  0  0  0  0  0  0
   63.7336   32.1915   49.3171 H   0  0  0  0  0  0  0  0  0  0  0  0
   65.0485   33.3240   48.8051 H   0  0  0  0  0  0  0  0  0  0  0  0
   63.7620   32.6660   47.2110 C   0  0  0  0  0  0  0  0  0  0  0  0
   62.9520   31.9238   47.1560 H   0  0  0  0  0  0  0  0  0  0  0  0
   64.6973   32.2491   46.8093 H   0  0  0  0  0  0  0  0  0  0  0  0
   63.3780   33.8850   46.3770 C   0  0  0  0  0  0  0  0  0  0  0  0
   63.1154   34.7185   47.0451 H   0  0  0  0  0  0  0  0  0  0  0  0
   64.2275   34.1775   45.7424 H   0  0  0  0  0  0  0  0  0  0  0  0
   62.5142   33.6377   45.7424 H   0  0  0  0  0  0  0  0  0  0  0  0
   60.8770   33.3640   48.5210 C   0  0  0  0  0  0  0  0  0  0  0  0
   60.1050   34.0680   47.5790 C   0  0  0  0  0  0  0  0  0  0  0  0
   60.2318   35.1548   47.4664 H   0  0  0  0  0  0  0  0  0  0  0  0
   59.1780   33.3880   46.7870 C   0  0  0  0  0  0  0  0  0  0  0  0
   58.3950   34.0550   45.8370 C   0  0  0  0  0  0  0  0  0  0  0  0
   58.5044   35.1409   45.6994 H   0  0  0  0  0  0  0  0  0  0  0  0
   57.4740   33.3420   45.0630 C   0  0  0  0  0  0  0  0  0  0  0  0
   56.8603   33.8700   44.3183 H   0  0  0  0  0  0  0  0  0  0  0  0
   57.3280   31.9510   45.2320 C   0  0  0  0  0  0  0  0  0  0  0  0
   56.4180   31.1940   44.4770 O   0  0  0  0  0  0  0  0  0  0  0  0
   56.7660   30.4280   43.3290 C   0  0  0  0  0  0  0  0  0  0  0  0
   57.2016   29.4691   43.6463 H   0  0  0  0  0  0  0  0  0  0  0  0
   55.8649   30.2400   42.7267 H   0  0  0  0  0  0  0  0  0  0  0  0
   57.5004   30.9830   42.7267 H   0  0  0  0  0  0  0  0  0  0  0  0
   58.1120   31.2900   46.1860 C   0  0  0  0  0  0  0  0  0  0  0  0
   58.0022   30.2044   46.3250 H   0  0  0  0  0  0  0  0  0  0  0  0
   59.0330   31.9990   46.9630 C   0  0  0  0  0  0  0  0  0  0  0  0
   59.7680   31.3590   47.8660 O   0  0  0  0  0  0  0  0  0  0  0  0
   60.6620   31.9690   48.6400 C   0  0  0  0  0  0  0  0  0  0  0  0
   61.5070   31.0490   49.7030 S   0  0  0  0  0  0  0  0  0  0  0  0
  1  2  1  0
  2  3  2  0
  3  4  1  0
  3  5  1  0
  5  6  1  0
  5  7  1  0
  5  8  1  0
  8  9  1  0
  8 10  1  0
  8 11  1  0
 11 12  1  0
 11 13  1  0
 11 14  1  0
  2 15  1  0
 15 16  2  0
 16 17  1  0
 16 18  1  0
 18 19  2  0
 19 20  1  0
 19 21  1  0
 21 22  1  0
 21 23  2  0
 23 24  1  0
 24 25  1  0
 25 26  1  0
 25 27  1  0
 25 28  1  0
 23 29  1  0
 29 30  1  0
 29 31  2  0
 31 32  1  0
 32 33  1  0
 33 34  2  0
 33 15  1  0
 31 18  1  0
M  END
>  <UniqueID>  (20) 
18

>  <SMILES>  (20) 
CCC/C=C/c1cc2ccc(OC)cc2oc1=S

>  <Energy>  (20) 
35.09901142299917

>  <Genealogy>  (20) 
CCC/C=C/c1cc2ccc(OC)cc2oc1=S (cis-trans isomerization)
CCC/C=C/c1cc2ccc(OC)cc2oc1=S (3D coordinates assigned)
CCC/C=C/c1cc2ccc(OC)cc2oc1=S (optimized conformer: 35.09901142299917 kcal/mol)

>  <smiles>  (20) 
CCCC=Cc1cc2ccc(OC)cc2oc1=S

>  <score_type>  (20) 
oracle

>  <origin>  (20) 
adg

>  <m_score__min__energy>  (20) 
-6.0999999999999996

>  <m_primary>  (20) 
energy

$$$$
20:0
     RDKit          3D

 43 46  0  0  0  0  0  0  0  0999 V2000
   56.7250   22.5460   43.6840 C   0  0  0  0  0  0  0  0  0  0  0  0
   56.4520   23.1620   44.9380 O   0  0  0  0  0  0  0  0  0  0  0  0
   56.9990   24.3840   45.3540 C   0  0  0  0  0  0  0  0  0  0  0  0
   56.1300   25.4550   45.5890 C   0  0  0  0  0  0  0  0  0  0  0  0
   56.6240   26.6950   46.0060 C   0  0  0  0  0  0  0  0  0  0  0  0
   58.0030   26.8800   46.2060 C   0  0  0  0  0  0  0  0  0  0  0  0
   58.5280   28.1540   46.6250 N   0  0  0  0  0  0  0  0  0  0  0  0
   59.0080   28.3800   47.8400 N   0  0  0  0  0  0  0  0  0  0  0  0
   59.3610   29.6810   47.9190 C   0  0  0  0  0  0  0  0  0  0  0  0
   59.9230   30.2860   49.1630 C   0  0  0  0  0  0  0  0  0  0  0  0
   59.0960   30.3120   46.7020 C   0  0  0  0  0  0  0  0  0  0  0  0
   58.5520   29.3060   45.9280 C   0  0  0  0  0  0  0  0  0  0  0  0
   57.9100   29.5080   44.6640 N   0  0  0  0  0  0  0  0  0  0  0  0
   56.8590   30.4630   44.4990 C   0  0  0  0  0  0  0  0  0  0  0  0
   55.6620   30.0740   44.4780 O   0  0  0  0  0  0  0  0  0  0  0  0
   57.1760   31.9330   44.3990 C   0  0  0  0  0  0  0  0  0  0  0  0
   57.7670   32.6730   45.9700 S   0  0  0  0  0  0  0  0  0  0  0  0
   59.3300   31.7290   46.2190 C   0  0  1  0  0  0  0  0  0  0  0  0
   60.3420   32.4830   47.0520 C   0  0  0  0  0  0  0  0  0  0  0  0
   59.9940   33.6000   47.8360 C   0  0  0  0  0  0  0  0  0  0  0  0
   60.9720   34.2320   48.6050 C   0  0  0  0  0  0  0  0  0  0  0  0
   62.2820   33.7530   48.5960 C   0  0  0  0  0  0  0  0  0  0  0  0
   62.5940   32.6390   47.8160 C   0  0  0  0  0  0  0  0  0  0  0  0
   61.6280   32.0350   47.0730 N   0  0  0  0  0  0  0  0  0  0  0  0
   58.8770   25.8100   45.9550 C   0  0  0  0  0  0  0  0  0  0  0  0
   58.3820   24.5710   45.5380 C   0  0  0  0  0  0  0  0  0  0  0  0
   57.1655   21.5521   43.8519 H   0  0  0  0  0  0  0  0  0  0  0  0
   55.7891   22.4410   43.1156 H   0  0  0  0  0  0  0  0  0  0  0  0
   57.4314   23.1688   43.1156 H   0  0  0  0  0  0  0  0  0  0  0  0
   55.0479   25.3204   45.4444 H   0  0  0  0  0  0  0  0  0  0  0  0
   55.9295   27.5304   46.1785 H   0  0  0  0  0  0  0  0  0  0  0  0
   59.4729   29.8015   50.0420 H   0  0  0  0  0  0  0  0  0  0  0  0
   61.0131   30.1398   49.1817 H   0  0  0  0  0  0  0  0  0  0  0  0
   59.6970   31.3624   49.1817 H   0  0  0  0  0  0  0  0  0  0  0  0
   57.9575   32.0679   43.6368 H   0  0  0  0  0  0  0  0  0  0  0  0
   56.2385   32.4452   44.1370 H   0  0  0  0  0  0  0  0  0  0  0  0
   59.7826   31.6262   45.2217 H   0  0  0  0  0  0  0  0  0  0  0  0
   58.9587   33.9716   47.8421 H   0  0  0  0  0  0  0  0  0  0  0  0
   60.7101   35.1072   49.2178 H   0  0  0  0  0  0  0  0  0  0  0  0
   63.0597   34.2475   49.1966 H   0  0  0  0  0  0  0  0  0  0  0  0
   63.6224   32.2488   47.8019 H   0  0  0  0  0  0  0  0  0  0  0  0
   59.9602   25.9479   46.0876 H   0  0  0  0  0  0  0  0  0  0  0  0
   59.0764   23.7383   45.3528 H   0  0  0  0  0  0  0  0  0  0  0  0
  1  2  1  0
  2  3  1  0
  3  4  2  0
  4  5  1  0
  5  6  2  0
  6  7  1  0
  7  8  1  0
  8  9  2  0
  9 10  1  0
  9 11  1  0
 11 12  2  0
 12 13  1  0
 13 14  1  0
 14 15  2  0
 14 16  1  0
 16 17  1  0
 17 18  1  0
 18 19  1  0
 19 20  2  0
 20 21  1  0
 21 22  2  0
 22 23  1  0
 23 24  2  0
  6 25  1  0
 25 26  2  0
 26  3  1  0
 12  7  1  0
 24 19  1  0
 18 11  1  0
  1 27  1  0
  1 28  1  0
  1 29  1  0
  4 30  1  0
  5 31  1  0
 10 32  1  0
 10 33  1  0
 10 34  1  0
 16 35  1  0
 16 36  1  0
 18 37  1  6
 20 38  1  0
 21 39  1  0
 22 40  1  0
 23 41  1  0
 25 42  1  0
 26 43  1  0
M  CHG  1  13  -1
M  END
>  <UniqueID>  (21) 
19

>  <SMILES>  (21) 
COc1ccc(-n2nc(C)c3c2[N-]C(=O)CS[C@H]3c2ccccn2)cc1

>  <Energy>  (21) 
93.20463431498418

>  <Genealogy>  (21) 
COc1ccc(-n2nc(C)c3c2[N-]C(=O)CSC3c2ccccn2)cc1 (protonated)
COc1ccc(-n2nc(C)c3c2[N-]C(=O)CS[C@H]3c2ccccn2)cc1 (chirality)
COc1ccc(-n2nc(C)c3c2[N-]C(=O)CS[C@H]3c2ccccn2)cc1 (3D coordinates assigned)
COc1ccc(-n2nc(C)c3c2[N-]C(=O)CS[C@H]3c2ccccn2)cc1 (nonaromatic ring conformer: 93.20463431498418 kcal/mol)

>  <smiles>  (21) 
COc1ccc(-n2nc(C)c3c2NC(=O)CSC3c2ccccn2)cc1

>  <score_type>  (21) 
oracle

>  <origin>  (21) 
adg

>  <m_score__min__energy>  (21) 
-7.1699999999999999

>  <m_primary>  (21) 
energy

$$$$
21:0
     RDKit          3D

 32 32  0  0  0  0  0  0  0  0999 V2000
   58.1000   32.6700   43.6540 C   0  0  0  0  0  0  0  0  0  0  0  0
   57.7180   31.7630   42.4940 C   0  0  0  0  0  0  0  0  0  0  0  0
   57.1620   30.5410   42.9790 N   0  0  0  0  0  0  0  0  0  0  0  0
   56.6560   30.6540   44.3050 C   0  0  0  0  0  0  0  0  0  0  0  0
   55.9690   29.4210   44.8380 C   0  0  0  0  0  0  0  0  0  0  0  0
   56.7790   28.2710   44.5000 N   0  0  0  0  0  0  0  0  0  0  0  0
   57.7650   27.8150   45.3900 C   0  0  0  0  0  0  0  0  0  0  0  0
   57.5650   26.8770   46.3760 C   0  0  0  0  0  0  0  0  0  0  0  0
   56.3000   26.2550   46.5270 N   0  0  0  0  0  0  0  0  0  0  0  0
   56.2130   25.2210   47.2160 O   0  0  0  0  0  0  0  0  0  0  0  0
   55.1440   26.7200   45.9590 O   0  0  0  0  0  0  0  0  0  0  0  0
   58.5930   26.5390   47.1790 N   0  0  0  0  0  0  0  0  0  0  0  0
   59.8210   27.0800   47.0650 C   0  0  0  0  0  0  0  0  0  0  0  0
   60.8180   26.7910   47.7980 N   0  0  0  0  0  0  0  0  0  0  0  0
   60.0210   28.0070   46.0900 N   0  0  0  0  0  0  0  0  0  0  0  0
   59.0390   28.3890   45.2550 C   0  0  0  0  0  0  0  0  0  0  0  0
   59.2750   29.2820   44.3370 N   0  0  0  0  0  0  0  0  0  0  0  0
   57.8851   32.1598   44.6045 H   0  0  0  0  0  0  0  0  0  0  0  0
   59.1733   32.9044   43.5981 H   0  0  0  0  0  0  0  0  0  0  0  0
   57.5178   33.6016   43.5981 H   0  0  0  0  0  0  0  0  0  0  0  0
   56.9752   32.2741   41.8639 H   0  0  0  0  0  0  0  0  0  0  0  0
   58.6201   31.5360   41.9070 H   0  0  0  0  0  0  0  0  0  0  0  0
   57.7750   29.7160   42.8220 H   0  0  0  0  0  0  0  0  0  0  0  0
   57.4986   30.8891   44.9718 H   0  0  0  0  0  0  0  0  0  0  0  0
   55.8882   31.4411   44.2726 H   0  0  0  0  0  0  0  0  0  0  0  0
   55.8653   29.4953   45.9306 H   0  0  0  0  0  0  0  0  0  0  0  0
   54.9666   29.3232   44.3957 H   0  0  0  0  0  0  0  0  0  0  0  0
   56.6560   27.7490   43.5900 H   0  0  0  0  0  0  0  0  0  0  0  0
   58.4770   25.8290   47.9390 H   0  0  0  0  0  0  0  0  0  0  0  0
   61.7410   26.5250   47.4160 H   0  0  0  0  0  0  0  0  0  0  0  0
   60.9550   28.4700   45.9420 H   0  0  0  0  0  0  0  0  0  0  0  0
   58.8600   29.2550   43.3970 H   0  0  0  0  0  0  0  0  0  0  0  0
  1  2  1  0
  2  3  1  0
  3  4  1  0
  4  5  1  0
  5  6  1  0
  6  7  1  0
  7  8  2  0
  8  9  1  0
  9 10  2  0
  9 11  1  0
  8 12  1  0
 12 13  1  0
 13 14  2  3
 13 15  1  0
 15 16  1  0
 16 17  2  3
 16  7  1  0
  1 18  1  0
  1 19  1  0
  1 20  1  0
  2 21  1  0
  2 22  1  0
  3 23  1  0
  4 24  1  0
  4 25  1  0
  5 26  1  0
  5 27  1  0
  6 28  1  0
 12 29  1  0
 14 30  1  0
 15 31  1  0
 17 32  1  0
M  CHG  2   9   1  11  -1
M  END
>  <smiles>  (22) 
CCNCCNc1c([N+](=O)[O-])[nH]c(=N)[nH]c1=N

>  <score_type>  (22) 
oracle

>  <origin>  (22) 
adg

>  <m_score__min__energy>  (22) 
-5.54

>  <m_primary>  (22) 
energy

$$$$
22:0
     RDKit          3D

 31 33  0  0  0  0  0  0  0  0999 V2000
   57.3962   33.6214   42.7691 H   0  0  0  0  0  0  0  0  0  0  0  0
   57.7880   32.8780   43.4790 C   0  0  0  0  0  0  0  0  0  0  0  0
   57.8090   31.6210   43.1470 N   0  0  0  0  0  0  0  0  0  0  0  0
   57.1800   30.5990   43.8850 N   0  0  0  0  0  0  0  0  0  0  0  0
   55.8560   30.3970   44.1170 C   0  0  0  0  0  0  0  0  0  0  0  0
   55.0623   31.0525   43.7294 H   0  0  0  0  0  0  0  0  0  0  0  0
   55.6190   29.2970   44.8800 N   0  0  0  0  0  0  0  0  0  0  0  0
   56.8560   28.8150   45.1180 C   0  0  0  0  0  0  0  0  0  0  0  0
   57.2030   27.6870   45.8570 C   0  0  0  0  0  0  0  0  0  0  0  0
   56.4347   27.0618   46.3353 H   0  0  0  0  0  0  0  0  0  0  0  0
   58.5720   27.3740   45.9710 C   0  0  0  0  0  0  0  0  0  0  0  0
   58.8846   26.4909   46.5476 H   0  0  0  0  0  0  0  0  0  0  0  0
   59.5480   28.1890   45.3480 C   0  0  0  0  0  0  0  0  0  0  0  0
   60.6140   27.9347   45.4427 H   0  0  0  0  0  0  0  0  0  0  0  0
   59.1620   29.3230   44.6080 C   0  0  0  0  0  0  0  0  0  0  0  0
   59.9076   29.9674   44.1192 H   0  0  0  0  0  0  0  0  0  0  0  0
   57.7990   29.5970   44.5190 C   0  0  0  0  0  0  0  0  0  0  0  0
   58.2840   33.3190   44.7980 C   0  0  0  0  0  0  0  0  0  0  0  0
   59.2670   34.3200   44.9160 C   0  0  0  0  0  0  0  0  0  0  0  0
   59.6807   34.7898   44.0115 H   0  0  0  0  0  0  0  0  0  0  0  0
   59.7200   34.7200   46.1760 C   0  0  0  0  0  0  0  0  0  0  0  0
   60.4826   35.5084   46.2583 H   0  0  0  0  0  0  0  0  0  0  0  0
   59.2070   34.1210   47.3370 C   0  0  0  0  0  0  0  0  0  0  0  0
   59.6650   34.5790   48.6890 C   0  0  0  0  0  0  0  0  0  0  0  0
   59.1157   34.0297   49.4678 H   0  0  0  0  0  0  0  0  0  0  0  0
   60.7428   34.3866   48.7956 H   0  0  0  0  0  0  0  0  0  0  0  0
   59.4726   35.6568   48.7956 H   0  0  0  0  0  0  0  0  0  0  0  0
   58.2150   33.1370   47.2220 C   0  0  0  0  0  0  0  0  0  0  0  0
   57.7913   32.6792   48.1280 H   0  0  0  0  0  0  0  0  0  0  0  0
   57.7610   32.7340   45.9620 C   0  0  0  0  0  0  0  0  0  0  0  0
   56.9895   31.9540   45.8826 H   0  0  0  0  0  0  0  0  0  0  0  0
  1  2  1  0
  2  3  2  0
  3  4  1  0
  4  5  1  0
  5  6  1  0
  5  7  2  0
  7  8  1  0
  8  9  2  0
  9 10  1  0
  9 11  1  0
 11 12  1  0
 11 13  2  0
 13 14  1  0
 13 15  1  0
 15 16  1  0
 15 17  2  0
  2 18  1  0
 18 19  2  0
 19 20  1  0
 19 21  1  0
 21 22  1  0
 21 23  2  0
 23 24  1  0
 24 25  1  0
 24 26  1  0
 24 27  1  0
 23 28  1  0
 28 29  1  0
 28 30  2  0
 30 31  1  0
 17  4  1  0
 30 18  1  0
 17  8  1  0
M  END
>  <UniqueID>  (23) 
20

>  <SMILES>  (23) 
Cc1ccc(/C=N/n2cnc3ccccc32)cc1

>  <Energy>  (23) 
72.76747506865236

>  <Genealogy>  (23) 
Cc1ccc(/C=N/n2cnc3ccccc32)cc1 (cis-trans isomerization)
Cc1ccc(/C=N/n2cnc3ccccc32)cc1 (3D coordinates assigned)
Cc1ccc(/C=N/n2cnc3ccccc32)cc1 (optimized conformer: 72.76747506865236 kcal/mol)

>  <smiles>  (23) 
Cc1ccc(C=Nn2cnc3ccccc32)cc1

>  <score_type>  (23) 
oracle

>  <origin>  (23) 
adg

>  <m_score__min__energy>  (23) 
-7.1799999999999997

>  <m_primary>  (23) 
energy

$$$$
23:0
     RDKit          3D

 50 52  0  0  0  0  0  0  0  0999 V2000
   63.1190   33.8430   46.3860 C   0  0  0  0  0  0  0  0  0  0  0  0
   63.7710   33.4240   47.6990 C   0  0  0  0  0  0  0  0  0  0  0  0
   62.7340   33.2540   48.7510 N   0  0  0  0  0  0  0  0  0  0  0  0
   62.6160   34.4540   49.6120 C   0  0  0  0  0  0  0  0  0  0  0  0
   63.4210   34.2980   50.9010 C   0  0  0  0  0  0  0  0  0  0  0  0
   62.9830   32.0480   49.5760 C   0  0  0  0  0  0  0  0  0  0  0  0
   61.9470   30.9500   49.2870 C   0  0  0  0  0  0  0  0  0  0  0  0
   60.9300   31.3400   48.1980 C   0  0  0  0  0  0  0  0  0  0  0  0
   60.1050   32.4960   48.5890 N   0  0  0  0  0  0  0  0  0  0  0  0
   59.7440   33.2760   47.4250 C   0  0  0  0  0  0  0  0  0  0  0  0
   60.0700   34.6460   47.4000 C   0  0  0  0  0  0  0  0  0  0  0  0
   59.7520   35.4400   46.3010 C   0  0  0  0  0  0  0  0  0  0  0  0
   59.0930   34.8910   45.2060 C   0  0  0  0  0  0  0  0  0  0  0  0
   58.7310   33.5370   45.2030 C   0  0  0  0  0  0  0  0  0  0  0  0
   58.0540   33.0040   44.0960 C   0  0  0  0  0  0  0  0  0  0  0  0
   57.6690   31.6590   44.0780 C   0  0  0  0  0  0  0  0  0  0  0  0
   56.9890   31.1260   42.9710 C   0  0  0  0  0  0  0  0  0  0  0  0
   56.6020   29.7830   42.9650 C   0  0  0  0  0  0  0  0  0  0  0  0
   56.8890   28.9640   44.0600 C   0  0  0  0  0  0  0  0  0  0  0  0
   57.5650   29.4840   45.1670 C   0  0  0  0  0  0  0  0  0  0  0  0
   57.9610   30.8310   45.1860 C   0  0  0  0  0  0  0  0  0  0  0  0
   58.6400   31.3600   46.2930 C   0  0  0  0  0  0  0  0  0  0  0  0
   59.0440   32.7130   46.3180 C   0  0  0  0  0  0  0  0  0  0  0  0
   62.2109   34.4266   46.5974 H   0  0  0  0  0  0  0  0  0  0  0  0
   63.8234   34.4579   45.8067 H   0  0  0  0  0  0  0  0  0  0  0  0
   62.8523   32.9468   45.8067 H   0  0  0  0  0  0  0  0  0  0  0  0
   64.3023   32.4718   47.5542 H   0  0  0  0  0  0  0  0  0  0  0  0
   64.4805   34.2032   48.0143 H   0  0  0  0  0  0  0  0  0  0  0  0
   62.9907   35.3286   49.0599 H   0  0  0  0  0  0  0  0  0  0  0  0
   61.5571   34.5848   49.8795 H   0  0  0  0  0  0  0  0  0  0  0  0
   62.7551   34.4270   51.7670 H   0  0  0  0  0  0  0  0  0  0  0  0
   63.8729   33.2956   50.9321 H   0  0  0  0  0  0  0  0  0  0  0  0
   64.2146   35.0591   50.9321 H   0  0  0  0  0  0  0  0  0  0  0  0
   63.9877   31.6609   49.3507 H   0  0  0  0  0  0  0  0  0  0  0  0
   62.9033   32.3301   50.6362 H   0  0  0  0  0  0  0  0  0  0  0  0
   62.4799   30.0455   48.9585 H   0  0  0  0  0  0  0  0  0  0  0  0
   61.3811   30.7849   50.2157 H   0  0  0  0  0  0  0  0  0  0  0  0
   61.4771   31.5915   47.2774 H   0  0  0  0  0  0  0  0  0  0  0  0
   60.2568   30.4836   48.0453 H   0  0  0  0  0  0  0  0  0  0  0  0
   59.2350   32.1470   49.0530 H   0  0  0  0  0  0  0  0  0  0  0  0
   60.5920   33.0950   49.2920 H   0  0  0  0  0  0  0  0  0  0  0  0
   60.5839   35.0959   48.2622 H   0  0  0  0  0  0  0  0  0  0  0  0
   60.0232   36.5060   46.2989 H   0  0  0  0  0  0  0  0  0  0  0  0
   58.8547   35.5229   44.3377 H   0  0  0  0  0  0  0  0  0  0  0  0
   57.8239   33.6488   43.2350 H   0  0  0  0  0  0  0  0  0  0  0  0
   56.7604   31.7669   42.1067 H   0  0  0  0  0  0  0  0  0  0  0  0
   56.0699   29.3696   42.0956 H   0  0  0  0  0  0  0  0  0  0  0  0
   56.5822   27.9077   44.0507 H   0  0  0  0  0  0  0  0  0  0  0  0
   57.7878   28.8354   46.0270 H   0  0  0  0  0  0  0  0  0  0  0  0
   58.8611   30.7120   47.1540 H   0  0  0  0  0  0  0  0  0  0  0  0
  1  2  1  0
  2  3  1  0
  3  4  1  0
  4  5  1  0
  3  6  1  0
  6  7  1  0
  7  8  1  0
  8  9  1  0
  9 10  1  0
 10 11  2  0
 11 12  1  0
 12 13  2  0
 13 14  1  0
 14 15  2  0
 15 16  1  0
 16 17  2  0
 17 18  1  0
 18 19  2  0
 19 20  1  0
 20 21  2  0
 21 22  1  0
 22 23  2  0
 23 10  1  0
 23 14  1  0
 21 16  1  0
  1 24  1  0
  1 25  1  0
  1 26  1  0
  2 27  1  0
  2 28  1  0
  4 29  1  0
  4 30  1  0
  5 31  1  0
  5 32  1  0
  5 33  1  0
  6 34  1  0
  6 35  1  0
  7 36  1  0
  7 37  1  0
  8 38  1  0
  8 39  1  0
  9 40  1  0
  9 41  1  0
 11 42  1  0
 12 43  1  0
 13 44  1  0
 15 45  1  0
 17 46  1  0
 18 47  1  0
 19 48  1  0
 20 49  1  0
 22 50  1  0
M  CHG  1   9   1
M  END
>  <UniqueID>  (24) 
21

>  <SMILES>  (24) 
CCN(CC)CCC[NH2+]c1cccc2cc3ccccc3cc12

>  <Energy>  (24) 
58.323456629162

>  <Genealogy>  (24) 
CCN(CC)CCC[NH2+]c1cccc2cc3ccccc3cc12 (protonated)
CCN(CC)CCC[NH2+]c1cccc2cc3ccccc3cc12 (3D coordinates assigned)
CCN(CC)CCC[NH2+]c1cccc2cc3ccccc3cc12 (optimized conformer: 58.323456629162 kcal/mol)

>  <smiles>  (24) 
CCN(CC)CCCNc1cccc2cc3ccccc3cc12

>  <score_type>  (24) 
oracle

>  <origin>  (24) 
adg

>  <m_score__min__energy>  (24) 
-6.3300000000000001

>  <m_primary>  (24) 
energy

$$$$
24:0
     RDKit          3D

 44 46  0  0  0  0  0  0  0  0999 V2000
   59.6050   33.5310   50.6400 C   0  0  0  0  0  0  0  0  0  0  0  0
   60.0680   34.2200   49.4840 O   0  0  0  0  0  0  0  0  0  0  0  0
   61.2840   33.9600   48.8340 C   0  0  0  0  0  0  0  0  0  0  0  0
   62.5220   34.0720   49.5000 C   0  0  0  0  0  0  0  0  0  0  0  0
   63.7170   33.8310   48.8180 C   0  0  0  0  0  0  0  0  0  0  0  0
   63.6940   33.4760   47.4690 C   0  0  0  0  0  0  0  0  0  0  0  0
   62.4750   33.3570   46.7990 C   0  0  0  0  0  0  0  0  0  0  0  0
   61.2660   33.5920   47.4730 C   0  0  0  0  0  0  0  0  0  0  0  0
   60.0220   33.4540   46.7640 N   0  0  0  0  0  0  0  0  0  0  0  0
   59.0060   32.5040   47.2340 C   0  0  0  0  0  0  0  0  0  0  0  0
   58.2740   31.8190   46.0580 C   0  0  0  0  0  0  0  0  0  0  0  0
   58.4380   32.5290   44.7670 N   0  0  0  0  0  0  0  0  0  0  0  0
   57.3990   32.1040   43.8080 C   0  0  0  0  0  0  0  0  0  0  0  0
   56.9540   30.7030   44.1090 C   0  0  0  0  0  0  0  0  0  0  0  0
   55.8420   30.5150   44.6730 O   0  0  0  0  0  0  0  0  0  0  0  0
   57.7940   29.5890   43.7820 N   0  0  0  0  0  0  0  0  0  0  0  0
   57.4220   28.2240   44.1390 C   0  0  0  0  0  0  0  0  0  0  0  0
   58.5490   27.4220   44.7670 C   0  0  0  0  0  0  0  0  0  0  0  0
   58.1510   27.1710   43.3210 C   0  0  0  0  0  0  0  0  0  0  0  0
   58.4220   33.9900   44.9640 C   0  0  0  0  0  0  0  0  0  0  0  0
   59.7060   34.3980   45.6850 C   0  0  0  0  0  0  0  0  0  0  0  0
   59.9556   34.0527   51.5427 H   0  0  0  0  0  0  0  0  0  0  0  0
   58.5053   33.5048   50.6354 H   0  0  0  0  0  0  0  0  0  0  0  0
   59.9963   32.5029   50.6354 H   0  0  0  0  0  0  0  0  0  0  0  0
   62.5468   34.3510   50.5637 H   0  0  0  0  0  0  0  0  0  0  0  0
   64.6780   33.9213   49.3456 H   0  0  0  0  0  0  0  0  0  0  0  0
   64.6365   33.2898   46.9332 H   0  0  0  0  0  0  0  0  0  0  0  0
   62.4617   33.0771   45.7353 H   0  0  0  0  0  0  0  0  0  0  0  0
   59.4959   31.7326   47.8464 H   0  0  0  0  0  0  0  0  0  0  0  0
   58.2621   33.0617   47.8218 H   0  0  0  0  0  0  0  0  0  0  0  0
   58.6706   30.7989   45.9475 H   0  0  0  0  0  0  0  0  0  0  0  0
   57.2003   31.8248   46.2970 H   0  0  0  0  0  0  0  0  0  0  0  0
   56.5366   32.7827   43.8830 H   0  0  0  0  0  0  0  0  0  0  0  0
   57.8164   32.1360   42.7908 H   0  0  0  0  0  0  0  0  0  0  0  0
   58.7420   29.7640   43.3770 H   0  0  0  0  0  0  0  0  0  0  0  0
   56.3732   28.4267   44.4015 H   0  0  0  0  0  0  0  0  0  0  0  0
   59.5084   27.9084   44.9969 H   0  0  0  0  0  0  0  0  0  0  0  0
   58.6512   26.7958   45.6656 H   0  0  0  0  0  0  0  0  0  0  0  0
   58.8224   27.4760   42.5048 H   0  0  0  0  0  0  0  0  0  0  0  0
   57.8459   26.2882   42.7400 H   0  0  0  0  0  0  0  0  0  0  0  0
   58.3682   34.4951   43.9883 H   0  0  0  0  0  0  0  0  0  0  0  0
   57.5460   34.2792   45.5632 H   0  0  0  0  0  0  0  0  0  0  0  0
   60.5360   34.4113   44.9632 H   0  0  0  0  0  0  0  0  0  0  0  0
   59.5619   35.3970   46.1223 H   0  0  0  0  0  0  0  0  0  0  0  0
  1  2  1  0
  2  3  1  0
  3  4  2  0
  4  5  1  0
  5  6  2  0
  6  7  1  0
  7  8  2  0
  8  9  1  0
  9 10  1  0
 10 11  1  0
 11 12  1  0
 12 13  1  0
 13 14  1  0
 14 15  2  0
 14 16  1  0
 16 17  1  0
 17 18  1  0
 18 19  1  0
 12 20  1  0
 20 21  1  0
  8  3  1  0
 21  9  1  0
 19 17  1  0
  1 22  1  0
  1 23  1  0
  1 24  1  0
  4 25  1  0
  5 26  1  0
  6 27  1  0
  7 28  1  0
 10 29  1  0
 10 30  1  0
 11 31  1  0
 11 32  1  0
 13 33  1  0
 13 34  1  0
 16 35  1  0
 17 36  1  0
 18 37  1  0
 18 38  1  0
 19 39  1  0
 19 40  1  0
 20 41  1  0
 20 42  1  0
 21 43  1  0
 21 44  1  0
M  END
>  <UniqueID>  (25) 
22

>  <SMILES>  (25) 
COc1ccccc1N1CCN(CC(=O)NC2CC2)CC1

>  <Energy>  (25) 
315.3911288831602

>  <Genealogy>  (25) 
COc1ccccc1N1CCN(CC(=O)NC2CC2)CC1 (3D coordinates assigned)
COc1ccccc1N1CCN(CC(=O)NC2CC2)CC1 (nonaromatic ring conformer: 315.3911288831602 kcal/mol)

>  <smiles>  (25) 
COc1ccccc1N1CCN(CC(=O)NC2CC2)CC1

>  <score_type>  (25) 
oracle

>  <origin>  (25) 
adg

>  <m_score__min__energy>  (25) 
-7.3600000000000003

>  <m_primary>  (25) 
energy

$$$$
25:0
     RDKit          3D

 52 54  0  0  0  0  0  0  0  0999 V2000
   62.4920   33.8040   46.7460 C   0  0  0  0  0  0  0  0  0  0  0  0
   61.2000   33.5150   47.4500 C   0  0  0  0  0  0  0  0  0  0  0  0
   61.2090   33.4590   48.7090 O   0  0  0  0  0  0  0  0  0  0  0  0
   59.9240   33.3260   46.7010 C   0  0  0  0  0  0  0  0  0  0  0  0
   59.5160   32.0360   46.3030 C   0  0  0  0  0  0  0  0  0  0  0  0
   58.3260   31.8410   45.5850 C   0  0  0  0  0  0  0  0  0  0  0  0
   57.9260   30.5140   45.2010 N   0  0  0  0  0  0  0  0  0  0  0  0
   58.0880   29.3990   45.9370 C   0  0  0  0  0  0  0  0  0  0  0  0
   57.5760   28.3320   45.2200 C   0  0  0  0  0  0  0  0  0  0  0  0
   57.5270   26.9110   45.6420 C   0  0  0  0  0  0  0  0  0  0  0  0
   56.3370   26.3270   46.1170 C   0  0  0  0  0  0  0  0  0  0  0  0
   56.3100   24.9870   46.5090 C   0  0  0  0  0  0  0  0  0  0  0  0
   57.4730   24.1980   46.4320 C   0  0  0  0  0  0  0  0  0  0  0  0
   57.5040   22.8460   46.8100 O   0  0  0  0  0  0  0  0  0  0  0  0
   57.3890   21.7310   45.9240 C   0  0  0  0  0  0  0  0  0  0  0  0
   56.0530   21.7580   45.1710 C   0  0  0  0  0  0  0  0  0  0  0  0
   56.2660   21.8680   43.7110 N   0  0  0  0  0  0  0  0  0  0  0  0
   56.0370   23.2470   43.2450 C   0  0  0  0  0  0  0  0  0  0  0  0
   57.6360   21.4550   43.3640 C   0  0  0  0  0  0  0  0  0  0  0  0
   58.6570   24.7800   45.9680 C   0  0  0  0  0  0  0  0  0  0  0  0
   58.6870   26.1200   45.5760 C   0  0  0  0  0  0  0  0  0  0  0  0
   57.1050   28.7750   44.0350 N   0  0  0  0  0  0  0  0  0  0  0  0
   57.3410   30.1040   44.0510 C   0  0  0  0  0  0  0  0  0  0  0  0
   56.9970   30.9920   42.8960 C   0  0  0  0  0  0  0  0  0  0  0  0
   57.5190   32.9460   45.2800 C   0  0  0  0  0  0  0  0  0  0  0  0
   57.9080   34.2280   45.6660 C   0  0  0  0  0  0  0  0  0  0  0  0
   59.0990   34.4260   46.3710 C   0  0  0  0  0  0  0  0  0  0  0  0
   59.4400   35.7210   46.7490 O   0  0  0  0  0  0  0  0  0  0  0  0
   63.2831   33.9810   47.4895 H   0  0  0  0  0  0  0  0  0  0  0  0
   62.7664   32.9450   46.1160 H   0  0  0  0  0  0  0  0  0  0  0  0
   62.3743   34.6980   46.1160 H   0  0  0  0  0  0  0  0  0  0  0  0
   60.1410   31.1680   46.5597 H   0  0  0  0  0  0  0  0  0  0  0  0
   58.5475   29.3452   46.9350 H   0  0  0  0  0  0  0  0  0  0  0  0
   55.4204   26.9318   46.1798 H   0  0  0  0  0  0  0  0  0  0  0  0
   55.3736   24.5452   46.8804 H   0  0  0  0  0  0  0  0  0  0  0  0
   58.2125   21.7649   45.1955 H   0  0  0  0  0  0  0  0  0  0  0  0
   57.4357   20.8067   46.5185 H   0  0  0  0  0  0  0  0  0  0  0  0
   55.5015   20.8305   45.3846 H   0  0  0  0  0  0  0  0  0  0  0  0
   55.4803   22.6349   45.5073 H   0  0  0  0  0  0  0  0  0  0  0  0
   55.9263   23.9137   44.1129 H   0  0  0  0  0  0  0  0  0  0  0  0
   56.8929   23.5755   42.6371 H   0  0  0  0  0  0  0  0  0  0  0  0
   55.1209   23.2812   42.6371 H   0  0  0  0  0  0  0  0  0  0  0  0
   58.2112   21.2816   44.2855 H   0  0  0  0  0  0  0  0  0  0  0  0
   57.6009   20.5275   42.7736 H   0  0  0  0  0  0  0  0  0  0  0  0
   58.1194   22.2473   42.7736 H   0  0  0  0  0  0  0  0  0  0  0  0
   59.5745   24.1758   45.9112 H   0  0  0  0  0  0  0  0  0  0  0  0
   59.6270   26.5605   45.2123 H   0  0  0  0  0  0  0  0  0  0  0  0
   56.6237   31.9557   43.2728 H   0  0  0  0  0  0  0  0  0  0  0  0
   57.8948   31.1609   42.2832 H   0  0  0  0  0  0  0  0  0  0  0  0
   56.2198   30.5120   42.2832 H   0  0  0  0  0  0  0  0  0  0  0  0
   56.5752   32.8010   44.7340 H   0  0  0  0  0  0  0  0  0  0  0  0
   57.2731   35.0902   45.4140 H   0  0  0  0  0  0  0  0  0  0  0  0
  1  2  1  0
  2  3  2  0
  2  4  1  0
  4  5  2  0
  5  6  1  0
  6  7  1  0
  7  8  1  0
  8  9  2  0
  9 10  1  0
 10 11  2  0
 11 12  1  0
 12 13  2  0
 13 14  1  0
 14 15  1  0
 15 16  1  0
 16 17  1  0
 17 18  1  0
 17 19  1  0
 13 20  1  0
 20 21  2  0
  9 22  1  0
 22 23  2  0
 23 24  1  0
  6 25  2  0
 25 26  1  0
 26 27  2  0
 27 28  1  0
 27  4  1  0
 23  7  1  0
 21 10  1  0
  1 29  1  0
  1 30  1  0
  1 31  1  0
  5 32  1  0
  8 33  1  0
 11 34  1  0
 12 35  1  0
 15 36  1  0
 15 37  1  0
 16 38  1  0
 16 39  1  0
 18 40  1  0
 18 41  1  0
 18 42  1  0
 19 43  1  0
 19 44  1  0
 19 45  1  0
 20 46  1  0
 21 47  1  0
 24 48  1  0
 24 49  1  0
 24 50  1  0
 25 51  1  0
 26 52  1  0
M  CHG  1  28  -1
M  END
>  <UniqueID>  (26) 
23

>  <SMILES>  (26) 
CC(=O)c1cc(-n2cc(-c3ccc(OCCN(C)C)cc3)nc2C)ccc1[O-]

>  <Energy>  (26) 
90.59200599735573

>  <Genealogy>  (26) 
CC(=O)c1cc(-n2cc(-c3ccc(OCCN(C)C)cc3)nc2C)ccc1[O-] (protonated)
CC(=O)c1cc(-n2cc(-c3ccc(OCCN(C)C)cc3)nc2C)ccc1[O-] (3D coordinates assigned)
CC(=O)c1cc(-n2cc(-c3ccc(OCCN(C)C)cc3)nc2C)ccc1[O-] (optimized conformer: 90.59200599735573 kcal/mol)

>  <smiles>  (26) 
CC(=O)c1cc(-n2cc(-c3ccc(OCCN(C)C)cc3)nc2C)ccc1O

>  <score_type>  (26) 
oracle

>  <origin>  (26) 
adg

>  <m_score__min__energy>  (26) 
-10.02

>  <m_primary>  (26) 
energy

$$$$
26:0
     RDKit          3D

 53 55  0  0  0  0  0  0  0  0999 V2000
   56.5870   30.4830   43.9810 C   0  0  0  0  0  0  0  0  0  0  0  0
   56.9960   31.0590   45.2170 O   0  0  0  0  0  0  0  0  0  0  0  0
   57.7070   32.2640   45.3330 C   0  0  0  0  0  0  0  0  0  0  0  0
   57.1820   33.4950   44.8960 C   0  0  0  0  0  0  0  0  0  0  0  0
   57.9240   34.6700   45.0480 C   0  0  0  0  0  0  0  0  0  0  0  0
   59.1900   34.6290   45.6360 C   0  0  0  0  0  0  0  0  0  0  0  0
   59.7300   33.4080   46.0690 C   0  0  0  0  0  0  0  0  0  0  0  0
   61.0630   33.3760   46.7740 C   0  0  0  0  0  0  0  0  0  0  0  0
   60.9040   33.5260   48.2940 C   0  0  0  0  0  0  0  0  0  0  0  0
   60.0470   32.4310   48.8770 C   0  0  0  0  0  0  0  0  0  0  0  0
   58.9840   32.7380   49.7360 C   0  0  0  0  0  0  0  0  0  0  0  0
   58.2610   31.7420   50.3120 N   0  0  0  0  0  0  0  0  0  0  0  0
   58.5360   30.4320   50.0820 C   0  0  0  0  0  0  0  0  0  0  0  0
   59.5870   30.0680   49.2260 C   0  0  0  0  0  0  0  0  0  0  0  0
   59.9230   28.6100   48.9820 C   0  0  0  0  0  0  0  0  0  0  0  0
   59.6930   28.1610   47.5830 N   0  0  0  0  0  0  0  0  0  0  0  0
   60.6120   28.8420   46.6360 C   0  0  0  0  0  0  0  0  0  0  0  0
   60.5190   28.3080   45.1950 C   0  0  0  0  0  0  0  0  0  0  0  0
   59.2030   28.6190   44.4540 C   0  0  0  0  0  0  0  0  0  0  0  0
   58.0930   27.5730   44.6610 C   0  0  0  0  0  0  0  0  0  0  0  0
   57.8230   27.1600   46.1320 C   0  0  0  0  0  0  0  0  0  0  0  0
   58.2460   28.1850   47.2100 C   0  0  0  0  0  0  0  0  0  0  0  0
   60.3500   31.0840   48.6340 C   0  0  0  0  0  0  0  0  0  0  0  0
   58.9800   32.2300   45.9120 C   0  0  0  0  0  0  0  0  0  0  0  0
   55.9604   29.6005   44.1773 H   0  0  0  0  0  0  0  0  0  0  0  0
   56.0100   31.2217   43.4053 H   0  0  0  0  0  0  0  0  0  0  0  0
   57.4746   30.1817   43.4053 H   0  0  0  0  0  0  0  0  0  0  0  0
   56.1847   33.5324   44.4334 H   0  0  0  0  0  0  0  0  0  0  0  0
   57.5097   35.6290   44.7037 H   0  0  0  0  0  0  0  0  0  0  0  0
   59.7664   35.5576   45.7603 H   0  0  0  0  0  0  0  0  0  0  0  0
   61.5568   32.4166   46.5600 H   0  0  0  0  0  0  0  0  0  0  0  0
   61.6660   34.2196   46.4069 H   0  0  0  0  0  0  0  0  0  0  0  0
   61.8988   33.4871   48.7618 H   0  0  0  0  0  0  0  0  0  0  0  0
   60.4114   34.4891   48.4933 H   0  0  0  0  0  0  0  0  0  0  0  0
   58.7337   33.7886   49.9449 H   0  0  0  0  0  0  0  0  0  0  0  0
   57.9319   29.6523   50.5691 H   0  0  0  0  0  0  0  0  0  0  0  0
   60.9845   28.4546   49.2248 H   0  0  0  0  0  0  0  0  0  0  0  0
   59.2507   28.0179   49.6203 H   0  0  0  0  0  0  0  0  0  0  0  0
   59.9760   27.1510   47.5790 H   0  0  0  0  0  0  0  0  0  0  0  0
   60.3684   29.9146   46.6257 H   0  0  0  0  0  0  0  0  0  0  0  0
   61.6368   28.6489   46.9860 H   0  0  0  0  0  0  0  0  0  0  0  0
   61.3452   28.7477   44.6170 H   0  0  0  0  0  0  0  0  0  0  0  0
   60.5675   27.2121   45.2760 H   0  0  0  0  0  0  0  0  0  0  0  0
   58.8300   29.5910   44.8090 H   0  0  0  0  0  0  0  0  0  0  0  0
   59.4399   28.6163   43.3798 H   0  0  0  0  0  0  0  0  0  0  0  0
   57.1598   27.9845   44.2489 H   0  0  0  0  0  0  0  0  0  0  0  0
   58.4415   26.6617   44.1531 H   0  0  0  0  0  0  0  0  0  0  0  0
   56.7425   26.9841   46.2398 H   0  0  0  0  0  0  0  0  0  0  0  0
   58.4427   26.2687   46.3094 H   0  0  0  0  0  0  0  0  0  0  0  0
   58.0090   29.1910   46.8336 H   0  0  0  0  0  0  0  0  0  0  0  0
   57.6930   27.9130   48.1212 H   0  0  0  0  0  0  0  0  0  0  0  0
   61.1912   30.8229   47.9751 H   0  0  0  0  0  0  0  0  0  0  0  0
   59.3988   31.2700   46.2483 H   0  0  0  0  0  0  0  0  0  0  0  0
  1  2  1  0
  2  3  1  0
  3  4  2  0
  4  5  1  0
  5  6  2  0
  6  7  1  0
  7  8  1  0
  8  9  1  0
  9 10  1  0
 10 11  2  0
 11 12  1  0
 12 13  2  0
 13 14  1  0
 14 15  1  0
 15 16  1  0
 16 17  1  0
 17 18  1  0
 18 19  1  0
 19 20  1  0
 20 21  1  0
 21 22  1  0
 14 23  2  0
  7 24  2  0
 24  3  1  0
 23 10  1  0
 22 16  1  0
  1 25  1  0
  1 26  1  0
  1 27  1  0
  4 28  1  0
  5 29  1  0
  6 30  1  0
  8 31  1  0
  8 32  1  0
  9 33  1  0
  9 34  1  0
 11 35  1  0
 13 36  1  0
 15 37  1  0
 15 38  1  0
 16 39  1  0
 17 40  1  0
 17 41  1  0
 18 42  1  0
 18 43  1  0
 19 44  1  0
 19 45  1  0
 20 46  1  0
 20 47  1  0
 21 48  1  0
 21 49  1  0
 22 50  1  0
 22 51  1  0
 23 52  1  0
 24 53  1  0
M  CHG  1  16   1
M  END
>  <UniqueID>  (27) 
24

>  <SMILES>  (27) 
COc1cccc(CCc2cncc(C[NH+]3CCCCCC3)c2)c1

>  <Energy>  (27) 
65.82897430750819

>  <Genealogy>  (27) 
COc1cccc(CCc2cncc(C[NH+]3CCCCCC3)c2)c1 (protonated)
COc1cccc(CCc2cncc(C[NH+]3CCCCCC3)c2)c1 (3D coordinates assigned)
COc1cccc(CCc2cncc(C[NH+]3CCCCCC3)c2)c1 (nonaromatic ring conformer: 65.82897430750819 kcal/mol)

>  <smiles>  (27) 
COc1cccc(CCc2cncc(CN3CCCCCC3)c2)c1

>  <score_type>  (27) 
oracle

>  <origin>  (27) 
adg

>  <m_score__min__energy>  (27) 
-5.2400000000000002

>  <m_primary>  (27) 
energy

$$$$
27:0
     RDKit          3D

 71 74  0  0  0  0  0  0  0  0999 V2000
   58.4110   28.7990   52.5080 N   0  0  0  0  0  0  0  0  0  0  0  0
   59.5040   28.3000   53.3350 C   0  0  0  0  0  0  0  0  0  0  0  0
   60.8070   29.0180   52.9770 C   0  0  0  0  0  0  0  0  0  0  0  0
   60.5380   30.3390   52.4040 N   0  0  0  0  0  0  0  0  0  0  0  0
   61.4480   31.0120   51.5120 C   0  0  0  0  0  0  0  0  0  0  0  0
   61.7670   32.3740   51.6660 C   0  0  0  0  0  0  0  0  0  0  0  0
   62.6450   33.0000   50.7750 C   0  0  0  0  0  0  0  0  0  0  0  0
   63.2230   32.2840   49.7170 C   0  0  0  0  0  0  0  0  0  0  0  0
   64.1130   32.9630   48.8110 N   0  0  0  0  0  0  0  0  0  0  0  0
   63.6880   34.0610   47.9380 C   0  0  0  0  0  0  0  0  0  0  0  0
   63.1550   33.5350   46.6020 C   0  0  0  0  0  0  0  0  0  0  0  0
   61.6900   33.5400   46.5830 N   0  0  0  0  0  0  0  0  0  0  0  0
   60.8970   33.2170   47.7420 C   0  0  0  0  0  0  0  0  0  0  0  0
   60.5500   34.2360   48.6350 C   0  0  0  0  0  0  0  0  0  0  0  0
   59.6750   33.9970   49.6830 C   0  0  0  0  0  0  0  0  0  0  0  0
   59.1030   32.7320   49.8730 C   0  0  0  0  0  0  0  0  0  0  0  0
   58.1090   32.5620   50.9010 N   0  0  0  0  0  0  0  0  0  0  0  0
   57.9960   33.4620   52.0520 C   0  0  0  0  0  0  0  0  0  0  0  0
   58.2560   32.7130   53.3770 C   0  0  0  0  0  0  0  0  0  0  0  0
   57.9330   31.2760   53.3080 N   0  0  0  0  0  0  0  0  0  0  0  0
   56.6340   30.9270   53.9010 C   0  0  0  0  0  0  0  0  0  0  0  0
   55.6710   30.3890   52.8410 C   0  0  0  0  0  0  0  0  0  0  0  0
   56.3600   30.2000   51.6360 O   0  0  0  0  0  0  0  0  0  0  0  0
   59.4670   31.6640   49.0040 C   0  0  0  0  0  0  0  0  0  0  0  0
   60.3930   31.9050   47.9490 C   0  0  0  0  0  0  0  0  0  0  0  0
   60.8510   30.7560   47.1130 C   0  0  0  0  0  0  0  0  0  0  0  0
   61.8990   30.8440   46.4170 O   0  0  0  0  0  0  0  0  0  0  0  0
   60.1210   29.4740   47.1460 C   0  0  0  0  0  0  0  0  0  0  0  0
   60.3820   28.4700   46.1960 C   0  0  0  0  0  0  0  0  0  0  0  0
   59.7020   27.2530   46.2490 C   0  0  0  0  0  0  0  0  0  0  0  0
   58.7610   27.0220   47.2520 C   0  0  0  0  0  0  0  0  0  0  0  0
   58.4970   28.0080   48.2050 C   0  0  0  0  0  0  0  0  0  0  0  0
   59.1730   29.2420   48.1590 C   0  0  0  0  0  0  0  0  0  0  0  0
   58.9210   30.2820   49.1790 C   0  0  0  0  0  0  0  0  0  0  0  0
   58.2630   29.9740   50.2090 O   0  0  0  0  0  0  0  0  0  0  0  0
   62.9100   30.9200   49.5680 C   0  0  0  0  0  0  0  0  0  0  0  0
   62.0310   30.2940   50.4570 C   0  0  0  0  0  0  0  0  0  0  0  0
   58.7260   29.6840   52.0480 H   0  0  0  0  0  0  0  0  0  0  0  0
   57.6230   29.0610   53.1450 H   0  0  0  0  0  0  0  0  0  0  0  0
   59.2693   28.4796   54.3946 H   0  0  0  0  0  0  0  0  0  0  0  0
   59.6270   27.2217   53.1554 H   0  0  0  0  0  0  0  0  0  0  0  0
   61.4137   29.1373   53.8868 H   0  0  0  0  0  0  0  0  0  0  0  0
   61.3457   28.4154   52.2309 H   0  0  0  0  0  0  0  0  0  0  0  0
   59.6440   30.8240   52.6530 H   0  0  0  0  0  0  0  0  0  0  0  0
   61.3234   32.9496   52.4918 H   0  0  0  0  0  0  0  0  0  0  0  0
   62.8846   34.0656   50.9058 H   0  0  0  0  0  0  0  0  0  0  0  0
   65.1130   32.6520   48.7810 H   0  0  0  0  0  0  0  0  0  0  0  0
   62.8936   34.6318   48.4410 H   0  0  0  0  0  0  0  0  0  0  0  0
   64.5593   34.7015   47.7364 H   0  0  0  0  0  0  0  0  0  0  0  0
   63.5275   34.1753   45.7888 H   0  0  0  0  0  0  0  0  0  0  0  0
   63.5038   32.5004   46.4682 H   0  0  0  0  0  0  0  0  0  0  0  0
   61.2000   33.8550   45.7150 H   0  0  0  0  0  0  0  0  0  0  0  0
   60.9774   35.2410   48.5038 H   0  0  0  0  0  0  0  0  0  0  0  0
   59.4256   34.8134   50.3767 H   0  0  0  0  0  0  0  0  0  0  0  0
   57.2830   31.9570   50.6830 H   0  0  0  0  0  0  0  0  0  0  0  0
   58.7331   34.2718   51.9475 H   0  0  0  0  0  0  0  0  0  0  0  0
   56.9737   33.8674   52.0769 H   0  0  0  0  0  0  0  0  0  0  0  0
   59.3199   32.8197   53.6353 H   0  0  0  0  0  0  0  0  0  0  0  0
   57.5980   33.1586   54.1376 H   0  0  0  0  0  0  0  0  0  0  0  0
   57.9410   30.9740   52.3050 H   0  0  0  0  0  0  0  0  0  0  0  0
   56.7862   30.1572   54.6718 H   0  0  0  0  0  0  0  0  0  0  0  0
   56.1963   31.8347   54.3420 H   0  0  0  0  0  0  0  0  0  0  0  0
   55.2532   29.4291   53.1788 H   0  0  0  0  0  0  0  0  0  0  0  0
   54.8552   31.1106   52.6872 H   0  0  0  0  0  0  0  0  0  0  0  0
   57.2370   29.8060   51.8800 H   0  0  0  0  0  0  0  0  0  0  0  0
   61.1272   28.6456   45.4061 H   0  0  0  0  0  0  0  0  0  0  0  0
   59.9082   26.4751   45.4991 H   0  0  0  0  0  0  0  0  0  0  0  0
   58.2260   26.0617   47.2925 H   0  0  0  0  0  0  0  0  0  0  0  0
   57.7565   27.8194   48.9963 H   0  0  0  0  0  0  0  0  0  0  0  0
   63.3598   30.3427   48.7468 H   0  0  0  0  0  0  0  0  0  0  0  0
   61.7941   29.2276   50.3279 H   0  0  0  0  0  0  0  0  0  0  0  0
  1  2  1  0
  2  3  1  0
  3  4  1  0
  4  5  1  0
  5  6  2  0
  6  7  1  0
  7  8  2  0
  8  9  1  0
  9 10  1  0
 10 11  1  0
 11 12  1  0
 12 13  1  0
 13 14  2  0
 14 15  1  0
 15 16  2  0
 16 17  1  0
 17 18  1  0
 18 19  1  0
 19 20  1  0
 20 21  1  0
 21 22  1  0
 22 23  1  0
 16 24  1  0
 24 25  2  0
 25 26  1  0
 26 27  2  0
 26 28  1  0
 28 29  2  0
 29 30  1  0
 30 31  2  0
 31 32  1  0
 32 33  2  0
 33 34  1  0
 34 35  2  0
  8 36  1  0
 36 37  2  0
 37  5  1  0
 25 13  1  0
 33 28  1  0
 34 24  1  0
  1 38  1  0
  1 39  1  0
  2 40  1  0
  2 41  1  0
  3 42  1  0
  3 43  1  0
  4 44  1  0
  6 45  1  0
  7 46  1  0
  9 47  1  0
 10 48  1  0
 10 49  1  0
 11 50  1  0
 11 51  1  0
 12 52  1  0
 14 53  1  0
 15 54  1  0
 17 55  1  0
 18 56  1  0
 18 57  1  0
 19 58  1  0
 19 59  1  0
 20 60  1  0
 21 61  1  0
 21 62  1  0
 22 63  1  0
 22 64  1  0
 23 65  1  0
 29 66  1  0
 30 67  1  0
 31 68  1  0
 32 69  1  0
 36 70  1  0
 37 71  1  0
M  END
>  <UniqueID>  (28) 
25

>  <SMILES>  (28) 
NCCNc1ccc(NCCNc2ccc(NCCNCCO)c3c2C(=O)c2ccccc2C3=O)cc1

>  <Energy>  (28) 
83.10811079158754

>  <Genealogy>  (28) 
NCCNc1ccc(NCCNc2ccc(NCCNCCO)c3c2C(=O)c2ccccc2C3=O)cc1 (3D coordinates assigned)
NCCNc1ccc(NCCNc2ccc(NCCNCCO)c3c2C(=O)c2ccccc2C3=O)cc1 (nonaromatic ring conformer: 83.10811079158754 kcal/mol)

>  <smiles>  (28) 
NCCNc1ccc(NCCNc2ccc(NCCNCCO)c3c2C(=O)c2ccccc2C3=O)cc1

>  <score_type>  (28) 
oracle

>  <origin>  (28) 
adg

>  <m_score__min__energy>  (28) 
-8.4800000000000004

>  <m_primary>  (28) 
energy

$$$$
28:0
     RDKit          3D

 39 41  0  0  0  0  0  0  0  0999 V2000
   60.8880   34.2070   49.0150 C   0  0  0  0  0  0  0  0  0  0  0  0
   59.5700   34.4070   48.5190 O   0  0  0  0  0  0  0  0  0  0  0  0
   59.0320   33.7390   47.4090 C   0  0  0  0  0  0  0  0  0  0  0  0
   58.7670   34.4800   46.2510 C   0  0  0  0  0  0  0  0  0  0  0  0
   58.2310   33.8600   45.1180 C   0  0  0  0  0  0  0  0  0  0  0  0
   57.9430   32.4870   45.1320 C   0  0  0  0  0  0  0  0  0  0  0  0
   57.4000   31.8110   43.9030 C   0  0  0  0  0  0  0  0  0  0  0  0
   57.1460   30.3610   44.1810 C   0  0  0  0  0  0  0  0  0  0  0  0
   56.1370   30.0320   44.8600 O   0  0  0  0  0  0  0  0  0  0  0  0
   58.0960   29.3720   43.7540 N   0  0  0  0  0  0  0  0  0  0  0  0
   57.8780   27.9540   43.8400 C   0  0  0  0  0  0  0  0  0  0  0  0
   57.9830   27.1710   42.6820 C   0  0  0  0  0  0  0  0  0  0  0  0
   57.7560   25.7930   42.7330 C   0  0  0  0  0  0  0  0  0  0  0  0
   57.4050   25.1730   43.9440 C   0  0  0  0  0  0  0  0  0  0  0  0
   57.1690   23.7110   43.9750 C   0  0  0  0  0  0  0  0  0  0  0  0
   56.2540   22.9810   43.2440 C   0  0  0  0  0  0  0  0  0  0  0  0
   56.3690   21.6810   43.5760 N   0  0  0  0  0  0  0  0  0  0  0  0
   57.3520   21.6720   44.5000 C   0  0  0  0  0  0  0  0  0  0  0  0
   57.8280   22.8730   44.7380 O   0  0  0  0  0  0  0  0  0  0  0  0
   57.2760   25.9620   45.1000 C   0  0  0  0  0  0  0  0  0  0  0  0
   57.5040   27.3400   45.0470 C   0  0  0  0  0  0  0  0  0  0  0  0
   58.2160   31.7390   46.2870 C   0  0  0  0  0  0  0  0  0  0  0  0
   58.7530   32.3590   47.4200 C   0  0  0  0  0  0  0  0  0  0  0  0
   60.8702   34.2097   50.1149 H   0  0  0  0  0  0  0  0  0  0  0  0
   61.2718   33.2403   48.6569 H   0  0  0  0  0  0  0  0  0  0  0  0
   61.5413   35.0163   48.6569 H   0  0  0  0  0  0  0  0  0  0  0  0
   58.9822   35.5586   46.2323 H   0  0  0  0  0  0  0  0  0  0  0  0
   58.0343   34.4515   44.2117 H   0  0  0  0  0  0  0  0  0  0  0  0
   56.4573   32.2952   43.6082 H   0  0  0  0  0  0  0  0  0  0  0  0
   58.1362   31.8976   43.0903 H   0  0  0  0  0  0  0  0  0  0  0  0
   59.0380   29.7050   43.4450 H   0  0  0  0  0  0  0  0  0  0  0  0
   58.2463   27.6453   41.7251 H   0  0  0  0  0  0  0  0  0  0  0  0
   57.8528   25.1894   41.8185 H   0  0  0  0  0  0  0  0  0  0  0  0
   55.5463   23.3937   42.5100 H   0  0  0  0  0  0  0  0  0  0  0  0
   57.7144   20.7608   44.9984 H   0  0  0  0  0  0  0  0  0  0  0  0
   56.9935   25.4916   46.0534 H   0  0  0  0  0  0  0  0  0  0  0  0
   57.3898   27.9479   45.9566 H   0  0  0  0  0  0  0  0  0  0  0  0
   58.0066   30.6592   46.3017 H   0  0  0  0  0  0  0  0  0  0  0  0
   58.9582   31.7659   48.3234 H   0  0  0  0  0  0  0  0  0  0  0  0
  1  2  1  0
  2  3  1  0
  3  4  2  0
  4  5  1  0
  5  6  2  0
  6  7  1  0
  7  8  1  0
  8  9  2  0
  8 10  1  0
 10 11  1  0
 11 12  2  0
 12 13  1  0
 13 14  2  0
 14 15  1  0
 15 16  2  0
 16 17  1  0
 17 18  2  0
 18 19  1  0
 14 20  1  0
 20 21  2  0
  6 22  1  0
 22 23  2  0
 23  3  1  0
 21 11  1  0
 19 15  1  0
  1 24  1  0
  1 25  1  0
  1 26  1  0
  4 27  1  0
  5 28  1  0
  7 29  1  0
  7 30  1  0
 10 31  1  0
 12 32  1  0
 13 33  1  0
 16 34  1  0
 18 35  1  0
 20 36  1  0
 21 37  1  0
 22 38  1  0
 23 39  1  0
M  END
>  <UniqueID>  (29) 
26

>  <SMILES>  (29) 
COc1ccc(CC(=O)Nc2ccc(-c3cnco3)cc2)cc1

>  <Energy>  (29) 
72.47662358679003

>  <Genealogy>  (29) 
COc1ccc(CC(=O)Nc2ccc(-c3cnco3)cc2)cc1 (3D coordinates assigned)
COc1ccc(CC(=O)Nc2ccc(-c3cnco3)cc2)cc1 (optimized conformer: 72.47662358679003 kcal/mol)

>  <smiles>  (29) 
COc1ccc(CC(=O)Nc2ccc(-c3cnco3)cc2)cc1

>  <score_type>  (29) 
oracle

>  <origin>  (29) 
adg

>  <m_score__min__energy>  (29) 
-7.6900000000000004

>  <m_primary>  (29) 
energy

$$$$
29:0
     RDKit          3D

 54 57  0  0  0  0  0  0  0  0999 V2000
   60.2170   28.6150   44.5110 C   0  0  0  0  0  0  0  0  0  0  0  0
   59.1980   27.7450   45.2030 C   0  0  0  0  0  0  0  0  0  0  0  0
   59.6410   26.6670   45.9900 C   0  0  0  0  0  0  0  0  0  0  0  0
   58.7260   25.8430   46.6480 C   0  0  0  0  0  0  0  0  0  0  0  0
   57.3570   26.0850   46.5290 C   0  0  0  0  0  0  0  0  0  0  0  0
   56.8990   27.1480   45.7480 C   0  0  0  0  0  0  0  0  0  0  0  0
   57.8060   27.9900   45.0810 C   0  0  0  0  0  0  0  0  0  0  0  0
   57.2630   29.1110   44.2160 C   0  0  0  0  0  0  0  0  0  0  0  0
   57.0610   30.3440   45.0050 N   0  0  0  0  0  0  0  0  0  0  0  0
   56.8970   31.5350   44.1310 C   0  0  0  0  0  0  0  0  0  0  0  0
   58.2030   32.3370   43.9850 C   0  0  0  0  0  0  0  0  0  0  0  0
   58.7350   32.8140   45.2970 N   0  0  0  0  0  0  0  0  0  0  0  0
   58.4220   34.2500   45.5330 C   0  0  0  0  0  0  0  0  0  0  0  0
   59.5620   34.9740   46.2080 C   0  0  0  0  0  0  0  0  0  0  0  0
   59.9780   36.0670   45.7330 O   0  0  0  0  0  0  0  0  0  0  0  0
   60.1910   34.4300   47.3700 N   0  0  0  0  0  0  0  0  0  0  0  0
   59.6490   34.5400   48.7240 C   0  0  0  0  0  0  0  0  0  0  0  0
   60.7820   34.0790   49.6750 C   0  0  0  0  0  0  0  0  0  0  0  0
   61.9110   33.7850   48.7500 C   0  0  0  0  0  0  0  0  0  0  0  0
   63.1940   33.3360   49.0690 C   0  0  0  0  0  0  0  0  0  0  0  0
   64.1080   33.1240   48.0250 C   0  0  0  0  0  0  0  0  0  0  0  0
   63.7280   33.3630   46.6890 C   0  0  0  0  0  0  0  0  0  0  0  0
   62.4270   33.8100   46.3930 C   0  0  0  0  0  0  0  0  0  0  0  0
   61.5380   34.0090   47.4520 C   0  0  0  0  0  0  0  0  0  0  0  0
   58.2620   31.9880   46.4390 C   0  0  0  0  0  0  0  0  0  0  0  0
   58.1150   30.5150   46.0340 C   0  0  0  0  0  0  0  0  0  0  0  0
   60.8267   29.1355   45.2642 H   0  0  0  0  0  0  0  0  0  0  0  0
   60.8670   27.9890   43.8820 H   0  0  0  0  0  0  0  0  0  0  0  0
   59.7006   29.3551   43.8820 H   0  0  0  0  0  0  0  0  0  0  0  0
   60.7190   26.4711   46.0881 H   0  0  0  0  0  0  0  0  0  0  0  0
   59.0845   25.0026   47.2605 H   0  0  0  0  0  0  0  0  0  0  0  0
   56.6374   25.4373   47.0513 H   0  0  0  0  0  0  0  0  0  0  0  0
   55.8180   27.3284   45.6537 H   0  0  0  0  0  0  0  0  0  0  0  0
   57.9772   29.3168   43.4051 H   0  0  0  0  0  0  0  0  0  0  0  0
   56.2918   28.7962   43.8065 H   0  0  0  0  0  0  0  0  0  0  0  0
   56.5740   31.2004   43.1341 H   0  0  0  0  0  0  0  0  0  0  0  0
   56.1482   32.1931   44.5961 H   0  0  0  0  0  0  0  0  0  0  0  0
   58.9596   31.6946   43.5108 H   0  0  0  0  0  0  0  0  0  0  0  0
   57.9822   33.2240   43.3731 H   0  0  0  0  0  0  0  0  0  0  0  0
   59.7770   32.7040   45.2710 H   0  0  0  0  0  0  0  0  0  0  0  0
   58.2179   34.7326   44.5658 H   0  0  0  0  0  0  0  0  0  0  0  0
   57.5462   34.3022   46.1965 H   0  0  0  0  0  0  0  0  0  0  0  0
   59.3684   35.5814   48.9401 H   0  0  0  0  0  0  0  0  0  0  0  0
   58.7442   33.9267   48.8474 H   0  0  0  0  0  0  0  0  0  0  0  0
   61.0507   34.8769   50.3829 H   0  0  0  0  0  0  0  0  0  0  0  0
   60.4981   33.2152   50.2940 H   0  0  0  0  0  0  0  0  0  0  0  0
   63.4820   33.1526   50.1147 H   0  0  0  0  0  0  0  0  0  0  0  0
   65.1248   32.7700   48.2504 H   0  0  0  0  0  0  0  0  0  0  0  0
   64.4503   33.1997   45.8756 H   0  0  0  0  0  0  0  0  0  0  0  0
   62.1179   33.9979   45.3542 H   0  0  0  0  0  0  0  0  0  0  0  0
   58.9883   32.0633   47.2616 H   0  0  0  0  0  0  0  0  0  0  0  0
   57.2775   32.3624   46.7560 H   0  0  0  0  0  0  0  0  0  0  0  0
   59.0731   30.1569   45.6291 H   0  0  0  0  0  0  0  0  0  0  0  0
   57.8294   29.9359   46.9245 H   0  0  0  0  0  0  0  0  0  0  0  0
  1  2  1  0
  2  3  2  0
  3  4  1  0
  4  5  2  0
  5  6  1  0
  6  7  2  0
  7  8  1  0
  8  9  1  0
  9 10  1  0
 10 11  1  0
 11 12  1  0
 12 13  1  0
 13 14  1  0
 14 15  2  0
 14 16  1  0
 16 17  1  0
 17 18  1  0
 18 19  1  0
 19 20  2  0
 20 21  1  0
 21 22  2  0
 22 23  1  0
 23 24  2  0
 12 25  1  0
 25 26  1  0
  7  2  1  0
 26  9  1  0
 24 16  1  0
 24 19  1  0
  1 27  1  0
  1 28  1  0
  1 29  1  0
  3 30  1  0
  4 31  1  0
  5 32  1  0
  6 33  1  0
  8 34  1  0
  8 35  1  0
 10 36  1  0
 10 37  1  0
 11 38  1  0
 11 39  1  0
 12 40  1  0
 13 41  1  0
 13 42  1  0
 17 43  1  0
 17 44  1  0
 18 45  1  0
 18 46  1  0
 20 47  1  0
 21 48  1  0
 22 49  1  0
 23 50  1  0
 25 51  1  0
 25 52  1  0
 26 53  1  0
 26 54  1  0
M  CHG  1  12   1
M  END
>  <UniqueID>  (30) 
27

>  <SMILES>  (30) 
Cc1ccccc1CN1CC[NH+](CC(=O)N2CCc3ccccc32)CC1

>  <Energy>  (30) 
92.77457441613001

>  <Genealogy>  (30) 
Cc1ccccc1CN1CC[NH+](CC(=O)N2CCc3ccccc32)CC1 (protonated)
Cc1ccccc1CN1CC[NH+](CC(=O)N2CCc3ccccc32)CC1 (3D coordinates assigned)
Cc1ccccc1CN1CC[NH+](CC(=O)N2CCc3ccccc32)CC1 (nonaromatic ring conformer: 92.77457441613001 kcal/mol)

>  <smiles>  (30) 
Cc1ccccc1CN1CCN(CC(=O)N2CCc3ccccc32)CC1

>  <score_type>  (30) 
oracle

>  <origin>  (30) 
adg

>  <m_score__min__energy>  (30) 
-7.3600000000000003

>  <m_primary>  (30) 
energy

$$$$
30:0
     RDKit          3D

 35 37  0  0  0  0  0  0  0  0999 V2000
   57.0110   34.2060   44.8690 C   0  0  0  0  0  0  0  0  0  0  0  0
   58.1510   34.0240   45.8240 C   0  0  0  0  0  0  0  0  0  0  0  0
   57.9340   33.4630   47.0930 C   0  0  0  0  0  0  0  0  0  0  0  0
   58.9940   33.3390   47.9980 C   0  0  0  0  0  0  0  0  0  0  0  0
   60.2710   33.7920   47.6500 C   0  0  0  0  0  0  0  0  0  0  0  0
   61.6200   33.6820   48.8320 S   0  0  0  0  0  0  0  0  0  0  0  0
   62.4500   32.2770   48.0120 C   0  0  0  0  0  0  0  0  0  0  0  0
   61.5740   31.0660   48.0030 C   0  0  0  0  0  0  0  0  0  0  0  0
   61.0610   30.6570   49.0790 O   0  0  0  0  0  0  0  0  0  0  0  0
   61.2480   30.4460   46.7520 N   0  0  0  0  0  0  0  0  0  0  0  0
   60.0200   29.7910   46.4140 C   0  0  0  0  0  0  0  0  0  0  0  0
   59.8190   28.4030   46.6510 C   0  0  0  0  0  0  0  0  0  0  0  0
   58.6140   27.7800   46.2750 C   0  0  0  0  0  0  0  0  0  0  0  0
   57.6440   28.5670   45.6640 C   0  0  0  0  0  0  0  0  0  0  0  0
   56.4380   28.2010   45.2130 N   0  0  0  0  0  0  0  0  0  0  0  0
   55.9330   29.3480   44.7010 C   0  0  0  0  0  0  0  0  0  0  0  0
   54.7940   29.4170   44.1700 O   0  0  0  0  0  0  0  0  0  0  0  0
   56.7600   30.4210   44.8020 N   0  0  0  0  0  0  0  0  0  0  0  0
   57.8360   29.8950   45.4160 C   0  0  0  0  0  0  0  0  0  0  0  0
   59.0150   30.5440   45.7720 C   0  0  0  0  0  0  0  0  0  0  0  0
   60.4920   34.3510   46.3860 C   0  0  0  0  0  0  0  0  0  0  0  0
   59.4340   34.4780   45.4810 C   0  0  0  0  0  0  0  0  0  0  0  0
   56.0792   34.3548   45.4344 H   0  0  0  0  0  0  0  0  0  0  0  0
   57.2000   35.0853   44.2357 H   0  0  0  0  0  0  0  0  0  0  0  0
   56.9168   33.3115   44.2357 H   0  0  0  0  0  0  0  0  0  0  0  0
   56.9279   33.1201   47.3763 H   0  0  0  0  0  0  0  0  0  0  0  0
   58.8228   32.8845   48.9850 H   0  0  0  0  0  0  0  0  0  0  0  0
   62.6883   32.5559   46.9750 H   0  0  0  0  0  0  0  0  0  0  0  0
   63.3684   32.0400   48.5691 H   0  0  0  0  0  0  0  0  0  0  0  0
   60.6118   27.8114   47.1321 H   0  0  0  0  0  0  0  0  0  0  0  0
   58.4457   26.7085   46.4581 H   0  0  0  0  0  0  0  0  0  0  0  0
   55.9930   27.2570   45.2460 H   0  0  0  0  0  0  0  0  0  0  0  0
   59.1587   31.6135   45.5587 H   0  0  0  0  0  0  0  0  0  0  0  0
   61.4995   34.6909   46.1043 H   0  0  0  0  0  0  0  0  0  0  0  0
   59.6078   34.9357   44.4960 H   0  0  0  0  0  0  0  0  0  0  0  0
  1  2  1  0
  2  3  2  0
  3  4  1  0
  4  5  2  0
  5  6  1  0
  6  7  1  0
  7  8  1  0
  8  9  2  0
  8 10  1  0
 10 11  1  0
 11 12  2  0
 12 13  1  0
 13 14  2  0
 14 15  1  0
 15 16  1  0
 16 17  2  0
 16 18  1  0
 18 19  1  0
 19 20  2  0
  5 21  1  0
 21 22  2  0
 22  2  1  0
 20 11  1  0
 19 14  1  0
  1 23  1  0
  1 24  1  0
  1 25  1  0
  3 26  1  0
  4 27  1  0
  7 28  1  0
  7 29  1  0
 12 30  1  0
 13 31  1  0
 15 32  1  0
 20 33  1  0
 21 34  1  0
 22 35  1  0
M  CHG  2  10  -1  18  -1
M  END
>  <UniqueID>  (31) 
28

>  <SMILES>  (31) 
Cc1ccc(SCC(=O)[N-]c2ccc3[nH]c(=O)[n-]c3c2)cc1

>  <Energy>  (31) 
70.82261627578664

>  <Genealogy>  (31) 
Cc1ccc(SCC(=O)[N-]c2ccc3[nH]c(=O)[n-]c3c2)cc1 (protonated)
Cc1ccc(SCC(=O)[N-]c2ccc3[nH]c(=O)[n-]c3c2)cc1 (3D coordinates assigned)
Cc1ccc(SCC(=O)[N-]c2ccc3[nH]c(=O)[n-]c3c2)cc1 (optimized conformer: 70.82261627578664 kcal/mol)

>  <smiles>  (31) 
Cc1ccc(SCC(=O)Nc2ccc3[nH]c(=O)[nH]c3c2)cc1

>  <score_type>  (31) 
oracle

>  <origin>  (31) 
adg

>  <m_score__min__energy>  (31) 
-11.1

>  <m_primary>  (31) 
energy

$$$$
31:0
     RDKit          3D

 49 51  0  0  0  0  0  0  0  0999 V2000
   63.7650   33.3380   46.7610 C   0  0  0  0  0  0  0  0  0  0  0  0
   62.5530   33.0510   47.5990 C   0  0  0  0  0  0  0  0  0  0  0  0
   62.2150   33.9060   48.6560 C   0  0  0  0  0  0  0  0  0  0  0  0
   61.1070   33.6100   49.4470 C   0  0  0  0  0  0  0  0  0  0  0  0
   60.3570   32.4650   49.1910 C   0  0  0  0  0  0  0  0  0  0  0  0
   60.7310   31.6090   48.1430 C   0  0  0  0  0  0  0  0  0  0  0  0
   59.9600   30.4240   47.8580 N   0  0  0  0  0  0  0  0  0  0  0  0
   60.5480   29.0980   48.1040 C   0  0  0  0  0  0  0  0  0  0  0  0
   59.7900   28.0000   47.3440 C   0  0  0  0  0  0  0  0  0  0  0  0
   59.4440   28.4730   45.9280 C   0  0  0  0  0  0  0  0  0  0  0  0
   58.5710   29.7580   45.9190 C   0  0  1  0  0  0  0  0  0  0  0  0
   57.1860   29.4040   45.5450 N   0  0  0  0  0  0  0  0  0  0  0  0
   56.9540   29.4300   44.0910 C   0  0  0  0  0  0  0  0  0  0  0  0
   56.5800   30.8410   43.6450 C   0  0  0  0  0  0  0  0  0  0  0  0
   56.4520   31.6920   44.7800 O   0  0  0  0  0  0  0  0  0  0  0  0
   57.3820   32.6750   45.1470 C   0  0  0  0  0  0  0  0  0  0  0  0
   58.3250   33.0860   44.1960 C   0  0  0  0  0  0  0  0  0  0  0  0
   59.2720   34.0650   44.5140 C   0  0  0  0  0  0  0  0  0  0  0  0
   59.2830   34.6410   45.7870 C   0  0  0  0  0  0  0  0  0  0  0  0
   58.3470   34.2390   46.7430 C   0  0  0  0  0  0  0  0  0  0  0  0
   57.3980   33.2590   46.4300 C   0  0  0  0  0  0  0  0  0  0  0  0
   58.6160   30.5130   47.2720 C   0  0  0  0  0  0  0  0  0  0  0  0
   61.8160   31.9240   47.3750 N   0  0  0  0  0  0  0  0  0  0  0  0
   64.6244   33.5415   47.4168 H   0  0  0  0  0  0  0  0  0  0  0  0
   63.9863   32.4674   46.1261 H   0  0  0  0  0  0  0  0  0  0  0  0
   63.5724   34.2154   46.1261 H   0  0  0  0  0  0  0  0  0  0  0  0
   62.8188   34.8027   48.8595 H   0  0  0  0  0  0  0  0  0  0  0  0
   60.8250   34.2799   50.2727 H   0  0  0  0  0  0  0  0  0  0  0  0
   59.4758   32.2324   49.8069 H   0  0  0  0  0  0  0  0  0  0  0  0
   61.5968   29.1043   47.7722 H   0  0  0  0  0  0  0  0  0  0  0  0
   60.4808   28.8836   49.1808 H   0  0  0  0  0  0  0  0  0  0  0  0
   60.4204   27.1007   47.2820 H   0  0  0  0  0  0  0  0  0  0  0  0
   58.8581   27.7715   47.8819 H   0  0  0  0  0  0  0  0  0  0  0  0
   60.3798   28.6801   45.3882 H   0  0  0  0  0  0  0  0  0  0  0  0
   58.8624   27.6741   45.4448 H   0  0  0  0  0  0  0  0  0  0  0  0
   58.9849   30.4507   45.1714 H   0  0  0  0  0  0  0  0  0  0  0  0
   56.5110   30.0470   46.0220 H   0  0  0  0  0  0  0  0  0  0  0  0
   57.8704   29.1148   43.5706 H   0  0  0  0  0  0  0  0  0  0  0  0
   56.1297   28.7443   43.8455 H   0  0  0  0  0  0  0  0  0  0  0  0
   57.3649   31.2336   42.9818 H   0  0  0  0  0  0  0  0  0  0  0  0
   55.6205   30.8079   43.1080 H   0  0  0  0  0  0  0  0  0  0  0  0
   58.3207   32.6357   43.1924 H   0  0  0  0  0  0  0  0  0  0  0  0
   60.0088   34.3818   43.7612 H   0  0  0  0  0  0  0  0  0  0  0  0
   60.0283   35.4106   46.0363 H   0  0  0  0  0  0  0  0  0  0  0  0
   58.3559   34.6939   47.7445 H   0  0  0  0  0  0  0  0  0  0  0  0
   56.6637   32.9441   47.1861 H   0  0  0  0  0  0  0  0  0  0  0  0
   58.3609   31.5702   47.1068 H   0  0  0  0  0  0  0  0  0  0  0  0
   57.8923   30.0555   47.9626 H   0  0  0  0  0  0  0  0  0  0  0  0
   62.1010   31.2800   46.6040 H   0  0  0  0  0  0  0  0  0  0  0  0
  1  2  1  0
  2  3  2  0
  3  4  1  0
  4  5  2  0
  5  6  1  0
  6  7  1  0
  7  8  1  0
  8  9  1  0
  9 10  1  0
 10 11  1  0
 11 12  1  0
 12 13  1  0
 13 14  1  0
 14 15  1  0
 15 16  1  0
 16 17  2  0
 17 18  1  0
 18 19  2  0
 19 20  1  0
 20 21  2  0
 11 22  1  0
  6 23  2  0
 23  2  1  0
 22  7  1  0
 21 16  1  0
  1 24  1  0
  1 25  1  0
  1 26  1  0
  3 27  1  0
  4 28  1  0
  5 29  1  0
  8 30  1  0
  8 31  1  0
  9 32  1  0
  9 33  1  0
 10 34  1  0
 10 35  1  0
 11 36  1  6
 12 37  1  0
 13 38  1  0
 13 39  1  0
 14 40  1  0
 14 41  1  0
 17 42  1  0
 18 43  1  0
 19 44  1  0
 20 45  1  0
 21 46  1  0
 22 47  1  0
 22 48  1  0
 23 49  1  0
M  CHG  1  23   1
M  END
>  <UniqueID>  (32) 
29

>  <SMILES>  (32) 
Cc1cccc(N2CCC[C@@H](NCCOc3ccccc3)C2)[nH+]1

>  <Energy>  (32) 
54.36594679767579

>  <Genealogy>  (32) 
Cc1cccc(N2CCCC(NCCOc3ccccc3)C2)[nH+]1 (protonated)
Cc1cccc(N2CCC[C@@H](NCCOc3ccccc3)C2)[nH+]1 (chirality)
Cc1cccc(N2CCC[C@@H](NCCOc3ccccc3)C2)[nH+]1 (3D coordinates assigned)
Cc1cccc(N2CCC[C@@H](NCCOc3ccccc3)C2)[nH+]1 (nonaromatic ring conformer: 54.36594679767579 kcal/mol)

>  <smiles>  (32) 
Cc1cccc(N2CCCC(NCCOc3ccccc3)C2)n1

>  <score_type>  (32) 
oracle

>  <origin>  (32) 
adg

>  <m_score__min__energy>  (32) 
-6.5300000000000002

>  <m_primary>  (32) 
energy

$$$$
32:0
     RDKit          3D

 41 44  0  0  0  0  0  0  0  0999 V2000
   58.1270   26.9890   47.4890 C   0  0  0  0  0  0  0  0  0  0  0  0
   58.1440   28.2600   46.7420 N   0  0  0  0  0  0  0  0  0  0  0  0
   58.6390   29.3890   47.3350 C   0  0  0  0  0  0  0  0  0  0  0  0
   59.0930   29.3380   48.5140 O   0  0  0  0  0  0  0  0  0  0  0  0
   58.6430   30.6060   46.6450 C   0  0  0  0  0  0  0  0  0  0  0  0
   59.1730   31.7780   47.2400 C   0  0  0  0  0  0  0  0  0  0  0  0
   59.1530   32.9560   46.5010 C   0  0  0  0  0  0  0  0  0  0  0  0
   58.6410   33.0010   45.2390 C   0  0  0  0  0  0  0  0  0  0  0  0
   58.1090   31.8810   44.6150 C   0  0  0  0  0  0  0  0  0  0  0  0
   58.1010   30.6440   45.3240 C   0  0  0  0  0  0  0  0  0  0  0  0
   57.5800   29.4950   44.7710 N   0  0  0  0  0  0  0  0  0  0  0  0
   57.0010   29.5200   43.4110 C   0  0  0  0  0  0  0  0  0  0  0  0
   57.5930   28.3190   45.4870 C   0  0  0  0  0  0  0  0  0  0  0  0
   57.0890   27.2730   44.9850 O   0  0  0  0  0  0  0  0  0  0  0  0
   58.7550   34.2470   44.7450 N   0  0  0  0  0  0  0  0  0  0  0  0
   59.3520   34.9370   45.7440 C   0  0  0  0  0  0  0  0  0  0  0  0
   59.6460   36.1590   45.6550 O   0  0  0  0  0  0  0  0  0  0  0  0
   59.6050   34.1810   46.8430 N   0  0  0  0  0  0  0  0  0  0  0  0
   60.3020   34.5840   48.0660 C   0  0  0  0  0  0  0  0  0  0  0  0
   61.6260   33.8750   48.1690 C   0  0  0  0  0  0  0  0  0  0  0  0
   62.0650   33.3800   49.4080 C   0  0  0  0  0  0  0  0  0  0  0  0
   63.3070   32.7460   49.5130 C   0  0  0  0  0  0  0  0  0  0  0  0
   64.1180   32.6020   48.3840 C   0  0  0  0  0  0  0  0  0  0  0  0
   63.6890   33.0930   47.1480 C   0  0  0  0  0  0  0  0  0  0  0  0
   62.4480   33.7290   47.0380 C   0  0  0  0  0  0  0  0  0  0  0  0
   58.1298   27.1983   48.5689 H   0  0  0  0  0  0  0  0  0  0  0  0
   57.2212   26.4222   47.2277 H   0  0  0  0  0  0  0  0  0  0  0  0
   59.0173   26.3982   47.2277 H   0  0  0  0  0  0  0  0  0  0  0  0
   59.5887   31.7565   48.2582 H   0  0  0  0  0  0  0  0  0  0  0  0
   57.7022   31.9464   43.5951 H   0  0  0  0  0  0  0  0  0  0  0  0
   55.9042   29.5674   43.4803 H   0  0  0  0  0  0  0  0  0  0  0  0
   57.3727   30.4029   42.8704 H   0  0  0  0  0  0  0  0  0  0  0  0
   57.2952   28.6083   42.8704 H   0  0  0  0  0  0  0  0  0  0  0  0
   58.4630   34.5980   43.8050 H   0  0  0  0  0  0  0  0  0  0  0  0
   60.4725   35.6705   48.0455 H   0  0  0  0  0  0  0  0  0  0  0  0
   59.6837   34.3166   48.9356 H   0  0  0  0  0  0  0  0  0  0  0  0
   61.4295   33.4915   50.2989 H   0  0  0  0  0  0  0  0  0  0  0  0
   63.6461   32.3601   50.4857 H   0  0  0  0  0  0  0  0  0  0  0  0
   65.0942   32.1021   48.4683 H   0  0  0  0  0  0  0  0  0  0  0  0
   64.3283   32.9792   46.2601 H   0  0  0  0  0  0  0  0  0  0  0  0
   62.1144   34.1160   46.0638 H   0  0  0  0  0  0  0  0  0  0  0  0
  1  2  1  0
  2  3  1  0
  3  4  2  0
  3  5  1  0
  5  6  2  0
  6  7  1  0
  7  8  2  0
  8  9  1  0
  9 10  2  0
 10 11  1  0
 11 12  1  0
 11 13  1  0
 13 14  2  0
  8 15  1  0
 15 16  1  0
 16 17  2  0
 16 18  1  0
 18 19  1  0
 19 20  1  0
 20 21  2  0
 21 22  1  0
 22 23  2  0
 23 24  1  0
 24 25  2  0
 13  2  1  0
 25 20  1  0
 10  5  1  0
 18  7  1  0
  1 26  1  0
  1 27  1  0
  1 28  1  0
  6 29  1  0
  9 30  1  0
 12 31  1  0
 12 32  1  0
 12 33  1  0
 15 34  1  0
 19 35  1  0
 19 36  1  0
 21 37  1  0
 22 38  1  0
 23 39  1  0
 24 40  1  0
 25 41  1  0
M  END
>  <UniqueID>  (33) 
30

>  <SMILES>  (33) 
Cn1c(=O)c2cc3c(cc2n(C)c1=O)[nH]c(=O)n3Cc1ccccc1

>  <Energy>  (33) 
98.59709453052315

>  <Genealogy>  (33) 
Cn1c(=O)c2cc3c(cc2n(C)c1=O)[nH]c(=O)n3Cc1ccccc1 (3D coordinates assigned)
Cn1c(=O)c2cc3c(cc2n(C)c1=O)[nH]c(=O)n3Cc1ccccc1 (optimized conformer: 98.59709453052315 kcal/mol)

>  <smiles>  (33) 
Cn1c(=O)c2cc3c(cc2n(C)c1=O)[nH]c(=O)n3Cc1ccccc1

>  <score_type>  (33) 
oracle

>  <origin>  (33) 
adg

>  <m_score__min__energy>  (33) 
-7.5700000000000003

>  <m_primary>  (33) 
energy

$$$$
33:0
     RDKit          3D

 55 57  0  0  1  0  0  0  0  0999 V2000
   54.4750   24.8280   45.5770 C   0  0  0  0  0  0  0  0  0  0  0  0
   55.3100   25.9520   45.8960 N   0  0  0  0  0  0  0  0  0  0  0  0
   56.7110   25.6940   45.6780 C   0  0  0  0  0  0  0  0  0  0  0  0
   57.5150   26.9340   45.5160 C   0  0  0  0  0  0  0  0  0  0  0  0
   57.4210   28.0240   46.3620 C   0  0  0  0  0  0  0  0  0  0  0  0
   58.3020   28.9480   45.8950 N   0  0  0  0  0  0  0  0  0  0  0  0
   58.4660   30.2090   46.5360 C   0  0  0  0  0  0  0  0  0  0  0  0
   59.1040   30.1810   47.7760 C   0  0  0  0  0  0  0  0  0  0  0  0
   59.2850   31.3530   48.4260 N   0  0  0  0  0  0  0  0  0  0  0  0
   58.8490   32.5090   47.8670 C   0  0  0  0  0  0  0  0  0  0  0  0
   59.0490   33.5830   48.5320 N   0  0  0  0  0  0  0  0  0  0  0  0
   60.2480   34.3590   48.2890 C   0  0  0  0  0  0  0  0  0  0  0  0
   60.9850   33.8510   47.0540 C   0  0  0  0  0  0  0  0  0  0  0  0
   62.3990   33.4270   47.4170 C   0  0  0  0  0  0  0  0  0  0  0  0
   63.3950   33.8760   46.3870 C   0  0  0  0  0  0  0  0  0  0  0  0
   62.4100   31.9190   47.4980 C   0  0  0  0  0  0  0  0  0  0  0  0
   58.2360   32.5290   46.6750 N   0  0  0  0  0  0  0  0  0  0  0  0
   58.0250   31.3860   45.9720 C   0  0  0  0  0  0  0  0  0  0  0  0
   57.3760   31.3800   44.7050 N   0  0  0  0  0  0  0  0  0  0  0  0
   56.2790   30.4720   44.3910 C   0  0  0  0  0  0  0  0  0  0  0  0
   56.6610   29.8370   43.0480 C   0  0  0  0  0  0  0  0  0  0  0  0
   56.5890   30.8650   42.1180 O   0  0  0  0  0  0  0  0  0  0  0  0
   57.6830   31.6900   42.2830 C   0  0  0  0  0  0  0  0  0  0  0  0
   57.7860   32.2910   43.6520 C   0  0  0  0  0  0  0  0  0  0  0  0
   58.9160   28.4540   44.8050 C   0  0  0  0  0  0  0  0  0  0  0  0
   58.4300   27.2130   44.5730 N   0  0  0  0  0  0  0  0  0  0  0  0
   54.1244   24.3561   46.5067 H   0  0  0  0  0  0  0  0  0  0  0  0
   53.6095   25.1691   44.9900 H   0  0  0  0  0  0  0  0  0  0  0  0
   55.0515   24.0979   44.9900 H   0  0  0  0  0  0  0  0  0  0  0  0
   55.1470   26.3380   46.8460 H   0  0  0  0  0  0  0  0  0  0  0  0
   57.1019   25.1337   46.5401 H   0  0  0  0  0  0  0  0  0  0  0  0
   56.7971   25.1231   44.7417 H   0  0  0  0  0  0  0  0  0  0  0  0
   56.7639   28.1235   47.2386 H   0  0  0  0  0  0  0  0  0  0  0  0
   59.4501   29.2326   48.2128 H   0  0  0  0  0  0  0  0  0  0  0  0
   59.7600   31.3460   49.3530 H   0  0  0  0  0  0  0  0  0  0  0  0
   59.9702   35.4121   48.1347 H   0  0  0  0  0  0  0  0  0  0  0  0
   60.9127   34.2603   49.1599 H   0  0  0  0  0  0  0  0  0  0  0  0
   60.4436   32.9885   46.6382 H   0  0  0  0  0  0  0  0  0  0  0  0
   61.0352   34.6603   46.3107 H   0  0  0  0  0  0  0  0  0  0  0  0
   62.6840   33.8889   48.3738 H   0  0  0  0  0  0  0  0  0  0  0  0
   64.2868   34.2780   46.8901 H   0  0  0  0  0  0  0  0  0  0  0  0
   63.6831   33.0207   45.7582 H   0  0  0  0  0  0  0  0  0  0  0  0
   62.9448   34.6582   45.7582 H   0  0  0  0  0  0  0  0  0  0  0  0
   62.4123   31.6085   48.5533 H   0  0  0  0  0  0  0  0  0  0  0  0
   61.5148   31.5185   46.9999 H   0  0  0  0  0  0  0  0  0  0  0  0
   63.3110   31.5316   46.9999 H   0  0  0  0  0  0  0  0  0  0  0  0
   56.1807   29.7008   45.1692 H   0  0  0  0  0  0  0  0  0  0  0  0
   55.3121   30.9941   44.3409 H   0  0  0  0  0  0  0  0  0  0  0  0
   57.6817   29.4292   43.0920 H   0  0  0  0  0  0  0  0  0  0  0  0
   55.9936   29.0026   42.7865 H   0  0  0  0  0  0  0  0  0  0  0  0
   58.5929   31.1017   42.0931 H   0  0  0  0  0  0  0  0  0  0  0  0
   57.5654   32.5236   41.5750 H   0  0  0  0  0  0  0  0  0  0  0  0
   58.8318   32.5827   43.8287 H   0  0  0  0  0  0  0  0  0  0  0  0
   57.1069   33.1558   43.6830 H   0  0  0  0  0  0  0  0  0  0  0  0
   59.6809   28.9698   44.2059 H   0  0  0  0  0  0  0  0  0  0  0  0
  1  2  1  0
  2  3  1  0
  3  4  1  0
  4  5  2  0
  5  6  1  0
  6  7  1  0
  7  8  2  0
  8  9  1  0
  9 10  1  0
 10 11  2  0
 11 12  1  0
 12 13  1  0
 13 14  1  0
 14 15  1  0
 14 16  1  0
 10 17  1  0
 17 18  2  0
 18 19  1  0
 19 20  1  0
 20 21  1  0
 21 22  1  0
 22 23  1  0
 23 24  1  0
  6 25  1  0
 25 26  2  0
 26  4  1  0
 18  7  1  0
 24 19  1  0
  1 27  1  0
  1 28  1  0
  1 29  1  0
  2 30  1  0
  3 31  1  0
  3 32  1  0
  5 33  1  0
  8 34  1  0
  9 35  1  0
 12 36  1  0
 12 37  1  0
 13 38  1  0
 13 39  1  0
 14 40  1  0
 15 41  1  0
 15 42  1  0
 15 43  1  0
 16 44  1  0
 16 45  1  0
 16 46  1  0
 20 47  1  0
 20 48  1  0
 21 49  1  0
 21 50  1  0
 23 51  1  0
 23 52  1  0
 24 53  1  0
 24 54  1  0
 25 55  1  0
M  END
>  <smiles>  (34) 
CNCc1cn(-c2c[nH]c(=NCCC(C)C)nc2N2CCOCC2)cn1

>  <score_type>  (34) 
oracle

>  <origin>  (34) 
adg

>  <m_score__min__energy>  (34) 
-7.2300000000000004

>  <m_primary>  (34) 
energy

$$$$
34:0
     RDKit          3D

 32 34  0  0  0  0  0  0  0  0999 V2000
   57.9640   27.9520   44.4480 C   0  0  0  0  0  0  0  0  0  0  0  0
   57.9810   29.4380   44.6950 C   0  0  0  0  0  0  0  0  0  0  0  0
   59.0380   30.0000   45.4300 C   0  0  0  0  0  0  0  0  0  0  0  0
   59.0880   31.3750   45.6640 C   0  0  0  0  0  0  0  0  0  0  0  0
   58.0660   32.2090   45.1870 C   0  0  0  0  0  0  0  0  0  0  0  0
   57.0140   31.6610   44.4400 C   0  0  0  0  0  0  0  0  0  0  0  0
   56.9670   30.2810   44.1780 C   0  0  0  0  0  0  0  0  0  0  0  0
   55.8170   29.7210   43.3810 C   0  0  0  0  0  0  0  0  0  0  0  0
   58.1200   33.6470   45.5240 C   0  0  0  0  0  0  0  0  0  0  0  0
   57.2770   34.4530   45.0440 O   0  0  0  0  0  0  0  0  0  0  0  0
   59.1440   34.1380   46.5070 C   0  0  0  0  0  0  0  0  0  0  0  0
   60.4400   33.3230   46.3730 C   0  0  1  0  0  0  0  0  0  0  0  0
   61.3940   33.6580   47.4790 C   0  0  0  0  0  0  0  0  0  0  0  0
   62.7720   33.4800   47.4520 C   0  0  0  0  0  0  0  0  0  0  0  0
   63.3940   33.8150   48.6600 C   0  0  0  0  0  0  0  0  0  0  0  0
   62.5100   34.2410   49.6430 C   0  0  0  0  0  0  0  0  0  0  0  0
   60.9540   34.1980   49.0080 S   0  0  0  0  0  0  0  0  0  0  0  0
   60.1610   31.9200   46.3810 O   0  0  0  0  0  0  0  0  0  0  0  0
   57.9579   27.4203   45.4109 H   0  0  0  0  0  0  0  0  0  0  0  0
   57.0627   27.6856   43.8764 H   0  0  0  0  0  0  0  0  0  0  0  0
   58.8589   27.6651   43.8764 H   0  0  0  0  0  0  0  0  0  0  0  0
   59.8333   29.3506   45.8246 H   0  0  0  0  0  0  0  0  0  0  0  0
   56.2186   32.3165   44.0557 H   0  0  0  0  0  0  0  0  0  0  0  0
   55.0441   29.3446   44.0673 H   0  0  0  0  0  0  0  0  0  0  0  0
   55.3905   30.5123   42.7470 H   0  0  0  0  0  0  0  0  0  0  0  0
   56.1770   28.8973   42.7470 H   0  0  0  0  0  0  0  0  0  0  0  0
   59.3592   35.1984   46.3087 H   0  0  0  0  0  0  0  0  0  0  0  0
   58.7489   34.0199   47.5268 H   0  0  0  0  0  0  0  0  0  0  0  0
   60.9050   33.5856   45.4113 H   0  0  0  0  0  0  0  0  0  0  0  0
   63.3183   33.1130   46.5706 H   0  0  0  0  0  0  0  0  0  0  0  0
   64.4807   33.7473   48.8163 H   0  0  0  0  0  0  0  0  0  0  0  0
   62.7815   34.5530   50.6623 H   0  0  0  0  0  0  0  0  0  0  0  0
  1  2  1  0
  2  3  2  0
  3  4  1  0
  4  5  2  0
  5  6  1  0
  6  7  2  0
  7  8  1  0
  5  9  1  0
  9 10  2  0
  9 11  1  0
 11 12  1  0
 12 13  1  0
 13 14  2  0
 14 15  1  0
 15 16  2  0
 16 17  1  0
 12 18  1  0
  7  2  1  0
 17 13  1  0
 18  4  1  0
  1 19  1  0
  1 20  1  0
  1 21  1  0
  3 22  1  0
  6 23  1  0
  8 24  1  0
  8 25  1  0
  8 26  1  0
 11 27  1  0
 11 28  1  0
 12 29  1  6
 14 30  1  0
 15 31  1  0
 16 32  1  0
M  END
>  <UniqueID>  (35) 
31

>  <SMILES>  (35) 
Cc1cc2c(cc1C)C(=O)C[C@@H](c1cccs1)O2

>  <Energy>  (35) 
59.85923219961213

>  <Genealogy>  (35) 
Cc1cc2c(cc1C)C(=O)C[C@@H](c1cccs1)O2 (chirality)
Cc1cc2c(cc1C)C(=O)C[C@@H](c1cccs1)O2 (3D coordinates assigned)
Cc1cc2c(cc1C)C(=O)C[C@@H](c1cccs1)O2 (nonaromatic ring conformer: 59.85923219961213 kcal/mol)

>  <smiles>  (35) 
Cc1cc2c(cc1C)C(=O)CC(c1cccs1)O2

>  <score_type>  (35) 
oracle

>  <origin>  (35) 
adg

>  <m_score__min__energy>  (35) 
-6.9800000000000004

>  <m_primary>  (35) 
energy

$$$$
35:0
     RDKit          3D

 48 49  0  0  0  0  0  0  0  0999 V2000
   60.4700   27.2660   46.0070 C   0  0  0  0  0  0  0  0  0  0  0  0
   60.6460   28.7060   45.5330 C   0  0  0  0  0  0  0  0  0  0  0  0
   59.8240   29.6190   46.3590 N   0  0  0  0  0  0  0  0  0  0  0  0
   58.8490   30.3700   45.5330 C   0  0  0  0  0  0  0  0  0  0  0  0
   58.0740   29.4240   44.6080 C   0  0  0  0  0  0  0  0  0  0  0  0
   56.6540   29.7900   44.5560 C   0  0  0  0  0  0  0  0  0  0  0  0
   55.5330   30.0720   44.5160 N   0  0  0  0  0  0  0  0  0  0  0  0
   59.1470   28.8940   47.4620 C   0  0  0  0  0  0  0  0  0  0  0  0
   58.8950   29.8450   48.6340 C   0  0  0  0  0  0  0  0  0  0  0  0
   59.5710   31.1270   48.3950 N   0  0  0  0  0  0  0  0  0  0  0  0
   58.6530   32.2680   48.5260 C   0  0  0  0  0  0  0  0  0  0  0  0
   58.6020   33.1100   47.2640 C   0  0  0  0  0  0  0  0  0  0  0  0
   57.3880   33.2100   46.5640 C   0  0  0  0  0  0  0  0  0  0  0  0
   57.3080   33.9440   45.3790 C   0  0  0  0  0  0  0  0  0  0  0  0
   58.4390   34.5830   44.8740 C   0  0  0  0  0  0  0  0  0  0  0  0
   59.6560   34.4890   45.5500 C   0  0  0  0  0  0  0  0  0  0  0  0
   59.7540   33.7580   46.7450 C   0  0  0  0  0  0  0  0  0  0  0  0
   61.0670   33.6770   47.4150 C   0  0  0  0  0  0  0  0  0  0  0  0
   62.1590   33.0930   46.7530 C   0  0  0  0  0  0  0  0  0  0  0  0
   63.4030   33.0120   47.3870 C   0  0  0  0  0  0  0  0  0  0  0  0
   63.5650   33.5240   48.6780 C   0  0  0  0  0  0  0  0  0  0  0  0
   62.4860   34.1230   49.3350 C   0  0  0  0  0  0  0  0  0  0  0  0
   61.2390   34.2020   48.7050 C   0  0  0  0  0  0  0  0  0  0  0  0
   60.4668   27.2398   47.1067 H   0  0  0  0  0  0  0  0  0  0  0  0
   59.5167   26.8691   45.6280 H   0  0  0  0  0  0  0  0  0  0  0  0
   61.2997   26.6512   45.6280 H   0  0  0  0  0  0  0  0  0  0  0  0
   61.7049   28.9907   45.6205 H   0  0  0  0  0  0  0  0  0  0  0  0
   60.3229   28.7812   44.4842 H   0  0  0  0  0  0  0  0  0  0  0  0
   58.1395   30.8881   46.1949 H   0  0  0  0  0  0  0  0  0  0  0  0
   59.3971   31.0961   44.9146 H   0  0  0  0  0  0  0  0  0  0  0  0
   58.4985   29.4830   43.5949 H   0  0  0  0  0  0  0  0  0  0  0  0
   58.1590   28.4001   45.0010 H   0  0  0  0  0  0  0  0  0  0  0  0
   58.1865   28.4968   47.1018 H   0  0  0  0  0  0  0  0  0  0  0  0
   59.7890   28.0668   47.7989 H   0  0  0  0  0  0  0  0  0  0  0  0
   57.8135   30.0172   48.7374 H   0  0  0  0  0  0  0  0  0  0  0  0
   59.2908   29.3945   49.5561 H   0  0  0  0  0  0  0  0  0  0  0  0
   59.9880   31.1200   47.4350 H   0  0  0  0  0  0  0  0  0  0  0  0
   57.6431   31.8876   48.7393 H   0  0  0  0  0  0  0  0  0  0  0  0
   59.0211   32.9058   49.3431 H   0  0  0  0  0  0  0  0  0  0  0  0
   56.4917   32.7050   46.9534 H   0  0  0  0  0  0  0  0  0  0  0  0
   56.3504   34.0181   44.8429 H   0  0  0  0  0  0  0  0  0  0  0  0
   58.3721   35.1622   43.9412 H   0  0  0  0  0  0  0  0  0  0  0  0
   60.5460   34.9916   45.1435 H   0  0  0  0  0  0  0  0  0  0  0  0
   62.0358   32.6984   45.7336 H   0  0  0  0  0  0  0  0  0  0  0  0
   64.2543   32.5453   46.8698 H   0  0  0  0  0  0  0  0  0  0  0  0
   64.5427   33.4554   49.1774 H   0  0  0  0  0  0  0  0  0  0  0  0
   62.6174   34.5323   50.3475 H   0  0  0  0  0  0  0  0  0  0  0  0
   60.3919   34.6766   49.2220 H   0  0  0  0  0  0  0  0  0  0  0  0
  1  2  1  0
  2  3  1  0
  3  4  1  0
  4  5  1  0
  5  6  1  0
  6  7  3  0
  3  8  1  0
  8  9  1  0
  9 10  1  0
 10 11  1  0
 11 12  1  0
 12 13  2  0
 13 14  1  0
 14 15  2  0
 15 16  1  0
 16 17  2  0
 17 18  1  0
 18 19  2  0
 19 20  1  0
 20 21  2  0
 21 22  1  0
 22 23  2  0
 17 12  1  0
 23 18  1  0
  1 24  1  0
  1 25  1  0
  1 26  1  0
  2 27  1  0
  2 28  1  0
  4 29  1  0
  4 30  1  0
  5 31  1  0
  5 32  1  0
  8 33  1  0
  8 34  1  0
  9 35  1  0
  9 36  1  0
 10 37  1  0
 11 38  1  0
 11 39  1  0
 13 40  1  0
 14 41  1  0
 15 42  1  0
 16 43  1  0
 19 44  1  0
 20 45  1  0
 21 46  1  0
 22 47  1  0
 23 48  1  0
M  END
>  <UniqueID>  (36) 
32

>  <SMILES>  (36) 
CCN(CCC#N)CCNCc1ccccc1-c1ccccc1

>  <Energy>  (36) 
49.17662811514518

>  <Genealogy>  (36) 
CCN(CCC#N)CCNCc1ccccc1-c1ccccc1 (3D coordinates assigned)
CCN(CCC#N)CCNCc1ccccc1-c1ccccc1 (optimized conformer: 49.17662811514518 kcal/mol)

>  <smiles>  (36) 
CCN(CCC#N)CCNCc1ccccc1-c1ccccc1

>  <score_type>  (36) 
oracle

>  <origin>  (36) 
adg

>  <m_score__min__energy>  (36) 
-7.04

>  <m_primary>  (36) 
energy

$$$$
36:0
     RDKit          3D

 44 47  0  0  0  0  0  0  0  0999 V2000
   58.8850   26.8430   44.8720 C   0  0  0  0  0  0  0  0  0  0  0  0
   58.1390   26.6250   43.7130 C   0  0  0  0  0  0  0  0  0  0  0  0
   57.4240   27.6400   43.1530 N   0  0  0  0  0  0  0  0  0  0  0  0
   57.4110   28.8890   43.7020 C   0  0  0  0  0  0  0  0  0  0  0  0
   56.6740   29.9240   43.1090 C   0  0  0  0  0  0  0  0  0  0  0  0
   56.6670   31.1990   43.6800 C   0  0  0  0  0  0  0  0  0  0  0  0
   57.3890   31.4570   44.8590 C   0  0  0  0  0  0  0  0  0  0  0  0
   57.4160   32.7300   45.4480 O   0  0  0  0  0  0  0  0  0  0  0  0
   58.3840   33.1840   46.3570 C   0  0  0  0  0  0  0  0  0  0  0  0
   58.3990   32.7670   47.6980 C   0  0  0  0  0  0  0  0  0  0  0  0
   59.3920   33.2250   48.5680 C   0  0  0  0  0  0  0  0  0  0  0  0
   60.4060   34.0820   48.1040 C   0  0  0  0  0  0  0  0  0  0  0  0
   61.4910   34.5720   49.0450 C   0  0  0  0  0  0  0  0  0  0  0  0
   62.7630   33.8100   48.9780 N   0  0  0  0  0  0  0  0  0  0  0  0
   62.5860   32.3530   48.9360 C   0  0  0  0  0  0  0  0  0  0  0  0
   62.7690   31.9000   47.4940 C   0  0  0  0  0  0  0  0  0  0  0  0
   63.4290   33.0650   46.7760 C   0  0  0  0  0  0  0  0  0  0  0  0
   63.6050   34.1530   47.8260 C   0  0  0  0  0  0  0  0  0  0  0  0
   60.3790   34.5030   46.7640 C   0  0  0  0  0  0  0  0  0  0  0  0
   59.3850   34.0440   45.8960 C   0  0  0  0  0  0  0  0  0  0  0  0
   58.1420   30.4320   45.4430 C   0  0  0  0  0  0  0  0  0  0  0  0
   58.1540   29.1490   44.8780 C   0  0  0  0  0  0  0  0  0  0  0  0
   58.8930   28.1100   45.4570 C   0  0  0  0  0  0  0  0  0  0  0  0
   59.4627   26.0219   45.3214 H   0  0  0  0  0  0  0  0  0  0  0  0
   58.1284   25.6277   43.2490 H   0  0  0  0  0  0  0  0  0  0  0  0
   56.8780   27.4430   42.2840 H   0  0  0  0  0  0  0  0  0  0  0  0
   56.0993   29.7314   42.1910 H   0  0  0  0  0  0  0  0  0  0  0  0
   56.0925   32.0072   43.2039 H   0  0  0  0  0  0  0  0  0  0  0  0
   57.6254   32.0766   48.0652 H   0  0  0  0  0  0  0  0  0  0  0  0
   59.3805   32.9131   49.6228 H   0  0  0  0  0  0  0  0  0  0  0  0
   61.7078   35.6222   48.8001 H   0  0  0  0  0  0  0  0  0  0  0  0
   61.1015   34.4359   50.0647 H   0  0  0  0  0  0  0  0  0  0  0  0
   63.3352   31.8670   49.5782 H   0  0  0  0  0  0  0  0  0  0  0  0
   61.5848   32.0783   49.2995 H   0  0  0  0  0  0  0  0  0  0  0  0
   63.4126   31.0090   47.4509 H   0  0  0  0  0  0  0  0  0  0  0  0
   61.8095   31.6287   47.0295 H   0  0  0  0  0  0  0  0  0  0  0  0
   64.4058   32.7617   46.3712 H   0  0  0  0  0  0  0  0  0  0  0  0
   62.8215   33.4148   45.9283 H   0  0  0  0  0  0  0  0  0  0  0  0
   64.6590   34.2057   48.1362 H   0  0  0  0  0  0  0  0  0  0  0  0
   63.3130   35.1312   47.4162 H   0  0  0  0  0  0  0  0  0  0  0  0
   61.1464   35.1995   46.3953 H   0  0  0  0  0  0  0  0  0  0  0  0
   59.3901   34.3615   44.8428 H   0  0  0  0  0  0  0  0  0  0  0  0
   58.7284   30.6344   46.3514 H   0  0  0  0  0  0  0  0  0  0  0  0
   59.4782   28.2920   46.3704 H   0  0  0  0  0  0  0  0  0  0  0  0
  1  2  2  0
  2  3  1  0
  3  4  2  0
  4  5  1  0
  5  6  2  0
  6  7  1  0
  7  8  1  0
  8  9  1  0
  9 10  2  0
 10 11  1  0
 11 12  2  0
 12 13  1  0
 13 14  1  0
 14 15  1  0
 15 16  1  0
 16 17  1  0
 17 18  1  0
 12 19  1  0
 19 20  2  0
  7 21  2  0
 21 22  1  0
 22 23  2  0
 23  1  1  0
 22  4  1  0
 20  9  1  0
 18 14  1  0
  1 24  1  0
  2 25  1  0
  3 26  1  0
  5 27  1  0
  6 28  1  0
 10 29  1  0
 11 30  1  0
 13 31  1  0
 13 32  1  0
 15 33  1  0
 15 34  1  0
 16 35  1  0
 16 36  1  0
 17 37  1  0
 17 38  1  0
 18 39  1  0
 18 40  1  0
 19 41  1  0
 20 42  1  0
 21 43  1  0
 23 44  1  0
M  CHG  1   3   1
M  END
>  <UniqueID>  (37) 
33

>  <SMILES>  (37) 
c1c[nH+]c2ccc(Oc3ccc(CN4CCCC4)cc3)cc2c1

>  <Energy>  (37) 
62.27384626682504

>  <Genealogy>  (37) 
c1c[nH+]c2ccc(Oc3ccc(CN4CCCC4)cc3)cc2c1 (protonated)
c1c[nH+]c2ccc(Oc3ccc(CN4CCCC4)cc3)cc2c1 (3D coordinates assigned)
c1c[nH+]c2ccc(Oc3ccc(CN4CCCC4)cc3)cc2c1 (nonaromatic ring conformer: 62.27384626682504 kcal/mol)

>  <smiles>  (37) 
c1cnc2ccc(Oc3ccc(CN4CCCC4)cc3)cc2c1

>  <score_type>  (37) 
oracle

>  <origin>  (37) 
adg

>  <m_score__min__energy>  (37) 
-7.1900000000000004

>  <m_primary>  (37) 
energy

$$$$
37:0
     RDKit          3D

 39 41  0  0  0  0  0  0  0  0999 V2000
   59.6380   28.5900   48.6630 C   0  0  0  0  0  0  0  0  0  0  0  0
   58.5170   28.7080   47.7940 O   0  0  0  0  0  0  0  0  0  0  0  0
   58.3800   28.0250   46.5750 C   0  0  0  0  0  0  0  0  0  0  0  0
   58.2760   26.6200   46.5130 C   0  0  0  0  0  0  0  0  0  0  0  0
   58.1590   25.9750   45.2790 C   0  0  0  0  0  0  0  0  0  0  0  0
   58.1460   26.7180   44.0970 C   0  0  0  0  0  0  0  0  0  0  0  0
   58.2450   28.1100   44.1460 C   0  0  0  0  0  0  0  0  0  0  0  0
   58.3550   28.7690   45.3800 C   0  0  0  0  0  0  0  0  0  0  0  0
   58.4520   30.2030   45.4130 N   0  0  0  0  0  0  0  0  0  0  0  0
   57.3700   31.0140   44.9420 C   0  0  0  0  0  0  0  0  0  0  0  0
   56.3130   30.4860   44.4990 O   0  0  0  0  0  0  0  0  0  0  0  0
   57.5320   32.5000   44.9010 C   0  0  0  0  0  0  0  0  0  0  0  0
   58.3310   32.9710   46.0540 N   0  0  2  0  0  0  0  0  0  0  0  0
   58.4070   34.4580   46.0200 C   0  0  0  0  0  0  0  0  0  0  0  0
   59.5620   35.0390   46.8620 C   0  0  0  0  0  0  0  0  0  0  0  0
   59.9840   34.0800   47.9700 C   0  0  0  0  0  0  0  0  0  0  0  0
   60.4300   32.7290   47.3900 C   0  0  0  0  0  0  0  0  0  0  0  0
   59.6870   32.3570   46.0760 C   0  0  1  0  0  0  0  0  0  0  0  0
   59.6320   30.8460   45.9240 C   0  0  0  0  0  0  0  0  0  0  0  0
   60.6530   30.1590   46.2070 O   0  0  0  0  0  0  0  0  0  0  0  0
   59.2971   28.6259   49.7082 H   0  0  0  0  0  0  0  0  0  0  0  0
   60.1476   27.6332   48.4762 H   0  0  0  0  0  0  0  0  0  0  0  0
   60.3357   29.4197   48.4762 H   0  0  0  0  0  0  0  0  0  0  0  0
   58.2870   26.0289   47.4406 H   0  0  0  0  0  0  0  0  0  0  0  0
   58.0769   24.8788   45.2387 H   0  0  0  0  0  0  0  0  0  0  0  0
   58.0578   26.2068   43.1270 H   0  0  0  0  0  0  0  0  0  0  0  0
   58.2367   28.6926   43.2130 H   0  0  0  0  0  0  0  0  0  0  0  0
   58.0427   32.7820   43.9685 H   0  0  0  0  0  0  0  0  0  0  0  0
   56.5365   32.9657   44.9467 H   0  0  0  0  0  0  0  0  0  0  0  0
   57.8200   32.6920   46.9270 H   0  0  0  0  0  0  0  0  0  0  0  0
   58.5448   34.7750   44.9757 H   0  0  0  0  0  0  0  0  0  0  0  0
   57.4702   34.8379   46.4535 H   0  0  0  0  0  0  0  0  0  0  0  0
   60.4238   35.2271   46.2048 H   0  0  0  0  0  0  0  0  0  0  0  0
   59.2134   35.9724   47.3280 H   0  0  0  0  0  0  0  0  0  0  0  0
   60.8197   34.5240   48.5308 H   0  0  0  0  0  0  0  0  0  0  0  0
   59.1224   33.9093   48.6322 H   0  0  0  0  0  0  0  0  0  0  0  0
   61.5090   32.7762   47.1813 H   0  0  0  0  0  0  0  0  0  0  0  0
   60.1892   31.9558   48.1344 H   0  0  0  0  0  0  0  0  0  0  0  0
   60.2400   32.7608   45.2151 H   0  0  0  0  0  0  0  0  0  0  0  0
  1  2  1  0
  2  3  1  0
  3  4  2  0
  4  5  1  0
  5  6  2  0
  6  7  1  0
  7  8  2  0
  8  9  1  0
  9 10  1  0
 10 11  2  0
 10 12  1  0
 12 13  1  0
 13 14  1  0
 14 15  1  0
 15 16  1  0
 16 17  1  0
 17 18  1  0
 18 19  1  0
 19 20  2  0
  8  3  1  0
 19  9  1  0
 18 13  1  0
  1 21  1  0
  1 22  1  0
  1 23  1  0
  4 24  1  0
  5 25  1  0
  6 26  1  0
  7 27  1  0
 12 28  1  0
 12 29  1  0
 13 30  1  1
 14 31  1  0
 14 32  1  0
 15 33  1  0
 15 34  1  0
 16 35  1  0
 16 36  1  0
 17 37  1  0
 17 38  1  0
 18 39  1  6
M  CHG  1  13   1
M  END
>  <UniqueID>  (38) 
34

>  <SMILES>  (38) 
COc1ccccc1N1C(=O)C[N@@H+]2CCCC[C@H]2C1=O

>  <Energy>  (38) 
55.346609529095204

>  <Genealogy>  (38) 
COc1ccccc1N1C(=O)C[NH+]2CCCCC2C1=O (protonated)
COc1ccccc1N1C(=O)C[N@@H+]2CCCC[C@H]2C1=O (chirality)
COc1ccccc1N1C(=O)C[N@@H+]2CCCC[C@H]2C1=O (3D coordinates assigned)
COc1ccccc1N1C(=O)C[N@@H+]2CCCC[C@H]2C1=O (nonaromatic ring conformer: 55.346609529095204 kcal/mol)

>  <smiles>  (38) 
COc1ccccc1N1C(=O)CN2CCCCC2C1=O

>  <score_type>  (38) 
oracle

>  <origin>  (38) 
adg

>  <m_score__min__energy>  (38) 
-4.9699999999999998

>  <m_primary>  (38) 
energy

$$$$
38:0
     RDKit          3D

 41 43  0  0  0  0  0  0  0  0999 V2000
   64.8820   33.8940   51.5410 C   0  0  0  0  0  0  0  0  0  0  0  0
   65.5170   33.0660   50.0500 S   0  0  0  0  0  0  0  0  0  0  0  0
   63.9650   33.2110   49.1630 C   0  0  0  0  0  0  0  0  0  0  0  0
   63.7740   32.5580   47.9470 C   0  0  0  0  0  0  0  0  0  0  0  0
   62.5940   32.6840   47.2900 N   0  0  0  0  0  0  0  0  0  0  0  0
   61.5790   33.4430   47.7910 C   0  0  0  0  0  0  0  0  0  0  0  0
   60.3390   33.5520   47.0610 N   0  0  0  0  0  0  0  0  0  0  0  0
   59.9310   34.8440   46.4930 C   0  0  0  0  0  0  0  0  0  0  0  0
   59.1250   34.6110   45.2130 C   0  0  0  0  0  0  0  0  0  0  0  0
   57.9380   33.7540   45.4410 N   0  0  0  0  0  0  0  0  0  0  0  0
   57.4400   33.0990   44.2110 C   0  0  0  0  0  0  0  0  0  0  0  0
   57.3670   31.5940   44.3170 C   0  0  0  0  0  0  0  0  0  0  0  0
   58.5280   30.8080   44.2300 C   0  0  0  0  0  0  0  0  0  0  0  0
   58.4250   29.4190   44.3190 C   0  0  0  0  0  0  0  0  0  0  0  0
   57.1760   28.8250   44.5010 C   0  0  0  0  0  0  0  0  0  0  0  0
   56.0420   29.6350   44.5950 C   0  0  0  0  0  0  0  0  0  0  0  0
   56.1620   30.9860   44.5050 N   0  0  0  0  0  0  0  0  0  0  0  0
   57.9990   32.8650   46.6270 C   0  0  0  0  0  0  0  0  0  0  0  0
   59.4270   32.4050   46.9530 C   0  0  0  0  0  0  0  0  0  0  0  0
   61.7530   34.0870   48.9840 N   0  0  0  0  0  0  0  0  0  0  0  0
   62.9220   33.9850   49.6700 C   0  0  0  0  0  0  0  0  0  0  0  0
   65.2711   33.3866   52.4360 H   0  0  0  0  0  0  0  0  0  0  0  0
   65.2082   34.9445   51.5441 H   0  0  0  0  0  0  0  0  0  0  0  0
   63.7828   33.8514   51.5441 H   0  0  0  0  0  0  0  0  0  0  0  0
   64.5789   31.9413   47.5205 H   0  0  0  0  0  0  0  0  0  0  0  0
   59.3107   35.3851   47.2227 H   0  0  0  0  0  0  0  0  0  0  0  0
   60.8261   35.4384   46.2577 H   0  0  0  0  0  0  0  0  0  0  0  0
   58.7890   35.5840   44.8251 H   0  0  0  0  0  0  0  0  0  0  0  0
   59.7785   34.0945   44.4945 H   0  0  0  0  0  0  0  0  0  0  0  0
   56.4315   33.4822   43.9964 H   0  0  0  0  0  0  0  0  0  0  0  0
   58.1547   33.3325   43.4081 H   0  0  0  0  0  0  0  0  0  0  0  0
   59.5104   31.2834   44.0928 H   0  0  0  0  0  0  0  0  0  0  0  0
   59.3271   28.7938   44.2458 H   0  0  0  0  0  0  0  0  0  0  0  0
   57.0852   27.7309   44.5697 H   0  0  0  0  0  0  0  0  0  0  0  0
   55.0516   29.1795   44.7419 H   0  0  0  0  0  0  0  0  0  0  0  0
   57.5983   33.4090   47.4950 H   0  0  0  0  0  0  0  0  0  0  0  0
   57.4059   31.9672   46.3987 H   0  0  0  0  0  0  0  0  0  0  0  0
   59.4199   31.8601   47.9085 H   0  0  0  0  0  0  0  0  0  0  0  0
   59.7790   31.7533   46.1398 H   0  0  0  0  0  0  0  0  0  0  0  0
   60.9840   34.6570   49.4030 H   0  0  0  0  0  0  0  0  0  0  0  0
   63.0454   34.5139   50.6266 H   0  0  0  0  0  0  0  0  0  0  0  0
  1  2  1  0
  2  3  1  0
  3  4  2  0
  4  5  1  0
  5  6  2  0
  6  7  1  0
  7  8  1  0
  8  9  1  0
  9 10  1  0
 10 11  1  0
 11 12  1  0
 12 13  2  0
 13 14  1  0
 14 15  2  0
 15 16  1  0
 16 17  2  0
 10 18  1  0
 18 19  1  0
  6 20  1  0
 20 21  2  0
 21  3  1  0
 19  7  1  0
 17 12  1  0
  1 22  1  0
  1 23  1  0
  1 24  1  0
  4 25  1  0
  8 26  1  0
  8 27  1  0
  9 28  1  0
  9 29  1  0
 11 30  1  0
 11 31  1  0
 13 32  1  0
 14 33  1  0
 15 34  1  0
 16 35  1  0
 18 36  1  0
 18 37  1  0
 19 38  1  0
 19 39  1  0
 20 40  1  0
 21 41  1  0
M  CHG  1  20   1
M  END
>  <UniqueID>  (39) 
35

>  <SMILES>  (39) 
CSc1cnc(N2CCN(Cc3ccccn3)CC2)[nH+]c1

>  <Energy>  (39) 
49.475173956700004

>  <Genealogy>  (39) 
CSc1cnc(N2CCN(Cc3ccccn3)CC2)[nH+]c1 (protonated)
CSc1cnc(N2CCN(Cc3ccccn3)CC2)[nH+]c1 (3D coordinates assigned)
CSc1cnc(N2CCN(Cc3ccccn3)CC2)[nH+]c1 (nonaromatic ring conformer: 49.475173956700004 kcal/mol)

>  <smiles>  (39) 
CSc1cnc(N2CCN(Cc3ccccn3)CC2)nc1

>  <score_type>  (39) 
oracle

>  <origin>  (39) 
adg

>  <m_score__min__energy>  (39) 
-5.96

>  <m_primary>  (39) 
energy

$$$$
39:0
     RDKit          3D

 52 54  0  0  0  0  0  0  0  0999 V2000
   57.8020   31.9870   49.7580 O   0  0  0  0  0  0  0  0  0  0  0  0
   59.1550   32.2650   49.1680 S   0  0  0  0  0  0  0  0  0  0  0  0
   59.8910   33.1750   50.1140 O   0  0  0  0  0  0  0  0  0  0  0  0
   60.0360   30.7740   49.0160 N   0  0  0  0  0  0  0  0  0  0  0  0
   59.1970   29.7710   48.3570 C   0  0  0  0  0  0  0  0  0  0  0  0
   59.0770   30.0910   46.8550 C   0  0  0  0  0  0  0  0  0  0  0  0
   58.9030   28.8960   46.0000 N   0  0  0  0  0  0  0  0  0  0  0  0
   59.0680   27.5970   46.6970 C   0  0  0  0  0  0  0  0  0  0  0  0
   57.7290   26.8770   46.9470 C   0  0  0  0  0  0  0  0  0  0  0  0
   56.8610   26.6970   45.6620 C   0  0  0  0  0  0  0  0  0  0  0  0
   55.5460   27.0920   46.0000 O   0  0  0  0  0  0  0  0  0  0  0  0
   56.8800   25.2220   45.2250 C   0  0  0  0  0  0  0  0  0  0  0  0
   58.0890   24.4920   45.2180 C   0  0  0  0  0  0  0  0  0  0  0  0
   58.1130   23.1440   44.8510 C   0  0  0  0  0  0  0  0  0  0  0  0
   56.9300   22.4910   44.5010 C   0  0  0  0  0  0  0  0  0  0  0  0
   56.9620   20.7990   44.0440 Cl  0  0  0  0  0  0  0  0  0  0  0  0
   55.7200   23.1860   44.5270 C   0  0  0  0  0  0  0  0  0  0  0  0
   55.6900   24.5350   44.8940 C   0  0  0  0  0  0  0  0  0  0  0  0
   57.3690   27.6210   44.5130 C   0  0  0  0  0  0  0  0  0  0  0  0
   57.7570   28.9930   45.0690 C   0  0  0  0  0  0  0  0  0  0  0  0
   58.9810   33.0570   47.5850 C   0  0  0  0  0  0  0  0  0  0  0  0
   57.6890   33.1310   47.0350 C   0  0  0  0  0  0  0  0  0  0  0  0
   57.4700   33.7450   45.8030 C   0  0  0  0  0  0  0  0  0  0  0  0
   58.5360   34.2930   45.0990 C   0  0  0  0  0  0  0  0  0  0  0  0
   59.8260   34.2410   45.6280 C   0  0  0  0  0  0  0  0  0  0  0  0
   60.0720   33.6490   46.8860 C   0  0  0  0  0  0  0  0  0  0  0  0
   61.4960   33.6130   47.4110 C   0  0  0  0  0  0  0  0  0  0  0  0
   62.3830   34.1880   46.5170 F   0  0  0  0  0  0  0  0  0  0  0  0
   61.5960   34.3150   48.5980 F   0  0  0  0  0  0  0  0  0  0  0  0
   61.8800   32.3020   47.6160 F   0  0  0  0  0  0  0  0  0  0  0  0
   60.8560   30.9740   48.3980 H   0  0  0  0  0  0  0  0  0  0  0  0
   59.6506   28.7768   48.4828 H   0  0  0  0  0  0  0  0  0  0  0  0
   58.1949   29.7833   48.8105 H   0  0  0  0  0  0  0  0  0  0  0  0
   58.2087   30.7505   46.7096 H   0  0  0  0  0  0  0  0  0  0  0  0
   60.0224   30.5652   46.5528 H   0  0  0  0  0  0  0  0  0  0  0  0
   59.7066   26.9467   46.0811 H   0  0  0  0  0  0  0  0  0  0  0  0
   59.5201   27.8037   47.6782 H   0  0  0  0  0  0  0  0  0  0  0  0
   57.9429   25.8815   47.3633 H   0  0  0  0  0  0  0  0  0  0  0  0
   57.1506   27.5071   47.6387 H   0  0  0  0  0  0  0  0  0  0  0  0
   55.1520   27.5740   45.2270 H   0  0  0  0  0  0  0  0  0  0  0  0
   59.0256   24.9920   45.5057 H   0  0  0  0  0  0  0  0  0  0  0  0
   59.0667   22.5959   44.8379 H   0  0  0  0  0  0  0  0  0  0  0  0
   54.7863   22.6706   44.2577 H   0  0  0  0  0  0  0  0  0  0  0  0
   54.7283   25.0681   44.9255 H   0  0  0  0  0  0  0  0  0  0  0  0
   58.2475   27.1601   44.0378 H   0  0  0  0  0  0  0  0  0  0  0  0
   56.5648   27.7483   43.7734 H   0  0  0  0  0  0  0  0  0  0  0  0
   58.0306   29.6533   44.2328 H   0  0  0  0  0  0  0  0  0  0  0  0
   56.8963   29.3976   45.6217 H   0  0  0  0  0  0  0  0  0  0  0  0
   56.8398   32.6986   47.5844 H   0  0  0  0  0  0  0  0  0  0  0  0
   56.4528   33.7960   45.3875 H   0  0  0  0  0  0  0  0  0  0  0  0
   58.3621   34.7688   44.1226 H   0  0  0  0  0  0  0  0  0  0  0  0
   60.6637   34.6675   45.0566 H   0  0  0  0  0  0  0  0  0  0  0  0
  1  2  2  0
  2  3  2  0
  2  4  1  0
  4  5  1  0
  5  6  1  0
  6  7  1  0
  7  8  1  0
  8  9  1  0
  9 10  1  0
 10 11  1  0
 10 12  1  0
 12 13  2  0
 13 14  1  0
 14 15  2  0
 15 16  1  0
 15 17  1  0
 17 18  2  0
 10 19  1  0
 19 20  1  0
  2 21  1  0
 21 22  2  0
 22 23  1  0
 23 24  2  0
 24 25  1  0
 25 26  2  0
 26 27  1  0
 27 28  1  0
 27 29  1  0
 27 30  1  0
 20  7  1  0
 26 21  1  0
 18 12  1  0
  4 31  1  0
  5 32  1  0
  5 33  1  0
  6 34  1  0
  6 35  1  0
  8 36  1  0
  8 37  1  0
  9 38  1  0
  9 39  1  0
 11 40  1  0
 13 41  1  0
 14 42  1  0
 17 43  1  0
 18 44  1  0
 19 45  1  0
 19 46  1  0
 20 47  1  0
 20 48  1  0
 22 49  1  0
 23 50  1  0
 24 51  1  0
 25 52  1  0
M  END
>  <UniqueID>  (40) 
36

>  <SMILES>  (40) 
O=S(=O)(NCCN1CCC(O)(c2ccc(Cl)cc2)CC1)c1ccccc1C(F)(F)F

>  <Energy>  (40) 
72.21555376038145

>  <Genealogy>  (40) 
O=S(=O)(NCCN1CCC(O)(c2ccc(Cl)cc2)CC1)c1ccccc1C(F)(F)F (3D coordinates assigned)
O=S(=O)(NCCN1CCC(O)(c2ccc(Cl)cc2)CC1)c1ccccc1C(F)(F)F (nonaromatic ring conformer: 72.21555376038145 kcal/mol)

>  <smiles>  (40) 
O=S(=O)(NCCN1CCC(O)(c2ccc(Cl)cc2)CC1)c1ccccc1C(F)(F)F

>  <score_type>  (40) 
oracle

>  <origin>  (40) 
adg

>  <m_score__min__energy>  (40) 
-8.7599999999999998

>  <m_primary>  (40) 
energy

$$$$
40:0
     RDKit          3D

 45 47  0  0  0  0  0  0  0  0999 V2000
   59.9660   34.1070   45.6160 C   0  0  0  0  0  0  0  0  0  0  0  0
   59.7140   33.6770   47.0340 C   0  0  0  0  0  0  0  0  0  0  0  0
   59.8880   34.5910   48.0870 C   0  0  0  0  0  0  0  0  0  0  0  0
   59.6500   34.2020   49.4080 C   0  0  0  0  0  0  0  0  0  0  0  0
   59.2330   32.9010   49.6910 C   0  0  0  0  0  0  0  0  0  0  0  0
   59.0490   31.9840   48.6530 C   0  0  0  0  0  0  0  0  0  0  0  0
   59.2840   32.3640   47.3230 C   0  0  0  0  0  0  0  0  0  0  0  0
   59.0830   31.4080   46.2740 N   0  0  0  0  0  0  0  0  0  0  0  0
   60.0330   30.3010   46.1420 C   0  0  0  0  0  0  0  0  0  0  0  0
   59.7060   29.4460   44.9100 C   0  0  0  0  0  0  0  0  0  0  0  0
   58.2520   29.2230   44.7830 N   0  0  0  0  0  0  0  0  0  0  0  0
   57.7110   28.4000   45.8910 C   0  0  0  0  0  0  0  0  0  0  0  0
   56.3000   27.9620   45.5960 C   0  0  0  0  0  0  0  0  0  0  0  0
   55.5250   28.7250   44.9600 O   0  0  0  0  0  0  0  0  0  0  0  0
   55.8140   26.6740   46.0000 N   0  0  0  0  0  0  0  0  0  0  0  0
   56.1010   25.4220   45.3620 C   0  0  0  0  0  0  0  0  0  0  0  0
   57.3760   25.1360   44.8430 C   0  0  0  0  0  0  0  0  0  0  0  0
   57.6320   23.8970   44.2460 C   0  0  0  0  0  0  0  0  0  0  0  0
   56.6240   22.9300   44.1800 C   0  0  0  0  0  0  0  0  0  0  0  0
   56.9750   21.2380   43.3690 Br  0  0  0  0  0  0  0  0  0  0  0  0
   55.3630   23.1990   44.7220 C   0  0  0  0  0  0  0  0  0  0  0  0
   55.1060   24.4370   45.3200 C   0  0  0  0  0  0  0  0  0  0  0  0
   57.4960   30.4900   44.5920 C   0  0  0  0  0  0  0  0  0  0  0  0
   58.1930   31.7450   45.1620 C   0  0  0  0  0  0  0  0  0  0  0  0
   60.5222   35.0560   45.6140 H   0  0  0  0  0  0  0  0  0  0  0  0
   60.5550   33.3357   45.0981 H   0  0  0  0  0  0  0  0  0  0  0  0
   59.0052   34.2439   45.0981 H   0  0  0  0  0  0  0  0  0  0  0  0
   60.2136   35.6191   47.8702 H   0  0  0  0  0  0  0  0  0  0  0  0
   59.7918   34.9231   50.2265 H   0  0  0  0  0  0  0  0  0  0  0  0
   59.0490   32.5970   50.7320 H   0  0  0  0  0  0  0  0  0  0  0  0
   58.7184   30.9596   48.8795 H   0  0  0  0  0  0  0  0  0  0  0  0
   61.0495   30.7085   46.0386 H   0  0  0  0  0  0  0  0  0  0  0  0
   59.9636   29.6680   47.0389 H   0  0  0  0  0  0  0  0  0  0  0  0
   60.0695   29.9618   44.0090 H   0  0  0  0  0  0  0  0  0  0  0  0
   60.1986   28.4691   45.0243 H   0  0  0  0  0  0  0  0  0  0  0  0
   58.3445   27.5102   46.0213 H   0  0  0  0  0  0  0  0  0  0  0  0
   57.7062   29.0060   46.8090 H   0  0  0  0  0  0  0  0  0  0  0  0
   58.1751   25.8892   44.9066 H   0  0  0  0  0  0  0  0  0  0  0  0
   58.6269   23.6833   43.8282 H   0  0  0  0  0  0  0  0  0  0  0  0
   54.5721   22.4357   44.6779 H   0  0  0  0  0  0  0  0  0  0  0  0
   54.1178   24.6381   45.7594 H   0  0  0  0  0  0  0  0  0  0  0  0
   57.3458   30.6409   43.5128 H   0  0  0  0  0  0  0  0  0  0  0  0
   56.5526   30.3776   45.1465 H   0  0  0  0  0  0  0  0  0  0  0  0
   58.7827   32.2195   44.3638 H   0  0  0  0  0  0  0  0  0  0  0  0
   57.4175   32.4292   45.5368 H   0  0  0  0  0  0  0  0  0  0  0  0
  1  2  1  0
  2  3  2  0
  3  4  1  0
  4  5  2  0
  5  6  1  0
  6  7  2  0
  7  8  1  0
  8  9  1  0
  9 10  1  0
 10 11  1  0
 11 12  1  0
 12 13  1  0
 13 14  2  0
 13 15  1  0
 15 16  1  0
 16 17  2  0
 17 18  1  0
 18 19  2  0
 19 20  1  0
 19 21  1  0
 21 22  2  0
 11 23  1  0
 23 24  1  0
  7  2  1  0
 24  8  1  0
 22 16  1  0
  1 25  1  0
  1 26  1  0
  1 27  1  0
  3 28  1  0
  4 29  1  0
  5 30  1  0
  6 31  1  0
  9 32  1  0
  9 33  1  0
 10 34  1  0
 10 35  1  0
 12 36  1  0
 12 37  1  0
 17 38  1  0
 18 39  1  0
 21 40  1  0
 22 41  1  0
 23 42  1  0
 23 43  1  0
 24 44  1  0
 24 45  1  0
M  CHG  1  15  -1
M  END
>  <UniqueID>  (41) 
37

>  <SMILES>  (41) 
Cc1ccccc1N1CCN(CC(=O)[N-]c2ccc(Br)cc2)CC1

>  <Energy>  (41) 
63.930259109438374

>  <Genealogy>  (41) 
Cc1ccccc1N1CCN(CC(=O)[N-]c2ccc(Br)cc2)CC1 (protonated)
Cc1ccccc1N1CCN(CC(=O)[N-]c2ccc(Br)cc2)CC1 (3D coordinates assigned)
Cc1ccccc1N1CCN(CC(=O)[N-]c2ccc(Br)cc2)CC1 (nonaromatic ring conformer: 63.930259109438374 kcal/mol)

>  <smiles>  (41) 
Cc1ccccc1N1CCN(CC(=O)Nc2ccc(Br)cc2)CC1

>  <score_type>  (41) 
oracle

>  <origin>  (41) 
adg

>  <m_score__min__energy>  (41) 
-9.5600000000000005

>  <m_primary>  (41) 
energy

$$$$
41:0
     RDKit          3D

 33 35  0  0  0  0  0  0  0  0999 V2000
   65.8500   32.3820   50.1310 C   0  0  0  0  0  0  0  0  0  0  0  0
   64.9740   33.5000   50.0170 O   0  0  0  0  0  0  0  0  0  0  0  0
   63.8220   33.5260   49.2160 C   0  0  0  0  0  0  0  0  0  0  0  0
   62.5900   33.7530   49.8340 C   0  0  0  0  0  0  0  0  0  0  0  0
   61.4130   33.7880   49.0810 C   0  0  0  0  0  0  0  0  0  0  0  0
   61.4460   33.5910   47.6880 C   0  0  0  0  0  0  0  0  0  0  0  0
   60.2220   33.6310   46.9250 N   0  0  0  0  0  0  0  0  0  0  0  0
   59.2600   34.5780   46.9710 C   0  0  0  0  0  0  0  0  0  0  0  0
   58.2670   34.2440   46.0770 C   0  0  0  0  0  0  0  0  0  0  0  0
   58.6950   33.0560   45.5040 C   0  0  0  0  0  0  0  0  0  0  0  0
   57.9960   32.2590   44.4670 C   0  0  0  0  0  0  0  0  0  0  0  0
   58.0620   32.6120   43.1050 C   0  0  0  0  0  0  0  0  0  0  0  0
   57.3960   31.8470   42.1420 C   0  0  0  0  0  0  0  0  0  0  0  0
   56.6580   30.7240   42.5250 C   0  0  0  0  0  0  0  0  0  0  0  0
   56.5840   30.3650   43.8710 C   0  0  0  0  0  0  0  0  0  0  0  0
   57.2480   31.1250   44.8380 C   0  0  0  0  0  0  0  0  0  0  0  0
   59.8840   32.7090   46.0370 N   0  0  0  0  0  0  0  0  0  0  0  0
   62.6910   33.3670   47.0680 C   0  0  0  0  0  0  0  0  0  0  0  0
   63.8670   33.3330   47.8240 C   0  0  0  0  0  0  0  0  0  0  0  0
   66.0242   32.1596   51.1941 H   0  0  0  0  0  0  0  0  0  0  0  0
   65.3940   31.5077   49.6435 H   0  0  0  0  0  0  0  0  0  0  0  0
   66.8080   32.6156   49.6435 H   0  0  0  0  0  0  0  0  0  0  0  0
   62.5458   33.9055   50.9225 H   0  0  0  0  0  0  0  0  0  0  0  0
   60.4512   33.9714   49.5823 H   0  0  0  0  0  0  0  0  0  0  0  0
   59.2683   35.4690   47.6161 H   0  0  0  0  0  0  0  0  0  0  0  0
   57.3401   34.7969   45.8646 H   0  0  0  0  0  0  0  0  0  0  0  0
   58.6411   33.4950   42.7968 H   0  0  0  0  0  0  0  0  0  0  0  0
   57.4533   32.1301   41.0806 H   0  0  0  0  0  0  0  0  0  0  0  0
   56.1357   30.1234   41.7657 H   0  0  0  0  0  0  0  0  0  0  0  0
   56.0017   29.4817   44.1720 H   0  0  0  0  0  0  0  0  0  0  0  0
   57.1858   30.8350   45.8973 H   0  0  0  0  0  0  0  0  0  0  0  0
   62.7385   33.2175   45.9792 H   0  0  0  0  0  0  0  0  0  0  0  0
   64.8320   33.1544   47.3272 H   0  0  0  0  0  0  0  0  0  0  0  0
  1  2  1  0
  2  3  1  0
  3  4  2  0
  4  5  1  0
  5  6  2  0
  6  7  1  0
  7  8  1  0
  8  9  2  0
  9 10  1  0
 10 11  1  0
 11 12  2  0
 12 13  1  0
 13 14  2  0
 14 15  1  0
 15 16  2  0
 10 17  2  0
  6 18  1  0
 18 19  2  0
 19  3  1  0
 17  7  1  0
 16 11  1  0
  1 20  1  0
  1 21  1  0
  1 22  1  0
  4 23  1  0
  5 24  1  0
  8 25  1  0
  9 26  1  0
 12 27  1  0
 13 28  1  0
 14 29  1  0
 15 30  1  0
 16 31  1  0
 18 32  1  0
 19 33  1  0
M  END
>  <UniqueID>  (42) 
38

>  <SMILES>  (42) 
COc1ccc(-n2ccc(-c3ccccc3)n2)cc1

>  <Energy>  (42) 
68.57188583548972

>  <Genealogy>  (42) 
COc1ccc(-n2ccc(-c3ccccc3)n2)cc1 (3D coordinates assigned)
COc1ccc(-n2ccc(-c3ccccc3)n2)cc1 (optimized conformer: 68.57188583548972 kcal/mol)

>  <smiles>  (42) 
COc1ccc(-n2ccc(-c3ccccc3)n2)cc1

>  <score_type>  (42) 
oracle

>  <origin>  (42) 
adg

>  <m_score__min__energy>  (42) 
-6.8399999999999999

>  <m_primary>  (42) 
energy

$$$$
42:0
     RDKit          3D

 17 18  0  0  0  0  0  0  0  0999 V2000
   57.4670   29.2990   43.3720 F   0  0  0  0  0  0  0  0  0  0  0  0
   56.7480   30.0400   44.2940 C   0  0  0  0  0  0  0  0  0  0  0  0
   56.5960   29.2780   45.4370 F   0  0  0  0  0  0  0  0  0  0  0  0
   55.5020   30.3090   43.7560 F   0  0  0  0  0  0  0  0  0  0  0  0
   57.4440   31.3400   44.6380 C   0  0  0  0  0  0  0  0  0  0  0  0
   57.7690   31.6390   45.9800 C   0  0  0  0  0  0  0  0  0  0  0  0
   58.4100   32.8400   46.2840 C   0  0  0  0  0  0  0  0  0  0  0  0
   58.7580   33.2070   47.5390 N   0  0  0  0  0  0  0  0  0  0  0  0
   59.4600   34.6780   47.2780 S   0  0  0  0  0  0  0  0  0  0  0  0
   59.3620   34.9110   45.6400 N   0  0  0  0  0  0  0  0  0  0  0  0
   58.7380   33.7640   45.2580 C   0  0  0  0  0  0  0  0  0  0  0  0
   58.4220   33.4790   43.9320 C   0  0  0  0  0  0  0  0  0  0  0  0
   57.7770   32.2720   43.6180 C   0  0  0  0  0  0  0  0  0  0  0  0
   57.4020   31.9640   41.9240 Cl  0  0  0  0  0  0  0  0  0  0  0  0
   57.5178   30.9283   46.7811 H   0  0  0  0  0  0  0  0  0  0  0  0
   58.6180   32.6930   48.4370 H   0  0  0  0  0  0  0  0  0  0  0  0
   58.6760   34.1946   43.1361 H   0  0  0  0  0  0  0  0  0  0  0  0
  1  2  1  0
  2  3  1  0
  2  4  1  0
  2  5  1  0
  5  6  2  0
  6  7  1  0
  7  8  2  0
  8  9  1  0
  9 10  1  0
 10 11  2  0
 11 12  1  0
 12 13  2  0
 13 14  1  0
 13  5  1  0
 11  7  1  0
  6 15  1  0
  8 16  1  0
 12 17  1  0
M  CHG  1   8   1
M  END
>  <UniqueID>  (43) 
39

>  <SMILES>  (43) 
FC(F)(F)c1cc2[nH+]snc2cc1Cl

>  <Energy>  (43) 
59.93828627203001

>  <Genealogy>  (43) 
FC(F)(F)c1cc2[nH+]snc2cc1Cl (protonated)
FC(F)(F)c1cc2[nH+]snc2cc1Cl (3D coordinates assigned)
FC(F)(F)c1cc2[nH+]snc2cc1Cl (optimized conformer: 59.93828627203001 kcal/mol)

>  <smiles>  (43) 
FC(F)(F)c1cc2nsnc2cc1Cl

>  <score_type>  (43) 
oracle

>  <origin>  (43) 
adg

>  <m_score__min__energy>  (43) 
-3.8300000000000001

>  <m_primary>  (43) 
energy

$$$$
43:0
     RDKit          3D

 51 53  0  0  0  0  0  0  0  0999 V2000
   60.3880   29.0640   48.5220 C   0  0  0  0  0  0  0  0  0  0  0  0
   61.1590   30.1080   49.3240 C   0  0  0  0  0  0  0  0  0  0  0  0
   61.9770   31.0230   48.4040 C   0  0  0  0  0  0  0  0  0  0  0  0
   62.5400   32.1560   49.1720 N   0  0  0  0  0  0  0  0  0  0  0  0
   63.7640   31.7950   49.9260 C   0  0  0  0  0  0  0  0  0  0  0  0
   64.9530   32.7450   49.6980 C   0  0  0  0  0  0  0  0  0  0  0  0
   62.7000   33.3890   48.3650 C   0  0  0  0  0  0  0  0  0  0  0  0
   62.0640   34.5920   49.0730 C   0  0  0  0  0  0  0  0  0  0  0  0
   60.6740   34.7020   48.7590 O   0  0  0  0  0  0  0  0  0  0  0  0
   59.9380   33.8060   47.9680 C   0  0  0  0  0  0  0  0  0  0  0  0
   59.1900   32.7440   48.5100 C   0  0  0  0  0  0  0  0  0  0  0  0
   58.5230   31.8500   47.6700 C   0  0  0  0  0  0  0  0  0  0  0  0
   58.5860   32.0030   46.2750 C   0  0  0  0  0  0  0  0  0  0  0  0
   57.8970   31.0550   45.3730 C   0  0  0  0  0  0  0  0  0  0  0  0
   56.6690   31.3710   44.8620 N   0  0  0  0  0  0  0  0  0  0  0  0
   56.0000   30.5270   44.0160 C   0  0  0  0  0  0  0  0  0  0  0  0
   56.5540   29.3350   43.6470 N   0  0  0  0  0  0  0  0  0  0  0  0
   57.7710   29.0090   44.1440 C   0  0  0  0  0  0  0  0  0  0  0  0
   58.4580   29.8350   44.9850 C   0  0  0  0  0  0  0  0  0  0  0  0
   59.6890   29.2460   45.2150 C   0  0  0  0  0  0  0  0  0  0  0  0
   59.6710   28.0570   44.4880 C   0  0  0  0  0  0  0  0  0  0  0  0
   58.4870   27.9120   43.8460 N   0  0  0  0  0  0  0  0  0  0  0  0
   58.1330   26.8570   42.9040 C   0  0  0  0  0  0  0  0  0  0  0  0
   59.2840   33.0960   45.7390 C   0  0  0  0  0  0  0  0  0  0  0  0
   59.9550   33.9860   46.5800 C   0  0  0  0  0  0  0  0  0  0  0  0
   59.8788   28.3745   49.2115 H   0  0  0  0  0  0  0  0  0  0  0  0
   59.6422   29.5659   47.8881 H   0  0  0  0  0  0  0  0  0  0  0  0
   61.0871   28.4988   47.8881 H   0  0  0  0  0  0  0  0  0  0  0  0
   60.4456   30.7196   49.8958 H   0  0  0  0  0  0  0  0  0  0  0  0
   61.8517   29.5854   50.0000 H   0  0  0  0  0  0  0  0  0  0  0  0
   62.7986   30.4452   47.9554 H   0  0  0  0  0  0  0  0  0  0  0  0
   61.3187   31.4178   47.6161 H   0  0  0  0  0  0  0  0  0  0  0  0
   63.5211   31.7988   50.9988 H   0  0  0  0  0  0  0  0  0  0  0  0
   64.0776   30.8057   49.5615 H   0  0  0  0  0  0  0  0  0  0  0  0
   65.3563   33.0673   50.6693 H   0  0  0  0  0  0  0  0  0  0  0  0
   65.7369   32.2217   49.1309 H   0  0  0  0  0  0  0  0  0  0  0  0
   64.6156   33.6251   49.1309 H   0  0  0  0  0  0  0  0  0  0  0  0
   63.7720   33.5847   48.2148 H   0  0  0  0  0  0  0  0  0  0  0  0
   62.1971   33.2439   47.3975 H   0  0  0  0  0  0  0  0  0  0  0  0
   62.1775   34.4694   50.1602 H   0  0  0  0  0  0  0  0  0  0  0  0
   62.5715   35.5057   48.7302 H   0  0  0  0  0  0  0  0  0  0  0  0
   59.1306   32.6176   49.6011 H   0  0  0  0  0  0  0  0  0  0  0  0
   57.9446   31.0207   48.1033 H   0  0  0  0  0  0  0  0  0  0  0  0
   55.0095   30.8114   43.6312 H   0  0  0  0  0  0  0  0  0  0  0  0
   60.5077   29.6338   45.8390 H   0  0  0  0  0  0  0  0  0  0  0  0
   60.5017   27.3373   44.4420 H   0  0  0  0  0  0  0  0  0  0  0  0
   57.8308   25.9564   43.4587 H   0  0  0  0  0  0  0  0  0  0  0  0
   57.2991   27.1950   42.2713 H   0  0  0  0  0  0  0  0  0  0  0  0
   59.0020   26.6236   42.2713 H   0  0  0  0  0  0  0  0  0  0  0  0
   59.3026   33.2525   44.6503 H   0  0  0  0  0  0  0  0  0  0  0  0
   60.5022   34.8367   46.1477 H   0  0  0  0  0  0  0  0  0  0  0  0
  1  2  1  0
  2  3  1  0
  3  4  1  0
  4  5  1  0
  5  6  1  0
  4  7  1  0
  7  8  1  0
  8  9  1  0
  9 10  1  0
 10 11  2  0
 11 12  1  0
 12 13  2  0
 13 14  1  0
 14 15  2  0
 15 16  1  0
 16 17  2  0
 17 18  1  0
 18 19  2  0
 19 20  1  0
 20 21  2  0
 21 22  1  0
 22 23  1  0
 13 24  1  0
 24 25  2  0
 25 10  1  0
 19 14  1  0
 22 18  1  0
  1 26  1  0
  1 27  1  0
  1 28  1  0
  2 29  1  0
  2 30  1  0
  3 31  1  0
  3 32  1  0
  5 33  1  0
  5 34  1  0
  6 35  1  0
  6 36  1  0
  6 37  1  0
  7 38  1  0
  7 39  1  0
  8 40  1  0
  8 41  1  0
 11 42  1  0
 12 43  1  0
 16 44  1  0
 20 45  1  0
 21 46  1  0
 23 47  1  0
 23 48  1  0
 23 49  1  0
 24 50  1  0
 25 51  1  0
M  END
>  <UniqueID>  (44) 
40

>  <SMILES>  (44) 
CCCN(CC)CCOc1ccc(-c2ncnc3c2ccn3C)cc1

>  <Energy>  (44) 
89.99583067242793

>  <Genealogy>  (44) 
CCCN(CC)CCOc1ccc(-c2ncnc3c2ccn3C)cc1 (3D coordinates assigned)
CCCN(CC)CCOc1ccc(-c2ncnc3c2ccn3C)cc1 (optimized conformer: 89.99583067242793 kcal/mol)

>  <smiles>  (44) 
CCCN(CC)CCOc1ccc(-c2ncnc3c2ccn3C)cc1

>  <score_type>  (44) 
oracle

>  <origin>  (44) 
adg

>  <m_score__min__energy>  (44) 
-6.9199999999999999

>  <m_primary>  (44) 
energy

$$$$
44:0
     RDKit          3D

 43 46  0  0  0  0  0  0  0  0999 V2000
   57.8812   35.6283   45.2501 H   0  0  0  0  0  0  0  0  0  0  0  0
   58.0650   34.5490   45.3570 C   0  0  0  0  0  0  0  0  0  0  0  0
   58.8910   34.0970   46.3310 N   0  0  0  0  0  0  0  0  0  0  0  0
   59.1530   32.7730   46.5110 C   0  0  0  0  0  0  0  0  0  0  0  0
   59.9310   32.3790   47.4820 N   0  0  0  0  0  0  0  0  0  0  0  0
   61.3990   32.3500   47.5100 C   0  0  0  0  0  0  0  0  0  0  0  0
   61.7014   31.3689   47.1150 H   0  0  0  0  0  0  0  0  0  0  0  0
   62.0210   33.4180   46.5790 C   0  0  0  0  0  0  0  0  0  0  0  0
   62.0870   33.0067   45.5609 H   0  0  0  0  0  0  0  0  0  0  0  0
   61.3774   34.3096   46.6067 H   0  0  0  0  0  0  0  0  0  0  0  0
   63.4310   33.8340   47.0400 C   0  0  0  0  0  0  0  0  0  0  0  0
   64.0113   34.1639   46.1657 H   0  0  0  0  0  0  0  0  0  0  0  0
   63.3314   34.6503   47.7706 H   0  0  0  0  0  0  0  0  0  0  0  0
   64.1320   32.7150   47.6860 N   0  0  0  0  0  0  0  0  0  0  0  0
   64.1690   31.9020   47.0280 H   0  0  0  0  0  0  0  0  0  0  0  0
   65.1190   33.0060   47.8850 H   0  0  0  0  0  0  0  0  0  0  0  0
   63.4930   32.3020   48.9540 C   0  0  0  0  0  0  0  0  0  0  0  0
   63.7449   31.2482   49.1440 H   0  0  0  0  0  0  0  0  0  0  0  0
   63.8734   32.9697   49.7411 H   0  0  0  0  0  0  0  0  0  0  0  0
   61.9530   32.4430   48.9420 C   0  0  0  0  0  0  0  0  0  0  0  0
   61.5139   31.6383   49.5499 H   0  0  0  0  0  0  0  0  0  0  0  0
   61.6893   33.4278   49.3551 H   0  0  0  0  0  0  0  0  0  0  0  0
   58.5550   31.8200   45.6520 C   0  0  0  0  0  0  0  0  0  0  0  0
   58.8200   30.3700   45.8360 C   0  0  0  0  0  0  0  0  0  0  0  0
   57.8410   29.4570   46.0620 N   0  0  0  0  0  0  0  0  0  0  0  0
   58.3540   28.2050   46.1810 C   0  0  0  0  0  0  0  0  0  0  0  0
   57.5910   27.0610   46.4160 C   0  0  0  0  0  0  0  0  0  0  0  0
   56.4979   27.1269   46.5201 H   0  0  0  0  0  0  0  0  0  0  0  0
   58.2480   25.8220   46.5170 C   0  0  0  0  0  0  0  0  0  0  0  0
   57.6646   24.9080   46.7020 H   0  0  0  0  0  0  0  0  0  0  0  0
   59.6480   25.7430   46.3830 C   0  0  0  0  0  0  0  0  0  0  0  0
   60.1511   24.7682   46.4644 H   0  0  0  0  0  0  0  0  0  0  0  0
   60.4050   26.9020   46.1460 C   0  0  0  0  0  0  0  0  0  0  0  0
   61.4987   26.8525   46.0394 H   0  0  0  0  0  0  0  0  0  0  0  0
   59.7290   28.1160   46.0500 C   0  0  0  0  0  0  0  0  0  0  0  0
   60.3550   29.6470   45.7730 S   0  0  0  0  0  0  0  0  0  0  0  0
   57.6960   32.2770   44.6210 C   0  0  0  0  0  0  0  0  0  0  0  0
   57.0350   31.3290   43.6540 C   0  0  0  0  0  0  0  0  0  0  0  0
   56.4935   30.5524   44.2141 H   0  0  0  0  0  0  0  0  0  0  0  0
   56.3277   31.8850   43.0210 H   0  0  0  0  0  0  0  0  0  0  0  0
   57.8012   30.8576   43.0210 H   0  0  0  0  0  0  0  0  0  0  0  0
   57.4490   33.6510   44.4920 C   0  0  0  0  0  0  0  0  0  0  0  0
   56.7696   34.0179   43.7085 H   0  0  0  0  0  0  0  0  0  0  0  0
  1  2  1  0
  2  3  1  0
  3  4  1  0
  4  5  2  0
  5  6  1  0
  6  7  1  0
  6  8  1  0
  8  9  1  0
  8 10  1  0
  8 11  1  0
 11 12  1  0
 11 13  1  0
 11 14  1  0
 14 15  1  0
 14 16  1  0
 14 17  1  0
 17 18  1  0
 17 19  1  0
 17 20  1  0
 20 21  1  0
 20 22  1  0
  4 23  1  0
 23 24  1  0
 24 25  2  0
 25 26  1  0
 26 27  2  0
 27 28  1  0
 27 29  1  0
 29 30  1  0
 29 31  2  0
 31 32  1  0
 31 33  1  0
 33 34  1  0
 33 35  2  0
 35 36  1  0
 23 37  2  0
 37 38  1  0
 38 39  1  0
 38 40  1  0
 38 41  1  0
 37 42  1  0
 42 43  1  0
 42  2  2  0
 20  6  1  0
 36 24  1  0
 35 26  1  0
M  CHG  2   3  -1  14   1
M  END
>  <UniqueID>  (45) 
41

>  <SMILES>  (45) 
Cc1cc[n-]/c(=N\C2CC[NH2+]CC2)c1-c1nc2ccccc2s1

>  <Energy>  (45) 
94.67301105541719

>  <Genealogy>  (45) 
Cc1cc[n-]c(=NC2CC[NH2+]CC2)c1-c1nc2ccccc2s1 (protonated)
Cc1cc[n-]/c(=N\C2CC[NH2+]CC2)c1-c1nc2ccccc2s1 (cis-trans isomerization)
Cc1cc[n-]/c(=N\C2CC[NH2+]CC2)c1-c1nc2ccccc2s1 (3D coordinates assigned)
Cc1cc[n-]/c(=N\C2CC[NH2+]CC2)c1-c1nc2ccccc2s1 (nonaromatic ring conformer: 94.67301105541719 kcal/mol)

>  <smiles>  (45) 
Cc1cc[nH]c(=NC2CCNCC2)c1-c1nc2ccccc2s1

>  <score_type>  (45) 
oracle

>  <origin>  (45) 
adg

>  <m_score__min__energy>  (45) 
-7.9100000000000001

>  <m_primary>  (45) 
energy

$$$$
45:0
     RDKit          3D

 46 49  0  0  0  0  0  0  0  0999 V2000
   55.7950   29.7670   43.3890 C   0  0  0  0  0  0  0  0  0  0  0  0
   56.2590   30.3840   44.5700 O   0  0  0  0  0  0  0  0  0  0  0  0
   57.6640   30.5410   44.5190 C   0  0  0  0  0  0  0  0  0  0  0  0
   58.3110   29.8640   45.6910 C   0  0  0  0  0  0  0  0  0  0  0  0
   59.1530   30.4460   46.6280 C   0  0  0  0  0  0  0  0  0  0  0  0
   59.5120   29.5290   47.5610 N   0  0  0  0  0  0  0  0  0  0  0  0
   58.8690   28.4160   47.1550 C   0  0  0  0  0  0  0  0  0  0  0  0
   58.9110   27.2160   47.7830 N   0  0  0  0  0  0  0  0  0  0  0  0
   58.2140   26.1930   47.2730 N   0  0  0  0  0  0  0  0  0  0  0  0
   57.4650   26.3270   46.1350 C   0  0  0  0  0  0  0  0  0  0  0  0
   56.7170   25.2070   45.6230 N   0  0  0  0  0  0  0  0  0  0  0  0
   57.3610   24.0660   45.1840 C   0  0  0  0  0  0  0  0  0  0  0  0
   56.6060   23.0060   44.6040 C   0  0  0  0  0  0  0  0  0  0  0  0
   55.2060   23.1260   44.5890 C   0  0  0  0  0  0  0  0  0  0  0  0
   54.5840   24.2640   45.0780 C   0  0  0  0  0  0  0  0  0  0  0  0
   55.3510   25.3040   45.5860 C   0  0  0  0  0  0  0  0  0  0  0  0
   54.7660   26.3430   46.0040 O   0  0  0  0  0  0  0  0  0  0  0  0
   57.2570   21.7100   44.0860 C   0  0  0  0  0  0  0  0  0  0  0  0
   56.8740   20.5420   45.0260 C   0  0  0  0  0  0  0  0  0  0  0  0
   56.7520   21.3860   42.6600 C   0  0  0  0  0  0  0  0  0  0  0  0
   58.8040   21.8280   44.0110 C   0  0  0  0  0  0  0  0  0  0  0  0
   59.3830   22.5340   45.2290 C   0  0  0  0  0  0  0  0  0  0  0  0
   58.8760   23.9680   45.2780 C   0  0  0  0  0  0  0  0  0  0  0  0
   57.4180   27.5780   45.4970 C   0  0  0  0  0  0  0  0  0  0  0  0
   58.1420   28.5820   46.0460 N   0  0  0  0  0  0  0  0  0  0  0  0
   55.1527   28.9129   43.6495 H   0  0  0  0  0  0  0  0  0  0  0  0
   55.2175   30.4934   42.7984 H   0  0  0  0  0  0  0  0  0  0  0  0
   56.6531   29.4137   42.7984 H   0  0  0  0  0  0  0  0  0  0  0  0
   58.0445   30.0953   43.5881 H   0  0  0  0  0  0  0  0  0  0  0  0
   57.9035   31.6141   44.5512 H   0  0  0  0  0  0  0  0  0  0  0  0
   59.4809   31.4959   46.6160 H   0  0  0  0  0  0  0  0  0  0  0  0
   54.5955   22.3057   44.1837 H   0  0  0  0  0  0  0  0  0  0  0  0
   53.4869   24.3430   45.0637 H   0  0  0  0  0  0  0  0  0  0  0  0
   56.9795   20.8639   46.0725 H   0  0  0  0  0  0  0  0  0  0  0  0
   55.8317   20.2458   44.8368 H   0  0  0  0  0  0  0  0  0  0  0  0
   57.5385   19.6861   44.8368 H   0  0  0  0  0  0  0  0  0  0  0  0
   55.8277   20.7930   42.7242 H   0  0  0  0  0  0  0  0  0  0  0  0
   56.5496   22.3232   42.1209 H   0  0  0  0  0  0  0  0  0  0  0  0
   57.5196   20.8114   42.1209 H   0  0  0  0  0  0  0  0  0  0  0  0
   59.2344   20.8176   43.9485 H   0  0  0  0  0  0  0  0  0  0  0  0
   59.0560   22.4242   43.1216 H   0  0  0  0  0  0  0  0  0  0  0  0
   59.0715   22.0044   46.1414 H   0  0  0  0  0  0  0  0  0  0  0  0
   60.4809   22.5373   45.1613 H   0  0  0  0  0  0  0  0  0  0  0  0
   59.1985   24.4216   46.2268 H   0  0  0  0  0  0  0  0  0  0  0  0
   59.2945   24.4950   44.4079 H   0  0  0  0  0  0  0  0  0  0  0  0
   56.8177   27.7353   44.5888 H   0  0  0  0  0  0  0  0  0  0  0  0
  1  2  1  0
  2  3  1  0
  3  4  1  0
  4  5  2  0
  5  6  1  0
  6  7  2  0
  7  8  1  0
  8  9  2  0
  9 10  1  0
 10 11  1  0
 11 12  1  0
 12 13  2  0
 13 14  1  0
 14 15  2  0
 15 16  1  0
 16 17  2  0
 13 18  1  0
 18 19  1  0
 18 20  1  0
 18 21  1  0
 21 22  1  0
 22 23  1  0
 10 24  2  0
 24 25  1  0
 25  4  1  0
 25  7  1  0
 16 11  1  0
 23 12  1  0
  1 26  1  0
  1 27  1  0
  1 28  1  0
  3 29  1  0
  3 30  1  0
  5 31  1  0
 14 32  1  0
 15 33  1  0
 19 34  1  0
 19 35  1  0
 19 36  1  0
 20 37  1  0
 20 38  1  0
 20 39  1  0
 21 40  1  0
 21 41  1  0
 22 42  1  0
 22 43  1  0
 23 44  1  0
 23 45  1  0
 24 46  1  0
M  END
>  <UniqueID>  (46) 
42

>  <SMILES>  (46) 
COCc1cnc2nnc(-n3c4c(ccc3=O)C(C)(C)CCC4)cn12

>  <Energy>  (46) 
100.44716254006144

>  <Genealogy>  (46) 
COCc1cnc2nnc(-n3c4c(ccc3=O)C(C)(C)CCC4)cn12 (3D coordinates assigned)
COCc1cnc2nnc(-n3c4c(ccc3=O)C(C)(C)CCC4)cn12 (nonaromatic ring conformer: 100.44716254006144 kcal/mol)

>  <smiles>  (46) 
COCc1cnc2nnc(-n3c4c(ccc3=O)C(C)(C)CCC4)cn12

>  <score_type>  (46) 
oracle

>  <origin>  (46) 
adg

>  <m_score__min__energy>  (46) 
-7.9500000000000002

>  <m_primary>  (46) 
energy

$$$$
