0:0
     RDKit          3D

 63 65  0  0  0  0  0  0  0  0999 V2000
   60.9300   34.3630   48.9980 C   0  0  0  0  0  0  0  0  0  0  0  0
   62.3520   33.9760   49.4650 C   0  0  0  0  0  0  0  0  0  0  0  0
   63.0120   32.8250   48.7500 N   0  0  0  0  0  0  0  0  0  0  0  0
   64.5090   33.0050   48.8700 C   0  0  0  0  0  0  0  0  0  0  0  0
   65.2090   32.3200   50.0700 C   0  0  0  0  0  0  0  0  0  0  0  0
   62.5990   32.8750   47.3000 C   0  0  0  0  0  0  0  0  0  0  0  0
   63.3890   33.8200   46.3800 C   0  0  0  0  0  0  0  0  0  0  0  0
   62.5860   31.5260   49.4110 C   0  0  0  0  0  0  0  0  0  0  0  0
   61.0840   31.0910   49.3830 C   0  0  0  0  0  0  0  0  0  0  0  0
   60.6760   30.0180   48.3630 C   0  0  0  0  0  0  0  0  0  0  0  0
   59.2550   30.1100   48.0160 N   0  0  0  0  0  0  0  0  0  0  0  0
   58.7950   30.2680   46.6610 C   0  0  0  0  0  0  0  0  0  0  0  0
   58.6330   31.5610   46.1240 C   0  0  0  0  0  0  0  0  0  0  0  0
   58.1090   31.7090   44.8120 C   0  0  0  0  0  0  0  0  0  0  0  0
   57.6880   30.5960   44.1070 N   0  0  0  0  0  0  0  0  0  0  0  0
   56.9150   30.7580   42.8550 C   0  0  0  0  0  0  0  0  0  0  0  0
   58.0110   29.3280   44.5500 C   0  0  0  0  0  0  0  0  0  0  0  0
   57.8190   28.1810   43.7360 C   0  0  0  0  0  0  0  0  0  0  0  0
   58.1600   26.9090   44.1910 C   0  0  0  0  0  0  0  0  0  0  0  0
   58.7220   26.7450   45.4500 C   0  0  0  0  0  0  0  0  0  0  0  0
   58.9440   27.8520   46.2640 C   0  0  0  0  0  0  0  0  0  0  0  0
   58.5720   29.1470   45.8420 C   0  0  0  0  0  0  0  0  0  0  0  0
   57.9210   33.1060   44.2300 C   0  0  0  0  0  0  0  0  0  0  0  0
   58.7520   34.1830   44.9230 C   0  0  0  0  0  0  0  0  0  0  0  0
   58.5530   34.0910   46.4270 C   0  0  0  0  0  0  0  0  0  0  0  0
   59.0990   32.7620   46.9360 C   0  0  0  0  0  0  0  0  0  0  0  0
   60.2904   34.5371   49.8759 H   0  0  0  0  0  0  0  0  0  0  0  0
   60.9797   35.2803   48.3929 H   0  0  0  0  0  0  0  0  0  0  0  0
   60.5080   33.5470   48.3929 H   0  0  0  0  0  0  0  0  0  0  0  0
   62.9956   34.8591   49.3390 H   0  0  0  0  0  0  0  0  0  0  0  0
   62.2316   33.6381   50.5049 H   0  0  0  0  0  0  0  0  0  0  0  0
   64.9649   32.6091   47.9506 H   0  0  0  0  0  0  0  0  0  0  0  0
   64.6533   34.0830   49.0344 H   0  0  0  0  0  0  0  0  0  0  0  0
   64.8005   32.7198   51.0098 H   0  0  0  0  0  0  0  0  0  0  0  0
   65.0337   31.2349   50.0262 H   0  0  0  0  0  0  0  0  0  0  0  0
   66.2900   32.5188   50.0262 H   0  0  0  0  0  0  0  0  0  0  0  0
   62.6958   31.8579   46.8924 H   0  0  0  0  0  0  0  0  0  0  0  0
   61.5748   33.2763   47.3090 H   0  0  0  0  0  0  0  0  0  0  0  0
   63.9755   34.5215   46.9915 H   0  0  0  0  0  0  0  0  0  0  0  0
   64.0675   33.2313   45.7451 H   0  0  0  0  0  0  0  0  0  0  0  0
   62.6893   34.3834   45.7451 H   0  0  0  0  0  0  0  0  0  0  0  0
   63.1590   30.7209   48.9278 H   0  0  0  0  0  0  0  0  0  0  0  0
   62.7761   31.7109   50.4785 H   0  0  0  0  0  0  0  0  0  0  0  0
   60.8333   30.7074   50.3830 H   0  0  0  0  0  0  0  0  0  0  0  0
   60.5363   31.9937   49.0747 H   0  0  0  0  0  0  0  0  0  0  0  0
   61.2749   30.1488   47.4496 H   0  0  0  0  0  0  0  0  0  0  0  0
   60.8547   29.0310   48.8146 H   0  0  0  0  0  0  0  0  0  0  0  0
   58.5670   29.8280   48.7490 H   0  0  0  0  0  0  0  0  0  0  0  0
   55.8650   30.9780   43.0982 H   0  0  0  0  0  0  0  0  0  0  0  0
   57.3370   31.5872   42.2682 H   0  0  0  0  0  0  0  0  0  0  0  0
   56.9686   29.8291   42.2682 H   0  0  0  0  0  0  0  0  0  0  0  0
   57.3936   28.2985   42.7284 H   0  0  0  0  0  0  0  0  0  0  0  0
   57.9834   26.0321   43.5509 H   0  0  0  0  0  0  0  0  0  0  0  0
   58.9920   25.7393   45.8045 H   0  0  0  0  0  0  0  0  0  0  0  0
   59.4153   27.7162   47.2486 H   0  0  0  0  0  0  0  0  0  0  0  0
   58.2053   33.0795   43.1677 H   0  0  0  0  0  0  0  0  0  0  0  0
   56.8645   33.3737   44.3785 H   0  0  0  0  0  0  0  0  0  0  0  0
   59.8156   34.0348   44.6846 H   0  0  0  0  0  0  0  0  0  0  0  0
   58.4309   35.1748   44.5719 H   0  0  0  0  0  0  0  0  0  0  0  0
   59.0869   34.9180   46.9179 H   0  0  0  0  0  0  0  0  0  0  0  0
   57.4794   34.1566   46.6576 H   0  0  0  0  0  0  0  0  0  0  0  0
   60.1977   32.8008   46.9004 H   0  0  0  0  0  0  0  0  0  0  0  0
   58.7183   32.6272   47.9592 H   0  0  0  0  0  0  0  0  0  0  0  0
  1  2  1  0
  2  3  1  0
  3  4  1  0
  4  5  1  0
  3  6  1  0
  6  7  1  0
  3  8  1  0
  8  9  1  0
  9 10  1  0
 10 11  1  0
 11 12  1  0
 12 13  2  0
 13 14  1  0
 14 15  2  0
 15 16  1  0
 15 17  1  0
 17 18  2  0
 18 19  1  0
 19 20  2  0
 20 21  1  0
 21 22  2  0
 14 23  1  0
 23 24  1  0
 24 25  1  0
 25 26  1  0
 22 12  1  0
 26 13  1  0
 22 17  1  0
  1 27  1  0
  1 28  1  0
  1 29  1  0
  2 30  1  0
  2 31  1  0
  4 32  1  0
  4 33  1  0
  5 34  1  0
  5 35  1  0
  5 36  1  0
  6 37  1  0
  6 38  1  0
  7 39  1  0
  7 40  1  0
  7 41  1  0
  8 42  1  0
  8 43  1  0
  9 44  1  0
  9 45  1  0
 10 46  1  0
 10 47  1  0
 11 48  1  0
 16 49  1  0
 16 50  1  0
 16 51  1  0
 18 52  1  0
 19 53  1  0
 20 54  1  0
 21 55  1  0
 23 56  1  0
 23 57  1  0
 24 58  1  0
 24 59  1  0
 25 60  1  0
 25 61  1  0
 26 62  1  0
 26 63  1  0
M  CHG  2   3   1  15   1
M  END
>  <UniqueID>  (1) 
1

>  <SMILES>  (1) 
CC[N+](CC)(CC)CCCNc1c2c([n+](C)c3ccccc13)CCCC2

>  <Energy>  (1) 
108.87367531759985

>  <Genealogy>  (1) 
CC[N+](CC)(CC)CCCNc1c2c([n+](C)c3ccccc13)CCCC2 (3D coordinates assigned)
CC[N+](CC)(CC)CCCNc1c2c([n+](C)c3ccccc13)CCCC2 (nonaromatic ring conformer: 108.87367531759985 kcal/mol)

>  <smiles>  (1) 
CC[N+](CC)(CC)CCCNc1c2c([n+](C)c3ccccc13)CCCC2

>  <score_type>  (1) 
oracle

>  <origin>  (1) 
adg

>  <m_score__min__energy>  (1) 
-4.8600000000000003

>  <m_primary>  (1) 
energy

$$$$
1:0
     RDKit          3D

 74 76  0  0  0  0  0  0  0  0999 V2000
   59.2319   35.9331   46.2674 H   0  0  0  0  0  0  0  0  0  0  0  0
   59.0000   34.8830   46.0360 C   0  0  0  0  0  0  0  0  0  0  0  0
   58.1360   34.5760   44.9910 C   0  0  0  0  0  0  0  0  0  0  0  0
   57.6837   35.3847   44.3982 H   0  0  0  0  0  0  0  0  0  0  0  0
   57.8410   33.2470   44.6920 C   0  0  0  0  0  0  0  0  0  0  0  0
   57.1464   33.0184   43.8702 H   0  0  0  0  0  0  0  0  0  0  0  0
   58.4210   32.1870   45.4290 C   0  0  0  0  0  0  0  0  0  0  0  0
   59.3000   32.5050   46.5000 C   0  0  0  0  0  0  0  0  0  0  0  0
   59.5720   33.8610   46.7900 C   0  0  0  0  0  0  0  0  0  0  0  0
   60.2449   34.1130   47.6229 H   0  0  0  0  0  0  0  0  0  0  0  0
   59.8900   31.4570   47.2500 C   0  0  0  0  0  0  0  0  0  0  0  0
   61.1520   31.6760   47.9500 N   0  0  0  0  0  0  0  0  0  0  0  0
   61.2370   32.6770   48.2380 H   0  0  0  0  0  0  0  0  0  0  0  0
   61.2270   31.1000   48.8090 H   0  0  0  0  0  0  0  0  0  0  0  0
   62.2970   31.2650   47.1140 C   0  0  0  0  0  0  0  0  0  0  0  0
   61.9524   31.1183   46.0797 H   0  0  0  0  0  0  0  0  0  0  0  0
   62.7086   30.3295   47.5206 H   0  0  0  0  0  0  0  0  0  0  0  0
   63.4000   32.3290   47.1280 C   0  0  0  0  0  0  0  0  0  0  0  0
   63.6771   32.5858   46.0949 H   0  0  0  0  0  0  0  0  0  0  0  0
   64.2840   31.9393   47.6540 H   0  0  0  0  0  0  0  0  0  0  0  0
   62.9230   33.4800   47.7890 O   0  0  0  0  0  0  0  0  0  0  0  0
   63.7560   33.8130   48.8850 C   0  0  0  0  0  0  0  0  0  0  0  0
   63.5088   34.8260   49.2353 H   0  0  0  0  0  0  0  0  0  0  0  0
   64.8072   33.7745   48.5632 H   0  0  0  0  0  0  0  0  0  0  0  0
   63.5450   32.8170   50.0270 C   0  0  0  0  0  0  0  0  0  0  0  0
   63.9445   33.2436   50.9589 H   0  0  0  0  0  0  0  0  0  0  0  0
   64.0691   31.8804   49.7860 H   0  0  0  0  0  0  0  0  0  0  0  0
   62.0940   32.5290   50.2010 N   0  0  0  0  0  0  0  0  0  0  0  0
   61.8560   31.4940   51.2340 C   0  0  0  0  0  0  0  0  0  0  0  0
   60.7827   31.2544   51.2588 H   0  0  0  0  0  0  0  0  0  0  0  0
   62.1921   31.8912   52.2032 H   0  0  0  0  0  0  0  0  0  0  0  0
   62.6420   30.2180   50.9420 C   0  0  0  0  0  0  0  0  0  0  0  0
   62.9348   29.7427   51.8898 H   0  0  0  0  0  0  0  0  0  0  0  0
   62.0140   29.5250   50.3629 H   0  0  0  0  0  0  0  0  0  0  0  0
   63.5435   30.4671   50.3629 H   0  0  0  0  0  0  0  0  0  0  0  0
   61.3320   33.7580   50.5230 C   0  0  0  0  0  0  0  0  0  0  0  0
   61.4750   34.0022   51.5860 H   0  0  0  0  0  0  0  0  0  0  0  0
   61.7009   34.5766   49.8875 H   0  0  0  0  0  0  0  0  0  0  0  0
   59.8420   33.5630   50.2510 C   0  0  0  0  0  0  0  0  0  0  0  0
   59.3011   33.4922   51.2062 H   0  0  0  0  0  0  0  0  0  0  0  0
   59.4593   34.4187   49.6754 H   0  0  0  0  0  0  0  0  0  0  0  0
   59.6924   32.6376   49.6754 H   0  0  0  0  0  0  0  0  0  0  0  0
   59.3000   30.1630   47.1560 C   0  0  0  0  0  0  0  0  0  0  0  0
   59.4320   29.1530   48.1570 C   0  0  0  0  0  0  0  0  0  0  0  0
   59.8860   29.4670   49.3400 N   0  0  0  0  0  0  0  0  0  0  0  0
   59.2190   29.3520   50.6370 C   0  0  0  0  0  0  0  0  0  0  0  0
   58.7224   28.3728   50.7040 H   0  0  0  0  0  0  0  0  0  0  0  0
   59.9698   29.4496   51.4350 H   0  0  0  0  0  0  0  0  0  0  0  0
   58.1640   30.4710   50.8000 C   0  0  0  0  0  0  0  0  0  0  0  0
   58.6498   31.3337   51.2794 H   0  0  0  0  0  0  0  0  0  0  0  0
   57.7873   30.6945   49.7910 H   0  0  0  0  0  0  0  0  0  0  0  0
   56.9850   30.0920   51.6150 N   0  0  0  0  0  0  0  0  0  0  0  0
   57.3510   29.2720   52.7830 C   0  0  0  0  0  0  0  0  0  0  0  0
   57.1070   29.8187   53.7058 H   0  0  0  0  0  0  0  0  0  0  0  0
   56.7895   28.3265   52.7576 H   0  0  0  0  0  0  0  0  0  0  0  0
   58.4298   29.0586   52.7576 H   0  0  0  0  0  0  0  0  0  0  0  0
   56.1640   31.2460   52.0120 C   0  0  0  0  0  0  0  0  0  0  0  0
   56.1216   31.3056   53.1096 H   0  0  0  0  0  0  0  0  0  0  0  0
   56.6100   32.1684   51.6117 H   0  0  0  0  0  0  0  0  0  0  0  0
   55.1464   31.1271   51.6117 H   0  0  0  0  0  0  0  0  0  0  0  0
   58.9520   27.8560   47.8870 C   0  0  0  0  0  0  0  0  0  0  0  0
   59.1080   27.0480   48.6169 H   0  0  0  0  0  0  0  0  0  0  0  0
   58.2810   27.5990   46.6970 C   0  0  0  0  0  0  0  0  0  0  0  0
   57.7250   26.2390   46.4190 C   0  0  0  0  0  0  0  0  0  0  0  0
   57.5157   25.7271   47.3698 H   0  0  0  0  0  0  0  0  0  0  0  0
   56.7938   26.3346   45.8413 H   0  0  0  0  0  0  0  0  0  0  0  0
   58.4565   25.6549   45.8413 H   0  0  0  0  0  0  0  0  0  0  0  0
   58.0400   28.6110   45.8280 N   0  0  0  0  0  0  0  0  0  0  0  0
   58.4970   29.8790   46.0200 C   0  0  0  0  0  0  0  0  0  0  0  0
   58.1570   30.8680   45.1280 N   0  0  0  0  0  0  0  0  0  0  0  0
   57.4300   30.5070   43.8930 C   0  0  0  0  0  0  0  0  0  0  0  0
   56.4734   30.0320   44.1562 H   0  0  0  0  0  0  0  0  0  0  0  0
   57.2383   31.4146   43.3018 H   0  0  0  0  0  0  0  0  0  0  0  0
   58.0372   29.8057   43.3018 H   0  0  0  0  0  0  0  0  0  0  0  0
  1  2  1  0
  2  3  2  0
  3  4  1  0
  3  5  1  0
  5  6  1  0
  5  7  2  0
  7  8  1  0
  8  9  2  0
  9 10  1  0
  8 11  1  0
 11 12  1  0
 12 13  1  0
 12 14  1  0
 12 15  1  0
 15 16  1  0
 15 17  1  0
 15 18  1  0
 18 19  1  0
 18 20  1  0
 18 21  1  0
 21 22  1  0
 22 23  1  0
 22 24  1  0
 22 25  1  0
 25 26  1  0
 25 27  1  0
 25 28  1  0
 28 29  1  0
 29 30  1  0
 29 31  1  0
 29 32  1  0
 32 33  1  0
 32 34  1  0
 32 35  1  0
 28 36  1  0
 36 37  1  0
 36 38  1  0
 36 39  1  0
 39 40  1  0
 39 41  1  0
 39 42  1  0
 11 43  2  0
 43 44  1  0
 44 45  2  0
 45 46  1  0
 46 47  1  0
 46 48  1  0
 46 49  1  0
 49 50  1  0
 49 51  1  0
 49 52  1  0
 52 53  1  0
 53 54  1  0
 53 55  1  0
 53 56  1  0
 52 57  1  0
 57 58  1  0
 57 59  1  0
 57 60  1  0
 44 61  1  0
 61 62  1  0
 61 63  2  0
 63 64  1  0
 64 65  1  0
 64 66  1  0
 64 67  1  0
 63 68  1  0
 68 69  1  0
 69 70  2  0
 70 71  1  0
 71 72  1  0
 71 73  1  0
 71 74  1  0
  9  2  1  0
 69 43  1  0
 70  7  1  0
M  CHG  3  12   1  68  -1  70   1
M  END
>  <UniqueID>  (2) 
2

>  <SMILES>  (2) 
CCN(CC)CCOCC[NH2+]c1c2ccccc2[n+](C)c2[n-]c(C)c/c(=N/CCN(C)C)c12

>  <Energy>  (2) 
109.99032243681533

>  <Genealogy>  (2) 
CCN(CC)CCOCC[NH2+]c1c2ccccc2[n+](C)c2[n-]c(C)cc(=NCCN(C)C)c12 (protonated)
CCN(CC)CCOCC[NH2+]c1c2ccccc2[n+](C)c2[n-]c(C)c/c(=N/CCN(C)C)c12 (cis-trans isomerization)
CCN(CC)CCOCC[NH2+]c1c2ccccc2[n+](C)c2[n-]c(C)c/c(=N/CCN(C)C)c12 (3D coordinates assigned)
CCN(CC)CCOCC[NH2+]c1c2ccccc2[n+](C)c2[n-]c(C)c/c(=N/CCN(C)C)c12 (optimized conformer: 109.99032243681533 kcal/mol)

>  <smiles>  (2) 
CCN(CC)CCOCCNc1c2ccccc2[n+](C)c2[nH]c(C)cc(=NCCN(C)C)c12

>  <score_type>  (2) 
oracle

>  <origin>  (2) 
adg

>  <m_score__min__energy>  (2) 
-5.5

>  <m_primary>  (2) 
energy

$$$$
2:0
     RDKit          3D

 37 38  0  0  0  0  0  0  0  0999 V2000
   58.6500   21.8410   44.1990 C   0  0  0  0  0  0  0  0  0  0  0  0
   57.4630   21.1880   43.4750 C   0  0  0  0  0  0  0  0  0  0  0  0
   56.1640   21.8850   43.6520 N   0  0  0  0  0  0  0  0  0  0  0  0
   55.8840   22.9500   42.6750 C   0  0  0  0  0  0  0  0  0  0  0  0
   55.8470   22.2660   45.0450 C   0  0  0  0  0  0  0  0  0  0  0  0
   56.0870   23.6900   45.3190 C   0  0  0  0  0  0  0  0  0  0  0  0
   56.2900   24.8600   45.5260 C   0  0  0  0  0  0  0  0  0  0  0  0
   56.4980   26.2640   45.7600 C   0  0  0  0  0  0  0  0  0  0  0  0
   55.5250   27.0550   45.6590 O   0  0  0  0  0  0  0  0  0  0  0  0
   57.8040   26.7860   46.0320 N   0  0  0  0  0  0  0  0  0  0  0  0
   58.1550   28.1790   46.0860 C   0  0  0  0  0  0  0  0  0  0  0  0
   58.8710   28.6940   47.1810 C   0  0  0  0  0  0  0  0  0  0  0  0
   59.2190   30.0450   47.2310 C   0  0  0  0  0  0  0  0  0  0  0  0
   58.8420   30.9070   46.2010 C   0  0  0  0  0  0  0  0  0  0  0  0
   58.1040   30.4210   45.1140 C   0  0  0  0  0  0  0  0  0  0  0  0
   57.7130   31.2750   44.0760 C   0  0  0  0  0  0  0  0  0  0  0  0
   56.9810   30.7740   43.0020 C   0  0  0  0  0  0  0  0  0  0  0  0
   56.6460   29.4200   42.9710 C   0  0  0  0  0  0  0  0  0  0  0  0
   57.0300   28.5920   43.9810 N   0  0  0  0  0  0  0  0  0  0  0  0
   57.7480   29.0500   45.0520 C   0  0  0  0  0  0  0  0  0  0  0  0
   58.5051   21.7613   45.2865 H   0  0  0  0  0  0  0  0  0  0  0  0
   59.5804   21.3278   43.9145 H   0  0  0  0  0  0  0  0  0  0  0  0
   58.7146   22.9016   43.9145 H   0  0  0  0  0  0  0  0  0  0  0  0
   57.6921   21.1597   42.3995 H   0  0  0  0  0  0  0  0  0  0  0  0
   57.3410   20.1895   43.9200 H   0  0  0  0  0  0  0  0  0  0  0  0
   55.6392   23.8809   43.2074 H   0  0  0  0  0  0  0  0  0  0  0  0
   56.7704   23.1108   42.0438 H   0  0  0  0  0  0  0  0  0  0  0  0
   55.0331   22.6541   42.0438 H   0  0  0  0  0  0  0  0  0  0  0  0
   54.7863   22.0461   45.2360 H   0  0  0  0  0  0  0  0  0  0  0  0
   56.5110   21.6873   45.7039 H   0  0  0  0  0  0  0  0  0  0  0  0
   59.1596   28.0261   48.0060 H   0  0  0  0  0  0  0  0  0  0  0  0
   59.7929   30.4315   48.0862 H   0  0  0  0  0  0  0  0  0  0  0  0
   59.1245   31.9693   46.2424 H   0  0  0  0  0  0  0  0  0  0  0  0
   57.9836   32.3407   44.1085 H   0  0  0  0  0  0  0  0  0  0  0  0
   56.6694   31.4408   42.1845 H   0  0  0  0  0  0  0  0  0  0  0  0
   56.0681   29.0191   42.1253 H   0  0  0  0  0  0  0  0  0  0  0  0
   56.7590   27.5850   43.9100 H   0  0  0  0  0  0  0  0  0  0  0  0
  1  2  1  0
  2  3  1  0
  3  4  1  0
  3  5  1  0
  5  6  1  0
  6  7  3  0
  7  8  1  0
  8  9  2  0
  8 10  1  0
 10 11  1  0
 11 12  2  0
 12 13  1  0
 13 14  2  0
 14 15  1  0
 15 16  2  0
 16 17  1  0
 17 18  2  0
 18 19  1  0
 19 20  2  0
 20 11  1  0
 20 15  1  0
  1 21  1  0
  1 22  1  0
  1 23  1  0
  2 24  1  0
  2 25  1  0
  4 26  1  0
  4 27  1  0
  4 28  1  0
  5 29  1  0
  5 30  1  0
 12 31  1  0
 13 32  1  0
 14 33  1  0
 16 34  1  0
 17 35  1  0
 18 36  1  0
 19 37  1  0
M  CHG  2  10  -1  19   1
M  END
>  <UniqueID>  (3) 
3

>  <SMILES>  (3) 
CCN(C)CC#CC(=O)[N-]c1cccc2ccc[nH+]c12

>  <Energy>  (3) 
43.90492973924895

>  <Genealogy>  (3) 
CCN(C)CC#CC(=O)[N-]c1cccc2ccc[nH+]c12 (protonated)
CCN(C)CC#CC(=O)[N-]c1cccc2ccc[nH+]c12 (3D coordinates assigned)
CCN(C)CC#CC(=O)[N-]c1cccc2ccc[nH+]c12 (optimized conformer: 43.90492973924895 kcal/mol)

>  <smiles>  (3) 
CCN(C)CC#CC(=O)Nc1cccc2cccnc12

>  <score_type>  (3) 
oracle

>  <origin>  (3) 
adg

>  <m_score__min__energy>  (3) 
-6.7699999999999996

>  <m_primary>  (3) 
energy

$$$$
3:0
     RDKit          3D

 29 30  0  0  0  0  0  0  0  0999 V2000
   63.4780   33.4740   47.0850 C   0  0  0  0  0  0  0  0  0  0  0  0
   62.0900   33.0280   47.5240 C   0  0  0  0  0  0  0  0  0  0  0  0
   61.0730   33.6830   46.6910 N   0  0  0  0  0  0  0  0  0  0  0  0
   59.7020   33.5000   47.2130 C   0  0  1  0  0  0  0  0  0  0  0  0
   58.7120   34.5870   46.7440 C   0  0  0  0  0  0  0  0  0  0  0  0
   58.5290   34.5860   45.2240 C   0  0  0  0  0  0  0  0  0  0  0  0
   58.3540   33.2030   44.6530 C   0  0  0  0  0  0  0  0  0  0  0  0
   57.9010   33.0900   43.3780 N   0  0  0  0  0  0  0  0  0  0  0  0
   57.7540   31.8820   42.7820 C   0  0  0  0  0  0  0  0  0  0  0  0
   58.0630   30.7470   43.4590 N   0  0  0  0  0  0  0  0  0  0  0  0
   58.5300   30.7950   44.7350 C   0  0  0  0  0  0  0  0  0  0  0  0
   58.8980   29.1360   45.6310 Br  0  0  0  0  0  0  0  0  0  0  0  0
   58.7160   32.0390   45.3700 C   0  0  0  0  0  0  0  0  0  0  0  0
   59.1740   32.1140   46.8120 C   0  0  0  0  0  0  0  0  0  0  0  0
   64.0969   33.6729   47.9723 H   0  0  0  0  0  0  0  0  0  0  0  0
   63.9447   32.6806   46.4828 H   0  0  0  0  0  0  0  0  0  0  0  0
   63.3952   34.3908   46.4828 H   0  0  0  0  0  0  0  0  0  0  0  0
   62.0049   31.9368   47.4145 H   0  0  0  0  0  0  0  0  0  0  0  0
   61.9337   33.3070   48.5765 H   0  0  0  0  0  0  0  0  0  0  0  0
   61.3040   34.7000   46.6020 H   0  0  0  0  0  0  0  0  0  0  0  0
   59.7709   33.5882   48.3073 H   0  0  0  0  0  0  0  0  0  0  0  0
   57.7362   34.4058   47.2183 H   0  0  0  0  0  0  0  0  0  0  0  0
   59.1227   35.5654   47.0339 H   0  0  0  0  0  0  0  0  0  0  0  0
   57.6379   35.1822   44.9778 H   0  0  0  0  0  0  0  0  0  0  0  0
   59.4424   35.0111   44.7824 H   0  0  0  0  0  0  0  0  0  0  0  0
   57.3837   31.8212   41.7480 H   0  0  0  0  0  0  0  0  0  0  0  0
   57.9330   29.8230   42.9890 H   0  0  0  0  0  0  0  0  0  0  0  0
   58.3224   31.8638   47.4618 H   0  0  0  0  0  0  0  0  0  0  0  0
   60.0064   31.4039   46.9258 H   0  0  0  0  0  0  0  0  0  0  0  0
  1  2  1  0
  2  3  1  0
  3  4  1  0
  4  5  1  0
  5  6  1  0
  6  7  1  0
  7  8  2  0
  8  9  1  0
  9 10  2  0
 10 11  1  0
 11 12  1  0
 11 13  2  0
 13 14  1  0
 14  4  1  0
 13  7  1  0
  1 15  1  0
  1 16  1  0
  1 17  1  0
  2 18  1  0
  2 19  1  0
  3 20  1  0
  4 21  1  1
  5 22  1  0
  5 23  1  0
  6 24  1  0
  6 25  1  0
  9 26  1  0
 10 27  1  0
 14 28  1  0
 14 29  1  0
M  CHG  1  10   1
M  END
>  <UniqueID>  (4) 
4

>  <SMILES>  (4) 
CCN[C@H]1CCc2nc[nH+]c(Br)c2C1

>  <Energy>  (4) 
28.911001396559598

>  <Genealogy>  (4) 
CCNC1CCc2nc[nH+]c(Br)c2C1 (protonated)
CCN[C@H]1CCc2nc[nH+]c(Br)c2C1 (chirality)
CCN[C@H]1CCc2nc[nH+]c(Br)c2C1 (3D coordinates assigned)
CCN[C@H]1CCc2nc[nH+]c(Br)c2C1 (nonaromatic ring conformer: 28.911001396559598 kcal/mol)

>  <smiles>  (4) 
CCNC1CCc2ncnc(Br)c2C1

>  <score_type>  (4) 
oracle

>  <origin>  (4) 
adg

>  <m_score__min__energy>  (4) 
-4.8600000000000003

>  <m_primary>  (4) 
energy

$$$$
4:0
     RDKit          3D

 49 50  0  0  0  0  0  0  0  0999 V2000
   55.7920   30.4970   52.7040 C   0  0  0  0  0  0  0  0  0  0  0  0
   56.9690   29.9990   52.0760 O   0  0  0  0  0  0  0  0  0  0  0  0
   57.7610   30.7350   51.1810 C   0  0  0  0  0  0  0  0  0  0  0  0
   58.1370   32.0660   51.4260 C   0  0  0  0  0  0  0  0  0  0  0  0
   58.9240   32.7550   50.5040 C   0  0  0  0  0  0  0  0  0  0  0  0
   59.3520   32.1370   49.3150 C   0  0  0  0  0  0  0  0  0  0  0  0
   60.1550   32.9590   48.3290 C   0  0  0  0  0  0  0  0  0  0  0  0
   59.4810   34.3100   48.0460 C   0  0  0  0  0  0  0  0  0  0  0  0
   58.8260   34.3080   46.7200 N   0  0  0  0  0  0  0  0  0  0  0  0
   57.4250   33.8360   46.8110 C   0  0  0  0  0  0  0  0  0  0  0  0
   56.9280   33.3050   45.4650 C   0  0  0  0  0  0  0  0  0  0  0  0
   57.7040   32.1070   45.0900 N   0  0  0  0  0  0  0  0  0  0  0  0
   57.3920   31.5820   43.7440 C   0  0  0  0  0  0  0  0  0  0  0  0
   56.6330   30.2420   43.7450 C   0  0  0  0  0  0  0  0  0  0  0  0
   56.2440   29.9040   45.0470 O   0  0  0  0  0  0  0  0  0  0  0  0
   59.1510   32.1750   45.4120 C   0  0  0  0  0  0  0  0  0  0  0  0
   59.6350   33.6110   45.6850 C   0  0  0  0  0  0  0  0  0  0  0  0
   58.9790   30.7920   49.0700 C   0  0  0  0  0  0  0  0  0  0  0  0
   59.5040   29.8910   47.6470 S   0  0  0  0  0  0  0  0  0  0  0  0
   60.5750   28.5120   47.9810 C   0  0  0  0  0  0  0  0  0  0  0  0
   58.2200   29.4840   46.6430 O   0  0  0  0  0  0  0  0  0  0  0  0
   58.1900   30.1100   50.0070 C   0  0  0  0  0  0  0  0  0  0  0  0
   55.9102   30.4470   53.7965 H   0  0  0  0  0  0  0  0  0  0  0  0
   55.6283   31.5415   52.4003 H   0  0  0  0  0  0  0  0  0  0  0  0
   54.9283   29.8872   52.4003 H   0  0  0  0  0  0  0  0  0  0  0  0
   57.8093   32.5668   52.3489 H   0  0  0  0  0  0  0  0  0  0  0  0
   59.2141   33.7960   50.7092 H   0  0  0  0  0  0  0  0  0  0  0  0
   61.1570   33.1392   48.7456 H   0  0  0  0  0  0  0  0  0  0  0  0
   60.2200   32.3998   47.3840 H   0  0  0  0  0  0  0  0  0  0  0  0
   58.7245   34.5039   48.8206 H   0  0  0  0  0  0  0  0  0  0  0  0
   60.2516   35.0949   48.0551 H   0  0  0  0  0  0  0  0  0  0  0  0
   57.3662   33.0304   47.5577 H   0  0  0  0  0  0  0  0  0  0  0  0
   56.7910   34.6858   47.1041 H   0  0  0  0  0  0  0  0  0  0  0  0
   55.8632   33.0413   45.5458 H   0  0  0  0  0  0  0  0  0  0  0  0
   57.0572   34.0803   44.6955 H   0  0  0  0  0  0  0  0  0  0  0  0
   56.7756   32.3263   43.2186 H   0  0  0  0  0  0  0  0  0  0  0  0
   58.3560   31.3969   43.2476 H   0  0  0  0  0  0  0  0  0  0  0  0
   55.7386   30.3312   43.1108 H   0  0  0  0  0  0  0  0  0  0  0  0
   57.2955   29.4556   43.3543 H   0  0  0  0  0  0  0  0  0  0  0  0
   56.6450   30.5880   45.6430 H   0  0  0  0  0  0  0  0  0  0  0  0
   59.3410   31.5641   46.3068 H   0  0  0  0  0  0  0  0  0  0  0  0
   59.7028   31.8004   44.5372 H   0  0  0  0  0  0  0  0  0  0  0  0
   60.6802   33.5702   46.0253 H   0  0  0  0  0  0  0  0  0  0  0  0
   59.5310   34.1779   44.7481 H   0  0  0  0  0  0  0  0  0  0  0  0
   60.6764   28.3815   49.0685 H   0  0  0  0  0  0  0  0  0  0  0  0
   60.1463   27.5997   47.5406 H   0  0  0  0  0  0  0  0  0  0  0  0
   61.5650   28.7015   47.5406 H   0  0  0  0  0  0  0  0  0  0  0  0
   58.2130   30.1940   45.9520 H   0  0  0  0  0  0  0  0  0  0  0  0
   57.9038   29.0654   49.8148 H   0  0  0  0  0  0  0  0  0  0  0  0
  1  2  1  0
  2  3  1  0
  3  4  2  0
  4  5  1  0
  5  6  2  0
  6  7  1  0
  7  8  1  0
  8  9  1  0
  9 10  1  0
 10 11  1  0
 11 12  1  0
 12 13  1  0
 13 14  1  0
 14 15  1  0
 12 16  1  0
 16 17  1  0
  6 18  1  0
 18 19  1  0
 19 20  1  0
 19 21  1  1
 18 22  2  0
 22  3  1  0
 17  9  1  0
  1 23  1  0
  1 24  1  0
  1 25  1  0
  4 26  1  0
  5 27  1  0
  7 28  1  0
  7 29  1  0
  8 30  1  0
  8 31  1  0
 10 32  1  0
 10 33  1  0
 11 34  1  0
 11 35  1  0
 13 36  1  0
 13 37  1  0
 14 38  1  0
 14 39  1  0
 15 40  1  0
 16 41  1  0
 16 42  1  0
 17 43  1  0
 17 44  1  0
 20 45  1  0
 20 46  1  0
 20 47  1  0
 21 48  1  0
 22 49  1  0
M  CHG  1  19   1
M  END
>  <UniqueID>  (5) 
5

>  <SMILES>  (5) 
COc1ccc(CCN2CCN(CCO)CC2)c([S@@+](C)O)c1

>  <Energy>  (5) 
57.870389929640375

>  <Genealogy>  (5) 
COc1ccc(CCN2CCN(CCO)CC2)c([S+](C)O)c1 (protonated)
COc1ccc(CCN2CCN(CCO)CC2)c([S@@+](C)O)c1 (chirality)
COc1ccc(CCN2CCN(CCO)CC2)c([S@@+](C)O)c1 (3D coordinates assigned)
COc1ccc(CCN2CCN(CCO)CC2)c([S@@+](C)O)c1 (nonaromatic ring conformer: 57.870389929640375 kcal/mol)

>  <smiles>  (5) 
COc1ccc(CCN2CCN(CCO)CC2)c([S+](C)[O-])c1

>  <score_type>  (5) 
oracle

>  <origin>  (5) 
adg

>  <m_score__min__energy>  (5) 
-6.2000000000000002

>  <m_primary>  (5) 
energy

$$$$
5:0
     RDKit          3D

 54 56  0  0  0  0  0  0  0  0999 V2000
   59.2471   27.8920   48.8939 H   0  0  0  0  0  0  0  0  0  0  0  0
   59.2880   28.5940   48.0480 C   0  0  0  0  0  0  0  0  0  0  0  0
   59.6820   29.8510   48.2880 C   0  0  0  0  0  0  0  0  0  0  0  0
   59.9935   30.4883   47.4473 H   0  0  0  0  0  0  0  0  0  0  0  0
   59.7070   30.4100   49.6880 C   0  0  0  0  0  0  0  0  0  0  0  0
   60.0937   29.6391   50.3708 H   0  0  0  0  0  0  0  0  0  0  0  0
   58.6803   30.7010   49.9546 H   0  0  0  0  0  0  0  0  0  0  0  0
   60.5660   31.6170   49.7930 N   0  0  0  0  0  0  0  0  0  0  0  0
   61.2320   31.4640   50.5860 H   0  0  0  0  0  0  0  0  0  0  0  0
   59.7510   32.8150   50.1410 C   0  0  0  0  0  0  0  0  0  0  0  0
   60.3197   33.4375   50.8474 H   0  0  0  0  0  0  0  0  0  0  0  0
   58.8080   32.4648   50.5862 H   0  0  0  0  0  0  0  0  0  0  0  0
   59.4050   33.6590   48.9050 C   0  0  0  0  0  0  0  0  0  0  0  0
   58.7774   34.5073   49.2156 H   0  0  0  0  0  0  0  0  0  0  0  0
   58.8704   33.0184   48.1881 H   0  0  0  0  0  0  0  0  0  0  0  0
   60.6270   34.1800   48.2430 N   0  0  0  0  0  0  0  0  0  0  0  0
   60.3660   34.5260   46.8290 C   0  0  0  0  0  0  0  0  0  0  0  0
   61.2946   34.4062   46.2516 H   0  0  0  0  0  0  0  0  0  0  0  0
   60.0154   35.5675   46.7809 H   0  0  0  0  0  0  0  0  0  0  0  0
   59.3020   33.6320   46.2440 C   0  0  0  0  0  0  0  0  0  0  0  0
   58.0220   34.1400   45.9860 C   0  0  0  0  0  0  0  0  0  0  0  0
   57.7974   35.1946   46.2039 H   0  0  0  0  0  0  0  0  0  0  0  0
   57.0290   33.3130   45.4530 C   0  0  0  0  0  0  0  0  0  0  0  0
   56.0299   33.7245   45.2471 H   0  0  0  0  0  0  0  0  0  0  0  0
   57.2940   31.9670   45.1790 C   0  0  0  0  0  0  0  0  0  0  0  0
   56.2580   31.1870   44.6400 O   0  0  0  0  0  0  0  0  0  0  0  0
   56.3760   29.8270   44.2150 C   0  0  0  0  0  0  0  0  0  0  0  0
   55.5624   29.2374   44.6626 H   0  0  0  0  0  0  0  0  0  0  0  0
   57.3530   29.4396   44.5397 H   0  0  0  0  0  0  0  0  0  0  0  0
   56.2900   29.7250   42.6950 C   0  0  0  0  0  0  0  0  0  0  0  0
   55.6034   28.9106   42.4204 H   0  0  0  0  0  0  0  0  0  0  0  0
   55.9157   30.6744   42.2844 H   0  0  0  0  0  0  0  0  0  0  0  0
   57.2890   29.5165   42.2844 H   0  0  0  0  0  0  0  0  0  0  0  0
   58.5740   31.4510   45.4580 C   0  0  0  0  0  0  0  0  0  0  0  0
   58.7919   30.3910   45.2606 H   0  0  0  0  0  0  0  0  0  0  0  0
   59.5700   32.2800   45.9850 C   0  0  0  0  0  0  0  0  0  0  0  0
   60.5682   31.8694   46.1973 H   0  0  0  0  0  0  0  0  0  0  0  0
   61.7950   33.2720   48.3750 C   0  0  0  0  0  0  0  0  0  0  0  0
   62.3869   33.5805   49.2494 H   0  0  0  0  0  0  0  0  0  0  0  0
   62.3844   33.3419   47.4489 H   0  0  0  0  0  0  0  0  0  0  0  0
   61.3710   31.8070   48.5560 C   0  0  0  0  0  0  0  0  0  0  0  0
   62.2725   31.1797   48.6173 H   0  0  0  0  0  0  0  0  0  0  0  0
   60.7498   31.5204   47.6946 H   0  0  0  0  0  0  0  0  0  0  0  0
   58.9040   28.0960   46.7060 C   0  0  0  0  0  0  0  0  0  0  0  0
   59.6430   28.4070   45.5460 C   0  0  0  0  0  0  0  0  0  0  0  0
   60.5291   29.0546   45.6191 H   0  0  0  0  0  0  0  0  0  0  0  0
   59.2550   27.8960   44.3020 C   0  0  0  0  0  0  0  0  0  0  0  0
   59.8328   28.1476   43.4004 H   0  0  0  0  0  0  0  0  0  0  0  0
   58.1350   27.0670   44.2040 C   0  0  0  0  0  0  0  0  0  0  0  0
   57.8287   26.6707   43.2247 H   0  0  0  0  0  0  0  0  0  0  0  0
   57.4040   26.7410   45.3480 C   0  0  0  0  0  0  0  0  0  0  0  0
   56.5242   26.0854   45.2694 H   0  0  0  0  0  0  0  0  0  0  0  0
   57.7890   27.2470   46.5940 C   0  0  0  0  0  0  0  0  0  0  0  0
   57.2149   26.9786   47.4931 H   0  0  0  0  0  0  0  0  0  0  0  0
  1  2  1  0
  2  3  2  0
  3  4  1  0
  3  5  1  0
  5  6  1  0
  5  7  1  0
  5  8  1  0
  8  9  1  0
  8 10  1  0
 10 11  1  0
 10 12  1  0
 10 13  1  0
 13 14  1  0
 13 15  1  0
 13 16  1  0
 16 17  1  0
 17 18  1  0
 17 19  1  0
 17 20  1  0
 20 21  2  0
 21 22  1  0
 21 23  1  0
 23 24  1  0
 23 25  2  0
 25 26  1  0
 26 27  1  0
 27 28  1  0
 27 29  1  0
 27 30  1  0
 30 31  1  0
 30 32  1  0
 30 33  1  0
 25 34  1  0
 34 35  1  0
 34 36  2  0
 36 37  1  0
 16 38  1  0
 38 39  1  0
 38 40  1  0
 38 41  1  0
 41 42  1  0
 41 43  1  0
  2 44  1  0
 44 45  2  0
 45 46  1  0
 45 47  1  0
 47 48  1  0
 47 49  2  0
 49 50  1  0
 49 51  1  0
 51 52  1  0
 51 53  2  0
 53 54  1  0
 41  8  1  0
 53 44  1  0
 36 20  1  0
M  CHG  1   8   1
M  END
>  <UniqueID>  (6) 
6

>  <SMILES>  (6) 
CCOc1ccc(CN2CC[NH+](C/C=C/c3ccccc3)CC2)cc1

>  <Energy>  (6) 
67.22716395842747

>  <Genealogy>  (6) 
CCOc1ccc(CN2CC[NH+](CC=Cc3ccccc3)CC2)cc1 (protonated)
CCOc1ccc(CN2CC[NH+](C/C=C/c3ccccc3)CC2)cc1 (cis-trans isomerization)
CCOc1ccc(CN2CC[NH+](C/C=C/c3ccccc3)CC2)cc1 (3D coordinates assigned)
CCOc1ccc(CN2CC[NH+](C/C=C/c3ccccc3)CC2)cc1 (nonaromatic ring conformer: 67.22716395842747 kcal/mol)

>  <smiles>  (6) 
CCOc1ccc(CN2CCN(CC=Cc3ccccc3)CC2)cc1

>  <score_type>  (6) 
oracle

>  <origin>  (6) 
adg

>  <m_score__min__energy>  (6) 
-5.8899999999999997

>  <m_primary>  (6) 
energy

$$$$
6:0
     RDKit          3D

 48 50  0  0  0  0  0  0  0  0999 V2000
   63.8460   33.4770   47.6830 C   0  0  0  0  0  0  0  0  0  0  0  0
   62.8060   33.8990   48.7200 C   0  0  0  0  0  0  0  0  0  0  0  0
   61.4680   33.1080   48.6880 C   0  0  2  0  0  0  0  0  0  0  0  0
   61.6290   31.5910   48.9490 C   0  0  0  0  0  0  0  0  0  0  0  0
   62.4010   31.3130   49.8580 O   0  0  0  0  0  0  0  0  0  0  0  0
   61.0230   30.4580   48.2310 N   0  0  0  0  0  0  0  0  0  0  0  0
   61.4170   30.4930   46.7940 C   0  0  0  0  0  0  0  0  0  0  0  0
   60.4960   29.6530   45.9020 C   0  0  0  0  0  0  0  0  0  0  0  0
   59.1190   30.1370   46.0440 N   0  0  0  0  0  0  0  0  0  0  0  0
   58.2680   30.2600   44.8930 C   0  0  0  0  0  0  0  0  0  0  0  0
   58.2820   31.4460   44.1420 C   0  0  0  0  0  0  0  0  0  0  0  0
   57.4700   31.5780   43.0130 C   0  0  0  0  0  0  0  0  0  0  0  0
   56.6350   30.5280   42.6260 C   0  0  0  0  0  0  0  0  0  0  0  0
   56.6080   29.3450   43.3690 C   0  0  0  0  0  0  0  0  0  0  0  0
   57.4180   29.2040   44.5020 C   0  0  0  0  0  0  0  0  0  0  0  0
   57.3080   27.7200   45.4390 Cl  0  0  0  0  0  0  0  0  0  0  0  0
   58.6690   30.6530   47.3410 C   0  0  0  0  0  0  0  0  0  0  0  0
   59.5870   30.1380   48.4580 C   0  0  0  0  0  0  0  0  0  0  0  0
   60.4680   33.5990   47.6460 C   0  0  0  0  0  0  0  0  0  0  0  0
   60.8550   34.0040   46.3520 C   0  0  0  0  0  0  0  0  0  0  0  0
   59.9030   34.4650   45.4370 C   0  0  0  0  0  0  0  0  0  0  0  0
   58.5600   34.5500   45.8010 C   0  0  0  0  0  0  0  0  0  0  0  0
   58.1630   34.1820   47.0880 C   0  0  0  0  0  0  0  0  0  0  0  0
   59.1070   33.7180   48.0070 C   0  0  0  0  0  0  0  0  0  0  0  0
   64.7477   33.1111   48.1959 H   0  0  0  0  0  0  0  0  0  0  0  0
   63.4318   32.6758   47.0533 H   0  0  0  0  0  0  0  0  0  0  0  0
   64.1072   34.3403   47.0533 H   0  0  0  0  0  0  0  0  0  0  0  0
   63.2513   33.7711   49.7177 H   0  0  0  0  0  0  0  0  0  0  0  0
   62.5463   34.9406   48.4799 H   0  0  0  0  0  0  0  0  0  0  0  0
   60.9027   33.3814   49.5912 H   0  0  0  0  0  0  0  0  0  0  0  0
   61.5210   29.6220   48.6250 H   0  0  0  0  0  0  0  0  0  0  0  0
   61.3857   31.5363   46.4469 H   0  0  0  0  0  0  0  0  0  0  0  0
   62.4281   30.0665   46.7186 H   0  0  0  0  0  0  0  0  0  0  0  0
   60.8132   29.7470   44.8529 H   0  0  0  0  0  0  0  0  0  0  0  0
   60.5506   28.5965   46.2035 H   0  0  0  0  0  0  0  0  0  0  0  0
   58.9366   32.2767   44.4445 H   0  0  0  0  0  0  0  0  0  0  0  0
   57.4884   32.5097   42.4285 H   0  0  0  0  0  0  0  0  0  0  0  0
   55.9979   30.6322   41.7354 H   0  0  0  0  0  0  0  0  0  0  0  0
   55.9473   28.5207   43.0623 H   0  0  0  0  0  0  0  0  0  0  0  0
   58.6964   31.7525   47.3250 H   0  0  0  0  0  0  0  0  0  0  0  0
   57.6417   30.3081   47.5301 H   0  0  0  0  0  0  0  0  0  0  0  0
   59.2727   30.5956   49.4077 H   0  0  0  0  0  0  0  0  0  0  0  0
   59.4954   29.0420   48.4772 H   0  0  0  0  0  0  0  0  0  0  0  0
   61.9144   33.9570   46.0598 H   0  0  0  0  0  0  0  0  0  0  0  0
   60.2155   34.7620   44.4250 H   0  0  0  0  0  0  0  0  0  0  0  0
   57.8141   34.9065   45.0753 H   0  0  0  0  0  0  0  0  0  0  0  0
   57.1048   34.2576   47.3788 H   0  0  0  0  0  0  0  0  0  0  0  0
   58.7875   33.4422   49.0228 H   0  0  0  0  0  0  0  0  0  0  0  0
  1  2  1  0
  2  3  1  0
  3  4  1  0
  4  5  2  0
  4  6  1  0
  6  7  1  0
  7  8  1  0
  8  9  1  0
  9 10  1  0
 10 11  2  0
 11 12  1  0
 12 13  2  0
 13 14  1  0
 14 15  2  0
 15 16  1  0
  9 17  1  0
 17 18  1  0
  3 19  1  0
 19 20  2  0
 20 21  1  0
 21 22  2  0
 22 23  1  0
 23 24  2  0
 18  6  1  0
 24 19  1  0
 15 10  1  0
  1 25  1  0
  1 26  1  0
  1 27  1  0
  2 28  1  0
  2 29  1  0
  3 30  1  1
  6 31  1  0
  7 32  1  0
  7 33  1  0
  8 34  1  0
  8 35  1  0
 11 36  1  0
 12 37  1  0
 13 38  1  0
 14 39  1  0
 17 40  1  0
 17 41  1  0
 18 42  1  0
 18 43  1  0
 20 44  1  0
 21 45  1  0
 22 46  1  0
 23 47  1  0
 24 48  1  0
M  CHG  1   6   1
M  END
>  <UniqueID>  (7) 
7

>  <SMILES>  (7) 
CC[C@H](C(=O)[NH+]1CCN(c2ccccc2Cl)CC1)c1ccccc1

>  <Energy>  (7) 
85.62846566094535

>  <Genealogy>  (7) 
CCC(C(=O)[NH+]1CCN(c2ccccc2Cl)CC1)c1ccccc1 (protonated)
CC[C@H](C(=O)[NH+]1CCN(c2ccccc2Cl)CC1)c1ccccc1 (chirality)
CC[C@H](C(=O)[NH+]1CCN(c2ccccc2Cl)CC1)c1ccccc1 (3D coordinates assigned)
CC[C@H](C(=O)[NH+]1CCN(c2ccccc2Cl)CC1)c1ccccc1 (nonaromatic ring conformer: 85.62846566094535 kcal/mol)

>  <smiles>  (7) 
CCC(C(=O)N1CCN(c2ccccc2Cl)CC1)c1ccccc1

>  <score_type>  (7) 
oracle

>  <origin>  (7) 
adg

>  <m_score__min__energy>  (7) 
-6.2699999999999996

>  <m_primary>  (7) 
energy

$$$$
7:0
     RDKit          3D

 58 61  0  0  0  0  0  0  0  0999 V2000
   52.4630   31.5580   51.2470 C   0  0  0  0  0  0  0  0  0  0  0  0
   52.9790   30.4330   52.1350 C   0  0  0  0  0  0  0  0  0  0  0  0
   54.0690   30.8860   52.9390 O   0  0  0  0  0  0  0  0  0  0  0  0
   55.4270   30.6240   52.7010 C   0  0  0  0  0  0  0  0  0  0  0  0
   56.3120   31.5900   52.1830 C   0  0  0  0  0  0  0  0  0  0  0  0
   57.6510   31.2650   51.9470 C   0  0  0  0  0  0  0  0  0  0  0  0
   58.1310   29.9790   52.2340 C   0  0  0  0  0  0  0  0  0  0  0  0
   59.5540   29.6100   51.9180 C   0  0  0  0  0  0  0  0  0  0  0  0
   60.0450   30.4230   50.7520 C   0  0  0  0  0  0  0  0  0  0  0  0
   59.2940   30.4780   49.5720 C   0  0  0  0  0  0  0  0  0  0  0  0
   59.7660   31.2010   48.4690 C   0  0  0  0  0  0  0  0  0  0  0  0
   58.9010   31.2960   47.2710 C   0  0  0  0  0  0  0  0  0  0  0  0
   58.4020   30.2390   46.7990 O   0  0  0  0  0  0  0  0  0  0  0  0
   58.6130   32.5620   46.6470 N   0  0  0  0  0  0  0  0  0  0  0  0
   58.2710   32.5880   45.2160 C   0  0  0  0  0  0  0  0  0  0  0  0
   58.1130   34.0230   44.6950 C   0  0  0  0  0  0  0  0  0  0  0  0
   59.2480   34.9040   45.2260 C   0  0  0  0  0  0  0  0  0  0  0  0
   59.2830   34.9510   46.7680 C   0  0  0  0  0  0  0  0  0  0  0  0
   58.5160   33.7990   47.4410 C   0  0  0  0  0  0  0  0  0  0  0  0
   61.0370   31.8210   48.5420 C   0  0  0  0  0  0  0  0  0  0  0  0
   61.6170   32.4850   47.4420 C   0  0  0  0  0  0  0  0  0  0  0  0
   62.8710   33.1010   47.5570 C   0  0  0  0  0  0  0  0  0  0  0  0
   63.4410   33.8570   46.3930 C   0  0  0  0  0  0  0  0  0  0  0  0
   63.5550   33.0580   48.7780 C   0  0  0  0  0  0  0  0  0  0  0  0
   63.0120   32.3720   49.8660 C   0  0  0  0  0  0  0  0  0  0  0  0
   61.7610   31.7440   49.7580 C   0  0  0  0  0  0  0  0  0  0  0  0
   61.2510   31.0550   50.8190 N   0  0  0  0  0  0  0  0  0  0  0  0
   57.2490   29.0160   52.7470 C   0  0  0  0  0  0  0  0  0  0  0  0
   55.9100   29.3400   52.9790 C   0  0  0  0  0  0  0  0  0  0  0  0
   52.0868   32.3783   51.8759 H   0  0  0  0  0  0  0  0  0  0  0  0
   53.2812   31.9285   50.6119 H   0  0  0  0  0  0  0  0  0  0  0  0
   51.6485   31.1796   50.6119 H   0  0  0  0  0  0  0  0  0  0  0  0
   52.1657   30.0878   52.7902 H   0  0  0  0  0  0  0  0  0  0  0  0
   53.3288   29.6090   51.4957 H   0  0  0  0  0  0  0  0  0  0  0  0
   55.9478   32.6044   51.9633 H   0  0  0  0  0  0  0  0  0  0  0  0
   58.3326   32.0229   51.5335 H   0  0  0  0  0  0  0  0  0  0  0  0
   60.1866   29.8108   52.7952 H   0  0  0  0  0  0  0  0  0  0  0  0
   59.6034   28.5414   51.6617 H   0  0  0  0  0  0  0  0  0  0  0  0
   58.3300   29.9517   49.5107 H   0  0  0  0  0  0  0  0  0  0  0  0
   59.0711   32.0893   44.6493 H   0  0  0  0  0  0  0  0  0  0  0  0
   57.3107   32.0680   45.0839 H   0  0  0  0  0  0  0  0  0  0  0  0
   58.1419   34.0160   43.5954 H   0  0  0  0  0  0  0  0  0  0  0  0
   57.1508   34.4279   45.0417 H   0  0  0  0  0  0  0  0  0  0  0  0
   60.2059   34.5033   44.8628 H   0  0  0  0  0  0  0  0  0  0  0  0
   59.0762   35.9280   44.8627 H   0  0  0  0  0  0  0  0  0  0  0  0
   60.3330   34.9053   47.0928 H   0  0  0  0  0  0  0  0  0  0  0  0
   58.7892   35.8858   47.0718 H   0  0  0  0  0  0  0  0  0  0  0  0
   58.9412   33.6193   48.4394 H   0  0  0  0  0  0  0  0  0  0  0  0
   57.4560   34.0828   47.5175 H   0  0  0  0  0  0  0  0  0  0  0  0
   61.0796   32.5201   46.4828 H   0  0  0  0  0  0  0  0  0  0  0  0
   64.0647   34.6841   46.7630 H   0  0  0  0  0  0  0  0  0  0  0  0
   64.0553   33.1798   45.7813 H   0  0  0  0  0  0  0  0  0  0  0  0
   62.6210   34.2613   45.7813 H   0  0  0  0  0  0  0  0  0  0  0  0
   64.5247   33.5671   48.8805 H   0  0  0  0  0  0  0  0  0  0  0  0
   63.5679   32.3232   50.8139 H   0  0  0  0  0  0  0  0  0  0  0  0
   61.8020   30.9960   51.7060 H   0  0  0  0  0  0  0  0  0  0  0  0
   57.6133   28.0017   52.9674 H   0  0  0  0  0  0  0  0  0  0  0  0
   55.2281   28.5780   53.3844 H   0  0  0  0  0  0  0  0  0  0  0  0
  1  2  1  0
  2  3  1  0
  3  4  1  0
  4  5  2  0
  5  6  1  0
  6  7  2  0
  7  8  1  0
  8  9  1  0
  9 10  2  0
 10 11  1  0
 11 12  1  0
 12 13  2  0
 12 14  1  0
 14 15  1  0
 15 16  1  0
 16 17  1  0
 17 18  1  0
 18 19  1  0
 11 20  2  0
 20 21  1  0
 21 22  2  0
 22 23  1  0
 22 24  1  0
 24 25  2  0
 25 26  1  0
 26 27  2  0
  7 28  1  0
 28 29  2  0
 29  4  1  0
 27  9  1  0
 19 14  1  0
 26 20  1  0
  1 30  1  0
  1 31  1  0
  1 32  1  0
  2 33  1  0
  2 34  1  0
  5 35  1  0
  6 36  1  0
  8 37  1  0
  8 38  1  0
 10 39  1  0
 15 40  1  0
 15 41  1  0
 16 42  1  0
 16 43  1  0
 17 44  1  0
 17 45  1  0
 18 46  1  0
 18 47  1  0
 19 48  1  0
 19 49  1  0
 21 50  1  0
 23 51  1  0
 23 52  1  0
 23 53  1  0
 24 54  1  0
 25 55  1  0
 27 56  1  0
 28 57  1  0
 29 58  1  0
M  CHG  1  27   1
M  END
>  <UniqueID>  (8) 
8

>  <SMILES>  (8) 
CCOc1ccc(Cc2cc(C(=O)N3CCCCC3)c3cc(C)ccc3[nH+]2)cc1

>  <Energy>  (8) 
66.89735457321764

>  <Genealogy>  (8) 
CCOc1ccc(Cc2cc(C(=O)N3CCCCC3)c3cc(C)ccc3[nH+]2)cc1 (protonated)
CCOc1ccc(Cc2cc(C(=O)N3CCCCC3)c3cc(C)ccc3[nH+]2)cc1 (3D coordinates assigned)
CCOc1ccc(Cc2cc(C(=O)N3CCCCC3)c3cc(C)ccc3[nH+]2)cc1 (nonaromatic ring conformer: 66.89735457321764 kcal/mol)

>  <smiles>  (8) 
CCOc1ccc(Cc2cc(C(=O)N3CCCCC3)c3cc(C)ccc3n2)cc1

>  <score_type>  (8) 
oracle

>  <origin>  (8) 
adg

>  <m_score__min__energy>  (8) 
-7.1900000000000004

>  <m_primary>  (8) 
energy

$$$$
8:0
     RDKit          3D

 57 60  0  0  0  0  0  0  0  0999 V2000
   57.0240   30.8270   43.8770 C   0  0  0  0  0  0  0  0  0  0  0  0
   57.7640   32.1360   43.5660 C   0  0  0  0  0  0  0  0  0  0  0  0
   58.1680   32.9130   44.7660 N   0  0  1  0  0  0  0  0  0  0  0  0
   58.8620   34.2010   44.5080 C   0  0  0  0  0  0  0  0  0  0  0  0
   59.5770   34.4860   45.8520 C   0  0  0  0  0  0  0  0  0  0  0  0
   59.1940   33.3200   46.6900 N   0  0  1  0  0  0  0  0  0  0  0  0
   60.0500   33.0660   47.8790 C   0  0  0  0  0  0  0  0  0  0  0  0
   60.9880   34.2310   48.2940 C   0  0  0  0  0  0  0  0  0  0  0  0
   62.2500   33.7740   48.9910 C   0  0  0  0  0  0  0  0  0  0  0  0
   63.0510   32.7740   48.4300 C   0  0  0  0  0  0  0  0  0  0  0  0
   64.2190   32.3590   49.0690 C   0  0  0  0  0  0  0  0  0  0  0  0
   64.6160   32.9040   50.3160 C   0  0  0  0  0  0  0  0  0  0  0  0
   63.8010   33.9330   50.8700 C   0  0  0  0  0  0  0  0  0  0  0  0
   62.6140   34.3180   50.2290 C   0  0  0  0  0  0  0  0  0  0  0  0
   64.1360   34.5940   52.1790 C   0  0  0  0  0  0  0  0  0  0  0  0
   65.6100   34.4500   52.5120 C   0  0  0  0  0  0  0  0  0  0  0  0
   66.0240   32.9870   52.3450 C   0  0  0  0  0  0  0  0  0  0  0  0
   65.8860   32.4960   50.9400 N   0  0  0  0  0  0  0  0  0  0  0  0
   67.0110   33.0110   50.1190 C   0  0  0  0  0  0  0  0  0  0  0  0
   65.9800   31.0120   50.9950 C   0  0  0  0  0  0  0  0  0  0  0  0
   57.7560   33.4700   47.0330 C   0  0  0  0  0  0  0  0  0  0  0  0
   57.0430   33.1860   45.6940 C   0  0  0  0  0  0  0  0  0  0  0  0
   59.1070   32.2760   45.6790 C   0  0  0  0  0  0  0  0  0  0  0  0
   56.9507   30.6973   44.9669 H   0  0  0  0  0  0  0  0  0  0  0  0
   56.0137   30.8650   43.4435 H   0  0  0  0  0  0  0  0  0  0  0  0
   57.5775   29.9810   43.4435 H   0  0  0  0  0  0  0  0  0  0  0  0
   58.6708   31.8909   42.9936 H   0  0  0  0  0  0  0  0  0  0  0  0
   57.0604   32.7685   43.0049 H   0  0  0  0  0  0  0  0  0  0  0  0
   58.1420   34.9968   44.2666 H   0  0  0  0  0  0  0  0  0  0  0  0
   59.5503   34.1588   43.6510 H   0  0  0  0  0  0  0  0  0  0  0  0
   59.2208   35.4266   46.2973 H   0  0  0  0  0  0  0  0  0  0  0  0
   60.6655   34.6044   45.7466 H   0  0  0  0  0  0  0  0  0  0  0  0
   59.3892   32.8445   48.7301 H   0  0  0  0  0  0  0  0  0  0  0  0
   60.7119   32.2330   47.5997 H   0  0  0  0  0  0  0  0  0  0  0  0
   61.2728   34.7874   47.3888 H   0  0  0  0  0  0  0  0  0  0  0  0
   60.4315   34.8534   49.0102 H   0  0  0  0  0  0  0  0  0  0  0  0
   62.7571   32.3109   47.4765 H   0  0  0  0  0  0  0  0  0  0  0  0
   64.8470   31.5907   48.5943 H   0  0  0  0  0  0  0  0  0  0  0  0
   61.9578   35.0601   50.7072 H   0  0  0  0  0  0  0  0  0  0  0  0
   63.8868   35.6634   52.1138 H   0  0  0  0  0  0  0  0  0  0  0  0
   63.5527   34.1045   52.9728 H   0  0  0  0  0  0  0  0  0  0  0  0
   66.2036   35.0799   51.8331 H   0  0  0  0  0  0  0  0  0  0  0  0
   65.7865   34.7673   53.5504 H   0  0  0  0  0  0  0  0  0  0  0  0
   67.0757   32.8836   52.6504 H   0  0  0  0  0  0  0  0  0  0  0  0
   65.3521   32.3821   52.9716 H   0  0  0  0  0  0  0  0  0  0  0  0
   67.8102   33.3768   50.7804 H   0  0  0  0  0  0  0  0  0  0  0  0
   67.4020   32.2022   49.4842 H   0  0  0  0  0  0  0  0  0  0  0  0
   66.6543   33.8355   49.4842 H   0  0  0  0  0  0  0  0  0  0  0  0
   66.0007   30.6846   52.0449 H   0  0  0  0  0  0  0  0  0  0  0  0
   65.1080   30.5704   50.4904 H   0  0  0  0  0  0  0  0  0  0  0  0
   66.9007   30.6840   50.4904 H   0  0  0  0  0  0  0  0  0  0  0  0
   57.5391   34.4886   47.3872 H   0  0  0  0  0  0  0  0  0  0  0  0
   57.4337   32.8004   47.8440 H   0  0  0  0  0  0  0  0  0  0  0  0
   56.4611   34.0590   45.3634 H   0  0  0  0  0  0  0  0  0  0  0  0
   56.3216   32.3578   45.7550 H   0  0  0  0  0  0  0  0  0  0  0  0
   60.0791   32.0836   45.2014 H   0  0  0  0  0  0  0  0  0  0  0  0
   58.8049   31.2854   46.0498 H   0  0  0  0  0  0  0  0  0  0  0  0
  1  2  1  0
  3  2  1  6
  3  4  1  0
  4  5  1  0
  5  6  1  0
  6  7  1  1
  7  8  1  0
  8  9  1  0
  9 10  2  0
 10 11  1  0
 11 12  2  0
 12 13  1  0
 13 14  2  0
 13 15  1  0
 15 16  1  0
 16 17  1  0
 17 18  1  0
 18 19  1  0
 18 20  1  0
  6 21  1  0
 21 22  1  0
  6 23  1  0
 22  3  1  0
 23  3  1  0
 14  9  1  0
 18 12  1  0
  1 24  1  0
  1 25  1  0
  1 26  1  0
  2 27  1  0
  2 28  1  0
  4 29  1  0
  4 30  1  0
  5 31  1  0
  5 32  1  0
  7 33  1  0
  7 34  1  0
  8 35  1  0
  8 36  1  0
 10 37  1  0
 11 38  1  0
 14 39  1  0
 15 40  1  0
 15 41  1  0
 16 42  1  0
 16 43  1  0
 17 44  1  0
 17 45  1  0
 19 46  1  0
 19 47  1  0
 19 48  1  0
 20 49  1  0
 20 50  1  0
 20 51  1  0
 21 52  1  0
 21 53  1  0
 22 54  1  0
 22 55  1  0
 23 56  1  0
 23 57  1  0
M  CHG  3   3   1   6   1  18   1
M  END
>  <UniqueID>  (9) 
9

>  <SMILES>  (9) 
CC[N+]12CC[N+](CCc3ccc4c(c3)CCC[N+]4(C)C)(CC1)C2

>  <Energy>  (9) 
118.14293472395495

>  <Genealogy>  (9) 
CC[N+]12CC[N+](CCc3ccc4c(c3)CCC[N+]4(C)C)(CC1)C2 (3D coordinates assigned)
CC[N+]12CC[N+](CCc3ccc4c(c3)CCC[N+]4(C)C)(CC1)C2 (nonaromatic ring conformer: 118.14293472395495 kcal/mol)

>  <smiles>  (9) 
CC[N+]12CC[N+](CCc3ccc4c(c3)CCC[N+]4(C)C)(CC1)C2

>  <score_type>  (9) 
oracle

>  <origin>  (9) 
adg

>  <m_score__min__energy>  (9) 
-3.21

>  <m_primary>  (9) 
energy

$$$$
9:0
     RDKit          3D

 37 38  0  0  0  0  0  0  0  0999 V2000
   63.7430   32.9870   46.8380 C   0  0  0  0  0  0  0  0  0  0  0  0
   63.0420   32.6110   48.1440 C   0  0  0  0  0  0  0  0  0  0  0  0
   61.9490   31.5560   47.9370 C   0  0  0  0  0  0  0  0  0  0  0  0
   60.8380   32.0690   47.0660 C   0  0  0  0  0  0  0  0  0  0  0  0
   60.7070   33.4060   46.8640 N   0  0  0  0  0  0  0  0  0  0  0  0
   59.7320   33.9060   46.0630 C   0  0  0  0  0  0  0  0  0  0  0  0
   59.6350   35.3810   45.8380 C   0  0  0  0  0  0  0  0  0  0  0  0
   58.8560   33.0310   45.4150 C   0  0  0  0  0  0  0  0  0  0  0  0
   58.9940   31.6540   45.6270 C   0  0  0  0  0  0  0  0  0  0  0  0
   58.1250   30.7200   44.9570 N   0  0  0  0  0  0  0  0  0  0  0  0
   56.9350   31.2050   44.2480 C   0  0  0  0  0  0  0  0  0  0  0  0
   55.9530   30.0520   43.9880 C   0  0  0  0  0  0  0  0  0  0  0  0
   55.9010   29.1510   45.1480 N   0  0  0  0  0  0  0  0  0  0  0  0
   57.1890   28.4730   45.3960 C   0  0  0  0  0  0  0  0  0  0  0  0
   58.4190   29.2830   44.9380 C   0  0  0  0  0  0  0  0  0  0  0  0
   59.9910   31.2020   46.4440 N   0  0  0  0  0  0  0  0  0  0  0  0
   64.6916   33.4958   47.0643 H   0  0  0  0  0  0  0  0  0  0  0  0
   63.9453   32.0763   46.2551 H   0  0  0  0  0  0  0  0  0  0  0  0
   63.0963   33.6593   46.2551 H   0  0  0  0  0  0  0  0  0  0  0  0
   63.7903   32.2119   48.8445 H   0  0  0  0  0  0  0  0  0  0  0  0
   62.5624   33.5179   48.5408 H   0  0  0  0  0  0  0  0  0  0  0  0
   62.3946   30.6700   47.4612 H   0  0  0  0  0  0  0  0  0  0  0  0
   61.5250   31.3047   48.9204 H   0  0  0  0  0  0  0  0  0  0  0  0
   59.6010   35.8984   46.8081 H   0  0  0  0  0  0  0  0  0  0  0  0
   60.5125   35.7238   45.2702 H   0  0  0  0  0  0  0  0  0  0  0  0
   58.7201   35.6059   45.2702 H   0  0  0  0  0  0  0  0  0  0  0  0
   58.0706   33.4179   44.7491 H   0  0  0  0  0  0  0  0  0  0  0  0
   56.4377   31.9725   44.8593 H   0  0  0  0  0  0  0  0  0  0  0  0
   57.2462   31.6303   43.2825 H   0  0  0  0  0  0  0  0  0  0  0  0
   54.9500   30.4647   43.8046 H   0  0  0  0  0  0  0  0  0  0  0  0
   56.2946   29.4838   43.1103 H   0  0  0  0  0  0  0  0  0  0  0  0
   55.6470   29.7150   45.9940 H   0  0  0  0  0  0  0  0  0  0  0  0
   57.2798   28.2861   46.4762 H   0  0  0  0  0  0  0  0  0  0  0  0
   57.1802   27.5444   44.8064 H   0  0  0  0  0  0  0  0  0  0  0  0
   59.2607   29.0769   45.6155 H   0  0  0  0  0  0  0  0  0  0  0  0
   58.6772   28.9866   43.9106 H   0  0  0  0  0  0  0  0  0  0  0  0
   60.1030   30.1760   46.6070 H   0  0  0  0  0  0  0  0  0  0  0  0
  1  2  1  0
  2  3  1  0
  3  4  1  0
  4  5  2  0
  5  6  1  0
  6  7  1  0
  6  8  2  0
  8  9  1  0
  9 10  1  0
 10 11  1  0
 11 12  1  0
 12 13  1  0
 13 14  1  0
 14 15  1  0
  9 16  2  0
 16  4  1  0
 15 10  1  0
  1 17  1  0
  1 18  1  0
  1 19  1  0
  2 20  1  0
  2 21  1  0
  3 22  1  0
  3 23  1  0
  7 24  1  0
  7 25  1  0
  7 26  1  0
  8 27  1  0
 11 28  1  0
 11 29  1  0
 12 30  1  0
 12 31  1  0
 13 32  1  0
 14 33  1  0
 14 34  1  0
 15 35  1  0
 15 36  1  0
 16 37  1  0
M  CHG  1  16   1
M  END
>  <UniqueID>  (10) 
10

>  <SMILES>  (10) 
CCCc1nc(C)cc(N2CCNCC2)[nH+]1

>  <Energy>  (10) 
36.98476944802919

>  <Genealogy>  (10) 
CCCc1nc(C)cc(N2CCNCC2)[nH+]1 (protonated)
CCCc1nc(C)cc(N2CCNCC2)[nH+]1 (3D coordinates assigned)
CCCc1nc(C)cc(N2CCNCC2)[nH+]1 (nonaromatic ring conformer: 36.98476944802919 kcal/mol)

>  <smiles>  (10) 
CCCc1nc(C)cc(N2CCNCC2)n1

>  <score_type>  (10) 
oracle

>  <origin>  (10) 
adg

>  <m_score__min__energy>  (10) 
-4.9400000000000004

>  <m_primary>  (10) 
energy

$$$$
10:0
     RDKit          3D

 50 52  0  0  0  0  0  0  0  0999 V2000
   58.7940   34.5620   45.8470 C   0  0  0  0  0  0  0  0  0  0  0  0
   57.5060   33.7830   45.5880 C   0  0  0  0  0  0  0  0  0  0  0  0
   57.7430   32.5600   44.6910 C   0  0  0  0  0  0  0  0  0  0  0  0
   57.3150   31.3230   45.3630 N   0  0  0  0  0  0  0  0  0  0  0  0
   58.3360   30.2630   45.3060 C   0  0  0  0  0  0  0  0  0  0  0  0
   59.1710   30.1920   46.5960 C   0  0  0  0  0  0  0  0  0  0  0  0
   59.1510   31.4770   47.2940 N   0  0  0  0  0  0  0  0  0  0  0  0
   60.0860   31.7780   48.3440 C   0  0  0  0  0  0  0  0  0  0  0  0
   61.2940   32.4340   48.0540 C   0  0  0  0  0  0  0  0  0  0  0  0
   61.5560   32.9290   46.7590 C   0  0  0  0  0  0  0  0  0  0  0  0
   62.7370   33.6120   46.4840 C   0  0  0  0  0  0  0  0  0  0  0  0
   63.6650   33.8340   47.4950 C   0  0  0  0  0  0  0  0  0  0  0  0
   63.4230   33.3630   48.7850 C   0  0  0  0  0  0  0  0  0  0  0  0
   62.2470   32.6310   49.0900 C   0  0  0  0  0  0  0  0  0  0  0  0
   62.0060   32.1340   50.3580 N   0  0  0  0  0  0  0  0  0  0  0  0
   63.1000   32.0780   51.3520 C   0  0  0  0  0  0  0  0  0  0  0  0
   60.7450   31.6740   50.6900 C   0  0  0  0  0  0  0  0  0  0  0  0
   60.3740   31.4140   52.0320 C   0  0  0  0  0  0  0  0  0  0  0  0
   59.1180   30.8970   52.3490 C   0  0  0  0  0  0  0  0  0  0  0  0
   58.1830   30.6380   51.3390 C   0  0  0  0  0  0  0  0  0  0  0  0
   56.9120   30.1060   51.6080 O   0  0  0  0  0  0  0  0  0  0  0  0
   55.8410   30.8380   52.1950 C   0  0  0  0  0  0  0  0  0  0  0  0
   58.5150   30.9240   50.0140 C   0  0  0  0  0  0  0  0  0  0  0  0
   59.7750   31.4590   49.6760 C   0  0  0  0  0  0  0  0  0  0  0  0
   58.9527   34.6580   46.9312 H   0  0  0  0  0  0  0  0  0  0  0  0
   59.6433   34.0260   45.3981 H   0  0  0  0  0  0  0  0  0  0  0  0
   58.7136   35.5630   45.3981 H   0  0  0  0  0  0  0  0  0  0  0  0
   57.0970   33.4431   46.5509 H   0  0  0  0  0  0  0  0  0  0  0  0
   56.8029   34.4522   45.0705 H   0  0  0  0  0  0  0  0  0  0  0  0
   57.1700   32.6803   43.7598 H   0  0  0  0  0  0  0  0  0  0  0  0
   58.8190   32.4872   44.4744 H   0  0  0  0  0  0  0  0  0  0  0  0
   57.0830   31.5370   46.3610 H   0  0  0  0  0  0  0  0  0  0  0  0
   57.8346   29.2957   45.1546 H   0  0  0  0  0  0  0  0  0  0  0  0
   59.0177   30.4944   44.4743 H   0  0  0  0  0  0  0  0  0  0  0  0
   58.7533   29.4164   47.2547 H   0  0  0  0  0  0  0  0  0  0  0  0
   60.2107   29.9481   46.3323 H   0  0  0  0  0  0  0  0  0  0  0  0
   58.4080   32.1740   47.0620 H   0  0  0  0  0  0  0  0  0  0  0  0
   60.8186   32.7733   45.9578 H   0  0  0  0  0  0  0  0  0  0  0  0
   62.9364   33.9766   45.4655 H   0  0  0  0  0  0  0  0  0  0  0  0
   64.5930   34.3828   47.2767 H   0  0  0  0  0  0  0  0  0  0  0  0
   64.1568   33.5626   49.5798 H   0  0  0  0  0  0  0  0  0  0  0  0
   62.6752   32.0997   52.3664 H   0  0  0  0  0  0  0  0  0  0  0  0
   63.6733   31.1493   51.2144 H   0  0  0  0  0  0  0  0  0  0  0  0
   63.7651   32.9433   51.2144 H   0  0  0  0  0  0  0  0  0  0  0  0
   61.0904   31.6239   52.8399 H   0  0  0  0  0  0  0  0  0  0  0  0
   58.8603   30.6915   53.3984 H   0  0  0  0  0  0  0  0  0  0  0  0
   55.9182   30.7852   53.2910 H   0  0  0  0  0  0  0  0  0  0  0  0
   55.8955   31.8886   51.8737 H   0  0  0  0  0  0  0  0  0  0  0  0
   54.8819   30.4056   51.8737 H   0  0  0  0  0  0  0  0  0  0  0  0
   57.7804   30.7285   49.2189 H   0  0  0  0  0  0  0  0  0  0  0  0
  1  2  1  0
  2  3  1  0
  3  4  1  0
  4  5  1  0
  5  6  1  0
  6  7  1  0
  7  8  1  0
  8  9  2  0
  9 10  1  0
 10 11  2  0
 11 12  1  0
 12 13  2  0
 13 14  1  0
 14 15  2  0
 15 16  1  0
 15 17  1  0
 17 18  2  0
 18 19  1  0
 19 20  2  0
 20 21  1  0
 21 22  1  0
 20 23  1  0
 23 24  2  0
 24  8  1  0
 14  9  1  0
 24 17  1  0
  1 25  1  0
  1 26  1  0
  1 27  1  0
  2 28  1  0
  2 29  1  0
  3 30  1  0
  3 31  1  0
  4 32  1  0
  5 33  1  0
  5 34  1  0
  6 35  1  0
  6 36  1  0
  7 37  1  0
 10 38  1  0
 11 39  1  0
 12 40  1  0
 13 41  1  0
 16 42  1  0
 16 43  1  0
 16 44  1  0
 18 45  1  0
 19 46  1  0
 22 47  1  0
 22 48  1  0
 22 49  1  0
 23 50  1  0
M  CHG  1  15   1
M  END
>  <UniqueID>  (11) 
11

>  <SMILES>  (11) 
CCCNCCNc1c2ccccc2[n+](C)c2ccc(OC)cc12

>  <Energy>  (11) 
71.57901531711975

>  <Genealogy>  (11) 
CCCNCCNc1c2ccccc2[n+](C)c2ccc(OC)cc12 (3D coordinates assigned)
CCCNCCNc1c2ccccc2[n+](C)c2ccc(OC)cc12 (optimized conformer: 71.57901531711975 kcal/mol)

>  <smiles>  (11) 
CCCNCCNc1c2ccccc2[n+](C)c2ccc(OC)cc12

>  <score_type>  (11) 
oracle

>  <origin>  (11) 
adg

>  <m_score__min__energy>  (11) 
-5.8200000000000003

>  <m_primary>  (11) 
energy

$$$$
11:0
     RDKit          3D

 44 46  0  0  0  0  0  0  0  0999 V2000
   58.4180   31.3050   51.1900 C   0  0  0  0  0  0  0  0  0  0  0  0
   59.4520   30.7970   50.1940 C   0  0  0  0  0  0  0  0  0  0  0  0
   59.1870   31.3410   48.8230 C   0  0  0  0  0  0  0  0  0  0  0  0
   58.5580   30.6460   47.8750 O   0  0  0  0  0  0  0  0  0  0  0  0
   58.5000   31.4470   46.8440 C   0  0  0  0  0  0  0  0  0  0  0  0
   58.0900   31.4160   45.5400 C   0  0  0  0  0  0  0  0  0  0  0  0
   57.4950   30.4320   44.7590 C   0  0  0  0  0  0  0  0  0  0  0  0
   57.2800   30.7300   43.4010 C   0  0  0  0  0  0  0  0  0  0  0  0
   57.6780   31.9760   42.8630 C   0  0  0  0  0  0  0  0  0  0  0  0
   57.4040   32.3410   41.0110 Br  0  0  0  0  0  0  0  0  0  0  0  0
   58.2910   32.9520   43.6790 C   0  0  0  0  0  0  0  0  0  0  0  0
   58.4790   32.6530   45.0310 C   0  0  0  0  0  0  0  0  0  0  0  0
   59.0770   33.4270   45.9870 N   0  0  0  0  0  0  0  0  0  0  0  0
   59.7480   34.7120   45.8200 C   0  0  0  0  0  0  0  0  0  0  0  0
   59.0590   32.6260   47.0740 C   0  0  0  0  0  0  0  0  0  0  0  0
   59.5570   32.6200   48.3530 C   0  0  0  0  0  0  0  0  0  0  0  0
   60.2660   33.6850   49.0670 C   0  0  0  0  0  0  0  0  0  0  0  0
   59.6130   34.6630   49.5210 O   0  0  0  0  0  0  0  0  0  0  0  0
   61.6900   33.6300   49.2380 N   0  0  0  0  0  0  0  0  0  0  0  0
   62.2580   33.6930   50.5910 C   0  0  0  0  0  0  0  0  0  0  0  0
   63.7820   33.7670   50.5440 C   0  0  0  0  0  0  0  0  0  0  0  0
   62.5630   33.8200   48.0710 C   0  0  0  0  0  0  0  0  0  0  0  0
   62.9750   32.4810   47.4680 C   0  0  0  0  0  0  0  0  0  0  0  0
   58.7778   31.1282   52.2143 H   0  0  0  0  0  0  0  0  0  0  0  0
   58.2607   32.3830   51.0375 H   0  0  0  0  0  0  0  0  0  0  0  0
   57.4686   30.7707   51.0375 H   0  0  0  0  0  0  0  0  0  0  0  0
   60.4531   31.1153   50.5204 H   0  0  0  0  0  0  0  0  0  0  0  0
   59.3916   29.6994   50.1541 H   0  0  0  0  0  0  0  0  0  0  0  0
   57.2043   29.4605   45.1852 H   0  0  0  0  0  0  0  0  0  0  0  0
   56.7971   29.9859   42.7506 H   0  0  0  0  0  0  0  0  0  0  0  0
   58.6109   33.9187   43.2628 H   0  0  0  0  0  0  0  0  0  0  0  0
   59.9715   35.1401   46.8083 H   0  0  0  0  0  0  0  0  0  0  0  0
   60.6853   34.5666   45.2629 H   0  0  0  0  0  0  0  0  0  0  0  0
   59.0930   35.3980   45.2629 H   0  0  0  0  0  0  0  0  0  0  0  0
   61.8705   34.5866   51.1021 H   0  0  0  0  0  0  0  0  0  0  0  0
   61.9689   32.7812   51.1342 H   0  0  0  0  0  0  0  0  0  0  0  0
   64.1800   33.7863   51.5693 H   0  0  0  0  0  0  0  0  0  0  0  0
   64.1757   32.8869   50.0144 H   0  0  0  0  0  0  0  0  0  0  0  0
   64.0886   34.6811   50.0144 H   0  0  0  0  0  0  0  0  0  0  0  0
   62.0244   34.4054   47.3112 H   0  0  0  0  0  0  0  0  0  0  0  0
   63.4703   34.3498   48.3967 H   0  0  0  0  0  0  0  0  0  0  0  0
   63.1946   31.7672   48.2756 H   0  0  0  0  0  0  0  0  0  0  0  0
   62.1553   32.0909   46.8467 H   0  0  0  0  0  0  0  0  0  0  0  0
   63.8722   32.6192   46.8467 H   0  0  0  0  0  0  0  0  0  0  0  0
  1  2  1  0
  2  3  1  0
  3  4  1  0
  4  5  1  0
  5  6  1  0
  6  7  2  0
  7  8  1  0
  8  9  2  0
  9 10  1  0
  9 11  1  0
 11 12  2  0
 12 13  1  0
 13 14  1  0
 13 15  1  0
 15 16  1  0
 16 17  1  0
 17 18  2  0
 17 19  1  0
 19 20  1  0
 20 21  1  0
 19 22  1  0
 22 23  1  0
 16  3  2  0
 15  5  2  0
 12  6  1  0
  1 24  1  0
  1 25  1  0
  1 26  1  0
  2 27  1  0
  2 28  1  0
  7 29  1  0
  8 30  1  0
 11 31  1  0
 14 32  1  0
 14 33  1  0
 14 34  1  0
 20 35  1  0
 20 36  1  0
 21 37  1  0
 21 38  1  0
 21 39  1  0
 22 40  1  0
 22 41  1  0
 23 42  1  0
 23 43  1  0
 23 44  1  0
M  END
>  <UniqueID>  (12) 
12

>  <SMILES>  (12) 
CCc1oc2c3ccc(Br)cc3n(C)c2c1C(=O)N(CC)CC

>  <Energy>  (12) 
138.30121564750502

>  <Genealogy>  (12) 
CCc1oc2c3ccc(Br)cc3n(C)c2c1C(=O)N(CC)CC (3D coordinates assigned)
CCc1oc2c3ccc(Br)cc3n(C)c2c1C(=O)N(CC)CC (optimized conformer: 138.30121564750502 kcal/mol)

>  <smiles>  (12) 
CCc1oc2c3ccc(Br)cc3n(C)c2c1C(=O)N(CC)CC

>  <score_type>  (12) 
oracle

>  <origin>  (12) 
adg

>  <m_score__min__energy>  (12) 
-7.4400000000000004

>  <m_primary>  (12) 
energy

$$$$
12:0
     RDKit          3D

 47 50  0  0  0  0  0  0  0  0999 V2000
   58.4000   32.0780   50.3440 C   0  0  0  0  0  0  0  0  0  0  0  0
   57.9540   31.0360   51.3640 C   0  0  0  0  0  0  0  0  0  0  0  0
   58.1560   29.7310   50.8550 O   0  0  0  0  0  0  0  0  0  0  0  0
   58.6940   29.7870   49.5500 C   0  0  0  0  0  0  0  0  0  0  0  0
   60.1170   29.2360   49.5710 C   0  0  0  0  0  0  0  0  0  0  0  0
   60.7470   29.3550   48.2560 N   0  0  0  0  0  0  0  0  0  0  0  0
   60.2000   30.2280   47.2540 C   0  0  0  0  0  0  0  0  0  0  0  0
   60.6640   31.5540   47.1870 C   0  0  0  0  0  0  0  0  0  0  0  0
   61.8320   31.9450   47.8790 C   0  0  0  0  0  0  0  0  0  0  0  0
   62.3010   33.2530   47.8040 C   0  0  0  0  0  0  0  0  0  0  0  0
   61.6180   34.1950   47.0440 C   0  0  0  0  0  0  0  0  0  0  0  0
   60.4530   33.8360   46.3660 C   0  0  0  0  0  0  0  0  0  0  0  0
   59.9450   32.5130   46.4310 C   0  0  0  0  0  0  0  0  0  0  0  0
   58.7620   32.1580   45.8150 N   0  0  0  0  0  0  0  0  0  0  0  0
   57.9610   33.1880   45.1140 C   0  0  0  0  0  0  0  0  0  0  0  0
   58.3260   30.8500   45.8390 C   0  0  0  0  0  0  0  0  0  0  0  0
   57.1280   30.5280   45.2790 N   0  0  0  0  0  0  0  0  0  0  0  0
   56.6270   29.2740   45.2490 C   0  0  0  0  0  0  0  0  0  0  0  0
   55.4880   29.0820   44.7440 O   0  0  0  0  0  0  0  0  0  0  0  0
   57.3880   28.2080   45.7440 C   0  0  0  0  0  0  0  0  0  0  0  0
   56.9130   26.8840   45.6550 C   0  0  0  0  0  0  0  0  0  0  0  0
   57.7200   25.8190   46.0410 C   0  0  0  0  0  0  0  0  0  0  0  0
   59.0200   26.0550   46.4780 C   0  0  0  0  0  0  0  0  0  0  0  0
   59.5000   27.3610   46.5830 C   0  0  0  0  0  0  0  0  0  0  0  0
   58.6700   28.4710   46.2960 C   0  0  0  0  0  0  0  0  0  0  0  0
   59.0930   29.8310   46.4620 C   0  0  0  0  0  0  0  0  0  0  0  0
   58.7802   32.9663   50.8696 H   0  0  0  0  0  0  0  0  0  0  0  0
   59.1964   31.6563   49.7133 H   0  0  0  0  0  0  0  0  0  0  0  0
   57.5451   32.3631   49.7133 H   0  0  0  0  0  0  0  0  0  0  0  0
   58.5383   31.1594   52.2878 H   0  0  0  0  0  0  0  0  0  0  0  0
   56.8832   31.1762   51.5732 H   0  0  0  0  0  0  0  0  0  0  0  0
   58.0752   29.1826   48.8705 H   0  0  0  0  0  0  0  0  0  0  0  0
   58.7060   30.8295   49.1991 H   0  0  0  0  0  0  0  0  0  0  0  0
   60.7100   29.8002   50.3059 H   0  0  0  0  0  0  0  0  0  0  0  0
   60.0755   28.1711   49.8436 H   0  0  0  0  0  0  0  0  0  0  0  0
   61.7500   29.0750   48.1700 H   0  0  0  0  0  0  0  0  0  0  0  0
   62.3775   31.2063   48.4846 H   0  0  0  0  0  0  0  0  0  0  0  0
   63.2132   33.5416   48.3468 H   0  0  0  0  0  0  0  0  0  0  0  0
   61.9968   35.2255   46.9770 H   0  0  0  0  0  0  0  0  0  0  0  0
   59.9191   34.5915   45.7709 H   0  0  0  0  0  0  0  0  0  0  0  0
   57.4614   33.8304   45.8541 H   0  0  0  0  0  0  0  0  0  0  0  0
   58.6224   33.8006   44.4837 H   0  0  0  0  0  0  0  0  0  0  0  0
   57.2044   32.6979   44.4837 H   0  0  0  0  0  0  0  0  0  0  0  0
   55.8977   26.6918   45.2779 H   0  0  0  0  0  0  0  0  0  0  0  0
   57.3309   24.7909   46.0009 H   0  0  0  0  0  0  0  0  0  0  0  0
   59.6716   25.2089   46.7416 H   0  0  0  0  0  0  0  0  0  0  0  0
   60.5413   27.5308   46.8942 H   0  0  0  0  0  0  0  0  0  0  0  0
  1  2  1  0
  2  3  1  0
  3  4  1  0
  4  5  1  0
  5  6  1  0
  6  7  1  0
  7  8  2  0
  8  9  1  0
  9 10  2  0
 10 11  1  0
 11 12  2  0
 12 13  1  0
 13 14  2  0
 14 15  1  0
 14 16  1  0
 16 17  1  0
 17 18  1  0
 18 19  2  0
 18 20  1  0
 20 21  2  0
 21 22  1  0
 22 23  2  0
 23 24  1  0
 24 25  2  0
 25 26  1  0
 26  7  1  0
 13  8  1  0
 26 16  2  0
 25 20  1  0
  1 27  1  0
  1 28  1  0
  1 29  1  0
  2 30  1  0
  2 31  1  0
  4 32  1  0
  4 33  1  0
  5 34  1  0
  5 35  1  0
  6 36  1  0
  9 37  1  0
 10 38  1  0
 11 39  1  0
 12 40  1  0
 15 41  1  0
 15 42  1  0
 15 43  1  0
 21 44  1  0
 22 45  1  0
 23 46  1  0
 24 47  1  0
M  CHG  2  14   1  17  -1
M  END
>  <UniqueID>  (13) 
13

>  <SMILES>  (13) 
CCOCCNc1c2ccccc2[n+](C)c2[n-]c(=O)c3ccccc3c12

>  <Energy>  (13) 
85.40997738060055

>  <Genealogy>  (13) 
CCOCCNc1c2ccccc2[n+](C)c2[n-]c(=O)c3ccccc3c12 (protonated)
CCOCCNc1c2ccccc2[n+](C)c2[n-]c(=O)c3ccccc3c12 (3D coordinates assigned)
CCOCCNc1c2ccccc2[n+](C)c2[n-]c(=O)c3ccccc3c12 (optimized conformer: 85.40997738060055 kcal/mol)

>  <smiles>  (13) 
CCOCCNc1c2ccccc2[n+](C)c2[nH]c(=O)c3ccccc3c12

>  <score_type>  (13) 
oracle

>  <origin>  (13) 
adg

>  <m_score__min__energy>  (13) 
-7.7400000000000002

>  <m_primary>  (13) 
energy

$$$$
13:0
     RDKit          3D

 58 61  0  0  0  0  0  0  0  0999 V2000
   57.6580   31.7670   43.1320 C   0  0  0  0  0  0  0  0  0  0  0  0
   56.9650   31.7960   44.4910 C   0  0  0  0  0  0  0  0  0  0  0  0
   56.4340   30.4650   44.8240 N   0  0  0  0  0  0  0  0  0  0  0  0
   56.2950   29.5930   43.6440 C   0  0  0  0  0  0  0  0  0  0  0  0
   57.4090   28.5360   43.5470 C   0  0  0  0  0  0  0  0  0  0  0  0
   58.1160   28.4370   44.7690 O   0  0  0  0  0  0  0  0  0  0  0  0
   59.4980   28.2560   44.5340 C   0  0  0  0  0  0  0  0  0  0  0  0
   60.2850   29.2960   45.3290 C   0  0  0  0  0  0  0  0  0  0  0  0
   59.3860   30.1840   46.0660 N   0  0  0  0  0  0  0  0  0  0  0  0
   59.8850   31.0170   47.1220 C   0  0  0  0  0  0  0  0  0  0  0  0
   60.4540   30.4390   48.2660 C   0  0  0  0  0  0  0  0  0  0  0  0
   60.9920   31.2680   49.2690 C   0  0  0  0  0  0  0  0  0  0  0  0
   60.7350   32.6260   49.2530 N   0  0  0  0  0  0  0  0  0  0  0  0
   60.8660   33.4260   50.4880 C   0  0  0  0  0  0  0  0  0  0  0  0
   60.2420   33.2190   48.1070 C   0  0  0  0  0  0  0  0  0  0  0  0
   60.1620   34.6280   47.9740 C   0  0  0  0  0  0  0  0  0  0  0  0
   59.6480   35.2130   46.8160 C   0  0  0  0  0  0  0  0  0  0  0  0
   59.2100   34.4150   45.7640 C   0  0  0  0  0  0  0  0  0  0  0  0
   59.2880   33.0280   45.8590 C   0  0  0  0  0  0  0  0  0  0  0  0
   59.8050   32.4160   47.0200 C   0  0  0  0  0  0  0  0  0  0  0  0
   61.7910   30.5920   50.3430 C   0  0  0  0  0  0  0  0  0  0  0  0
   62.9130   31.2140   50.9190 C   0  0  0  0  0  0  0  0  0  0  0  0
   63.6500   30.5470   51.8950 C   0  0  0  0  0  0  0  0  0  0  0  0
   63.2930   29.2550   52.2680 C   0  0  0  0  0  0  0  0  0  0  0  0
   62.2250   28.6270   51.6270 C   0  0  0  0  0  0  0  0  0  0  0  0
   61.5200   29.2790   50.6520 N   0  0  0  0  0  0  0  0  0  0  0  0
   60.4600   28.5670   49.9250 C   0  0  0  0  0  0  0  0  0  0  0  0
   60.5100   28.9350   48.4390 C   0  0  0  0  0  0  0  0  0  0  0  0
   58.7475   31.7214   43.2769 H   0  0  0  0  0  0  0  0  0  0  0  0
   57.3255   30.8820   42.5697 H   0  0  0  0  0  0  0  0  0  0  0  0
   57.4006   32.6767   42.5697 H   0  0  0  0  0  0  0  0  0  0  0  0
   57.6893   32.1003   45.2609 H   0  0  0  0  0  0  0  0  0  0  0  0
   56.1318   32.5131   44.4516 H   0  0  0  0  0  0  0  0  0  0  0  0
   57.0600   30.0130   45.5310 H   0  0  0  0  0  0  0  0  0  0  0  0
   55.3253   29.0769   43.7011 H   0  0  0  0  0  0  0  0  0  0  0  0
   56.3666   30.2314   42.7511 H   0  0  0  0  0  0  0  0  0  0  0  0
   56.9604   27.5600   43.3099 H   0  0  0  0  0  0  0  0  0  0  0  0
   58.1122   28.8366   42.7563 H   0  0  0  0  0  0  0  0  0  0  0  0
   59.7960   27.2465   44.8534 H   0  0  0  0  0  0  0  0  0  0  0  0
   59.7084   28.3755   43.4609 H   0  0  0  0  0  0  0  0  0  0  0  0
   60.9447   28.7798   46.0420 H   0  0  0  0  0  0  0  0  0  0  0  0
   60.8756   29.9011   44.6254 H   0  0  0  0  0  0  0  0  0  0  0  0
   58.4100   30.3470   45.7280 H   0  0  0  0  0  0  0  0  0  0  0  0
   60.7584   32.7690   51.3636 H   0  0  0  0  0  0  0  0  0  0  0  0
   61.8549   33.9072   50.5100 H   0  0  0  0  0  0  0  0  0  0  0  0
   60.0822   34.1975   50.5100 H   0  0  0  0  0  0  0  0  0  0  0  0
   60.5105   35.2702   48.7963 H   0  0  0  0  0  0  0  0  0  0  0  0
   59.5890   36.3084   46.7348 H   0  0  0  0  0  0  0  0  0  0  0  0
   58.8012   34.8807   44.8552 H   0  0  0  0  0  0  0  0  0  0  0  0
   58.9434   32.4040   45.0212 H   0  0  0  0  0  0  0  0  0  0  0  0
   63.2079   32.2245   50.5997 H   0  0  0  0  0  0  0  0  0  0  0  0
   64.5114   31.0401   52.3692 H   0  0  0  0  0  0  0  0  0  0  0  0
   63.8481   28.7333   53.0615 H   0  0  0  0  0  0  0  0  0  0  0  0
   61.9475   27.6002   51.9073 H   0  0  0  0  0  0  0  0  0  0  0  0
   60.6057   27.4825   50.0374 H   0  0  0  0  0  0  0  0  0  0  0  0
   59.4816   28.8552   50.3369 H   0  0  0  0  0  0  0  0  0  0  0  0
   61.4452   28.5544   48.0025 H   0  0  0  0  0  0  0  0  0  0  0  0
   59.6450   28.4845   47.9302 H   0  0  0  0  0  0  0  0  0  0  0  0
  1  2  1  0
  2  3  1  0
  3  4  1  0
  4  5  1  0
  5  6  1  0
  6  7  1  0
  7  8  1  0
  8  9  1  0
  9 10  1  0
 10 11  2  0
 11 12  1  0
 12 13  2  0
 13 14  1  0
 13 15  1  0
 15 16  2  0
 16 17  1  0
 17 18  2  0
 18 19  1  0
 19 20  2  0
 12 21  1  0
 21 22  2  0
 22 23  1  0
 23 24  2  0
 24 25  1  0
 25 26  2  0
 26 27  1  0
 27 28  1  0
 20 10  1  0
 26 21  1  0
 28 11  1  0
 20 15  1  0
  1 29  1  0
  1 30  1  0
  1 31  1  0
  2 32  1  0
  2 33  1  0
  3 34  1  0
  4 35  1  0
  4 36  1  0
  5 37  1  0
  5 38  1  0
  7 39  1  0
  7 40  1  0
  8 41  1  0
  8 42  1  0
  9 43  1  0
 14 44  1  0
 14 45  1  0
 14 46  1  0
 16 47  1  0
 17 48  1  0
 18 49  1  0
 19 50  1  0
 22 51  1  0
 23 52  1  0
 24 53  1  0
 25 54  1  0
 27 55  1  0
 27 56  1  0
 28 57  1  0
 28 58  1  0
M  CHG  2  13   1  26   1
M  END
>  <UniqueID>  (14) 
14

>  <SMILES>  (14) 
CCNCCOCCNc1c2c([n+](C)c3ccccc13)-c1cccc[n+]1CC2

>  <Energy>  (14) 
88.69028391626256

>  <Genealogy>  (14) 
CCNCCOCCNc1c2c([n+](C)c3ccccc13)-c1cccc[n+]1CC2 (3D coordinates assigned)
CCNCCOCCNc1c2c([n+](C)c3ccccc13)-c1cccc[n+]1CC2 (nonaromatic ring conformer: 88.69028391626256 kcal/mol)

>  <smiles>  (14) 
CCNCCOCCNc1c2c([n+](C)c3ccccc13)-c1cccc[n+]1CC2

>  <score_type>  (14) 
oracle

>  <origin>  (14) 
adg

>  <m_score__min__energy>  (14) 
-5.0800000000000001

>  <m_primary>  (14) 
energy

$$$$
14:0
     RDKit          3D

 35 37  0  0  0  0  0  0  0  0999 V2000
   58.5670   34.0450   46.9940 C   0  0  0  0  0  0  0  0  0  0  0  0
   58.1590   33.3520   45.7800 N   0  0  0  0  0  0  0  0  0  0  0  0
   58.5940   33.6270   44.5320 C   0  0  0  0  0  0  0  0  0  0  0  0
   58.0180   32.7090   43.6870 C   0  0  0  0  0  0  0  0  0  0  0  0
   57.2890   31.8770   44.4910 C   0  0  0  0  0  0  0  0  0  0  0  0
   57.3650   32.2890   45.7710 N   0  0  0  0  0  0  0  0  0  0  0  0
   56.4660   30.7470   43.9540 C   0  0  2  0  0  0  0  0  0  0  0  0
   56.5890   29.4920   44.7880 C   0  0  0  0  0  0  0  0  0  0  0  0
   55.5270   28.9590   45.2120 O   0  0  0  0  0  0  0  0  0  0  0  0
   57.8530   28.8450   45.0600 N   0  0  0  0  0  0  0  0  0  0  0  0
   57.9260   27.5030   45.6150 C   0  0  0  0  0  0  0  0  0  0  0  0
   59.3980   27.2570   45.9210 C   0  0  0  0  0  0  0  0  0  0  0  0
   60.1670   28.3190   45.1440 C   0  0  0  0  0  0  0  0  0  0  0  0
   59.1710   29.4410   44.8860 C   0  0  0  0  0  0  0  0  0  0  0  0
   56.8240   30.4690   42.4660 C   0  0  0  0  0  0  0  0  0  0  0  0
   57.0260   31.7150   41.6960 N   0  0  0  0  0  0  0  0  0  0  0  0
   58.1600   32.5080   42.2130 C   0  0  0  0  0  0  0  0  0  0  0  0
   58.2311   33.4744   47.8724 H   0  0  0  0  0  0  0  0  0  0  0  0
   59.6630   34.1364   47.0133 H   0  0  0  0  0  0  0  0  0  0  0  0
   58.1151   35.0477   47.0133 H   0  0  0  0  0  0  0  0  0  0  0  0
   59.2819   34.4359   44.2447 H   0  0  0  0  0  0  0  0  0  0  0  0
   55.4124   31.0581   44.0107 H   0  0  0  0  0  0  0  0  0  0  0  0
   57.3276   27.4366   46.5356 H   0  0  0  0  0  0  0  0  0  0  0  0
   57.5286   26.7540   44.9142 H   0  0  0  0  0  0  0  0  0  0  0  0
   59.5873   27.3595   46.9997 H   0  0  0  0  0  0  0  0  0  0  0  0
   59.7071   26.2414   45.6328 H   0  0  0  0  0  0  0  0  0  0  0  0
   61.0163   28.6887   45.7372 H   0  0  0  0  0  0  0  0  0  0  0  0
   60.5792   27.9178   44.2064 H   0  0  0  0  0  0  0  0  0  0  0  0
   59.3201   30.2594   45.6058 H   0  0  0  0  0  0  0  0  0  0  0  0
   59.2935   29.8697   43.8804 H   0  0  0  0  0  0  0  0  0  0  0  0
   57.7500   29.8764   42.4296 H   0  0  0  0  0  0  0  0  0  0  0  0
   55.9818   29.9257   42.0127 H   0  0  0  0  0  0  0  0  0  0  0  0
   56.1550   32.2920   41.7590 H   0  0  0  0  0  0  0  0  0  0  0  0
   59.1000   31.9749   42.0076 H   0  0  0  0  0  0  0  0  0  0  0  0
   58.1690   33.4891   41.7156 H   0  0  0  0  0  0  0  0  0  0  0  0
  1  2  1  0
  2  3  1  0
  3  4  2  0
  4  5  1  0
  5  6  2  0
  5  7  1  0
  7  8  1  0
  8  9  2  0
  8 10  1  0
 10 11  1  0
 11 12  1  0
 12 13  1  0
 13 14  1  0
  7 15  1  0
 15 16  1  0
 16 17  1  0
  6  2  1  0
 14 10  1  0
 17  4  1  0
  1 18  1  0
  1 19  1  0
  1 20  1  0
  3 21  1  0
  7 22  1  6
 11 23  1  0
 11 24  1  0
 12 25  1  0
 12 26  1  0
 13 27  1  0
 13 28  1  0
 14 29  1  0
 14 30  1  0
 15 31  1  0
 15 32  1  0
 16 33  1  0
 17 34  1  0
 17 35  1  0
M  END
>  <UniqueID>  (15) 
15

>  <SMILES>  (15) 
Cn1cc2c(n1)[C@H](C(=O)N1CCCC1)CNC2

>  <Energy>  (15) 
68.43354538484567

>  <Genealogy>  (15) 
Cn1cc2c(n1)[C@H](C(=O)N1CCCC1)CNC2 (chirality)
Cn1cc2c(n1)[C@H](C(=O)N1CCCC1)CNC2 (3D coordinates assigned)
Cn1cc2c(n1)[C@H](C(=O)N1CCCC1)CNC2 (nonaromatic ring conformer: 68.43354538484567 kcal/mol)

>  <smiles>  (15) 
Cn1cc2c(n1)C(C(=O)N1CCCC1)CNC2

>  <score_type>  (15) 
oracle

>  <origin>  (15) 
adg

>  <m_score__min__energy>  (15) 
-6.9400000000000004

>  <m_primary>  (15) 
energy

$$$$
15:0
     RDKit          3D

 53 56  0  0  0  0  0  0  0  0999 V2000
   63.2560   33.8330   46.6290 C   0  0  0  0  0  0  0  0  0  0  0  0
   63.5410   32.7080   47.6300 C   0  0  0  0  0  0  0  0  0  0  0  0
   62.7140   32.8180   48.8440 N   0  0  0  0  0  0  0  0  0  0  0  0
   61.8640   34.0180   48.8510 C   0  0  0  0  0  0  0  0  0  0  0  0
   60.4580   33.7000   49.3870 C   0  0  0  0  0  0  0  0  0  0  0  0
   60.3810   32.3970   50.2030 C   0  0  0  0  0  0  0  0  0  0  0  0
   60.0370   31.1530   49.3640 C   0  0  0  0  0  0  0  0  0  0  0  0
   60.5130   31.2970   47.9860 N   0  0  0  0  0  0  0  0  0  0  0  0
   59.6470   31.0620   46.8660 C   0  0  0  0  0  0  0  0  0  0  0  0
   59.3810   29.7610   46.4480 C   0  0  0  0  0  0  0  0  0  0  0  0
   58.4840   29.5010   45.4260 C   0  0  0  0  0  0  0  0  0  0  0  0
   57.9290   30.5080   44.6780 N   0  0  0  0  0  0  0  0  0  0  0  0
   57.2520   30.1930   43.4090 C   0  0  0  0  0  0  0  0  0  0  0  0
   58.1020   31.8170   45.1000 C   0  0  0  0  0  0  0  0  0  0  0  0
   57.4030   32.8900   44.4960 C   0  0  0  0  0  0  0  0  0  0  0  0
   57.6410   34.2090   44.8810 C   0  0  0  0  0  0  0  0  0  0  0  0
   58.5740   34.4950   45.8710 C   0  0  0  0  0  0  0  0  0  0  0  0
   59.2490   33.4620   46.5170 C   0  0  0  0  0  0  0  0  0  0  0  0
   59.0000   32.1170   46.1790 C   0  0  0  0  0  0  0  0  0  0  0  0
   58.3490   28.0290   45.3110 C   0  0  0  0  0  0  0  0  0  0  0  0
   57.4230   27.2830   44.6430 N   0  0  0  0  0  0  0  0  0  0  0  0
   57.4280   25.9220   44.7730 C   0  0  0  0  0  0  0  0  0  0  0  0
   58.3410   25.2880   45.6370 C   0  0  0  0  0  0  0  0  0  0  0  0
   59.2360   26.0590   46.3910 C   0  0  0  0  0  0  0  0  0  0  0  0
   59.2130   27.4380   46.2120 C   0  0  0  0  0  0  0  0  0  0  0  0
   59.8930   28.4850   46.9550 C   0  0  0  0  0  0  0  0  0  0  0  0
   60.7520   28.3170   47.8590 O   0  0  0  0  0  0  0  0  0  0  0  0
   63.0215   34.7588   47.1748 H   0  0  0  0  0  0  0  0  0  0  0  0
   64.1416   33.9944   45.9969 H   0  0  0  0  0  0  0  0  0  0  0  0
   62.4003   33.5533   45.9969 H   0  0  0  0  0  0  0  0  0  0  0  0
   63.3324   31.7425   47.1460 H   0  0  0  0  0  0  0  0  0  0  0  0
   64.5957   32.7857   47.9327 H   0  0  0  0  0  0  0  0  0  0  0  0
   63.3310   32.8310   49.6900 H   0  0  0  0  0  0  0  0  0  0  0  0
   62.3278   34.7826   49.4915 H   0  0  0  0  0  0  0  0  0  0  0  0
   61.7687   34.3836   47.8179 H   0  0  0  0  0  0  0  0  0  0  0  0
   60.1368   34.5316   50.0314 H   0  0  0  0  0  0  0  0  0  0  0  0
   59.8053   33.5673   48.5116 H   0  0  0  0  0  0  0  0  0  0  0  0
   61.3566   32.2314   50.6834 H   0  0  0  0  0  0  0  0  0  0  0  0
   59.5668   32.5250   50.9315 H   0  0  0  0  0  0  0  0  0  0  0  0
   60.5125   30.2710   49.8179 H   0  0  0  0  0  0  0  0  0  0  0  0
   58.9434   31.0363   49.3450 H   0  0  0  0  0  0  0  0  0  0  0  0
   61.5410   31.3120   47.8140 H   0  0  0  0  0  0  0  0  0  0  0  0
   56.2730   29.7375   43.6189 H   0  0  0  0  0  0  0  0  0  0  0  0
   57.1097   31.1174   42.8300 H   0  0  0  0  0  0  0  0  0  0  0  0
   57.8675   29.4888   42.8300 H   0  0  0  0  0  0  0  0  0  0  0  0
   56.6612   32.6800   43.7114 H   0  0  0  0  0  0  0  0  0  0  0  0
   57.0872   35.0279   44.3985 H   0  0  0  0  0  0  0  0  0  0  0  0
   58.7798   35.5402   46.1450 H   0  0  0  0  0  0  0  0  0  0  0  0
   59.9847   33.6989   47.2998 H   0  0  0  0  0  0  0  0  0  0  0  0
   56.6740   27.7210   44.0670 H   0  0  0  0  0  0  0  0  0  0  0  0
   56.7122   25.3169   44.1973 H   0  0  0  0  0  0  0  0  0  0  0  0
   58.3518   24.1912   45.7200 H   0  0  0  0  0  0  0  0  0  0  0  0
   59.9332   25.5893   47.1005 H   0  0  0  0  0  0  0  0  0  0  0  0
  1  2  1  0
  2  3  1  0
  3  4  1  0
  4  5  1  0
  5  6  1  0
  6  7  1  0
  7  8  1  0
  8  9  1  0
  9 10  2  0
 10 11  1  0
 11 12  2  0
 12 13  1  0
 12 14  1  0
 14 15  2  0
 15 16  1  0
 16 17  2  0
 17 18  1  0
 18 19  2  0
 11 20  1  0
 20 21  2  0
 21 22  1  0
 22 23  2  0
 23 24  1  0
 24 25  2  0
 25 26  1  0
 26 27  2  0
 19  9  1  0
 25 20  1  0
 26 10  1  0
 19 14  1  0
  1 28  1  0
  1 29  1  0
  1 30  1  0
  2 31  1  0
  2 32  1  0
  3 33  1  0
  4 34  1  0
  4 35  1  0
  5 36  1  0
  5 37  1  0
  6 38  1  0
  6 39  1  0
  7 40  1  0
  7 41  1  0
  8 42  1  0
 13 43  1  0
 13 44  1  0
 13 45  1  0
 15 46  1  0
 16 47  1  0
 17 48  1  0
 18 49  1  0
 21 50  1  0
 22 51  1  0
 23 52  1  0
 24 53  1  0
M  CHG  2  12   1  21   1
M  END
>  <UniqueID>  (16) 
16

>  <SMILES>  (16) 
CCNCCCCNc1c2c([n+](C)c3ccccc13)-c1[nH+]cccc1C2=O

>  <Energy>  (16) 
109.35730259340286

>  <Genealogy>  (16) 
CCNCCCCNc1c2c([n+](C)c3ccccc13)-c1[nH+]cccc1C2=O (protonated)
CCNCCCCNc1c2c([n+](C)c3ccccc13)-c1[nH+]cccc1C2=O (3D coordinates assigned)
CCNCCCCNc1c2c([n+](C)c3ccccc13)-c1[nH+]cccc1C2=O (nonaromatic ring conformer: 109.35730259340286 kcal/mol)

>  <smiles>  (16) 
CCNCCCCNc1c2c([n+](C)c3ccccc13)-c1ncccc1C2=O

>  <score_type>  (16) 
oracle

>  <origin>  (16) 
adg

>  <m_score__min__energy>  (16) 
-5.2400000000000002

>  <m_primary>  (16) 
energy

$$$$
16:0
     RDKit          3D

 41 43  0  0  0  0  0  0  0  0999 V2000
   62.1860   32.6460   47.8690 C   0  0  0  0  0  0  0  0  0  0  0  0
   61.2720   31.4700   47.7410 C   0  0  0  0  0  0  0  0  0  0  0  0
   61.2740   30.4610   48.7310 C   0  0  0  0  0  0  0  0  0  0  0  0
   60.4130   29.3590   48.5830 C   0  0  0  0  0  0  0  0  0  0  0  0
   60.3810   28.2540   49.5990 C   0  0  0  0  0  0  0  0  0  0  0  0
   59.6190   29.3260   47.4790 N   0  0  0  0  0  0  0  0  0  0  0  0
   58.7240   28.4140   47.0560 C   0  0  0  0  0  0  0  0  0  0  0  0
   58.2040   28.8750   45.8470 C   0  0  0  0  0  0  0  0  0  0  0  0
   57.2240   28.1690   44.9420 C   0  0  2  0  0  0  0  0  0  0  0  0
   57.8020   27.8440   43.5520 C   0  0  0  0  0  0  0  0  0  0  0  0
   55.9460   28.9040   44.8760 N   0  0  0  0  0  0  0  0  0  0  0  0
   55.7790   29.7090   43.6570 C   0  0  0  0  0  0  0  0  0  0  0  0
   56.6420   30.9270   43.7490 C   0  0  0  0  0  0  0  0  0  0  0  0
   57.3810   31.4190   42.6760 C   0  0  0  0  0  0  0  0  0  0  0  0
   58.1600   32.8180   43.1880 S   0  0  0  0  0  0  0  0  0  0  0  0
   57.5040   32.7510   44.7330 C   0  0  0  0  0  0  0  0  0  0  0  0
   57.8190   33.7050   45.8340 C   0  0  0  0  0  0  0  0  0  0  0  0
   56.7110   31.6690   44.8880 N   0  0  0  0  0  0  0  0  0  0  0  0
   58.7890   30.0540   45.5310 N   0  0  0  0  0  0  0  0  0  0  0  0
   59.6350   30.2890   46.5480 C   0  0  0  0  0  0  0  0  0  0  0  0
   60.4510   31.3650   46.6560 N   0  0  0  0  0  0  0  0  0  0  0  0
   62.3557   32.8643   48.9337 H   0  0  0  0  0  0  0  0  0  0  0  0
   63.1466   32.4183   47.3838 H   0  0  0  0  0  0  0  0  0  0  0  0
   61.7283   33.5207   47.3838 H   0  0  0  0  0  0  0  0  0  0  0  0
   61.9390   30.5367   49.6040 H   0  0  0  0  0  0  0  0  0  0  0  0
   60.3935   28.6856   50.6107 H   0  0  0  0  0  0  0  0  0  0  0  0
   59.4653   27.6594   49.4653 H   0  0  0  0  0  0  0  0  0  0  0  0
   61.2608   27.6074   49.4653 H   0  0  0  0  0  0  0  0  0  0  0  0
   58.4532   27.4791   47.5685 H   0  0  0  0  0  0  0  0  0  0  0  0
   57.0177   27.1876   45.3940 H   0  0  0  0  0  0  0  0  0  0  0  0
   58.7555   27.3079   43.6676 H   0  0  0  0  0  0  0  0  0  0  0  0
   57.0915   27.2131   42.9978 H   0  0  0  0  0  0  0  0  0  0  0  0
   57.9719   28.7789   42.9978 H   0  0  0  0  0  0  0  0  0  0  0  0
   55.1610   28.2110   44.9230 H   0  0  0  0  0  0  0  0  0  0  0  0
   56.0746   29.1142   42.7801 H   0  0  0  0  0  0  0  0  0  0  0  0
   54.7258   30.0096   43.5544 H   0  0  0  0  0  0  0  0  0  0  0  0
   57.4438   30.9721   41.6728 H   0  0  0  0  0  0  0  0  0  0  0  0
   57.6563   33.2122   46.8039 H   0  0  0  0  0  0  0  0  0  0  0  0
   58.8694   34.0218   45.7553 H   0  0  0  0  0  0  0  0  0  0  0  0
   57.1637   34.5850   45.7553 H   0  0  0  0  0  0  0  0  0  0  0  0
   58.6330   30.6390   44.6810 H   0  0  0  0  0  0  0  0  0  0  0  0
  1  2  1  0
  2  3  1  0
  3  4  2  0
  4  5  1  0
  4  6  1  0
  6  7  1  0
  7  8  2  0
  8  9  1  0
  9 10  1  0
  9 11  1  0
 11 12  1  0
 12 13  1  0
 13 14  2  0
 14 15  1  0
 15 16  1  0
 16 17  1  0
 16 18  2  0
  8 19  1  0
 19 20  2  0
 20 21  1  0
 21  2  2  0
 20  6  1  0
 18 13  1  0
  1 22  1  0
  1 23  1  0
  1 24  1  0
  3 25  1  0
  5 26  1  0
  5 27  1  0
  5 28  1  0
  7 29  1  0
  9 30  1  1
 10 31  1  0
 10 32  1  0
 10 33  1  0
 11 34  1  0
 12 35  1  0
 12 36  1  0
 14 37  1  0
 17 38  1  0
 17 39  1  0
 17 40  1  0
 19 41  1  0
M  CHG  1  19   1
M  END
>  <UniqueID>  (17) 
17

>  <SMILES>  (17) 
Cc1cc(C)n2cc([C@H](C)NCc3csc(C)n3)[nH+]c2n1

>  <Energy>  (17) 
104.8526915717021

>  <Genealogy>  (17) 
Cc1cc(C)n2cc(C(C)NCc3csc(C)n3)[nH+]c2n1 (protonated)
Cc1cc(C)n2cc([C@H](C)NCc3csc(C)n3)[nH+]c2n1 (chirality)
Cc1cc(C)n2cc([C@H](C)NCc3csc(C)n3)[nH+]c2n1 (3D coordinates assigned)
Cc1cc(C)n2cc([C@H](C)NCc3csc(C)n3)[nH+]c2n1 (optimized conformer: 104.8526915717021 kcal/mol)

>  <smiles>  (17) 
Cc1cc(C)n2cc(C(C)NCc3csc(C)n3)nc2n1

>  <score_type>  (17) 
oracle

>  <origin>  (17) 
adg

>  <m_score__min__energy>  (17) 
-6.1500000000000004

>  <m_primary>  (17) 
energy

$$$$
17:0
     RDKit          3D

 54 55  0  0  0  0  0  0  0  0999 V2000
   63.3690   33.8450   46.3420 C   0  0  0  0  0  0  0  0  0  0  0  0
   63.7750   33.0780   47.5960 C   0  0  0  0  0  0  0  0  0  0  0  0
   62.6030   32.4330   48.2070 N   0  0  0  0  0  0  0  0  0  0  0  0
   62.9760   31.6610   49.4020 C   0  0  0  0  0  0  0  0  0  0  0  0
   61.7910   30.8270   49.9030 C   0  0  0  0  0  0  0  0  0  0  0  0
   61.0160   30.1640   48.7640 C   0  0  0  0  0  0  0  0  0  0  0  0
   60.3210   31.1660   48.0280 O   0  0  0  0  0  0  0  0  0  0  0  0
   59.4850   30.9200   46.9270 C   0  0  0  0  0  0  0  0  0  0  0  0
   59.4880   29.6810   46.2570 C   0  0  0  0  0  0  0  0  0  0  0  0
   58.6430   29.4610   45.1610 C   0  0  0  0  0  0  0  0  0  0  0  0
   58.6420   28.2250   44.4950 C   0  0  0  0  0  0  0  0  0  0  0  0
   57.7950   28.0160   43.4030 C   0  0  0  0  0  0  0  0  0  0  0  0
   56.9450   29.0370   42.9680 C   0  0  0  0  0  0  0  0  0  0  0  0
   56.9360   30.2710   43.6220 C   0  0  0  0  0  0  0  0  0  0  0  0
   57.7830   30.4930   44.7200 C   0  0  0  0  0  0  0  0  0  0  0  0
   57.7810   31.7260   45.3840 C   0  0  0  0  0  0  0  0  0  0  0  0
   58.6240   31.9460   46.4870 C   0  0  0  0  0  0  0  0  0  0  0  0
   58.5770   33.2750   47.2130 C   0  0  0  0  0  0  0  0  0  0  0  0
   59.9340   33.8060   47.5080 N   0  0  0  0  0  0  0  0  0  0  0  0
   59.9510   34.5770   48.7890 C   0  0  0  0  0  0  0  0  0  0  0  0
   59.6860   33.6810   50.0030 C   0  0  0  0  0  0  0  0  0  0  0  0
   60.3890   34.6510   46.3720 C   0  0  0  0  0  0  0  0  0  0  0  0
   59.2610   34.9330   45.3720 C   0  0  0  0  0  0  0  0  0  0  0  0
   62.8724   34.7831   46.6307 H   0  0  0  0  0  0  0  0  0  0  0  0
   64.2647   34.0727   45.7454 H   0  0  0  0  0  0  0  0  0  0  0  0
   62.6771   33.2324   45.7454 H   0  0  0  0  0  0  0  0  0  0  0  0
   64.5126   32.3078   47.3264 H   0  0  0  0  0  0  0  0  0  0  0  0
   64.2105   33.7833   48.3192 H   0  0  0  0  0  0  0  0  0  0  0  0
   62.2190   31.7600   47.5030 H   0  0  0  0  0  0  0  0  0  0  0  0
   63.8098   30.9887   49.1513 H   0  0  0  0  0  0  0  0  0  0  0  0
   63.2746   32.3618   50.1956 H   0  0  0  0  0  0  0  0  0  0  0  0
   62.1709   30.0426   50.5741 H   0  0  0  0  0  0  0  0  0  0  0  0
   61.1011   31.5072   50.4239 H   0  0  0  0  0  0  0  0  0  0  0  0
   61.7167   29.6380   48.0990 H   0  0  0  0  0  0  0  0  0  0  0  0
   60.2966   29.4414   49.1767 H   0  0  0  0  0  0  0  0  0  0  0  0
   60.1596   28.8790   46.5971 H   0  0  0  0  0  0  0  0  0  0  0  0
   59.3096   27.4190   44.8335 H   0  0  0  0  0  0  0  0  0  0  0  0
   57.7973   27.0458   42.8846 H   0  0  0  0  0  0  0  0  0  0  0  0
   56.2809   28.8679   42.1076 H   0  0  0  0  0  0  0  0  0  0  0  0
   56.2642   31.0706   43.2764 H   0  0  0  0  0  0  0  0  0  0  0  0
   57.1137   32.5296   45.0392 H   0  0  0  0  0  0  0  0  0  0  0  0
   58.0416   34.0022   46.5850 H   0  0  0  0  0  0  0  0  0  0  0  0
   58.0624   33.1161   48.1721 H   0  0  0  0  0  0  0  0  0  0  0  0
   60.5870   32.9880   47.5660 H   0  0  0  0  0  0  0  0  0  0  0  0
   60.9373   35.0500   48.9055 H   0  0  0  0  0  0  0  0  0  0  0  0
   59.1508   35.3303   48.7422 H   0  0  0  0  0  0  0  0  0  0  0  0
   59.8557   34.2547   50.9261 H   0  0  0  0  0  0  0  0  0  0  0  0
   58.6448   33.3272   49.9773 H   0  0  0  0  0  0  0  0  0  0  0  0
   60.3673   32.8178   49.9773 H   0  0  0  0  0  0  0  0  0  0  0  0
   60.7587   35.6082   46.7683 H   0  0  0  0  0  0  0  0  0  0  0  0
   61.1824   34.1045   45.8410 H   0  0  0  0  0  0  0  0  0  0  0  0
   58.3353   35.1644   45.9192 H   0  0  0  0  0  0  0  0  0  0  0  0
   59.5372   35.7897   44.7398 H   0  0  0  0  0  0  0  0  0  0  0  0
   59.1015   34.0471   44.7398 H   0  0  0  0  0  0  0  0  0  0  0  0
  1  2  1  0
  2  3  1  0
  3  4  1  0
  4  5  1  0
  5  6  1  0
  6  7  1  0
  7  8  1  0
  8  9  2  0
  9 10  1  0
 10 11  2  0
 11 12  1  0
 12 13  2  0
 13 14  1  0
 14 15  2  0
 15 16  1  0
 16 17  2  0
 17 18  1  0
 18 19  1  0
 19 20  1  0
 20 21  1  0
 19 22  1  0
 22 23  1  0
 17  8  1  0
 15 10  1  0
  1 24  1  0
  1 25  1  0
  1 26  1  0
  2 27  1  0
  2 28  1  0
  3 29  1  0
  4 30  1  0
  4 31  1  0
  5 32  1  0
  5 33  1  0
  6 34  1  0
  6 35  1  0
  9 36  1  0
 11 37  1  0
 12 38  1  0
 13 39  1  0
 14 40  1  0
 16 41  1  0
 18 42  1  0
 18 43  1  0
 19 44  1  0
 20 45  1  0
 20 46  1  0
 21 47  1  0
 21 48  1  0
 21 49  1  0
 22 50  1  0
 22 51  1  0
 23 52  1  0
 23 53  1  0
 23 54  1  0
M  CHG  1  19   1
M  END
>  <UniqueID>  (18) 
18

>  <SMILES>  (18) 
CCNCCCOc1cc2ccccc2cc1C[NH+](CC)CC

>  <Energy>  (18) 
50.76517771661481

>  <Genealogy>  (18) 
CCNCCCOc1cc2ccccc2cc1C[NH+](CC)CC (protonated)
CCNCCCOc1cc2ccccc2cc1C[NH+](CC)CC (3D coordinates assigned)
CCNCCCOc1cc2ccccc2cc1C[NH+](CC)CC (optimized conformer: 50.76517771661481 kcal/mol)

>  <smiles>  (18) 
CCNCCCOc1cc2ccccc2cc1CN(CC)CC

>  <score_type>  (18) 
oracle

>  <origin>  (18) 
adg

>  <m_score__min__energy>  (18) 
-5.1799999999999997

>  <m_primary>  (18) 
energy

$$$$
18:0
     RDKit          3D

 47 47  0  0  0  0  0  0  0  0999 V2000
   59.5730   30.3410   47.6130 C   0  0  0  0  0  0  0  0  0  0  0  0
   60.7870   30.7310   46.7760 C   0  0  0  0  0  0  0  0  0  0  0  0
   61.8400   31.4500   47.6300 C   0  0  0  0  0  0  0  0  0  0  0  0
   62.2880   32.8020   47.1100 C   0  0  0  0  0  0  0  0  0  0  0  0
   63.4880   33.0270   47.0810 O   0  0  0  0  0  0  0  0  0  0  0  0
   61.3500   33.8950   46.6420 C   0  0  0  0  0  0  0  0  0  0  0  0
   60.5090   34.4860   47.7890 C   0  0  0  0  0  0  0  0  0  0  0  0
   59.0800   33.9120   47.8720 C   0  0  0  0  0  0  0  0  0  0  0  0
   58.2130   34.2140   46.6370 C   0  0  0  0  0  0  0  0  0  0  0  0
   58.4240   33.1920   45.5050 C   0  0  0  0  0  0  0  0  0  0  0  0
   57.1150   32.8970   44.7710 C   0  0  0  0  0  0  0  0  0  0  0  0
   56.8040   31.4610   44.8490 N   0  0  0  0  0  0  0  0  0  0  0  0
   57.7140   30.6640   44.0190 C   0  0  0  0  0  0  0  0  0  0  0  0
   57.8350   29.2670   44.5780 C   0  0  0  0  0  0  0  0  0  0  0  0
   59.0860   28.6260   44.6070 C   0  0  0  0  0  0  0  0  0  0  0  0
   59.2120   27.3470   45.1560 C   0  0  0  0  0  0  0  0  0  0  0  0
   58.0920   26.6950   45.6780 C   0  0  0  0  0  0  0  0  0  0  0  0
   56.8450   27.3240   45.6590 C   0  0  0  0  0  0  0  0  0  0  0  0
   56.7100   28.6110   45.1170 C   0  0  0  0  0  0  0  0  0  0  0  0
   55.4630   29.2380   45.1120 O   0  0  0  0  0  0  0  0  0  0  0  0
   59.8230   30.4213   48.6812 H   0  0  0  0  0  0  0  0  0  0  0  0
   58.7355   31.0153   47.3807 H   0  0  0  0  0  0  0  0  0  0  0  0
   59.2850   29.3051   47.3807 H   0  0  0  0  0  0  0  0  0  0  0  0
   61.2332   29.8224   46.3454 H   0  0  0  0  0  0  0  0  0  0  0  0
   60.4570   31.4147   45.9800 H   0  0  0  0  0  0  0  0  0  0  0  0
   61.4190   31.5960   48.6357 H   0  0  0  0  0  0  0  0  0  0  0  0
   62.7331   30.8081   47.6129 H   0  0  0  0  0  0  0  0  0  0  0  0
   61.9465   34.7016   46.1908 H   0  0  0  0  0  0  0  0  0  0  0  0
   60.6551   33.4487   45.9154 H   0  0  0  0  0  0  0  0  0  0  0  0
   61.0225   34.2770   48.7391 H   0  0  0  0  0  0  0  0  0  0  0  0
   60.4107   35.5638   47.5921 H   0  0  0  0  0  0  0  0  0  0  0  0
   59.1516   32.8203   47.9861 H   0  0  0  0  0  0  0  0  0  0  0  0
   58.5914   34.3958   48.7306 H   0  0  0  0  0  0  0  0  0  0  0  0
   57.1546   34.1959   46.9360 H   0  0  0  0  0  0  0  0  0  0  0  0
   58.5082   35.2023   46.2547 H   0  0  0  0  0  0  0  0  0  0  0  0
   59.1533   33.5970   44.7880 H   0  0  0  0  0  0  0  0  0  0  0  0
   58.7924   32.2549   45.9478 H   0  0  0  0  0  0  0  0  0  0  0  0
   56.3000   33.4715   45.2355 H   0  0  0  0  0  0  0  0  0  0  0  0
   57.2216   33.1854   43.7148 H   0  0  0  0  0  0  0  0  0  0  0  0
   55.8280   31.3230   44.4920 H   0  0  0  0  0  0  0  0  0  0  0  0
   57.3203   30.6127   42.9932 H   0  0  0  0  0  0  0  0  0  0  0  0
   58.7067   31.1379   44.0151 H   0  0  0  0  0  0  0  0  0  0  0  0
   59.9705   29.1340   44.1953 H   0  0  0  0  0  0  0  0  0  0  0  0
   60.1945   26.8529   45.1772 H   0  0  0  0  0  0  0  0  0  0  0  0
   58.1923   25.6859   46.1041 H   0  0  0  0  0  0  0  0  0  0  0  0
   55.9651   26.8081   46.0707 H   0  0  0  0  0  0  0  0  0  0  0  0
   55.3000   30.0970   45.6250 H   0  0  0  0  0  0  0  0  0  0  0  0
  1  2  1  0
  2  3  1  0
  3  4  1  0
  4  5  2  0
  4  6  1  0
  6  7  1  0
  7  8  1  0
  8  9  1  0
  9 10  1  0
 10 11  1  0
 11 12  1  0
 12 13  1  0
 13 14  1  0
 14 15  2  0
 15 16  1  0
 16 17  2  0
 17 18  1  0
 18 19  2  0
 19 20  1  0
 19 14  1  0
  1 21  1  0
  1 22  1  0
  1 23  1  0
  2 24  1  0
  2 25  1  0
  3 26  1  0
  3 27  1  0
  6 28  1  0
  6 29  1  0
  7 30  1  0
  7 31  1  0
  8 32  1  0
  8 33  1  0
  9 34  1  0
  9 35  1  0
 10 36  1  0
 10 37  1  0
 11 38  1  0
 11 39  1  0
 12 40  1  0
 13 41  1  0
 13 42  1  0
 15 43  1  0
 16 44  1  0
 17 45  1  0
 18 46  1  0
 20 47  1  0
M  END
>  <UniqueID>  (19) 
19

>  <SMILES>  (19) 
CCCC(=O)CCCCCCNCc1ccccc1O

>  <Energy>  (19) 
29.003417531805084

>  <Genealogy>  (19) 
CCCC(=O)CCCCCCNCc1ccccc1O (3D coordinates assigned)
CCCC(=O)CCCCCCNCc1ccccc1O (optimized conformer: 29.003417531805084 kcal/mol)

>  <smiles>  (19) 
CCCC(=O)CCCCCCNCc1ccccc1O

>  <score_type>  (19) 
oracle

>  <origin>  (19) 
adg

>  <m_score__min__energy>  (19) 
-7.8499999999999996

>  <m_primary>  (19) 
energy

$$$$
19:0
     RDKit          3D

 54 57  0  0  0  0  0  0  0  0999 V2000
   58.9020   34.1730   51.9940 C   0  0  0  0  0  0  0  0  0  0  0  0
   57.7660   33.3640   52.6270 C   0  0  0  0  0  0  0  0  0  0  0  0
   57.3280   32.2430   51.7800 N   0  0  0  0  0  0  0  0  0  0  0  0
   56.5070   31.2750   52.5200 C   0  0  0  0  0  0  0  0  0  0  0  0
   57.0770   29.8700   52.3390 C   0  0  0  0  0  0  0  0  0  0  0  0
   57.9630   29.8490   51.2340 O   0  0  0  0  0  0  0  0  0  0  0  0
   59.1850   29.2120   51.5600 C   0  0  0  0  0  0  0  0  0  0  0  0
   60.3800   30.0210   51.0340 C   0  0  0  0  0  0  0  0  0  0  0  0
   60.0610   31.4560   50.9590 N   0  0  0  0  0  0  0  0  0  0  0  0
   60.8240   32.0910   49.9030 C   0  0  0  0  0  0  0  0  0  0  0  0
   60.1840   32.5770   48.7560 C   0  0  0  0  0  0  0  0  0  0  0  0
   60.9080   33.1090   47.7020 C   0  0  0  0  0  0  0  0  0  0  0  0
   62.2740   33.1720   47.7070 N   0  0  0  0  0  0  0  0  0  0  0  0
   62.9940   33.5820   46.4870 C   0  0  0  0  0  0  0  0  0  0  0  0
   62.9450   32.8510   48.8780 C   0  0  0  0  0  0  0  0  0  0  0  0
   64.3330   33.0940   49.0200 C   0  0  0  0  0  0  0  0  0  0  0  0
   65.0060   32.7540   50.1910 C   0  0  0  0  0  0  0  0  0  0  0  0
   64.3200   32.1840   51.2560 C   0  0  0  0  0  0  0  0  0  0  0  0
   62.9500   31.9590   51.1660 C   0  0  0  0  0  0  0  0  0  0  0  0
   62.2330   32.2850   49.9920 C   0  0  0  0  0  0  0  0  0  0  0  0
   59.9480   33.5600   46.6770 C   0  0  0  0  0  0  0  0  0  0  0  0
   60.1750   34.2300   45.5180 N   0  0  0  0  0  0  0  0  0  0  0  0
   59.1210   34.6090   44.7370 C   0  0  0  0  0  0  0  0  0  0  0  0
   57.7970   34.3340   45.1380 C   0  0  0  0  0  0  0  0  0  0  0  0
   57.5630   33.6690   46.3530 C   0  0  0  0  0  0  0  0  0  0  0  0
   58.6690   33.2900   47.1090 C   0  0  0  0  0  0  0  0  0  0  0  0
   58.7530   32.6660   48.4190 C   0  0  0  0  0  0  0  0  0  0  0  0
   57.7760   32.3300   49.1370 O   0  0  0  0  0  0  0  0  0  0  0  0
   59.5231   34.6153   52.7868 H   0  0  0  0  0  0  0  0  0  0  0  0
   59.5204   33.5108   51.3703 H   0  0  0  0  0  0  0  0  0  0  0  0
   58.4784   34.9739   51.3703 H   0  0  0  0  0  0  0  0  0  0  0  0
   58.1139   32.9625   53.5902 H   0  0  0  0  0  0  0  0  0  0  0  0
   56.9075   34.0397   52.7548 H   0  0  0  0  0  0  0  0  0  0  0  0
   56.7740   32.6150   50.9730 H   0  0  0  0  0  0  0  0  0  0  0  0
   56.5093   31.5354   53.5887 H   0  0  0  0  0  0  0  0  0  0  0  0
   55.4770   31.3021   52.1348 H   0  0  0  0  0  0  0  0  0  0  0  0
   57.6214   29.5770   53.2489 H   0  0  0  0  0  0  0  0  0  0  0  0
   56.2526   29.1650   52.1563 H   0  0  0  0  0  0  0  0  0  0  0  0
   59.2640   29.1218   52.6534 H   0  0  0  0  0  0  0  0  0  0  0  0
   59.1996   28.2170   51.0913 H   0  0  0  0  0  0  0  0  0  0  0  0
   61.2353   29.8787   51.7110 H   0  0  0  0  0  0  0  0  0  0  0  0
   60.6225   29.6652   50.0218 H   0  0  0  0  0  0  0  0  0  0  0  0
   60.2710   31.9090   51.8760 H   0  0  0  0  0  0  0  0  0  0  0  0
   59.0410   31.6100   50.8090 H   0  0  0  0  0  0  0  0  0  0  0  0
   63.9185   34.1085   46.7663 H   0  0  0  0  0  0  0  0  0  0  0  0
   63.2447   32.6912   45.8923 H   0  0  0  0  0  0  0  0  0  0  0  0
   62.3558   34.2521   45.8923 H   0  0  0  0  0  0  0  0  0  0  0  0
   64.8885   33.5588   48.1921 H   0  0  0  0  0  0  0  0  0  0  0  0
   66.0874   32.9380   50.2730 H   0  0  0  0  0  0  0  0  0  0  0  0
   64.8616   31.9097   52.1733 H   0  0  0  0  0  0  0  0  0  0  0  0
   62.4162   31.5204   52.0220 H   0  0  0  0  0  0  0  0  0  0  0  0
   59.3059   35.1329   43.7876 H   0  0  0  0  0  0  0  0  0  0  0  0
   56.9522   34.6386   44.5027 H   0  0  0  0  0  0  0  0  0  0  0  0
   56.5399   33.4548   46.6957 H   0  0  0  0  0  0  0  0  0  0  0  0
  1  2  1  0
  2  3  1  0
  3  4  1  0
  4  5  1  0
  5  6  1  0
  6  7  1  0
  7  8  1  0
  8  9  1  0
  9 10  1  0
 10 11  2  0
 11 12  1  0
 12 13  2  0
 13 14  1  0
 13 15  1  0
 15 16  2  0
 16 17  1  0
 17 18  2  0
 18 19  1  0
 19 20  2  0
 12 21  1  0
 21 22  2  0
 22 23  1  0
 23 24  2  0
 24 25  1  0
 25 26  2  0
 26 27  1  0
 27 28  2  0
 20 10  1  0
 26 21  1  0
 27 11  1  0
 20 15  1  0
  1 29  1  0
  1 30  1  0
  1 31  1  0
  2 32  1  0
  2 33  1  0
  3 34  1  0
  4 35  1  0
  4 36  1  0
  5 37  1  0
  5 38  1  0
  7 39  1  0
  7 40  1  0
  8 41  1  0
  8 42  1  0
  9 43  1  0
  9 44  1  0
 14 45  1  0
 14 46  1  0
 14 47  1  0
 16 48  1  0
 17 49  1  0
 18 50  1  0
 19 51  1  0
 23 52  1  0
 24 53  1  0
 25 54  1  0
M  CHG  2   9   1  13   1
M  END
>  <UniqueID>  (20) 
20

>  <SMILES>  (20) 
CCNCCOCC[NH2+]c1c2c([n+](C)c3ccccc13)-c1ncccc1C2=O

>  <Energy>  (20) 
106.99378683594611

>  <Genealogy>  (20) 
CCNCCOCC[NH2+]c1c2c([n+](C)c3ccccc13)-c1ncccc1C2=O (protonated)
CCNCCOCC[NH2+]c1c2c([n+](C)c3ccccc13)-c1ncccc1C2=O (3D coordinates assigned)
CCNCCOCC[NH2+]c1c2c([n+](C)c3ccccc13)-c1ncccc1C2=O (nonaromatic ring conformer: 106.99378683594611 kcal/mol)

>  <smiles>  (20) 
CCNCCOCCNc1c2c([n+](C)c3ccccc13)-c1ncccc1C2=O

>  <score_type>  (20) 
oracle

>  <origin>  (20) 
adg

>  <m_score__min__energy>  (20) 
-3.98

>  <m_primary>  (20) 
energy

$$$$
20:0
     RDKit          3D

 80 82  0  0  0  0  0  0  0  0999 V2000
   60.6706   32.0276   52.1683 H   0  0  0  0  0  0  0  0  0  0  0  0
   60.1910   32.9440   51.7940 C   0  0  0  0  0  0  0  0  0  0  0  0
   58.9180   33.1930   52.1750 C   0  0  0  0  0  0  0  0  0  0  0  0
   58.5030   34.5320   52.7430 C   0  0  0  0  0  0  0  0  0  0  0  0
   58.5177   34.4846   53.8419 H   0  0  0  0  0  0  0  0  0  0  0  0
   59.2026   35.3085   52.4001 H   0  0  0  0  0  0  0  0  0  0  0  0
   57.4869   34.7767   52.4001 H   0  0  0  0  0  0  0  0  0  0  0  0
   57.8580   32.1310   51.9830 C   0  0  0  0  0  0  0  0  0  0  0  0
   58.0853   31.2716   52.6309 H   0  0  0  0  0  0  0  0  0  0  0  0
   56.8778   32.5556   52.2456 H   0  0  0  0  0  0  0  0  0  0  0  0
   57.8210   31.6650   50.5200 C   0  0  0  0  0  0  0  0  0  0  0  0
   56.7905   31.7650   50.1485 H   0  0  0  0  0  0  0  0  0  0  0  0
   58.5283   32.2954   49.9612 H   0  0  0  0  0  0  0  0  0  0  0  0
   58.2690   30.2010   50.3300 C   0  0  0  0  0  0  0  0  0  0  0  0
   58.0882   29.6671   51.2746 H   0  0  0  0  0  0  0  0  0  0  0  0
   57.6846   29.8168   49.4810 H   0  0  0  0  0  0  0  0  0  0  0  0
   59.7490   29.9980   49.9470 C   0  0  0  0  0  0  0  0  0  0  0  0
   60.3509   30.0277   50.8672 H   0  0  0  0  0  0  0  0  0  0  0  0
   59.8120   29.0300   49.4284 H   0  0  0  0  0  0  0  0  0  0  0  0
   60.2790   31.0190   49.0110 N   0  0  0  0  0  0  0  0  0  0  0  0
   60.0770   31.9720   49.3940 H   0  0  0  0  0  0  0  0  0  0  0  0
   61.3180   31.0220   48.9730 H   0  0  0  0  0  0  0  0  0  0  0  0
   59.6820   30.9140   47.6860 C   0  0  0  0  0  0  0  0  0  0  0  0
   58.9920   32.0090   47.1060 C   0  0  0  0  0  0  0  0  0  0  0  0
   58.3050   31.8340   45.8880 C   0  0  0  0  0  0  0  0  0  0  0  0
   58.4610   30.6860   45.1480 N   0  0  0  0  0  0  0  0  0  0  0  0
   58.0130   30.6650   43.7400 C   0  0  0  0  0  0  0  0  0  0  0  0
   56.9148   30.6135   43.7054 H   0  0  0  0  0  0  0  0  0  0  0  0
   58.3533   31.5801   43.2332 H   0  0  0  0  0  0  0  0  0  0  0  0
   58.4374   29.7858   43.2332 H   0  0  0  0  0  0  0  0  0  0  0  0
   59.0600   29.5770   45.7140 C   0  0  0  0  0  0  0  0  0  0  0  0
   59.0110   28.3080   45.0820 C   0  0  0  0  0  0  0  0  0  0  0  0
   58.4571   28.1962   44.1382 H   0  0  0  0  0  0  0  0  0  0  0  0
   59.6510   27.2010   45.6340 C   0  0  0  0  0  0  0  0  0  0  0  0
   59.6067   26.2287   45.1215 H   0  0  0  0  0  0  0  0  0  0  0  0
   60.3440   27.3230   46.8290 C   0  0  0  0  0  0  0  0  0  0  0  0
   60.8732   26.4540   47.2472 H   0  0  0  0  0  0  0  0  0  0  0  0
   60.3720   28.5400   47.5000 C   0  0  0  0  0  0  0  0  0  0  0  0
   60.9160   28.6197   48.4528 H   0  0  0  0  0  0  0  0  0  0  0  0
   59.7110   29.6810   46.9770 C   0  0  0  0  0  0  0  0  0  0  0  0
   57.3180   32.9290   45.5070 C   0  0  0  0  0  0  0  0  0  0  0  0
   56.9312   32.7302   44.4966 H   0  0  0  0  0  0  0  0  0  0  0  0
   56.4960   32.9325   46.2379 H   0  0  0  0  0  0  0  0  0  0  0  0
   57.9960   34.3030   45.5240 C   0  0  0  0  0  0  0  0  0  0  0  0
   58.5793   34.4156   44.5982 H   0  0  0  0  0  0  0  0  0  0  0  0
   57.1998   35.0573   45.6077 H   0  0  0  0  0  0  0  0  0  0  0  0
   58.9440   34.5040   46.7280 C   0  0  0  0  0  0  0  0  0  0  0  0
   59.9751   34.5662   46.3500 H   0  0  0  0  0  0  0  0  0  0  0  0
   58.6233   35.4255   47.2358 H   0  0  0  0  0  0  0  0  0  0  0  0
   58.8780   33.3750   47.7700 C   0  0  0  0  0  0  0  0  0  0  0  0
   59.7050   33.4971   48.4850 H   0  0  0  0  0  0  0  0  0  0  0  0
   57.9087   33.4326   48.2868 H   0  0  0  0  0  0  0  0  0  0  0  0
   60.9960   33.8430   50.8880 C   0  0  0  0  0  0  0  0  0  0  0  0
   60.3719   34.6977   50.5881 H   0  0  0  0  0  0  0  0  0  0  0  0
   61.8856   34.1788   51.4411 H   0  0  0  0  0  0  0  0  0  0  0  0
   61.4480   33.1350   49.6790 N   0  0  0  0  0  0  0  0  0  0  0  0
   62.2780   32.5600   49.9610 H   0  0  0  0  0  0  0  0  0  0  0  0
   61.8850   34.0450   48.6050 C   0  0  0  0  0  0  0  0  0  0  0  0
   61.0152   34.6039   48.2294 H   0  0  0  0  0  0  0  0  0  0  0  0
   62.6370   34.7367   49.0125 H   0  0  0  0  0  0  0  0  0  0  0  0
   62.5160   33.2570   47.4470 C   0  0  0  0  0  0  0  0  0  0  0  0
   61.8159   32.4706   47.1284 H   0  0  0  0  0  0  0  0  0  0  0  0
   62.7208   33.9605   46.6265 H   0  0  0  0  0  0  0  0  0  0  0  0
   63.8410   32.6050   47.8570 C   0  0  0  0  0  0  0  0  0  0  0  0
   63.7159   31.5126   47.8888 H   0  0  0  0  0  0  0  0  0  0  0  0
   64.6173   32.8683   47.1235 H   0  0  0  0  0  0  0  0  0  0  0  0
   64.2460   33.0900   49.1890 N   0  0  0  0  0  0  0  0  0  0  0  0
   63.4250   32.9880   49.8290 H   0  0  0  0  0  0  0  0  0  0  0  0
   65.3610   32.3070   49.7400 C   0  0  0  0  0  0  0  0  0  0  0  0
   65.5535   31.4444   49.0851 H   0  0  0  0  0  0  0  0  0  0  0  0
   66.2498   32.9527   49.7963 H   0  0  0  0  0  0  0  0  0  0  0  0
   65.0310   31.8020   51.1530 C   0  0  0  0  0  0  0  0  0  0  0  0
   65.9598   31.4298   51.6100 H   0  0  0  0  0  0  0  0  0  0  0  0
   64.5950   32.6542   51.6948 H   0  0  0  0  0  0  0  0  0  0  0  0
   63.9840   30.6710   51.2020 C   0  0  0  0  0  0  0  0  0  0  0  0
   64.4156   29.7705   50.7406 H   0  0  0  0  0  0  0  0  0  0  0  0
   63.7255   30.5003   52.2575 H   0  0  0  0  0  0  0  0  0  0  0  0
   62.7520   31.0170   50.4930 N   0  0  0  0  0  0  0  0  0  0  0  0
   62.9870   31.5200   49.6060 H   0  0  0  0  0  0  0  0  0  0  0  0
   62.1740   31.6490   51.0920 H   0  0  0  0  0  0  0  0  0  0  0  0
  1  2  1  0
  2  3  2  0
  3  4  1  0
  4  5  1  0
  4  6  1  0
  4  7  1  0
  3  8  1  0
  8  9  1  0
  8 10  1  0
  8 11  1  0
 11 12  1  0
 11 13  1  0
 11 14  1  0
 14 15  1  0
 14 16  1  0
 14 17  1  0
 17 18  1  0
 17 19  1  0
 17 20  1  0
 20 21  1  0
 20 22  1  0
 20 23  1  0
 23 24  2  0
 24 25  1  0
 25 26  2  0
 26 27  1  0
 27 28  1  0
 27 29  1  0
 27 30  1  0
 26 31  1  0
 31 32  2  0
 32 33  1  0
 32 34  1  0
 34 35  1  0
 34 36  2  0
 36 37  1  0
 36 38  1  0
 38 39  1  0
 38 40  2  0
 25 41  1  0
 41 42  1  0
 41 43  1  0
 41 44  1  0
 44 45  1  0
 44 46  1  0
 44 47  1  0
 47 48  1  0
 47 49  1  0
 47 50  1  0
 50 51  1  0
 50 52  1  0
  2 53  1  0
 53 54  1  0
 53 55  1  0
 53 56  1  0
 56 57  1  0
 56 58  1  0
 58 59  1  0
 58 60  1  0
 58 61  1  0
 61 62  1  0
 61 63  1  0
 61 64  1  0
 64 65  1  0
 64 66  1  0
 64 67  1  0
 67 68  1  0
 67 69  1  0
 69 70  1  0
 69 71  1  0
 69 72  1  0
 72 73  1  0
 72 74  1  0
 72 75  1  0
 75 76  1  0
 75 77  1  0
 75 78  1  0
 78 79  1  0
 78 80  1  0
 40 23  1  0
 50 24  1  0
 40 31  1  0
M  CHG  2  20   1  26   1
M  END
>  <UniqueID>  (21) 
21

>  <SMILES>  (21) 
C/C(=C\CNCCCNCCCN)CCCC[NH2+]c1c2c([n+](C)c3ccccc13)CCCC2

>  <Energy>  (21) 
98.77928237117953

>  <Genealogy>  (21) 
CC(=CCNCCCNCCCN)CCCC[NH2+]c1c2c([n+](C)c3ccccc13)CCCC2 (protonated)
C/C(=C\CNCCCNCCCN)CCCC[NH2+]c1c2c([n+](C)c3ccccc13)CCCC2 (cis-trans isomerization)
C/C(=C\CNCCCNCCCN)CCCC[NH2+]c1c2c([n+](C)c3ccccc13)CCCC2 (3D coordinates assigned)
C/C(=C\CNCCCNCCCN)CCCC[NH2+]c1c2c([n+](C)c3ccccc13)CCCC2 (nonaromatic ring conformer: 98.77928237117953 kcal/mol)

>  <smiles>  (21) 
CC(=CCNCCCNCCCN)CCCCNc1c2c([n+](C)c3ccccc13)CCCC2

>  <score_type>  (21) 
oracle

>  <origin>  (21) 
adg

>  <m_score__min__energy>  (21) 
-6.2999999999999998

>  <m_primary>  (21) 
energy

$$$$
21:0
     RDKit          3D

105109  0  0  0  0  0  0  0  0999 V2000
   51.7830   32.3180   51.3950 C   0  0  0  0  0  0  0  0  0  0  0  0
   51.2260   31.1700   52.2350 C   0  0  0  0  0  0  0  0  0  0  0  0
   51.5410   29.8670   51.6050 N   0  0  0  0  0  0  0  0  0  0  0  0
   52.4490   30.0230   50.4580 C   0  0  0  0  0  0  0  0  0  0  0  0
   51.9920   28.8200   52.5540 C   0  0  0  0  0  0  0  0  0  0  0  0
   53.4670   28.9370   53.0020 C   0  0  0  0  0  0  0  0  0  0  0  0
   53.6820   30.1820   53.6370 O   0  0  0  0  0  0  0  0  0  0  0  0
   54.8790   30.7860   53.1660 C   0  0  0  0  0  0  0  0  0  0  0  0
   55.4860   29.9690   52.0230 C   0  0  0  0  0  0  0  0  0  0  0  0
   56.8930   29.9070   52.1290 O   0  0  0  0  0  0  0  0  0  0  0  0
   57.4210   30.0750   50.8880 N   0  0  0  0  0  0  0  0  0  0  0  0
   58.1490   31.2650   50.5770 C   0  0  0  0  0  0  0  0  0  0  0  0
   57.4990   32.3430   50.4760 O   0  0  0  0  0  0  0  0  0  0  0  0
   59.6660   31.2840   50.3310 C   0  0  1  0  0  0  0  0  0  0  0  0
   60.0360   30.8490   48.8740 C   0  0  0  0  0  0  0  0  0  0  0  0
   59.6810   31.8440   47.7620 C   0  0  0  0  0  0  0  0  0  0  0  0
   60.1730   33.2800   48.0480 C   0  0  0  0  0  0  0  0  0  0  0  0
   59.4820   34.2400   47.0510 C   0  0  0  0  0  0  0  0  0  0  0  0
   61.6920   33.3680   47.7970 C   0  0  0  0  0  0  0  0  0  0  0  0
   59.7690   33.7090   49.4900 C   0  0  0  0  0  0  0  0  0  0  0  0
   60.1960   32.7380   50.6410 C   0  0  2  0  0  0  0  0  0  0  0  0
   61.6810   32.7920   51.0920 C   0  0  0  0  0  0  0  0  0  0  0  0
   62.4670   33.8360   50.7680 C   0  0  0  0  0  0  0  0  0  0  0  0
   63.9590   33.7890   50.7850 C   0  0  0  0  0  0  0  0  0  0  0  0
   64.5490   32.4050   51.1640 C   0  0  1  0  0  0  0  0  0  0  0  0
   66.1500   32.4500   51.2550 C   0  0  1  0  0  0  0  0  0  0  0  0
   66.6910   31.0590   50.7680 C   0  0  0  0  0  0  0  0  0  0  0  0
   66.7470   33.4760   50.2220 C   0  0  0  0  0  0  0  0  0  0  0  0
   68.2820   33.6010   50.2350 C   0  0  0  0  0  0  0  0  0  0  0  0
   68.9120   33.4310   51.6250 C   0  0  0  0  0  0  0  0  0  0  0  0
   67.9430   33.7480   52.7970 C   0  0  0  0  0  0  0  0  0  0  0  0
   67.5450   35.2570   52.7660 C   0  0  0  0  0  0  0  0  0  0  0  0
   68.7280   33.4990   54.1090 C   0  0  0  0  0  0  0  0  0  0  0  0
   66.6880   32.7710   52.7280 C   0  0  1  0  0  0  0  0  0  0  0  0
   65.6350   33.1050   53.8450 C   0  0  0  0  0  0  0  0  0  0  0  0
   64.1350   32.8410   53.5930 C   0  0  0  0  0  0  0  0  0  0  0  0
   63.7950   31.8590   52.4330 C   0  0  2  0  0  0  0  0  0  0  0  0
   64.3110   30.4590   52.8830 C   0  0  0  0  0  0  0  0  0  0  0  0
   62.1840   31.7720   52.1330 C   0  0  1  0  0  0  0  0  0  0  0  0
   61.3890   32.0180   53.4540 C   0  0  0  0  0  0  0  0  0  0  0  0
   61.7750   30.3750   51.5650 C   0  0  0  0  0  0  0  0  0  0  0  0
   60.2740   30.2130   51.2880 C   0  0  0  0  0  0  0  0  0  0  0  0
   52.1656   33.1066   52.0596 H   0  0  0  0  0  0  0  0  0  0  0  0
   52.6003   31.9450   50.7603 H   0  0  0  0  0  0  0  0  0  0  0  0
   50.9842   32.7291   50.7603 H   0  0  0  0  0  0  0  0  0  0  0  0
   51.6747   31.2048   53.2387 H   0  0  0  0  0  0  0  0  0  0  0  0
   50.1334   31.2771   52.3045 H   0  0  0  0  0  0  0  0  0  0  0  0
   53.4722   30.1988   50.8216 H   0  0  0  0  0  0  0  0  0  0  0  0
   52.4289   29.1083   49.8474 H   0  0  0  0  0  0  0  0  0  0  0  0
   52.1248   30.8786   49.8474 H   0  0  0  0  0  0  0  0  0  0  0  0
   51.3574   28.8758   53.4507 H   0  0  0  0  0  0  0  0  0  0  0  0
   51.9079   27.8626   52.0188 H   0  0  0  0  0  0  0  0  0  0  0  0
   53.6996   28.1241   53.7057 H   0  0  0  0  0  0  0  0  0  0  0  0
   54.1194   28.8643   52.1194 H   0  0  0  0  0  0  0  0  0  0  0  0
   54.6533   31.8000   52.8044 H   0  0  0  0  0  0  0  0  0  0  0  0
   55.6027   30.8271   53.9934 H   0  0  0  0  0  0  0  0  0  0  0  0
   55.0786   28.9478   52.0565 H   0  0  0  0  0  0  0  0  0  0  0  0
   55.2302   30.4584   51.0717 H   0  0  0  0  0  0  0  0  0  0  0  0
   61.1224   30.6799   48.8394 H   0  0  0  0  0  0  0  0  0  0  0  0
   59.4327   29.9518   48.6713 H   0  0  0  0  0  0  0  0  0  0  0  0
   60.1398   31.4979   46.8241 H   0  0  0  0  0  0  0  0  0  0  0  0
   58.5836   31.8822   47.6968 H   0  0  0  0  0  0  0  0  0  0  0  0
   58.9277   35.0100   47.6077 H   0  0  0  0  0  0  0  0  0  0  0  0
   60.2424   34.7210   46.4182 H   0  0  0  0  0  0  0  0  0  0  0  0
   58.7845   33.6716   46.4182 H   0  0  0  0  0  0  0  0  0  0  0  0
   62.2217   33.3987   48.7606 H   0  0  0  0  0  0  0  0  0  0  0  0
   62.0209   32.4874   47.2257 H   0  0  0  0  0  0  0  0  0  0  0  0
   61.9170   34.2807   47.2257 H   0  0  0  0  0  0  0  0  0  0  0  0
   60.2264   34.6892   49.6899 H   0  0  0  0  0  0  0  0  0  0  0  0
   58.6691   33.7144   49.5000 H   0  0  0  0  0  0  0  0  0  0  0  0
   59.7035   33.1149   51.5495 H   0  0  0  0  0  0  0  0  0  0  0  0
   61.9816   34.7782   50.4737 H   0  0  0  0  0  0  0  0  0  0  0  0
   64.3237   34.0563   49.7822 H   0  0  0  0  0  0  0  0  0  0  0  0
   64.2880   34.4954   51.5614 H   0  0  0  0  0  0  0  0  0  0  0  0
   64.3706   31.6674   50.3677 H   0  0  0  0  0  0  0  0  0  0  0  0
   66.9340   30.4343   51.6402 H   0  0  0  0  0  0  0  0  0  0  0  0
   65.9220   30.5585   50.1613 H   0  0  0  0  0  0  0  0  0  0  0  0
   67.5961   31.2096   50.1613 H   0  0  0  0  0  0  0  0  0  0  0  0
   66.4396   33.1617   49.2137 H   0  0  0  0  0  0  0  0  0  0  0  0
   66.3577   34.4631   50.5121 H   0  0  0  0  0  0  0  0  0  0  0  0
   68.6973   32.8290   49.5705 H   0  0  0  0  0  0  0  0  0  0  0  0
   68.5205   34.6215   49.9008 H   0  0  0  0  0  0  0  0  0  0  0  0
   69.2503   32.3893   51.7271 H   0  0  0  0  0  0  0  0  0  0  0  0
   69.7403   34.1518   51.6910 H   0  0  0  0  0  0  0  0  0  0  0  0
   67.4463   35.6314   53.7956 H   0  0  0  0  0  0  0  0  0  0  0  0
   68.3226   35.8306   52.2403 H   0  0  0  0  0  0  0  0  0  0  0  0
   66.5857   35.3725   52.2403 H   0  0  0  0  0  0  0  0  0  0  0  0
   68.0765   33.7056   54.9709 H   0  0  0  0  0  0  0  0  0  0  0  0
   69.0609   32.4512   54.1439 H   0  0  0  0  0  0  0  0  0  0  0  0
   69.6040   34.1634   54.1439 H   0  0  0  0  0  0  0  0  0  0  0  0
   67.0391   31.7633   52.9951 H   0  0  0  0  0  0  0  0  0  0  0  0
   65.9162   32.5190   54.7324 H   0  0  0  0  0  0  0  0  0  0  0  0
   65.6897   34.2007   53.9257 H   0  0  0  0  0  0  0  0  0  0  0  0
   63.7068   32.4284   54.5184 H   0  0  0  0  0  0  0  0  0  0  0  0
   63.7121   33.8106   53.2913 H   0  0  0  0  0  0  0  0  0  0  0  0
   64.3288   30.4106   53.9818 H   0  0  0  0  0  0  0  0  0  0  0  0
   63.6415   29.6785   52.4924 H   0  0  0  0  0  0  0  0  0  0  0  0
   65.3269   30.2997   52.4924 H   0  0  0  0  0  0  0  0  0  0  0  0
   62.0406   31.8164   54.3170 H   0  0  0  0  0  0  0  0  0  0  0  0
   61.0487   33.0635   53.4878 H   0  0  0  0  0  0  0  0  0  0  0  0
   60.5177   31.3475   53.4878 H   0  0  0  0  0  0  0  0  0  0  0  0
   62.3173   30.2161   50.6212 H   0  0  0  0  0  0  0  0  0  0  0  0
   62.0309   29.6364   52.3390 H   0  0  0  0  0  0  0  0  0  0  0  0
   60.1141   29.2220   50.8382 H   0  0  0  0  0  0  0  0  0  0  0  0
   59.7654   30.3379   52.2554 H   0  0  0  0  0  0  0  0  0  0  0  0
  1  2  1  0
  2  3  1  0
  3  4  1  0
  3  5  1  0
  5  6  1  0
  6  7  1  0
  7  8  1  0
  8  9  1  0
  9 10  1  0
 10 11  1  0
 11 12  1  0
 12 13  2  0
 14 12  1  6
 14 15  1  0
 15 16  1  0
 16 17  1  0
 17 18  1  0
 17 19  1  0
 17 20  1  0
 20 21  1  0
 21 22  1  0
 22 23  2  0
 23 24  1  0
 24 25  1  0
 25 26  1  0
 26 27  1  6
 26 28  1  0
 28 29  1  0
 29 30  1  0
 30 31  1  0
 31 32  1  0
 31 33  1  0
 31 34  1  0
 34 35  1  0
 35 36  1  0
 36 37  1  0
 37 38  1  1
 37 39  1  0
 39 40  1  1
 39 41  1  0
 41 42  1  0
 21 14  1  0
 39 22  1  0
 42 14  1  0
 37 25  1  0
 34 26  1  0
  1 43  1  0
  1 44  1  0
  1 45  1  0
  2 46  1  0
  2 47  1  0
  4 48  1  0
  4 49  1  0
  4 50  1  0
  5 51  1  0
  5 52  1  0
  6 53  1  0
  6 54  1  0
  8 55  1  0
  8 56  1  0
  9 57  1  0
  9 58  1  0
 15 59  1  0
 15 60  1  0
 16 61  1  0
 16 62  1  0
 18 63  1  0
 18 64  1  0
 18 65  1  0
 19 66  1  0
 19 67  1  0
 19 68  1  0
 20 69  1  0
 20 70  1  0
 21 71  1  1
 23 72  1  0
 24 73  1  0
 24 74  1  0
 25 75  1  6
 27 76  1  0
 27 77  1  0
 27 78  1  0
 28 79  1  0
 28 80  1  0
 29 81  1  0
 29 82  1  0
 30 83  1  0
 30 84  1  0
 32 85  1  0
 32 86  1  0
 32 87  1  0
 33 88  1  0
 33 89  1  0
 33 90  1  0
 34 91  1  1
 35 92  1  0
 35 93  1  0
 36 94  1  0
 36 95  1  0
 38 96  1  0
 38 97  1  0
 38 98  1  0
 40 99  1  0
 40100  1  0
 40101  1  0
 41102  1  0
 41103  1  0
 42104  1  0
 42105  1  0
M  CHG  1  11  -1
M  END
>  <UniqueID>  (22) 
22

>  <SMILES>  (22) 
CCN(C)CCOCCO[N-]C(=O)[C@@]12CCC(C)(C)C[C@@H]1C1=CCC3C4(C)CCCC(C)(C)C4CCC3(C)C1(C)CC2

>  <Energy>  (22) 
199.33188769806097

>  <Genealogy>  (22) 
CCN(C)CCOCCO[N-]C(=O)C12CCC(C)(C)CC1C1=CCC3C4(C)CCCC(C)(C)C4CCC3(C)C1(C)CC2 (protonated)
CCN(C)CCOCCO[N-]C(=O)[C@@]12CCC(C)(C)C[C@@H]1C1=CCC3C4(C)CCCC(C)(C)C4CCC3(C)C1(C)CC2 (chirality)
CCN(C)CCOCCO[N-]C(=O)[C@@]12CCC(C)(C)C[C@@H]1C1=CCC3C4(C)CCCC(C)(C)C4CCC3(C)C1(C)CC2 (3D coordinates assigned)
CCN(C)CCOCCO[N-]C(=O)[C@@]12CCC(C)(C)C[C@@H]1C1=CCC3C4(C)CCCC(C)(C)C4CCC3(C)C1(C)CC2 (nonaromatic ring conformer: 199.33188769806097 kcal/mol)

>  <smiles>  (22) 
CCN(C)CCOCCONC(=O)C12CCC(C)(C)CC1C1=CCC3C4(C)CCCC(C)(C)C4CCC3(C)C1(C)CC2

>  <score_type>  (22) 
oracle

>  <origin>  (22) 
adg

>  <m_score__min__energy>  (22) 
-9.8300000000000001

>  <m_primary>  (22) 
energy

$$$$
22:0
     RDKit          3D

 53 54  0  0  0  0  0  0  0  0999 V2000
   57.0690   21.3640   43.1290 C   0  0  0  0  0  0  0  0  0  0  0  0
   56.4990   22.2050   44.2660 C   0  0  0  0  0  0  0  0  0  0  0  0
   55.9450   23.4690   43.7380 N   0  0  0  0  0  0  0  0  0  0  0  0
   56.9990   24.4290   43.3750 C   0  0  0  0  0  0  0  0  0  0  0  0
   54.8910   24.0600   44.5960 C   0  0  0  0  0  0  0  0  0  0  0  0
   55.3720   24.4920   45.9980 C   0  0  0  0  0  0  0  0  0  0  0  0
   55.5240   25.8990   46.0480 O   0  0  0  0  0  0  0  0  0  0  0  0
   56.8870   26.2740   45.9500 C   0  0  0  0  0  0  0  0  0  0  0  0
   57.0140   27.8000   45.8890 C   0  0  0  0  0  0  0  0  0  0  0  0
   55.8980   28.3680   45.2430 O   0  0  0  0  0  0  0  0  0  0  0  0
   56.1470   29.7010   45.1300 N   0  0  0  0  0  0  0  0  0  0  0  0
   56.5640   29.9610   43.7540 C   0  0  0  0  0  0  0  0  0  0  0  0
   57.3430   31.2760   43.6820 C   0  0  0  0  0  0  0  0  0  0  0  0
   57.2300   32.0090   44.9400 N   0  0  0  0  0  0  0  0  0  0  0  0
   58.2270   32.9390   45.3760 C   0  0  0  0  0  0  0  0  0  0  0  0
   59.2840   32.6000   46.1440 N   0  0  0  0  0  0  0  0  0  0  0  0
   60.0800   33.6710   46.4190 C   0  0  0  0  0  0  0  0  0  0  0  0
   61.3030   33.5300   47.2520 C   0  0  0  0  0  0  0  0  0  0  0  0
   61.1870   33.4260   48.6520 C   0  0  0  0  0  0  0  0  0  0  0  0
   62.3250   33.2920   49.4530 C   0  0  0  0  0  0  0  0  0  0  0  0
   63.5930   33.2520   48.8680 C   0  0  0  0  0  0  0  0  0  0  0  0
   65.1470   33.0660   49.9640 Br  0  0  0  0  0  0  0  0  0  0  0  0
   63.7230   33.3470   47.4800 C   0  0  0  0  0  0  0  0  0  0  0  0
   62.5880   33.4850   46.6760 C   0  0  0  0  0  0  0  0  0  0  0  0
   59.6380   34.8760   45.8620 C   0  0  0  0  0  0  0  0  0  0  0  0
   58.2200   34.5740   45.0070 S   0  0  0  0  0  0  0  0  0  0  0  0
   57.6399   20.5216   43.5466 H   0  0  0  0  0  0  0  0  0  0  0  0
   56.2457   20.9779   42.5101 H   0  0  0  0  0  0  0  0  0  0  0  0
   57.7326   21.9857   42.5101 H   0  0  0  0  0  0  0  0  0  0  0  0
   55.7005   21.6409   44.7701 H   0  0  0  0  0  0  0  0  0  0  0  0
   57.3036   22.4363   44.9795 H   0  0  0  0  0  0  0  0  0  0  0  0
   57.4509   24.8406   44.2896 H   0  0  0  0  0  0  0  0  0  0  0  0
   57.7719   23.9181   42.7820 H   0  0  0  0  0  0  0  0  0  0  0  0
   56.5623   25.2461   42.7820 H   0  0  0  0  0  0  0  0  0  0  0  0
   54.4878   24.9458   44.0834 H   0  0  0  0  0  0  0  0  0  0  0  0
   54.1386   23.2731   44.7529 H   0  0  0  0  0  0  0  0  0  0  0  0
   54.6317   24.1791   46.7491 H   0  0  0  0  0  0  0  0  0  0  0  0
   56.3418   24.0173   46.2081 H   0  0  0  0  0  0  0  0  0  0  0  0
   57.4309   25.8992   46.8296 H   0  0  0  0  0  0  0  0  0  0  0  0
   57.3126   25.8419   45.0324 H   0  0  0  0  0  0  0  0  0  0  0  0
   57.0798   28.1979   46.9124 H   0  0  0  0  0  0  0  0  0  0  0  0
   57.9199   28.0567   45.3203 H   0  0  0  0  0  0  0  0  0  0  0  0
   56.9570   29.9100   45.7590 H   0  0  0  0  0  0  0  0  0  0  0  0
   57.2058   29.1381   43.4064 H   0  0  0  0  0  0  0  0  0  0  0  0
   55.6720   30.0347   43.1145 H   0  0  0  0  0  0  0  0  0  0  0  0
   58.4029   31.0581   43.4843 H   0  0  0  0  0  0  0  0  0  0  0  0
   56.9244   31.8927   42.8730 H   0  0  0  0  0  0  0  0  0  0  0  0
   56.4220   31.8070   45.5710 H   0  0  0  0  0  0  0  0  0  0  0  0
   60.1916   33.4504   49.1195 H   0  0  0  0  0  0  0  0  0  0  0  0
   62.2218   33.2179   50.5456 H   0  0  0  0  0  0  0  0  0  0  0  0
   64.7211   33.3131   47.0189 H   0  0  0  0  0  0  0  0  0  0  0  0
   62.6990   33.5591   45.5841 H   0  0  0  0  0  0  0  0  0  0  0  0
   60.1324   35.8532   45.9652 H   0  0  0  0  0  0  0  0  0  0  0  0
  1  2  1  0
  2  3  1  0
  3  4  1  0
  3  5  1  0
  5  6  1  0
  6  7  1  0
  7  8  1  0
  8  9  1  0
  9 10  1  0
 10 11  1  0
 11 12  1  0
 12 13  1  0
 13 14  1  0
 14 15  1  0
 15 16  2  0
 16 17  1  0
 17 18  1  0
 18 19  2  0
 19 20  1  0
 20 21  2  0
 21 22  1  0
 21 23  1  0
 23 24  2  0
 17 25  2  0
 25 26  1  0
 26 15  1  0
 24 18  1  0
  1 27  1  0
  1 28  1  0
  1 29  1  0
  2 30  1  0
  2 31  1  0
  4 32  1  0
  4 33  1  0
  4 34  1  0
  5 35  1  0
  5 36  1  0
  6 37  1  0
  6 38  1  0
  8 39  1  0
  8 40  1  0
  9 41  1  0
  9 42  1  0
 11 43  1  0
 12 44  1  0
 12 45  1  0
 13 46  1  0
 13 47  1  0
 14 48  1  0
 19 49  1  0
 20 50  1  0
 23 51  1  0
 24 52  1  0
 25 53  1  0
M  END
>  <UniqueID>  (23) 
23

>  <SMILES>  (23) 
CCN(C)CCOCCONCCNc1nc(-c2ccc(Br)cc2)cs1

>  <Energy>  (23) 
79.88534662133925

>  <Genealogy>  (23) 
CCN(C)CCOCCONCCNc1nc(-c2ccc(Br)cc2)cs1 (3D coordinates assigned)
CCN(C)CCOCCONCCNc1nc(-c2ccc(Br)cc2)cs1 (optimized conformer: 79.88534662133925 kcal/mol)

>  <smiles>  (23) 
CCN(C)CCOCCONCCNc1nc(-c2ccc(Br)cc2)cs1

>  <score_type>  (23) 
oracle

>  <origin>  (23) 
adg

>  <m_score__min__energy>  (23) 
-8.2799999999999994

>  <m_primary>  (23) 
energy

$$$$
23:0
     RDKit          3D

 51 53  0  0  0  0  0  0  0  0999 V2000
   57.0560   31.1190   43.2820 C   0  0  0  0  0  0  0  0  0  0  0  0
   55.9660   30.1140   43.6220 C   0  0  0  0  0  0  0  0  0  0  0  0
   56.3610   29.3640   44.7570 O   0  0  0  0  0  0  0  0  0  0  0  0
   57.0330   28.2350   44.3590 N   0  0  0  0  0  0  0  0  0  0  0  0
   58.4630   28.4120   44.6490 C   0  0  0  0  0  0  0  0  0  0  0  0
   58.9300   27.5450   45.8340 C   0  0  0  0  0  0  0  0  0  0  0  0
   59.9370   28.2290   46.7760 C   0  0  0  0  0  0  0  0  0  0  0  0
   59.6350   27.9780   48.2580 C   0  0  0  0  0  0  0  0  0  0  0  0
   59.4570   29.2450   48.9630 N   0  0  0  0  0  0  0  0  0  0  0  0
   60.2920   30.3820   48.6830 C   0  0  0  0  0  0  0  0  0  0  0  0
   61.5010   30.5630   49.3770 C   0  0  0  0  0  0  0  0  0  0  0  0
   61.8610   29.7040   50.4370 C   0  0  0  0  0  0  0  0  0  0  0  0
   63.0390   29.9080   51.1490 C   0  0  0  0  0  0  0  0  0  0  0  0
   63.8660   30.9800   50.8340 C   0  0  0  0  0  0  0  0  0  0  0  0
   63.5280   31.8470   49.7960 C   0  0  0  0  0  0  0  0  0  0  0  0
   62.3520   31.6450   49.0270 C   0  0  0  0  0  0  0  0  0  0  0  0
   62.0160   32.4820   47.9790 N   0  0  0  0  0  0  0  0  0  0  0  0
   63.0210   33.4180   47.4270 C   0  0  0  0  0  0  0  0  0  0  0  0
   60.7470   32.4300   47.4340 C   0  0  0  0  0  0  0  0  0  0  0  0
   60.2670   33.4380   46.5590 C   0  0  0  0  0  0  0  0  0  0  0  0
   59.0050   33.3420   45.9680 C   0  0  0  0  0  0  0  0  0  0  0  0
   58.4450   34.6020   44.8820 Cl  0  0  0  0  0  0  0  0  0  0  0  0
   58.1880   32.2510   46.2450 C   0  0  0  0  0  0  0  0  0  0  0  0
   58.6130   31.2680   47.1320 C   0  0  0  0  0  0  0  0  0  0  0  0
   59.8770   31.3530   47.7540 C   0  0  0  0  0  0  0  0  0  0  0  0
   57.4892   31.5184   44.2109 H   0  0  0  0  0  0  0  0  0  0  0  0
   57.8424   30.6224   42.6946 H   0  0  0  0  0  0  0  0  0  0  0  0
   56.6247   31.9430   42.6946 H   0  0  0  0  0  0  0  0  0  0  0  0
   55.0293   30.6474   43.8414 H   0  0  0  0  0  0  0  0  0  0  0  0
   55.8081   29.4377   42.7690 H   0  0  0  0  0  0  0  0  0  0  0  0
   56.9070   28.1690   43.3230 H   0  0  0  0  0  0  0  0  0  0  0  0
   56.6670   27.3440   44.7810 H   0  0  0  0  0  0  0  0  0  0  0  0
   59.0423   28.1331   43.7565 H   0  0  0  0  0  0  0  0  0  0  0  0
   58.6242   29.4662   44.9187 H   0  0  0  0  0  0  0  0  0  0  0  0
   58.0445   27.2659   46.4239 H   0  0  0  0  0  0  0  0  0  0  0  0
   59.4513   26.6798   45.3985 H   0  0  0  0  0  0  0  0  0  0  0  0
   60.9431   27.8442   46.5530 H   0  0  0  0  0  0  0  0  0  0  0  0
   59.8652   29.3131   46.6041 H   0  0  0  0  0  0  0  0  0  0  0  0
   58.7141   27.3826   48.3445 H   0  0  0  0  0  0  0  0  0  0  0  0
   60.4796   27.4352   48.7074 H   0  0  0  0  0  0  0  0  0  0  0  0
   58.6000   29.3780   49.5460 H   0  0  0  0  0  0  0  0  0  0  0  0
   61.2031   28.8637   50.7035 H   0  0  0  0  0  0  0  0  0  0  0  0
   63.3160   29.2205   51.9617 H   0  0  0  0  0  0  0  0  0  0  0  0
   64.7909   31.1448   51.4061 H   0  0  0  0  0  0  0  0  0  0  0  0
   64.1829   32.7012   49.5692 H   0  0  0  0  0  0  0  0  0  0  0  0
   63.5530   33.9135   48.2525 H   0  0  0  0  0  0  0  0  0  0  0  0
   63.7406   32.8608   46.8091 H   0  0  0  0  0  0  0  0  0  0  0  0
   62.5163   34.1753   46.8091 H   0  0  0  0  0  0  0  0  0  0  0  0
   60.9000   34.3110   46.3420 H   0  0  0  0  0  0  0  0  0  0  0  0
   57.2037   32.1656   45.7614 H   0  0  0  0  0  0  0  0  0  0  0  0
   57.9559   30.4136   47.3516 H   0  0  0  0  0  0  0  0  0  0  0  0
  1  2  1  0
  2  3  1  0
  3  4  1  0
  4  5  1  0
  5  6  1  0
  6  7  1  0
  7  8  1  0
  8  9  1  0
  9 10  1  0
 10 11  2  0
 11 12  1  0
 12 13  2  0
 13 14  1  0
 14 15  2  0
 15 16  1  0
 16 17  2  0
 17 18  1  0
 17 19  1  0
 19 20  2  0
 20 21  1  0
 21 22  1  0
 21 23  2  0
 23 24  1  0
 24 25  2  0
 25 10  1  0
 16 11  1  0
 25 19  1  0
  1 26  1  0
  1 27  1  0
  1 28  1  0
  2 29  1  0
  2 30  1  0
  4 31  1  0
  4 32  1  0
  5 33  1  0
  5 34  1  0
  6 35  1  0
  6 36  1  0
  7 37  1  0
  7 38  1  0
  8 39  1  0
  8 40  1  0
  9 41  1  0
 12 42  1  0
 13 43  1  0
 14 44  1  0
 15 45  1  0
 18 46  1  0
 18 47  1  0
 18 48  1  0
 20 49  1  0
 23 50  1  0
 24 51  1  0
M  CHG  2   4   1  17   1
M  END
>  <UniqueID>  (24) 
24

>  <SMILES>  (24) 
CCO[NH2+]CCCCNc1c2ccccc2[n+](C)c2cc(Cl)ccc12

>  <Energy>  (24) 
75.07526615978928

>  <Genealogy>  (24) 
CCO[NH2+]CCCCNc1c2ccccc2[n+](C)c2cc(Cl)ccc12 (protonated)
CCO[NH2+]CCCCNc1c2ccccc2[n+](C)c2cc(Cl)ccc12 (3D coordinates assigned)
CCO[NH2+]CCCCNc1c2ccccc2[n+](C)c2cc(Cl)ccc12 (optimized conformer: 75.07526615978928 kcal/mol)

>  <smiles>  (24) 
CCONCCCCNc1c2ccccc2[n+](C)c2cc(Cl)ccc12

>  <score_type>  (24) 
oracle

>  <origin>  (24) 
adg

>  <m_score__min__energy>  (24) 
-4.5099999999999998

>  <m_primary>  (24) 
energy

$$$$
