0:0
     RDKit          3D

 61 63  0  0  0  0  0  0  0  0999 V2000
   57.6509   31.1466   42.8526 H   0  0  0  0  0  0  0  0  0  0  0  0
   57.3370   31.7220   43.7360 C   0  0  0  0  0  0  0  0  0  0  0  0
   56.5670   31.1780   44.6230 N   0  0  0  0  0  0  0  0  0  0  0  0
   56.4910   29.7670   44.8670 C   0  0  0  0  0  0  0  0  0  0  0  0
   55.4440   29.1220   44.5740 O   0  0  0  0  0  0  0  0  0  0  0  0
   57.6750   29.0770   45.5140 C   0  0  1  0  0  0  0  0  0  0  0  0
   57.2856   28.9237   46.5313 H   0  0  0  0  0  0  0  0  0  0  0  0
   58.0830   27.7040   44.8780 C   0  0  0  0  0  0  0  0  0  0  0  0
   59.4960   27.6470   45.0300 O   0  0  0  0  0  0  0  0  0  0  0  0
   60.0130   28.8770   45.3800 C   0  0  0  0  0  0  0  0  0  0  0  0
   61.2470   29.0810   45.5200 O   0  0  0  0  0  0  0  0  0  0  0  0
   58.9760   29.9240   45.5210 C   0  0  2  0  0  0  0  0  0  0  0  0
   59.0033   30.6917   44.7336 H   0  0  0  0  0  0  0  0  0  0  0  0
   59.1470   30.7360   46.8040 C   0  0  0  0  0  0  0  0  0  0  0  0
   59.0086   30.0787   47.6751 H   0  0  0  0  0  0  0  0  0  0  0  0
   60.1566   31.1718   46.8303 H   0  0  0  0  0  0  0  0  0  0  0  0
   58.3989   31.5420   46.8303 H   0  0  0  0  0  0  0  0  0  0  0  0
   57.7390   27.5100   43.3960 C   0  0  0  0  0  0  0  0  0  0  0  0
   56.7357   27.9038   43.1762 H   0  0  0  0  0  0  0  0  0  0  0  0
   58.4363   28.0445   42.7341 H   0  0  0  0  0  0  0  0  0  0  0  0
   57.7830   26.0000   43.1810 C   0  0  0  0  0  0  0  0  0  0  0  0
   56.9831   25.6914   42.4918 H   0  0  0  0  0  0  0  0  0  0  0  0
   58.7415   25.6902   42.7390 H   0  0  0  0  0  0  0  0  0  0  0  0
   57.5750   25.3570   44.5520 C   0  0  0  0  0  0  0  0  0  0  0  0
   56.6569   24.7512   44.5502 H   0  0  0  0  0  0  0  0  0  0  0  0
   58.4150   24.6942   44.8073 H   0  0  0  0  0  0  0  0  0  0  0  0
   57.4510   26.4940   45.5610 C   0  0  0  0  0  0  0  0  0  0  0  0
   56.3939   26.6903   45.7933 H   0  0  0  0  0  0  0  0  0  0  0  0
   57.9453   26.2544   46.5140 H   0  0  0  0  0  0  0  0  0  0  0  0
   57.8000   33.1340   43.9130 C   0  0  0  0  0  0  0  0  0  0  0  0
   57.6450   33.6848   42.9735 H   0  0  0  0  0  0  0  0  0  0  0  0
   58.8672   33.1244   44.1796 H   0  0  0  0  0  0  0  0  0  0  0  0
   57.0790   33.7730   44.9500 O   0  0  0  0  0  0  0  0  0  0  0  0
   57.9120   34.0440   46.0630 C   0  0  0  0  0  0  0  0  0  0  0  0
   57.7863   33.2462   46.8098 H   0  0  0  0  0  0  0  0  0  0  0  0
   57.6249   35.0168   46.4886 H   0  0  0  0  0  0  0  0  0  0  0  0
   59.3860   34.1090   45.6400 C   0  0  0  0  0  0  0  0  0  0  0  0
   59.6308   35.1348   45.3272 H   0  0  0  0  0  0  0  0  0  0  0  0
   59.5536   33.4151   44.8031 H   0  0  0  0  0  0  0  0  0  0  0  0
   60.2530   33.7220   46.7750 N   0  0  0  0  0  0  0  0  0  0  0  0
   61.6800   33.6380   46.3780 C   0  0  0  0  0  0  0  0  0  0  0  0
   61.7702   32.9997   45.4867 H   0  0  0  0  0  0  0  0  0  0  0  0
   62.0473   34.6515   46.1593 H   0  0  0  0  0  0  0  0  0  0  0  0
   62.5070   33.0520   47.4920 C   0  0  0  0  0  0  0  0  0  0  0  0
   62.1270   31.8410   48.0970 C   0  0  0  0  0  0  0  0  0  0  0  0
   61.2035   31.3349   47.7793 H   0  0  0  0  0  0  0  0  0  0  0  0
   62.9200   31.2790   49.1010 C   0  0  0  0  0  0  0  0  0  0  0  0
   62.6207   30.3315   49.5728 H   0  0  0  0  0  0  0  0  0  0  0  0
   64.0950   31.9220   49.5060 C   0  0  0  0  0  0  0  0  0  0  0  0
   64.7215   31.4777   50.2935 H   0  0  0  0  0  0  0  0  0  0  0  0
   64.4730   33.1290   48.9100 C   0  0  0  0  0  0  0  0  0  0  0  0
   65.3966   33.6334   49.2303 H   0  0  0  0  0  0  0  0  0  0  0  0
   63.6810   33.6960   47.9090 C   0  0  0  0  0  0  0  0  0  0  0  0
   63.9785   34.6490   47.4471 H   0  0  0  0  0  0  0  0  0  0  0  0
   60.0180   34.5570   47.9770 C   0  0  0  0  0  0  0  0  0  0  0  0
   59.1859   35.2438   47.7626 H   0  0  0  0  0  0  0  0  0  0  0  0
   60.9614   35.0826   48.1861 H   0  0  0  0  0  0  0  0  0  0  0  0
   59.6680   33.7550   49.2440 C   0  0  0  0  0  0  0  0  0  0  0  0
   59.9260   34.3461   50.1351 H   0  0  0  0  0  0  0  0  0  0  0  0
   58.5908   33.5322   49.2510 H   0  0  0  0  0  0  0  0  0  0  0  0
   60.2372   32.8137   49.2510 H   0  0  0  0  0  0  0  0  0  0  0  0
  1  2  1  0
  2  3  2  0
  3  4  1  0
  4  5  2  0
  4  6  1  0
  6  7  1  1
  6  8  1  0
  8  9  1  0
  9 10  1  0
 10 11  2  0
 10 12  1  0
 12 13  1  6
 12 14  1  0
 14 15  1  0
 14 16  1  0
 14 17  1  0
  8 18  1  0
 18 19  1  0
 18 20  1  0
 18 21  1  0
 21 22  1  0
 21 23  1  0
 21 24  1  0
 24 25  1  0
 24 26  1  0
 24 27  1  0
 27 28  1  0
 27 29  1  0
  2 30  1  0
 30 31  1  0
 30 32  1  0
 30 33  1  0
 33 34  1  0
 34 35  1  0
 34 36  1  0
 34 37  1  0
 37 38  1  0
 37 39  1  0
 37 40  1  0
 40 41  1  0
 41 42  1  0
 41 43  1  0
 41 44  1  0
 44 45  2  0
 45 46  1  0
 45 47  1  0
 47 48  1  0
 47 49  2  0
 49 50  1  0
 49 51  1  0
 51 52  1  0
 51 53  2  0
 53 54  1  0
 40 55  1  0
 55 56  1  0
 55 57  1  0
 55 58  1  0
 58 59  1  0
 58 60  1  0
 58 61  1  0
 12  6  1  0
 53 44  1  0
 27  8  1  0
M  END
>  <UniqueID>  (1) 
1

>  <SMILES>  (1) 
CCN(CCOC/C=N/C(=O)[C@@H]1[C@@H](C)C(=O)OC12CCCC2)Cc1ccccc1

>  <Energy>  (1) 
72.53136355253544

>  <Genealogy>  (1) 
CCN(CCOCC=NC(=O)[C@@H]1[C@@H](C)C(=O)OC12CCCC2)Cc1ccccc1 (chirality)
CCN(CCOC/C=N/C(=O)[C@@H]1[C@@H](C)C(=O)OC12CCCC2)Cc1ccccc1 (cis-trans isomerization)
CCN(CCOC/C=N/C(=O)[C@@H]1[C@@H](C)C(=O)OC12CCCC2)Cc1ccccc1 (3D coordinates assigned)
CCN(CCOC/C=N/C(=O)[C@@H]1[C@@H](C)C(=O)OC12CCCC2)Cc1ccccc1 (nonaromatic ring conformer: 72.53136355253544 kcal/mol)

>  <smiles>  (1) 
CCN(CCOCC=NC(=O)C1C(C)C(=O)OC12CCCC2)Cc1ccccc1

>  <score_type>  (1) 
oracle

>  <origin>  (1) 
adg

>  <m_score__min__energy>  (1) 
-8.8800000000000008

>  <m_primary>  (1) 
energy

$$$$
1:0
     RDKit          3D

 33 35  0  0  0  0  0  0  0  0999 V2000
   59.6920   35.3320   45.8270 C   0  0  0  0  0  0  0  0  0  0  0  0
   58.9140   34.0890   45.5100 C   0  0  0  0  0  0  0  0  0  0  0  0
   58.7040   33.7730   44.2030 N   0  0  0  0  0  0  0  0  0  0  0  0
   58.0130   32.6630   43.8390 C   0  0  0  0  0  0  0  0  0  0  0  0
   57.8080   32.3590   42.4880 C   0  0  0  0  0  0  0  0  0  0  0  0
   57.0930   31.2100   42.1330 C   0  0  0  0  0  0  0  0  0  0  0  0
   56.5840   30.3640   43.1260 C   0  0  0  0  0  0  0  0  0  0  0  0
   56.7870   30.6640   44.4780 C   0  0  0  0  0  0  0  0  0  0  0  0
   57.5020   31.8120   44.8360 C   0  0  0  0  0  0  0  0  0  0  0  0
   57.7070   32.1220   46.1410 N   0  0  0  0  0  0  0  0  0  0  0  0
   58.3950   33.2360   46.5160 C   0  0  0  0  0  0  0  0  0  0  0  0
   58.5420   33.5140   47.9880 C   0  0  0  0  0  0  0  0  0  0  0  0
   59.2570   32.0700   48.8520 S   0  0  0  0  0  0  0  0  0  0  0  0
   60.9550   32.4220   48.3710 C   0  0  0  0  0  0  0  0  0  0  0  0
   61.6200   33.5030   48.9690 C   0  0  0  0  0  0  0  0  0  0  0  0
   62.9330   33.8110   48.6050 C   0  0  0  0  0  0  0  0  0  0  0  0
   63.5940   33.0340   47.6510 C   0  0  0  0  0  0  0  0  0  0  0  0
   62.9450   31.9460   47.0610 C   0  0  0  0  0  0  0  0  0  0  0  0
   61.6280   31.6320   47.4180 C   0  0  0  0  0  0  0  0  0  0  0  0
   60.7850   30.1310   46.5750 Br  0  0  0  0  0  0  0  0  0  0  0  0
   59.7659   35.4500   46.9181 H   0  0  0  0  0  0  0  0  0  0  0  0
   60.7016   35.2522   45.3976 H   0  0  0  0  0  0  0  0  0  0  0  0
   59.1790   36.2052   45.3976 H   0  0  0  0  0  0  0  0  0  0  0  0
   58.2083   33.0222   41.7070 H   0  0  0  0  0  0  0  0  0  0  0  0
   56.9304   30.9707   41.0717 H   0  0  0  0  0  0  0  0  0  0  0  0
   56.0231   29.4612   42.8427 H   0  0  0  0  0  0  0  0  0  0  0  0
   56.3855   29.9990   45.2568 H   0  0  0  0  0  0  0  0  0  0  0  0
   59.2037   34.3817   48.1270 H   0  0  0  0  0  0  0  0  0  0  0  0
   57.5471   33.7204   48.4093 H   0  0  0  0  0  0  0  0  0  0  0  0
   61.1052   34.1106   49.7278 H   0  0  0  0  0  0  0  0  0  0  0  0
   63.4464   34.6656   49.0698 H   0  0  0  0  0  0  0  0  0  0  0  0
   64.6272   33.2788   47.3636 H   0  0  0  0  0  0  0  0  0  0  0  0
   63.4708   31.3340   46.3133 H   0  0  0  0  0  0  0  0  0  0  0  0
  1  2  1  0
  2  3  2  0
  3  4  1  0
  4  5  2  0
  5  6  1  0
  6  7  2  0
  7  8  1  0
  8  9  2  0
  9 10  1  0
 10 11  2  0
 11 12  1  0
 12 13  1  0
 13 14  1  0
 14 15  2  0
 15 16  1  0
 16 17  2  0
 17 18  1  0
 18 19  2  0
 19 20  1  0
 11  2  1  0
 19 14  1  0
  9  4  1  0
  1 21  1  0
  1 22  1  0
  1 23  1  0
  5 24  1  0
  6 25  1  0
  7 26  1  0
  8 27  1  0
 12 28  1  0
 12 29  1  0
 15 30  1  0
 16 31  1  0
 17 32  1  0
 18 33  1  0
M  END
>  <UniqueID>  (2) 
2

>  <SMILES>  (2) 
Cc1nc2ccccc2nc1CSc1ccccc1Br

>  <Energy>  (2) 
34.63995055334615

>  <Genealogy>  (2) 
Cc1nc2ccccc2nc1CSc1ccccc1Br (3D coordinates assigned)
Cc1nc2ccccc2nc1CSc1ccccc1Br (optimized conformer: 34.63995055334615 kcal/mol)

>  <smiles>  (2) 
Cc1nc2ccccc2nc1CSc1ccccc1Br

>  <score_type>  (2) 
oracle

>  <origin>  (2) 
adg

>  <m_score__min__energy>  (2) 
-8.4499999999999993

>  <m_primary>  (2) 
energy

$$$$
2:0
     RDKit          3D

 61 64  0  0  0  0  0  0  0  0999 V2000
   57.7390   25.8920   43.0430 C   0  0  0  0  0  0  0  0  0  0  0  0
   57.8190   27.3570   42.6250 C   0  0  0  0  0  0  0  0  0  0  0  0
   57.6820   28.2320   43.7940 N   0  0  0  0  0  0  0  0  0  0  0  0
   58.3380   27.9110   45.0310 C   0  0  0  0  0  0  0  0  0  0  0  0
   59.7120   28.1480   45.1820 C   0  0  0  0  0  0  0  0  0  0  0  0
   60.3560   27.8220   46.3790 C   0  0  0  0  0  0  0  0  0  0  0  0
   59.6400   27.2530   47.4400 C   0  0  0  0  0  0  0  0  0  0  0  0
   60.3340   26.9360   48.6170 O   0  0  0  0  0  0  0  0  0  0  0  0
   60.7200   27.8870   49.6030 C   0  0  0  0  0  0  0  0  0  0  0  0
   58.2600   27.0190   47.2890 C   0  0  0  0  0  0  0  0  0  0  0  0
   57.6160   27.3470   46.0920 C   0  0  0  0  0  0  0  0  0  0  0  0
   56.6450   29.6220   43.6950 S   0  0  0  0  0  0  0  0  0  0  0  0
   56.3250   29.9430   42.2620 O   0  0  0  0  0  0  0  0  0  0  0  0
   55.3600   29.3310   44.4200 O   0  0  0  0  0  0  0  0  0  0  0  0
   57.4710   30.9970   44.4140 C   0  0  0  0  0  0  0  0  0  0  0  0
   57.6820   32.1860   43.6700 C   0  0  0  0  0  0  0  0  0  0  0  0
   58.3410   33.2840   44.2530 C   0  0  0  0  0  0  0  0  0  0  0  0
   58.7680   33.1630   45.5730 C   0  0  0  0  0  0  0  0  0  0  0  0
   59.4100   34.0520   46.2880 O   0  0  0  0  0  0  0  0  0  0  0  0
   59.6220   33.5380   47.4850 C   0  0  0  0  0  0  0  0  0  0  0  0
   60.3770   34.2140   48.5630 C   0  0  0  0  0  0  0  0  0  0  0  0
   59.7160   34.9000   49.3930 O   0  0  0  0  0  0  0  0  0  0  0  0
   61.8230   34.1320   48.7190 N   0  0  0  0  0  0  0  0  0  0  0  0
   62.5660   33.8960   47.4530 C   0  0  0  0  0  0  0  0  0  0  0  0
   62.8070   32.4160   47.1180 C   0  0  0  0  0  0  0  0  0  0  0  0
   63.3610   31.6510   48.3160 C   0  0  0  0  0  0  0  0  0  0  0  0
   62.4540   31.8150   49.5300 C   0  0  0  0  0  0  0  0  0  0  0  0
   62.2470   33.2960   49.8690 C   0  0  0  0  0  0  0  0  0  0  0  0
   59.0850   32.2490   47.5500 C   0  0  0  0  0  0  0  0  0  0  0  0
   59.1360   31.2850   48.6970 C   0  0  0  0  0  0  0  0  0  0  0  0
   58.5510   32.0230   46.2990 C   0  0  0  0  0  0  0  0  0  0  0  0
   57.9080   30.9130   45.7520 C   0  0  0  0  0  0  0  0  0  0  0  0
   57.7353   25.8236   44.1409 H   0  0  0  0  0  0  0  0  0  0  0  0
   56.8152   25.4470   42.6448 H   0  0  0  0  0  0  0  0  0  0  0  0
   58.6088   25.3490   42.6448 H   0  0  0  0  0  0  0  0  0  0  0  0
   58.7907   27.5440   42.1446 H   0  0  0  0  0  0  0  0  0  0  0  0
   57.0011   27.5718   41.9215 H   0  0  0  0  0  0  0  0  0  0  0  0
   60.2853   28.5923   44.3550 H   0  0  0  0  0  0  0  0  0  0  0  0
   61.4336   28.0138   46.4887 H   0  0  0  0  0  0  0  0  0  0  0  0
   60.5492   27.4663   50.6049 H   0  0  0  0  0  0  0  0  0  0  0  0
   61.7868   28.1271   49.4831 H   0  0  0  0  0  0  0  0  0  0  0  0
   60.1223   28.8027   49.4831 H   0  0  0  0  0  0  0  0  0  0  0  0
   57.6859   26.5762   48.1163 H   0  0  0  0  0  0  0  0  0  0  0  0
   56.5373   27.1615   45.9823 H   0  0  0  0  0  0  0  0  0  0  0  0
   57.3281   32.2501   42.6304 H   0  0  0  0  0  0  0  0  0  0  0  0
   58.5136   34.2093   43.6838 H   0  0  0  0  0  0  0  0  0  0  0  0
   62.1070   35.1050   48.9920 H   0  0  0  0  0  0  0  0  0  0  0  0
   61.9914   34.3448   46.6294 H   0  0  0  0  0  0  0  0  0  0  0  0
   63.5588   34.3509   47.5852 H   0  0  0  0  0  0  0  0  0  0  0  0
   61.8539   31.9595   46.8129 H   0  0  0  0  0  0  0  0  0  0  0  0
   63.5463   32.3636   46.3051 H   0  0  0  0  0  0  0  0  0  0  0  0
   63.4320   30.5834   48.0606 H   0  0  0  0  0  0  0  0  0  0  0  0
   64.3549   32.0530   48.5618 H   0  0  0  0  0  0  0  0  0  0  0  0
   61.4779   31.3562   49.3137 H   0  0  0  0  0  0  0  0  0  0  0  0
   62.9304   31.3231   50.3908 H   0  0  0  0  0  0  0  0  0  0  0  0
   61.4748   33.3662   50.6492 H   0  0  0  0  0  0  0  0  0  0  0  0
   63.2228   33.6834   50.1973 H   0  0  0  0  0  0  0  0  0  0  0  0
   59.1066   31.8416   49.6453 H   0  0  0  0  0  0  0  0  0  0  0  0
   58.2725   30.6056   48.6436 H   0  0  0  0  0  0  0  0  0  0  0  0
   60.0663   30.7005   48.6436 H   0  0  0  0  0  0  0  0  0  0  0  0
   57.7468   30.0009   46.3454 H   0  0  0  0  0  0  0  0  0  0  0  0
  1  2  1  0
  2  3  1  0
  3  4  1  0
  4  5  2  0
  5  6  1  0
  6  7  2  0
  7  8  1  0
  8  9  1  0
  7 10  1  0
 10 11  2  0
  3 12  1  0
 12 13  2  0
 12 14  2  0
 12 15  1  0
 15 16  2  0
 16 17  1  0
 17 18  2  0
 18 19  1  0
 19 20  1  0
 20 21  1  0
 21 22  2  0
 21 23  1  0
 23 24  1  0
 24 25  1  0
 25 26  1  0
 26 27  1  0
 27 28  1  0
 20 29  2  0
 29 30  1  0
 29 31  1  0
 31 32  2  0
 11  4  1  0
 32 15  1  0
 31 18  1  0
 28 23  1  0
  1 33  1  0
  1 34  1  0
  1 35  1  0
  2 36  1  0
  2 37  1  0
  5 38  1  0
  6 39  1  0
  9 40  1  0
  9 41  1  0
  9 42  1  0
 10 43  1  0
 11 44  1  0
 16 45  1  0
 17 46  1  0
 23 47  1  0
 24 48  1  0
 24 49  1  0
 25 50  1  0
 25 51  1  0
 26 52  1  0
 26 53  1  0
 27 54  1  0
 27 55  1  0
 28 56  1  0
 28 57  1  0
 30 58  1  0
 30 59  1  0
 30 60  1  0
 32 61  1  0
M  CHG  1  23   1
M  END
>  <UniqueID>  (3) 
3

>  <SMILES>  (3) 
CCN(c1ccc(OC)cc1)S(=O)(=O)c1ccc2oc(C(=O)[NH+]3CCCCC3)c(C)c2c1

>  <Energy>  (3) 
109.18533857466467

>  <Genealogy>  (3) 
CCN(c1ccc(OC)cc1)S(=O)(=O)c1ccc2oc(C(=O)[NH+]3CCCCC3)c(C)c2c1 (protonated)
CCN(c1ccc(OC)cc1)S(=O)(=O)c1ccc2oc(C(=O)[NH+]3CCCCC3)c(C)c2c1 (3D coordinates assigned)
CCN(c1ccc(OC)cc1)S(=O)(=O)c1ccc2oc(C(=O)[NH+]3CCCCC3)c(C)c2c1 (nonaromatic ring conformer: 109.18533857466467 kcal/mol)

>  <smiles>  (3) 
CCN(c1ccc(OC)cc1)S(=O)(=O)c1ccc2oc(C(=O)N3CCCCC3)c(C)c2c1

>  <score_type>  (3) 
oracle

>  <origin>  (3) 
adg

>  <m_score__min__energy>  (3) 
-8.25

>  <m_primary>  (3) 
energy

$$$$
3:0
     RDKit          3D

 45 47  0  0  0  0  0  0  0  0999 V2000
   62.5560   34.1680   49.6150 C   0  0  0  0  0  0  0  0  0  0  0  0
   63.8350   33.6460   48.9490 C   0  0  0  0  0  0  0  0  0  0  0  0
   63.5850   32.4370   48.1180 N   0  0  0  0  0  0  0  0  0  0  0  0
   62.9460   32.8190   46.8290 C   0  0  0  0  0  0  0  0  0  0  0  0
   63.3900   34.2070   46.3510 C   0  0  0  0  0  0  0  0  0  0  0  0
   62.7210   31.4740   48.8560 C   0  0  0  0  0  0  0  0  0  0  0  0
   61.8210   30.6600   47.9100 C   0  0  0  0  0  0  0  0  0  0  0  0
   60.4360   31.1240   48.0010 N   0  0  0  0  0  0  0  0  0  0  0  0
   59.4430   30.6410   47.0880 C   0  0  0  0  0  0  0  0  0  0  0  0
   58.8270   31.4750   46.1120 C   0  0  0  0  0  0  0  0  0  0  0  0
   59.0540   32.9360   46.0830 C   0  0  0  0  0  0  0  0  0  0  0  0
   59.0100   33.7540   44.9580 C   0  0  0  0  0  0  0  0  0  0  0  0
   59.2970   35.0950   45.2360 C   0  0  0  0  0  0  0  0  0  0  0  0
   59.5770   35.3410   46.5740 C   0  0  0  0  0  0  0  0  0  0  0  0
   59.4730   33.8850   47.4090 S   0  0  0  0  0  0  0  0  0  0  0  0
   57.9290   30.9040   45.1720 C   0  0  0  0  0  0  0  0  0  0  0  0
   57.6100   29.5370   45.2130 C   0  0  0  0  0  0  0  0  0  0  0  0
   58.2030   28.7630   46.2030 C   0  0  0  0  0  0  0  0  0  0  0  0
   58.0950   27.4240   46.4960 C   0  0  0  0  0  0  0  0  0  0  0  0
   57.0300   26.1130   45.6080 Br  0  0  0  0  0  0  0  0  0  0  0  0
   58.9390   27.2210   47.5800 C   0  0  0  0  0  0  0  0  0  0  0  0
   59.5200   28.3570   47.9200 O   0  0  0  0  0  0  0  0  0  0  0  0
   59.0860   29.2900   47.1060 C   0  0  0  0  0  0  0  0  0  0  0  0
   62.6672   34.1226   50.7084 H   0  0  0  0  0  0  0  0  0  0  0  0
   62.3811   35.2095   49.3071 H   0  0  0  0  0  0  0  0  0  0  0  0
   61.7023   33.5463   49.3071 H   0  0  0  0  0  0  0  0  0  0  0  0
   64.2480   34.4377   48.3067 H   0  0  0  0  0  0  0  0  0  0  0  0
   64.5401   33.3672   49.7459 H   0  0  0  0  0  0  0  0  0  0  0  0
   64.5040   31.9750   47.9120 H   0  0  0  0  0  0  0  0  0  0  0  0
   63.2194   32.0769   46.0645 H   0  0  0  0  0  0  0  0  0  0  0  0
   61.8579   32.8486   46.9873 H   0  0  0  0  0  0  0  0  0  0  0  0
   63.5946   34.8467   47.2222 H   0  0  0  0  0  0  0  0  0  0  0  0
   64.3024   34.1113   45.7440 H   0  0  0  0  0  0  0  0  0  0  0  0
   62.5915   34.6586   45.7440 H   0  0  0  0  0  0  0  0  0  0  0  0
   63.3633   30.7804   49.4184 H   0  0  0  0  0  0  0  0  0  0  0  0
   62.0700   32.0508   49.5294 H   0  0  0  0  0  0  0  0  0  0  0  0
   62.1772   30.7818   46.8764 H   0  0  0  0  0  0  0  0  0  0  0  0
   61.8627   29.6000   48.2010 H   0  0  0  0  0  0  0  0  0  0  0  0
   60.1060   31.4340   48.9430 H   0  0  0  0  0  0  0  0  0  0  0  0
   58.7730   33.3831   43.9499 H   0  0  0  0  0  0  0  0  0  0  0  0
   59.3005   35.8811   44.4666 H   0  0  0  0  0  0  0  0  0  0  0  0
   59.8241   36.3194   47.0119 H   0  0  0  0  0  0  0  0  0  0  0  0
   57.4760   31.5426   44.3993 H   0  0  0  0  0  0  0  0  0  0  0  0
   56.9139   29.0937   44.4857 H   0  0  0  0  0  0  0  0  0  0  0  0
   59.0999   26.2555   48.0818 H   0  0  0  0  0  0  0  0  0  0  0  0
  1  2  1  0
  2  3  1  0
  3  4  1  0
  4  5  1  0
  3  6  1  0
  6  7  1  0
  7  8  1  0
  8  9  1  0
  9 10  2  0
 10 11  1  0
 11 12  2  0
 12 13  1  0
 13 14  2  0
 14 15  1  0
 10 16  1  0
 16 17  2  0
 17 18  1  0
 18 19  1  0
 19 20  1  0
 19 21  2  0
 21 22  1  0
 22 23  1  0
 23  9  1  0
 15 11  1  0
 23 18  2  0
  1 24  1  0
  1 25  1  0
  1 26  1  0
  2 27  1  0
  2 28  1  0
  3 29  1  0
  4 30  1  0
  4 31  1  0
  5 32  1  0
  5 33  1  0
  5 34  1  0
  6 35  1  0
  6 36  1  0
  7 37  1  0
  7 38  1  0
  8 39  1  0
 12 40  1  0
 13 41  1  0
 14 42  1  0
 16 43  1  0
 17 44  1  0
 21 45  1  0
M  CHG  1   3   1
M  END
>  <UniqueID>  (4) 
4

>  <SMILES>  (4) 
CC[NH+](CC)CCNc1c(-c2cccs2)ccc2c(Br)coc12

>  <Energy>  (4) 
113.8227693702532

>  <Genealogy>  (4) 
CC[NH+](CC)CCNc1c(-c2cccs2)ccc2c(Br)coc12 (protonated)
CC[NH+](CC)CCNc1c(-c2cccs2)ccc2c(Br)coc12 (3D coordinates assigned)
CC[NH+](CC)CCNc1c(-c2cccs2)ccc2c(Br)coc12 (optimized conformer: 113.8227693702532 kcal/mol)

>  <smiles>  (4) 
CCN(CC)CCNc1c(-c2cccs2)ccc2c(Br)coc12

>  <score_type>  (4) 
oracle

>  <origin>  (4) 
adg

>  <m_score__min__energy>  (4) 
-5.1399999999999997

>  <m_primary>  (4) 
energy

$$$$
4:0
     RDKit          3D

 47 49  0  0  0  0  0  0  0  0999 V2000
   57.7330   34.1860   46.8600 C   0  0  0  0  0  0  0  0  0  0  0  0
   58.4490   33.3150   45.8020 C   0  0  2  0  0  0  0  0  0  0  0  0
   59.7480   32.7160   46.3850 C   0  0  0  0  0  0  0  0  0  0  0  0
   60.9260   33.4720   46.5970 C   0  0  0  0  0  0  0  0  0  0  0  0
   62.0800   32.8760   47.1120 C   0  0  0  0  0  0  0  0  0  0  0  0
   62.1000   31.5120   47.3960 C   0  0  0  0  0  0  0  0  0  0  0  0
   60.9770   30.7250   47.1460 C   0  0  0  0  0  0  0  0  0  0  0  0
   61.0400   29.3510   47.4220 O   0  0  0  0  0  0  0  0  0  0  0  0
   60.1460   28.3860   46.9370 C   0  0  0  0  0  0  0  0  0  0  0  0
   60.0290   28.1020   45.5630 C   0  0  0  0  0  0  0  0  0  0  0  0
   59.1350   27.1220   45.1200 C   0  0  0  0  0  0  0  0  0  0  0  0
   58.3610   26.4100   46.0430 C   0  0  0  0  0  0  0  0  0  0  0  0
   57.2410   25.1820   45.4850 Cl  0  0  0  0  0  0  0  0  0  0  0  0
   58.4890   26.6740   47.4110 C   0  0  0  0  0  0  0  0  0  0  0  0
   59.3830   27.6530   47.8550 C   0  0  0  0  0  0  0  0  0  0  0  0
   59.8040   31.3300   46.6610 C   0  0  0  0  0  0  0  0  0  0  0  0
   58.6370   34.1240   44.5070 C   0  0  0  0  0  0  0  0  0  0  0  0
   58.5690   33.0950   43.3810 C   0  0  0  0  0  0  0  0  0  0  0  0
   58.0290   31.8410   43.9490 N   0  0  2  0  0  0  0  0  0  0  0  0
   56.9520   31.2400   43.1290 C   0  0  0  0  0  0  0  0  0  0  0  0
   56.8330   29.7180   43.3340 C   0  0  0  0  0  0  0  0  0  0  0  0
   56.3380   29.3790   44.7050 C   0  0  0  0  0  0  0  0  0  0  0  0
   55.1450   29.0160   44.8760 O   0  0  0  0  0  0  0  0  0  0  0  0
   57.1860   29.4920   45.8000 O   0  0  0  0  0  0  0  0  0  0  0  0
   57.5490   32.1800   45.2980 C   0  0  0  0  0  0  0  0  0  0  0  0
   58.0139   33.8444   47.8672 H   0  0  0  0  0  0  0  0  0  0  0  0
   58.0317   35.2370   46.7328 H   0  0  0  0  0  0  0  0  0  0  0  0
   56.6441   34.0963   46.7328 H   0  0  0  0  0  0  0  0  0  0  0  0
   60.9329   34.5445   46.3527 H   0  0  0  0  0  0  0  0  0  0  0  0
   62.9768   33.4864   47.2941 H   0  0  0  0  0  0  0  0  0  0  0  0
   63.0061   31.0542   47.8194 H   0  0  0  0  0  0  0  0  0  0  0  0
   60.6430   28.6529   44.8353 H   0  0  0  0  0  0  0  0  0  0  0  0
   59.0402   26.9107   44.0447 H   0  0  0  0  0  0  0  0  0  0  0  0
   57.8856   26.1107   48.1380 H   0  0  0  0  0  0  0  0  0  0  0  0
   59.4879   27.8489   48.9323 H   0  0  0  0  0  0  0  0  0  0  0  0
   58.9101   30.7116   46.4925 H   0  0  0  0  0  0  0  0  0  0  0  0
   57.8355   34.8694   44.3977 H   0  0  0  0  0  0  0  0  0  0  0  0
   59.5872   34.6781   44.5018 H   0  0  0  0  0  0  0  0  0  0  0  0
   57.9079   33.4588   42.5806 H   0  0  0  0  0  0  0  0  0  0  0  0
   59.5683   32.9252   42.9538 H   0  0  0  0  0  0  0  0  0  0  0  0
   58.8120   31.1520   44.0590 H   0  0  0  0  0  0  0  0  0  0  0  0
   55.9958   31.7087   43.4045 H   0  0  0  0  0  0  0  0  0  0  0  0
   57.1995   31.4162   42.0718 H   0  0  0  0  0  0  0  0  0  0  0  0
   56.1301   29.3126   42.5913 H   0  0  0  0  0  0  0  0  0  0  0  0
   57.8336   29.2774   43.2131 H   0  0  0  0  0  0  0  0  0  0  0  0
   56.5017   32.5139   45.2570 H   0  0  0  0  0  0  0  0  0  0  0  0
   57.5909   31.3087   45.9682 H   0  0  0  0  0  0  0  0  0  0  0  0
  2  1  1  1
  2  3  1  0
  3  4  2  0
  4  5  1  0
  5  6  2  0
  6  7  1  0
  7  8  1  0
  8  9  1  0
  9 10  2  0
 10 11  1  0
 11 12  2  0
 12 13  1  0
 12 14  1  0
 14 15  2  0
  7 16  2  0
  2 17  1  0
 17 18  1  0
 18 19  1  0
 19 20  1  0
 20 21  1  0
 21 22  1  0
 22 23  2  0
 22 24  1  0
 19 25  1  0
 25  2  1  0
 16  3  1  0
 15  9  1  0
  1 26  1  0
  1 27  1  0
  1 28  1  0
  4 29  1  0
  5 30  1  0
  6 31  1  0
 10 32  1  0
 11 33  1  0
 14 34  1  0
 15 35  1  0
 16 36  1  0
 17 37  1  0
 17 38  1  0
 18 39  1  0
 18 40  1  0
 19 41  1  1
 20 42  1  0
 20 43  1  0
 21 44  1  0
 21 45  1  0
 25 46  1  0
 25 47  1  0
M  CHG  2  19   1  24  -1
M  END
>  <UniqueID>  (5) 
5

>  <SMILES>  (5) 
C[C@]1(c2cccc(Oc3ccc(Cl)cc3)c2)CC[N@H+](CCC(=O)[O-])C1

>  <Energy>  (5) 
63.446575524239364

>  <Genealogy>  (5) 
CC1(c2cccc(Oc3ccc(Cl)cc3)c2)CC[NH+](CCC(=O)[O-])C1 (protonated)
C[C@]1(c2cccc(Oc3ccc(Cl)cc3)c2)CC[N@H+](CCC(=O)[O-])C1 (chirality)
C[C@]1(c2cccc(Oc3ccc(Cl)cc3)c2)CC[N@H+](CCC(=O)[O-])C1 (3D coordinates assigned)
C[C@]1(c2cccc(Oc3ccc(Cl)cc3)c2)CC[N@H+](CCC(=O)[O-])C1 (nonaromatic ring conformer: 63.446575524239364 kcal/mol)

>  <smiles>  (5) 
CC1(c2cccc(Oc3ccc(Cl)cc3)c2)CCN(CCC(=O)O)C1

>  <score_type>  (5) 
oracle

>  <origin>  (5) 
adg

>  <m_score__min__energy>  (5) 
-9.5999999999999996

>  <m_primary>  (5) 
energy

$$$$
5:0
     RDKit          3D

 52 55  0  0  0  0  0  0  0  0999 V2000
   59.6050   34.3020   44.4680 C   0  0  0  0  0  0  0  0  0  0  0  0
   58.9590   34.9690   45.6820 C   0  0  0  0  0  0  0  0  0  0  0  0
   59.6560   34.5840   47.0060 C   0  0  0  0  0  0  0  0  0  0  0  0
   59.2550   33.1870   47.5570 C   0  0  1  0  0  0  0  0  0  0  0  0
   57.9700   32.7230   46.8950 C   0  0  0  0  0  0  0  0  0  0  0  0
   56.8640   33.1740   47.2960 O   0  0  0  0  0  0  0  0  0  0  0  0
   57.9780   31.7770   45.7700 C   0  0  0  0  0  0  0  0  0  0  0  0
   57.3620   31.9810   44.5510 C   0  0  0  0  0  0  0  0  0  0  0  0
   57.6220   30.8570   43.7930 C   0  0  0  0  0  0  0  0  0  0  0  0
   58.3780   30.0110   44.5850 C   0  0  0  0  0  0  0  0  0  0  0  0
   58.8910   28.6740   44.1440 C   0  0  0  0  0  0  0  0  0  0  0  0
   58.5770   30.5680   45.8030 N   0  0  0  0  0  0  0  0  0  0  0  0
   59.1840   29.9790   46.9700 C   0  0  0  0  0  0  0  0  0  0  0  0
   58.8270   28.6750   47.3560 C   0  0  0  0  0  0  0  0  0  0  0  0
   59.3280   28.1190   48.5300 C   0  0  0  0  0  0  0  0  0  0  0  0
   60.1750   28.8620   49.3490 C   0  0  0  0  0  0  0  0  0  0  0  0
   60.7910   28.1630   50.8360 Cl  0  0  0  0  0  0  0  0  0  0  0  0
   60.5260   30.1660   48.9930 C   0  0  0  0  0  0  0  0  0  0  0  0
   60.0470   30.7450   47.7970 C   0  0  0  0  0  0  0  0  0  0  0  0
   60.4310   32.1640   47.3680 C   0  0  2  0  0  0  0  0  0  0  0  0
   61.7880   32.6190   47.9290 C   0  0  0  0  0  0  0  0  0  0  0  0
   62.8750   32.7150   47.0340 C   0  0  0  0  0  0  0  0  0  0  0  0
   64.1310   33.1330   47.4720 C   0  0  0  0  0  0  0  0  0  0  0  0
   64.3330   33.4560   48.8100 C   0  0  0  0  0  0  0  0  0  0  0  0
   63.2820   33.3500   49.7200 C   0  0  0  0  0  0  0  0  0  0  0  0
   62.0060   32.9210   49.3000 C   0  0  0  0  0  0  0  0  0  0  0  0
   60.9570   32.7680   50.2210 O   0  0  0  0  0  0  0  0  0  0  0  0
   60.1020   33.8140   50.6660 C   0  0  0  0  0  0  0  0  0  0  0  0
   60.3331   33.5503   44.8068 H   0  0  0  0  0  0  0  0  0  0  0  0
   58.8283   33.8130   43.8617 H   0  0  0  0  0  0  0  0  0  0  0  0
   60.1186   35.0627   43.8617 H   0  0  0  0  0  0  0  0  0  0  0  0
   59.0158   36.0604   45.5573 H   0  0  0  0  0  0  0  0  0  0  0  0
   57.9162   34.6235   45.7391 H   0  0  0  0  0  0  0  0  0  0  0  0
   60.7430   34.5888   46.8372 H   0  0  0  0  0  0  0  0  0  0  0  0
   59.3368   35.3222   47.7564 H   0  0  0  0  0  0  0  0  0  0  0  0
   59.0644   33.2563   48.6381 H   0  0  0  0  0  0  0  0  0  0  0  0
   56.7803   32.8631   44.2451 H   0  0  0  0  0  0  0  0  0  0  0  0
   57.2923   30.6702   42.7603 H   0  0  0  0  0  0  0  0  0  0  0  0
   59.1259   28.0619   45.0272 H   0  0  0  0  0  0  0  0  0  0  0  0
   58.1233   28.1676   43.5405 H   0  0  0  0  0  0  0  0  0  0  0  0
   59.8004   28.8111   43.5405 H   0  0  0  0  0  0  0  0  0  0  0  0
   58.1447   28.0879   46.7238 H   0  0  0  0  0  0  0  0  0  0  0  0
   59.0545   27.0913   48.8112 H   0  0  0  0  0  0  0  0  0  0  0  0
   61.1844   30.7501   49.6529 H   0  0  0  0  0  0  0  0  0  0  0  0
   60.5972   32.1343   46.2810 H   0  0  0  0  0  0  0  0  0  0  0  0
   62.7291   32.4561   45.9749 H   0  0  0  0  0  0  0  0  0  0  0  0
   64.9643   33.2076   46.7578 H   0  0  0  0  0  0  0  0  0  0  0  0
   65.3225   33.7952   49.1502 H   0  0  0  0  0  0  0  0  0  0  0  0
   63.4500   33.6038   50.7771 H   0  0  0  0  0  0  0  0  0  0  0  0
   60.0869   33.8324   51.7657 H   0  0  0  0  0  0  0  0  0  0  0  0
   60.4743   34.7777   50.2882 H   0  0  0  0  0  0  0  0  0  0  0  0
   59.0835   33.6408   50.2882 H   0  0  0  0  0  0  0  0  0  0  0  0
  1  2  1  0
  2  3  1  0
  3  4  1  0
  4  5  1  0
  5  6  2  0
  5  7  1  0
  7  8  2  0
  8  9  1  0
  9 10  2  0
 10 11  1  0
 10 12  1  0
 12 13  1  0
 13 14  2  0
 14 15  1  0
 15 16  2  0
 16 17  1  0
 16 18  1  0
 18 19  2  0
 19 20  1  0
 20 21  1  0
 21 22  2  0
 22 23  1  0
 23 24  2  0
 24 25  1  0
 25 26  2  0
 26 27  1  0
 27 28  1  0
 20  4  1  0
 26 21  1  0
 12  7  1  0
 19 13  1  0
  1 29  1  0
  1 30  1  0
  1 31  1  0
  2 32  1  0
  2 33  1  0
  3 34  1  0
  3 35  1  0
  4 36  1  1
  8 37  1  0
  9 38  1  0
 11 39  1  0
 11 40  1  0
 11 41  1  0
 14 42  1  0
 15 43  1  0
 18 44  1  0
 20 45  1  6
 22 46  1  0
 23 47  1  0
 24 48  1  0
 25 49  1  0
 28 50  1  0
 28 51  1  0
 28 52  1  0
M  END
>  <UniqueID>  (6) 
6

>  <SMILES>  (6) 
CCC[C@H]1C(=O)c2ccc(C)n2-c2ccc(Cl)cc2[C@@H]1c1ccccc1OC

>  <Energy>  (6) 
101.48796458913164

>  <Genealogy>  (6) 
CCC[C@H]1C(=O)c2ccc(C)n2-c2ccc(Cl)cc2[C@@H]1c1ccccc1OC (chirality)
CCC[C@H]1C(=O)c2ccc(C)n2-c2ccc(Cl)cc2[C@@H]1c1ccccc1OC (3D coordinates assigned)
CCC[C@H]1C(=O)c2ccc(C)n2-c2ccc(Cl)cc2[C@@H]1c1ccccc1OC (nonaromatic ring conformer: 101.48796458913164 kcal/mol)

>  <smiles>  (6) 
CCCC1C(=O)c2ccc(C)n2-c2ccc(Cl)cc2C1c1ccccc1OC

>  <score_type>  (6) 
oracle

>  <origin>  (6) 
adg

>  <m_score__min__energy>  (6) 
-6.9900000000000002

>  <m_primary>  (6) 
energy

$$$$
6:0
     RDKit          3D

 39 41  0  0  0  0  0  0  0  0999 V2000
   51.6970   31.2000   50.6870 C   0  0  0  0  0  0  0  0  0  0  0  0
   52.8980   30.2610   50.6620 C   0  0  0  0  0  0  0  0  0  0  0  0
   54.0490   30.8630   51.3380 N   0  0  0  0  0  0  0  0  0  0  0  0
   54.5940   30.3340   52.5600 C   0  0  0  0  0  0  0  0  0  0  0  0
   53.7300   29.2820   53.4770 S   0  0  0  0  0  0  0  0  0  0  0  0
   55.8360   30.8360   53.0760 N   0  0  0  0  0  0  0  0  0  0  0  0
   56.9040   31.3350   52.2520 C   0  0  0  0  0  0  0  0  0  0  0  0
   57.5140   30.5260   51.2770 C   0  0  0  0  0  0  0  0  0  0  0  0
   58.5650   31.0240   50.5020 C   0  0  0  0  0  0  0  0  0  0  0  0
   59.0240   32.3340   50.6920 C   0  0  0  0  0  0  0  0  0  0  0  0
   60.1570   32.8460   49.8860 C   0  0  0  0  0  0  0  0  0  0  0  0
   61.3890   32.9200   50.4650 N   0  0  0  0  0  0  0  0  0  0  0  0
   62.4600   33.4160   49.7940 C   0  0  0  0  0  0  0  0  0  0  0  0
   62.3260   33.8460   48.5140 N   0  0  0  0  0  0  0  0  0  0  0  0
   61.1310   33.7830   47.8750 C   0  0  0  0  0  0  0  0  0  0  0  0
   61.0290   34.2190   46.5490 C   0  0  0  0  0  0  0  0  0  0  0  0
   59.8100   34.1340   45.8750 C   0  0  0  0  0  0  0  0  0  0  0  0
   58.6880   33.6030   46.5160 C   0  0  0  0  0  0  0  0  0  0  0  0
   57.0300   33.4680   45.5790 Br  0  0  0  0  0  0  0  0  0  0  0  0
   58.7780   33.1650   47.8420 C   0  0  0  0  0  0  0  0  0  0  0  0
   59.9980   33.2660   48.5430 C   0  0  0  0  0  0  0  0  0  0  0  0
   58.4450   33.1290   51.6930 C   0  0  0  0  0  0  0  0  0  0  0  0
   57.3940   32.6320   52.4670 C   0  0  0  0  0  0  0  0  0  0  0  0
   51.4216   31.4153   51.7300 H   0  0  0  0  0  0  0  0  0  0  0  0
   51.9547   32.1386   50.1745 H   0  0  0  0  0  0  0  0  0  0  0  0
   50.8483   30.7235   50.1745 H   0  0  0  0  0  0  0  0  0  0  0  0
   52.6319   29.3230   51.1712 H   0  0  0  0  0  0  0  0  0  0  0  0
   53.1693   30.0669   49.6138 H   0  0  0  0  0  0  0  0  0  0  0  0
   54.5060   31.7010   50.9150 H   0  0  0  0  0  0  0  0  0  0  0  0
   55.9720   30.8430   54.1130 H   0  0  0  0  0  0  0  0  0  0  0  0
   57.1620   29.4952   51.1234 H   0  0  0  0  0  0  0  0  0  0  0  0
   59.0339   30.3846   49.7395 H   0  0  0  0  0  0  0  0  0  0  0  0
   61.5220   32.6110   51.4550 H   0  0  0  0  0  0  0  0  0  0  0  0
   63.4404   33.4695   50.2900 H   0  0  0  0  0  0  0  0  0  0  0  0
   61.9117   34.6296   46.0369 H   0  0  0  0  0  0  0  0  0  0  0  0
   59.7323   34.4862   44.8358 H   0  0  0  0  0  0  0  0  0  0  0  0
   57.8938   32.7402   48.3397 H   0  0  0  0  0  0  0  0  0  0  0  0
   58.8205   34.1479   51.8688 H   0  0  0  0  0  0  0  0  0  0  0  0
   56.9473   33.2617   53.2505 H   0  0  0  0  0  0  0  0  0  0  0  0
  1  2  1  0
  2  3  1  0
  3  4  1  0
  4  5  2  0
  4  6  1  0
  6  7  1  0
  7  8  2  0
  8  9  1  0
  9 10  2  0
 10 11  1  0
 11 12  2  0
 12 13  1  0
 13 14  2  0
 14 15  1  0
 15 16  2  0
 16 17  1  0
 17 18  2  0
 18 19  1  0
 18 20  1  0
 20 21  2  0
 10 22  1  0
 22 23  2  0
 23  7  1  0
 21 11  1  0
 21 15  1  0
  1 24  1  0
  1 25  1  0
  1 26  1  0
  2 27  1  0
  2 28  1  0
  3 29  1  0
  6 30  1  0
  8 31  1  0
  9 32  1  0
 12 33  1  0
 13 34  1  0
 16 35  1  0
 17 36  1  0
 20 37  1  0
 22 38  1  0
 23 39  1  0
M  CHG  1  12   1
M  END
>  <UniqueID>  (7) 
7

>  <SMILES>  (7) 
CCNC(=S)Nc1ccc(-c2[nH+]cnc3ccc(Br)cc23)cc1

>  <Energy>  (7) 
52.1856797610452

>  <Genealogy>  (7) 
CCNC(=S)Nc1ccc(-c2[nH+]cnc3ccc(Br)cc23)cc1 (protonated)
CCNC(=S)Nc1ccc(-c2[nH+]cnc3ccc(Br)cc23)cc1 (3D coordinates assigned)
CCNC(=S)Nc1ccc(-c2[nH+]cnc3ccc(Br)cc23)cc1 (optimized conformer: 52.1856797610452 kcal/mol)

>  <smiles>  (7) 
CCNC(=S)Nc1ccc(-c2ncnc3ccc(Br)cc23)cc1

>  <score_type>  (7) 
oracle

>  <origin>  (7) 
adg

>  <m_score__min__energy>  (7) 
-6.46

>  <m_primary>  (7) 
energy

$$$$
7:0
     RDKit          3D

 44 45  0  0  0  0  0  0  0  0999 V2000
   57.2710   31.0870   43.0990 C   0  0  0  0  0  0  0  0  0  0  0  0
   56.4010   29.8830   43.4370 C   0  0  0  0  0  0  0  0  0  0  0  0
   56.2540   29.7490   44.8490 O   0  0  0  0  0  0  0  0  0  0  0  0
   56.9940   28.8430   45.6210 C   0  0  0  0  0  0  0  0  0  0  0  0
   56.5950   27.6530   45.7530 O   0  0  0  0  0  0  0  0  0  0  0  0
   58.2150   29.2660   46.2560 N   0  0  0  0  0  0  0  0  0  0  0  0
   59.0730   28.2680   46.9110 C   0  0  0  0  0  0  0  0  0  0  0  0
   60.4190   28.8650   47.3280 C   0  0  0  0  0  0  0  0  0  0  0  0
   60.2170   30.1380   48.0400 N   0  0  0  0  0  0  0  0  0  0  0  0
   60.9990   30.4350   49.2240 C   0  0  0  0  0  0  0  0  0  0  0  0
   61.7900   29.5680   49.6870 O   0  0  0  0  0  0  0  0  0  0  0  0
   60.9140   31.7550   49.9490 C   0  0  0  0  0  0  0  0  0  0  0  0
   62.2470   32.3350   50.1210 N   0  0  0  0  0  0  0  0  0  0  0  0
   62.4980   33.6900   49.0560 S   0  0  0  0  0  0  0  0  0  0  0  0
   62.6610   34.9470   49.8660 O   0  0  0  0  0  0  0  0  0  0  0  0
   63.7540   33.4620   48.2650 O   0  0  0  0  0  0  0  0  0  0  0  0
   61.1510   33.8550   47.9320 C   0  0  0  0  0  0  0  0  0  0  0  0
   59.8770   34.2280   48.3880 C   0  0  0  0  0  0  0  0  0  0  0  0
   58.8120   34.3360   47.4890 C   0  0  0  0  0  0  0  0  0  0  0  0
   59.0150   34.0820   46.1290 C   0  0  0  0  0  0  0  0  0  0  0  0
   57.5560   34.2100   44.9040 Br  0  0  0  0  0  0  0  0  0  0  0  0
   60.2870   33.7250   45.6680 C   0  0  0  0  0  0  0  0  0  0  0  0
   61.3520   33.6160   46.5650 C   0  0  0  0  0  0  0  0  0  0  0  0
   59.2610   31.1190   47.4980 C   0  0  0  0  0  0  0  0  0  0  0  0
   58.6560   30.6640   46.1650 C   0  0  0  0  0  0  0  0  0  0  0  0
   57.6152   31.5633   44.0289 H   0  0  0  0  0  0  0  0  0  0  0  0
   58.1410   30.7575   42.5120 H   0  0  0  0  0  0  0  0  0  0  0  0
   56.6850   31.8096   42.5120 H   0  0  0  0  0  0  0  0  0  0  0  0
   55.4085   30.0151   42.9814 H   0  0  0  0  0  0  0  0  0  0  0  0
   56.8833   28.9760   43.0436 H   0  0  0  0  0  0  0  0  0  0  0  0
   58.5588   27.8883   47.8062 H   0  0  0  0  0  0  0  0  0  0  0  0
   59.2653   27.4570   46.1931 H   0  0  0  0  0  0  0  0  0  0  0  0
   60.9396   28.1578   47.9904 H   0  0  0  0  0  0  0  0  0  0  0  0
   61.0213   29.0518   46.4267 H   0  0  0  0  0  0  0  0  0  0  0  0
   60.2905   32.4484   49.3655 H   0  0  0  0  0  0  0  0  0  0  0  0
   60.4697   31.5868   50.9411 H   0  0  0  0  0  0  0  0  0  0  0  0
   59.7161   34.4360   49.4561 H   0  0  0  0  0  0  0  0  0  0  0  0
   57.8134   34.6210   47.8517 H   0  0  0  0  0  0  0  0  0  0  0  0
   60.4484   33.5299   44.5975 H   0  0  0  0  0  0  0  0  0  0  0  0
   62.3520   33.3417   46.1978 H   0  0  0  0  0  0  0  0  0  0  0  0
   58.4483   31.2607   48.2256 H   0  0  0  0  0  0  0  0  0  0  0  0
   59.8062   32.0573   47.3181 H   0  0  0  0  0  0  0  0  0  0  0  0
   57.7932   31.3015   45.9217 H   0  0  0  0  0  0  0  0  0  0  0  0
   59.4202   30.7476   45.3782 H   0  0  0  0  0  0  0  0  0  0  0  0
  1  2  1  0
  2  3  1  0
  3  4  1  0
  4  5  2  0
  4  6  1  0
  6  7  1  0
  7  8  1  0
  8  9  1  0
  9 10  1  0
 10 11  2  0
 10 12  1  0
 12 13  1  0
 13 14  1  0
 14 15  2  0
 14 16  2  0
 14 17  1  0
 17 18  2  0
 18 19  1  0
 19 20  2  0
 20 21  1  0
 20 22  1  0
 22 23  2  0
  9 24  1  0
 24 25  1  0
 25  6  1  0
 23 17  1  0
  1 26  1  0
  1 27  1  0
  1 28  1  0
  2 29  1  0
  2 30  1  0
  7 31  1  0
  7 32  1  0
  8 33  1  0
  8 34  1  0
 12 35  1  0
 12 36  1  0
 18 37  1  0
 19 38  1  0
 22 39  1  0
 23 40  1  0
 24 41  1  0
 24 42  1  0
 25 43  1  0
 25 44  1  0
M  CHG  1  13  -1
M  END
>  <UniqueID>  (8) 
8

>  <SMILES>  (8) 
CCOC(=O)N1CCN(C(=O)C[N-]S(=O)(=O)c2ccc(Br)cc2)CC1

>  <Energy>  (8) 
34.564091762969504

>  <Genealogy>  (8) 
CCOC(=O)N1CCN(C(=O)C[N-]S(=O)(=O)c2ccc(Br)cc2)CC1 (protonated)
CCOC(=O)N1CCN(C(=O)C[N-]S(=O)(=O)c2ccc(Br)cc2)CC1 (3D coordinates assigned)
CCOC(=O)N1CCN(C(=O)C[N-]S(=O)(=O)c2ccc(Br)cc2)CC1 (nonaromatic ring conformer: 34.564091762969504 kcal/mol)

>  <smiles>  (8) 
CCOC(=O)N1CCN(C(=O)CNS(=O)(=O)c2ccc(Br)cc2)CC1

>  <score_type>  (8) 
oracle

>  <origin>  (8) 
adg

>  <m_score__min__energy>  (8) 
-9.5600000000000005

>  <m_primary>  (8) 
energy

$$$$
8:0
     RDKit          3D

 38 40  0  0  0  0  0  0  0  0999 V2000
   58.9520   31.5680   48.9370 C   0  0  0  0  0  0  0  0  0  0  0  0
   59.3090   33.3340   48.6840 S   0  0  0  0  0  0  0  0  0  0  0  0
   58.7800   33.3180   46.9700 C   0  0  0  0  0  0  0  0  0  0  0  0
   58.8810   34.4790   46.1960 C   0  0  0  0  0  0  0  0  0  0  0  0
   58.4680   34.4670   44.8640 C   0  0  0  0  0  0  0  0  0  0  0  0
   57.9590   33.2970   44.2940 C   0  0  0  0  0  0  0  0  0  0  0  0
   57.8640   32.1160   45.0560 C   0  0  0  0  0  0  0  0  0  0  0  0
   57.3180   30.8580   44.4780 C   0  0  0  0  0  0  0  0  0  0  0  0
   56.0700   30.6650   44.5190 O   0  0  0  0  0  0  0  0  0  0  0  0
   58.1720   29.8740   43.8370 N   0  0  2  0  0  0  0  0  0  0  0  0
   57.3910   28.6240   43.5670 C   0  0  0  0  0  0  0  0  0  0  0  0
   58.1430   27.3230   43.9010 C   0  0  0  0  0  0  0  0  0  0  0  0
   58.6950   27.4200   45.2890 C   0  0  0  0  0  0  0  0  0  0  0  0
   58.6230   26.3550   46.1990 C   0  0  0  0  0  0  0  0  0  0  0  0
   59.1620   26.4990   47.4810 C   0  0  0  0  0  0  0  0  0  0  0  0
   59.7830   27.6980   47.8520 C   0  0  0  0  0  0  0  0  0  0  0  0
   59.8670   28.7550   46.9400 C   0  0  0  0  0  0  0  0  0  0  0  0
   59.3140   28.6180   45.6580 C   0  0  0  0  0  0  0  0  0  0  0  0
   59.4310   29.6980   44.6160 C   0  0  0  0  0  0  0  0  0  0  0  0
   58.2730   32.1420   46.4030 C   0  0  0  0  0  0  0  0  0  0  0  0
   58.9086   31.3535   50.0150 H   0  0  0  0  0  0  0  0  0  0  0  0
   57.9854   31.3194   48.4745 H   0  0  0  0  0  0  0  0  0  0  0  0
   59.7461   30.9635   48.4745 H   0  0  0  0  0  0  0  0  0  0  0  0
   59.2861   35.4012   46.6380 H   0  0  0  0  0  0  0  0  0  0  0  0
   58.5432   35.3828   44.2592 H   0  0  0  0  0  0  0  0  0  0  0  0
   57.6306   33.2982   43.2442 H   0  0  0  0  0  0  0  0  0  0  0  0
   58.4790   30.2620   42.9140 H   0  0  0  0  0  0  0  0  0  0  0  0
   56.4716   28.6551   44.1701 H   0  0  0  0  0  0  0  0  0  0  0  0
   57.1920   28.6042   42.4853 H   0  0  0  0  0  0  0  0  0  0  0  0
   57.4505   26.4706   43.8385 H   0  0  0  0  0  0  0  0  0  0  0  0
   58.9645   27.1749   43.1846 H   0  0  0  0  0  0  0  0  0  0  0  0
   58.1440   25.4095   45.9049 H   0  0  0  0  0  0  0  0  0  0  0  0
   59.0981   25.6687   48.1997 H   0  0  0  0  0  0  0  0  0  0  0  0
   60.2052   27.8086   48.8617 H   0  0  0  0  0  0  0  0  0  0  0  0
   60.3659   29.6923   47.2275 H   0  0  0  0  0  0  0  0  0  0  0  0
   59.6725   30.6473   45.1165 H   0  0  0  0  0  0  0  0  0  0  0  0
   60.2225   29.4011   43.9122 H   0  0  0  0  0  0  0  0  0  0  0  0
   58.1937   31.2314   47.0149 H   0  0  0  0  0  0  0  0  0  0  0  0
  1  2  1  0
  2  3  1  0
  3  4  2  0
  4  5  1  0
  5  6  2  0
  6  7  1  0
  7  8  1  0
  8  9  2  0
  8 10  1  0
 10 11  1  0
 11 12  1  0
 12 13  1  0
 13 14  2  0
 14 15  1  0
 15 16  2  0
 16 17  1  0
 17 18  2  0
 18 19  1  0
  7 20  2  0
 20  3  1  0
 19 10  1  0
 18 13  1  0
  1 21  1  0
  1 22  1  0
  1 23  1  0
  4 24  1  0
  5 25  1  0
  6 26  1  0
 10 27  1  6
 11 28  1  0
 11 29  1  0
 12 30  1  0
 12 31  1  0
 14 32  1  0
 15 33  1  0
 16 34  1  0
 17 35  1  0
 19 36  1  0
 19 37  1  0
 20 38  1  0
M  CHG  1  10   1
M  END
>  <UniqueID>  (9) 
9

>  <SMILES>  (9) 
CSc1cccc(C(=O)[N@@H+]2CCc3ccccc3C2)c1

>  <Energy>  (9) 
51.53673852237288

>  <Genealogy>  (9) 
CSc1cccc(C(=O)[NH+]2CCc3ccccc3C2)c1 (protonated)
CSc1cccc(C(=O)[N@@H+]2CCc3ccccc3C2)c1 (chirality)
CSc1cccc(C(=O)[N@@H+]2CCc3ccccc3C2)c1 (3D coordinates assigned)
CSc1cccc(C(=O)[N@@H+]2CCc3ccccc3C2)c1 (nonaromatic ring conformer: 51.53673852237288 kcal/mol)

>  <smiles>  (9) 
CSc1cccc(C(=O)N2CCc3ccccc3C2)c1

>  <score_type>  (9) 
oracle

>  <origin>  (9) 
adg

>  <m_score__min__energy>  (9) 
-6.8300000000000001

>  <m_primary>  (9) 
energy

$$$$
9:0
     RDKit          3D

 47 49  0  0  0  0  0  0  0  0999 V2000
   63.3610   33.6770   46.7350 C   0  0  0  0  0  0  0  0  0  0  0  0
   63.3920   32.4500   47.4550 O   0  0  0  0  0  0  0  0  0  0  0  0
   63.6780   32.3380   48.8260 C   0  0  0  0  0  0  0  0  0  0  0  0
   64.9170   32.7390   49.3650 C   0  0  0  0  0  0  0  0  0  0  0  0
   65.1750   32.5880   50.7300 C   0  0  0  0  0  0  0  0  0  0  0  0
   64.2060   32.0390   51.5700 C   0  0  0  0  0  0  0  0  0  0  0  0
   62.9740   31.6420   51.0490 C   0  0  0  0  0  0  0  0  0  0  0  0
   62.7000   31.7950   49.6810 C   0  0  0  0  0  0  0  0  0  0  0  0
   61.4220   31.3910   49.1660 N   0  0  0  0  0  0  0  0  0  0  0  0
   60.9230   30.0400   49.4530 C   0  0  0  0  0  0  0  0  0  0  0  0
   59.5810   29.7770   48.7590 C   0  0  0  0  0  0  0  0  0  0  0  0
   59.6260   30.2250   47.3570 N   0  0  0  0  0  0  0  0  0  0  0  0
   58.9510   29.4600   46.3340 C   0  0  0  0  0  0  0  0  0  0  0  0
   58.1500   28.5420   46.6660 O   0  0  0  0  0  0  0  0  0  0  0  0
   59.1570   29.7670   44.8730 C   0  0  0  0  0  0  0  0  0  0  0  0
   58.0030   29.3410   44.0750 N   0  0  0  0  0  0  0  0  0  0  0  0
   56.9260   30.6830   43.8390 S   0  0  0  0  0  0  0  0  0  0  0  0
   56.6700   30.8640   42.3690 O   0  0  0  0  0  0  0  0  0  0  0  0
   55.6160   30.4180   44.5280 O   0  0  0  0  0  0  0  0  0  0  0  0
   57.6430   32.1520   44.4770 C   0  0  0  0  0  0  0  0  0  0  0  0
   58.4530   33.0330   43.7760 C   0  0  0  0  0  0  0  0  0  0  0  0
   58.8420   34.1390   44.5390 C   0  0  0  0  0  0  0  0  0  0  0  0
   58.3340   34.1300   45.8330 C   0  0  0  0  0  0  0  0  0  0  0  0
   57.3990   32.7450   46.0280 S   0  0  0  0  0  0  0  0  0  0  0  0
   60.2430   31.5220   47.0220 C   0  0  0  0  0  0  0  0  0  0  0  0
   60.6770   32.2850   48.2760 C   0  0  0  0  0  0  0  0  0  0  0  0
   63.3398   34.5177   47.4440 H   0  0  0  0  0  0  0  0  0  0  0  0
   64.2575   33.7536   46.1022 H   0  0  0  0  0  0  0  0  0  0  0  0
   62.4618   33.7082   46.1022 H   0  0  0  0  0  0  0  0  0  0  0  0
   65.6849   33.1731   48.7078 H   0  0  0  0  0  0  0  0  0  0  0  0
   66.1446   32.9028   51.1432 H   0  0  0  0  0  0  0  0  0  0  0  0
   64.4133   31.9190   52.6436 H   0  0  0  0  0  0  0  0  0  0  0  0
   62.2134   31.2068   51.7139 H   0  0  0  0  0  0  0  0  0  0  0  0
   61.6593   29.3041   49.0977 H   0  0  0  0  0  0  0  0  0  0  0  0
   60.7730   29.9511   50.5391 H   0  0  0  0  0  0  0  0  0  0  0  0
   59.3646   28.6989   48.7872 H   0  0  0  0  0  0  0  0  0  0  0  0
   58.7939   30.3370   49.2852 H   0  0  0  0  0  0  0  0  0  0  0  0
   59.2979   30.8510   44.7503 H   0  0  0  0  0  0  0  0  0  0  0  0
   60.0444   29.2191   44.5232 H   0  0  0  0  0  0  0  0  0  0  0  0
   57.4720   28.6280   44.6270 H   0  0  0  0  0  0  0  0  0  0  0  0
   58.7574   32.8783   42.7303 H   0  0  0  0  0  0  0  0  0  0  0  0
   59.4887   34.9401   44.1517 H   0  0  0  0  0  0  0  0  0  0  0  0
   58.5130   34.8983   46.5996 H   0  0  0  0  0  0  0  0  0  0  0  0
   61.1256   31.3439   46.3901 H   0  0  0  0  0  0  0  0  0  0  0  0
   59.4947   32.1305   46.4930 H   0  0  0  0  0  0  0  0  0  0  0  0
   61.3188   33.1299   47.9859 H   0  0  0  0  0  0  0  0  0  0  0  0
   59.7858   32.6604   48.8002 H   0  0  0  0  0  0  0  0  0  0  0  0
  1  2  1  0
  2  3  1  0
  3  4  2  0
  4  5  1  0
  5  6  2  0
  6  7  1  0
  7  8  2  0
  8  9  1  0
  9 10  1  0
 10 11  1  0
 11 12  1  0
 12 13  1  0
 13 14  2  0
 13 15  1  0
 15 16  1  0
 16 17  1  0
 17 18  2  0
 17 19  2  0
 17 20  1  0
 20 21  2  0
 21 22  1  0
 22 23  2  0
 23 24  1  0
 12 25  1  0
 25 26  1  0
  8  3  1  0
 26  9  1  0
 24 20  1  0
  1 27  1  0
  1 28  1  0
  1 29  1  0
  4 30  1  0
  5 31  1  0
  6 32  1  0
  7 33  1  0
 10 34  1  0
 10 35  1  0
 11 36  1  0
 11 37  1  0
 15 38  1  0
 15 39  1  0
 16 40  1  0
 21 41  1  0
 22 42  1  0
 23 43  1  0
 25 44  1  0
 25 45  1  0
 26 46  1  0
 26 47  1  0
M  END
>  <UniqueID>  (10) 
10

>  <SMILES>  (10) 
COc1ccccc1N1CCN(C(=O)CNS(=O)(=O)c2cccs2)CC1

>  <Energy>  (10) 
76.86828175012059

>  <Genealogy>  (10) 
COc1ccccc1N1CCN(C(=O)CNS(=O)(=O)c2cccs2)CC1 (3D coordinates assigned)
COc1ccccc1N1CCN(C(=O)CNS(=O)(=O)c2cccs2)CC1 (nonaromatic ring conformer: 76.86828175012059 kcal/mol)

>  <smiles>  (10) 
COc1ccccc1N1CCN(C(=O)CNS(=O)(=O)c2cccs2)CC1

>  <score_type>  (10) 
oracle

>  <origin>  (10) 
adg

>  <m_score__min__energy>  (10) 
-8.2599999999999998

>  <m_primary>  (10) 
energy

$$$$
10:0
     RDKit          3D

 21 22  0  0  0  0  0  0  0  0999 V2000
   55.5460   29.1530   44.8640 O   0  0  0  0  0  0  0  0  0  0  0  0
   56.6300   29.4090   44.2770 C   0  0  0  0  0  0  0  0  0  0  0  0
   57.2920   30.7250   44.4110 C   0  0  0  0  0  0  0  0  0  0  0  0
   57.3940   31.5510   43.2760 C   0  0  0  0  0  0  0  0  0  0  0  0
   58.0120   32.8020   43.3600 C   0  0  0  0  0  0  0  0  0  0  0  0
   58.5230   33.2080   44.5910 C   0  0  0  0  0  0  0  0  0  0  0  0
   58.4250   32.4180   45.6740 N   0  0  0  0  0  0  0  0  0  0  0  0
   57.8300   31.1920   45.6340 C   0  0  0  0  0  0  0  0  0  0  0  0
   57.7650   30.4910   46.6820 O   0  0  0  0  0  0  0  0  0  0  0  0
   59.0220   33.0400   46.8410 C   0  0  0  0  0  0  0  0  0  0  0  0
   59.5470   34.4040   46.3530 C   0  0  0  0  0  0  0  0  0  0  0  0
   59.2050   34.4940   44.8570 C   0  0  0  0  0  0  0  0  0  0  0  0
   57.0961   28.6352   43.6493 H   0  0  0  0  0  0  0  0  0  0  0  0
   56.9838   31.2091   42.3143 H   0  0  0  0  0  0  0  0  0  0  0  0
   58.0930   33.4505   42.4752 H   0  0  0  0  0  0  0  0  0  0  0  0
   58.2694   33.1775   47.6314 H   0  0  0  0  0  0  0  0  0  0  0  0
   59.8248   32.4216   47.2690 H   0  0  0  0  0  0  0  0  0  0  0  0
   59.0563   35.2194   46.9046 H   0  0  0  0  0  0  0  0  0  0  0  0
   60.6305   34.4957   46.5194 H   0  0  0  0  0  0  0  0  0  0  0  0
   58.5371   35.3444   44.6550 H   0  0  0  0  0  0  0  0  0  0  0  0
   60.0875   34.6553   44.2205 H   0  0  0  0  0  0  0  0  0  0  0  0
  1  2  2  0
  2  3  1  0
  3  4  2  0
  4  5  1  0
  5  6  2  0
  6  7  1  0
  7  8  1  0
  8  9  2  0
  7 10  1  0
 10 11  1  0
 11 12  1  0
  8  3  1  0
 12  6  1  0
  2 13  1  0
  4 14  1  0
  5 15  1  0
 10 16  1  0
 10 17  1  0
 11 18  1  0
 11 19  1  0
 12 20  1  0
 12 21  1  0
M  END
>  <UniqueID>  (11) 
11

>  <SMILES>  (11) 
O=Cc1ccc2n(c1=O)CCC2

>  <Energy>  (11) 
30.044375754007685

>  <Genealogy>  (11) 
O=Cc1ccc2n(c1=O)CCC2 (3D coordinates assigned)
O=Cc1ccc2n(c1=O)CCC2 (nonaromatic ring conformer: 30.044375754007685 kcal/mol)

>  <smiles>  (11) 
O=Cc1ccc2n(c1=O)CCC2

>  <score_type>  (11) 
oracle

>  <origin>  (11) 
adg

>  <m_score__min__energy>  (11) 
-5.4900000000000002

>  <m_primary>  (11) 
energy

$$$$
11:0
     RDKit          3D

 34 35  0  0  0  0  0  0  0  0999 V2000
   59.5230   35.0972   48.2821 H   0  0  0  0  0  0  0  0  0  0  0  0
   59.2670   34.6730   47.3000 C   0  0  0  0  0  0  0  0  0  0  0  0
   59.7420   35.2810   46.1320 C   0  0  0  0  0  0  0  0  0  0  0  0
   60.3698   36.1817   46.1994 H   0  0  0  0  0  0  0  0  0  0  0  0
   59.4210   34.7470   44.8790 C   0  0  0  0  0  0  0  0  0  0  0  0
   59.7961   35.2273   43.9633 H   0  0  0  0  0  0  0  0  0  0  0  0
   58.6200   33.5980   44.7920 C   0  0  0  0  0  0  0  0  0  0  0  0
   58.1440   32.9890   45.9720 C   0  0  0  0  0  0  0  0  0  0  0  0
   57.3680   31.8780   45.8810 N   0  0  0  0  0  0  0  0  0  0  0  0
   57.0340   31.3410   44.6760 C   0  0  0  0  0  0  0  0  0  0  0  0
   56.3060   30.2640   44.5870 N   0  0  0  0  0  0  0  0  0  0  0  0
   56.7240   28.8990   44.7610 C   0  0  0  0  0  0  0  0  0  0  0  0
   55.8990   28.0790   45.2480 O   0  0  0  0  0  0  0  0  0  0  0  0
   58.1050   28.4190   44.3870 C   0  0  0  0  0  0  0  0  0  0  0  0
   58.5143   29.0773   43.6066 H   0  0  0  0  0  0  0  0  0  0  0  0
   58.0264   27.3847   44.0209 H   0  0  0  0  0  0  0  0  0  0  0  0
   59.0130   28.4340   45.5560 N   0  0  0  0  0  0  0  0  0  0  0  0
   58.2870   28.9010   46.7560 C   0  0  0  0  0  0  0  0  0  0  0  0
   58.8150   28.5614   47.6593 H   0  0  0  0  0  0  0  0  0  0  0  0
   58.2388   29.9999   46.7508 H   0  0  0  0  0  0  0  0  0  0  0  0
   57.2670   28.4892   46.7508 H   0  0  0  0  0  0  0  0  0  0  0  0
   60.1840   29.2990   45.2850 C   0  0  0  0  0  0  0  0  0  0  0  0
   60.0067   29.8605   44.3559 H   0  0  0  0  0  0  0  0  0  0  0  0
   61.0731   28.6583   45.1903 H   0  0  0  0  0  0  0  0  0  0  0  0
   60.4230   30.2880   46.4260 C   0  0  0  0  0  0  0  0  0  0  0  0
   60.2985   29.7728   47.3899 H   0  0  0  0  0  0  0  0  0  0  0  0
   61.4442   30.6904   46.3545 H   0  0  0  0  0  0  0  0  0  0  0  0
   59.6982   31.1124   46.3545 H   0  0  0  0  0  0  0  0  0  0  0  0
   57.5170   31.9410   43.5070 C   0  0  0  0  0  0  0  0  0  0  0  0
   57.2686   31.5114   42.5253 H   0  0  0  0  0  0  0  0  0  0  0  0
   58.2940   33.0560   43.5850 N   0  0  0  0  0  0  0  0  0  0  0  0
   58.6410   33.4900   42.7000 H   0  0  0  0  0  0  0  0  0  0  0  0
   58.4680   33.5280   47.2220 C   0  0  0  0  0  0  0  0  0  0  0  0
   58.0951   33.0522   48.1410 H   0  0  0  0  0  0  0  0  0  0  0  0
  1  2  1  0
  2  3  2  0
  3  4  1  0
  3  5  1  0
  5  6  1  0
  5  7  2  0
  7  8  1  0
  8  9  1  0
  9 10  1  0
 10 11  2  0
 11 12  1  0
 12 13  2  0
 12 14  1  0
 14 15  1  0
 14 16  1  0
 14 17  1  0
 17 18  1  0
 18 19  1  0
 18 20  1  0
 18 21  1  0
 17 22  1  0
 22 23  1  0
 22 24  1  0
 22 25  1  0
 25 26  1  0
 25 27  1  0
 25 28  1  0
 10 29  1  0
 29 30  1  0
 29 31  2  0
 31 32  1  0
  8 33  2  0
 33 34  1  0
 33  2  1  0
 31  7  1  0
M  CHG  2   9  -1  31   1
M  END
>  <UniqueID>  (12) 
12

>  <SMILES>  (12) 
CCN(C)CC(=O)/N=c1/c[nH+]c2ccccc2[n-]1

>  <Energy>  (12) 
42.0236370875397

>  <Genealogy>  (12) 
CCN(C)CC(=O)N=c1c[nH+]c2ccccc2[n-]1 (protonated)
CCN(C)CC(=O)/N=c1/c[nH+]c2ccccc2[n-]1 (cis-trans isomerization)
CCN(C)CC(=O)/N=c1/c[nH+]c2ccccc2[n-]1 (3D coordinates assigned)
CCN(C)CC(=O)/N=c1/c[nH+]c2ccccc2[n-]1 (optimized conformer: 42.0236370875397 kcal/mol)

>  <smiles>  (12) 
CCN(C)CC(=O)N=c1cnc2ccccc2[nH]1

>  <score_type>  (12) 
oracle

>  <origin>  (12) 
adg

>  <m_score__min__energy>  (12) 
-6.5099999999999998

>  <m_primary>  (12) 
energy

$$$$
12:0
     RDKit          3D

 39 41  0  0  0  0  0  0  0  0999 V2000
   60.7640   28.9250   44.9700 C   0  0  0  0  0  0  0  0  0  0  0  0
   60.4220   29.1280   46.3860 N   0  0  0  0  0  0  0  0  0  0  0  0
   60.5790   30.5510   46.7310 C   0  0  0  0  0  0  0  0  0  0  0  0
   59.0460   28.6560   46.6600 C   0  0  0  0  0  0  0  0  0  0  0  0
   58.4490   27.9320   45.4450 C   0  0  0  0  0  0  0  0  0  0  0  0
   56.7410   28.4760   45.0720 S   0  0  0  0  0  0  0  0  0  0  0  0
   57.2090   30.1200   44.5380 C   0  0  0  0  0  0  0  0  0  0  0  0
   57.8110   30.3980   43.3710 N   0  0  0  0  0  0  0  0  0  0  0  0
   57.9510   31.7110   43.3000 N   0  0  0  0  0  0  0  0  0  0  0  0
   57.4330   32.1850   44.4520 C   0  0  0  0  0  0  0  0  0  0  0  0
   57.2970   33.6360   44.7720 C   0  0  0  0  0  0  0  0  0  0  0  0
   58.4270   34.0590   45.5940 N   0  0  0  0  0  0  0  0  0  0  0  0
   59.2910   35.0720   45.3320 C   0  0  0  0  0  0  0  0  0  0  0  0
   60.1530   35.3190   46.3520 N   0  0  0  0  0  0  0  0  0  0  0  0
   59.7890   34.4180   47.2840 C   0  0  0  0  0  0  0  0  0  0  0  0
   60.3190   34.2570   48.5620 C   0  0  0  0  0  0  0  0  0  0  0  0
   59.7410   33.2770   49.3910 C   0  0  0  0  0  0  0  0  0  0  0  0
   58.6590   32.4940   48.9280 C   0  0  0  0  0  0  0  0  0  0  0  0
   58.1450   32.6840   47.6320 C   0  0  0  0  0  0  0  0  0  0  0  0
   58.7470   33.6620   46.8360 C   0  0  0  0  0  0  0  0  0  0  0  0
   56.9800   31.2160   45.2160 O   0  0  0  0  0  0  0  0  0  0  0  0
   61.7079   28.3648   44.8974 H   0  0  0  0  0  0  0  0  0  0  0  0
   59.9615   28.3569   44.4768 H   0  0  0  0  0  0  0  0  0  0  0  0
   60.8784   29.9015   44.4768 H   0  0  0  0  0  0  0  0  0  0  0  0
   60.5914   30.6638   47.8251 H   0  0  0  0  0  0  0  0  0  0  0  0
   61.5241   30.9276   46.3128 H   0  0  0  0  0  0  0  0  0  0  0  0
   59.7387   31.1246   46.3128 H   0  0  0  0  0  0  0  0  0  0  0  0
   59.0689   27.9628   47.5138 H   0  0  0  0  0  0  0  0  0  0  0  0
   58.4183   29.5311   46.8839 H   0  0  0  0  0  0  0  0  0  0  0  0
   59.0824   28.1333   44.5685 H   0  0  0  0  0  0  0  0  0  0  0  0
   58.4131   26.8582   45.6810 H   0  0  0  0  0  0  0  0  0  0  0  0
   58.1020   29.7230   42.6300 H   0  0  0  0  0  0  0  0  0  0  0  0
   57.2838   34.2180   43.8387 H   0  0  0  0  0  0  0  0  0  0  0  0
   56.3592   33.8049   45.3215 H   0  0  0  0  0  0  0  0  0  0  0  0
   59.2930   35.6366   44.3880 H   0  0  0  0  0  0  0  0  0  0  0  0
   61.1599   34.8741   48.9113 H   0  0  0  0  0  0  0  0  0  0  0  0
   60.1341   33.1194   50.4062 H   0  0  0  0  0  0  0  0  0  0  0  0
   58.2160   31.7312   49.5851 H   0  0  0  0  0  0  0  0  0  0  0  0
   57.3009   32.0851   47.2594 H   0  0  0  0  0  0  0  0  0  0  0  0
  1  2  1  0
  2  3  1  0
  2  4  1  0
  4  5  1  0
  5  6  1  0
  6  7  1  0
  7  8  2  0
  8  9  1  0
  9 10  2  0
 10 11  1  0
 11 12  1  0
 12 13  1  0
 13 14  2  0
 14 15  1  0
 15 16  2  0
 16 17  1  0
 17 18  2  0
 18 19  1  0
 19 20  2  0
 10 21  1  0
 21  7  1  0
 20 12  1  0
 20 15  1  0
  1 22  1  0
  1 23  1  0
  1 24  1  0
  3 25  1  0
  3 26  1  0
  3 27  1  0
  4 28  1  0
  4 29  1  0
  5 30  1  0
  5 31  1  0
  8 32  1  0
 11 33  1  0
 11 34  1  0
 13 35  1  0
 16 36  1  0
 17 37  1  0
 18 38  1  0
 19 39  1  0
M  CHG  1   8   1
M  END
>  <UniqueID>  (13) 
13

>  <SMILES>  (13) 
CN(C)CCSc1[nH+]nc(Cn2cnc3ccccc32)o1

>  <Energy>  (13) 
104.39634993505855

>  <Genealogy>  (13) 
CN(C)CCSc1[nH+]nc(Cn2cnc3ccccc32)o1 (protonated)
CN(C)CCSc1[nH+]nc(Cn2cnc3ccccc32)o1 (3D coordinates assigned)
CN(C)CCSc1[nH+]nc(Cn2cnc3ccccc32)o1 (optimized conformer: 104.39634993505855 kcal/mol)

>  <smiles>  (13) 
CN(C)CCSc1nnc(Cn2cnc3ccccc32)o1

>  <score_type>  (13) 
oracle

>  <origin>  (13) 
adg

>  <m_score__min__energy>  (13) 
-5.6200000000000001

>  <m_primary>  (13) 
energy

$$$$
13:0
     RDKit          3D

 32 34  0  0  1  0  0  0  0  0999 V2000
   57.7630   32.3440   41.6250 C   0  0  0  0  0  0  0  0  0  0  0  0
   58.3630   31.9380   42.8230 O   0  0  0  0  0  0  0  0  0  0  0  0
   58.2610   32.6510   44.0320 C   0  0  0  0  0  0  0  0  0  0  0  0
   58.8880   33.8770   44.1350 C   0  0  0  0  0  0  0  0  0  0  0  0
   58.8010   34.5860   45.3050 C   0  0  0  0  0  0  0  0  0  0  0  0
   58.0790   34.0550   46.3720 C   0  0  0  0  0  0  0  0  0  0  0  0
   57.4490   32.8340   46.2820 C   0  0  0  0  0  0  0  0  0  0  0  0
   57.5360   32.1170   45.1040 C   0  0  0  0  0  0  0  0  0  0  0  0
   56.9170   30.8470   44.9230 N   0  0  0  0  0  0  0  0  0  0  0  0
   57.5470   29.7300   44.8850 C   0  0  0  0  0  0  0  0  0  0  0  0
   57.4650   28.9250   43.7480 C   0  0  0  0  0  0  0  0  0  0  0  0
   58.1590   27.7370   43.7560 C   0  0  0  0  0  0  0  0  0  0  0  0
   58.1250   26.8100   42.5700 C   0  0  0  0  0  0  0  0  0  0  0  0
   58.8870   27.3930   44.8500 N   0  0  0  0  0  0  0  0  0  0  0  0
   58.9230   28.2140   45.9120 C   0  0  0  0  0  0  0  0  0  0  0  0
   59.6010   28.0130   47.0760 N   0  0  0  0  0  0  0  0  0  0  0  0
   59.3160   29.1160   47.8150 C   0  0  0  0  0  0  0  0  0  0  0  0
   58.5050   29.9360   47.1210 N   0  0  0  0  0  0  0  0  0  0  0  0
   58.2660   29.3870   45.9620 N   0  0  0  0  0  0  0  0  0  0  0  0
   56.8709   32.9477   41.8479 H   0  0  0  0  0  0  0  0  0  0  0  0
   58.4767   32.9455   41.0429 H   0  0  0  0  0  0  0  0  0  0  0  0
   57.4700   31.4578   41.0429 H   0  0  0  0  0  0  0  0  0  0  0  0
   59.4539   34.2823   43.2833 H   0  0  0  0  0  0  0  0  0  0  0  0
   59.2959   35.5637   45.4005 H   0  0  0  0  0  0  0  0  0  0  0  0
   58.0106   34.6257   47.3099 H   0  0  0  0  0  0  0  0  0  0  0  0
   56.8837   32.4345   47.1369 H   0  0  0  0  0  0  0  0  0  0  0  0
   56.8669   29.2294   42.8765 H   0  0  0  0  0  0  0  0  0  0  0  0
   58.0868   25.7679   42.9201 H   0  0  0  0  0  0  0  0  0  0  0  0
   57.2341   27.0253   41.9617 H   0  0  0  0  0  0  0  0  0  0  0  0
   59.0292   26.9595   41.9617 H   0  0  0  0  0  0  0  0  0  0  0  0
   59.4170   26.4750   44.8430 H   0  0  0  0  0  0  0  0  0  0  0  0
   59.6921   29.3105   48.8302 H   0  0  0  0  0  0  0  0  0  0  0  0
  1  2  1  0
  2  3  1  0
  3  4  2  0
  4  5  1  0
  5  6  2  0
  6  7  1  0
  7  8  2  0
  8  9  1  0
  9 10  2  0
 10 11  1  0
 11 12  2  0
 12 13  1  0
 12 14  1  0
 14 15  1  0
 15 16  2  0
 16 17  1  0
 17 18  2  0
 18 19  1  0
  8  3  1  0
 19 10  1  0
 19 15  1  0
  1 20  1  0
  1 21  1  0
  1 22  1  0
  4 23  1  0
  5 24  1  0
  6 25  1  0
  7 26  1  0
 11 27  1  0
 13 28  1  0
 13 29  1  0
 13 30  1  0
 14 31  1  0
 17 32  1  0
M  END
>  <smiles>  (14) 
COc1ccccc1N=c1cc(C)[nH]c2ncnn12

>  <score_type>  (14) 
oracle

>  <origin>  (14) 
adg

>  <m_score__min__energy>  (14) 
-6.2800000000000002

>  <m_primary>  (14) 
energy

$$$$
14:0
     RDKit          3D

 23 23  0  0  0  0  0  0  0  0999 V2000
   58.8030   34.4820   45.2800 C   0  0  0  0  0  0  0  0  0  0  0  0
   57.6060   33.8910   45.2580 C   0  0  0  0  0  0  0  0  0  0  0  0
   57.3840   32.6010   44.5220 C   0  0  0  0  0  0  0  0  0  0  0  0
   57.1320   31.5380   45.4420 O   0  0  0  0  0  0  0  0  0  0  0  0
   57.6510   30.2500   45.2600 C   0  0  0  0  0  0  0  0  0  0  0  0
   56.8060   29.1800   44.8940 C   0  0  0  0  0  0  0  0  0  0  0  0
   55.3850   29.3430   44.8190 N   0  0  0  0  0  0  0  0  0  0  0  0
   57.3720   27.9240   44.6500 C   0  0  0  0  0  0  0  0  0  0  0  0
   58.7430   27.7360   44.8010 C   0  0  0  0  0  0  0  0  0  0  0  0
   59.5390   28.8040   45.2110 C   0  0  0  0  0  0  0  0  0  0  0  0
   58.9900   30.0280   45.4420 N   0  0  0  0  0  0  0  0  0  0  0  0
   59.8260   31.0440   45.8630 O   0  0  0  0  0  0  0  0  0  0  0  0
   58.9399   35.4268   45.8264 H   0  0  0  0  0  0  0  0  0  0  0  0
   59.6523   34.0241   44.7517 H   0  0  0  0  0  0  0  0  0  0  0  0
   56.7647   34.3589   45.7902 H   0  0  0  0  0  0  0  0  0  0  0  0
   56.5197   32.7113   43.8505 H   0  0  0  0  0  0  0  0  0  0  0  0
   58.2871   32.3625   43.9410 H   0  0  0  0  0  0  0  0  0  0  0  0
   54.7640   28.5680   44.4980 H   0  0  0  0  0  0  0  0  0  0  0  0
   54.9470   30.2730   45.0050 H   0  0  0  0  0  0  0  0  0  0  0  0
   56.7332   27.0844   44.3386 H   0  0  0  0  0  0  0  0  0  0  0  0
   59.1940   26.7534   44.5985 H   0  0  0  0  0  0  0  0  0  0  0  0
   60.6203   28.6566   45.3491 H   0  0  0  0  0  0  0  0  0  0  0  0
   59.4790   31.9690   46.0860 H   0  0  0  0  0  0  0  0  0  0  0  0
  1  2  2  0
  2  3  1  0
  3  4  1  0
  4  5  1  0
  5  6  2  0
  6  7  1  0
  6  8  1  0
  8  9  2  0
  9 10  1  0
 10 11  2  0
 11 12  1  0
 11  5  1  0
  1 13  1  0
  1 14  1  0
  2 15  1  0
  3 16  1  0
  3 17  1  0
  7 18  1  0
  7 19  1  0
  8 20  1  0
  9 21  1  0
 10 22  1  0
 12 23  1  0
M  CHG  1  11   1
M  END
>  <UniqueID>  (15) 
14

>  <SMILES>  (15) 
C=CCOc1c(N)ccc[n+]1O

>  <Energy>  (15) 
25.19736800019427

>  <Genealogy>  (15) 
C=CCOc1c(N)ccc[n+]1O (protonated)
C=CCOc1c(N)ccc[n+]1O (3D coordinates assigned)
C=CCOc1c(N)ccc[n+]1O (optimized conformer: 25.19736800019427 kcal/mol)

>  <smiles>  (15) 
C=CCOc1c(N)ccc[n+]1[O-]

>  <score_type>  (15) 
oracle

>  <origin>  (15) 
adg

>  <m_score__min__energy>  (15) 
-3.0699999999999998

>  <m_primary>  (15) 
energy

$$$$
15:0
     RDKit          3D

 44 46  0  0  0  0  0  0  0  0999 V2000
   60.7695   30.4640   47.9854 H   0  0  0  0  0  0  0  0  0  0  0  0
   59.7940   30.5480   47.4840 C   0  0  0  0  0  0  0  0  0  0  0  0
   57.3980   32.1240   45.5240 N   0  0  0  0  0  0  0  0  0  0  0  0
   59.0750   32.7720   47.0080 N   0  0  0  0  0  0  0  0  0  0  0  0
   59.9430   33.8100   47.2300 C   0  0  0  0  0  0  0  0  0  0  0  0
   61.0260   33.7800   48.2420 C   0  0  0  0  0  0  0  0  0  0  0  0
   62.3820   33.8030   47.8320 C   0  0  0  0  0  0  0  0  0  0  0  0
   62.7620   33.8440   46.3740 C   0  0  0  0  0  0  0  0  0  0  0  0
   63.8518   33.9616   46.2823 H   0  0  0  0  0  0  0  0  0  0  0  0
   62.4521   32.9072   45.8878 H   0  0  0  0  0  0  0  0  0  0  0  0
   62.2594   34.6931   45.8878 H   0  0  0  0  0  0  0  0  0  0  0  0
   63.3980   33.7810   48.8000 C   0  0  0  0  0  0  0  0  0  0  0  0
   64.4518   33.7803   48.4847 H   0  0  0  0  0  0  0  0  0  0  0  0
   63.0830   33.7600   50.1570 C   0  0  0  0  0  0  0  0  0  0  0  0
   63.8881   33.7592   50.9065 H   0  0  0  0  0  0  0  0  0  0  0  0
   61.7520   33.7400   50.5680 C   0  0  0  0  0  0  0  0  0  0  0  0
   61.5131   33.7336   51.6417 H   0  0  0  0  0  0  0  0  0  0  0  0
   60.7130   33.7280   49.6240 C   0  0  0  0  0  0  0  0  0  0  0  0
   59.2890   33.6930   50.1170 C   0  0  0  0  0  0  0  0  0  0  0  0
   59.2817   33.6928   51.2170 H   0  0  0  0  0  0  0  0  0  0  0  0
   58.7510   34.5782   49.7469 H   0  0  0  0  0  0  0  0  0  0  0  0
   58.7951   32.7824   49.7469 H   0  0  0  0  0  0  0  0  0  0  0  0
   59.8040   34.8770   46.3430 C   0  0  0  0  0  0  0  0  0  0  0  0
   60.3887   35.8086   46.3592 H   0  0  0  0  0  0  0  0  0  0  0  0
   58.5880   34.4950   45.2430 S   0  0  0  0  0  0  0  0  0  0  0  0
   58.2790   32.9900   45.9390 C   0  0  0  0  0  0  0  0  0  0  0  0
   59.0310   31.5670   47.7390 N   0  0  0  0  0  0  0  0  0  0  0  0
   57.3510   31.5470   44.1820 C   0  0  0  0  0  0  0  0  0  0  0  0
   58.3513   31.1769   43.9128 H   0  0  0  0  0  0  0  0  0  0  0  0
   57.0284   32.3244   43.4738 H   0  0  0  0  0  0  0  0  0  0  0  0
   56.3580   30.3910   44.1270 C   0  0  0  0  0  0  0  0  0  0  0  0
   56.0949   30.0847   45.1502 H   0  0  0  0  0  0  0  0  0  0  0  0
   55.4501   30.7125   43.5956 H   0  0  0  0  0  0  0  0  0  0  0  0
   56.8127   29.5420   43.5956 H   0  0  0  0  0  0  0  0  0  0  0  0
   59.3760   29.5040   46.5360 C   0  0  0  0  0  0  0  0  0  0  0  0
   58.2610   28.7730   46.8110 N   0  0  0  0  0  0  0  0  0  0  0  0
   57.8210   27.7890   45.9830 C   0  0  0  0  0  0  0  0  0  0  0  0
   56.9143   27.2207   46.2380 H   0  0  0  0  0  0  0  0  0  0  0  0
   58.5190   27.4990   44.8090 C   0  0  0  0  0  0  0  0  0  0  0  0
   58.1680   26.7034   44.1353 H   0  0  0  0  0  0  0  0  0  0  0  0
   59.6670   28.2300   44.5000 C   0  0  0  0  0  0  0  0  0  0  0  0
   60.2266   28.0132   43.5781 H   0  0  0  0  0  0  0  0  0  0  0  0
   60.1040   29.2370   45.3630 C   0  0  0  0  0  0  0  0  0  0  0  0
   61.0092   29.8159   45.1275 H   0  0  0  0  0  0  0  0  0  0  0  0
  1  2  1  0
  2  3  2  0
  3  4  1  0
  4  5  1  0
  5  6  1  0
  6  7  2  0
  7  8  1  0
  8  9  1  0
  8 10  1  0
  8 11  1  0
  7 12  1  0
 12 13  1  0
 12 14  2  0
 14 15  1  0
 14 16  1  0
 16 17  1  0
 16 18  2  0
 18 19  1  0
 19 20  1  0
 19 21  1  0
 19 22  1  0
  5 23  2  0
 23 24  1  0
 23 25  1  0
 25 26  1  0
 26 27  2  0
 27 28  1  0
 28 29  1  0
 28 30  1  0
 28 31  1  0
 31 32  1  0
 31 33  1  0
 31 34  1  0
  2 35  1  0
 35 36  2  0
 36 37  1  0
 37 38  1  0
 37 39  2  0
 39 40  1  0
 39 41  1  0
 41 42  1  0
 41 43  2  0
 43 44  1  0
 26  4  1  0
 43 35  1  0
 18  6  1  0
M  END
>  <UniqueID>  (16) 
15

>  <SMILES>  (16) 
CC/N=c1\scc(-c2c(C)cccc2C)n1/N=C/c1ccccn1

>  <Energy>  (16) 
86.12070477484592

>  <Genealogy>  (16) 
CC/N=c1\scc(-c2c(C)cccc2C)n1/N=C/c1ccccn1 (cis-trans isomerization)
CC/N=c1\scc(-c2c(C)cccc2C)n1/N=C/c1ccccn1 (3D coordinates assigned)
CC/N=c1\scc(-c2c(C)cccc2C)n1/N=C/c1ccccn1 (optimized conformer: 86.12070477484592 kcal/mol)

>  <smiles>  (16) 
CCN=c1scc(-c2c(C)cccc2C)n1N=Cc1ccccn1

>  <score_type>  (16) 
oracle

>  <origin>  (16) 
adg

>  <m_score__min__energy>  (16) 
-7.4199999999999999

>  <m_primary>  (16) 
energy

$$$$
16:0
     RDKit          3D

 40 41  0  0  0  0  0  0  0  0999 V2000
   63.6660   33.8510   50.6880 C   0  0  0  0  0  0  0  0  0  0  0  0
   63.1390   33.7410   49.2880 C   0  0  0  0  0  0  0  0  0  0  0  0
   63.9880   33.3850   48.2350 C   0  0  0  0  0  0  0  0  0  0  0  0
   63.4770   33.2520   46.9460 C   0  0  0  0  0  0  0  0  0  0  0  0
   62.1150   33.4660   46.7210 C   0  0  0  0  0  0  0  0  0  0  0  0
   61.2830   33.7980   47.7550 N   0  0  0  0  0  0  0  0  0  0  0  0
   59.8560   34.0280   47.4890 C   0  0  0  0  0  0  0  0  0  0  0  0
   59.6360   35.2800   46.6220 C   0  0  0  0  0  0  0  0  0  0  0  0
   59.2530   34.9770   45.1600 C   0  0  0  0  0  0  0  0  0  0  0  0
   58.0530   34.0230   44.9890 C   0  0  0  0  0  0  0  0  0  0  0  0
   58.1460   33.0960   43.7650 C   0  0  0  0  0  0  0  0  0  0  0  0
   57.7700   31.6740   44.0940 C   0  0  0  0  0  0  0  0  0  0  0  0
   56.9690   30.9260   43.2150 C   0  0  0  0  0  0  0  0  0  0  0  0
   56.6030   29.6150   43.5380 C   0  0  0  0  0  0  0  0  0  0  0  0
   57.0320   29.0430   44.7380 C   0  0  0  0  0  0  0  0  0  0  0  0
   57.8270   29.7820   45.6200 C   0  0  0  0  0  0  0  0  0  0  0  0
   58.1940   31.0930   45.3010 C   0  0  0  0  0  0  0  0  0  0  0  0
   61.7740   33.9280   49.0260 C   0  0  0  0  0  0  0  0  0  0  0  0
   62.8473   33.6801   51.4025 H   0  0  0  0  0  0  0  0  0  0  0  0
   64.4521   33.0976   50.8441 H   0  0  0  0  0  0  0  0  0  0  0  0
   64.0851   34.8560   50.8441 H   0  0  0  0  0  0  0  0  0  0  0  0
   65.0574   33.2103   48.4245 H   0  0  0  0  0  0  0  0  0  0  0  0
   64.1407   32.9806   46.1118 H   0  0  0  0  0  0  0  0  0  0  0  0
   61.7081   33.3667   45.7039 H   0  0  0  0  0  0  0  0  0  0  0  0
   59.4453   33.1532   46.9635 H   0  0  0  0  0  0  0  0  0  0  0  0
   59.3471   34.1825   48.4519 H   0  0  0  0  0  0  0  0  0  0  0  0
   58.8286   35.8750   47.0739 H   0  0  0  0  0  0  0  0  0  0  0  0
   60.5958   35.8166   46.5925 H   0  0  0  0  0  0  0  0  0  0  0  0
   59.0062   35.9288   44.6668 H   0  0  0  0  0  0  0  0  0  0  0  0
   60.1192   34.4675   44.7127 H   0  0  0  0  0  0  0  0  0  0  0  0
   57.9808   33.3964   45.8902 H   0  0  0  0  0  0  0  0  0  0  0  0
   57.1677   34.6575   44.8351 H   0  0  0  0  0  0  0  0  0  0  0  0
   57.4661   33.4703   42.9854 H   0  0  0  0  0  0  0  0  0  0  0  0
   59.1909   33.0967   43.4212 H   0  0  0  0  0  0  0  0  0  0  0  0
   56.6284   31.3728   42.2693 H   0  0  0  0  0  0  0  0  0  0  0  0
   55.9763   29.0336   42.8458 H   0  0  0  0  0  0  0  0  0  0  0  0
   56.7446   28.0114   44.9893 H   0  0  0  0  0  0  0  0  0  0  0  0
   58.1638   29.3316   46.5653 H   0  0  0  0  0  0  0  0  0  0  0  0
   58.8175   31.6721   45.9981 H   0  0  0  0  0  0  0  0  0  0  0  0
   61.0911   34.1817   49.8502 H   0  0  0  0  0  0  0  0  0  0  0  0
  1  2  1  0
  2  3  2  0
  3  4  1  0
  4  5  2  0
  5  6  1  0
  6  7  1  0
  7  8  1  0
  8  9  1  0
  9 10  1  0
 10 11  1  0
 11 12  1  0
 12 13  2  0
 13 14  1  0
 14 15  2  0
 15 16  1  0
 16 17  2  0
  6 18  2  0
 18  2  1  0
 17 12  1  0
  1 19  1  0
  1 20  1  0
  1 21  1  0
  3 22  1  0
  4 23  1  0
  5 24  1  0
  7 25  1  0
  7 26  1  0
  8 27  1  0
  8 28  1  0
  9 29  1  0
  9 30  1  0
 10 31  1  0
 10 32  1  0
 11 33  1  0
 11 34  1  0
 13 35  1  0
 14 36  1  0
 15 37  1  0
 16 38  1  0
 17 39  1  0
 18 40  1  0
M  CHG  1   6   1
M  END
>  <UniqueID>  (17) 
16

>  <SMILES>  (17) 
Cc1ccc[n+](CCCCCc2ccccc2)c1

>  <Energy>  (17) 
33.183209600973605

>  <Genealogy>  (17) 
Cc1ccc[n+](CCCCCc2ccccc2)c1 (3D coordinates assigned)
Cc1ccc[n+](CCCCCc2ccccc2)c1 (optimized conformer: 33.183209600973605 kcal/mol)

>  <smiles>  (17) 
Cc1ccc[n+](CCCCCc2ccccc2)c1

>  <score_type>  (17) 
oracle

>  <origin>  (17) 
adg

>  <m_score__min__energy>  (17) 
-5.4500000000000002

>  <m_primary>  (17) 
energy

$$$$
17:0
     RDKit          3D

 51 53  0  0  0  0  0  0  0  0999 V2000
   59.3230   35.2810   44.9350 C   0  0  0  0  0  0  0  0  0  0  0  0
   59.1490   34.4620   46.1760 C   0  0  0  0  0  0  0  0  0  0  0  0
   60.0910   34.3980   47.1420 N   0  0  0  0  0  0  0  0  0  0  0  0
   59.6020   33.5070   48.0260 C   0  0  0  0  0  0  0  0  0  0  0  0
   58.3880   33.0340   47.5820 C   0  0  0  0  0  0  0  0  0  0  0  0
   58.1010   33.6430   46.4190 N   0  0  0  0  0  0  0  0  0  0  0  0
   56.9130   33.4090   45.5920 C   0  0  0  0  0  0  0  0  0  0  0  0
   57.1570   32.2970   44.5680 C   0  0  0  0  0  0  0  0  0  0  0  0
   57.4140   31.0080   45.2580 N   0  0  0  0  0  0  0  0  0  0  0  0
   58.8570   30.6730   45.2870 C   0  0  0  0  0  0  0  0  0  0  0  0
   59.1730   29.5500   46.3030 C   0  0  0  0  0  0  0  0  0  0  0  0
   59.1800   28.1350   45.6920 C   0  0  0  0  0  0  0  0  0  0  0  0
   57.9460   27.7750   44.9400 N   0  0  0  0  0  0  0  0  0  0  0  0
   56.8820   27.2700   45.8330 C   0  0  0  0  0  0  0  0  0  0  0  0
   56.5320   25.8490   45.4970 C   0  0  0  0  0  0  0  0  0  0  0  0
   55.8500   25.1700   46.3100 O   0  0  0  0  0  0  0  0  0  0  0  0
   56.9460   25.2900   44.2410 N   0  0  0  0  0  0  0  0  0  0  0  0
   56.9390   23.8840   43.9460 C   0  0  0  0  0  0  0  0  0  0  0  0
   57.8800   23.0420   44.5550 C   0  0  0  0  0  0  0  0  0  0  0  0
   57.8660   21.6700   44.2960 C   0  0  0  0  0  0  0  0  0  0  0  0
   56.8960   21.1470   43.4410 C   0  0  0  0  0  0  0  0  0  0  0  0
   55.9720   21.9680   42.8760 N   0  0  0  0  0  0  0  0  0  0  0  0
   55.9680   23.3080   43.1090 C   0  0  0  0  0  0  0  0  0  0  0  0
   57.4280   28.8030   44.0060 C   0  0  0  0  0  0  0  0  0  0  0  0
   56.5980   29.9200   44.6750 C   0  0  0  0  0  0  0  0  0  0  0  0
   59.5443   36.3225   45.2111 H   0  0  0  0  0  0  0  0  0  0  0  0
   60.1548   34.8745   44.3410 H   0  0  0  0  0  0  0  0  0  0  0  0
   58.3978   35.2478   44.3410 H   0  0  0  0  0  0  0  0  0  0  0  0
   60.0973   33.2037   48.9602 H   0  0  0  0  0  0  0  0  0  0  0  0
   57.7613   32.2869   48.0910 H   0  0  0  0  0  0  0  0  0  0  0  0
   56.0750   33.1189   46.2429 H   0  0  0  0  0  0  0  0  0  0  0  0
   56.6809   34.3365   45.0481 H   0  0  0  0  0  0  0  0  0  0  0  0
   56.2699   32.1942   43.9258 H   0  0  0  0  0  0  0  0  0  0  0  0
   58.0351   32.5580   43.9591 H   0  0  0  0  0  0  0  0  0  0  0  0
   59.1644   30.3411   44.2843 H   0  0  0  0  0  0  0  0  0  0  0  0
   59.4079   31.5738   45.5953 H   0  0  0  0  0  0  0  0  0  0  0  0
   60.1653   29.7446   46.7360 H   0  0  0  0  0  0  0  0  0  0  0  0
   58.3712   29.5674   47.0559 H   0  0  0  0  0  0  0  0  0  0  0  0
   60.0342   28.0638   45.0026 H   0  0  0  0  0  0  0  0  0  0  0  0
   59.2450   27.4328   46.5362 H   0  0  0  0  0  0  0  0  0  0  0  0
   57.2326   27.3182   46.8745 H   0  0  0  0  0  0  0  0  0  0  0  0
   55.9858   27.8940   45.7007 H   0  0  0  0  0  0  0  0  0  0  0  0
   57.2200   25.9530   43.4800 H   0  0  0  0  0  0  0  0  0  0  0  0
   58.6315   23.4634   45.2388 H   0  0  0  0  0  0  0  0  0  0  0  0
   58.6119   21.0088   44.7612 H   0  0  0  0  0  0  0  0  0  0  0  0
   56.8789   20.0688   43.2238 H   0  0  0  0  0  0  0  0  0  0  0  0
   55.2019   23.9433   42.6406 H   0  0  0  0  0  0  0  0  0  0  0  0
   58.2857   29.2696   43.4994 H   0  0  0  0  0  0  0  0  0  0  0  0
   56.7493   28.2821   43.3145 H   0  0  0  0  0  0  0  0  0  0  0  0
   55.9304   30.3561   43.9173 H   0  0  0  0  0  0  0  0  0  0  0  0
   56.0479   29.4541   45.5058 H   0  0  0  0  0  0  0  0  0  0  0  0
  1  2  1  0
  2  3  2  0
  3  4  1  0
  4  5  2  0
  5  6  1  0
  6  7  1  0
  7  8  1  0
  8  9  1  0
  9 10  1  0
 10 11  1  0
 11 12  1  0
 12 13  1  0
 13 14  1  0
 14 15  1  0
 15 16  2  0
 15 17  1  0
 17 18  1  0
 18 19  2  0
 19 20  1  0
 20 21  2  0
 21 22  1  0
 22 23  2  0
 13 24  1  0
 24 25  1  0
  6  2  1  0
 25  9  1  0
 23 18  1  0
  1 26  1  0
  1 27  1  0
  1 28  1  0
  4 29  1  0
  5 30  1  0
  7 31  1  0
  7 32  1  0
  8 33  1  0
  8 34  1  0
 10 35  1  0
 10 36  1  0
 11 37  1  0
 11 38  1  0
 12 39  1  0
 12 40  1  0
 14 41  1  0
 14 42  1  0
 17 43  1  0
 19 44  1  0
 20 45  1  0
 21 46  1  0
 23 47  1  0
 24 48  1  0
 24 49  1  0
 25 50  1  0
 25 51  1  0
M  END
>  <UniqueID>  (18) 
17

>  <SMILES>  (18) 
Cc1nccn1CCN1CCCN(CC(=O)Nc2cccnc2)CC1

>  <Energy>  (18) 
97.78186229982111

>  <Genealogy>  (18) 
Cc1nccn1CCN1CCCN(CC(=O)Nc2cccnc2)CC1 (3D coordinates assigned)
Cc1nccn1CCN1CCCN(CC(=O)Nc2cccnc2)CC1 (nonaromatic ring conformer: 97.78186229982111 kcal/mol)

>  <smiles>  (18) 
Cc1nccn1CCN1CCCN(CC(=O)Nc2cccnc2)CC1

>  <score_type>  (18) 
oracle

>  <origin>  (18) 
adg

>  <m_score__min__energy>  (18) 
-6.21

>  <m_primary>  (18) 
energy

$$$$
18:0
     RDKit          3D

 44 46  0  0  0  0  0  0  0  0999 V2000
   59.6740   33.7440   50.0350 C   0  0  0  0  0  0  0  0  0  0  0  0
   60.0940   33.7930   48.6030 C   0  0  0  0  0  0  0  0  0  0  0  0
   61.4170   33.4330   48.3370 C   0  0  0  0  0  0  0  0  0  0  0  0
   61.8720   33.4580   47.0360 C   0  0  0  0  0  0  0  0  0  0  0  0
   61.0240   33.8340   46.0380 C   0  0  0  0  0  0  0  0  0  0  0  0
   59.6970   34.1970   46.2950 C   0  0  0  0  0  0  0  0  0  0  0  0
   58.8440   34.5930   45.1490 C   0  0  0  0  0  0  0  0  0  0  0  0
   57.2140   33.8060   45.2280 S   0  0  0  0  0  0  0  0  0  0  0  0
   57.4140   32.0390   45.0460 C   0  0  0  0  0  0  0  0  0  0  0  0
   56.2980   31.3530   44.6570 N   0  0  0  0  0  0  0  0  0  0  0  0
   56.3530   30.0180   44.4970 C   0  0  0  0  0  0  0  0  0  0  0  0
   55.3160   29.4200   44.1410 O   0  0  0  0  0  0  0  0  0  0  0  0
   57.5580   29.3870   44.7360 C   0  0  0  0  0  0  0  0  0  0  0  0
   57.5960   27.9160   44.5480 C   0  0  0  0  0  0  0  0  0  0  0  0
   58.6970   30.0480   45.1280 C   0  0  0  0  0  0  0  0  0  0  0  0
   59.9930   29.4280   45.4000 C   0  0  0  0  0  0  0  0  0  0  0  0
   60.2340   29.0070   46.7810 C   0  0  0  0  0  0  0  0  0  0  0  0
   60.5090   30.0180   47.7110 C   0  0  0  0  0  0  0  0  0  0  0  0
   60.7590   29.7430   49.0380 C   0  0  0  0  0  0  0  0  0  0  0  0
   60.7410   28.4300   49.4800 C   0  0  0  0  0  0  0  0  0  0  0  0
   60.4740   27.4130   48.5910 C   0  0  0  0  0  0  0  0  0  0  0  0
   60.2250   27.7320   47.2560 C   0  0  0  0  0  0  0  0  0  0  0  0
   58.5690   31.4030   45.2720 N   0  0  0  0  0  0  0  0  0  0  0  0
   59.2260   34.1760   47.5990 C   0  0  0  0  0  0  0  0  0  0  0  0
   60.5588   33.8472   50.6804 H   0  0  0  0  0  0  0  0  0  0  0  0
   58.9728   34.5664   50.2398 H   0  0  0  0  0  0  0  0  0  0  0  0
   59.1810   32.7822   50.2398 H   0  0  0  0  0  0  0  0  0  0  0  0
   62.0877   33.1332   49.1557 H   0  0  0  0  0  0  0  0  0  0  0  0
   62.9102   33.1770   46.8056 H   0  0  0  0  0  0  0  0  0  0  0  0
   61.3925   33.8528   45.0017 H   0  0  0  0  0  0  0  0  0  0  0  0
   58.7141   35.6852   45.1613 H   0  0  0  0  0  0  0  0  0  0  0  0
   59.3392   34.2668   44.2225 H   0  0  0  0  0  0  0  0  0  0  0  0
   57.6088   27.4210   45.5303 H   0  0  0  0  0  0  0  0  0  0  0  0
   56.7059   27.5949   43.9872 H   0  0  0  0  0  0  0  0  0  0  0  0
   58.5015   27.6413   43.9872 H   0  0  0  0  0  0  0  0  0  0  0  0
   60.0802   28.5386   44.7586 H   0  0  0  0  0  0  0  0  0  0  0  0
   60.7401   30.2095   45.1973 H   0  0  0  0  0  0  0  0  0  0  0  0
   60.5259   31.0641   47.3713 H   0  0  0  0  0  0  0  0  0  0  0  0
   60.9716   30.5610   49.7421 H   0  0  0  0  0  0  0  0  0  0  0  0
   60.9393   28.2008   50.5374 H   0  0  0  0  0  0  0  0  0  0  0  0
   60.4573   26.3660   48.9280 H   0  0  0  0  0  0  0  0  0  0  0  0
   60.0110   26.9132   46.5533 H   0  0  0  0  0  0  0  0  0  0  0  0
   59.4000   31.9680   45.5690 H   0  0  0  0  0  0  0  0  0  0  0  0
   58.1875   34.4572   47.8281 H   0  0  0  0  0  0  0  0  0  0  0  0
  1  2  1  0
  2  3  2  0
  3  4  1  0
  4  5  2  0
  5  6  1  0
  6  7  1  0
  7  8  1  0
  8  9  1  0
  9 10  2  0
 10 11  1  0
 11 12  2  0
 11 13  1  0
 13 14  1  0
 13 15  2  0
 15 16  1  0
 16 17  1  0
 17 18  2  0
 18 19  1  0
 19 20  2  0
 20 21  1  0
 21 22  2  0
 15 23  1  0
  6 24  2  0
 24  2  1  0
 23  9  1  0
 22 17  1  0
  1 25  1  0
  1 26  1  0
  1 27  1  0
  3 28  1  0
  4 29  1  0
  5 30  1  0
  7 31  1  0
  7 32  1  0
 14 33  1  0
 14 34  1  0
 14 35  1  0
 16 36  1  0
 16 37  1  0
 18 38  1  0
 19 39  1  0
 20 40  1  0
 21 41  1  0
 22 42  1  0
 23 43  1  0
 24 44  1  0
M  END
>  <smiles>  (19) 
Cc1cccc(CSc2nc(=O)c(C)c(Cc3ccccc3)[nH]2)c1

>  <score_type>  (19) 
oracle

>  <origin>  (19) 
adg

>  <m_score__min__energy>  (19) 
-8.7200000000000006

>  <m_primary>  (19) 
energy

$$$$
19:0
     RDKit          3D

 34 37  0  0  0  0  0  0  0  0999 V2000
   55.1310   29.2710   42.5840 H   0  0  0  0  0  0  0  0  0  0  0  0
   55.0850   29.7060   43.5330 N   0  0  0  0  0  0  0  0  0  0  0  0
   56.1360   29.8460   44.2780 C   0  0  0  0  0  0  0  0  0  0  0  0
   56.6510   31.0860   44.4720 N   0  0  0  0  0  0  0  0  0  0  0  0
   57.7440   31.2820   45.2510 C   0  0  0  0  0  0  0  0  0  0  0  0
   58.1426   32.2971   45.3952 H   0  0  0  0  0  0  0  0  0  0  0  0
   58.3630   30.1930   45.8700 C   0  0  0  0  0  0  0  0  0  0  0  0
   59.4770   30.3750   46.7000 C   0  0  0  0  0  0  0  0  0  0  0  0
   59.8833   31.3843   46.8621 H   0  0  0  0  0  0  0  0  0  0  0  0
   60.0700   29.2770   47.3200 C   0  0  0  0  0  0  0  0  0  0  0  0
   60.9379   29.4230   47.9798 H   0  0  0  0  0  0  0  0  0  0  0  0
   59.5670   27.9930   47.1070 C   0  0  0  0  0  0  0  0  0  0  0  0
   60.0414   27.1341   47.6043 H   0  0  0  0  0  0  0  0  0  0  0  0
   58.4620   27.7840   46.2650 C   0  0  0  0  0  0  0  0  0  0  0  0
   58.0070   26.3950   46.0360 C   0  0  0  0  0  0  0  0  0  0  0  0
   57.8070   25.5280   47.1230 C   0  0  0  0  0  0  0  0  0  0  0  0
   58.0052   25.8798   48.1462 H   0  0  0  0  0  0  0  0  0  0  0  0
   57.3580   24.2220   46.9130 C   0  0  0  0  0  0  0  0  0  0  0  0
   57.2126   23.5477   47.7698 H   0  0  0  0  0  0  0  0  0  0  0  0
   57.0920   23.7680   45.6130 C   0  0  0  0  0  0  0  0  0  0  0  0
   56.6390   22.4580   45.3910 C   0  0  0  0  0  0  0  0  0  0  0  0
   56.4914   21.7769   46.2420 H   0  0  0  0  0  0  0  0  0  0  0  0
   56.3750   22.0170   44.0910 C   0  0  0  0  0  0  0  0  0  0  0  0
   56.0222   20.9890   43.9215 H   0  0  0  0  0  0  0  0  0  0  0  0
   56.5580   22.8780   43.0070 C   0  0  0  0  0  0  0  0  0  0  0  0
   56.3475   22.5257   41.9864 H   0  0  0  0  0  0  0  0  0  0  0  0
   57.0080   24.1870   43.2130 C   0  0  0  0  0  0  0  0  0  0  0  0
   57.1502   24.8606   42.3551 H   0  0  0  0  0  0  0  0  0  0  0  0
   57.2780   24.6410   44.5130 C   0  0  0  0  0  0  0  0  0  0  0  0
   57.7300   25.9510   44.7340 C   0  0  0  0  0  0  0  0  0  0  0  0
   57.8679   26.6333   43.8823 H   0  0  0  0  0  0  0  0  0  0  0  0
   57.8350   28.8990   45.6490 C   0  0  0  0  0  0  0  0  0  0  0  0
   56.7200   28.7610   44.8680 N   0  0  0  0  0  0  0  0  0  0  0  0
   56.2850   27.8230   44.7230 H   0  0  0  0  0  0  0  0  0  0  0  0
  1  2  1  0
  2  3  2  0
  3  4  1  0
  4  5  2  0
  5  6  1  0
  5  7  1  0
  7  8  2  0
  8  9  1  0
  8 10  1  0
 10 11  1  0
 10 12  2  0
 12 13  1  0
 12 14  1  0
 14 15  1  0
 15 16  2  0
 16 17  1  0
 16 18  1  0
 18 19  1  0
 18 20  2  0
 20 21  1  0
 21 22  1  0
 21 23  2  0
 23 24  1  0
 23 25  1  0
 25 26  1  0
 25 27  2  0
 27 28  1  0
 27 29  1  0
 29 30  2  0
 30 31  1  0
 14 32  2  0
 32 33  1  0
 33 34  1  0
 33  3  1  0
 32  7  1  0
 30 15  1  0
 29 20  1  0
M  END
>  <UniqueID>  (20) 
18

>  <SMILES>  (20) 
[H]/N=c1/ncc2cccc(-c3ccc4ccccc4c3)c2[nH]1

>  <Energy>  (20) 
54.08006954867257

>  <Genealogy>  (20) 
[H]/N=c1/ncc2cccc(-c3ccc4ccccc4c3)c2[nH]1 (cis-trans isomerization)
[H]/N=c1/ncc2cccc(-c3ccc4ccccc4c3)c2[nH]1 (3D coordinates assigned)
[H]/N=c1/ncc2cccc(-c3ccc4ccccc4c3)c2[nH]1 (optimized conformer: 54.08006954867257 kcal/mol)

>  <smiles>  (20) 
N=c1ncc2cccc(-c3ccc4ccccc4c3)c2[nH]1

>  <score_type>  (20) 
oracle

>  <origin>  (20) 
adg

>  <m_score__min__energy>  (20) 
-8.1400000000000006

>  <m_primary>  (20) 
energy

$$$$
20:0
     RDKit          3D

 35 37  0  0  0  0  0  0  0  0999 V2000
   57.7650   32.4020   43.1690 C   0  0  0  0  0  0  0  0  0  0  0  0
   58.2050   32.8240   44.5470 C   0  0  0  0  0  0  0  0  0  0  0  0
   58.2380   34.1860   44.8710 C   0  0  0  0  0  0  0  0  0  0  0  0
   58.6610   34.5870   46.0950 N   0  0  0  0  0  0  0  0  0  0  0  0
   59.0500   33.6870   47.0310 C   0  0  0  0  0  0  0  0  0  0  0  0
   59.6300   34.2610   48.6250 S   0  0  0  0  0  0  0  0  0  0  0  0
   61.3340   33.8680   48.2350 C   0  0  0  0  0  0  0  0  0  0  0  0
   62.2430   33.5860   49.2630 C   0  0  0  0  0  0  0  0  0  0  0  0
   63.5700   33.2710   48.9580 C   0  0  0  0  0  0  0  0  0  0  0  0
   63.9940   33.2400   47.6250 C   0  0  0  0  0  0  0  0  0  0  0  0
   63.0890   33.5230   46.5970 C   0  0  0  0  0  0  0  0  0  0  0  0
   61.7600   33.8390   46.9000 C   0  0  0  0  0  0  0  0  0  0  0  0
   59.0070   32.3550   46.7570 N   0  0  0  0  0  0  0  0  0  0  0  0
   58.5810   31.8960   45.5450 C   0  0  0  0  0  0  0  0  0  0  0  0
   58.5530   30.4350   45.3070 C   0  0  0  0  0  0  0  0  0  0  0  0
   59.7420   29.6860   45.2880 C   0  0  0  0  0  0  0  0  0  0  0  0
   59.7020   28.3090   45.0450 C   0  0  0  0  0  0  0  0  0  0  0  0
   58.4800   27.6740   44.8080 C   0  0  0  0  0  0  0  0  0  0  0  0
   58.4440   26.3400   44.5700 F   0  0  0  0  0  0  0  0  0  0  0  0
   57.2950   28.4160   44.8100 C   0  0  0  0  0  0  0  0  0  0  0  0
   57.3310   29.7920   45.0520 C   0  0  0  0  0  0  0  0  0  0  0  0
   56.9734   31.6428   43.2533 H   0  0  0  0  0  0  0  0  0  0  0  0
   57.3785   33.2758   42.6239 H   0  0  0  0  0  0  0  0  0  0  0  0
   58.6219   31.9793   42.6239 H   0  0  0  0  0  0  0  0  0  0  0  0
   57.9194   34.9334   44.1294 H   0  0  0  0  0  0  0  0  0  0  0  0
   61.9118   33.6125   50.3116 H   0  0  0  0  0  0  0  0  0  0  0  0
   64.2816   33.0473   49.7665 H   0  0  0  0  0  0  0  0  0  0  0  0
   65.0389   32.9931   47.3856 H   0  0  0  0  0  0  0  0  0  0  0  0
   63.4223   33.4971   45.5490 H   0  0  0  0  0  0  0  0  0  0  0  0
   61.0498   34.0646   46.0908 H   0  0  0  0  0  0  0  0  0  0  0  0
   59.2980   31.6780   47.4970 H   0  0  0  0  0  0  0  0  0  0  0  0
   60.7068   30.1840   45.4647 H   0  0  0  0  0  0  0  0  0  0  0  0
   60.6342   27.7250   45.0405 H   0  0  0  0  0  0  0  0  0  0  0  0
   56.3335   27.9163   44.6209 H   0  0  0  0  0  0  0  0  0  0  0  0
   56.3977   30.3741   45.0427 H   0  0  0  0  0  0  0  0  0  0  0  0
  1  2  1  0
  2  3  2  0
  3  4  1  0
  4  5  2  0
  5  6  1  0
  6  7  1  0
  7  8  2  0
  8  9  1  0
  9 10  2  0
 10 11  1  0
 11 12  2  0
  5 13  1  0
 13 14  2  0
 14 15  1  0
 15 16  2  0
 16 17  1  0
 17 18  2  0
 18 19  1  0
 18 20  1  0
 20 21  2  0
 14  2  1  0
 21 15  1  0
 12  7  1  0
  1 22  1  0
  1 23  1  0
  1 24  1  0
  3 25  1  0
  8 26  1  0
  9 27  1  0
 10 28  1  0
 11 29  1  0
 12 30  1  0
 13 31  1  0
 16 32  1  0
 17 33  1  0
 20 34  1  0
 21 35  1  0
M  CHG  1  13   1
M  END
>  <UniqueID>  (21) 
19

>  <SMILES>  (21) 
Cc1cnc(Sc2ccccc2)[nH+]c1-c1ccc(F)cc1

>  <Energy>  (21) 
40.344553085658504

>  <Genealogy>  (21) 
Cc1cnc(Sc2ccccc2)[nH+]c1-c1ccc(F)cc1 (protonated)
Cc1cnc(Sc2ccccc2)[nH+]c1-c1ccc(F)cc1 (3D coordinates assigned)
Cc1cnc(Sc2ccccc2)[nH+]c1-c1ccc(F)cc1 (optimized conformer: 40.344553085658504 kcal/mol)

>  <smiles>  (21) 
Cc1cnc(Sc2ccccc2)nc1-c1ccc(F)cc1

>  <score_type>  (21) 
oracle

>  <origin>  (21) 
adg

>  <m_score__min__energy>  (21) 
-6.21

>  <m_primary>  (21) 
energy

$$$$
21:0
     RDKit          3D

 36 37  0  0  0  0  0  0  0  0999 V2000
   58.6970   34.9350   44.8950 C   0  0  0  0  0  0  0  0  0  0  0  0
   59.2220   33.7170   45.5940 C   0  0  0  0  0  0  0  0  0  0  0  0
   60.1030   33.8680   46.4850 O   0  0  0  0  0  0  0  0  0  0  0  0
   58.7390   32.3940   45.2690 N   0  0  0  0  0  0  0  0  0  0  0  0
   59.2380   31.2240   46.0070 C   0  0  0  0  0  0  0  0  0  0  0  0
   58.1360   30.1600   46.2170 C   0  0  0  0  0  0  0  0  0  0  0  0
   57.0160   30.2570   45.2470 N   0  0  0  0  0  0  0  0  0  0  0  0
   56.2930   28.9730   45.1170 C   0  0  0  0  0  0  0  0  0  0  0  0
   57.2610   27.8180   44.8310 C   0  0  0  0  0  0  0  0  0  0  0  0
   57.1250   26.7670   45.8390 N   0  0  0  0  0  0  0  0  0  0  0  0
   58.2200   26.1580   46.5790 C   0  0  0  0  0  0  0  0  0  0  0  0
   57.5660   25.0610   47.4550 C   0  0  0  0  0  0  0  0  0  0  0  0
   56.1420   25.0630   47.1310 N   0  0  0  0  0  0  0  0  0  0  0  0
   55.9390   26.0820   46.1790 C   0  0  0  0  0  0  0  0  0  0  0  0
   54.8130   26.3380   45.6760 O   0  0  0  0  0  0  0  0  0  0  0  0
   57.4850   30.7290   43.9340 C   0  0  0  0  0  0  0  0  0  0  0  0
   57.9180   32.1890   44.0660 C   0  0  0  0  0  0  0  0  0  0  0  0
   58.3772   35.6769   45.6415 H   0  0  0  0  0  0  0  0  0  0  0  0
   59.4891   35.3664   44.2653 H   0  0  0  0  0  0  0  0  0  0  0  0
   57.8395   34.6554   44.2653 H   0  0  0  0  0  0  0  0  0  0  0  0
   60.0648   30.7720   45.4395 H   0  0  0  0  0  0  0  0  0  0  0  0
   59.5752   31.5646   46.9971 H   0  0  0  0  0  0  0  0  0  0  0  0
   58.5928   29.1640   46.1206 H   0  0  0  0  0  0  0  0  0  0  0  0
   57.7100   30.3332   47.2163 H   0  0  0  0  0  0  0  0  0  0  0  0
   55.7558   28.7672   46.0546 H   0  0  0  0  0  0  0  0  0  0  0  0
   55.5885   29.0535   44.2760 H   0  0  0  0  0  0  0  0  0  0  0  0
   57.0385   27.3978   43.8391 H   0  0  0  0  0  0  0  0  0  0  0  0
   58.2905   28.2044   44.8600 H   0  0  0  0  0  0  0  0  0  0  0  0
   58.9510   25.7132   45.8877 H   0  0  0  0  0  0  0  0  0  0  0  0
   58.7630   26.8966   47.1870 H   0  0  0  0  0  0  0  0  0  0  0  0
   58.0062   24.0794   47.2255 H   0  0  0  0  0  0  0  0  0  0  0  0
   57.7299   25.2572   48.5249 H   0  0  0  0  0  0  0  0  0  0  0  0
   58.3380   30.1180   43.6038 H   0  0  0  0  0  0  0  0  0  0  0  0
   56.6765   30.6426   43.1932 H   0  0  0  0  0  0  0  0  0  0  0  0
   58.5045   32.4708   43.1791 H   0  0  0  0  0  0  0  0  0  0  0  0
   57.0162   32.8134   44.1494 H   0  0  0  0  0  0  0  0  0  0  0  0
  1  2  1  0
  2  3  2  0
  2  4  1  0
  4  5  1  0
  5  6  1  0
  6  7  1  0
  7  8  1  0
  8  9  1  0
  9 10  1  0
 10 11  1  0
 11 12  1  0
 12 13  1  0
 13 14  1  0
 14 15  2  0
  7 16  1  0
 16 17  1  0
 17  4  1  0
 14 10  1  0
  1 18  1  0
  1 19  1  0
  1 20  1  0
  5 21  1  0
  5 22  1  0
  6 23  1  0
  6 24  1  0
  8 25  1  0
  8 26  1  0
  9 27  1  0
  9 28  1  0
 11 29  1  0
 11 30  1  0
 12 31  1  0
 12 32  1  0
 16 33  1  0
 16 34  1  0
 17 35  1  0
 17 36  1  0
M  CHG  1  13  -1
M  END
>  <UniqueID>  (22) 
20

>  <SMILES>  (22) 
CC(=O)N1CCN(CCN2CC[N-]C2=O)CC1

>  <Energy>  (22) 
48.282164410218606

>  <Genealogy>  (22) 
CC(=O)N1CCN(CCN2CC[N-]C2=O)CC1 (protonated)
CC(=O)N1CCN(CCN2CC[N-]C2=O)CC1 (3D coordinates assigned)
CC(=O)N1CCN(CCN2CC[N-]C2=O)CC1 (nonaromatic ring conformer: 48.282164410218606 kcal/mol)

>  <smiles>  (22) 
CC(=O)N1CCN(CCN2CCNC2=O)CC1

>  <score_type>  (22) 
oracle

>  <origin>  (22) 
adg

>  <m_score__min__energy>  (22) 
-8.0199999999999996

>  <m_primary>  (22) 
energy

$$$$
22:0
     RDKit          3D

 53 53  0  0  0  0  0  0  0  0999 V2000
   57.8210   26.3900   44.8810 C   0  0  0  0  0  0  0  0  0  0  0  0
   58.1380   27.3650   43.7420 C   0  0  0  0  0  0  0  0  0  0  0  0
   58.9630   28.5990   44.1790 C   0  0  2  0  0  0  0  0  0  0  0  0
   60.3050   28.2190   44.8430 C   0  0  0  0  0  0  0  0  0  0  0  0
   60.2100   28.8230   46.2030 C   0  0  0  0  0  0  0  0  0  0  0  0
   59.0800   29.4940   46.3520 C   0  0  0  0  0  0  0  0  0  0  0  0
   58.8100   30.3610   47.5210 C   0  0  0  0  0  0  0  0  0  0  0  0
   58.6140   29.8400   48.6530 O   0  0  0  0  0  0  0  0  0  0  0  0
   58.8340   31.7510   47.3860 O   0  0  0  0  0  0  0  0  0  0  0  0
   59.4610   32.6080   48.3380 C   0  0  0  0  0  0  0  0  0  0  0  0
   60.9790   32.6350   48.1030 C   0  0  0  0  0  0  0  0  0  0  0  0
   61.3760   33.7760   47.2470 N   0  0  0  0  0  0  0  0  0  0  0  0
   60.3860   34.0200   46.1710 C   0  0  0  0  0  0  0  0  0  0  0  0
   59.6380   35.3400   46.3560 C   0  0  0  0  0  0  0  0  0  0  0  0
   62.7750   33.6390   46.7650 C   0  0  0  0  0  0  0  0  0  0  0  0
   63.6560   32.7300   47.6340 C   0  0  0  0  0  0  0  0  0  0  0  0
   58.2650   29.3990   45.1840 N   0  0  0  0  0  0  0  0  0  0  0  0
   56.9340   29.9030   45.0130 C   0  0  0  0  0  0  0  0  0  0  0  0
   55.9650   29.1060   44.9020 O   0  0  0  0  0  0  0  0  0  0  0  0
   56.7310   31.2840   44.9040 O   0  0  0  0  0  0  0  0  0  0  0  0
   57.7210   32.1880   44.4140 C   0  0  0  0  0  0  0  0  0  0  0  0
   57.3670   33.6230   44.8140 C   0  0  0  0  0  0  0  0  0  0  0  0
   57.7970   32.0600   42.8940 C   0  0  0  0  0  0  0  0  0  0  0  0
   57.9835   26.8898   45.8474 H   0  0  0  0  0  0  0  0  0  0  0  0
   56.7718   26.0679   44.8066 H   0  0  0  0  0  0  0  0  0  0  0  0
   58.4801   25.5125   44.8066 H   0  0  0  0  0  0  0  0  0  0  0  0
   58.7074   26.8237   42.9721 H   0  0  0  0  0  0  0  0  0  0  0  0
   57.1742   27.7429   43.3700 H   0  0  0  0  0  0  0  0  0  0  0  0
   59.1220   29.1552   43.2434 H   0  0  0  0  0  0  0  0  0  0  0  0
   60.4160   27.1264   44.9059 H   0  0  0  0  0  0  0  0  0  0  0  0
   61.1773   28.5780   44.2771 H   0  0  0  0  0  0  0  0  0  0  0  0
   60.9803   28.7234   46.9819 H   0  0  0  0  0  0  0  0  0  0  0  0
   59.0581   33.6261   48.2322 H   0  0  0  0  0  0  0  0  0  0  0  0
   59.2597   32.2298   49.3511 H   0  0  0  0  0  0  0  0  0  0  0  0
   61.4893   32.7219   49.0736 H   0  0  0  0  0  0  0  0  0  0  0  0
   61.2654   31.7042   47.5916 H   0  0  0  0  0  0  0  0  0  0  0  0
   60.9125   34.0446   45.2055 H   0  0  0  0  0  0  0  0  0  0  0  0
   59.6456   33.2072   46.2057 H   0  0  0  0  0  0  0  0  0  0  0  0
   59.5204   35.5474   47.4298 H   0  0  0  0  0  0  0  0  0  0  0  0
   60.2090   36.1541   45.8856 H   0  0  0  0  0  0  0  0  0  0  0  0
   58.6462   35.2685   45.8856 H   0  0  0  0  0  0  0  0  0  0  0  0
   62.7496   33.2232   45.7469 H   0  0  0  0  0  0  0  0  0  0  0  0
   63.2221   34.6433   46.8053 H   0  0  0  0  0  0  0  0  0  0  0  0
   63.4579   32.9344   48.6965 H   0  0  0  0  0  0  0  0  0  0  0  0
   63.4257   31.6771   47.4140 H   0  0  0  0  0  0  0  0  0  0  0  0
   64.7156   32.9273   47.4140 H   0  0  0  0  0  0  0  0  0  0  0  0
   58.6999   31.9418   44.8511 H   0  0  0  0  0  0  0  0  0  0  0  0
   57.3471   33.7036   45.9109 H   0  0  0  0  0  0  0  0  0  0  0  0
   58.1218   34.3133   44.4092 H   0  0  0  0  0  0  0  0  0  0  0  0
   56.3778   33.8830   44.4092 H   0  0  0  0  0  0  0  0  0  0  0  0
   58.3422   31.1418   42.6302 H   0  0  0  0  0  0  0  0  0  0  0  0
   56.7795   32.0145   42.4785 H   0  0  0  0  0  0  0  0  0  0  0  0
   58.3240   32.9316   42.4785 H   0  0  0  0  0  0  0  0  0  0  0  0
  1  2  1  0
  2  3  1  0
  3  4  1  0
  4  5  1  0
  5  6  2  0
  6  7  1  0
  7  8  2  0
  7  9  1  0
  9 10  1  0
 10 11  1  0
 11 12  1  0
 12 13  1  0
 13 14  1  0
 12 15  1  0
 15 16  1  0
  6 17  1  0
 17 18  1  0
 18 19  2  0
 18 20  1  0
 20 21  1  0
 21 22  1  0
 21 23  1  0
 17  3  1  0
  1 24  1  0
  1 25  1  0
  1 26  1  0
  2 27  1  0
  2 28  1  0
  3 29  1  6
  4 30  1  0
  4 31  1  0
  5 32  1  0
 10 33  1  0
 10 34  1  0
 11 35  1  0
 11 36  1  0
 13 37  1  0
 13 38  1  0
 14 39  1  0
 14 40  1  0
 14 41  1  0
 15 42  1  0
 15 43  1  0
 16 44  1  0
 16 45  1  0
 16 46  1  0
 21 47  1  0
 22 48  1  0
 22 49  1  0
 22 50  1  0
 23 51  1  0
 23 52  1  0
 23 53  1  0
M  END
>  <UniqueID>  (23) 
21

>  <SMILES>  (23) 
CC[C@@H]1CC=C(C(=O)OCCN(CC)CC)N1C(=O)OC(C)C

>  <Energy>  (23) 
52.763072090191194

>  <Genealogy>  (23) 
CC[C@@H]1CC=C(C(=O)OCCN(CC)CC)N1C(=O)OC(C)C (chirality)
CC[C@@H]1CC=C(C(=O)OCCN(CC)CC)N1C(=O)OC(C)C (3D coordinates assigned)
CC[C@@H]1CC=C(C(=O)OCCN(CC)CC)N1C(=O)OC(C)C (nonaromatic ring conformer: 52.763072090191194 kcal/mol)

>  <smiles>  (23) 
CCC1CC=C(C(=O)OCCN(CC)CC)N1C(=O)OC(C)C

>  <score_type>  (23) 
oracle

>  <origin>  (23) 
adg

>  <m_score__min__energy>  (23) 
-6.4199999999999999

>  <m_primary>  (23) 
energy

$$$$
23:0
     RDKit          3D

 57 60  0  0  0  0  0  0  0  0999 V2000
   57.3620   24.6620   45.4300 C   0  0  0  0  0  0  0  0  0  0  0  0
   58.1310   25.7300   46.1480 C   0  0  0  0  0  0  0  0  0  0  0  0
   59.5190   25.6120   46.3230 C   0  0  0  0  0  0  0  0  0  0  0  0
   60.2380   26.6310   46.9570 C   0  0  0  0  0  0  0  0  0  0  0  0
   59.5780   27.7820   47.4110 C   0  0  0  0  0  0  0  0  0  0  0  0
   60.3200   28.8450   48.0320 N   0  0  0  0  0  0  0  0  0  0  0  0
   60.6980   28.9040   49.3280 C   0  0  0  0  0  0  0  0  0  0  0  0
   60.4180   27.8510   50.3560 C   0  0  0  0  0  0  0  0  0  0  0  0
   61.3250   30.1060   49.5890 C   0  0  0  0  0  0  0  0  0  0  0  0
   61.3380   30.8140   48.3980 C   0  0  0  0  0  0  0  0  0  0  0  0
   61.8520   32.1900   48.2000 C   0  0  0  0  0  0  0  0  0  0  0  0
   62.6180   32.6940   49.0630 O   0  0  0  0  0  0  0  0  0  0  0  0
   61.4700   33.0270   47.0000 C   0  0  0  0  0  0  0  0  0  0  0  0
   60.1970   33.7620   47.1740 N   0  0  0  0  0  0  0  0  0  0  0  0
   59.0910   33.0020   47.8000 C   0  0  0  0  0  0  0  0  0  0  0  0
   58.1520   32.3390   46.7740 C   0  0  0  0  0  0  0  0  0  0  0  0
   58.0170   33.1460   45.5550 N   0  0  0  0  0  0  0  0  0  0  0  0
   57.8490   32.5200   44.2620 C   0  0  0  0  0  0  0  0  0  0  0  0
   58.3110   33.0850   43.2340 O   0  0  0  0  0  0  0  0  0  0  0  0
   57.1880   31.2120   44.0880 C   0  0  0  0  0  0  0  0  0  0  0  0
   56.9750   30.5260   42.9050 C   0  0  0  0  0  0  0  0  0  0  0  0
   56.3320   29.3600   43.2600 C   0  0  0  0  0  0  0  0  0  0  0  0
   56.1990   29.3960   44.6310 C   0  0  0  0  0  0  0  0  0  0  0  0
   56.7230   30.5070   45.0950 O   0  0  0  0  0  0  0  0  0  0  0  0
   58.3690   34.5640   45.6470 C   0  0  0  0  0  0  0  0  0  0  0  0
   59.8350   34.6870   46.0720 C   0  0  0  0  0  0  0  0  0  0  0  0
   60.7110   30.0050   47.4510 C   0  0  0  0  0  0  0  0  0  0  0  0
   60.4860   30.3520   46.0060 C   0  0  0  0  0  0  0  0  0  0  0  0
   58.1940   27.9030   47.2280 C   0  0  0  0  0  0  0  0  0  0  0  0
   57.4760   26.8870   46.5930 C   0  0  0  0  0  0  0  0  0  0  0  0
   56.8837   23.9977   46.1648 H   0  0  0  0  0  0  0  0  0  0  0  0
   56.5902   25.1271   44.7992 H   0  0  0  0  0  0  0  0  0  0  0  0
   58.0479   24.0775   44.7992 H   0  0  0  0  0  0  0  0  0  0  0  0
   60.0429   24.7153   45.9604 H   0  0  0  0  0  0  0  0  0  0  0  0
   61.3239   26.5291   47.0997 H   0  0  0  0  0  0  0  0  0  0  0  0
   60.5324   28.2811   51.3620 H   0  0  0  0  0  0  0  0  0  0  0  0
   59.3900   27.4802   50.2305 H   0  0  0  0  0  0  0  0  0  0  0  0
   61.1260   27.0185   50.2305 H   0  0  0  0  0  0  0  0  0  0  0  0
   61.7346   30.4372   50.5547 H   0  0  0  0  0  0  0  0  0  0  0  0
   62.2715   33.7575   46.8157 H   0  0  0  0  0  0  0  0  0  0  0  0
   61.3322   32.3368   46.1547 H   0  0  0  0  0  0  0  0  0  0  0  0
   59.5235   32.2162   48.4367 H   0  0  0  0  0  0  0  0  0  0  0  0
   58.4890   33.7183   48.3784 H   0  0  0  0  0  0  0  0  0  0  0  0
   58.5586   31.3530   46.5047 H   0  0  0  0  0  0  0  0  0  0  0  0
   57.1568   32.2452   47.2331 H   0  0  0  0  0  0  0  0  0  0  0  0
   57.2599   30.8453   41.8916 H   0  0  0  0  0  0  0  0  0  0  0  0
   55.9929   28.5609   42.5844 H   0  0  0  0  0  0  0  0  0  0  0  0
   55.7262   28.6138   45.2431 H   0  0  0  0  0  0  0  0  0  0  0  0
   58.2276   35.0435   44.6671 H   0  0  0  0  0  0  0  0  0  0  0  0
   57.7244   35.0597   46.3878 H   0  0  0  0  0  0  0  0  0  0  0  0
   60.4720   34.4641   45.2033 H   0  0  0  0  0  0  0  0  0  0  0  0
   59.9869   35.7127   46.4391 H   0  0  0  0  0  0  0  0  0  0  0  0
   59.8887   31.2732   45.9389 H   0  0  0  0  0  0  0  0  0  0  0  0
   61.4559   30.5070   45.5108 H   0  0  0  0  0  0  0  0  0  0  0  0
   59.9487   29.5297   45.5108 H   0  0  0  0  0  0  0  0  0  0  0  0
   57.6708   28.8019   47.5860 H   0  0  0  0  0  0  0  0  0  0  0  0
   56.3919   26.9951   46.4414 H   0  0  0  0  0  0  0  0  0  0  0  0
  1  2  1  0
  2  3  2  0
  3  4  1  0
  4  5  2  0
  5  6  1  0
  6  7  1  0
  7  8  1  0
  7  9  2  0
  9 10  1  0
 10 11  1  0
 11 12  2  0
 11 13  1  0
 13 14  1  0
 14 15  1  0
 15 16  1  0
 16 17  1  0
 17 18  1  0
 18 19  2  0
 18 20  1  0
 20 21  2  0
 21 22  1  0
 22 23  2  0
 23 24  1  0
 17 25  1  0
 25 26  1  0
 10 27  2  0
 27 28  1  0
  5 29  1  0
 29 30  2  0
 30  2  1  0
 27  6  1  0
 26 14  1  0
 24 20  1  0
  1 31  1  0
  1 32  1  0
  1 33  1  0
  3 34  1  0
  4 35  1  0
  8 36  1  0
  8 37  1  0
  8 38  1  0
  9 39  1  0
 13 40  1  0
 13 41  1  0
 15 42  1  0
 15 43  1  0
 16 44  1  0
 16 45  1  0
 21 46  1  0
 22 47  1  0
 23 48  1  0
 25 49  1  0
 25 50  1  0
 26 51  1  0
 26 52  1  0
 28 53  1  0
 28 54  1  0
 28 55  1  0
 29 56  1  0
 30 57  1  0
M  END
>  <UniqueID>  (24) 
22

>  <SMILES>  (24) 
Cc1ccc(-n2c(C)cc(C(=O)CN3CCN(C(=O)c4ccco4)CC3)c2C)cc1

>  <Energy>  (24) 
127.69736358032439

>  <Genealogy>  (24) 
Cc1ccc(-n2c(C)cc(C(=O)CN3CCN(C(=O)c4ccco4)CC3)c2C)cc1 (3D coordinates assigned)
Cc1ccc(-n2c(C)cc(C(=O)CN3CCN(C(=O)c4ccco4)CC3)c2C)cc1 (nonaromatic ring conformer: 127.69736358032439 kcal/mol)

>  <smiles>  (24) 
Cc1ccc(-n2c(C)cc(C(=O)CN3CCN(C(=O)c4ccco4)CC3)c2C)cc1

>  <score_type>  (24) 
oracle

>  <origin>  (24) 
adg

>  <m_score__min__energy>  (24) 
-9.4900000000000002

>  <m_primary>  (24) 
energy

$$$$
24:0
     RDKit          3D

 45 46  0  0  0  0  0  0  0  0999 V2000
   58.0660   26.7100   43.3220 C   0  0  0  0  0  0  0  0  0  0  0  0
   57.4410   25.7030   44.2490 C   0  0  0  0  0  0  0  0  0  0  0  0
   57.3380   24.3630   43.8330 C   0  0  0  0  0  0  0  0  0  0  0  0
   56.7560   23.4060   44.6620 C   0  0  0  0  0  0  0  0  0  0  0  0
   56.2670   23.7710   45.9140 C   0  0  0  0  0  0  0  0  0  0  0  0
   56.3650   25.0950   46.3470 C   0  0  0  0  0  0  0  0  0  0  0  0
   56.9540   26.0790   45.5280 C   0  0  0  0  0  0  0  0  0  0  0  0
   57.0770   27.4430   45.9850 N   0  0  0  0  0  0  0  0  0  0  0  0
   58.3360   28.0650   46.4080 C   0  0  0  0  0  0  0  0  0  0  0  0
   58.4350   29.5210   45.9080 C   0  0  2  0  0  0  0  0  0  0  0  0
   59.2540   30.4030   46.8580 C   0  0  0  0  0  0  0  0  0  0  0  0
   57.1030   30.0890   45.6890 N   0  0  0  0  0  0  0  0  0  0  0  0
   56.2710   29.8820   44.5400 C   0  0  0  0  0  0  0  0  0  0  0  0
   55.1580   29.3010   44.6440 O   0  0  0  0  0  0  0  0  0  0  0  0
   56.7080   30.4080   43.2100 C   0  0  0  0  0  0  0  0  0  0  0  0
   58.0060   31.2140   43.3530 C   0  0  0  0  0  0  0  0  0  0  0  0
   57.7490   32.7260   43.3980 C   0  0  0  0  0  0  0  0  0  0  0  0
   58.1160   33.3190   44.7250 C   0  0  0  0  0  0  0  0  0  0  0  0
   57.4340   33.1260   45.9200 C   0  0  0  0  0  0  0  0  0  0  0  0
   57.9920   33.8340   46.9920 C   0  0  0  0  0  0  0  0  0  0  0  0
   59.1090   34.5860   46.6440 C   0  0  0  0  0  0  0  0  0  0  0  0
   59.3980   34.3730   45.0000 S   0  0  0  0  0  0  0  0  0  0  0  0
   58.5552   27.4983   43.9130 H   0  0  0  0  0  0  0  0  0  0  0  0
   58.8129   26.2103   42.6877 H   0  0  0  0  0  0  0  0  0  0  0  0
   57.2867   27.1576   42.6877 H   0  0  0  0  0  0  0  0  0  0  0  0
   57.7203   24.0681   42.8446 H   0  0  0  0  0  0  0  0  0  0  0  0
   56.6827   22.3608   44.3271 H   0  0  0  0  0  0  0  0  0  0  0  0
   55.8024   23.0144   46.5634 H   0  0  0  0  0  0  0  0  0  0  0  0
   55.9781   25.3730   47.3385 H   0  0  0  0  0  0  0  0  0  0  0  0
   56.2240   28.0420   46.0420 H   0  0  0  0  0  0  0  0  0  0  0  0
   58.3878   28.0587   47.5068 H   0  0  0  0  0  0  0  0  0  0  0  0
   59.1698   27.4914   45.9769 H   0  0  0  0  0  0  0  0  0  0  0  0
   58.9676   29.4977   44.9458 H   0  0  0  0  0  0  0  0  0  0  0  0
   59.0126   30.1431   47.8992 H   0  0  0  0  0  0  0  0  0  0  0  0
   60.3266   30.2382   46.6781 H   0  0  0  0  0  0  0  0  0  0  0  0
   59.0103   31.4605   46.6781 H   0  0  0  0  0  0  0  0  0  0  0  0
   56.8789   29.5644   42.5251 H   0  0  0  0  0  0  0  0  0  0  0  0
   55.9219   31.0659   42.8110 H   0  0  0  0  0  0  0  0  0  0  0  0
   58.5091   30.9126   44.2836 H   0  0  0  0  0  0  0  0  0  0  0  0
   58.6316   31.0045   42.4728 H   0  0  0  0  0  0  0  0  0  0  0  0
   58.3486   33.2116   42.6140 H   0  0  0  0  0  0  0  0  0  0  0  0
   56.6737   32.8927   43.2372 H   0  0  0  0  0  0  0  0  0  0  0  0
   56.5466   32.4829   46.0145 H   0  0  0  0  0  0  0  0  0  0  0  0
   57.5850   33.7986   48.0133 H   0  0  0  0  0  0  0  0  0  0  0  0
   59.7019   35.2126   47.3265 H   0  0  0  0  0  0  0  0  0  0  0  0
  1  2  1  0
  2  3  2  0
  3  4  1  0
  4  5  2  0
  5  6  1  0
  6  7  2  0
  7  8  1  0
  8  9  1  0
  9 10  1  0
 10 11  1  0
 10 12  1  0
 12 13  1  0
 13 14  2  0
 13 15  1  0
 15 16  1  0
 16 17  1  0
 17 18  1  0
 18 19  2  0
 19 20  1  0
 20 21  2  0
 21 22  1  0
  7  2  1  0
 22 18  1  0
  1 23  1  0
  1 24  1  0
  1 25  1  0
  3 26  1  0
  4 27  1  0
  5 28  1  0
  6 29  1  0
  8 30  1  0
  9 31  1  0
  9 32  1  0
 10 33  1  6
 11 34  1  0
 11 35  1  0
 11 36  1  0
 15 37  1  0
 15 38  1  0
 16 39  1  0
 16 40  1  0
 17 41  1  0
 17 42  1  0
 19 43  1  0
 20 44  1  0
 21 45  1  0
M  CHG  1  12  -1
M  END
>  <UniqueID>  (25) 
23

>  <SMILES>  (25) 
Cc1ccccc1NC[C@H](C)[N-]C(=O)CCCc1cccs1

>  <Energy>  (25) 
61.06207250610641

>  <Genealogy>  (25) 
Cc1ccccc1NCC(C)[N-]C(=O)CCCc1cccs1 (protonated)
Cc1ccccc1NC[C@H](C)[N-]C(=O)CCCc1cccs1 (chirality)
Cc1ccccc1NC[C@H](C)[N-]C(=O)CCCc1cccs1 (3D coordinates assigned)
Cc1ccccc1NC[C@H](C)[N-]C(=O)CCCc1cccs1 (optimized conformer: 61.06207250610641 kcal/mol)

>  <smiles>  (25) 
Cc1ccccc1NCC(C)NC(=O)CCCc1cccs1

>  <score_type>  (25) 
oracle

>  <origin>  (25) 
adg

>  <m_score__min__energy>  (25) 
-9

>  <m_primary>  (25) 
energy

$$$$
25:0
     RDKit          3D

 52 56  0  0  0  0  0  0  0  0999 V2000
   57.3320   33.1180   46.9440 C   0  0  0  0  0  0  0  0  0  0  0  0
   58.2850   32.0090   46.9520 N   0  0  0  0  0  0  0  0  0  0  0  0
   58.5490   31.1340   45.9600 C   0  0  0  0  0  0  0  0  0  0  0  0
   57.9890   31.2050   44.5930 C   0  0  0  0  0  0  0  0  0  0  0  0
   58.2480   32.3510   43.8220 C   0  0  0  0  0  0  0  0  0  0  0  0
   57.7620   32.4560   42.5180 C   0  0  0  0  0  0  0  0  0  0  0  0
   57.0170   31.4170   41.9640 C   0  0  0  0  0  0  0  0  0  0  0  0
   56.7520   30.2690   42.7140 C   0  0  0  0  0  0  0  0  0  0  0  0
   57.2210   30.1480   44.0350 C   0  0  0  0  0  0  0  0  0  0  0  0
   56.8940   28.8940   44.8090 C   0  0  0  0  0  0  0  0  0  0  0  0
   57.4110   27.7800   44.1740 F   0  0  0  0  0  0  0  0  0  0  0  0
   55.5230   28.7640   44.9370 F   0  0  0  0  0  0  0  0  0  0  0  0
   59.4170   30.1850   46.3610 N   0  0  0  0  0  0  0  0  0  0  0  0
   59.7230   30.4460   47.6230 N   0  0  0  0  0  0  0  0  0  0  0  0
   59.0470   31.5590   47.9710 C   0  0  0  0  0  0  0  0  0  0  0  0
   59.1140   32.1520   49.3200 C   0  0  0  0  0  0  0  0  0  0  0  0
   58.5810   31.4280   50.3960 C   0  0  0  0  0  0  0  0  0  0  0  0
   58.5630   31.9830   51.6800 C   0  0  0  0  0  0  0  0  0  0  0  0
   58.0180   31.2850   52.7680 C   0  0  0  0  0  0  0  0  0  0  0  0
   58.0070   31.8710   54.0380 C   0  0  0  0  0  0  0  0  0  0  0  0
   58.5380   33.1510   54.2270 C   0  0  0  0  0  0  0  0  0  0  0  0
   59.0830   33.8520   53.1470 C   0  0  0  0  0  0  0  0  0  0  0  0
   59.0980   33.2730   51.8720 C   0  0  0  0  0  0  0  0  0  0  0  0
   59.6350   33.9470   50.8230 N   0  0  0  0  0  0  0  0  0  0  0  0
   59.6720   33.4310   49.5630 C   0  0  0  0  0  0  0  0  0  0  0  0
   60.3330   34.1850   48.5260 N   0  0  0  0  0  0  0  0  0  0  0  0
   61.7460   33.9290   48.2210 C   0  0  0  0  0  0  0  0  0  0  0  0
   61.8990   33.4240   46.7680 C   0  0  0  0  0  0  0  0  0  0  0  0
   60.7560   33.6530   45.9550 O   0  0  0  0  0  0  0  0  0  0  0  0
   60.2250   34.9420   46.1890 C   0  0  0  0  0  0  0  0  0  0  0  0
   59.5530   34.9760   47.5650 C   0  0  0  0  0  0  0  0  0  0  0  0
   57.0893   33.4004   47.9791 H   0  0  0  0  0  0  0  0  0  0  0  0
   57.7761   33.9793   46.4235 H   0  0  0  0  0  0  0  0  0  0  0  0
   56.4137   32.8086   46.4235 H   0  0  0  0  0  0  0  0  0  0  0  0
   58.8396   33.1734   44.2505 H   0  0  0  0  0  0  0  0  0  0  0  0
   57.9674   33.3605   41.9266 H   0  0  0  0  0  0  0  0  0  0  0  0
   56.6372   31.5010   40.9351 H   0  0  0  0  0  0  0  0  0  0  0  0
   56.1698   29.4499   42.2667 H   0  0  0  0  0  0  0  0  0  0  0  0
   57.3489   28.9723   45.8075 H   0  0  0  0  0  0  0  0  0  0  0  0
   58.1752   30.4192   50.2298 H   0  0  0  0  0  0  0  0  0  0  0  0
   57.5998   30.2780   52.6225 H   0  0  0  0  0  0  0  0  0  0  0  0
   57.5794   31.3234   54.8908 H   0  0  0  0  0  0  0  0  0  0  0  0
   58.5268   33.6073   55.2278 H   0  0  0  0  0  0  0  0  0  0  0  0
   59.5001   34.8585   53.2988 H   0  0  0  0  0  0  0  0  0  0  0  0
   62.3181   34.8605   48.3434 H   0  0  0  0  0  0  0  0  0  0  0  0
   62.1265   33.1595   48.9089 H   0  0  0  0  0  0  0  0  0  0  0  0
   62.7575   33.9383   46.3113 H   0  0  0  0  0  0  0  0  0  0  0  0
   62.0391   32.3343   46.8220 H   0  0  0  0  0  0  0  0  0  0  0  0
   61.0367   35.6838   46.1590 H   0  0  0  0  0  0  0  0  0  0  0  0
   59.4825   35.1789   45.4127 H   0  0  0  0  0  0  0  0  0  0  0  0
   59.4922   36.0171   47.9148 H   0  0  0  0  0  0  0  0  0  0  0  0
   58.5423   34.5496   47.4833 H   0  0  0  0  0  0  0  0  0  0  0  0
  1  2  1  0
  2  3  1  0
  3  4  1  0
  4  5  2  0
  5  6  1  0
  6  7  2  0
  7  8  1  0
  8  9  2  0
  9 10  1  0
 10 11  1  0
 10 12  1  0
  3 13  2  0
 13 14  1  0
 14 15  2  0
 15 16  1  0
 16 17  2  0
 17 18  1  0
 18 19  2  0
 19 20  1  0
 20 21  2  0
 21 22  1  0
 22 23  2  0
 23 24  1  0
 24 25  2  0
 25 26  1  0
 26 27  1  0
 27 28  1  0
 28 29  1  0
 29 30  1  0
 30 31  1  0
 15  2  1  0
 25 16  1  0
 31 26  1  0
  9  4  1  0
 23 18  1  0
  1 32  1  0
  1 33  1  0
  1 34  1  0
  5 35  1  0
  6 36  1  0
  7 37  1  0
  8 38  1  0
 10 39  1  0
 17 40  1  0
 19 41  1  0
 20 42  1  0
 21 43  1  0
 22 44  1  0
 27 45  1  0
 27 46  1  0
 28 47  1  0
 28 48  1  0
 30 49  1  0
 30 50  1  0
 31 51  1  0
 31 52  1  0
M  END
>  <UniqueID>  (26) 
24

>  <SMILES>  (26) 
Cn1c(-c2ccccc2C(F)F)nnc1-c1cc2ccccc2nc1N1CCOCC1

>  <Energy>  (26) 
118.56479458208116

>  <Genealogy>  (26) 
Cn1c(-c2ccccc2C(F)F)nnc1-c1cc2ccccc2nc1N1CCOCC1 (3D coordinates assigned)
Cn1c(-c2ccccc2C(F)F)nnc1-c1cc2ccccc2nc1N1CCOCC1 (nonaromatic ring conformer: 118.56479458208116 kcal/mol)

>  <smiles>  (26) 
Cn1c(-c2ccccc2C(F)F)nnc1-c1cc2ccccc2nc1N1CCOCC1

>  <score_type>  (26) 
oracle

>  <origin>  (26) 
adg

>  <m_score__min__energy>  (26) 
-8.1899999999999995

>  <m_primary>  (26) 
energy

$$$$
26:0
     RDKit          3D

 40 42  0  0  0  0  0  0  0  0999 V2000
   55.3650   30.4170   44.4390 O   0  0  0  0  0  0  0  0  0  0  0  0
   56.2300   29.6620   44.9520 C   0  0  0  0  0  0  0  0  0  0  0  0
   55.8850   28.3020   45.2420 N   0  0  0  0  0  0  0  0  0  0  0  0
   56.8110   27.2930   45.6620 C   0  0  0  0  0  0  0  0  0  0  0  0
   58.1740   27.4560   45.3850 C   0  0  0  0  0  0  0  0  0  0  0  0
   59.0940   26.4800   45.7810 C   0  0  0  0  0  0  0  0  0  0  0  0
   58.6580   25.3460   46.4730 C   0  0  0  0  0  0  0  0  0  0  0  0
   57.3030   25.1930   46.7790 C   0  0  0  0  0  0  0  0  0  0  0  0
   56.3810   26.1640   46.3790 C   0  0  0  0  0  0  0  0  0  0  0  0
   57.5380   30.1880   45.2290 N   0  0  0  0  0  0  0  0  0  0  0  0
   57.8700   31.5600   45.5000 C   0  0  0  0  0  0  0  0  0  0  0  0
   57.0220   32.6120   45.1030 C   0  0  0  0  0  0  0  0  0  0  0  0
   57.3790   33.9410   45.3440 C   0  0  0  0  0  0  0  0  0  0  0  0
   58.6000   34.2370   45.9510 C   0  0  0  0  0  0  0  0  0  0  0  0
   59.4690   33.2070   46.3110 C   0  0  0  0  0  0  0  0  0  0  0  0
   59.1080   31.8690   46.0970 C   0  0  0  0  0  0  0  0  0  0  0  0
   60.2720   30.5710   46.5500 S   0  0  0  0  0  0  0  0  0  0  0  0
   60.5500   31.1690   48.2540 C   0  0  0  0  0  0  0  0  0  0  0  0
   61.8140   31.9790   48.3460 C   0  0  0  0  0  0  0  0  0  0  0  0
   62.3010   32.3860   49.5990 C   0  0  0  0  0  0  0  0  0  0  0  0
   63.4900   33.1170   49.6890 C   0  0  0  0  0  0  0  0  0  0  0  0
   64.2020   33.4420   48.5320 C   0  0  0  0  0  0  0  0  0  0  0  0
   63.7250   33.0370   47.2800 C   0  0  0  0  0  0  0  0  0  0  0  0
   62.5370   32.3080   47.1870 C   0  0  0  0  0  0  0  0  0  0  0  0
   58.5221   28.3545   44.8543 H   0  0  0  0  0  0  0  0  0  0  0  0
   60.1618   26.6046   45.5478 H   0  0  0  0  0  0  0  0  0  0  0  0
   59.3812   24.5747   46.7764 H   0  0  0  0  0  0  0  0  0  0  0  0
   56.9619   24.3074   47.3352 H   0  0  0  0  0  0  0  0  0  0  0  0
   55.3159   26.0440   46.6262 H   0  0  0  0  0  0  0  0  0  0  0  0
   56.0708   32.3854   44.5991 H   0  0  0  0  0  0  0  0  0  0  0  0
   56.6972   34.7544   45.0551 H   0  0  0  0  0  0  0  0  0  0  0  0
   58.8775   35.2834   46.1458 H   0  0  0  0  0  0  0  0  0  0  0  0
   60.4422   33.4455   46.7650 H   0  0  0  0  0  0  0  0  0  0  0  0
   59.6989   31.7962   48.5576 H   0  0  0  0  0  0  0  0  0  0  0  0
   60.6454   30.2973   48.9182 H   0  0  0  0  0  0  0  0  0  0  0  0
   61.7453   32.1289   50.5128 H   0  0  0  0  0  0  0  0  0  0  0  0
   63.8650   33.4365   50.6725 H   0  0  0  0  0  0  0  0  0  0  0  0
   65.1374   34.0161   48.6048 H   0  0  0  0  0  0  0  0  0  0  0  0
   64.2858   33.2928   46.3689 H   0  0  0  0  0  0  0  0  0  0  0  0
   62.1657   31.9900   46.2016 H   0  0  0  0  0  0  0  0  0  0  0  0
  1  2  2  0
  2  3  1  0
  3  4  1  0
  4  5  2  0
  5  6  1  0
  6  7  2  0
  7  8  1  0
  8  9  2  0
  2 10  1  0
 10 11  1  0
 11 12  2  0
 12 13  1  0
 13 14  2  0
 14 15  1  0
 15 16  2  0
 16 17  1  0
 17 18  1  0
 18 19  1  0
 19 20  2  0
 20 21  1  0
 21 22  2  0
 22 23  1  0
 23 24  2  0
  9  4  1  0
 16 11  1  0
 24 19  1  0
  5 25  1  0
  6 26  1  0
  7 27  1  0
  8 28  1  0
  9 29  1  0
 12 30  1  0
 13 31  1  0
 14 32  1  0
 15 33  1  0
 18 34  1  0
 18 35  1  0
 20 36  1  0
 21 37  1  0
 22 38  1  0
 23 39  1  0
 24 40  1  0
M  CHG  2   3  -1  10  -1
M  END
>  <UniqueID>  (27) 
25

>  <SMILES>  (27) 
O=C([N-]c1ccccc1)[N-]c1ccccc1SCc1ccccc1

>  <Energy>  (27) 
44.13949291345328

>  <Genealogy>  (27) 
O=C([N-]c1ccccc1)[N-]c1ccccc1SCc1ccccc1 (protonated)
O=C([N-]c1ccccc1)[N-]c1ccccc1SCc1ccccc1 (3D coordinates assigned)
O=C([N-]c1ccccc1)[N-]c1ccccc1SCc1ccccc1 (optimized conformer: 44.13949291345328 kcal/mol)

>  <smiles>  (27) 
O=C(Nc1ccccc1)Nc1ccccc1SCc1ccccc1

>  <score_type>  (27) 
oracle

>  <origin>  (27) 
adg

>  <m_score__min__energy>  (27) 
-12.630000000000001

>  <m_primary>  (27) 
energy

$$$$
27:0
     RDKit          3D

 42 43  0  0  0  0  0  0  0  0999 V2000
   60.3760   28.7670   45.0020 C   0  0  0  0  0  0  0  0  0  0  0  0
   59.1020   29.0110   45.8060 C   0  0  0  0  0  0  0  0  0  0  0  0
   58.0230   28.1040   45.3540 N   0  0  0  0  0  0  0  0  0  0  0  0
   58.5320   26.9500   44.5760 C   0  0  0  0  0  0  0  0  0  0  0  0
   58.1520   27.1040   43.1080 C   0  0  0  0  0  0  0  0  0  0  0  0
   56.9330   28.8240   44.6550 C   0  0  0  0  0  0  0  0  0  0  0  0
   57.2570   30.2710   44.3920 C   0  0  0  0  0  0  0  0  0  0  0  0
   58.0240   30.7170   43.3820 N   0  0  0  0  0  0  0  0  0  0  0  0
   58.1130   32.0310   43.4980 N   0  0  0  0  0  0  0  0  0  0  0  0
   57.3840   32.3380   44.5880 C   0  0  0  0  0  0  0  0  0  0  0  0
   57.1930   33.9910   45.2400 S   0  0  0  0  0  0  0  0  0  0  0  0
   57.6260   33.4980   46.9430 C   0  0  0  0  0  0  0  0  0  0  0  0
   59.1020   33.2060   47.0230 C   0  0  0  0  0  0  0  0  0  0  0  0
   59.5180   31.9120   47.3820 C   0  0  0  0  0  0  0  0  0  0  0  0
   60.8760   31.5950   47.4460 C   0  0  0  0  0  0  0  0  0  0  0  0
   61.8360   32.5620   47.1480 C   0  0  0  0  0  0  0  0  0  0  0  0
   61.4410   33.8490   46.7740 C   0  0  0  0  0  0  0  0  0  0  0  0
   60.0780   34.1830   46.6920 C   0  0  0  0  0  0  0  0  0  0  0  0
   59.6910   35.5820   46.2860 C   0  0  0  0  0  0  0  0  0  0  0  0
   56.8530   31.2700   45.1380 O   0  0  0  0  0  0  0  0  0  0  0  0
   61.2187   28.6056   45.6903 H   0  0  0  0  0  0  0  0  0  0  0  0
   60.2448   27.8777   44.3681 H   0  0  0  0  0  0  0  0  0  0  0  0
   60.5827   29.6419   44.3681 H   0  0  0  0  0  0  0  0  0  0  0  0
   59.3057   28.8287   46.8715 H   0  0  0  0  0  0  0  0  0  0  0  0
   58.7792   30.0516   45.6547 H   0  0  0  0  0  0  0  0  0  0  0  0
   59.6274   26.9044   44.6661 H   0  0  0  0  0  0  0  0  0  0  0  0
   58.0869   26.0242   44.9694 H   0  0  0  0  0  0  0  0  0  0  0  0
   57.1349   27.5162   43.0338 H   0  0  0  0  0  0  0  0  0  0  0  0
   58.8608   27.7859   42.6154 H   0  0  0  0  0  0  0  0  0  0  0  0
   58.1861   26.1211   42.6154 H   0  0  0  0  0  0  0  0  0  0  0  0
   56.7454   28.3263   43.6921 H   0  0  0  0  0  0  0  0  0  0  0  0
   56.0494   28.7986   45.3097 H   0  0  0  0  0  0  0  0  0  0  0  0
   58.4850   30.1500   42.6360 H   0  0  0  0  0  0  0  0  0  0  0  0
   57.3761   34.3151   47.6357 H   0  0  0  0  0  0  0  0  0  0  0  0
   57.0591   32.5965   47.2184 H   0  0  0  0  0  0  0  0  0  0  0  0
   58.7670   31.1427   47.6145 H   0  0  0  0  0  0  0  0  0  0  0  0
   61.1897   30.5802   47.7321 H   0  0  0  0  0  0  0  0  0  0  0  0
   62.9053   32.3111   47.2075 H   0  0  0  0  0  0  0  0  0  0  0  0
   62.2032   34.6074   46.5417 H   0  0  0  0  0  0  0  0  0  0  0  0
   59.5224   36.1916   47.1860 H   0  0  0  0  0  0  0  0  0  0  0  0
   60.4997   36.0272   45.6879 H   0  0  0  0  0  0  0  0  0  0  0  0
   58.7685   35.5483   45.6879 H   0  0  0  0  0  0  0  0  0  0  0  0
  1  2  1  0
  2  3  1  0
  3  4  1  0
  4  5  1  0
  3  6  1  0
  6  7  1  0
  7  8  2  0
  8  9  1  0
  9 10  2  0
 10 11  1  0
 11 12  1  0
 12 13  1  0
 13 14  2  0
 14 15  1  0
 15 16  2  0
 16 17  1  0
 17 18  2  0
 18 19  1  0
 10 20  1  0
 20  7  1  0
 18 13  1  0
  1 21  1  0
  1 22  1  0
  1 23  1  0
  2 24  1  0
  2 25  1  0
  4 26  1  0
  4 27  1  0
  5 28  1  0
  5 29  1  0
  5 30  1  0
  6 31  1  0
  6 32  1  0
  8 33  1  0
 12 34  1  0
 12 35  1  0
 14 36  1  0
 15 37  1  0
 16 38  1  0
 17 39  1  0
 19 40  1  0
 19 41  1  0
 19 42  1  0
M  CHG  1   8   1
M  END
>  <UniqueID>  (28) 
26

>  <SMILES>  (28) 
CCN(CC)Cc1[nH+]nc(SCc2ccccc2C)o1

>  <Energy>  (28) 
72.72075636808884

>  <Genealogy>  (28) 
CCN(CC)Cc1[nH+]nc(SCc2ccccc2C)o1 (protonated)
CCN(CC)Cc1[nH+]nc(SCc2ccccc2C)o1 (3D coordinates assigned)
CCN(CC)Cc1[nH+]nc(SCc2ccccc2C)o1 (optimized conformer: 72.72075636808884 kcal/mol)

>  <smiles>  (28) 
CCN(CC)Cc1nnc(SCc2ccccc2C)o1

>  <score_type>  (28) 
oracle

>  <origin>  (28) 
adg

>  <m_score__min__energy>  (28) 
-5.8200000000000003

>  <m_primary>  (28) 
energy

$$$$
28:0
     RDKit          3D

 42 45  0  0  0  0  0  0  0  0999 V2000
   56.8240   21.3780   43.6590 C   0  0  0  0  0  0  0  0  0  0  0  0
   57.2780   22.7340   44.0970 C   0  0  0  0  0  0  0  0  0  0  0  0
   58.0170   22.8860   45.2750 C   0  0  0  0  0  0  0  0  0  0  0  0
   58.4380   24.1590   45.6610 C   0  0  0  0  0  0  0  0  0  0  0  0
   58.1230   25.2790   44.8710 C   0  0  0  0  0  0  0  0  0  0  0  0
   58.5650   26.6400   45.2710 C   0  0  0  0  0  0  0  0  0  0  0  0
   58.9460   27.5820   44.2990 C   0  0  0  0  0  0  0  0  0  0  0  0
   59.3630   28.8620   44.6740 C   0  0  0  0  0  0  0  0  0  0  0  0
   59.4190   29.2240   46.0300 C   0  0  0  0  0  0  0  0  0  0  0  0
   59.8460   30.5780   46.4470 C   0  0  0  0  0  0  0  0  0  0  0  0
   61.0770   30.8640   46.9100 N   0  0  0  0  0  0  0  0  0  0  0  0
   61.0830   32.1640   47.1570 N   0  0  0  0  0  0  0  0  0  0  0  0
   62.2220   32.8730   47.7220 C   0  0  0  0  0  0  0  0  0  0  0  0
   59.9230   32.7400   46.8860 N   0  0  0  0  0  0  0  0  0  0  0  0
   59.1130   31.7570   46.4470 C   0  0  0  0  0  0  0  0  0  0  0  0
   57.7850   31.9800   45.8460 C   0  0  0  0  0  0  0  0  0  0  0  0
   57.4480   31.6830   44.5820 C   0  0  0  0  0  0  0  0  0  0  0  0
   58.1520   32.6020   43.2020 S   0  0  0  0  0  0  0  0  0  0  0  0
   57.0940   31.6480   42.1110 C   0  0  0  0  0  0  0  0  0  0  0  0
   57.0290   31.8700   40.8740 O   0  0  0  0  0  0  0  0  0  0  0  0
   56.3260   30.6250   42.7270 N   0  0  0  0  0  0  0  0  0  0  0  0
   56.5410   30.6200   44.1260 C   0  0  0  0  0  0  0  0  0  0  0  0
   56.0430   29.7350   44.8670 O   0  0  0  0  0  0  0  0  0  0  0  0
   59.0200   28.2920   47.0010 C   0  0  0  0  0  0  0  0  0  0  0  0
   58.6030   27.0110   46.6260 C   0  0  0  0  0  0  0  0  0  0  0  0
   57.3830   25.0760   43.6940 C   0  0  0  0  0  0  0  0  0  0  0  0
   56.9860   23.8250   43.3390 N   0  0  0  0  0  0  0  0  0  0  0  0
   56.6163   20.7575   44.5432 H   0  0  0  0  0  0  0  0  0  0  0  0
   55.9092   21.4747   43.0558 H   0  0  0  0  0  0  0  0  0  0  0  0
   57.6126   20.9044   43.0558 H   0  0  0  0  0  0  0  0  0  0  0  0
   58.2641   22.0093   45.8918 H   0  0  0  0  0  0  0  0  0  0  0  0
   59.0184   24.2870   46.5866 H   0  0  0  0  0  0  0  0  0  0  0  0
   58.9155   27.3089   43.2339 H   0  0  0  0  0  0  0  0  0  0  0  0
   59.6494   29.5912   43.9018 H   0  0  0  0  0  0  0  0  0  0  0  0
   62.1672   32.8389   48.8201 H   0  0  0  0  0  0  0  0  0  0  0  0
   63.1544   32.3954   47.3864 H   0  0  0  0  0  0  0  0  0  0  0  0
   62.2051   33.9204   47.3864 H   0  0  0  0  0  0  0  0  0  0  0  0
   57.0086   32.4255   46.4853 H   0  0  0  0  0  0  0  0  0  0  0  0
   55.7020   29.9610   42.2180 H   0  0  0  0  0  0  0  0  0  0  0  0
   59.0355   28.5715   48.0648 H   0  0  0  0  0  0  0  0  0  0  0  0
   58.3022   26.2876   47.3981 H   0  0  0  0  0  0  0  0  0  0  0  0
   57.1234   25.9339   43.0563 H   0  0  0  0  0  0  0  0  0  0  0  0
  1  2  1  0
  2  3  2  0
  3  4  1  0
  4  5  2  0
  5  6  1  0
  6  7  2  0
  7  8  1  0
  8  9  2  0
  9 10  1  0
 10 11  2  0
 11 12  1  0
 12 13  1  0
 12 14  1  0
 14 15  2  0
 15 16  1  0
 16 17  2  3
 17 18  1  0
 18 19  1  0
 19 20  2  0
 19 21  1  0
 21 22  1  0
 22 23  2  0
  9 24  1  0
 24 25  2  0
  5 26  1  0
 26 27  2  0
 27  2  1  0
 25  6  1  0
 15 10  1  0
 22 17  1  0
  1 28  1  0
  1 29  1  0
  1 30  1  0
  3 31  1  0
  4 32  1  0
  7 33  1  0
  8 34  1  0
 13 35  1  0
 13 36  1  0
 13 37  1  0
 16 38  1  0
 21 39  1  0
 24 40  1  0
 25 41  1  0
 26 42  1  0
M  END
>  <UniqueID>  (29) 
27

>  <SMILES>  (29) 
Cc1ccc(-c2ccc(-c3nn(C)nc3C=C3SC(=O)NC3=O)cc2)cn1

>  <Energy>  (29) 
111.59839086273502

>  <Genealogy>  (29) 
Cc1ccc(-c2ccc(-c3nn(C)nc3C=C3SC(=O)NC3=O)cc2)cn1 (3D coordinates assigned)
Cc1ccc(-c2ccc(-c3nn(C)nc3C=C3SC(=O)NC3=O)cc2)cn1 (nonaromatic ring conformer: 111.59839086273502 kcal/mol)

>  <smiles>  (29) 
Cc1ccc(-c2ccc(-c3nn(C)nc3C=C3SC(=O)NC3=O)cc2)cn1

>  <score_type>  (29) 
oracle

>  <origin>  (29) 
adg

>  <m_score__min__energy>  (29) 
-9.0099999999999998

>  <m_primary>  (29) 
energy

$$$$
29:0
     RDKit          3D

 58 60  0  0  0  0  0  0  0  0999 V2000
   56.9800   21.9370   43.0740 C   0  0  0  0  0  0  0  0  0  0  0  0
   56.1170   22.9570   43.8120 C   0  0  0  0  0  0  0  0  0  0  0  0
   55.7600   22.4660   45.1610 N   0  0  0  0  0  0  0  0  0  0  0  0
   54.4890   23.0300   45.6790 C   0  0  0  0  0  0  0  0  0  0  0  0
   53.7940   23.8130   44.5730 C   0  0  0  0  0  0  0  0  0  0  0  0
   56.8780   22.5830   46.1240 C   0  0  0  0  0  0  0  0  0  0  0  0
   56.4510   23.1420   47.5010 C   0  0  0  0  0  0  0  0  0  0  0  0
   56.8770   24.6030   47.6960 C   0  0  0  0  0  0  0  0  0  0  0  0
   57.9500   24.9620   46.7590 N   0  0  0  0  0  0  0  0  0  0  0  0
   57.4010   25.6430   45.5810 C   0  0  0  0  0  0  0  0  0  0  0  0
   56.4340   26.7530   46.0050 C   0  0  0  0  0  0  0  0  0  0  0  0
   57.0820   28.1180   45.9000 C   0  0  0  0  0  0  0  0  0  0  0  0
   56.4420   29.1600   45.2020 C   0  0  0  0  0  0  0  0  0  0  0  0
   55.2260   28.9450   44.5620 O   0  0  0  0  0  0  0  0  0  0  0  0
   57.0190   30.4300   45.1490 C   0  0  0  0  0  0  0  0  0  0  0  0
   58.2330   30.6840   45.7840 C   0  0  0  0  0  0  0  0  0  0  0  0
   58.9000   29.6610   46.4830 C   0  0  0  0  0  0  0  0  0  0  0  0
   60.1310   29.8690   47.1490 C   0  0  0  0  0  0  0  0  0  0  0  0
   60.8620   31.1560   47.0990 C   0  0  0  0  0  0  0  0  0  0  0  0
   62.2660   31.1810   47.1500 C   0  0  0  0  0  0  0  0  0  0  0  0
   62.9490   32.4010   47.1270 C   0  0  0  0  0  0  0  0  0  0  0  0
   62.2370   33.6020   47.0630 C   0  0  0  0  0  0  0  0  0  0  0  0
   60.8400   33.5850   47.0260 C   0  0  0  0  0  0  0  0  0  0  0  0
   60.1530   32.3680   47.0480 C   0  0  0  0  0  0  0  0  0  0  0  0
   60.6910   28.8110   47.8740 C   0  0  0  0  0  0  0  0  0  0  0  0
   60.0410   27.5780   47.9020 C   0  0  0  0  0  0  0  0  0  0  0  0
   60.5420   26.6170   48.5440 O   0  0  0  0  0  0  0  0  0  0  0  0
   58.8960   27.4070   47.2530 O   0  0  0  0  0  0  0  0  0  0  0  0
   58.3050   28.3750   46.5560 C   0  0  0  0  0  0  0  0  0  0  0  0
   57.5112   21.3092   43.8045 H   0  0  0  0  0  0  0  0  0  0  0  0
   56.3397   21.3033   42.4428 H   0  0  0  0  0  0  0  0  0  0  0  0
   57.7110   22.4635   42.4428 H   0  0  0  0  0  0  0  0  0  0  0  0
   56.6755   23.8998   43.9076 H   0  0  0  0  0  0  0  0  0  0  0  0
   55.1918   23.1161   43.2387 H   0  0  0  0  0  0  0  0  0  0  0  0
   53.8351   22.2121   46.0160 H   0  0  0  0  0  0  0  0  0  0  0  0
   54.7026   23.7002   46.5247 H   0  0  0  0  0  0  0  0  0  0  0  0
   53.1267   24.5648   45.0197 H   0  0  0  0  0  0  0  0  0  0  0  0
   54.5484   24.3161   43.9502 H   0  0  0  0  0  0  0  0  0  0  0  0
   53.2049   23.1237   43.9502 H   0  0  0  0  0  0  0  0  0  0  0  0
   57.3142   21.5844   46.2739 H   0  0  0  0  0  0  0  0  0  0  0  0
   57.6000   23.2942   45.6962 H   0  0  0  0  0  0  0  0  0  0  0  0
   55.3559   23.0791   47.5838 H   0  0  0  0  0  0  0  0  0  0  0  0
   56.9486   22.5409   48.2763 H   0  0  0  0  0  0  0  0  0  0  0  0
   56.0108   25.2579   47.5207 H   0  0  0  0  0  0  0  0  0  0  0  0
   57.2491   24.7281   48.7236 H   0  0  0  0  0  0  0  0  0  0  0  0
   58.5850   25.6400   47.2420 H   0  0  0  0  0  0  0  0  0  0  0  0
   58.2252   26.0832   45.0005 H   0  0  0  0  0  0  0  0  0  0  0  0
   56.8550   24.9102   44.9688 H   0  0  0  0  0  0  0  0  0  0  0  0
   55.5489   26.7255   45.3525 H   0  0  0  0  0  0  0  0  0  0  0  0
   56.1499   26.5836   47.0541 H   0  0  0  0  0  0  0  0  0  0  0  0
   56.5109   31.2373   44.6012 H   0  0  0  0  0  0  0  0  0  0  0  0
   58.6730   31.6911   45.7386 H   0  0  0  0  0  0  0  0  0  0  0  0
   62.8295   30.2381   47.2082 H   0  0  0  0  0  0  0  0  0  0  0  0
   64.0484   32.4155   47.1593 H   0  0  0  0  0  0  0  0  0  0  0  0
   62.7761   34.5606   47.0418 H   0  0  0  0  0  0  0  0  0  0  0  0
   60.2803   34.5308   46.9795 H   0  0  0  0  0  0  0  0  0  0  0  0
   59.0533   32.3590   47.0253 H   0  0  0  0  0  0  0  0  0  0  0  0
   61.6369   28.9512   48.4177 H   0  0  0  0  0  0  0  0  0  0  0  0
  1  2  1  0
  2  3  1  0
  3  4  1  0
  4  5  1  0
  3  6  1  0
  6  7  1  0
  7  8  1  0
  8  9  1  0
  9 10  1  0
 10 11  1  0
 11 12  1  0
 12 13  2  0
 13 14  1  0
 13 15  1  0
 15 16  2  0
 16 17  1  0
 17 18  1  0
 18 19  1  0
 19 20  2  0
 20 21  1  0
 21 22  2  0
 22 23  1  0
 23 24  2  0
 18 25  2  0
 25 26  1  0
 26 27  2  0
 26 28  1  0
 28 29  1  0
 29 12  1  0
 29 17  2  0
 24 19  1  0
  1 30  1  0
  1 31  1  0
  1 32  1  0
  2 33  1  0
  2 34  1  0
  4 35  1  0
  4 36  1  0
  5 37  1  0
  5 38  1  0
  5 39  1  0
  6 40  1  0
  6 41  1  0
  7 42  1  0
  7 43  1  0
  8 44  1  0
  8 45  1  0
  9 46  1  0
 10 47  1  0
 10 48  1  0
 11 49  1  0
 11 50  1  0
 15 51  1  0
 16 52  1  0
 20 53  1  0
 21 54  1  0
 22 55  1  0
 23 56  1  0
 24 57  1  0
 25 58  1  0
M  CHG  1  14  -1
M  END
>  <UniqueID>  (30) 
28

>  <SMILES>  (30) 
CCN(CC)CCCNCCc1c([O-])ccc2c(-c3ccccc3)cc(=O)oc12

>  <Energy>  (30) 
67.5580112543629

>  <Genealogy>  (30) 
CCN(CC)CCCNCCc1c([O-])ccc2c(-c3ccccc3)cc(=O)oc12 (protonated)
CCN(CC)CCCNCCc1c([O-])ccc2c(-c3ccccc3)cc(=O)oc12 (3D coordinates assigned)
CCN(CC)CCCNCCc1c([O-])ccc2c(-c3ccccc3)cc(=O)oc12 (optimized conformer: 67.5580112543629 kcal/mol)

>  <smiles>  (30) 
CCN(CC)CCCNCCc1c(O)ccc2c(-c3ccccc3)cc(=O)oc12

>  <score_type>  (30) 
oracle

>  <origin>  (30) 
adg

>  <m_score__min__energy>  (30) 
-9.9299999999999997

>  <m_primary>  (30) 
energy

$$$$
30:0
     RDKit          3D

 33 35  0  0  0  0  0  0  0  0999 V2000
   54.7590   28.9620   45.4620 H   0  0  0  0  0  0  0  0  0  0  0  0
   55.6070   29.3500   44.9940 N   0  0  0  0  0  0  0  0  0  0  0  0
   56.8070   28.9310   45.2480 C   0  0  0  0  0  0  0  0  0  0  0  0
   57.1750   27.6360   45.5940 C   0  0  0  0  0  0  0  0  0  0  0  0
   56.3460   26.4100   45.6260 C   0  0  0  0  0  0  0  0  0  0  0  0
   55.1380   26.4960   45.9730 O   0  0  0  0  0  0  0  0  0  0  0  0
   56.8870   25.0900   45.2220 C   0  0  0  0  0  0  0  0  0  0  0  0
   57.9470   24.4910   45.9300 C   0  0  0  0  0  0  0  0  0  0  0  0
   58.3927   25.0111   46.7907 H   0  0  0  0  0  0  0  0  0  0  0  0
   58.4360   23.2390   45.5450 C   0  0  0  0  0  0  0  0  0  0  0  0
   59.2691   22.7816   46.0988 H   0  0  0  0  0  0  0  0  0  0  0  0
   57.8700   22.5680   44.4600 C   0  0  0  0  0  0  0  0  0  0  0  0
   58.2605   21.5855   44.1563 H   0  0  0  0  0  0  0  0  0  0  0  0
   56.8080   23.1440   43.7600 C   0  0  0  0  0  0  0  0  0  0  0  0
   56.3591   22.6121   42.9082 H   0  0  0  0  0  0  0  0  0  0  0  0
   56.3140   24.3960   44.1400 C   0  0  0  0  0  0  0  0  0  0  0  0
   55.4721   24.8412   43.5896 H   0  0  0  0  0  0  0  0  0  0  0  0
   58.5360   27.7240   45.8410 C   0  0  0  0  0  0  0  0  0  0  0  0
   59.1861   26.8883   46.1392 H   0  0  0  0  0  0  0  0  0  0  0  0
   58.9350   28.9990   45.6570 N   0  0  0  0  0  0  0  0  0  0  0  0
   59.9130   29.3500   45.7580 H   0  0  0  0  0  0  0  0  0  0  0  0
   57.8940   29.7330   45.2910 N   0  0  0  0  0  0  0  0  0  0  0  0
   57.9610   31.1460   45.0190 C   0  0  0  0  0  0  0  0  0  0  0  0
   57.9780   31.6250   43.6950 C   0  0  0  0  0  0  0  0  0  0  0  0
   57.9321   30.9155   42.8556 H   0  0  0  0  0  0  0  0  0  0  0  0
   58.0530   32.9980   43.4420 C   0  0  0  0  0  0  0  0  0  0  0  0
   58.0616   33.3657   42.4053 H   0  0  0  0  0  0  0  0  0  0  0  0
   58.1170   33.9040   44.5040 C   0  0  0  0  0  0  0  0  0  0  0  0
   58.1737   34.9840   44.3030 H   0  0  0  0  0  0  0  0  0  0  0  0
   58.1090   33.4380   45.8210 C   0  0  0  0  0  0  0  0  0  0  0  0
   58.1610   34.1515   46.6566 H   0  0  0  0  0  0  0  0  0  0  0  0
   58.0350   32.0660   46.0780 C   0  0  0  0  0  0  0  0  0  0  0  0
   58.0347   31.7042   47.1168 H   0  0  0  0  0  0  0  0  0  0  0  0
  1  2  1  0
  2  3  2  0
  3  4  1  0
  4  5  1  0
  5  6  2  0
  5  7  1  0
  7  8  2  0
  8  9  1  0
  8 10  1  0
 10 11  1  0
 10 12  2  0
 12 13  1  0
 12 14  1  0
 14 15  1  0
 14 16  2  0
 16 17  1  0
  4 18  2  0
 18 19  1  0
 18 20  1  0
 20 21  1  0
 20 22  1  0
 22 23  1  0
 23 24  2  0
 24 25  1  0
 24 26  1  0
 26 27  1  0
 26 28  2  0
 28 29  1  0
 28 30  1  0
 30 31  1  0
 30 32  2  0
 32 33  1  0
 22  3  1  0
 32 23  1  0
 16  7  1  0
M  END
>  <UniqueID>  (31) 
29

>  <SMILES>  (31) 
[H]/N=c1\c(C(=O)c2ccccc2)c[nH]n1-c1ccccc1

>  <Energy>  (31) 
79.51401902265283

>  <Genealogy>  (31) 
[H]/N=c1\c(C(=O)c2ccccc2)c[nH]n1-c1ccccc1 (cis-trans isomerization)
[H]/N=c1\c(C(=O)c2ccccc2)c[nH]n1-c1ccccc1 (3D coordinates assigned)
[H]/N=c1\c(C(=O)c2ccccc2)c[nH]n1-c1ccccc1 (optimized conformer: 79.51401902265283 kcal/mol)

>  <smiles>  (31) 
N=c1c(C(=O)c2ccccc2)c[nH]n1-c1ccccc1

>  <score_type>  (31) 
oracle

>  <origin>  (31) 
adg

>  <m_score__min__energy>  (31) 
-7.7800000000000002

>  <m_primary>  (31) 
energy

$$$$
31:0
     RDKit          3D

 36 38  0  0  0  0  0  0  0  0999 V2000
   56.4690   30.4100   43.3460 C   0  0  0  0  0  0  0  0  0  0  0  0
   56.5310   30.7010   44.7380 O   0  0  0  0  0  0  0  0  0  0  0  0
   57.7200   30.8080   45.4790 C   0  0  0  0  0  0  0  0  0  0  0  0
   58.1890   32.0430   45.9630 C   0  0  0  0  0  0  0  0  0  0  0  0
   59.3880   32.1220   46.6790 C   0  0  0  0  0  0  0  0  0  0  0  0
   60.1160   30.9500   46.9550 C   0  0  0  0  0  0  0  0  0  0  0  0
   59.6390   29.7150   46.4880 C   0  0  0  0  0  0  0  0  0  0  0  0
   58.4490   29.6390   45.7400 C   0  0  0  0  0  0  0  0  0  0  0  0
   57.9550   28.4210   45.2460 O   0  0  0  0  0  0  0  0  0  0  0  0
   58.4700   27.7460   44.1040 C   0  0  0  0  0  0  0  0  0  0  0  0
   61.3280   30.9820   47.8010 C   0  0  0  0  0  0  0  0  0  0  0  0
   61.4170   30.1570   48.7510 O   0  0  0  0  0  0  0  0  0  0  0  0
   62.4760   31.7950   47.4470 N   0  0  2  0  0  0  0  0  0  0  0  0
   63.2900   32.1880   48.6070 C   0  0  0  0  0  0  0  0  0  0  0  0
   64.0660   33.4410   48.2020 C   0  0  0  0  0  0  0  0  0  0  0  0
   63.4650   33.8780   46.8720 C   0  0  0  0  0  0  0  0  0  0  0  0
   62.1860   33.0540   46.7380 C   0  0  2  0  0  0  0  0  0  0  0  0
   61.0070   33.8110   47.3290 C   0  0  0  0  0  0  0  0  0  0  0  0
   59.7840   33.3930   47.2110 N   0  0  0  0  0  0  0  0  0  0  0  0
   56.2417   29.3431   43.2042 H   0  0  0  0  0  0  0  0  0  0  0  0
   55.6803   31.0181   42.8790 H   0  0  0  0  0  0  0  0  0  0  0  0
   57.4371   30.6439   42.8790 H   0  0  0  0  0  0  0  0  0  0  0  0
   57.6061   32.9569   45.7762 H   0  0  0  0  0  0  0  0  0  0  0  0
   60.2017   28.7961   46.7092 H   0  0  0  0  0  0  0  0  0  0  0  0
   59.1075   26.9104   44.4285 H   0  0  0  0  0  0  0  0  0  0  0  0
   57.6362   27.3581   43.5004 H   0  0  0  0  0  0  0  0  0  0  0  0
   59.0643   28.4477   43.5004 H   0  0  0  0  0  0  0  0  0  0  0  0
   63.0750   31.2060   46.8190 H   0  0  0  0  0  0  0  0  0  0  0  0
   62.6409   32.4069   49.4677 H   0  0  0  0  0  0  0  0  0  0  0  0
   63.9750   31.3784   48.8993 H   0  0  0  0  0  0  0  0  0  0  0  0
   63.9430   34.2307   48.9578 H   0  0  0  0  0  0  0  0  0  0  0  0
   65.1450   33.2441   48.1179 H   0  0  0  0  0  0  0  0  0  0  0  0
   63.2345   34.9535   46.8847 H   0  0  0  0  0  0  0  0  0  0  0  0
   64.1545   33.7180   46.0300 H   0  0  0  0  0  0  0  0  0  0  0  0
   61.9037   32.8544   45.6937 H   0  0  0  0  0  0  0  0  0  0  0  0
   61.1975   34.7462   47.8760 H   0  0  0  0  0  0  0  0  0  0  0  0
  1  2  1  0
  2  3  1  0
  3  4  2  0
  4  5  1  0
  5  6  2  0
  6  7  1  0
  7  8  2  0
  8  9  1  0
  9 10  1  0
  6 11  1  0
 11 12  2  0
 11 13  1  0
 13 14  1  0
 14 15  1  0
 15 16  1  0
 16 17  1  0
 17 18  1  0
 18 19  2  0
  8  3  1  0
 17 13  1  0
 19  5  1  0
  1 20  1  0
  1 21  1  0
  1 22  1  0
  4 23  1  0
  7 24  1  0
 10 25  1  0
 10 26  1  0
 10 27  1  0
 13 28  1  6
 14 29  1  0
 14 30  1  0
 15 31  1  0
 15 32  1  0
 16 33  1  0
 16 34  1  0
 17 35  1  6
 18 36  1  0
M  CHG  1  13   1
M  END
>  <UniqueID>  (32) 
30

>  <SMILES>  (32) 
COc1cc2c(cc1OC)C(=O)[N@@H+]1CCC[C@@H]1C=N2

>  <Energy>  (32) 
58.90571098794854

>  <Genealogy>  (32) 
COc1cc2c(cc1OC)C(=O)[NH+]1CCCC1C=N2 (protonated)
COc1cc2c(cc1OC)C(=O)[N@@H+]1CCC[C@@H]1C=N2 (chirality)
COc1cc2c(cc1OC)C(=O)[N@@H+]1CCC[C@@H]1C=N2 (3D coordinates assigned)
COc1cc2c(cc1OC)C(=O)[N@@H+]1CCC[C@@H]1C=N2 (nonaromatic ring conformer: 58.90571098794854 kcal/mol)

>  <smiles>  (32) 
COc1cc2c(cc1OC)C(=O)N1CCCC1C=N2

>  <score_type>  (32) 
oracle

>  <origin>  (32) 
adg

>  <m_score__min__energy>  (32) 
-3.6299999999999999

>  <m_primary>  (32) 
energy

$$$$
32:0
     RDKit          3D

 53 56  0  0  0  0  0  0  0  0999 V2000
   58.8880   26.3620   47.1240 C   0  0  0  0  0  0  0  0  0  0  0  0
   57.4250   26.4250   46.9700 N   0  0  0  0  0  0  0  0  0  0  0  0
   56.9180   25.1100   46.5460 C   0  0  0  0  0  0  0  0  0  0  0  0
   57.0520   27.4770   45.9980 C   0  0  0  0  0  0  0  0  0  0  0  0
   58.2920   28.0290   45.2850 C   0  0  0  0  0  0  0  0  0  0  0  0
   58.5170   29.4390   45.6400 N   0  0  0  0  0  0  0  0  0  0  0  0
   57.6120   30.4570   45.1740 C   0  0  0  0  0  0  0  0  0  0  0  0
   56.5780   30.1350   44.5250 O   0  0  0  0  0  0  0  0  0  0  0  0
   57.8920   31.8840   45.4530 C   0  0  0  0  0  0  0  0  0  0  0  0
   57.0160   32.8860   45.0010 C   0  0  0  0  0  0  0  0  0  0  0  0
   57.2840   34.2310   45.2580 C   0  0  0  0  0  0  0  0  0  0  0  0
   58.4270   34.5970   45.9680 C   0  0  0  0  0  0  0  0  0  0  0  0
   59.3160   33.6170   46.4300 C   0  0  0  0  0  0  0  0  0  0  0  0
   60.4650   33.9880   47.1410 C   0  0  0  0  0  0  0  0  0  0  0  0
   61.3570   33.0150   47.6130 C   0  0  0  0  0  0  0  0  0  0  0  0
   62.5450   33.4060   48.3300 N   0  0  0  0  0  0  0  0  0  0  0  0
   63.8390   32.8010   47.9960 C   0  0  0  0  0  0  0  0  0  0  0  0
   64.8250   32.9470   49.1670 C   0  0  0  0  0  0  0  0  0  0  0  0
   64.1530   32.7840   50.4760 N   0  0  0  0  0  0  0  0  0  0  0  0
   63.6800   31.4030   50.6790 C   0  0  0  0  0  0  0  0  0  0  0  0
   63.0740   33.7790   50.7110 C   0  0  0  0  0  0  0  0  0  0  0  0
   62.4900   34.3830   49.4200 C   0  0  0  0  0  0  0  0  0  0  0  0
   61.0990   31.6610   47.3550 C   0  0  0  0  0  0  0  0  0  0  0  0
   59.9530   31.2670   46.6430 C   0  0  0  0  0  0  0  0  0  0  0  0
   59.0520   32.2470   46.1750 C   0  0  0  0  0  0  0  0  0  0  0  0
   59.6920   29.8340   46.3750 C   0  0  0  0  0  0  0  0  0  0  0  0
   60.5000   28.9590   46.7940 O   0  0  0  0  0  0  0  0  0  0  0  0
   59.1439   26.3510   48.1938 H   0  0  0  0  0  0  0  0  0  0  0  0
   59.2679   25.4467   46.6466 H   0  0  0  0  0  0  0  0  0  0  0  0
   59.3451   27.2413   46.6466 H   0  0  0  0  0  0  0  0  0  0  0  0
   56.6842   24.5036   47.4335 H   0  0  0  0  0  0  0  0  0  0  0  0
   56.0074   25.2449   45.9438 H   0  0  0  0  0  0  0  0  0  0  0  0
   57.6834   24.5987   45.9438 H   0  0  0  0  0  0  0  0  0  0  0  0
   56.3672   27.0500   45.2505 H   0  0  0  0  0  0  0  0  0  0  0  0
   56.5641   28.2997   46.5412 H   0  0  0  0  0  0  0  0  0  0  0  0
   59.1711   27.4381   45.5817 H   0  0  0  0  0  0  0  0  0  0  0  0
   58.1325   27.9610   44.1988 H   0  0  0  0  0  0  0  0  0  0  0  0
   56.1117   32.6075   44.4400 H   0  0  0  0  0  0  0  0  0  0  0  0
   56.5907   35.0059   44.8990 H   0  0  0  0  0  0  0  0  0  0  0  0
   58.6318   35.6594   46.1663 H   0  0  0  0  0  0  0  0  0  0  0  0
   60.6689   35.0522   47.3305 H   0  0  0  0  0  0  0  0  0  0  0  0
   63.6928   31.7328   47.7780 H   0  0  0  0  0  0  0  0  0  0  0  0
   64.2543   33.3162   47.1173 H   0  0  0  0  0  0  0  0  0  0  0  0
   65.6078   32.1802   49.0709 H   0  0  0  0  0  0  0  0  0  0  0  0
   65.2550   33.9587   49.1274 H   0  0  0  0  0  0  0  0  0  0  0  0
   63.6086   31.1946   51.7567 H   0  0  0  0  0  0  0  0  0  0  0  0
   62.6895   31.2829   50.2159 H   0  0  0  0  0  0  0  0  0  0  0  0
   64.3889   30.7008   50.2159 H   0  0  0  0  0  0  0  0  0  0  0  0
   62.2600   33.2839   51.2608 H   0  0  0  0  0  0  0  0  0  0  0  0
   63.5225   34.6086   51.2772 H   0  0  0  0  0  0  0  0  0  0  0  0
   61.4432   34.6716   49.5959 H   0  0  0  0  0  0  0  0  0  0  0  0
   63.0828   35.2659   49.1387 H   0  0  0  0  0  0  0  0  0  0  0  0
   61.8034   30.8966   47.7149 H   0  0  0  0  0  0  0  0  0  0  0  0
  1  2  1  0
  2  3  1  0
  2  4  1  0
  4  5  1  0
  5  6  1  0
  6  7  1  0
  7  8  2  0
  7  9  1  0
  9 10  1  0
 10 11  2  0
 11 12  1  0
 12 13  2  0
 13 14  1  0
 14 15  2  0
 15 16  1  0
 16 17  1  0
 17 18  1  0
 18 19  1  0
 19 20  1  0
 19 21  1  0
 21 22  1  0
 15 23  1  0
 23 24  2  0
 24 25  1  0
 24 26  1  0
 26 27  2  0
 26  6  1  0
 25  9  2  0
 25 13  1  0
 22 16  1  0
  1 28  1  0
  1 29  1  0
  1 30  1  0
  3 31  1  0
  3 32  1  0
  3 33  1  0
  4 34  1  0
  4 35  1  0
  5 36  1  0
  5 37  1  0
 10 38  1  0
 11 39  1  0
 12 40  1  0
 14 41  1  0
 17 42  1  0
 17 43  1  0
 18 44  1  0
 18 45  1  0
 20 46  1  0
 20 47  1  0
 20 48  1  0
 21 49  1  0
 21 50  1  0
 22 51  1  0
 22 52  1  0
 23 53  1  0
M  END
>  <UniqueID>  (33) 
31

>  <SMILES>  (33) 
CN(C)CCN1C(=O)c2cccc3cc(N4CCN(C)CC4)cc(c23)C1=O

>  <Energy>  (33) 
71.04803409119292

>  <Genealogy>  (33) 
CN(C)CCN1C(=O)c2cccc3cc(N4CCN(C)CC4)cc(c23)C1=O (3D coordinates assigned)
CN(C)CCN1C(=O)c2cccc3cc(N4CCN(C)CC4)cc(c23)C1=O (nonaromatic ring conformer: 71.04803409119292 kcal/mol)

>  <smiles>  (33) 
CN(C)CCN1C(=O)c2cccc3cc(N4CCN(C)CC4)cc(c23)C1=O

>  <score_type>  (33) 
oracle

>  <origin>  (33) 
adg

>  <m_score__min__energy>  (33) 
-8.3399999999999999

>  <m_primary>  (33) 
energy

$$$$
33:0
     RDKit          3D

 32 33  0  0  0  0  0  0  0  0999 V2000
   57.8000   32.2950   43.4920 C   0  0  0  0  0  0  0  0  0  0  0  0
   58.0910   31.3550   44.5910 N   0  0  1  0  0  0  0  0  0  0  0  0
   58.0850   32.0350   45.9070 C   0  0  0  0  0  0  0  0  0  0  0  0
   59.4890   32.3350   46.3960 C   0  0  0  0  0  0  0  0  0  0  0  0
   60.2250   31.3070   47.0090 C   0  0  0  0  0  0  0  0  0  0  0  0
   61.5280   31.5330   47.4570 C   0  0  0  0  0  0  0  0  0  0  0  0
   62.1160   32.7890   47.2950 C   0  0  0  0  0  0  0  0  0  0  0  0
   63.7530   33.0720   47.8560 Cl  0  0  0  0  0  0  0  0  0  0  0  0
   61.3980   33.8210   46.6840 C   0  0  0  0  0  0  0  0  0  0  0  0
   60.0910   33.6060   46.2320 C   0  0  0  0  0  0  0  0  0  0  0  0
   59.2510   34.9520   45.4670 Cl  0  0  0  0  0  0  0  0  0  0  0  0
   57.1140   30.2830   44.5990 C   0  0  0  0  0  0  0  0  0  0  0  0
   55.8820   30.5590   44.5380 O   0  0  0  0  0  0  0  0  0  0  0  0
   57.5190   28.8560   44.7200 C   0  0  0  0  0  0  0  0  0  0  0  0
   57.7560   28.0580   43.5860 C   0  0  0  0  0  0  0  0  0  0  0  0
   58.1410   26.7250   43.7460 C   0  0  0  0  0  0  0  0  0  0  0  0
   58.2920   26.2020   44.9910 N   0  0  0  0  0  0  0  0  0  0  0  0
   58.0800   26.9480   46.1060 C   0  0  0  0  0  0  0  0  0  0  0  0
   57.6940   28.2850   45.9920 C   0  0  0  0  0  0  0  0  0  0  0  0
   57.4992   33.2667   43.9106 H   0  0  0  0  0  0  0  0  0  0  0  0
   58.6999   32.4252   42.8729 H   0  0  0  0  0  0  0  0  0  0  0  0
   56.9839   31.8940   42.8729 H   0  0  0  0  0  0  0  0  0  0  0  0
   59.0400   30.9590   44.4020 H   0  0  0  0  0  0  0  0  0  0  0  0
   57.5307   32.9807   45.8159 H   0  0  0  0  0  0  0  0  0  0  0  0
   57.6071   31.3632   46.6352 H   0  0  0  0  0  0  0  0  0  0  0  0
   59.7699   30.3138   47.1373 H   0  0  0  0  0  0  0  0  0  0  0  0
   62.0920   30.7204   47.9382 H   0  0  0  0  0  0  0  0  0  0  0  0
   61.8637   34.8095   46.5575 H   0  0  0  0  0  0  0  0  0  0  0  0
   57.6386   28.4819   42.5778 H   0  0  0  0  0  0  0  0  0  0  0  0
   58.3225   26.0967   42.8615 H   0  0  0  0  0  0  0  0  0  0  0  0
   58.2127   26.4979   47.1009 H   0  0  0  0  0  0  0  0  0  0  0  0
   57.5273   28.8898   46.8956 H   0  0  0  0  0  0  0  0  0  0  0  0
  1  2  1  0
  2  3  1  0
  3  4  1  0
  4  5  2  0
  5  6  1  0
  6  7  2  0
  7  8  1  0
  7  9  1  0
  9 10  2  0
 10 11  1  0
  2 12  1  0
 12 13  2  0
 12 14  1  0
 14 15  2  0
 15 16  1  0
 16 17  2  0
 17 18  1  0
 18 19  2  0
 10  4  1  0
 19 14  1  0
  1 20  1  0
  1 21  1  0
  1 22  1  0
  2 23  1  6
  3 24  1  0
  3 25  1  0
  5 26  1  0
  6 27  1  0
  9 28  1  0
 15 29  1  0
 16 30  1  0
 18 31  1  0
 19 32  1  0
M  CHG  1   2   1
M  END
>  <UniqueID>  (34) 
32

>  <SMILES>  (34) 
C[N@@H+](Cc1ccc(Cl)cc1Cl)C(=O)c1ccncc1

>  <Energy>  (34) 
39.63355923072829

>  <Genealogy>  (34) 
C[NH+](Cc1ccc(Cl)cc1Cl)C(=O)c1ccncc1 (protonated)
C[N@@H+](Cc1ccc(Cl)cc1Cl)C(=O)c1ccncc1 (chirality)
C[N@@H+](Cc1ccc(Cl)cc1Cl)C(=O)c1ccncc1 (3D coordinates assigned)
C[N@@H+](Cc1ccc(Cl)cc1Cl)C(=O)c1ccncc1 (optimized conformer: 39.63355923072829 kcal/mol)

>  <smiles>  (34) 
CN(Cc1ccc(Cl)cc1Cl)C(=O)c1ccncc1

>  <score_type>  (34) 
oracle

>  <origin>  (34) 
adg

>  <m_score__min__energy>  (34) 
-5.4000000000000004

>  <m_primary>  (34) 
energy

$$$$
34:0
     RDKit          3D

 51 53  0  0  0  0  0  0  0  0999 V2000
   59.4900   35.0680   45.6570 C   0  0  0  0  0  0  0  0  0  0  0  0
   58.6800   33.9460   45.0820 C   0  0  0  0  0  0  0  0  0  0  0  0
   58.5950   33.7350   43.7560 N   0  0  0  0  0  0  0  0  0  0  0  0
   57.9680   32.5880   43.5670 N   0  0  0  0  0  0  0  0  0  0  0  0
   57.7850   31.9910   42.2490 C   0  0  0  0  0  0  0  0  0  0  0  0
   57.6810   32.0190   44.7580 C   0  0  0  0  0  0  0  0  0  0  0  0
   57.2420   30.5900   44.9020 C   0  0  0  0  0  0  0  0  0  0  0  0
   58.0480   32.9070   45.7720 C   0  0  0  0  0  0  0  0  0  0  0  0
   57.9840   32.7120   47.2800 C   0  0  0  0  0  0  0  0  0  0  0  0
   59.2640   32.3480   47.9730 N   0  0  2  0  0  0  0  0  0  0  0  0
   59.1680   31.1410   48.8450 C   0  0  0  0  0  0  0  0  0  0  0  0
   60.0720   29.9660   48.3880 C   0  0  1  0  0  0  0  0  0  0  0  0
   59.2560   28.6910   48.1690 C   0  0  0  0  0  0  0  0  0  0  0  0
   59.1830   28.5760   46.6790 C   0  0  0  0  0  0  0  0  0  0  0  0
   60.4200   29.3150   46.2300 C   0  0  0  0  0  0  0  0  0  0  0  0
   60.7450   30.2920   47.1900 O   0  0  0  0  0  0  0  0  0  0  0  0
   60.0100   33.4760   48.6310 C   0  0  1  0  0  0  0  0  0  0  0  0
   59.7460   33.5120   50.1510 C   0  0  0  0  0  0  0  0  0  0  0  0
   61.4970   33.5550   48.2950 C   0  0  0  0  0  0  0  0  0  0  0  0
   62.5680   33.4870   49.1920 C   0  0  0  0  0  0  0  0  0  0  0  0
   63.8260   33.4510   48.5800 C   0  0  0  0  0  0  0  0  0  0  0  0
   63.7770   33.4390   47.1950 C   0  0  0  0  0  0  0  0  0  0  0  0
   62.1630   33.4690   46.7430 S   0  0  0  0  0  0  0  0  0  0  0  0
   59.4553   35.0199   46.7554 H   0  0  0  0  0  0  0  0  0  0  0  0
   60.5329   34.9781   45.3188 H   0  0  0  0  0  0  0  0  0  0  0  0
   59.0764   36.0296   45.3188 H   0  0  0  0  0  0  0  0  0  0  0  0
   57.4643   30.9448   42.3617 H   0  0  0  0  0  0  0  0  0  0  0  0
   57.0176   32.5522   41.6956 H   0  0  0  0  0  0  0  0  0  0  0  0
   58.7350   32.0257   41.6956 H   0  0  0  0  0  0  0  0  0  0  0  0
   57.1640   30.3362   45.9695 H   0  0  0  0  0  0  0  0  0  0  0  0
   56.2617   30.4573   44.4210 H   0  0  0  0  0  0  0  0  0  0  0  0
   57.9788   29.9298   44.4210 H   0  0  0  0  0  0  0  0  0  0  0  0
   57.6231   33.6526   47.7215 H   0  0  0  0  0  0  0  0  0  0  0  0
   57.3215   31.8467   47.4291 H   0  0  0  0  0  0  0  0  0  0  0  0
   59.8930   32.0560   47.1870 H   0  0  0  0  0  0  0  0  0  0  0  0
   59.4602   31.4267   49.8663 H   0  0  0  0  0  0  0  0  0  0  0  0
   58.1282   30.7865   48.7886 H   0  0  0  0  0  0  0  0  0  0  0  0
   60.8061   29.7885   49.1878 H   0  0  0  0  0  0  0  0  0  0  0  0
   59.7640   27.8189   48.6064 H   0  0  0  0  0  0  0  0  0  0  0  0
   58.2652   28.7288   48.6453 H   0  0  0  0  0  0  0  0  0  0  0  0
   59.2117   27.5236   46.3602 H   0  0  0  0  0  0  0  0  0  0  0  0
   58.2530   28.9817   46.2542 H   0  0  0  0  0  0  0  0  0  0  0  0
   61.2555   28.6069   46.1272 H   0  0  0  0  0  0  0  0  0  0  0  0
   60.2328   29.7966   45.2589 H   0  0  0  0  0  0  0  0  0  0  0  0
   59.5934   34.3920   48.1867 H   0  0  0  0  0  0  0  0  0  0  0  0
   60.6954   33.3825   50.6912 H   0  0  0  0  0  0  0  0  0  0  0  0
   59.2985   34.4795   50.4226 H   0  0  0  0  0  0  0  0  0  0  0  0
   59.0558   32.6997   50.4226 H   0  0  0  0  0  0  0  0  0  0  0  0
   62.4332   33.4638   50.2835 H   0  0  0  0  0  0  0  0  0  0  0  0
   64.7685   33.4338   49.1469 H   0  0  0  0  0  0  0  0  0  0  0  0
   64.6413   33.4143   46.5150 H   0  0  0  0  0  0  0  0  0  0  0  0
  1  2  1  0
  2  3  2  0
  3  4  1  0
  4  5  1  0
  4  6  1  0
  6  7  1  0
  6  8  2  0
  8  9  1  0
  9 10  1  0
 10 11  1  0
 11 12  1  0
 12 13  1  0
 13 14  1  0
 14 15  1  0
 15 16  1  0
 10 17  1  0
 17 18  1  0
 17 19  1  0
 19 20  2  0
 20 21  1  0
 21 22  2  0
 22 23  1  0
  8  2  1  0
 16 12  1  0
 23 19  1  0
  1 24  1  0
  1 25  1  0
  1 26  1  0
  5 27  1  0
  5 28  1  0
  5 29  1  0
  7 30  1  0
  7 31  1  0
  7 32  1  0
  9 33  1  0
  9 34  1  0
 10 35  1  6
 11 36  1  0
 11 37  1  0
 12 38  1  1
 13 39  1  0
 13 40  1  0
 14 41  1  0
 14 42  1  0
 15 43  1  0
 15 44  1  0
 17 45  1  6
 18 46  1  0
 18 47  1  0
 18 48  1  0
 20 49  1  0
 21 50  1  0
 22 51  1  0
M  CHG  1  10   1
M  END
>  <UniqueID>  (35) 
33

>  <SMILES>  (35) 
Cc1nn(C)c(C)c1C[N@H+](C[C@H]1CCCO1)C(C)c1cccs1

>  <Energy>  (35) 
123.34374273825965

>  <Genealogy>  (35) 
Cc1nn(C)c(C)c1C[NH+](CC1CCCO1)C(C)c1cccs1 (protonated)
Cc1nn(C)c(C)c1C[N@H+](C[C@H]1CCCO1)C(C)c1cccs1 (chirality)
Cc1nn(C)c(C)c1C[N@H+](C[C@H]1CCCO1)C(C)c1cccs1 (3D coordinates assigned)
Cc1nn(C)c(C)c1C[N@H+](C[C@H]1CCCO1)C(C)c1cccs1 (nonaromatic ring conformer: 123.34374273825965 kcal/mol)

>  <smiles>  (35) 
Cc1nn(C)c(C)c1CN(CC1CCCO1)C(C)c1cccs1

>  <score_type>  (35) 
oracle

>  <origin>  (35) 
adg

>  <m_score__min__energy>  (35) 
-5.9299999999999997

>  <m_primary>  (35) 
energy

$$$$
35:0
     RDKit          3D

 45 47  0  0  0  0  0  0  0  0999 V2000
   55.4340   29.6570   43.5940 C   0  0  0  0  0  0  0  0  0  0  0  0
   55.9260   29.2130   44.8520 O   0  0  0  0  0  0  0  0  0  0  0  0
   57.1730   29.5960   45.3530 C   0  0  0  0  0  0  0  0  0  0  0  0
   57.9580   28.6590   46.0300 C   0  0  0  0  0  0  0  0  0  0  0  0
   59.2010   29.0420   46.5350 C   0  0  0  0  0  0  0  0  0  0  0  0
   59.6540   30.3580   46.3660 C   0  0  0  0  0  0  0  0  0  0  0  0
   61.0070   30.7910   46.8870 C   0  0  0  0  0  0  0  0  0  0  0  0
   61.0900   30.6990   48.3730 N   0  0  1  0  0  0  0  0  0  0  0  0
   62.3990   31.1350   48.9310 C   0  0  0  0  0  0  0  0  0  0  0  0
   62.7900   32.6360   48.8160 C   0  0  0  0  0  0  0  0  0  0  0  0
   61.6810   33.6830   49.0030 C   0  0  0  0  0  0  0  0  0  0  0  0
   60.5020   33.4700   48.1450 N   0  0  0  0  0  0  0  0  0  0  0  0
   60.5120   34.0460   46.8190 C   0  0  0  0  0  0  0  0  0  0  0  0
   61.4530   33.7680   46.0250 O   0  0  0  0  0  0  0  0  0  0  0  0
   59.3820   34.9230   46.3350 C   0  0  0  0  0  0  0  0  0  0  0  0
   58.9620   34.6500   44.8980 C   0  0  0  0  0  0  0  0  0  0  0  0
   58.0580   34.2270   46.0410 C   0  0  0  0  0  0  0  0  0  0  0  0
   59.3950   32.6110   48.5900 C   0  0  0  0  0  0  0  0  0  0  0  0
   59.8920   31.2390   49.0730 C   0  0  0  0  0  0  0  0  0  0  0  0
   58.8390   31.2650   45.6720 C   0  0  0  0  0  0  0  0  0  0  0  0
   57.6310   30.8690   45.1900 N   0  0  0  0  0  0  0  0  0  0  0  0
   54.6259   30.3862   43.7530 H   0  0  0  0  0  0  0  0  0  0  0  0
   56.2494   30.1309   43.0279 H   0  0  0  0  0  0  0  0  0  0  0  0
   55.0460   28.7974   43.0279 H   0  0  0  0  0  0  0  0  0  0  0  0
   57.5990   27.6279   46.1637 H   0  0  0  0  0  0  0  0  0  0  0  0
   59.8267   28.3101   47.0667 H   0  0  0  0  0  0  0  0  0  0  0  0
   61.7803   30.1438   46.4476 H   0  0  0  0  0  0  0  0  0  0  0  0
   61.1592   31.8428   46.6031 H   0  0  0  0  0  0  0  0  0  0  0  0
   61.0750   29.6730   48.5980 H   0  0  0  0  0  0  0  0  0  0  0  0
   62.3971   30.8807   50.0012 H   0  0  0  0  0  0  0  0  0  0  0  0
   63.1437   30.6138   48.3115 H   0  0  0  0  0  0  0  0  0  0  0  0
   63.5591   32.8336   49.5772 H   0  0  0  0  0  0  0  0  0  0  0  0
   63.1124   32.7584   47.7714 H   0  0  0  0  0  0  0  0  0  0  0  0
   61.3537   33.6559   50.0528 H   0  0  0  0  0  0  0  0  0  0  0  0
   62.1103   34.6545   48.7169 H   0  0  0  0  0  0  0  0  0  0  0  0
   59.6691   35.8047   46.9268 H   0  0  0  0  0  0  0  0  0  0  0  0
   58.6671   35.4838   44.2439 H   0  0  0  0  0  0  0  0  0  0  0  0
   59.4197   34.1372   44.0392 H   0  0  0  0  0  0  0  0  0  0  0  0
   57.1087   34.7547   46.2155 H   0  0  0  0  0  0  0  0  0  0  0  0
   57.5902   33.2818   46.3535 H   0  0  0  0  0  0  0  0  0  0  0  0
   58.8683   33.1097   49.4170 H   0  0  0  0  0  0  0  0  0  0  0  0
   58.7245   32.4482   47.7333 H   0  0  0  0  0  0  0  0  0  0  0  0
   60.1368   31.3262   50.1419 H   0  0  0  0  0  0  0  0  0  0  0  0
   59.0766   30.5333   48.8560 H   0  0  0  0  0  0  0  0  0  0  0  0
   59.1785   32.2998   45.5174 H   0  0  0  0  0  0  0  0  0  0  0  0
  1  2  1  0
  2  3  1  0
  3  4  2  0
  4  5  1  0
  5  6  2  0
  6  7  1  0
  7  8  1  0
  8  9  1  0
  9 10  1  0
 10 11  1  0
 11 12  1  0
 12 13  1  0
 13 14  2  0
 13 15  1  0
 15 16  1  0
 16 17  1  0
 12 18  1  0
 18 19  1  0
  6 20  1  0
 20 21  2  0
 21  3  1  0
 19  8  1  0
 17 15  1  0
  1 22  1  0
  1 23  1  0
  1 24  1  0
  4 25  1  0
  5 26  1  0
  7 27  1  0
  7 28  1  0
  8 29  1  6
  9 30  1  0
  9 31  1  0
 10 32  1  0
 10 33  1  0
 11 34  1  0
 11 35  1  0
 15 36  1  0
 16 37  1  0
 16 38  1  0
 17 39  1  0
 17 40  1  0
 18 41  1  0
 18 42  1  0
 19 43  1  0
 19 44  1  0
 20 45  1  0
M  CHG  1   8   1
M  END
>  <UniqueID>  (36) 
34

>  <SMILES>  (36) 
COc1ccc(C[N@H+]2CCCN(C(=O)C3CC3)CC2)cn1

>  <Energy>  (36) 
327.9424687922197

>  <Genealogy>  (36) 
COc1ccc(C[NH+]2CCCN(C(=O)C3CC3)CC2)cn1 (protonated)
COc1ccc(C[N@H+]2CCCN(C(=O)C3CC3)CC2)cn1 (chirality)
COc1ccc(C[N@H+]2CCCN(C(=O)C3CC3)CC2)cn1 (3D coordinates assigned)
COc1ccc(C[N@H+]2CCCN(C(=O)C3CC3)CC2)cn1 (nonaromatic ring conformer: 327.9424687922197 kcal/mol)

>  <smiles>  (36) 
COc1ccc(CN2CCCN(C(=O)C3CC3)CC2)cn1

>  <score_type>  (36) 
oracle

>  <origin>  (36) 
adg

>  <m_score__min__energy>  (36) 
-3.4199999999999999

>  <m_primary>  (36) 
energy

$$$$
36:0
     RDKit          3D

 43 45  0  0  0  0  0  0  0  0999 V2000
   58.4780   32.1050   48.2290 C   0  0  0  0  0  0  0  0  0  0  0  0
   58.6270   32.8720   46.9290 C   0  0  0  0  0  0  0  0  0  0  0  0
   58.2520   32.2390   45.7180 C   0  0  0  0  0  0  0  0  0  0  0  0
   57.7420   30.9250   45.7780 O   0  0  0  0  0  0  0  0  0  0  0  0
   57.6620   29.9950   44.7040 C   0  0  0  0  0  0  0  0  0  0  0  0
   56.2580   29.6550   44.4710 C   0  0  0  0  0  0  0  0  0  0  0  0
   55.1470   29.3880   44.2850 N   0  0  0  0  0  0  0  0  0  0  0  0
   58.4120   32.9450   44.5060 C   0  0  0  0  0  0  0  0  0  0  0  0
   58.0820   32.4440   43.4000 O   0  0  0  0  0  0  0  0  0  0  0  0
   58.9490   34.2270   44.5190 C   0  0  0  0  0  0  0  0  0  0  0  0
   59.3330   34.8040   45.7220 C   0  0  0  0  0  0  0  0  0  0  0  0
   59.1810   34.1390   46.9080 N   0  0  0  0  0  0  0  0  0  0  0  0
   59.6510   34.8120   48.1360 C   0  0  0  0  0  0  0  0  0  0  0  0
   60.9380   34.2040   48.6320 C   0  0  0  0  0  0  0  0  0  0  0  0
   61.9520   33.8470   47.7310 C   0  0  0  0  0  0  0  0  0  0  0  0
   63.1420   33.2800   48.1920 C   0  0  0  0  0  0  0  0  0  0  0  0
   63.3370   33.0470   49.5650 C   0  0  0  0  0  0  0  0  0  0  0  0
   64.6030   32.4460   50.0560 C   0  0  0  0  0  0  0  0  0  0  0  0
   65.8390   33.0720   49.8000 C   0  0  0  0  0  0  0  0  0  0  0  0
   67.0300   32.5050   50.2640 C   0  0  0  0  0  0  0  0  0  0  0  0
   67.0020   31.3090   50.9860 C   0  0  0  0  0  0  0  0  0  0  0  0
   65.7840   30.6790   51.2460 C   0  0  0  0  0  0  0  0  0  0  0  0
   64.5900   31.2420   50.7850 C   0  0  0  0  0  0  0  0  0  0  0  0
   62.3120   33.3910   50.4650 C   0  0  0  0  0  0  0  0  0  0  0  0
   61.1220   33.9600   50.0020 C   0  0  0  0  0  0  0  0  0  0  0  0
   58.6115   32.7922   49.0775 H   0  0  0  0  0  0  0  0  0  0  0  0
   57.4756   31.6546   48.2761 H   0  0  0  0  0  0  0  0  0  0  0  0
   59.2389   31.3120   48.2761 H   0  0  0  0  0  0  0  0  0  0  0  0
   58.0883   30.4441   43.7949 H   0  0  0  0  0  0  0  0  0  0  0  0
   58.2272   29.0859   44.9571 H   0  0  0  0  0  0  0  0  0  0  0  0
   59.0695   34.7834   43.5778 H   0  0  0  0  0  0  0  0  0  0  0  0
   59.7675   35.8145   45.7216 H   0  0  0  0  0  0  0  0  0  0  0  0
   59.8174   35.8777   47.9199 H   0  0  0  0  0  0  0  0  0  0  0  0
   58.8846   34.6895   48.9155 H   0  0  0  0  0  0  0  0  0  0  0  0
   61.8088   34.0149   46.6534 H   0  0  0  0  0  0  0  0  0  0  0  0
   63.9330   33.0136   47.4755 H   0  0  0  0  0  0  0  0  0  0  0  0
   65.8673   34.0131   49.2313 H   0  0  0  0  0  0  0  0  0  0  0  0
   67.9904   33.0012   50.0603 H   0  0  0  0  0  0  0  0  0  0  0  0
   67.9400   30.8640   51.3495 H   0  0  0  0  0  0  0  0  0  0  0  0
   65.7633   29.7377   51.8147 H   0  0  0  0  0  0  0  0  0  0  0  0
   63.6335   30.7403   50.9936 H   0  0  0  0  0  0  0  0  0  0  0  0
   62.4480   33.2108   51.5416 H   0  0  0  0  0  0  0  0  0  0  0  0
   60.3253   34.2180   50.7153 H   0  0  0  0  0  0  0  0  0  0  0  0
  1  2  1  0
  2  3  2  0
  3  4  1  0
  4  5  1  0
  5  6  1  0
  6  7  3  0
  3  8  1  0
  8  9  2  0
  8 10  1  0
 10 11  2  0
 11 12  1  0
 12 13  1  0
 13 14  1  0
 14 15  2  0
 15 16  1  0
 16 17  2  0
 17 18  1  0
 18 19  2  0
 19 20  1  0
 20 21  2  0
 21 22  1  0
 22 23  2  0
 17 24  1  0
 24 25  2  0
 12  2  1  0
 25 14  1  0
 23 18  1  0
  1 26  1  0
  1 27  1  0
  1 28  1  0
  5 29  1  0
  5 30  1  0
 10 31  1  0
 11 32  1  0
 13 33  1  0
 13 34  1  0
 15 35  1  0
 16 36  1  0
 19 37  1  0
 20 38  1  0
 21 39  1  0
 22 40  1  0
 23 41  1  0
 24 42  1  0
 25 43  1  0
M  END
>  <UniqueID>  (37) 
35

>  <SMILES>  (37) 
Cc1c(OCC#N)c(=O)ccn1Cc1ccc(-c2ccccc2)cc1

>  <Energy>  (37) 
55.94016486141409

>  <Genealogy>  (37) 
Cc1c(OCC#N)c(=O)ccn1Cc1ccc(-c2ccccc2)cc1 (3D coordinates assigned)
Cc1c(OCC#N)c(=O)ccn1Cc1ccc(-c2ccccc2)cc1 (optimized conformer: 55.94016486141409 kcal/mol)

>  <smiles>  (37) 
Cc1c(OCC#N)c(=O)ccn1Cc1ccc(-c2ccccc2)cc1

>  <score_type>  (37) 
oracle

>  <origin>  (37) 
adg

>  <m_score__min__energy>  (37) 
-7.46

>  <m_primary>  (37) 
energy

$$$$
37:0
     RDKit          3D

 75 80  0  0  0  0  0  0  0  0999 V2000
   57.8310   30.9440   50.9050 C   0  0  0  0  0  0  0  0  0  0  0  0
   59.1230   30.2800   51.4100 C   0  0  2  0  0  0  0  0  0  0  0  0
   59.9390   31.2530   52.3070 C   0  0  0  0  0  0  0  0  0  0  0  0
   61.3490   31.0800   52.2290 O   0  0  0  0  0  0  0  0  0  0  0  0
   61.6900   29.7150   52.1190 C   0  0  0  0  0  0  0  0  0  0  0  0
   61.3000   29.2050   50.7290 C   0  0  0  0  0  0  0  0  0  0  0  0
   59.9860   29.7300   50.3430 N   0  0  0  0  0  0  0  0  0  0  0  0
   59.5630   29.5810   48.9750 C   0  0  0  0  0  0  0  0  0  0  0  0
   59.3590   28.3390   48.4600 N   0  0  0  0  0  0  0  0  0  0  0  0
   58.9270   28.1710   47.1880 C   0  0  0  0  0  0  0  0  0  0  0  0
   58.7350   26.9240   46.6870 N   0  0  0  0  0  0  0  0  0  0  0  0
   58.2830   26.7240   45.4170 C   0  0  0  0  0  0  0  0  0  0  0  0
   58.1120   25.3390   44.9100 C   0  0  0  0  0  0  0  0  0  0  0  0
   57.1830   25.0800   43.8860 C   0  0  0  0  0  0  0  0  0  0  0  0
   57.0020   23.7820   43.4010 C   0  0  0  0  0  0  0  0  0  0  0  0
   57.7580   22.7200   43.9170 C   0  0  0  0  0  0  0  0  0  0  0  0
   57.5270   21.3190   43.4250 C   0  0  0  0  0  0  0  0  0  0  0  0
   56.1050   20.9780   43.5650 N   0  0  0  0  0  0  0  0  0  0  0  0
   55.7870   20.4920   44.9160 C   0  0  0  0  0  0  0  0  0  0  0  0
   55.7380   21.6120   45.9270 C   0  0  0  0  0  0  0  0  0  0  0  0
   56.5360   21.5590   47.0830 C   0  0  0  0  0  0  0  0  0  0  0  0
   56.4720   22.5850   48.0300 C   0  0  0  0  0  0  0  0  0  0  0  0
   55.6090   23.6660   47.8350 C   0  0  0  0  0  0  0  0  0  0  0  0
   54.8090   23.7240   46.6910 C   0  0  0  0  0  0  0  0  0  0  0  0
   54.8700   22.7010   45.7400 C   0  0  0  0  0  0  0  0  0  0  0  0
   58.6860   22.9710   44.9380 C   0  0  0  0  0  0  0  0  0  0  0  0
   58.8690   24.2690   45.4240 C   0  0  0  0  0  0  0  0  0  0  0  0
   58.0140   27.8500   44.6150 C   0  0  0  0  0  0  0  0  0  0  0  0
   58.2090   29.0970   45.1160 N   0  0  0  0  0  0  0  0  0  0  0  0
   58.6650   29.2860   46.3810 C   0  0  0  0  0  0  0  0  0  0  0  0
   58.8700   30.5670   46.9200 C   0  0  0  0  0  0  0  0  0  0  0  0
   58.6070   31.7540   46.1480 N   0  0  0  0  0  0  0  0  0  0  0  0
   57.4860   31.7980   45.2050 C   0  0  0  0  0  0  0  0  0  0  0  0
   57.8250   32.7250   44.0360 C   0  0  0  0  0  0  0  0  0  0  0  0
   58.2560   33.9870   44.5070 O   0  0  0  0  0  0  0  0  0  0  0  0
   59.4850   33.8460   45.1940 C   0  0  0  0  0  0  0  0  0  0  0  0
   59.3170   32.9990   46.4700 C   0  0  1  0  0  0  0  0  0  0  0  0
   58.5610   33.7690   47.5560 C   0  0  0  0  0  0  0  0  0  0  0  0
   59.3080   30.6830   48.2070 N   0  0  0  0  0  0  0  0  0  0  0  0
   57.2201   31.2580   51.7642 H   0  0  0  0  0  0  0  0  0  0  0  0
   58.0849   31.8233   50.2948 H   0  0  0  0  0  0  0  0  0  0  0  0
   57.2639   30.2257   50.2948 H   0  0  0  0  0  0  0  0  0  0  0  0
   58.7856   29.4183   52.0047 H   0  0  0  0  0  0  0  0  0  0  0  0
   59.7012   32.2830   52.0027 H   0  0  0  0  0  0  0  0  0  0  0  0
   59.6528   31.0367   53.3469 H   0  0  0  0  0  0  0  0  0  0  0  0
   62.7738   29.5944   52.2636 H   0  0  0  0  0  0  0  0  0  0  0  0
   61.1527   29.1386   52.8865 H   0  0  0  0  0  0  0  0  0  0  0  0
   62.0518   29.5356   49.9973 H   0  0  0  0  0  0  0  0  0  0  0  0
   61.2531   28.1062   50.7518 H   0  0  0  0  0  0  0  0  0  0  0  0
   56.5935   25.9069   43.4631 H   0  0  0  0  0  0  0  0  0  0  0  0
   56.2619   23.5923   42.6096 H   0  0  0  0  0  0  0  0  0  0  0  0
   57.8180   21.2497   42.3665 H   0  0  0  0  0  0  0  0  0  0  0  0
   58.1319   20.6179   44.0188 H   0  0  0  0  0  0  0  0  0  0  0  0
   55.5280   21.8300   43.3610 H   0  0  0  0  0  0  0  0  0  0  0  0
   54.8068   19.9933   44.8917 H   0  0  0  0  0  0  0  0  0  0  0  0
   56.5823   19.7959   45.2208 H   0  0  0  0  0  0  0  0  0  0  0  0
   57.2132   20.7071   47.2429 H   0  0  0  0  0  0  0  0  0  0  0  0
   57.1023   22.5412   48.9304 H   0  0  0  0  0  0  0  0  0  0  0  0
   55.5593   24.4717   48.5822 H   0  0  0  0  0  0  0  0  0  0  0  0
   54.1301   24.5759   46.5383 H   0  0  0  0  0  0  0  0  0  0  0  0
   54.2362   22.7488   44.8422 H   0  0  0  0  0  0  0  0  0  0  0  0
   59.2734   22.1417   45.3590 H   0  0  0  0  0  0  0  0  0  0  0  0
   59.6106   24.4559   46.2146 H   0  0  0  0  0  0  0  0  0  0  0  0
   57.6472   27.7198   43.5862 H   0  0  0  0  0  0  0  0  0  0  0  0
   57.2910   30.7852   44.8227 H   0  0  0  0  0  0  0  0  0  0  0  0
   56.5927   32.1787   45.7218 H   0  0  0  0  0  0  0  0  0  0  0  0
   58.6270   32.2706   43.4357 H   0  0  0  0  0  0  0  0  0  0  0  0
   56.9224   32.8658   43.4233 H   0  0  0  0  0  0  0  0  0  0  0  0
   60.2123   33.3550   44.5308 H   0  0  0  0  0  0  0  0  0  0  0  0
   59.8381   34.8465   45.4844 H   0  0  0  0  0  0  0  0  0  0  0  0
   60.3180   32.7624   46.8598 H   0  0  0  0  0  0  0  0  0  0  0  0
   58.8953   33.4285   48.5471 H   0  0  0  0  0  0  0  0  0  0  0  0
   58.7631   34.8451   47.4506 H   0  0  0  0  0  0  0  0  0  0  0  0
   57.4814   33.5867   47.4506 H   0  0  0  0  0  0  0  0  0  0  0  0
   59.4790   31.6350   48.6000 H   0  0  0  0  0  0  0  0  0  0  0  0
  1  2  1  0
  2  3  1  0
  3  4  1  0
  4  5  1  0
  5  6  1  0
  6  7  1  0
  7  8  1  0
  8  9  2  0
  9 10  1  0
 10 11  2  0
 11 12  1  0
 12 13  1  0
 13 14  2  0
 14 15  1  0
 15 16  2  0
 16 17  1  0
 17 18  1  0
 18 19  1  0
 19 20  1  0
 20 21  2  0
 21 22  1  0
 22 23  2  0
 23 24  1  0
 24 25  2  0
 16 26  1  0
 26 27  2  0
 12 28  2  0
 28 29  1  0
 29 30  2  0
 30 31  1  0
 31 32  1  0
 32 33  1  0
 33 34  1  0
 34 35  1  0
 35 36  1  0
 36 37  1  0
 37 38  1  0
 31 39  2  0
  7  2  1  0
 39  8  1  0
 30 10  1  0
 37 32  1  0
 27 13  1  0
 25 20  1  0
  1 40  1  0
  1 41  1  0
  1 42  1  0
  2 43  1  1
  3 44  1  0
  3 45  1  0
  5 46  1  0
  5 47  1  0
  6 48  1  0
  6 49  1  0
 14 50  1  0
 15 51  1  0
 17 52  1  0
 17 53  1  0
 18 54  1  0
 19 55  1  0
 19 56  1  0
 21 57  1  0
 22 58  1  0
 23 59  1  0
 24 60  1  0
 25 61  1  0
 26 62  1  0
 27 63  1  0
 28 64  1  0
 33 65  1  0
 33 66  1  0
 34 67  1  0
 34 68  1  0
 36 69  1  0
 36 70  1  0
 37 71  1  1
 38 72  1  0
 38 73  1  0
 38 74  1  0
 39 75  1  0
M  CHG  1  39   1
M  END
>  <UniqueID>  (38) 
36

>  <SMILES>  (38) 
C[C@@H]1COCCN1c1nc2nc(-c3ccc(CNCc4ccccc4)cc3)cnc2c(N2CCOC[C@H]2C)[nH+]1

>  <Energy>  (38) 
105.41907714663728

>  <Genealogy>  (38) 
CC1COCCN1c1nc2nc(-c3ccc(CNCc4ccccc4)cc3)cnc2c(N2CCOCC2C)[nH+]1 (protonated)
C[C@@H]1COCCN1c1nc2nc(-c3ccc(CNCc4ccccc4)cc3)cnc2c(N2CCOC[C@H]2C)[nH+]1 (chirality)
C[C@@H]1COCCN1c1nc2nc(-c3ccc(CNCc4ccccc4)cc3)cnc2c(N2CCOC[C@H]2C)[nH+]1 (3D coordinates assigned)
C[C@@H]1COCCN1c1nc2nc(-c3ccc(CNCc4ccccc4)cc3)cnc2c(N2CCOC[C@H]2C)[nH+]1 (nonaromatic ring conformer: 105.41907714663728 kcal/mol)

>  <smiles>  (38) 
CC1COCCN1c1nc(N2CCOCC2C)c2ncc(-c3ccc(CNCc4ccccc4)cc3)nc2n1

>  <score_type>  (38) 
oracle

>  <origin>  (38) 
adg

>  <m_score__min__energy>  (38) 
-8.0399999999999991

>  <m_primary>  (38) 
energy

$$$$
38:0
     RDKit          3D

 54 56  0  0  0  0  0  0  0  0999 V2000
   57.2330   31.2090   42.6420 C   0  0  0  0  0  0  0  0  0  0  0  0
   57.1960   30.9740   44.1470 C   0  0  0  0  0  0  0  0  0  0  0  0
   57.7410   32.1720   44.8880 C   0  0  0  0  0  0  0  0  0  0  0  0
   57.7970   33.4130   44.2350 C   0  0  0  0  0  0  0  0  0  0  0  0
   58.3310   34.5280   44.8800 C   0  0  0  0  0  0  0  0  0  0  0  0
   58.8370   34.4140   46.1740 C   0  0  0  0  0  0  0  0  0  0  0  0
   58.8200   33.1790   46.8380 C   0  0  0  0  0  0  0  0  0  0  0  0
   59.3630   33.0870   48.2380 C   0  0  0  0  0  0  0  0  0  0  0  0
   58.2480   32.0550   46.2030 C   0  0  0  0  0  0  0  0  0  0  0  0
   58.1670   30.8050   46.8930 N   0  0  0  0  0  0  0  0  0  0  0  0
   59.4850   29.6830   46.8590 S   0  0  0  0  0  0  0  0  0  0  0  0
   60.5760   30.2320   45.9840 O   0  0  0  0  0  0  0  0  0  0  0  0
   60.0280   29.4900   48.2480 O   0  0  0  0  0  0  0  0  0  0  0  0
   58.9390   28.1360   46.2130 C   0  0  0  0  0  0  0  0  0  0  0  0
   58.7780   27.0410   47.0710 C   0  0  0  0  0  0  0  0  0  0  0  0
   58.2830   25.8290   46.5820 C   0  0  0  0  0  0  0  0  0  0  0  0
   57.9430   25.6930   45.2240 C   0  0  0  0  0  0  0  0  0  0  0  0
   57.4080   24.4070   44.7030 C   0  0  0  0  0  0  0  0  0  0  0  0
   57.0090   24.2920   43.3590 C   0  0  0  0  0  0  0  0  0  0  0  0
   56.5130   23.0810   42.8700 C   0  0  0  0  0  0  0  0  0  0  0  0
   56.4030   21.9740   43.7130 C   0  0  0  0  0  0  0  0  0  0  0  0
   56.7860   22.0710   45.0590 C   0  0  0  0  0  0  0  0  0  0  0  0
   56.6870   20.8650   45.9640 C   0  0  0  0  0  0  0  0  0  0  0  0
   57.7200   19.8620   45.6550 N   0  0  0  0  0  0  0  0  0  0  0  0
   57.8940   18.8940   46.7440 C   0  0  0  0  0  0  0  0  0  0  0  0
   57.2930   23.2870   45.5470 C   0  0  0  0  0  0  0  0  0  0  0  0
   58.1140   26.7950   44.3670 C   0  0  0  0  0  0  0  0  0  0  0  0
   58.6060   28.0080   44.8590 C   0  0  0  0  0  0  0  0  0  0  0  0
   57.4012   32.2775   42.4418 H   0  0  0  0  0  0  0  0  0  0  0  0
   58.0495   30.6199   42.1989 H   0  0  0  0  0  0  0  0  0  0  0  0
   56.2750   30.8993   42.1989 H   0  0  0  0  0  0  0  0  0  0  0  0
   56.1561   30.7985   44.4596 H   0  0  0  0  0  0  0  0  0  0  0  0
   57.8186   30.0986   44.3836 H   0  0  0  0  0  0  0  0  0  0  0  0
   57.4169   33.5068   43.2070 H   0  0  0  0  0  0  0  0  0  0  0  0
   58.3531   35.5004   44.3663 H   0  0  0  0  0  0  0  0  0  0  0  0
   59.2526   35.2992   46.6778 H   0  0  0  0  0  0  0  0  0  0  0  0
   58.5438   33.2258   48.9589 H   0  0  0  0  0  0  0  0  0  0  0  0
   59.8211   32.0984   48.3894 H   0  0  0  0  0  0  0  0  0  0  0  0
   60.1211   33.8695   48.3894 H   0  0  0  0  0  0  0  0  0  0  0  0
   59.0423   27.1353   48.1346 H   0  0  0  0  0  0  0  0  0  0  0  0
   58.1584   24.9751   47.2642 H   0  0  0  0  0  0  0  0  0  0  0  0
   57.0880   25.1608   42.6890 H   0  0  0  0  0  0  0  0  0  0  0  0
   56.2079   22.9996   41.8163 H   0  0  0  0  0  0  0  0  0  0  0  0
   56.0148   21.0225   43.3207 H   0  0  0  0  0  0  0  0  0  0  0  0
   56.8091   21.1919   47.0072 H   0  0  0  0  0  0  0  0  0  0  0  0
   55.7023   20.4005   45.8074 H   0  0  0  0  0  0  0  0  0  0  0  0
   58.6360   20.3300   45.4580 H   0  0  0  0  0  0  0  0  0  0  0  0
   57.4270   19.3390   44.7960 H   0  0  0  0  0  0  0  0  0  0  0  0
   57.8013   19.4096   47.7112 H   0  0  0  0  0  0  0  0  0  0  0  0
   57.1216   18.1145   46.6686 H   0  0  0  0  0  0  0  0  0  0  0  0
   58.8895   18.4323   46.6686 H   0  0  0  0  0  0  0  0  0  0  0  0
   57.6032   23.3643   46.5995 H   0  0  0  0  0  0  0  0  0  0  0  0
   57.8587   26.7020   43.3011 H   0  0  0  0  0  0  0  0  0  0  0  0
   58.7318   28.8643   44.1802 H   0  0  0  0  0  0  0  0  0  0  0  0
  1  2  1  0
  2  3  1  0
  3  4  2  0
  4  5  1  0
  5  6  2  0
  6  7  1  0
  7  8  1  0
  7  9  2  0
  9 10  1  0
 10 11  1  0
 11 12  2  0
 11 13  2  0
 11 14  1  0
 14 15  2  0
 15 16  1  0
 16 17  2  0
 17 18  1  0
 18 19  2  0
 19 20  1  0
 20 21  2  0
 21 22  1  0
 22 23  1  0
 23 24  1  0
 24 25  1  0
 22 26  2  0
 17 27  1  0
 27 28  2  0
  9  3  1  0
 28 14  1  0
 26 18  1  0
  1 29  1  0
  1 30  1  0
  1 31  1  0
  2 32  1  0
  2 33  1  0
  4 34  1  0
  5 35  1  0
  6 36  1  0
  8 37  1  0
  8 38  1  0
  8 39  1  0
 15 40  1  0
 16 41  1  0
 19 42  1  0
 20 43  1  0
 21 44  1  0
 23 45  1  0
 23 46  1  0
 24 47  1  0
 24 48  1  0
 25 49  1  0
 25 50  1  0
 25 51  1  0
 26 52  1  0
 27 53  1  0
 28 54  1  0
M  CHG  2  10  -1  24   1
M  END
>  <UniqueID>  (39) 
37

>  <SMILES>  (39) 
CCc1cccc(C)c1[N-]S(=O)(=O)c1ccc(-c2cccc(C[NH2+]C)c2)cc1

>  <Energy>  (39) 
64.99941465292989

>  <Genealogy>  (39) 
CCc1cccc(C)c1[N-]S(=O)(=O)c1ccc(-c2cccc(C[NH2+]C)c2)cc1 (protonated)
CCc1cccc(C)c1[N-]S(=O)(=O)c1ccc(-c2cccc(C[NH2+]C)c2)cc1 (3D coordinates assigned)
CCc1cccc(C)c1[N-]S(=O)(=O)c1ccc(-c2cccc(C[NH2+]C)c2)cc1 (optimized conformer: 64.99941465292989 kcal/mol)

>  <smiles>  (39) 
CCc1cccc(C)c1NS(=O)(=O)c1ccc(-c2cccc(CNC)c2)cc1

>  <score_type>  (39) 
oracle

>  <origin>  (39) 
adg

>  <m_score__min__energy>  (39) 
-9.25

>  <m_primary>  (39) 
energy

$$$$
39:0
     RDKit          3D

 47 50  0  0  0  0  0  0  0  0999 V2000
   59.6459   30.1450   43.9378 H   0  0  0  0  0  0  0  0  0  0  0  0
   58.7450   30.4070   44.5120 C   0  0  0  0  0  0  0  0  0  0  0  0
   57.9280   29.4150   44.8930 C   0  0  0  0  0  0  0  0  0  0  0  0
   56.4650   29.4570   44.8570 C   0  0  0  0  0  0  0  0  0  0  0  0
   55.7790   30.4500   44.4980 O   0  0  0  0  0  0  0  0  0  0  0  0
   55.8840   28.2220   45.2680 N   0  0  0  0  0  0  0  0  0  0  0  0
   57.0160   27.4120   45.5770 C   0  0  0  0  0  0  0  0  0  0  0  0
   56.9640   26.1050   46.0570 C   0  0  0  0  0  0  0  0  0  0  0  0
   55.9989   25.5969   46.2000 H   0  0  0  0  0  0  0  0  0  0  0  0
   58.1690   25.4510   46.3540 C   0  0  0  0  0  0  0  0  0  0  0  0
   58.1528   24.4149   46.7231 H   0  0  0  0  0  0  0  0  0  0  0  0
   59.3990   26.1140   46.1820 C   0  0  0  0  0  0  0  0  0  0  0  0
   60.5560   25.4780   46.4910 F   0  0  0  0  0  0  0  0  0  0  0  0
   59.4350   27.4340   45.7030 C   0  0  0  0  0  0  0  0  0  0  0  0
   60.3921   27.9621   45.5806 H   0  0  0  0  0  0  0  0  0  0  0  0
   58.2250   28.0620   45.3850 C   0  0  0  0  0  0  0  0  0  0  0  0
   58.5050   31.8320   44.8190 C   0  0  0  0  0  0  0  0  0  0  0  0
   57.9130   32.6570   43.8450 C   0  0  0  0  0  0  0  0  0  0  0  0
   57.4280   32.0240   42.2770 Cl  0  0  0  0  0  0  0  0  0  0  0  0
   57.6860   33.9690   44.1090 N   0  0  0  0  0  0  0  0  0  0  0  0
   58.0180   34.5370   45.2940 C   0  0  0  0  0  0  0  0  0  0  0  0
   57.8089   35.6027   45.4688 H   0  0  0  0  0  0  0  0  0  0  0  0
   58.6260   33.7720   46.2960 C   0  0  0  0  0  0  0  0  0  0  0  0
   58.9750   34.3530   47.5220 C   0  0  0  0  0  0  0  0  0  0  0  0
   58.7666   35.4181   47.7015 H   0  0  0  0  0  0  0  0  0  0  0  0
   59.5850   33.5890   48.5160 C   0  0  0  0  0  0  0  0  0  0  0  0
   59.8504   34.0532   49.4773 H   0  0  0  0  0  0  0  0  0  0  0  0
   59.8630   32.2270   48.2960 C   0  0  0  0  0  0  0  0  0  0  0  0
   60.4770   31.4120   49.2620 O   0  0  0  0  0  0  0  0  0  0  0  0
   61.8810   31.1880   49.3890 C   0  0  0  0  0  0  0  0  0  0  0  0
   62.0638   30.1165   49.5580 H   0  0  0  0  0  0  0  0  0  0  0  0
   62.2616   31.7735   50.2389 H   0  0  0  0  0  0  0  0  0  0  0  0
   62.6120   31.6330   48.1050 C   0  0  0  0  0  0  0  0  0  0  0  0
   61.9658   31.4056   47.2443 H   0  0  0  0  0  0  0  0  0  0  0  0
   63.5659   31.0857   48.0798 H   0  0  0  0  0  0  0  0  0  0  0  0
   62.9490   33.0750   48.0640 N   0  0  0  0  0  0  0  0  0  0  0  0
   63.9180   33.4640   49.1010 C   0  0  0  0  0  0  0  0  0  0  0  0
   63.4812   33.2887   50.0952 H   0  0  0  0  0  0  0  0  0  0  0  0
   64.8331   32.8636   48.9915 H   0  0  0  0  0  0  0  0  0  0  0  0
   64.1639   34.5305   48.9915 H   0  0  0  0  0  0  0  0  0  0  0  0
   63.3820   33.5260   46.7330 C   0  0  0  0  0  0  0  0  0  0  0  0
   64.1401   34.3156   46.8421 H   0  0  0  0  0  0  0  0  0  0  0  0
   63.8128   32.6779   46.1807 H   0  0  0  0  0  0  0  0  0  0  0  0
   62.5170   33.9219   46.1807 H   0  0  0  0  0  0  0  0  0  0  0  0
   59.5140   31.6450   47.0720 C   0  0  0  0  0  0  0  0  0  0  0  0
   59.7326   30.5813   46.8966 H   0  0  0  0  0  0  0  0  0  0  0  0
   58.8860   32.4010   46.0590 C   0  0  0  0  0  0  0  0  0  0  0  0
  1  2  1  0
  2  3  2  0
  3  4  1  0
  4  5  2  0
  4  6  1  0
  6  7  1  0
  7  8  2  0
  8  9  1  0
  8 10  1  0
 10 11  1  0
 10 12  2  0
 12 13  1  0
 12 14  1  0
 14 15  1  0
 14 16  2  0
  2 17  1  0
 17 18  2  0
 18 19  1  0
 18 20  1  0
 20 21  2  0
 21 22  1  0
 21 23  1  0
 23 24  2  0
 24 25  1  0
 24 26  1  0
 26 27  1  0
 26 28  2  0
 28 29  1  0
 29 30  1  0
 30 31  1  0
 30 32  1  0
 30 33  1  0
 33 34  1  0
 33 35  1  0
 33 36  1  0
 36 37  1  0
 37 38  1  0
 37 39  1  0
 37 40  1  0
 36 41  1  0
 41 42  1  0
 41 43  1  0
 41 44  1  0
 28 45  1  0
 45 46  1  0
 45 47  2  0
 16  3  1  0
 47 17  1  0
 16  7  1  0
 47 23  1  0
M  CHG  1   6  -1
M  END
>  <UniqueID>  (40) 
38

>  <SMILES>  (40) 
CN(C)CCOc1ccc2cnc(Cl)c(/C=C3/C(=O)[N-]c4ccc(F)cc43)c2c1

>  <Energy>  (40) 
96.01393512533107

>  <Genealogy>  (40) 
CN(C)CCOc1ccc2cnc(Cl)c(C=C3C(=O)[N-]c4ccc(F)cc43)c2c1 (protonated)
CN(C)CCOc1ccc2cnc(Cl)c(/C=C3/C(=O)[N-]c4ccc(F)cc43)c2c1 (cis-trans isomerization)
CN(C)CCOc1ccc2cnc(Cl)c(/C=C3/C(=O)[N-]c4ccc(F)cc43)c2c1 (3D coordinates assigned)
CN(C)CCOc1ccc2cnc(Cl)c(/C=C3/C(=O)[N-]c4ccc(F)cc43)c2c1 (nonaromatic ring conformer: 96.01393512533107 kcal/mol)

>  <smiles>  (40) 
CN(C)CCOc1ccc2cnc(Cl)c(C=C3C(=O)Nc4ccc(F)cc43)c2c1

>  <score_type>  (40) 
oracle

>  <origin>  (40) 
adg

>  <m_score__min__energy>  (40) 
-11.369999999999999

>  <m_primary>  (40) 
energy

$$$$
40:0
     RDKit          3D

 48 51  0  0  0  0  0  0  0  0999 V2000
   59.4550   23.8780   45.6290 C   0  0  0  0  0  0  0  0  0  0  0  0
   58.2570   23.3510   44.8950 C   0  0  0  0  0  0  0  0  0  0  0  0
   58.2680   22.2040   44.1920 N   0  0  0  0  0  0  0  0  0  0  0  0
   57.0430   21.9680   43.7510 N   0  0  0  0  0  0  0  0  0  0  0  0
   56.6530   20.7800   43.0000 C   0  0  0  0  0  0  0  0  0  0  0  0
   56.2190   22.9490   44.1680 C   0  0  0  0  0  0  0  0  0  0  0  0
   56.9640   23.8680   44.8850 C   0  0  0  0  0  0  0  0  0  0  0  0
   56.4350   25.0840   45.5260 C   0  0  0  0  0  0  0  0  0  0  0  0
   55.2650   25.0580   46.0050 O   0  0  0  0  0  0  0  0  0  0  0  0
   57.2120   26.2900   45.6150 N   0  0  0  0  0  0  0  0  0  0  0  0
   57.6340   26.7910   46.9290 C   0  0  0  0  0  0  0  0  0  0  0  0
   59.1310   27.1560   46.9540 C   0  0  0  0  0  0  0  0  0  0  0  0
   59.7400   27.4180   45.5640 C   0  0  0  0  0  0  0  0  0  0  0  0
   58.7300   27.9850   44.5570 C   0  0  2  0  0  0  0  0  0  0  0  0
   58.3100   29.3870   44.9170 C   0  0  0  0  0  0  0  0  0  0  0  0
   59.1480   30.3840   45.2660 N   0  0  0  0  0  0  0  0  0  0  0  0
   58.2900   31.4130   45.4410 C   0  0  0  0  0  0  0  0  0  0  0  0
   58.7090   32.7760   45.8330 C   0  0  0  0  0  0  0  0  0  0  0  0
   58.8410   33.7880   44.8650 C   0  0  0  0  0  0  0  0  0  0  0  0
   59.2680   35.0690   45.2340 C   0  0  0  0  0  0  0  0  0  0  0  0
   59.5590   35.3560   46.5660 C   0  0  0  0  0  0  0  0  0  0  0  0
   59.4290   34.3590   47.5350 C   0  0  0  0  0  0  0  0  0  0  0  0
   59.0010   33.0750   47.1790 C   0  0  0  0  0  0  0  0  0  0  0  0
   57.0100   31.0550   45.2080 N   0  0  0  0  0  0  0  0  0  0  0  0
   57.0670   29.7980   44.8870 O   0  0  0  0  0  0  0  0  0  0  0  0
   57.5390   27.0180   44.3800 C   0  0  0  0  0  0  0  0  0  0  0  0
   59.2834   23.8025   46.7129 H   0  0  0  0  0  0  0  0  0  0  0  0
   60.3416   23.2868   45.3561 H   0  0  0  0  0  0  0  0  0  0  0  0
   59.6183   24.9310   45.3561 H   0  0  0  0  0  0  0  0  0  0  0  0
   59.0880   21.5700   44.0690 H   0  0  0  0  0  0  0  0  0  0  0  0
   56.3884   19.9740   43.7003 H   0  0  0  0  0  0  0  0  0  0  0  0
   55.7849   21.0152   42.3667 H   0  0  0  0  0  0  0  0  0  0  0  0
   57.4916   20.4549   42.3667 H   0  0  0  0  0  0  0  0  0  0  0  0
   55.1383   23.0089   43.9718 H   0  0  0  0  0  0  0  0  0  0  0  0
   57.0456   27.6879   47.1728 H   0  0  0  0  0  0  0  0  0  0  0  0
   57.4665   25.9926   47.6669 H   0  0  0  0  0  0  0  0  0  0  0  0
   59.2545   28.0646   47.5616 H   0  0  0  0  0  0  0  0  0  0  0  0
   59.6611   26.2880   47.3729 H   0  0  0  0  0  0  0  0  0  0  0  0
   60.5650   28.1372   45.6740 H   0  0  0  0  0  0  0  0  0  0  0  0
   60.0844   26.4501   45.1709 H   0  0  0  0  0  0  0  0  0  0  0  0
   59.2222   28.0671   43.5767 H   0  0  0  0  0  0  0  0  0  0  0  0
   58.6074   33.5715   43.8121 H   0  0  0  0  0  0  0  0  0  0  0  0
   59.3743   35.8524   44.4691 H   0  0  0  0  0  0  0  0  0  0  0  0
   59.8901   36.3648   46.8534 H   0  0  0  0  0  0  0  0  0  0  0  0
   59.6647   34.5844   48.5855 H   0  0  0  0  0  0  0  0  0  0  0  0
   58.8924   32.2984   47.9504 H   0  0  0  0  0  0  0  0  0  0  0  0
   56.6576   27.5982   44.0694 H   0  0  0  0  0  0  0  0  0  0  0  0
   57.8241   26.2745   43.6211 H   0  0  0  0  0  0  0  0  0  0  0  0
  1  2  1  0
  2  3  2  0
  3  4  1  0
  4  5  1  0
  4  6  1  0
  6  7  2  0
  7  8  1  0
  8  9  2  0
  8 10  1  0
 10 11  1  0
 11 12  1  0
 12 13  1  0
 13 14  1  0
 14 15  1  0
 15 16  2  0
 16 17  1  0
 17 18  1  0
 18 19  2  0
 19 20  1  0
 20 21  2  0
 21 22  1  0
 22 23  2  0
 17 24  2  0
 24 25  1  0
 14 26  1  0
  7  2  1  0
 26 10  1  0
 25 15  1  0
 23 18  1  0
  1 27  1  0
  1 28  1  0
  1 29  1  0
  3 30  1  0
  5 31  1  0
  5 32  1  0
  5 33  1  0
  6 34  1  0
 11 35  1  0
 11 36  1  0
 12 37  1  0
 12 38  1  0
 13 39  1  0
 13 40  1  0
 14 41  1  6
 19 42  1  0
 20 43  1  0
 21 44  1  0
 22 45  1  0
 23 46  1  0
 26 47  1  0
 26 48  1  0
M  CHG  1   3   1
M  END
>  <UniqueID>  (41) 
39

>  <SMILES>  (41) 
Cc1[nH+]n(C)cc1C(=O)N1CCC[C@H](c2nc(-c3ccccc3)no2)C1

>  <Energy>  (41) 
121.5333665439247

>  <Genealogy>  (41) 
Cc1[nH+]n(C)cc1C(=O)N1CCCC(c2nc(-c3ccccc3)no2)C1 (protonated)
Cc1[nH+]n(C)cc1C(=O)N1CCC[C@H](c2nc(-c3ccccc3)no2)C1 (chirality)
Cc1[nH+]n(C)cc1C(=O)N1CCC[C@H](c2nc(-c3ccccc3)no2)C1 (3D coordinates assigned)
Cc1[nH+]n(C)cc1C(=O)N1CCC[C@H](c2nc(-c3ccccc3)no2)C1 (nonaromatic ring conformer: 121.5333665439247 kcal/mol)

>  <smiles>  (41) 
Cc1nn(C)cc1C(=O)N1CCCC(c2nc(-c3ccccc3)no2)C1

>  <score_type>  (41) 
oracle

>  <origin>  (41) 
adg

>  <m_score__min__energy>  (41) 
-7.9699999999999998

>  <m_primary>  (41) 
energy

$$$$
41:0
     RDKit          3D

 51 54  0  0  0  0  0  0  0  0999 V2000
   58.1970   32.8610   44.0770 C   0  0  0  0  0  0  0  0  0  0  0  0
   57.3870   34.1880   45.0280 S   0  0  0  0  0  0  0  0  0  0  0  0
   57.6240   33.4160   46.6680 C   0  0  0  0  0  0  0  0  0  0  0  0
   59.1110   33.2140   46.9570 C   0  0  0  0  0  0  0  0  0  0  0  0
   59.3650   33.3290   48.3920 N   0  0  0  0  0  0  0  0  0  0  0  0
   59.5720   34.4610   49.0380 N   0  0  0  0  0  0  0  0  0  0  0  0
   59.7040   34.2190   50.3330 N   0  0  0  0  0  0  0  0  0  0  0  0
   59.5740   32.9160   50.5530 N   0  0  0  0  0  0  0  0  0  0  0  0
   59.3540   32.3700   49.3400 C   0  0  0  0  0  0  0  0  0  0  0  0
   59.1440   30.9000   49.1130 C   0  0  0  0  0  0  0  0  0  0  0  0
   60.2270   30.3570   48.2670 N   0  0  0  0  0  0  0  0  0  0  0  0
   61.5270   30.4280   48.9690 C   0  0  0  0  0  0  0  0  0  0  0  0
   62.2950   31.6350   48.5050 C   0  0  0  0  0  0  0  0  0  0  0  0
   62.1990   32.0880   47.1800 C   0  0  0  0  0  0  0  0  0  0  0  0
   62.9360   33.2020   46.7700 C   0  0  0  0  0  0  0  0  0  0  0  0
   63.7640   33.8510   47.6870 C   0  0  0  0  0  0  0  0  0  0  0  0
   63.8490   33.3980   48.9670 N   0  0  0  0  0  0  0  0  0  0  0  0
   63.1420   32.3170   49.3910 C   0  0  0  0  0  0  0  0  0  0  0  0
   59.9270   28.9710   47.8470 C   0  0  0  0  0  0  0  0  0  0  0  0
   59.1990   28.9770   46.5300 C   0  0  0  0  0  0  0  0  0  0  0  0
   59.7040   28.2480   45.4220 C   0  0  0  0  0  0  0  0  0  0  0  0
   59.0320   28.2750   44.1850 C   0  0  0  0  0  0  0  0  0  0  0  0
   57.8700   29.0340   44.0940 C   0  0  0  0  0  0  0  0  0  0  0  0
   57.3820   29.7320   45.1490 C   0  0  0  0  0  0  0  0  0  0  0  0
   58.0140   29.7320   46.3900 C   0  0  0  0  0  0  0  0  0  0  0  0
   56.2280   30.3900   44.7730 O   0  0  0  0  0  0  0  0  0  0  0  0
   55.9740   30.0850   43.3940 C   0  0  0  0  0  0  0  0  0  0  0  0
   57.0460   29.2180   43.0000 O   0  0  0  0  0  0  0  0  0  0  0  0
   58.6419   32.1321   44.7704 H   0  0  0  0  0  0  0  0  0  0  0  0
   57.4524   32.3570   43.4433 H   0  0  0  0  0  0  0  0  0  0  0  0
   58.9856   33.2929   43.4433 H   0  0  0  0  0  0  0  0  0  0  0  0
   57.1908   34.0682   47.4407 H   0  0  0  0  0  0  0  0  0  0  0  0
   57.1249   32.4357   46.6742 H   0  0  0  0  0  0  0  0  0  0  0  0
   59.4159   32.2148   46.6127 H   0  0  0  0  0  0  0  0  0  0  0  0
   59.6885   33.9855   46.4266 H   0  0  0  0  0  0  0  0  0  0  0  0
   59.6170   35.4080   48.6010 H   0  0  0  0  0  0  0  0  0  0  0  0
   59.1430   30.3788   50.0817 H   0  0  0  0  0  0  0  0  0  0  0  0
   58.1801   30.7482   48.6053 H   0  0  0  0  0  0  0  0  0  0  0  0
   61.3527   30.5012   50.0526 H   0  0  0  0  0  0  0  0  0  0  0  0
   62.1086   29.5214   48.7460 H   0  0  0  0  0  0  0  0  0  0  0  0
   61.5447   31.5669   46.4656 H   0  0  0  0  0  0  0  0  0  0  0  0
   62.8642   33.5642   45.7338 H   0  0  0  0  0  0  0  0  0  0  0  0
   64.3482   34.7292   47.3747 H   0  0  0  0  0  0  0  0  0  0  0  0
   63.2345   31.9759   50.4327 H   0  0  0  0  0  0  0  0  0  0  0  0
   60.8679   28.4112   47.7403 H   0  0  0  0  0  0  0  0  0  0  0  0
   59.2921   28.4932   48.6077 H   0  0  0  0  0  0  0  0  0  0  0  0
   60.6262   27.6582   45.5303 H   0  0  0  0  0  0  0  0  0  0  0  0
   59.4135   27.7142   43.3190 H   0  0  0  0  0  0  0  0  0  0  0  0
   57.6025   30.3028   47.2355 H   0  0  0  0  0  0  0  0  0  0  0  0
   55.0051   29.5762   43.2831 H   0  0  0  0  0  0  0  0  0  0  0  0
   55.9276   30.9917   42.7730 H   0  0  0  0  0  0  0  0  0  0  0  0
  1  2  1  0
  2  3  1  0
  3  4  1  0
  4  5  1  0
  5  6  1  0
  6  7  2  0
  7  8  1  0
  8  9  2  0
  9 10  1  0
 10 11  1  0
 11 12  1  0
 12 13  1  0
 13 14  2  0
 14 15  1  0
 15 16  2  0
 16 17  1  0
 17 18  2  0
 11 19  1  0
 19 20  1  0
 20 21  2  0
 21 22  1  0
 22 23  2  0
 23 24  1  0
 24 25  2  0
 24 26  1  0
 26 27  1  0
 27 28  1  0
  9  5  1  0
 18 13  1  0
 25 20  1  0
 28 23  1  0
  1 29  1  0
  1 30  1  0
  1 31  1  0
  3 32  1  0
  3 33  1  0
  4 34  1  0
  4 35  1  0
  6 36  1  0
 10 37  1  0
 10 38  1  0
 12 39  1  0
 12 40  1  0
 14 41  1  0
 15 42  1  0
 16 43  1  0
 18 44  1  0
 19 45  1  0
 19 46  1  0
 21 47  1  0
 22 48  1  0
 25 49  1  0
 27 50  1  0
 27 51  1  0
M  CHG  1   6   1
M  END
>  <UniqueID>  (42) 
40

>  <SMILES>  (42) 
CSCCn1[nH+]nnc1CN(Cc1cccnc1)Cc1ccc2c(c1)OCO2

>  <Energy>  (42) 
116.58512186644968

>  <Genealogy>  (42) 
CSCCn1[nH+]nnc1CN(Cc1cccnc1)Cc1ccc2c(c1)OCO2 (protonated)
CSCCn1[nH+]nnc1CN(Cc1cccnc1)Cc1ccc2c(c1)OCO2 (3D coordinates assigned)
CSCCn1[nH+]nnc1CN(Cc1cccnc1)Cc1ccc2c(c1)OCO2 (nonaromatic ring conformer: 116.58512186644968 kcal/mol)

>  <smiles>  (42) 
CSCCn1nnnc1CN(Cc1cccnc1)Cc1ccc2c(c1)OCO2

>  <score_type>  (42) 
oracle

>  <origin>  (42) 
adg

>  <m_score__min__energy>  (42) 
-6.7300000000000004

>  <m_primary>  (42) 
energy

$$$$
42:0
     RDKit          3D

 41 44  0  0  0  0  0  0  0  0999 V2000
   55.9690   19.6800   44.5700 C   0  0  0  0  0  0  0  0  0  0  0  0
   56.0130   20.7180   43.5960 O   0  0  0  0  0  0  0  0  0  0  0  0
   56.5410   21.9970   43.8270 C   0  0  0  0  0  0  0  0  0  0  0  0
   56.1430   23.0410   42.9850 C   0  0  0  0  0  0  0  0  0  0  0  0
   56.6420   24.3330   43.1710 C   0  0  0  0  0  0  0  0  0  0  0  0
   57.5510   24.6040   44.2080 C   0  0  0  0  0  0  0  0  0  0  0  0
   58.1020   25.9680   44.3760 C   0  0  0  0  0  0  0  0  0  0  0  0
   57.9390   26.9580   43.4660 N   0  0  0  0  0  0  0  0  0  0  0  0
   58.5760   28.0820   43.7890 N   0  0  0  0  0  0  0  0  0  0  0  0
   59.2540   28.0110   44.9550 C   0  0  0  0  0  0  0  0  0  0  0  0
   60.0830   29.1230   45.5140 C   0  0  0  0  0  0  0  0  0  0  0  0
   59.1990   29.9670   46.8680 S   0  0  0  0  0  0  0  0  0  0  0  0
   57.8280   30.5240   45.8470 C   0  0  0  0  0  0  0  0  0  0  0  0
   56.9440   29.6880   45.2750 N   0  0  0  0  0  0  0  0  0  0  0  0
   56.1520   30.4660   44.5480 N   0  0  0  0  0  0  0  0  0  0  0  0
   56.5310   31.7300   44.6610 N   0  0  0  0  0  0  0  0  0  0  0  0
   57.5680   31.7950   45.4770 N   0  0  0  0  0  0  0  0  0  0  0  0
   58.2670   33.0090   45.7990 C   0  0  0  0  0  0  0  0  0  0  0  0
   58.6460   33.8810   44.7650 C   0  0  0  0  0  0  0  0  0  0  0  0
   59.3360   35.0620   45.0520 C   0  0  0  0  0  0  0  0  0  0  0  0
   59.6440   35.3880   46.3740 C   0  0  0  0  0  0  0  0  0  0  0  0
   59.2390   34.5460   47.4130 C   0  0  0  0  0  0  0  0  0  0  0  0
   58.5410   33.3670   47.1320 C   0  0  0  0  0  0  0  0  0  0  0  0
   58.0860   32.6120   48.1620 F   0  0  0  0  0  0  0  0  0  0  0  0
   59.0780   26.4910   45.6530 S   0  0  0  0  0  0  0  0  0  0  0  0
   57.9490   23.5550   45.0540 C   0  0  0  0  0  0  0  0  0  0  0  0
   57.4500   22.2630   44.8670 C   0  0  0  0  0  0  0  0  0  0  0  0
   55.9877   20.1214   45.5774 H   0  0  0  0  0  0  0  0  0  0  0  0
   55.0453   19.0964   44.4425 H   0  0  0  0  0  0  0  0  0  0  0  0
   56.8400   19.0204   44.4425 H   0  0  0  0  0  0  0  0  0  0  0  0
   55.4314   22.8432   42.1698 H   0  0  0  0  0  0  0  0  0  0  0  0
   56.3209   25.1439   42.5007 H   0  0  0  0  0  0  0  0  0  0  0  0
   58.5550   28.9280   43.1770 H   0  0  0  0  0  0  0  0  0  0  0  0
   61.0268   28.7109   45.9004 H   0  0  0  0  0  0  0  0  0  0  0  0
   60.2840   29.8512   44.7144 H   0  0  0  0  0  0  0  0  0  0  0  0
   58.3981   33.6327   43.7225 H   0  0  0  0  0  0  0  0  0  0  0  0
   59.6366   35.7352   44.2356 H   0  0  0  0  0  0  0  0  0  0  0  0
   60.2052   36.3072   46.5977 H   0  0  0  0  0  0  0  0  0  0  0  0
   59.4699   34.8113   48.4553 H   0  0  0  0  0  0  0  0  0  0  0  0
   58.6593   23.7524   45.8704 H   0  0  0  0  0  0  0  0  0  0  0  0
   57.7695   21.4505   45.5361 H   0  0  0  0  0  0  0  0  0  0  0  0
  1  2  1  0
  2  3  1  0
  3  4  2  0
  4  5  1  0
  5  6  2  0
  6  7  1  0
  7  8  2  0
  8  9  1  0
  9 10  2  0
 10 11  1  0
 11 12  1  0
 12 13  1  0
 13 14  2  0
 14 15  1  0
 15 16  2  0
 16 17  1  0
 17 18  1  0
 18 19  2  0
 19 20  1  0
 20 21  2  0
 21 22  1  0
 22 23  2  0
 23 24  1  0
 10 25  1  0
  6 26  1  0
 26 27  2  0
 27  3  1  0
 25  7  1  0
 17 13  1  0
 23 18  1  0
  1 28  1  0
  1 29  1  0
  1 30  1  0
  4 31  1  0
  5 32  1  0
  9 33  1  0
 11 34  1  0
 11 35  1  0
 19 36  1  0
 20 37  1  0
 21 38  1  0
 22 39  1  0
 26 40  1  0
 27 41  1  0
M  CHG  1   9   1
M  END
>  <UniqueID>  (43) 
41

>  <SMILES>  (43) 
COc1ccc(-c2n[nH+]c(CSc3nnnn3-c3ccccc3F)s2)cc1

>  <Energy>  (43) 
115.32608601123103

>  <Genealogy>  (43) 
COc1ccc(-c2n[nH+]c(CSc3nnnn3-c3ccccc3F)s2)cc1 (protonated)
COc1ccc(-c2n[nH+]c(CSc3nnnn3-c3ccccc3F)s2)cc1 (3D coordinates assigned)
COc1ccc(-c2n[nH+]c(CSc3nnnn3-c3ccccc3F)s2)cc1 (optimized conformer: 115.32608601123103 kcal/mol)

>  <smiles>  (43) 
COc1ccc(-c2nnc(CSc3nnnn3-c3ccccc3F)s2)cc1

>  <score_type>  (43) 
oracle

>  <origin>  (43) 
adg

>  <m_score__min__energy>  (43) 
-9.0999999999999996

>  <m_primary>  (43) 
energy

$$$$
43:0
     RDKit          3D

 44 47  0  0  0  0  0  0  0  0999 V2000
   64.3660   33.1200   48.9010 C   0  0  0  0  0  0  0  0  0  0  0  0
   63.6870   33.9820   47.9930 O   0  0  0  0  0  0  0  0  0  0  0  0
   62.3160   33.9060   47.7050 C   0  0  0  0  0  0  0  0  0  0  0  0
   61.4110   33.9290   48.7720 C   0  0  0  0  0  0  0  0  0  0  0  0
   60.0340   33.8590   48.5390 C   0  0  0  0  0  0  0  0  0  0  0  0
   59.5420   33.7760   47.2270 C   0  0  0  0  0  0  0  0  0  0  0  0
   58.0630   33.6700   46.9730 C   0  0  0  0  0  0  0  0  0  0  0  0
   57.7700   32.4810   46.1060 C   0  0  0  0  0  0  0  0  0  0  0  0
   56.7460   32.4450   45.2310 N   0  0  0  0  0  0  0  0  0  0  0  0
   56.7110   31.2210   44.7230 N   0  0  0  0  0  0  0  0  0  0  0  0
   57.7140   30.5230   45.2910 C   0  0  0  0  0  0  0  0  0  0  0  0
   57.9430   29.0910   45.0240 C   0  0  0  0  0  0  0  0  0  0  0  0
   58.9280   28.5240   44.2220 C   0  0  0  0  0  0  0  0  0  0  0  0
   58.8850   27.1670   44.1390 N   0  0  0  0  0  0  0  0  0  0  0  0
   57.8740   26.6390   44.8630 C   0  0  0  0  0  0  0  0  0  0  0  0
   56.9870   27.8450   45.6280 S   0  0  0  0  0  0  0  0  0  0  0  0
   58.4130   31.2960   46.1470 N   0  0  0  0  0  0  0  0  0  0  0  0
   59.3410   30.8680   47.1130 N   0  0  0  0  0  0  0  0  0  0  0  0
   60.6890   30.4910   46.6890 C   0  0  0  0  0  0  0  0  0  0  0  0
   61.6620   30.6450   47.8610 C   0  0  0  0  0  0  0  0  0  0  0  0
   61.1820   29.9630   49.0040 O   0  0  0  0  0  0  0  0  0  0  0  0
   59.9920   30.5780   49.4630 C   0  0  0  0  0  0  0  0  0  0  0  0
   58.8690   30.4340   48.4290 C   0  0  0  0  0  0  0  0  0  0  0  0
   60.4480   33.7400   46.1550 C   0  0  0  0  0  0  0  0  0  0  0  0
   61.8240   33.8080   46.3890 C   0  0  0  0  0  0  0  0  0  0  0  0
   64.1317   33.4175   49.9338 H   0  0  0  0  0  0  0  0  0  0  0  0
   64.0398   32.0826   48.7353 H   0  0  0  0  0  0  0  0  0  0  0  0
   65.4509   33.1941   48.7353 H   0  0  0  0  0  0  0  0  0  0  0  0
   61.7862   34.0028   49.8034 H   0  0  0  0  0  0  0  0  0  0  0  0
   59.3336   33.8690   49.3872 H   0  0  0  0  0  0  0  0  0  0  0  0
   57.5366   33.5586   47.9324 H   0  0  0  0  0  0  0  0  0  0  0  0
   57.7207   34.5811   46.4604 H   0  0  0  0  0  0  0  0  0  0  0  0
   59.6831   29.1263   43.6957 H   0  0  0  0  0  0  0  0  0  0  0  0
   57.6596   25.5630   44.9415 H   0  0  0  0  0  0  0  0  0  0  0  0
   60.6865   29.4441   46.3513 H   0  0  0  0  0  0  0  0  0  0  0  0
   61.0070   31.1452   45.8638 H   0  0  0  0  0  0  0  0  0  0  0  0
   62.6392   30.2281   47.5759 H   0  0  0  0  0  0  0  0  0  0  0  0
   61.7581   31.7140   48.1021 H   0  0  0  0  0  0  0  0  0  0  0  0
   59.6793   30.1007   50.4034 H   0  0  0  0  0  0  0  0  0  0  0  0
   60.1881   31.6485   49.6228 H   0  0  0  0  0  0  0  0  0  0  0  0
   58.5567   29.3807   48.3748 H   0  0  0  0  0  0  0  0  0  0  0  0
   58.0172   31.0607   48.7317 H   0  0  0  0  0  0  0  0  0  0  0  0
   60.0723   33.6578   45.1244 H   0  0  0  0  0  0  0  0  0  0  0  0
   62.5256   33.7849   45.5421 H   0  0  0  0  0  0  0  0  0  0  0  0
  1  2  1  0
  2  3  1  0
  3  4  2  0
  4  5  1  0
  5  6  2  0
  6  7  1  0
  7  8  1  0
  8  9  2  0
  9 10  1  0
 10 11  2  0
 11 12  1  0
 12 13  2  0
 13 14  1  0
 14 15  2  0
 15 16  1  0
 11 17  1  0
 17 18  1  0
 18 19  1  0
 19 20  1  0
 20 21  1  0
 21 22  1  0
 22 23  1  0
  6 24  1  0
 24 25  2  0
 25  3  1  0
 17  8  1  0
 23 18  1  0
 16 12  1  0
  1 26  1  0
  1 27  1  0
  1 28  1  0
  4 29  1  0
  5 30  1  0
  7 31  1  0
  7 32  1  0
 13 33  1  0
 15 34  1  0
 19 35  1  0
 19 36  1  0
 20 37  1  0
 20 38  1  0
 22 39  1  0
 22 40  1  0
 23 41  1  0
 23 42  1  0
 24 43  1  0
 25 44  1  0
M  END
>  <UniqueID>  (44) 
42

>  <SMILES>  (44) 
COc1ccc(Cc2nnc(-c3cncs3)n2N2CCOCC2)cc1

>  <Energy>  (44) 
117.39839788368597

>  <Genealogy>  (44) 
COc1ccc(Cc2nnc(-c3cncs3)n2N2CCOCC2)cc1 (3D coordinates assigned)
COc1ccc(Cc2nnc(-c3cncs3)n2N2CCOCC2)cc1 (nonaromatic ring conformer: 117.39839788368597 kcal/mol)

>  <smiles>  (44) 
COc1ccc(Cc2nnc(-c3cncs3)n2N2CCOCC2)cc1

>  <score_type>  (44) 
oracle

>  <origin>  (44) 
adg

>  <m_score__min__energy>  (44) 
-6.9400000000000004

>  <m_primary>  (44) 
energy

$$$$
44:0
     RDKit          3D

 31 33  0  0  0  0  0  0  0  0999 V2000
   59.2772   28.1353   46.4613 H   0  0  0  0  0  0  0  0  0  0  0  0
   58.2430   27.8280   46.2470 C   0  0  0  0  0  0  0  0  0  0  0  0
   57.5460   26.3520   46.6530 S   0  0  0  0  0  0  0  0  0  0  0  0
   56.0520   26.7510   45.9780 C   0  0  0  0  0  0  0  0  0  0  0  0
   54.9890   26.0020   45.9450 N   0  0  0  0  0  0  0  0  0  0  0  0
   54.9220   24.5860   45.7050 C   0  0  0  0  0  0  0  0  0  0  0  0
   54.7140   23.7680   46.6410 O   0  0  0  0  0  0  0  0  0  0  0  0
   55.1540   24.0720   44.3190 C   0  0  0  0  0  0  0  0  0  0  0  0
   54.3128   23.4275   44.0239 H   0  0  0  0  0  0  0  0  0  0  0  0
   55.2326   24.9231   43.6266 H   0  0  0  0  0  0  0  0  0  0  0  0
   56.4300   23.2780   44.2720 C   0  0  0  0  0  0  0  0  0  0  0  0
   57.5330   23.6630   45.0530 C   0  0  0  0  0  0  0  0  0  0  0  0
   57.4547   24.5332   45.7213 H   0  0  0  0  0  0  0  0  0  0  0  0
   58.7300   22.9430   44.9830 C   0  0  0  0  0  0  0  0  0  0  0  0
   59.5883   23.2427   45.6023 H   0  0  0  0  0  0  0  0  0  0  0  0
   58.8370   21.8430   44.1270 C   0  0  0  0  0  0  0  0  0  0  0  0
   59.7785   21.2765   44.0748 H   0  0  0  0  0  0  0  0  0  0  0  0
   57.7490   21.4630   43.3380 C   0  0  0  0  0  0  0  0  0  0  0  0
   57.8355   20.5993   42.6623 H   0  0  0  0  0  0  0  0  0  0  0  0
   56.5500   22.1790   43.4060 C   0  0  0  0  0  0  0  0  0  0  0  0
   55.6973   21.8803   42.7786 H   0  0  0  0  0  0  0  0  0  0  0  0
   56.0660   27.9900   45.4450 N   0  0  0  0  0  0  0  0  0  0  0  0
   57.2780   28.5950   45.5900 C   0  0  0  0  0  0  0  0  0  0  0  0
   57.5200   29.9560   45.0800 C   0  0  0  0  0  0  0  0  0  0  0  0
   58.1270   31.2310   45.9970 S   0  0  0  0  0  0  0  0  0  0  0  0
   58.1050   32.3640   44.7560 C   0  0  0  0  0  0  0  0  0  0  0  0
   58.6580   34.1800   44.9190 Br  0  0  0  0  0  0  0  0  0  0  0  0
   57.6210   31.7610   43.6040 C   0  0  0  0  0  0  0  0  0  0  0  0
   57.5065   32.2906   42.6467 H   0  0  0  0  0  0  0  0  0  0  0  0
   57.2930   30.4120   43.7810 C   0  0  0  0  0  0  0  0  0  0  0  0
   56.8961   29.7751   42.9767 H   0  0  0  0  0  0  0  0  0  0  0  0
  1  2  1  0
  2  3  1  0
  3  4  1  0
  4  5  2  0
  5  6  1  0
  6  7  2  0
  6  8  1  0
  8  9  1  0
  8 10  1  0
  8 11  1  0
 11 12  2  0
 12 13  1  0
 12 14  1  0
 14 15  1  0
 14 16  2  0
 16 17  1  0
 16 18  1  0
 18 19  1  0
 18 20  2  0
 20 21  1  0
  4 22  1  0
 22 23  1  0
 23 24  1  0
 24 25  1  0
 25 26  1  0
 26 27  1  0
 26 28  2  0
 28 29  1  0
 28 30  1  0
 30 31  1  0
 23  2  2  0
 30 24  2  0
 20 11  1  0
M  CHG  1  22  -1
M  END
>  <UniqueID>  (45) 
43

>  <SMILES>  (45) 
O=C(Cc1ccccc1)/N=c1/[n-]c(-c2ccc(Br)s2)cs1

>  <Energy>  (45) 
90.94626591003436

>  <Genealogy>  (45) 
O=C(Cc1ccccc1)N=c1[n-]c(-c2ccc(Br)s2)cs1 (protonated)
O=C(Cc1ccccc1)/N=c1/[n-]c(-c2ccc(Br)s2)cs1 (cis-trans isomerization)
O=C(Cc1ccccc1)/N=c1/[n-]c(-c2ccc(Br)s2)cs1 (3D coordinates assigned)
O=C(Cc1ccccc1)/N=c1/[n-]c(-c2ccc(Br)s2)cs1 (optimized conformer: 90.94626591003436 kcal/mol)

>  <smiles>  (45) 
O=C(Cc1ccccc1)N=c1[nH]c(-c2ccc(Br)s2)cs1

>  <score_type>  (45) 
oracle

>  <origin>  (45) 
adg

>  <m_score__min__energy>  (45) 
-9.7799999999999994

>  <m_primary>  (45) 
energy

$$$$
45:0
     RDKit          3D

 59 62  0  0  0  0  0  0  0  0999 V2000
   64.1590   32.4360   49.0140 C   0  0  0  0  0  0  0  0  0  0  0  0
   63.4340   32.2760   47.8000 O   0  0  0  0  0  0  0  0  0  0  0  0
   62.0910   32.6460   47.6190 C   0  0  0  0  0  0  0  0  0  0  0  0
   61.7250   33.7900   46.8820 C   0  0  0  0  0  0  0  0  0  0  0  0
   60.3740   34.1170   46.7150 C   0  0  0  0  0  0  0  0  0  0  0  0
   59.3850   33.3190   47.2870 C   0  0  0  0  0  0  0  0  0  0  0  0
   59.7380   32.1900   48.0340 C   0  0  0  0  0  0  0  0  0  0  0  0
   61.0940   31.8420   48.1950 C   0  0  0  0  0  0  0  0  0  0  0  0
   61.4900   30.7090   48.9240 O   0  0  0  0  0  0  0  0  0  0  0  0
   60.7180   29.5190   49.0480 C   0  0  0  0  0  0  0  0  0  0  0  0
   57.9490   33.7480   47.1220 C   0  0  0  0  0  0  0  0  0  0  0  0
   57.6530   34.2120   45.7350 N   0  0  2  0  0  0  0  0  0  0  0  0
   57.0950   33.1290   44.8830 C   0  0  0  0  0  0  0  0  0  0  0  0
   58.1520   32.1300   44.3640 C   0  0  0  0  0  0  0  0  0  0  0  0
   57.8900   30.7540   44.9150 C   0  0  0  0  0  0  0  0  0  0  0  0
   58.7780   30.1820   45.8400 C   0  0  0  0  0  0  0  0  0  0  0  0
   58.5520   28.8920   46.3290 C   0  0  0  0  0  0  0  0  0  0  0  0
   57.4310   28.1590   45.9030 C   0  0  0  0  0  0  0  0  0  0  0  0
   57.1770   26.8270   46.3760 N   0  0  0  0  0  0  0  0  0  0  0  0
   56.2180   25.9060   45.8380 C   0  0  0  0  0  0  0  0  0  0  0  0
   54.9930   26.1540   45.9950 O   0  0  0  0  0  0  0  0  0  0  0  0
   56.6280   24.6490   45.1680 C   0  0  0  0  0  0  0  0  0  0  0  0
   55.8280   24.0930   44.1520 C   0  0  0  0  0  0  0  0  0  0  0  0
   56.2120   22.9090   43.5160 C   0  0  0  0  0  0  0  0  0  0  0  0
   57.4000   22.2720   43.8810 C   0  0  0  0  0  0  0  0  0  0  0  0
   58.2080   22.8200   44.8790 C   0  0  0  0  0  0  0  0  0  0  0  0
   57.8310   24.0050   45.5200 C   0  0  0  0  0  0  0  0  0  0  0  0
   58.6270   24.5060   46.4990 F   0  0  0  0  0  0  0  0  0  0  0  0
   56.5700   28.7140   44.9510 C   0  0  0  0  0  0  0  0  0  0  0  0
   56.7940   30.0040   44.4610 C   0  0  0  0  0  0  0  0  0  0  0  0
   58.7550   34.9550   45.0400 C   0  0  0  0  0  0  0  0  0  0  0  0
   59.9380   35.3270   45.9470 C   0  0  0  0  0  0  0  0  0  0  0  0
   63.4818   32.2866   49.8679 H   0  0  0  0  0  0  0  0  0  0  0  0
   64.9713   31.6955   49.0563 H   0  0  0  0  0  0  0  0  0  0  0  0
   64.5842   33.4496   49.0563 H   0  0  0  0  0  0  0  0  0  0  0  0
   62.5028   34.4277   46.4368 H   0  0  0  0  0  0  0  0  0  0  0  0
   58.9546   31.5720   48.4971 H   0  0  0  0  0  0  0  0  0  0  0  0
   60.5684   29.2883   50.1131 H   0  0  0  0  0  0  0  0  0  0  0  0
   59.7411   29.6635   48.5634 H   0  0  0  0  0  0  0  0  0  0  0  0
   61.2481   28.6859   48.5634 H   0  0  0  0  0  0  0  0  0  0  0  0
   57.2956   32.8948   47.3567 H   0  0  0  0  0  0  0  0  0  0  0  0
   57.7689   34.5913   47.8049 H   0  0  0  0  0  0  0  0  0  0  0  0
   56.8680   34.9000   45.8410 H   0  0  0  0  0  0  0  0  0  0  0  0
   56.3532   32.5717   45.4738 H   0  0  0  0  0  0  0  0  0  0  0  0
   56.6550   33.6143   43.9993 H   0  0  0  0  0  0  0  0  0  0  0  0
   58.1085   32.0947   43.2654 H   0  0  0  0  0  0  0  0  0  0  0  0
   59.1479   32.4619   44.6928 H   0  0  0  0  0  0  0  0  0  0  0  0
   59.6552   30.7513   46.1813 H   0  0  0  0  0  0  0  0  0  0  0  0
   59.2544   28.4488   47.0502 H   0  0  0  0  0  0  0  0  0  0  0  0
   54.8942   24.5937   43.8565 H   0  0  0  0  0  0  0  0  0  0  0  0
   55.5777   22.4785   42.7271 H   0  0  0  0  0  0  0  0  0  0  0  0
   57.6992   21.3384   43.3821 H   0  0  0  0  0  0  0  0  0  0  0  0
   59.1448   22.3180   45.1625 H   0  0  0  0  0  0  0  0  0  0  0  0
   55.7112   28.1319   44.5855 H   0  0  0  0  0  0  0  0  0  0  0  0
   56.1079   30.4333   43.7160 H   0  0  0  0  0  0  0  0  0  0  0  0
   59.1332   34.3240   44.2222 H   0  0  0  0  0  0  0  0  0  0  0  0
   58.3211   35.9014   44.6849 H   0  0  0  0  0  0  0  0  0  0  0  0
   60.7730   35.6913   45.3306 H   0  0  0  0  0  0  0  0  0  0  0  0
   59.6301   36.1167   46.6481 H   0  0  0  0  0  0  0  0  0  0  0  0
  1  2  1  0
  2  3  1  0
  3  4  2  0
  4  5  1  0
  5  6  2  0
  6  7  1  0
  7  8  2  0
  8  9  1  0
  9 10  1  0
  6 11  1  0
 11 12  1  0
 12 13  1  0
 13 14  1  0
 14 15  1  0
 15 16  2  0
 16 17  1  0
 17 18  2  0
 18 19  1  0
 19 20  1  0
 20 21  2  0
 20 22  1  0
 22 23  2  0
 23 24  1  0
 24 25  2  0
 25 26  1  0
 26 27  2  0
 27 28  1  0
 18 29  1  0
 29 30  2  0
 12 31  1  0
 31 32  1  0
  8  3  1  0
 30 15  1  0
 32  5  1  0
 27 22  1  0
  1 33  1  0
  1 34  1  0
  1 35  1  0
  4 36  1  0
  7 37  1  0
 10 38  1  0
 10 39  1  0
 10 40  1  0
 11 41  1  0
 11 42  1  0
 12 43  1  1
 13 44  1  0
 13 45  1  0
 14 46  1  0
 14 47  1  0
 16 48  1  0
 17 49  1  0
 23 50  1  0
 24 51  1  0
 25 52  1  0
 26 53  1  0
 29 54  1  0
 30 55  1  0
 31 56  1  0
 31 57  1  0
 32 58  1  0
 32 59  1  0
M  CHG  2  12   1  19  -1
M  END
>  <UniqueID>  (46) 
44

>  <SMILES>  (46) 
COc1cc2c(cc1OC)C[N@H+](CCc1ccc([N-]C(=O)c3ccccc3F)cc1)CC2

>  <Energy>  (46) 
80.722994960293

>  <Genealogy>  (46) 
COc1cc2c(cc1OC)C[NH+](CCc1ccc([N-]C(=O)c3ccccc3F)cc1)CC2 (protonated)
COc1cc2c(cc1OC)C[N@H+](CCc1ccc([N-]C(=O)c3ccccc3F)cc1)CC2 (chirality)
COc1cc2c(cc1OC)C[N@H+](CCc1ccc([N-]C(=O)c3ccccc3F)cc1)CC2 (3D coordinates assigned)
COc1cc2c(cc1OC)C[N@H+](CCc1ccc([N-]C(=O)c3ccccc3F)cc1)CC2 (nonaromatic ring conformer: 80.722994960293 kcal/mol)

>  <smiles>  (46) 
COc1cc2c(cc1OC)CN(CCc1ccc(NC(=O)c3ccccc3F)cc1)CC2

>  <score_type>  (46) 
oracle

>  <origin>  (46) 
adg

>  <m_score__min__energy>  (46) 
-9.25

>  <m_primary>  (46) 
energy

$$$$
46:0
     RDKit          3D

 54 57  0  0  0  0  0  0  0  0999 V2000
   55.7490   25.5240   46.3780 O   0  0  0  0  0  0  0  0  0  0  0  0
   57.1500   25.4660   46.3010 C   0  0  0  0  0  0  0  0  0  0  0  0
   57.7310   26.7250   45.6300 C   0  0  2  0  0  0  0  0  0  0  0  0
   58.8120   27.3920   46.5050 C   0  0  0  0  0  0  0  0  0  0  0  0
   59.1030   28.8630   46.0990 C   0  0  2  0  0  0  0  0  0  0  0  0
   58.5630   29.8760   47.1370 C   0  0  0  0  0  0  0  0  0  0  0  0
   59.5710   30.9090   47.4520 N   0  0  0  0  0  0  0  0  0  0  0  0
   60.8100   30.6900   46.7040 C   0  0  0  0  0  0  0  0  0  0  0  0
   61.9130   31.3580   47.5000 C   0  0  0  0  0  0  0  0  0  0  0  0
   61.4380   31.2990   48.9390 C   0  0  0  0  0  0  0  0  0  0  0  0
   59.9610   30.9220   48.8700 C   0  0  0  0  0  0  0  0  0  0  0  0
   58.5970   29.1840   44.6720 C   0  0  0  0  0  0  0  0  0  0  0  0
   57.1670   28.8490   44.4330 N   0  0  0  0  0  0  0  0  0  0  0  0
   56.2930   30.0400   44.4640 C   0  0  0  0  0  0  0  0  0  0  0  0
   57.1130   31.2990   44.5130 C   0  0  0  0  0  0  0  0  0  0  0  0
   57.7010   31.8210   43.3500 C   0  0  0  0  0  0  0  0  0  0  0  0
   58.4850   32.9730   43.4320 C   0  0  0  0  0  0  0  0  0  0  0  0
   58.6830   33.5950   44.6710 C   0  0  0  0  0  0  0  0  0  0  0  0
   59.4660   34.7530   44.7880 C   0  0  0  0  0  0  0  0  0  0  0  0
   59.6470   35.3490   46.0410 C   0  0  0  0  0  0  0  0  0  0  0  0
   59.0490   34.7930   47.1780 C   0  0  0  0  0  0  0  0  0  0  0  0
   58.2670   33.6390   47.0690 C   0  0  0  0  0  0  0  0  0  0  0  0
   58.0800   33.0360   45.8190 C   0  0  0  0  0  0  0  0  0  0  0  0
   57.3220   31.9130   45.7100 N   0  0  0  0  0  0  0  0  0  0  0  0
   56.6370   27.7420   45.2680 C   0  0  0  0  0  0  0  0  0  0  0  0
   55.5240   25.9260   47.2570 H   0  0  0  0  0  0  0  0  0  0  0  0
   57.5607   25.3811   47.3179 H   0  0  0  0  0  0  0  0  0  0  0  0
   57.4264   24.5920   45.6929 H   0  0  0  0  0  0  0  0  0  0  0  0
   58.2036   26.3879   44.6956 H   0  0  0  0  0  0  0  0  0  0  0  0
   58.4730   27.3782   47.5514 H   0  0  0  0  0  0  0  0  0  0  0  0
   59.7432   26.8232   46.3661 H   0  0  0  0  0  0  0  0  0  0  0  0
   60.1976   28.9707   46.0863 H   0  0  0  0  0  0  0  0  0  0  0  0
   57.6654   30.3636   46.7288 H   0  0  0  0  0  0  0  0  0  0  0  0
   58.3227   29.3313   48.0619 H   0  0  0  0  0  0  0  0  0  0  0  0
   61.0101   29.6128   46.6061 H   0  0  0  0  0  0  0  0  0  0  0  0
   60.7421   31.1069   45.6883 H   0  0  0  0  0  0  0  0  0  0  0  0
   62.8613   30.8133   47.3817 H   0  0  0  0  0  0  0  0  0  0  0  0
   62.1022   32.3888   47.1658 H   0  0  0  0  0  0  0  0  0  0  0  0
   62.0024   30.5385   49.4985 H   0  0  0  0  0  0  0  0  0  0  0  0
   61.5890   32.2579   49.4565 H   0  0  0  0  0  0  0  0  0  0  0  0
   59.8072   29.9258   49.3104 H   0  0  0  0  0  0  0  0  0  0  0  0
   59.3512   31.6449   49.4317 H   0  0  0  0  0  0  0  0  0  0  0  0
   58.7316   30.2612   44.4942 H   0  0  0  0  0  0  0  0  0  0  0  0
   59.1837   28.5572   43.9843 H   0  0  0  0  0  0  0  0  0  0  0  0
   55.6665   30.0519   43.5599 H   0  0  0  0  0  0  0  0  0  0  0  0
   55.6626   29.9930   45.3642 H   0  0  0  0  0  0  0  0  0  0  0  0
   57.5449   31.3254   42.3804 H   0  0  0  0  0  0  0  0  0  0  0  0
   58.9463   33.3914   42.5253 H   0  0  0  0  0  0  0  0  0  0  0  0
   59.9370   35.1919   43.8961 H   0  0  0  0  0  0  0  0  0  0  0  0
   60.2610   36.2571   46.1328 H   0  0  0  0  0  0  0  0  0  0  0  0
   59.1948   35.2655   48.1606 H   0  0  0  0  0  0  0  0  0  0  0  0
   57.7989   33.2050   47.9648 H   0  0  0  0  0  0  0  0  0  0  0  0
   56.2216   28.1631   46.1954 H   0  0  0  0  0  0  0  0  0  0  0  0
   55.8619   27.2184   44.6892 H   0  0  0  0  0  0  0  0  0  0  0  0
  1  2  1  0
  2  3  1  0
  3  4  1  0
  4  5  1  0
  5  6  1  0
  6  7  1  0
  7  8  1  0
  8  9  1  0
  9 10  1  0
 10 11  1  0
  5 12  1  0
 12 13  1  0
 13 14  1  0
 14 15  1  0
 15 16  2  0
 16 17  1  0
 17 18  2  0
 18 19  1  0
 19 20  2  0
 20 21  1  0
 21 22  2  0
 22 23  1  0
 23 24  2  0
 13 25  1  0
 25  3  1  0
 11  7  1  0
 24 15  1  0
 23 18  1  0
  1 26  1  0
  2 27  1  0
  2 28  1  0
  3 29  1  6
  4 30  1  0
  4 31  1  0
  5 32  1  6
  6 33  1  0
  6 34  1  0
  8 35  1  0
  8 36  1  0
  9 37  1  0
  9 38  1  0
 10 39  1  0
 10 40  1  0
 11 41  1  0
 11 42  1  0
 12 43  1  0
 12 44  1  0
 14 45  1  0
 14 46  1  0
 16 47  1  0
 17 48  1  0
 19 49  1  0
 20 50  1  0
 21 51  1  0
 22 52  1  0
 25 53  1  0
 25 54  1  0
M  END
>  <UniqueID>  (47) 
45

>  <SMILES>  (47) 
OC[C@@H]1C[C@H](CN2CCCC2)CN(Cc2ccc3ccccc3n2)C1

>  <Energy>  (47) 
69.64881247552931

>  <Genealogy>  (47) 
OC[C@@H]1C[C@H](CN2CCCC2)CN(Cc2ccc3ccccc3n2)C1 (chirality)
OC[C@@H]1C[C@H](CN2CCCC2)CN(Cc2ccc3ccccc3n2)C1 (3D coordinates assigned)
OC[C@@H]1C[C@H](CN2CCCC2)CN(Cc2ccc3ccccc3n2)C1 (nonaromatic ring conformer: 69.64881247552931 kcal/mol)

>  <smiles>  (47) 
OCC1CC(CN2CCCC2)CN(Cc2ccc3ccccc3n2)C1

>  <score_type>  (47) 
oracle

>  <origin>  (47) 
adg

>  <m_score__min__energy>  (47) 
-8.5700000000000003

>  <m_primary>  (47) 
energy

$$$$
47:0
     RDKit          3D

 47 49  0  0  0  0  0  0  0  0999 V2000
   57.4000   31.3880   42.9750 C   0  0  0  0  0  0  0  0  0  0  0  0
   56.8870   31.2240   44.3790 C   0  0  0  0  0  0  0  0  0  0  0  0
   55.8910   30.5390   44.5610 O   0  0  0  0  0  0  0  0  0  0  0  0
   57.5930   31.8390   45.4950 N   0  0  2  0  0  0  0  0  0  0  0  0
   57.5790   33.3300   45.4940 C   0  0  0  0  0  0  0  0  0  0  0  0
   58.8080   33.9990   44.8520 C   0  0  0  0  0  0  0  0  0  0  0  0
   59.9220   34.2900   45.8540 C   0  0  0  0  0  0  0  0  0  0  0  0
   60.5890   33.0840   46.3830 N   0  0  0  0  0  0  0  0  0  0  0  0
   61.9830   33.2260   46.7400 C   0  0  0  0  0  0  0  0  0  0  0  0
   62.6430   34.2290   46.3520 O   0  0  0  0  0  0  0  0  0  0  0  0
   62.6940   32.1750   47.5380 C   0  0  0  0  0  0  0  0  0  0  0  0
   61.7620   31.3990   48.3700 N   0  0  0  0  0  0  0  0  0  0  0  0
   61.2720   32.1730   49.5330 C   0  0  0  0  0  0  0  0  0  0  0  0
   60.0240   31.5530   50.1070 C   0  0  0  0  0  0  0  0  0  0  0  0
   58.8050   32.1960   50.2170 C   0  0  0  0  0  0  0  0  0  0  0  0
   57.9270   31.2780   50.7590 C   0  0  0  0  0  0  0  0  0  0  0  0
   58.6390   30.1100   50.9480 C   0  0  0  0  0  0  0  0  0  0  0  0
   59.9120   30.2790   50.5400 N   0  0  0  0  0  0  0  0  0  0  0  0
   60.9590   29.2610   50.5830 C   0  0  0  0  0  0  0  0  0  0  0  0
   60.6900   30.8340   47.5280 C   0  0  0  0  0  0  0  0  0  0  0  0
   59.8060   31.9110   46.8460 C   0  0  2  0  0  0  0  0  0  0  0  0
   58.9290   31.2400   45.7320 C   0  0  0  0  0  0  0  0  0  0  0  0
   58.4474   31.7228   43.0041 H   0  0  0  0  0  0  0  0  0  0  0  0
   57.3374   30.4251   42.4469 H   0  0  0  0  0  0  0  0  0  0  0  0
   56.7904   32.1361   42.4469 H   0  0  0  0  0  0  0  0  0  0  0  0
   57.0280   31.5740   46.3370 H   0  0  0  0  0  0  0  0  0  0  0  0
   56.6858   33.6611   44.9440 H   0  0  0  0  0  0  0  0  0  0  0  0
   57.5840   33.6350   46.5509 H   0  0  0  0  0  0  0  0  0  0  0  0
   59.2035   33.3308   44.0729 H   0  0  0  0  0  0  0  0  0  0  0  0
   58.4782   34.9634   44.4383 H   0  0  0  0  0  0  0  0  0  0  0  0
   60.6796   34.9133   45.3565 H   0  0  0  0  0  0  0  0  0  0  0  0
   59.4526   34.7940   46.7117 H   0  0  0  0  0  0  0  0  0  0  0  0
   63.2092   31.4911   46.8475 H   0  0  0  0  0  0  0  0  0  0  0  0
   63.4109   32.6773   48.2042 H   0  0  0  0  0  0  0  0  0  0  0  0
   62.0531   32.1922   50.3073 H   0  0  0  0  0  0  0  0  0  0  0  0
   61.0348   33.1941   49.1997 H   0  0  0  0  0  0  0  0  0  0  0  0
   58.5791   33.2335   49.9297 H   0  0  0  0  0  0  0  0  0  0  0  0
   56.8656   31.4450   50.9946 H   0  0  0  0  0  0  0  0  0  0  0  0
   58.2282   29.1804   51.3688 H   0  0  0  0  0  0  0  0  0  0  0  0
   61.1999   29.0268   51.6304 H   0  0  0  0  0  0  0  0  0  0  0  0
   60.6066   28.3509   50.0755 H   0  0  0  0  0  0  0  0  0  0  0  0
   61.8588   29.6388   50.0755 H   0  0  0  0  0  0  0  0  0  0  0  0
   61.1522   30.2157   46.7444 H   0  0  0  0  0  0  0  0  0  0  0  0
   60.0342   30.2484   48.1890 H   0  0  0  0  0  0  0  0  0  0  0  0
   59.1173   32.3356   47.5913 H   0  0  0  0  0  0  0  0  0  0  0  0
   59.4909   31.2908   44.7877 H   0  0  0  0  0  0  0  0  0  0  0  0
   58.7322   30.2188   46.0903 H   0  0  0  0  0  0  0  0  0  0  0  0
  1  2  1  0
  2  3  2  0
  2  4  1  0
  4  5  1  0
  5  6  1  0
  6  7  1  0
  7  8  1  0
  8  9  1  0
  9 10  2  0
  9 11  1  0
 11 12  1  0
 12 13  1  0
 13 14  1  0
 14 15  2  0
 15 16  1  0
 16 17  2  0
 17 18  1  0
 18 19  1  0
 12 20  1  0
 20 21  1  0
 21 22  1  0
 22  4  1  0
 21  8  1  0
 18 14  1  0
  1 23  1  0
  1 24  1  0
  1 25  1  0
  4 26  1  1
  5 27  1  0
  5 28  1  0
  6 29  1  0
  6 30  1  0
  7 31  1  0
  7 32  1  0
 11 33  1  0
 11 34  1  0
 13 35  1  0
 13 36  1  0
 15 37  1  0
 16 38  1  0
 17 39  1  0
 19 40  1  0
 19 41  1  0
 19 42  1  0
 20 43  1  0
 20 44  1  0
 21 45  1  1
 22 46  1  0
 22 47  1  0
M  CHG  1   4   1
M  END
>  <UniqueID>  (48) 
46

>  <SMILES>  (48) 
CC(=O)[N@@H+]1CCCN2C(=O)CN(Cc3cccn3C)C[C@@H]2C1

>  <Energy>  (48) 
97.25271891503208

>  <Genealogy>  (48) 
CC(=O)[NH+]1CCCN2C(=O)CN(Cc3cccn3C)CC2C1 (protonated)
CC(=O)[N@@H+]1CCCN2C(=O)CN(Cc3cccn3C)C[C@@H]2C1 (chirality)
CC(=O)[N@@H+]1CCCN2C(=O)CN(Cc3cccn3C)C[C@@H]2C1 (3D coordinates assigned)
CC(=O)[N@@H+]1CCCN2C(=O)CN(Cc3cccn3C)C[C@@H]2C1 (nonaromatic ring conformer: 97.25271891503208 kcal/mol)

>  <smiles>  (48) 
CC(=O)N1CCCN2C(=O)CN(Cc3cccn3C)CC2C1

>  <score_type>  (48) 
oracle

>  <origin>  (48) 
adg

>  <m_score__min__energy>  (48) 
-3.7799999999999998

>  <m_primary>  (48) 
energy

$$$$
