0:0
     RDKit          3D

 80 85  0  0  0  0  0  0  0  0999 V2000
   56.8380   21.0480   43.0360 C   0  0  0  0  0  0  0  0  0  0  0  0
   55.9420   21.9820   43.6290 O   0  0  0  0  0  0  0  0  0  0  0  0
   56.3130   23.2540   44.0910 C   0  0  0  0  0  0  0  0  0  0  0  0
   57.0220   24.0950   43.2290 C   0  0  0  0  0  0  0  0  0  0  0  0
   57.4080   25.3740   43.6420 C   0  0  0  0  0  0  0  0  0  0  0  0
   57.0920   25.8360   44.9320 C   0  0  0  0  0  0  0  0  0  0  0  0
   57.4970   27.2010   45.3690 C   0  0  0  0  0  0  0  0  0  0  0  0
   57.9910   27.4170   46.6650 C   0  0  0  0  0  0  0  0  0  0  0  0
   58.3890   28.6930   47.0940 C   0  0  0  0  0  0  0  0  0  0  0  0
   58.9150   28.8400   48.5120 C   0  0  0  0  0  0  0  0  0  0  0  0
   60.1780   28.1010   48.7120 N   0  0  0  0  0  0  0  0  0  0  0  0
   61.0310   28.7490   49.7270 C   0  0  0  0  0  0  0  0  0  0  0  0
   60.7520   28.2010   51.1440 C   0  0  0  0  0  0  0  0  0  0  0  0
   60.0820   29.2140   52.0950 C   0  0  0  0  0  0  0  0  0  0  0  0
   58.8470   29.9310   51.5290 C   0  0  0  0  0  0  0  0  0  0  0  0
   59.0960   31.4210   51.2430 C   0  0  0  0  0  0  0  0  0  0  0  0
   58.4860   31.8460   49.9000 C   0  0  0  0  0  0  0  0  0  0  0  0
   59.1990   32.9720   49.3310 N   0  0  0  0  0  0  0  0  0  0  0  0
   60.4070   32.9460   48.8650 C   0  0  0  0  0  0  0  0  0  0  0  0
   61.0400   34.2070   48.3280 C   0  0  1  0  0  0  0  0  0  0  0  0
   62.2510   34.5510   49.2260 C   0  0  0  0  0  0  0  0  0  0  0  0
   63.2460   33.3630   49.2420 C   0  0  2  0  0  0  0  0  0  0  0  0
   63.7370   33.0910   47.8020 C   0  0  0  0  0  0  0  0  0  0  0  0
   62.5310   32.7400   46.9010 C   0  0  2  0  0  0  0  0  0  0  0  0
   61.5330   33.9240   46.8900 C   0  0  0  0  0  0  0  0  0  0  0  0
   61.8270   31.4760   47.4550 C   0  0  0  0  0  0  0  0  0  0  0  0
   61.3340   31.7370   48.8960 C   0  0  1  0  0  0  0  0  0  0  0  0
   62.5410   32.0960   49.7910 C   0  0  0  0  0  0  0  0  0  0  0  0
   58.2720   29.7930   46.2050 C   0  0  0  0  0  0  0  0  0  0  0  0
   58.6360   31.1080   46.5760 C   0  0  0  0  0  0  0  0  0  0  0  0
   58.4980   32.1660   45.6750 C   0  0  0  0  0  0  0  0  0  0  0  0
   58.0040   31.9410   44.3920 C   0  0  0  0  0  0  0  0  0  0  0  0
   57.6420   30.6500   44.0000 C   0  0  0  0  0  0  0  0  0  0  0  0
   57.7680   29.5750   44.8950 C   0  0  0  0  0  0  0  0  0  0  0  0
   57.3940   28.2870   44.4900 C   0  0  0  0  0  0  0  0  0  0  0  0
   56.3830   24.9860   45.7990 C   0  0  0  0  0  0  0  0  0  0  0  0
   55.9950   23.7080   45.3840 C   0  0  0  0  0  0  0  0  0  0  0  0
   57.3678   20.4957   43.8261 H   0  0  0  0  0  0  0  0  0  0  0  0
   56.2711   20.3415   42.4118 H   0  0  0  0  0  0  0  0  0  0  0  0
   57.5674   21.5851   42.4118 H   0  0  0  0  0  0  0  0  0  0  0  0
   57.2786   23.7480   42.2172 H   0  0  0  0  0  0  0  0  0  0  0  0
   57.9641   26.0249   42.9512 H   0  0  0  0  0  0  0  0  0  0  0  0
   58.0680   26.5677   47.3598 H   0  0  0  0  0  0  0  0  0  0  0  0
   59.0910   29.9063   48.7169 H   0  0  0  0  0  0  0  0  0  0  0  0
   58.1639   28.4221   49.1985 H   0  0  0  0  0  0  0  0  0  0  0  0
   59.9350   27.1350   49.0270 H   0  0  0  0  0  0  0  0  0  0  0  0
   60.6990   28.0310   47.8080 H   0  0  0  0  0  0  0  0  0  0  0  0
   62.0860   28.5655   49.4754 H   0  0  0  0  0  0  0  0  0  0  0  0
   60.8063   29.8258   49.7260 H   0  0  0  0  0  0  0  0  0  0  0  0
   60.0915   27.3263   51.0514 H   0  0  0  0  0  0  0  0  0  0  0  0
   61.7291   27.9536   51.5845 H   0  0  0  0  0  0  0  0  0  0  0  0
   59.7750   28.6750   53.0034 H   0  0  0  0  0  0  0  0  0  0  0  0
   60.8307   29.9987   52.2786 H   0  0  0  0  0  0  0  0  0  0  0  0
   58.5550   29.4379   50.5901 H   0  0  0  0  0  0  0  0  0  0  0  0
   58.0539   29.8698   52.2888 H   0  0  0  0  0  0  0  0  0  0  0  0
   58.6428   32.0198   52.0468 H   0  0  0  0  0  0  0  0  0  0  0  0
   60.1825   31.5864   51.1962 H   0  0  0  0  0  0  0  0  0  0  0  0
   58.5360   30.9992   49.1997 H   0  0  0  0  0  0  0  0  0  0  0  0
   57.4422   32.1471   50.0724 H   0  0  0  0  0  0  0  0  0  0  0  0
   60.3238   35.0419   48.3212 H   0  0  0  0  0  0  0  0  0  0  0  0
   62.7559   35.4451   48.8316 H   0  0  0  0  0  0  0  0  0  0  0  0
   61.9004   34.7453   50.2504 H   0  0  0  0  0  0  0  0  0  0  0  0
   64.1013   33.6118   49.8874 H   0  0  0  0  0  0  0  0  0  0  0  0
   64.2378   33.9886   47.4102 H   0  0  0  0  0  0  0  0  0  0  0  0
   64.4445   32.2488   47.8101 H   0  0  0  0  0  0  0  0  0  0  0  0
   62.8809   32.5470   45.8762 H   0  0  0  0  0  0  0  0  0  0  0  0
   62.0332   34.8195   46.4926 H   0  0  0  0  0  0  0  0  0  0  0  0
   60.6723   33.6675   46.2549 H   0  0  0  0  0  0  0  0  0  0  0  0
   60.9676   31.2272   46.8150 H   0  0  0  0  0  0  0  0  0  0  0  0
   62.5401   30.6385   47.4625 H   0  0  0  0  0  0  0  0  0  0  0  0
   60.8217   30.8447   49.2850 H   0  0  0  0  0  0  0  0  0  0  0  0
   62.1908   32.2885   50.8158 H   0  0  0  0  0  0  0  0  0  0  0  0
   63.2528   31.2574   49.7929 H   0  0  0  0  0  0  0  0  0  0  0  0
   59.0318   31.2995   47.5843 H   0  0  0  0  0  0  0  0  0  0  0  0
   58.7813   33.1841   45.9805 H   0  0  0  0  0  0  0  0  0  0  0  0
   57.8990   32.7796   43.6879 H   0  0  0  0  0  0  0  0  0  0  0  0
   57.2562   30.4744   42.9849 H   0  0  0  0  0  0  0  0  0  0  0  0
   57.0150   28.1266   43.4699 H   0  0  0  0  0  0  0  0  0  0  0  0
   56.1311   25.3294   46.8132 H   0  0  0  0  0  0  0  0  0  0  0  0
   55.4384   23.0546   46.0720 H   0  0  0  0  0  0  0  0  0  0  0  0
  1  2  1  0
  2  3  1  0
  3  4  2  0
  4  5  1  0
  5  6  2  0
  6  7  1  0
  7  8  2  0
  8  9  1  0
  9 10  1  0
 10 11  1  0
 11 12  1  0
 12 13  1  0
 13 14  1  0
 14 15  1  0
 15 16  1  0
 16 17  1  0
 17 18  1  0
 18 19  2  3
 19 20  1  0
 20 21  1  0
 21 22  1  0
 22 23  1  0
 23 24  1  0
 24 25  1  0
 24 26  1  0
 26 27  1  0
 27 28  1  0
  9 29  2  0
 29 30  1  0
 30 31  2  0
 31 32  1  0
 32 33  2  0
 33 34  1  0
 34 35  2  0
  6 36  1  0
 36 37  2  0
 37  3  1  0
 35  7  1  0
 27 19  1  0
 34 29  1  0
 25 20  1  0
 28 22  1  0
  1 38  1  0
  1 39  1  0
  1 40  1  0
  4 41  1  0
  5 42  1  0
  8 43  1  0
 10 44  1  0
 10 45  1  0
 11 46  1  0
 11 47  1  0
 12 48  1  0
 12 49  1  0
 13 50  1  0
 13 51  1  0
 14 52  1  0
 14 53  1  0
 15 54  1  0
 15 55  1  0
 16 56  1  0
 16 57  1  0
 17 58  1  0
 17 59  1  0
 20 60  1  6
 21 61  1  0
 21 62  1  0
 22 63  1  1
 23 64  1  0
 23 65  1  0
 24 66  1  6
 25 67  1  0
 25 68  1  0
 26 69  1  0
 26 70  1  0
 27 71  1  1
 28 72  1  0
 28 73  1  0
 30 74  1  0
 31 75  1  0
 32 76  1  0
 33 77  1  0
 35 78  1  0
 36 79  1  0
 37 80  1  0
M  CHG  1  11   1
M  END
>  <UniqueID>  (1) 
1

>  <SMILES>  (1) 
COc1ccc(-c2cc(C[NH2+]CCCCCCN=C3C4CC5CC(C4)CC3C5)c3ccccc3c2)cc1

>  <Energy>  (1) 
92.52488917109616

>  <Genealogy>  (1) 
COc1ccc(-c2cc(C[NH2+]CCCCCCN=C3C4CC5CC(C4)CC3C5)c3ccccc3c2)cc1 (protonated)
COc1ccc(-c2cc(C[NH2+]CCCCCCN=C3C4CC5CC(C4)CC3C5)c3ccccc3c2)cc1 (3D coordinates assigned)
COc1ccc(-c2cc(C[NH2+]CCCCCCN=C3C4CC5CC(C4)CC3C5)c3ccccc3c2)cc1 (nonaromatic ring conformer: 92.52488917109616 kcal/mol)

>  <smiles>  (1) 
COc1ccc(-c2cc(CNCCCCCCN=C3C4CC5CC(C4)CC3C5)c3ccccc3c2)cc1

>  <score_type>  (1) 
oracle

>  <origin>  (1) 
adg

>  <m_score__min__energy>  (1) 
-8.8900000000000006

>  <m_primary>  (1) 
energy

$$$$
1:0
     RDKit          3D

 39 41  0  0  0  0  0  0  0  0999 V2000
   58.5780   31.0900   46.6130 C   0  0  0  0  0  0  0  0  0  0  0  0
   58.0390   29.6620   46.5090 C   0  0  1  0  0  0  0  0  0  0  0  0
   57.2230   29.5110   45.2560 C   0  0  0  0  0  0  0  0  0  0  0  0
   56.0360   29.9410   45.2470 O   0  0  0  0  0  0  0  0  0  0  0  0
   57.7950   28.9500   44.0620 N   0  0  0  0  0  0  0  0  0  0  0  0
   57.0100   28.9490   42.8250 C   0  0  0  0  0  0  0  0  0  0  0  0
   59.0450   28.1860   44.1040 C   0  0  0  0  0  0  0  0  0  0  0  0
   59.9200   28.5300   45.3190 C   0  0  0  0  0  0  0  0  0  0  0  0
   59.1550   28.6960   46.5700 N   0  0  0  0  0  0  0  0  0  0  0  0
   58.9070   27.4630   47.3510 C   0  0  0  0  0  0  0  0  0  0  0  0
   58.3420   26.3240   46.5360 C   0  0  0  0  0  0  0  0  0  0  0  0
   56.9700   26.2690   46.2450 C   0  0  0  0  0  0  0  0  0  0  0  0
   56.4530   25.2100   45.4970 C   0  0  0  0  0  0  0  0  0  0  0  0
   57.3160   24.2100   45.0260 C   0  0  0  0  0  0  0  0  0  0  0  0
   56.8170   23.0660   44.2370 C   0  0  0  0  0  0  0  0  0  0  0  0
   56.8340   21.7210   44.5560 C   0  0  0  0  0  0  0  0  0  0  0  0
   56.2760   21.0280   43.5450 N   0  0  0  0  0  0  0  0  0  0  0  0
   55.9270   21.8880   42.6330 O   0  0  0  0  0  0  0  0  0  0  0  0
   56.2240   23.1150   42.9920 C   0  0  0  0  0  0  0  0  0  0  0  0
   58.6470   24.2980   45.2950 N   0  0  0  0  0  0  0  0  0  0  0  0
   59.1740   25.3190   46.0220 C   0  0  0  0  0  0  0  0  0  0  0  0
   58.6823   31.3663   47.6726 H   0  0  0  0  0  0  0  0  0  0  0  0
   59.5599   31.1481   46.1206 H   0  0  0  0  0  0  0  0  0  0  0  0
   57.8793   31.7824   46.1206 H   0  0  0  0  0  0  0  0  0  0  0  0
   57.3752   29.4516   47.3605 H   0  0  0  0  0  0  0  0  0  0  0  0
   55.9379   28.9476   43.0711 H   0  0  0  0  0  0  0  0  0  0  0  0
   57.2502   29.8475   42.2376 H   0  0  0  0  0  0  0  0  0  0  0  0
   57.2525   28.0512   42.2376 H   0  0  0  0  0  0  0  0  0  0  0  0
   58.7994   27.1144   44.1414 H   0  0  0  0  0  0  0  0  0  0  0  0
   59.6188   28.4454   43.2021 H   0  0  0  0  0  0  0  0  0  0  0  0
   60.6498   27.7196   45.4626 H   0  0  0  0  0  0  0  0  0  0  0  0
   60.4030   29.4950   45.1058 H   0  0  0  0  0  0  0  0  0  0  0  0
   59.8602   27.1343   47.7908 H   0  0  0  0  0  0  0  0  0  0  0  0
   58.1540   27.7142   48.1125 H   0  0  0  0  0  0  0  0  0  0  0  0
   56.3003   27.0628   46.6075 H   0  0  0  0  0  0  0  0  0  0  0  0
   55.3761   25.1602   45.2785 H   0  0  0  0  0  0  0  0  0  0  0  0
   57.2371   21.2879   45.4833 H   0  0  0  0  0  0  0  0  0  0  0  0
   56.0334   24.0242   42.4029 H   0  0  0  0  0  0  0  0  0  0  0  0
   60.2575   25.3568   46.2077 H   0  0  0  0  0  0  0  0  0  0  0  0
  1  2  1  0
  2  3  1  0
  3  4  2  0
  3  5  1  0
  5  6  1  0
  5  7  1  0
  7  8  1  0
  8  9  1  0
  9 10  1  0
 10 11  1  0
 11 12  2  0
 12 13  1  0
 13 14  2  0
 14 15  1  0
 15 16  1  0
 16 17  2  0
 17 18  1  0
 18 19  1  0
 14 20  1  0
 20 21  2  0
  9  2  1  0
 21 11  1  0
 19 15  2  0
  1 22  1  0
  1 23  1  0
  1 24  1  0
  2 25  1  1
  6 26  1  0
  6 27  1  0
  6 28  1  0
  7 29  1  0
  7 30  1  0
  8 31  1  0
  8 32  1  0
 10 33  1  0
 10 34  1  0
 12 35  1  0
 13 36  1  0
 16 37  1  0
 19 38  1  0
 21 39  1  0
M  END
>  <UniqueID>  (2) 
2

>  <SMILES>  (2) 
C[C@H]1C(=O)N(C)CCN1Cc1ccc(-c2cnoc2)nc1

>  <Energy>  (2) 
77.75812623426062

>  <Genealogy>  (2) 
C[C@H]1C(=O)N(C)CCN1Cc1ccc(-c2cnoc2)nc1 (chirality)
C[C@H]1C(=O)N(C)CCN1Cc1ccc(-c2cnoc2)nc1 (3D coordinates assigned)
C[C@H]1C(=O)N(C)CCN1Cc1ccc(-c2cnoc2)nc1 (nonaromatic ring conformer: 77.75812623426062 kcal/mol)

>  <smiles>  (2) 
CC1C(=O)N(C)CCN1Cc1ccc(-c2cnoc2)nc1

>  <score_type>  (2) 
oracle

>  <origin>  (2) 
adg

>  <m_score__min__energy>  (2) 
-7.1299999999999999

>  <m_primary>  (2) 
energy

$$$$
2:0
     RDKit          3D

 49 51  0  0  0  0  0  0  0  0999 V2000
   61.4930   30.9650   47.3140 C   0  0  0  0  0  0  0  0  0  0  0  0
   61.9110   31.7210   48.5840 C   0  0  0  0  0  0  0  0  0  0  0  0
   62.0740   33.1790   48.3820 N   0  0  0  0  0  0  0  0  0  0  0  0
   63.4010   33.5410   47.8290 C   0  0  0  0  0  0  0  0  0  0  0  0
   63.2670   33.8470   46.3440 C   0  0  0  0  0  0  0  0  0  0  0  0
   61.6970   33.9660   49.5760 C   0  0  0  0  0  0  0  0  0  0  0  0
   60.1800   34.1300   49.6610 C   0  0  0  0  0  0  0  0  0  0  0  0
   59.6960   34.7010   48.4480 O   0  0  0  0  0  0  0  0  0  0  0  0
   59.2180   33.9580   47.3590 C   0  0  0  0  0  0  0  0  0  0  0  0
   58.5620   32.7220   47.5160 C   0  0  0  0  0  0  0  0  0  0  0  0
   58.1070   32.0180   46.3980 C   0  0  0  0  0  0  0  0  0  0  0  0
   58.3130   32.5270   45.1050 C   0  0  0  0  0  0  0  0  0  0  0  0
   57.8270   31.7950   43.9150 C   0  0  0  0  0  0  0  0  0  0  0  0
   57.4020   32.3920   42.7890 N   0  0  0  0  0  0  0  0  0  0  0  0
   56.9400   31.4300   42.0050 N   0  0  0  0  0  0  0  0  0  0  0  0
   57.0820   30.2640   42.6180 N   0  0  0  0  0  0  0  0  0  0  0  0
   57.6320   30.4620   43.8060 N   0  0  0  0  0  0  0  0  0  0  0  0
   58.0070   29.4010   44.7010 C   0  0  0  0  0  0  0  0  0  0  0  0
   57.0310   28.6080   45.3300 C   0  0  0  0  0  0  0  0  0  0  0  0
   57.4100   27.5890   46.2100 C   0  0  0  0  0  0  0  0  0  0  0  0
   58.7620   27.3640   46.4790 C   0  0  0  0  0  0  0  0  0  0  0  0
   59.7380   28.1620   45.8750 C   0  0  0  0  0  0  0  0  0  0  0  0
   59.3620   29.1810   44.9940 C   0  0  0  0  0  0  0  0  0  0  0  0
   58.9480   33.7680   44.9520 C   0  0  0  0  0  0  0  0  0  0  0  0
   59.4030   34.4730   46.0710 C   0  0  0  0  0  0  0  0  0  0  0  0
   60.9783   30.0341   47.5941 H   0  0  0  0  0  0  0  0  0  0  0  0
   60.8147   31.5943   46.7192 H   0  0  0  0  0  0  0  0  0  0  0  0
   62.3867   30.7252   46.7192 H   0  0  0  0  0  0  0  0  0  0  0  0
   61.1409   31.5608   49.3529 H   0  0  0  0  0  0  0  0  0  0  0  0
   62.8927   31.3263   48.8848 H   0  0  0  0  0  0  0  0  0  0  0  0
   63.7865   34.4282   48.3526 H   0  0  0  0  0  0  0  0  0  0  0  0
   64.0972   32.7009   47.9683 H   0  0  0  0  0  0  0  0  0  0  0  0
   62.8288   34.8475   46.2139 H   0  0  0  0  0  0  0  0  0  0  0  0
   64.2604   33.8176   45.8725 H   0  0  0  0  0  0  0  0  0  0  0  0
   62.6149   33.0970   45.8725 H   0  0  0  0  0  0  0  0  0  0  0  0
   62.0547   33.4472   50.4776 H   0  0  0  0  0  0  0  0  0  0  0  0
   62.1558   34.9629   49.5005 H   0  0  0  0  0  0  0  0  0  0  0  0
   59.7128   33.1462   49.8154 H   0  0  0  0  0  0  0  0  0  0  0  0
   59.9289   34.7910   50.5036 H   0  0  0  0  0  0  0  0  0  0  0  0
   58.4070   32.3087   48.5235 H   0  0  0  0  0  0  0  0  0  0  0  0
   57.5843   31.0593   46.5312 H   0  0  0  0  0  0  0  0  0  0  0  0
   57.3850   33.4120   42.5640 H   0  0  0  0  0  0  0  0  0  0  0  0
   55.9649   28.7898   45.1292 H   0  0  0  0  0  0  0  0  0  0  0  0
   56.6427   26.9643   46.6906 H   0  0  0  0  0  0  0  0  0  0  0  0
   59.0590   26.5584   47.1666 H   0  0  0  0  0  0  0  0  0  0  0  0
   60.8022   27.9884   46.0928 H   0  0  0  0  0  0  0  0  0  0  0  0
   60.1322   29.8134   44.5282 H   0  0  0  0  0  0  0  0  0  0  0  0
   59.0891   34.1895   43.9458 H   0  0  0  0  0  0  0  0  0  0  0  0
   59.9103   35.4399   45.9376 H   0  0  0  0  0  0  0  0  0  0  0  0
  1  2  1  0
  2  3  1  0
  3  4  1  0
  4  5  1  0
  3  6  1  0
  6  7  1  0
  7  8  1  0
  8  9  1  0
  9 10  2  0
 10 11  1  0
 11 12  2  0
 12 13  1  0
 13 14  2  0
 14 15  1  0
 15 16  2  0
 16 17  1  0
 17 18  1  0
 18 19  2  0
 19 20  1  0
 20 21  2  0
 21 22  1  0
 22 23  2  0
 12 24  1  0
 24 25  2  0
 25  9  1  0
 17 13  1  0
 23 18  1  0
  1 26  1  0
  1 27  1  0
  1 28  1  0
  2 29  1  0
  2 30  1  0
  4 31  1  0
  4 32  1  0
  5 33  1  0
  5 34  1  0
  5 35  1  0
  6 36  1  0
  6 37  1  0
  7 38  1  0
  7 39  1  0
 10 40  1  0
 11 41  1  0
 14 42  1  0
 19 43  1  0
 20 44  1  0
 21 45  1  0
 22 46  1  0
 23 47  1  0
 24 48  1  0
 25 49  1  0
M  CHG  1  14   1
M  END
>  <UniqueID>  (3) 
3

>  <SMILES>  (3) 
CCN(CC)CCOc1ccc(-c2[nH+]nnn2-c2ccccc2)cc1

>  <Energy>  (3) 
99.53670341088815

>  <Genealogy>  (3) 
CCN(CC)CCOc1ccc(-c2[nH+]nnn2-c2ccccc2)cc1 (protonated)
CCN(CC)CCOc1ccc(-c2[nH+]nnn2-c2ccccc2)cc1 (3D coordinates assigned)
CCN(CC)CCOc1ccc(-c2[nH+]nnn2-c2ccccc2)cc1 (optimized conformer: 99.53670341088815 kcal/mol)

>  <smiles>  (3) 
CCN(CC)CCOc1ccc(-c2nnnn2-c2ccccc2)cc1

>  <score_type>  (3) 
oracle

>  <origin>  (3) 
adg

>  <m_score__min__energy>  (3) 
-5.8799999999999999

>  <m_primary>  (3) 
energy

$$$$
3:0
     RDKit          3D

 54 57  0  0  0  0  0  0  0  0999 V2000
   59.2590   29.4070   44.8860 C   0  0  0  0  0  0  0  0  0  0  0  0
   57.8830   29.1350   45.4940 C   0  0  0  0  0  0  0  0  0  0  0  0
   56.8880   30.1310   45.0300 N   0  0  0  0  0  0  0  0  0  0  0  0
   55.8880   29.5190   44.1250 C   0  0  0  0  0  0  0  0  0  0  0  0
   56.2670   29.7580   42.6650 C   0  0  0  0  0  0  0  0  0  0  0  0
   57.5460   31.3110   44.4070 C   0  0  0  0  0  0  0  0  0  0  0  0
   57.0000   32.6080   45.0120 C   0  0  0  0  0  0  0  0  0  0  0  0
   58.0870   33.4800   45.4570 N   0  0  0  0  0  0  0  0  0  0  0  0
   58.4460   34.6530   44.8800 C   0  0  0  0  0  0  0  0  0  0  0  0
   59.5730   35.1790   45.5010 C   0  0  0  0  0  0  0  0  0  0  0  0
   59.9030   34.2720   46.4860 C   0  0  0  0  0  0  0  0  0  0  0  0
   60.9610   34.2740   47.3910 C   0  0  0  0  0  0  0  0  0  0  0  0
   61.0800   33.1790   48.2720 C   0  0  0  0  0  0  0  0  0  0  0  0
   62.1700   33.1230   49.2090 N   0  0  0  0  0  0  0  0  0  0  0  0
   61.9330   33.2350   50.5730 C   0  0  0  0  0  0  0  0  0  0  0  0
   60.5480   33.4520   51.1160 C   0  0  0  0  0  0  0  0  0  0  0  0
   62.9710   33.1560   51.4640 N   0  0  0  0  0  0  0  0  0  0  0  0
   64.2200   32.9860   50.9820 C   0  0  0  0  0  0  0  0  0  0  0  0
   65.4200   32.8640   51.6330 C   0  0  0  0  0  0  0  0  0  0  0  0
   66.3610   32.7120   50.6690 N   0  0  0  0  0  0  0  0  0  0  0  0
   67.7780   32.4780   50.9040 C   0  0  0  0  0  0  0  0  0  0  0  0
   65.8040   32.7110   49.4590 N   0  0  0  0  0  0  0  0  0  0  0  0
   64.4870   32.8900   49.6600 C   0  0  0  0  0  0  0  0  0  0  0  0
   63.4540   32.9560   48.7380 C   0  0  0  0  0  0  0  0  0  0  0  0
   63.6940   32.8570   47.5030 O   0  0  0  0  0  0  0  0  0  0  0  0
   60.1290   32.1290   48.2290 C   0  0  0  0  0  0  0  0  0  0  0  0
   59.0680   32.1600   47.3060 C   0  0  0  0  0  0  0  0  0  0  0  0
   58.9850   33.2540   46.4390 C   0  0  0  0  0  0  0  0  0  0  0  0
   59.9937   29.5522   45.6917 H   0  0  0  0  0  0  0  0  0  0  0  0
   59.5609   28.5512   44.2644 H   0  0  0  0  0  0  0  0  0  0  0  0
   59.2125   30.3133   44.2644 H   0  0  0  0  0  0  0  0  0  0  0  0
   57.5509   28.1296   45.1958 H   0  0  0  0  0  0  0  0  0  0  0  0
   57.9645   29.2065   46.5886 H   0  0  0  0  0  0  0  0  0  0  0  0
   55.8437   28.4363   44.3144 H   0  0  0  0  0  0  0  0  0  0  0  0
   54.9075   29.9792   44.3168 H   0  0  0  0  0  0  0  0  0  0  0  0
   57.1966   30.3442   42.6187 H   0  0  0  0  0  0  0  0  0  0  0  0
   56.4178   28.7913   42.1623 H   0  0  0  0  0  0  0  0  0  0  0  0
   55.4596   30.3107   42.1623 H   0  0  0  0  0  0  0  0  0  0  0  0
   58.6303   31.2568   44.5840 H   0  0  0  0  0  0  0  0  0  0  0  0
   57.3387   31.3062   43.3267 H   0  0  0  0  0  0  0  0  0  0  0  0
   56.4041   33.1356   44.2527 H   0  0  0  0  0  0  0  0  0  0  0  0
   56.3782   32.3527   45.8827 H   0  0  0  0  0  0  0  0  0  0  0  0
   57.9185   35.1235   44.0371 H   0  0  0  0  0  0  0  0  0  0  0  0
   60.0912   36.1185   45.2584 H   0  0  0  0  0  0  0  0  0  0  0  0
   61.6821   35.1042   47.4181 H   0  0  0  0  0  0  0  0  0  0  0  0
   60.5803   33.4469   52.2155 H   0  0  0  0  0  0  0  0  0  0  0  0
   60.1642   34.4212   50.7649 H   0  0  0  0  0  0  0  0  0  0  0  0
   59.8861   32.6466   50.7649 H   0  0  0  0  0  0  0  0  0  0  0  0
   65.5863   32.8852   52.7202 H   0  0  0  0  0  0  0  0  0  0  0  0
   67.9698   32.4463   51.9867 H   0  0  0  0  0  0  0  0  0  0  0  0
   68.0713   31.5193   50.4515 H   0  0  0  0  0  0  0  0  0  0  0  0
   68.3640   33.2915   50.4515 H   0  0  0  0  0  0  0  0  0  0  0  0
   60.2215   31.2816   48.9242 H   0  0  0  0  0  0  0  0  0  0  0  0
   58.3263   31.3486   47.2674 H   0  0  0  0  0  0  0  0  0  0  0  0
  1  2  1  0
  2  3  1  0
  3  4  1  0
  4  5  1  0
  3  6  1  0
  6  7  1  0
  7  8  1  0
  8  9  1  0
  9 10  2  0
 10 11  1  0
 11 12  2  0
 12 13  1  0
 13 14  1  0
 14 15  1  0
 15 16  1  0
 15 17  2  0
 17 18  1  0
 18 19  2  0
 19 20  1  0
 20 21  1  0
 20 22  1  0
 22 23  2  0
 23 24  1  0
 24 25  2  0
 13 26  2  0
 26 27  1  0
 27 28  2  0
 28  8  1  0
 28 11  1  0
 24 14  1  0
 23 18  1  0
  1 29  1  0
  1 30  1  0
  1 31  1  0
  2 32  1  0
  2 33  1  0
  4 34  1  0
  4 35  1  0
  5 36  1  0
  5 37  1  0
  5 38  1  0
  6 39  1  0
  6 40  1  0
  7 41  1  0
  7 42  1  0
  9 43  1  0
 10 44  1  0
 12 45  1  0
 16 46  1  0
 16 47  1  0
 16 48  1  0
 19 49  1  0
 21 50  1  0
 21 51  1  0
 21 52  1  0
 26 53  1  0
 27 54  1  0
M  END
>  <UniqueID>  (4) 
4

>  <SMILES>  (4) 
CCN(CC)CCn1ccc2cc(-n3c(C)nc4cn(C)nc4c3=O)ccc21

>  <Energy>  (4) 
135.3299542958567

>  <Genealogy>  (4) 
CCN(CC)CCn1ccc2cc(-n3c(C)nc4cn(C)nc4c3=O)ccc21 (3D coordinates assigned)
CCN(CC)CCn1ccc2cc(-n3c(C)nc4cn(C)nc4c3=O)ccc21 (optimized conformer: 135.3299542958567 kcal/mol)

>  <smiles>  (4) 
CCN(CC)CCn1ccc2cc(-n3c(C)nc4cn(C)nc4c3=O)ccc21

>  <score_type>  (4) 
oracle

>  <origin>  (4) 
adg

>  <m_score__min__energy>  (4) 
-8.0800000000000001

>  <m_primary>  (4) 
energy

$$$$
4:0
     RDKit          3D

 33 35  0  0  0  0  0  0  0  0999 V2000
   58.9155   33.7777   48.5813 H   0  0  0  0  0  0  0  0  0  0  0  0
   58.8970   33.8530   47.4840 C   0  0  0  0  0  0  0  0  0  0  0  0
   58.3340   32.8610   46.7440 N   0  0  0  0  0  0  0  0  0  0  0  0
   58.2810   32.9040   45.3820 C   0  0  0  0  0  0  0  0  0  0  0  0
   57.6480   31.7780   44.6520 C   0  0  0  0  0  0  0  0  0  0  0  0
   57.3850   31.7730   43.2760 C   0  0  0  0  0  0  0  0  0  0  0  0
   57.6181   32.5865   42.5732 H   0  0  0  0  0  0  0  0  0  0  0  0
   56.6510   30.3090   42.8810 S   0  0  0  0  0  0  0  0  0  0  0  0
   56.7050   29.7340   44.4640 C   0  0  0  0  0  0  0  0  0  0  0  0
   56.2370   28.5940   44.8800 N   0  0  0  0  0  0  0  0  0  0  0  0
   57.0050   27.5760   45.5370 C   0  0  0  0  0  0  0  0  0  0  0  0
   58.4010   27.6880   45.5510 C   0  0  0  0  0  0  0  0  0  0  0  0
   58.8847   28.5526   45.0730 H   0  0  0  0  0  0  0  0  0  0  0  0
   59.1830   26.7090   46.1680 C   0  0  0  0  0  0  0  0  0  0  0  0
   60.2781   26.8112   46.1881 H   0  0  0  0  0  0  0  0  0  0  0  0
   58.5740   25.6010   46.7590 C   0  0  0  0  0  0  0  0  0  0  0  0
   59.1898   24.8365   47.2554 H   0  0  0  0  0  0  0  0  0  0  0  0
   57.1850   25.4600   46.7220 C   0  0  0  0  0  0  0  0  0  0  0  0
   56.7120   24.5809   47.1839 H   0  0  0  0  0  0  0  0  0  0  0  0
   56.3860   26.4380   46.0960 C   0  0  0  0  0  0  0  0  0  0  0  0
   54.9920   26.3050   45.9950 O   0  0  0  0  0  0  0  0  0  0  0  0
   54.3190   25.1060   45.6210 C   0  0  0  0  0  0  0  0  0  0  0  0
   54.0126   24.5601   46.5255 H   0  0  0  0  0  0  0  0  0  0  0  0
   53.4292   25.3558   45.0244 H   0  0  0  0  0  0  0  0  0  0  0  0
   54.9956   24.4765   45.0244 H   0  0  0  0  0  0  0  0  0  0  0  0
   57.2570   30.6400   45.2950 N   0  0  0  0  0  0  0  0  0  0  0  0
   57.3710   30.4770   46.3220 H   0  0  0  0  0  0  0  0  0  0  0  0
   58.8350   34.0160   44.7170 C   0  0  0  0  0  0  0  0  0  0  0  0
   58.8076   34.0739   43.6189 H   0  0  0  0  0  0  0  0  0  0  0  0
   59.4190   35.0440   45.4600 C   0  0  0  0  0  0  0  0  0  0  0  0
   59.8536   35.9149   44.9475 H   0  0  0  0  0  0  0  0  0  0  0  0
   59.4510   34.9660   46.8520 C   0  0  0  0  0  0  0  0  0  0  0  0
   59.9077   35.7726   47.4444 H   0  0  0  0  0  0  0  0  0  0  0  0
  1  2  1  0
  2  3  2  0
  3  4  1  0
  4  5  1  0
  5  6  2  0
  6  7  1  0
  6  8  1  0
  8  9  1  0
  9 10  2  0
 10 11  1  0
 11 12  2  0
 12 13  1  0
 12 14  1  0
 14 15  1  0
 14 16  2  0
 16 17  1  0
 16 18  1  0
 18 19  1  0
 18 20  2  0
 20 21  1  0
 21 22  1  0
 22 23  1  0
 22 24  1  0
 22 25  1  0
  9 26  1  0
 26 27  1  0
  4 28  2  0
 28 29  1  0
 28 30  1  0
 30 31  1  0
 30 32  2  0
 32 33  1  0
 32  2  1  0
 26  5  1  0
 20 11  1  0
M  END
>  <UniqueID>  (5) 
5

>  <SMILES>  (5) 
COc1ccccc1/N=c1/[nH]c(-c2ccccn2)cs1

>  <Energy>  (5) 
75.62619932271649

>  <Genealogy>  (5) 
COc1ccccc1/N=c1/[nH]c(-c2ccccn2)cs1 (cis-trans isomerization)
COc1ccccc1/N=c1/[nH]c(-c2ccccn2)cs1 (3D coordinates assigned)
COc1ccccc1/N=c1/[nH]c(-c2ccccn2)cs1 (optimized conformer: 75.62619932271649 kcal/mol)

>  <smiles>  (5) 
COc1ccccc1N=c1[nH]c(-c2ccccn2)cs1

>  <score_type>  (5) 
oracle

>  <origin>  (5) 
adg

>  <m_score__min__energy>  (5) 
-7.6699999999999999

>  <m_primary>  (5) 
energy

$$$$
5:0
     RDKit          3D

 47 48  0  0  0  0  0  0  0  0999 V2000
   55.9010   23.4500   46.7770 C   0  0  0  0  0  0  0  0  0  0  0  0
   56.6890   24.3830   47.5080 O   0  0  0  0  0  0  0  0  0  0  0  0
   57.1560   25.6120   47.0150 C   0  0  0  0  0  0  0  0  0  0  0  0
   58.4140   25.9650   47.3170 C   0  0  0  0  0  0  0  0  0  0  0  0
   58.9770   27.2600   46.8840 C   0  0  0  0  0  0  0  0  0  0  0  0
   60.2190   27.4310   46.9570 O   0  0  0  0  0  0  0  0  0  0  0  0
   58.0220   28.3390   46.4000 C   0  0  1  0  0  0  0  0  0  0  0  0
   58.5980   29.6290   45.7800 C   0  0  0  0  0  0  0  0  0  0  0  0
   59.7220   30.3690   46.5080 C   0  0  0  0  0  0  0  0  0  0  0  0
   59.2180   31.2420   47.5710 N   0  0  0  0  0  0  0  0  0  0  0  0
   59.6050   32.5880   47.8810 C   0  0  0  0  0  0  0  0  0  0  0  0
   58.8580   33.2640   48.6370 O   0  0  0  0  0  0  0  0  0  0  0  0
   60.8590   33.2160   47.3290 C   0  0  0  0  0  0  0  0  0  0  0  0
   60.5100   34.2810   46.2840 C   0  0  0  0  0  0  0  0  0  0  0  0
   61.7120   33.8260   48.4510 C   0  0  0  0  0  0  0  0  0  0  0  0
   57.8300   30.2770   44.8420 C   0  0  0  0  0  0  0  0  0  0  0  0
   58.1130   31.7040   44.3780 C   0  0  0  0  0  0  0  0  0  0  0  0
   56.9730   32.5510   44.5190 O   0  0  0  0  0  0  0  0  0  0  0  0
   56.9350   33.6380   45.3990 C   0  0  0  0  0  0  0  0  0  0  0  0
   57.2230   33.4340   46.7800 N   0  0  0  0  0  0  0  0  0  0  0  0
   56.6530   34.7940   44.9840 O   0  0  0  0  0  0  0  0  0  0  0  0
   56.7350   29.5020   44.1200 C   0  0  0  0  0  0  0  0  0  0  0  0
   56.0830   28.5950   44.9830 O   0  0  0  0  0  0  0  0  0  0  0  0
   57.0270   27.6540   45.4430 C   0  0  2  0  0  0  0  0  0  0  0  0
   56.3370   26.5200   46.1600 C   0  0  0  0  0  0  0  0  0  0  0  0
   55.1030   26.3300   45.9940 O   0  0  0  0  0  0  0  0  0  0  0  0
   55.3543   22.8027   47.4785 H   0  0  0  0  0  0  0  0  0  0  0  0
   55.1837   23.9926   46.1438 H   0  0  0  0  0  0  0  0  0  0  0  0
   56.5560   22.8336   46.1438 H   0  0  0  0  0  0  0  0  0  0  0  0
   59.0408   25.2745   47.9004 H   0  0  0  0  0  0  0  0  0  0  0  0
   57.5618   28.7503   47.3105 H   0  0  0  0  0  0  0  0  0  0  0  0
   60.4030   29.6282   46.9523 H   0  0  0  0  0  0  0  0  0  0  0  0
   60.2397   31.0012   45.7716 H   0  0  0  0  0  0  0  0  0  0  0  0
   61.4495   32.4251   46.8433 H   0  0  0  0  0  0  0  0  0  0  0  0
   60.2062   35.2079   46.7925 H   0  0  0  0  0  0  0  0  0  0  0  0
   61.3901   34.4795   45.6547 H   0  0  0  0  0  0  0  0  0  0  0  0
   59.6831   33.9201   45.6547 H   0  0  0  0  0  0  0  0  0  0  0  0
   61.2994   33.5309   49.4270 H   0  0  0  0  0  0  0  0  0  0  0  0
   62.7462   33.4614   48.3648 H   0  0  0  0  0  0  0  0  0  0  0  0
   61.7014   34.9226   48.3648 H   0  0  0  0  0  0  0  0  0  0  0  0
   58.9370   32.1155   44.9793 H   0  0  0  0  0  0  0  0  0  0  0  0
   58.3771   31.6668   43.3108 H   0  0  0  0  0  0  0  0  0  0  0  0
   57.2000   34.2340   47.4500 H   0  0  0  0  0  0  0  0  0  0  0  0
   57.4620   32.4800   47.1310 H   0  0  0  0  0  0  0  0  0  0  0  0
   55.9949   30.2139   43.7256 H   0  0  0  0  0  0  0  0  0  0  0  0
   57.2008   28.9271   43.3060 H   0  0  0  0  0  0  0  0  0  0  0  0
   57.5689   27.2484   44.5759 H   0  0  0  0  0  0  0  0  0  0  0  0
  1  2  1  0
  2  3  1  0
  3  4  2  0
  4  5  1  0
  5  6  2  0
  5  7  1  0
  7  8  1  0
  8  9  1  0
  9 10  1  0
 10 11  1  0
 11 12  2  0
 11 13  1  0
 13 14  1  0
 13 15  1  0
  8 16  2  0
 16 17  1  0
 17 18  1  0
 18 19  1  0
 19 20  1  0
 19 21  2  0
 16 22  1  0
 22 23  1  0
 23 24  1  0
 24 25  1  0
 25 26  2  0
 25  3  1  0
 24  7  1  0
  1 27  1  0
  1 28  1  0
  1 29  1  0
  4 30  1  0
  7 31  1  1
  9 32  1  0
  9 33  1  0
 13 34  1  0
 14 35  1  0
 14 36  1  0
 14 37  1  0
 15 38  1  0
 15 39  1  0
 15 40  1  0
 17 41  1  0
 17 42  1  0
 20 43  1  0
 20 44  1  0
 22 45  1  0
 22 46  1  0
 24 47  1  6
M  CHG  1  10  -1
M  END
>  <UniqueID>  (6) 
6

>  <SMILES>  (6) 
COC1=CC(=O)[C@H]2C(C[N-]C(=O)C(C)C)=C(COC(N)=O)CO[C@@H]2C1=O

>  <Energy>  (6) 
57.508747902597875

>  <Genealogy>  (6) 
COC1=CC(=O)C2C(C[N-]C(=O)C(C)C)=C(COC(N)=O)COC2C1=O (protonated)
COC1=CC(=O)[C@H]2C(C[N-]C(=O)C(C)C)=C(COC(N)=O)CO[C@@H]2C1=O (chirality)
COC1=CC(=O)[C@H]2C(C[N-]C(=O)C(C)C)=C(COC(N)=O)CO[C@@H]2C1=O (3D coordinates assigned)
COC1=CC(=O)[C@H]2C(C[N-]C(=O)C(C)C)=C(COC(N)=O)CO[C@@H]2C1=O (nonaromatic ring conformer: 57.508747902597875 kcal/mol)

>  <smiles>  (6) 
COC1=CC(=O)C2C(CNC(=O)C(C)C)=C(COC(N)=O)COC2C1=O

>  <score_type>  (6) 
oracle

>  <origin>  (6) 
adg

>  <m_score__min__energy>  (6) 
-8.6199999999999992

>  <m_primary>  (6) 
energy

$$$$
6:0
     RDKit          3D

 40 43  0  0  1  0  0  0  0  0999 V2000
   54.0510   25.1890   45.6150 C   0  0  0  0  0  0  0  0  0  0  0  0
   55.2900   25.7880   45.9430 O   0  0  0  0  0  0  0  0  0  0  0  0
   56.4510   25.0660   45.7030 C   0  0  0  0  0  0  0  0  0  0  0  0
   56.4900   23.9300   44.9210 C   0  0  0  0  0  0  0  0  0  0  0  0
   57.7100   23.3200   44.7700 C   0  0  0  0  0  0  0  0  0  0  0  0
   58.8830   23.7500   45.3320 C   0  0  0  0  0  0  0  0  0  0  0  0
   58.8320   24.8860   46.1100 C   0  0  0  0  0  0  0  0  0  0  0  0
   57.6340   25.5340   46.2920 C   0  0  0  0  0  0  0  0  0  0  0  0
   57.5450   26.8050   47.1440 C   0  0  0  0  0  0  0  0  0  0  0  0
   58.1560   27.7300   46.2660 N   0  0  0  0  0  0  0  0  0  0  0  0
   57.6280   28.7130   45.7400 C   0  0  0  0  0  0  0  0  0  0  0  0
   56.5190   28.5160   44.9830 N   0  0  0  0  0  0  0  0  0  0  0  0
   55.8520   29.4900   44.3590 C   0  0  0  0  0  0  0  0  0  0  0  0
   56.3030   30.7420   44.4830 N   0  0  0  0  0  0  0  0  0  0  0  0
   57.3930   30.9740   45.2220 C   0  0  0  0  0  0  0  0  0  0  0  0
   58.1080   29.9820   45.8840 C   0  0  0  0  0  0  0  0  0  0  0  0
   59.2110   30.2090   46.6320 C   0  0  0  0  0  0  0  0  0  0  0  0
   59.6130   31.5370   46.7120 N   0  0  0  0  0  0  0  0  0  0  0  0
   58.9450   32.4920   46.0890 C   0  0  0  0  0  0  0  0  0  0  0  0
   57.8250   32.2640   45.3280 C   0  0  0  0  0  0  0  0  0  0  0  0
   57.4010   33.4810   44.8380 C   0  0  0  0  0  0  0  0  0  0  0  0
   58.2750   34.3760   45.3210 N   0  0  0  0  0  0  0  0  0  0  0  0
   59.1890   33.8110   46.0570 N   0  0  0  0  0  0  0  0  0  0  0  0
   60.2900   34.5070   46.7310 C   0  0  0  0  0  0  0  0  0  0  0  0
   53.5134   24.9291   46.5388 H   0  0  0  0  0  0  0  0  0  0  0  0
   53.4472   25.8947   45.0256 H   0  0  0  0  0  0  0  0  0  0  0  0
   54.2290   24.2775   45.0256 H   0  0  0  0  0  0  0  0  0  0  0  0
   55.5844   23.5314   44.4404 H   0  0  0  0  0  0  0  0  0  0  0  0
   57.7491   22.4135   44.1481 H   0  0  0  0  0  0  0  0  0  0  0  0
   59.8274   23.2102   45.1687 H   0  0  0  0  0  0  0  0  0  0  0  0
   59.7465   25.2726   46.5835 H   0  0  0  0  0  0  0  0  0  0  0  0
   56.5022   27.0776   47.3635 H   0  0  0  0  0  0  0  0  0  0  0  0
   58.0107   26.7311   48.1378 H   0  0  0  0  0  0  0  0  0  0  0  0
   56.1520   27.5470   44.8730 H   0  0  0  0  0  0  0  0  0  0  0  0
   54.9566   29.2682   43.7598 H   0  0  0  0  0  0  0  0  0  0  0  0
   59.7528   29.3988   47.1420 H   0  0  0  0  0  0  0  0  0  0  0  0
   56.5332   33.6757   44.1907 H   0  0  0  0  0  0  0  0  0  0  0  0
   60.1624   34.4263   47.8206 H   0  0  0  0  0  0  0  0  0  0  0  0
   61.2466   34.0492   46.4390 H   0  0  0  0  0  0  0  0  0  0  0  0
   60.2868   35.5675   46.4390 H   0  0  0  0  0  0  0  0  0  0  0  0
  1  2  1  0
  2  3  1  0
  3  4  2  0
  4  5  1  0
  5  6  2  0
  6  7  1  0
  7  8  2  0
  8  9  1  0
  9 10  1  0
 10 11  2  0
 11 12  1  0
 12 13  1  0
 13 14  2  0
 14 15  1  0
 15 16  2  0
 16 17  1  0
 17 18  2  0
 18 19  1  0
 19 20  2  0
 20 21  1  0
 21 22  2  0
 22 23  1  0
 23 24  1  0
  8  3  1  0
 16 11  1  0
 23 19  1  0
 20 15  1  0
  1 25  1  0
  1 26  1  0
  1 27  1  0
  4 28  1  0
  5 29  1  0
  6 30  1  0
  7 31  1  0
  9 32  1  0
  9 33  1  0
 12 34  1  0
 13 35  1  0
 17 36  1  0
 21 37  1  0
 24 38  1  0
 24 39  1  0
 24 40  1  0
M  END
>  <smiles>  (7) 
COc1ccccc1CN=c1[nH]cnc2c1cnc1c2cnn1C

>  <score_type>  (7) 
oracle

>  <origin>  (7) 
adg

>  <m_score__min__energy>  (7) 
-7.5999999999999996

>  <m_primary>  (7) 
energy

$$$$
7:0
     RDKit          3D

 54 56  0  0  0  0  0  0  0  0999 V2000
   58.3130   33.6160   52.2760 C   0  0  0  0  0  0  0  0  0  0  0  0
   58.8940   32.3900   51.5840 C   0  0  0  0  0  0  0  0  0  0  0  0
   59.5190   32.7660   50.2320 C   0  0  0  0  0  0  0  0  0  0  0  0
   59.3100   34.1860   49.8940 N   0  0  0  0  0  0  0  0  0  0  0  0
   59.9480   34.5930   48.6210 C   0  0  2  0  0  0  0  0  0  0  0  0
   58.9020   34.8700   47.4950 C   0  0  0  0  0  0  0  0  0  0  0  0
   59.3020   34.3460   46.1210 C   0  0  0  0  0  0  0  0  0  0  0  0
   59.0160   32.8790   46.1120 C   0  0  0  0  0  0  0  0  0  0  0  0
   57.9420   32.3790   45.3560 C   0  0  0  0  0  0  0  0  0  0  0  0
   57.5840   31.0270   45.4140 C   0  0  0  0  0  0  0  0  0  0  0  0
   56.5640   30.4910   44.6100 O   0  0  0  0  0  0  0  0  0  0  0  0
   56.7910   29.6800   43.4580 C   0  0  0  0  0  0  0  0  0  0  0  0
   58.2580   30.1730   46.2910 C   0  0  0  0  0  0  0  0  0  0  0  0
   57.8540   28.8240   46.3010 O   0  0  0  0  0  0  0  0  0  0  0  0
   58.7080   27.7060   46.0710 C   0  0  0  0  0  0  0  0  0  0  0  0
   59.2870   30.6810   47.1220 C   0  0  0  0  0  0  0  0  0  0  0  0
   59.8860   29.8340   48.0650 O   0  0  0  0  0  0  0  0  0  0  0  0
   59.2660   29.5070   49.3120 C   0  0  0  0  0  0  0  0  0  0  0  0
   59.7130   32.0310   46.9890 C   0  0  0  0  0  0  0  0  0  0  0  0
   61.0270   32.4650   47.5600 C   0  0  0  0  0  0  0  0  0  0  0  0
   62.0930   31.6500   47.1320 C   0  0  0  0  0  0  0  0  0  0  0  0
   63.4060   31.5890   47.5660 C   0  0  0  0  0  0  0  0  0  0  0  0
   64.0340   32.3260   48.5530 C   0  0  0  0  0  0  0  0  0  0  0  0
   63.5560   33.4310   49.2260 C   0  0  0  0  0  0  0  0  0  0  0  0
   64.3630   33.9840   50.0380 O   0  0  0  0  0  0  0  0  0  0  0  0
   62.2950   34.0190   49.0900 C   0  0  0  0  0  0  0  0  0  0  0  0
   61.1450   33.6480   48.3510 C   0  0  0  0  0  0  0  0  0  0  0  0
   58.3749   33.4853   53.3665 H   0  0  0  0  0  0  0  0  0  0  0  0
   58.8838   34.5087   51.9807 H   0  0  0  0  0  0  0  0  0  0  0  0
   57.2606   33.7395   51.9807 H   0  0  0  0  0  0  0  0  0  0  0  0
   59.6683   31.9468   52.2275 H   0  0  0  0  0  0  0  0  0  0  0  0
   58.0818   31.6696   51.4066 H   0  0  0  0  0  0  0  0  0  0  0  0
   60.6002   32.5681   50.2749 H   0  0  0  0  0  0  0  0  0  0  0  0
   59.0300   32.1599   49.4552 H   0  0  0  0  0  0  0  0  0  0  0  0
   59.5800   34.7960   50.7010 H   0  0  0  0  0  0  0  0  0  0  0  0
   60.4098   35.5901   48.6714 H   0  0  0  0  0  0  0  0  0  0  0  0
   57.9532   34.3933   47.7821 H   0  0  0  0  0  0  0  0  0  0  0  0
   58.8222   35.9632   47.4029 H   0  0  0  0  0  0  0  0  0  0  0  0
   58.7151   34.8500   45.3390 H   0  0  0  0  0  0  0  0  0  0  0  0
   60.3664   34.5395   45.9219 H   0  0  0  0  0  0  0  0  0  0  0  0
   57.3730   33.0616   44.7077 H   0  0  0  0  0  0  0  0  0  0  0  0
   57.0750   28.6654   43.7741 H   0  0  0  0  0  0  0  0  0  0  0  0
   55.8716   29.6326   42.8560 H   0  0  0  0  0  0  0  0  0  0  0  0
   57.6014   30.1168   42.8560 H   0  0  0  0  0  0  0  0  0  0  0  0
   59.0292   27.2855   47.0353 H   0  0  0  0  0  0  0  0  0  0  0  0
   58.1631   26.9397   45.5001 H   0  0  0  0  0  0  0  0  0  0  0  0
   59.5906   28.0301   45.5001 H   0  0  0  0  0  0  0  0  0  0  0  0
   59.9067   29.8449   50.1398 H   0  0  0  0  0  0  0  0  0  0  0  0
   58.2883   30.0067   49.3775 H   0  0  0  0  0  0  0  0  0  0  0  0
   59.1262   28.4179   49.3775 H   0  0  0  0  0  0  0  0  0  0  0  0
   61.8416   30.9490   46.3224 H   0  0  0  0  0  0  0  0  0  0  0  0
   64.0391   30.8499   47.0533 H   0  0  0  0  0  0  0  0  0  0  0  0
   65.0416   31.9886   48.8373 H   0  0  0  0  0  0  0  0  0  0  0  0
   62.1724   34.9473   49.6673 H   0  0  0  0  0  0  0  0  0  0  0  0
  1  2  1  0
  2  3  1  0
  3  4  1  0
  4  5  1  0
  5  6  1  0
  6  7  1  0
  7  8  1  0
  8  9  2  0
  9 10  1  0
 10 11  1  0
 11 12  1  0
 10 13  2  0
 13 14  1  0
 14 15  1  0
 13 16  1  0
 16 17  1  0
 17 18  1  0
 16 19  2  0
 19 20  1  0
 20 21  2  0
 21 22  1  0
 22 23  2  0
 23 24  1  0
 24 25  2  0
 24 26  1  0
 26 27  2  0
 27  5  1  0
 19  8  1  0
 27 20  1  0
  1 28  1  0
  1 29  1  0
  1 30  1  0
  2 31  1  0
  2 32  1  0
  3 33  1  0
  3 34  1  0
  4 35  1  0
  5 36  1  1
  6 37  1  0
  6 38  1  0
  7 39  1  0
  7 40  1  0
  9 41  1  0
 12 42  1  0
 12 43  1  0
 12 44  1  0
 15 45  1  0
 15 46  1  0
 15 47  1  0
 18 48  1  0
 18 49  1  0
 18 50  1  0
 21 51  1  0
 22 52  1  0
 23 53  1  0
 26 54  1  0
M  END
>  <UniqueID>  (8) 
7

>  <SMILES>  (8) 
CCCN[C@@H]1CCc2cc(OC)c(OC)c(OC)c2-c2cccc(=O)cc21

>  <Energy>  (8) 
111.32089745226732

>  <Genealogy>  (8) 
CCCN[C@@H]1CCc2cc(OC)c(OC)c(OC)c2-c2cccc(=O)cc21 (chirality)
CCCN[C@@H]1CCc2cc(OC)c(OC)c(OC)c2-c2cccc(=O)cc21 (3D coordinates assigned)
CCCN[C@@H]1CCc2cc(OC)c(OC)c(OC)c2-c2cccc(=O)cc21 (nonaromatic ring conformer: 111.32089745226732 kcal/mol)

>  <smiles>  (8) 
CCCNC1CCc2cc(OC)c(OC)c(OC)c2-c2cccc(=O)cc21

>  <score_type>  (8) 
oracle

>  <origin>  (8) 
adg

>  <m_score__min__energy>  (8) 
-5.7599999999999998

>  <m_primary>  (8) 
energy

$$$$
8:0
     RDKit          3D

 32 34  0  0  1  0  0  0  0  0999 V2000
   60.2180   34.1740   48.1380 C   0  0  0  0  0  0  0  0  0  0  0  0
   58.8970   34.2430   47.6490 O   0  0  0  0  0  0  0  0  0  0  0  0
   58.6090   33.5870   46.4620 C   0  0  0  0  0  0  0  0  0  0  0  0
   58.8150   34.2560   45.2650 C   0  0  0  0  0  0  0  0  0  0  0  0
   58.5310   33.6130   44.0760 C   0  0  0  0  0  0  0  0  0  0  0  0
   58.0450   32.3050   44.0590 C   0  0  0  0  0  0  0  0  0  0  0  0
   57.8470   31.6540   45.2810 C   0  0  0  0  0  0  0  0  0  0  0  0
   57.3370   30.2830   45.3200 C   0  0  0  0  0  0  0  0  0  0  0  0
   56.0900   29.9190   44.9190 N   0  0  0  0  0  0  0  0  0  0  0  0
   56.0110   28.5990   45.1090 N   0  0  0  0  0  0  0  0  0  0  0  0
   57.1750   28.1390   45.6150 C   0  0  0  0  0  0  0  0  0  0  0  0
   57.3700   26.9050   45.8910 N   0  0  0  0  0  0  0  0  0  0  0  0
   56.3010   25.9910   45.7210 C   0  0  0  0  0  0  0  0  0  0  0  0
   55.1040   26.3240   46.0200 O   0  0  0  0  0  0  0  0  0  0  0  0
   56.4740   24.6120   45.1970 C   0  0  0  0  0  0  0  0  0  0  0  0
   57.7810   24.0180   44.9170 C   0  0  0  0  0  0  0  0  0  0  0  0
   57.0010   24.5780   43.7560 C   0  0  0  0  0  0  0  0  0  0  0  0
   57.9410   29.1870   45.7240 O   0  0  0  0  0  0  0  0  0  0  0  0
   58.1280   32.2910   46.4810 C   0  0  0  0  0  0  0  0  0  0  0  0
   60.2023   34.1748   49.2379 H   0  0  0  0  0  0  0  0  0  0  0  0
   60.6942   33.2498   47.7788 H   0  0  0  0  0  0  0  0  0  0  0  0
   60.7879   35.0436   47.7788 H   0  0  0  0  0  0  0  0  0  0  0  0
   59.2000   35.2864   45.2624 H   0  0  0  0  0  0  0  0  0  0  0  0
   58.6909   34.1418   43.1248 H   0  0  0  0  0  0  0  0  0  0  0  0
   57.8231   31.7985   43.1081 H   0  0  0  0  0  0  0  0  0  0  0  0
   55.1350   28.0800   44.8700 H   0  0  0  0  0  0  0  0  0  0  0  0
   55.6255   24.2333   45.7858 H   0  0  0  0  0  0  0  0  0  0  0  0
   58.6943   24.5291   45.2555 H   0  0  0  0  0  0  0  0  0  0  0  0
   58.2381   23.0405   45.1305 H   0  0  0  0  0  0  0  0  0  0  0  0
   57.3278   25.5042   43.2606 H   0  0  0  0  0  0  0  0  0  0  0  0
   56.6389   24.1997   42.7887 H   0  0  0  0  0  0  0  0  0  0  0  0
   57.9698   31.7706   47.4371 H   0  0  0  0  0  0  0  0  0  0  0  0
  1  2  1  0
  2  3  1  0
  3  4  2  0
  4  5  1  0
  5  6  2  0
  6  7  1  0
  7  8  1  0
  8  9  2  0
  9 10  1  0
 10 11  1  0
 11 12  2  0
 12 13  1  0
 13 14  2  0
 13 15  1  0
 15 16  1  0
 16 17  1  0
 11 18  1  0
  7 19  2  0
 19  3  1  0
 18  8  1  0
 17 15  1  0
  1 20  1  0
  1 21  1  0
  1 22  1  0
  4 23  1  0
  5 24  1  0
  6 25  1  0
 10 26  1  0
 15 27  1  0
 16 28  1  0
 16 29  1  0
 17 30  1  0
 17 31  1  0
 19 32  1  0
M  END
>  <smiles>  (9) 
COc1cccc(-c2n[nH]c(=NC(=O)C3CC3)o2)c1

>  <score_type>  (9) 
oracle

>  <origin>  (9) 
adg

>  <m_score__min__energy>  (9) 
-7.2300000000000004

>  <m_primary>  (9) 
energy

$$$$
9:0
     RDKit          3D

 62 64  0  0  0  0  0  0  0  0999 V2000
   54.5420   30.3690   52.3760 C   0  0  0  0  0  0  0  0  0  0  0  0
   55.8240   29.7520   52.4290 O   0  0  0  0  0  0  0  0  0  0  0  0
   57.0130   30.3560   51.9890 C   0  0  0  0  0  0  0  0  0  0  0  0
   57.0250   31.5840   51.2990 C   0  0  0  0  0  0  0  0  0  0  0  0
   58.2360   32.1510   50.8910 C   0  0  0  0  0  0  0  0  0  0  0  0
   59.4480   31.5050   51.1680 C   0  0  0  0  0  0  0  0  0  0  0  0
   60.9830   32.2210   50.6770 S   0  0  0  0  0  0  0  0  0  0  0  0
   61.7180   32.6570   51.9150 O   0  0  0  0  0  0  0  0  0  0  0  0
   60.7120   33.4300   49.8240 O   0  0  0  0  0  0  0  0  0  0  0  0
   61.9280   31.0330   49.7990 N   0  0  1  0  0  0  0  0  0  0  0  0
   61.0610   30.0190   49.1330 C   0  0  0  0  0  0  0  0  0  0  0  0
   61.1080   30.0540   47.5990 C   0  0  0  0  0  0  0  0  0  0  0  0
   61.1530   31.4900   47.0990 C   0  0  0  0  0  0  0  0  0  0  0  0
   62.4560   32.1690   47.5510 C   0  0  1  0  0  0  0  0  0  0  0  0
   62.3290   33.6790   47.4740 C   0  0  0  0  0  0  0  0  0  0  0  0
   63.1180   34.4080   48.1310 O   0  0  0  0  0  0  0  0  0  0  0  0
   61.2850   34.3200   46.7300 N   0  0  0  0  0  0  0  0  0  0  0  0
   60.0980   34.9630   47.2870 C   0  0  0  0  0  0  0  0  0  0  0  0
   58.9820   33.9350   47.4870 C   0  0  0  0  0  0  0  0  0  0  0  0
   58.5260   33.3850   46.1620 C   0  0  0  0  0  0  0  0  0  0  0  0
   58.9080   34.0090   44.9650 C   0  0  0  0  0  0  0  0  0  0  0  0
   58.5130   33.4790   43.7340 C   0  0  0  0  0  0  0  0  0  0  0  0
   57.7390   32.3030   43.6800 C   0  0  0  0  0  0  0  0  0  0  0  0
   57.3310   31.7360   42.4630 O   0  0  0  0  0  0  0  0  0  0  0  0
   57.4940   32.3500   41.1910 C   0  0  0  0  0  0  0  0  0  0  0  0
   57.3660   31.6630   44.8730 C   0  0  0  0  0  0  0  0  0  0  0  0
   56.6050   30.4860   44.7900 O   0  0  0  0  0  0  0  0  0  0  0  0
   56.9960   29.3200   44.0690 C   0  0  0  0  0  0  0  0  0  0  0  0
   57.7640   32.2080   46.1100 C   0  0  0  0  0  0  0  0  0  0  0  0
   62.9630   31.6540   48.9330 C   0  0  0  0  0  0  0  0  0  0  0  0
   59.4380   30.2770   51.8430 C   0  0  0  0  0  0  0  0  0  0  0  0
   58.2260   29.7080   52.2490 C   0  0  0  0  0  0  0  0  0  0  0  0
   54.1771   30.5446   53.3987 H   0  0  0  0  0  0  0  0  0  0  0  0
   54.6187   31.3288   51.8442 H   0  0  0  0  0  0  0  0  0  0  0  0
   53.8397   29.7102   51.8442 H   0  0  0  0  0  0  0  0  0  0  0  0
   56.0778   32.0988   51.0803 H   0  0  0  0  0  0  0  0  0  0  0  0
   58.2373   33.1088   50.3500 H   0  0  0  0  0  0  0  0  0  0  0  0
   62.4570   30.5270   50.5480 H   0  0  0  0  0  0  0  0  0  0  0  0
   61.3824   29.0206   49.4644 H   0  0  0  0  0  0  0  0  0  0  0  0
   60.0256   30.2536   49.4208 H   0  0  0  0  0  0  0  0  0  0  0  0
   62.0061   29.5219   47.2523 H   0  0  0  0  0  0  0  0  0  0  0  0
   60.2031   29.5686   47.2046 H   0  0  0  0  0  0  0  0  0  0  0  0
   61.1035   31.4938   46.0001 H   0  0  0  0  0  0  0  0  0  0  0  0
   60.2975   32.0420   47.5154 H   0  0  0  0  0  0  0  0  0  0  0  0
   63.2472   31.8776   46.8445 H   0  0  0  0  0  0  0  0  0  0  0  0
   60.3520   35.4163   48.2566 H   0  0  0  0  0  0  0  0  0  0  0  0
   59.7497   35.7382   46.5885 H   0  0  0  0  0  0  0  0  0  0  0  0
   59.3573   33.1105   48.1110 H   0  0  0  0  0  0  0  0  0  0  0  0
   58.1302   34.4269   47.9794 H   0  0  0  0  0  0  0  0  0  0  0  0
   59.5222   34.9210   44.9957 H   0  0  0  0  0  0  0  0  0  0  0  0
   58.8080   33.9828   42.8017 H   0  0  0  0  0  0  0  0  0  0  0  0
   57.7741   33.4051   41.3263 H   0  0  0  0  0  0  0  0  0  0  0  0
   58.2851   31.8295   40.6313 H   0  0  0  0  0  0  0  0  0  0  0  0
   56.5489   32.2904   40.6313 H   0  0  0  0  0  0  0  0  0  0  0  0
   57.2633   28.5228   44.7782 H   0  0  0  0  0  0  0  0  0  0  0  0
   56.1616   28.9832   43.4362 H   0  0  0  0  0  0  0  0  0  0  0  0
   57.8647   29.5543   43.4362 H   0  0  0  0  0  0  0  0  0  0  0  0
   57.4743   31.7055   47.0446 H   0  0  0  0  0  0  0  0  0  0  0  0
   63.7466   30.9042   48.7493 H   0  0  0  0  0  0  0  0  0  0  0  0
   63.3200   32.5418   49.4755 H   0  0  0  0  0  0  0  0  0  0  0  0
   60.3853   29.7592   52.0541 H   0  0  0  0  0  0  0  0  0  0  0  0
   58.2265   28.7431   52.7771 H   0  0  0  0  0  0  0  0  0  0  0  0
  1  2  1  0
  2  3  1  0
  3  4  2  0
  4  5  1  0
  5  6  2  0
  6  7  1  0
  7  8  2  0
  7  9  2  0
  7 10  1  0
 10 11  1  0
 11 12  1  0
 12 13  1  0
 13 14  1  0
 14 15  1  0
 15 16  2  0
 15 17  1  0
 17 18  1  0
 18 19  1  0
 19 20  1  0
 20 21  2  0
 21 22  1  0
 22 23  2  0
 23 24  1  0
 24 25  1  0
 23 26  1  0
 26 27  1  0
 27 28  1  0
 26 29  2  0
 14 30  1  0
  6 31  1  0
 31 32  2  0
 32  3  1  0
 30 10  1  0
 29 20  1  0
  1 33  1  0
  1 34  1  0
  1 35  1  0
  4 36  1  0
  5 37  1  0
 10 38  1  1
 11 39  1  0
 11 40  1  0
 12 41  1  0
 12 42  1  0
 13 43  1  0
 13 44  1  0
 14 45  1  6
 18 46  1  0
 18 47  1  0
 19 48  1  0
 19 49  1  0
 21 50  1  0
 22 51  1  0
 25 52  1  0
 25 53  1  0
 25 54  1  0
 28 55  1  0
 28 56  1  0
 28 57  1  0
 29 58  1  0
 30 59  1  0
 30 60  1  0
 31 61  1  0
 32 62  1  0
M  CHG  2  10   1  17  -1
M  END
>  <UniqueID>  (10) 
8

>  <SMILES>  (10) 
COc1ccc(S(=O)(=O)[N@H+]2CCC[C@@H](C(=O)[N-]CCc3ccc(OC)c(OC)c3)C2)cc1

>  <Energy>  (10) 
69.26964054976288

>  <Genealogy>  (10) 
COc1ccc(S(=O)(=O)[NH+]2CCCC(C(=O)[N-]CCc3ccc(OC)c(OC)c3)C2)cc1 (protonated)
COc1ccc(S(=O)(=O)[N@H+]2CCC[C@@H](C(=O)[N-]CCc3ccc(OC)c(OC)c3)C2)cc1 (chirality)
COc1ccc(S(=O)(=O)[N@H+]2CCC[C@@H](C(=O)[N-]CCc3ccc(OC)c(OC)c3)C2)cc1 (3D coordinates assigned)
COc1ccc(S(=O)(=O)[N@H+]2CCC[C@@H](C(=O)[N-]CCc3ccc(OC)c(OC)c3)C2)cc1 (nonaromatic ring conformer: 69.26964054976288 kcal/mol)

>  <smiles>  (10) 
COc1ccc(S(=O)(=O)N2CCCC(C(=O)NCCc3ccc(OC)c(OC)c3)C2)cc1

>  <score_type>  (10) 
oracle

>  <origin>  (10) 
adg

>  <m_score__min__energy>  (10) 
-8.4199999999999999

>  <m_primary>  (10) 
energy

$$$$
10:0
     RDKit          3D

 31 33  0  0  0  0  0  0  0  0999 V2000
   60.7970   32.7850   46.7460 C   0  0  0  0  0  0  0  0  0  0  0  0
   59.7830   31.7350   46.3830 C   0  0  0  0  0  0  0  0  0  0  0  0
   60.0310   30.4560   46.7700 N   0  0  0  0  0  0  0  0  0  0  0  0
   59.1710   29.4470   46.4930 C   0  0  0  0  0  0  0  0  0  0  0  0
   59.4620   28.1470   46.9150 C   0  0  0  0  0  0  0  0  0  0  0  0
   58.5740   27.1060   46.6400 C   0  0  0  0  0  0  0  0  0  0  0  0
   57.3820   27.3470   45.9330 C   0  0  0  0  0  0  0  0  0  0  0  0
   56.4500   26.2240   45.6580 C   0  0  0  0  0  0  0  0  0  0  0  0
   56.8840   25.0240   45.0720 C   0  0  0  0  0  0  0  0  0  0  0  0
   55.9650   24.0020   44.8410 C   0  0  0  0  0  0  0  0  0  0  0  0
   54.6320   24.1940   45.2030 C   0  0  0  0  0  0  0  0  0  0  0  0
   53.7810   23.2880   45.0040 O   0  0  0  0  0  0  0  0  0  0  0  0
   54.2560   25.3650   45.7760 N   0  0  0  0  0  0  0  0  0  0  0  0
   55.1360   26.3450   45.9970 N   0  0  0  0  0  0  0  0  0  0  0  0
   57.0900   28.6620   45.5200 C   0  0  0  0  0  0  0  0  0  0  0  0
   57.9830   29.7150   45.7940 C   0  0  0  0  0  0  0  0  0  0  0  0
   57.7320   31.0410   45.3950 C   0  0  0  0  0  0  0  0  0  0  0  0
   56.6610   31.3100   44.7820 O   0  0  0  0  0  0  0  0  0  0  0  0
   58.6430   32.0330   45.6720 N   0  0  0  0  0  0  0  0  0  0  0  0
   58.3710   33.4230   45.2590 C   0  0  0  0  0  0  0  0  0  0  0  0
   60.8703   32.8609   47.8409 H   0  0  0  0  0  0  0  0  0  0  0  0
   61.7772   32.5071   46.3313 H   0  0  0  0  0  0  0  0  0  0  0  0
   60.4851   33.7549   46.3313 H   0  0  0  0  0  0  0  0  0  0  0  0
   60.3927   27.9438   47.4650 H   0  0  0  0  0  0  0  0  0  0  0  0
   58.8087   26.0864   46.9797 H   0  0  0  0  0  0  0  0  0  0  0  0
   57.9409   24.8916   44.7974 H   0  0  0  0  0  0  0  0  0  0  0  0
   56.2867   23.0568   44.3794 H   0  0  0  0  0  0  0  0  0  0  0  0
   56.1551   28.8678   44.9782 H   0  0  0  0  0  0  0  0  0  0  0  0
   58.2476   34.0534   46.1520 H   0  0  0  0  0  0  0  0  0  0  0  0
   59.2127   33.7985   44.6585 H   0  0  0  0  0  0  0  0  0  0  0  0
   57.4498   33.4535   44.6585 H   0  0  0  0  0  0  0  0  0  0  0  0
  1  2  1  0
  2  3  2  0
  3  4  1  0
  4  5  2  0
  5  6  1  0
  6  7  2  0
  7  8  1  0
  8  9  1  0
  9 10  2  0
 10 11  1  0
 11 12  2  0
 11 13  1  0
 13 14  1  0
  7 15  1  0
 15 16  2  0
 16 17  1  0
 17 18  2  0
 17 19  1  0
 19 20  1  0
 19  2  1  0
 16  4  1  0
 14  8  2  0
  1 21  1  0
  1 22  1  0
  1 23  1  0
  5 24  1  0
  6 25  1  0
  9 26  1  0
 10 27  1  0
 15 28  1  0
 20 29  1  0
 20 30  1  0
 20 31  1  0
M  CHG  1  13  -1
M  END
>  <UniqueID>  (11) 
9

>  <SMILES>  (11) 
Cc1nc2ccc(-c3ccc(=O)[n-]n3)cc2c(=O)n1C

>  <Energy>  (11) 
46.91561522274422

>  <Genealogy>  (11) 
Cc1nc2ccc(-c3ccc(=O)[n-]n3)cc2c(=O)n1C (protonated)
Cc1nc2ccc(-c3ccc(=O)[n-]n3)cc2c(=O)n1C (3D coordinates assigned)
Cc1nc2ccc(-c3ccc(=O)[n-]n3)cc2c(=O)n1C (optimized conformer: 46.91561522274422 kcal/mol)

>  <smiles>  (11) 
Cc1nc2ccc(-c3ccc(=O)[nH]n3)cc2c(=O)n1C

>  <score_type>  (11) 
oracle

>  <origin>  (11) 
adg

>  <m_score__min__energy>  (11) 
-9.9199999999999999

>  <m_primary>  (11) 
energy

$$$$
11:0
     RDKit          3D

 33 35  0  0  0  0  0  0  0  0999 V2000
   57.4010   32.9810   44.9890 C   0  0  0  0  0  0  0  0  0  0  0  0
   56.8330   31.6790   44.9040 O   0  0  0  0  0  0  0  0  0  0  0  0
   57.5480   30.4880   45.0980 C   0  0  0  0  0  0  0  0  0  0  0  0
   58.9550   30.4580   45.1860 C   0  0  0  0  0  0  0  0  0  0  0  0
   59.6260   29.2480   45.3810 C   0  0  0  0  0  0  0  0  0  0  0  0
   58.9060   28.0550   45.4900 C   0  0  0  0  0  0  0  0  0  0  0  0
   59.5490   26.9060   45.6800 O   0  0  0  0  0  0  0  0  0  0  0  0
   58.9210   25.7380   45.7880 C   0  0  0  0  0  0  0  0  0  0  0  0
   59.6000   24.6990   46.0000 O   0  0  0  0  0  0  0  0  0  0  0  0
   57.5150   25.6720   45.6870 C   0  0  0  0  0  0  0  0  0  0  0  0
   56.7740   24.3920   45.8050 C   0  0  0  0  0  0  0  0  0  0  0  0
   55.9160   24.2720   46.7200 O   0  0  0  0  0  0  0  0  0  0  0  0
   56.9930   23.2610   44.8680 C   0  0  0  0  0  0  0  0  0  0  0  0
   56.4300   23.2610   43.5810 C   0  0  0  0  0  0  0  0  0  0  0  0
   56.6370   22.1780   42.7270 C   0  0  0  0  0  0  0  0  0  0  0  0
   57.3990   21.0950   43.1650 C   0  0  0  0  0  0  0  0  0  0  0  0
   57.9290   21.0960   44.4180 N   0  0  0  0  0  0  0  0  0  0  0  0
   57.7410   22.1410   45.2700 C   0  0  0  0  0  0  0  0  0  0  0  0
   56.8070   26.8670   45.5120 C   0  0  0  0  0  0  0  0  0  0  0  0
   57.5000   28.0760   45.4030 C   0  0  0  0  0  0  0  0  0  0  0  0
   56.8290   29.2920   45.2080 C   0  0  0  0  0  0  0  0  0  0  0  0
   57.5226   33.2597   46.0461 H   0  0  0  0  0  0  0  0  0  0  0  0
   58.3830   32.9857   44.4933 H   0  0  0  0  0  0  0  0  0  0  0  0
   56.7365   33.7040   44.4933 H   0  0  0  0  0  0  0  0  0  0  0  0
   59.5280   31.3931   45.1006 H   0  0  0  0  0  0  0  0  0  0  0  0
   60.7238   29.2343   45.4489 H   0  0  0  0  0  0  0  0  0  0  0  0
   55.8250   24.1165   43.2463 H   0  0  0  0  0  0  0  0  0  0  0  0
   56.2029   22.1779   41.7163 H   0  0  0  0  0  0  0  0  0  0  0  0
   57.5717   20.2388   42.4963 H   0  0  0  0  0  0  0  0  0  0  0  0
   58.4930   20.2760   44.7340 H   0  0  0  0  0  0  0  0  0  0  0  0
   58.1772   22.1086   46.2793 H   0  0  0  0  0  0  0  0  0  0  0  0
   55.7083   26.8546   45.4604 H   0  0  0  0  0  0  0  0  0  0  0  0
   55.7311   29.3060   45.1411 H   0  0  0  0  0  0  0  0  0  0  0  0
  1  2  1  0
  2  3  1  0
  3  4  2  0
  4  5  1  0
  5  6  2  0
  6  7  1  0
  7  8  1  0
  8  9  2  0
  8 10  1  0
 10 11  1  0
 11 12  2  0
 11 13  1  0
 13 14  2  0
 14 15  1  0
 15 16  2  0
 16 17  1  0
 17 18  2  0
 10 19  2  0
 19 20  1  0
 20 21  2  0
 21  3  1  0
 20  6  1  0
 18 13  1  0
  1 22  1  0
  1 23  1  0
  1 24  1  0
  4 25  1  0
  5 26  1  0
 14 27  1  0
 15 28  1  0
 16 29  1  0
 17 30  1  0
 18 31  1  0
 19 32  1  0
 21 33  1  0
M  CHG  1  17   1
M  END
>  <UniqueID>  (12) 
10

>  <SMILES>  (12) 
COc1ccc2oc(=O)c(C(=O)c3ccc[nH+]c3)cc2c1

>  <Energy>  (12) 
47.0250591846569

>  <Genealogy>  (12) 
COc1ccc2oc(=O)c(C(=O)c3ccc[nH+]c3)cc2c1 (protonated)
COc1ccc2oc(=O)c(C(=O)c3ccc[nH+]c3)cc2c1 (3D coordinates assigned)
COc1ccc2oc(=O)c(C(=O)c3ccc[nH+]c3)cc2c1 (optimized conformer: 47.0250591846569 kcal/mol)

>  <smiles>  (12) 
COc1ccc2oc(=O)c(C(=O)c3cccnc3)cc2c1

>  <score_type>  (12) 
oracle

>  <origin>  (12) 
adg

>  <m_score__min__energy>  (12) 
-6.1799999999999997

>  <m_primary>  (12) 
energy

$$$$
12:0
     RDKit          3D

 42 44  0  0  0  0  0  0  0  0999 V2000
   64.7610   33.5280   51.0020 C   0  0  0  0  0  0  0  0  0  0  0  0
   64.3120   32.8060   49.8600 O   0  0  0  0  0  0  0  0  0  0  0  0
   63.1390   33.1000   49.1460 C   0  0  0  0  0  0  0  0  0  0  0  0
   61.8930   33.2560   49.7810 C   0  0  0  0  0  0  0  0  0  0  0  0
   60.7500   33.5450   49.0320 C   0  0  0  0  0  0  0  0  0  0  0  0
   60.8260   33.6890   47.6370 C   0  0  0  0  0  0  0  0  0  0  0  0
   59.6040   33.9770   46.8420 C   0  0  0  0  0  0  0  0  0  0  0  0
   59.6780   34.5640   45.6430 C   0  0  0  0  0  0  0  0  0  0  0  0
   58.4190   34.8000   44.8620 C   0  0  0  0  0  0  0  0  0  0  0  0
   57.5220   33.6270   44.9420 N   0  0  0  0  0  0  0  0  0  0  0  0
   57.7700   32.5920   43.9100 C   0  0  0  0  0  0  0  0  0  0  0  0
   57.5100   31.1760   44.3850 C   0  0  0  0  0  0  0  0  0  0  0  0
   58.5620   30.3450   44.8010 C   0  0  0  0  0  0  0  0  0  0  0  0
   58.2990   29.0430   45.2280 C   0  0  0  0  0  0  0  0  0  0  0  0
   56.9820   28.5830   45.2520 C   0  0  0  0  0  0  0  0  0  0  0  0
   55.9700   29.4010   44.8620 N   0  0  0  0  0  0  0  0  0  0  0  0
   56.2000   30.6720   44.4390 C   0  0  0  0  0  0  0  0  0  0  0  0
   57.2970   33.0890   46.3120 C   0  0  0  0  0  0  0  0  0  0  0  0
   58.2330   33.6740   47.3940 C   0  0  0  0  0  0  0  0  0  0  0  0
   62.0730   33.5350   47.0060 C   0  0  0  0  0  0  0  0  0  0  0  0
   63.2220   33.2390   47.7530 C   0  0  0  0  0  0  0  0  0  0  0  0
   64.4510   33.0780   47.1160 O   0  0  0  0  0  0  0  0  0  0  0  0
   64.4373   33.0075   51.9154 H   0  0  0  0  0  0  0  0  0  0  0  0
   65.8590   33.5928   50.9864 H   0  0  0  0  0  0  0  0  0  0  0  0
   64.3336   34.5415   50.9864 H   0  0  0  0  0  0  0  0  0  0  0  0
   61.8187   33.1498   50.8733 H   0  0  0  0  0  0  0  0  0  0  0  0
   59.7810   33.6609   49.5396 H   0  0  0  0  0  0  0  0  0  0  0  0
   60.6518   34.8707   45.2335 H   0  0  0  0  0  0  0  0  0  0  0  0
   57.9001   35.6791   45.2719 H   0  0  0  0  0  0  0  0  0  0  0  0
   58.6850   34.9684   43.8080 H   0  0  0  0  0  0  0  0  0  0  0  0
   57.1136   32.7952   43.0510 H   0  0  0  0  0  0  0  0  0  0  0  0
   58.8371   32.6504   43.6493 H   0  0  0  0  0  0  0  0  0  0  0  0
   59.5957   30.7210   44.7903 H   0  0  0  0  0  0  0  0  0  0  0  0
   59.1225   28.3852   45.5429 H   0  0  0  0  0  0  0  0  0  0  0  0
   56.7632   27.5582   45.5866 H   0  0  0  0  0  0  0  0  0  0  0  0
   55.3558   31.3094   44.1373 H   0  0  0  0  0  0  0  0  0  0  0  0
   56.2587   33.3091   46.6009 H   0  0  0  0  0  0  0  0  0  0  0  0
   57.5117   32.0113   46.2632 H   0  0  0  0  0  0  0  0  0  0  0  0
   57.7916   34.6038   47.7822 H   0  0  0  0  0  0  0  0  0  0  0  0
   58.3429   32.9259   48.1929 H   0  0  0  0  0  0  0  0  0  0  0  0
   62.1480   33.6480   45.9144 H   0  0  0  0  0  0  0  0  0  0  0  0
   65.2660   32.7410   47.6140 H   0  0  0  0  0  0  0  0  0  0  0  0
  1  2  1  0
  2  3  1  0
  3  4  2  0
  4  5  1  0
  5  6  2  0
  6  7  1  0
  7  8  2  0
  8  9  1  0
  9 10  1  0
 10 11  1  0
 11 12  1  0
 12 13  2  0
 13 14  1  0
 14 15  2  0
 15 16  1  0
 16 17  2  0
 10 18  1  0
 18 19  1  0
  6 20  1  0
 20 21  2  0
 21 22  1  0
 21  3  1  0
 19  7  1  0
 17 12  1  0
  1 23  1  0
  1 24  1  0
  1 25  1  0
  4 26  1  0
  5 27  1  0
  8 28  1  0
  9 29  1  0
  9 30  1  0
 11 31  1  0
 11 32  1  0
 13 33  1  0
 14 34  1  0
 15 35  1  0
 17 36  1  0
 18 37  1  0
 18 38  1  0
 19 39  1  0
 19 40  1  0
 20 41  1  0
 22 42  1  0
M  END
>  <UniqueID>  (13) 
11

>  <SMILES>  (13) 
COc1ccc(C2=CCN(Cc3cccnc3)CC2)cc1O

>  <Energy>  (13) 
57.386794600497964

>  <Genealogy>  (13) 
COc1ccc(C2=CCN(Cc3cccnc3)CC2)cc1O (3D coordinates assigned)
COc1ccc(C2=CCN(Cc3cccnc3)CC2)cc1O (nonaromatic ring conformer: 57.386794600497964 kcal/mol)

>  <smiles>  (13) 
COc1ccc(C2=CCN(Cc3cccnc3)CC2)cc1O

>  <score_type>  (13) 
oracle

>  <origin>  (13) 
adg

>  <m_score__min__energy>  (13) 
-8.1699999999999999

>  <m_primary>  (13) 
energy

$$$$
13:0
     RDKit          3D

 76 79  0  0  0  0  0  0  0  0999 V2000
   58.8639   27.9776   49.1273 H   0  0  0  0  0  0  0  0  0  0  0  0
   59.4450   28.6280   48.4570 C   0  0  0  0  0  0  0  0  0  0  0  0
   58.9280   28.9030   47.2450 C   0  0  0  0  0  0  0  0  0  0  0  0
   61.4970   28.4201   49.2893 H   0  0  0  0  0  0  0  0  0  0  0  0
   61.0310   30.4460   48.9920 C   0  0  0  0  0  0  0  0  0  0  0  0
   58.3140   30.1490   46.8560 N   0  0  0  0  0  0  0  0  0  0  0  0
   58.6350   31.4770   47.3810 C   0  0  0  0  0  0  0  0  0  0  0  0
   58.6280   31.4481   48.4806 H   0  0  0  0  0  0  0  0  0  0  0  0
   59.6321   31.7795   47.0285 H   0  0  0  0  0  0  0  0  0  0  0  0
   57.8861   32.2015   47.0285 H   0  0  0  0  0  0  0  0  0  0  0  0
   57.8200   29.9210   45.5410 C   0  0  0  0  0  0  0  0  0  0  0  0
   57.0990   30.8240   44.7510 C   0  0  0  0  0  0  0  0  0  0  0  0
   56.8452   31.8247   45.1308 H   0  0  0  0  0  0  0  0  0  0  0  0
   56.7070   30.4250   43.4640 C   0  0  0  0  0  0  0  0  0  0  0  0
   56.1398   31.1179   42.8251 H   0  0  0  0  0  0  0  0  0  0  0  0
   57.0360   29.1430   42.9870 C   0  0  0  0  0  0  0  0  0  0  0  0
   56.7279   28.8395   41.9756 H   0  0  0  0  0  0  0  0  0  0  0  0
   57.7550   28.2500   43.7950 C   0  0  0  0  0  0  0  0  0  0  0  0
   58.0158   27.2465   43.4276 H   0  0  0  0  0  0  0  0  0  0  0  0
   58.1340   28.6610   45.0780 C   0  0  0  0  0  0  0  0  0  0  0  0
   58.9110   27.8920   46.1080 C   0  0  0  0  0  0  0  0  0  0  0  0
   58.1650   26.6050   46.5020 C   0  0  0  0  0  0  0  0  0  0  0  0
   58.1204   26.5281   47.5984 H   0  0  0  0  0  0  0  0  0  0  0  0
   57.1436   26.6339   46.0946 H   0  0  0  0  0  0  0  0  0  0  0  0
   58.6977   25.7331   46.0946 H   0  0  0  0  0  0  0  0  0  0  0  0
   60.3330   27.5930   45.6080 C   0  0  0  0  0  0  0  0  0  0  0  0
   61.0025   27.4522   46.4694 H   0  0  0  0  0  0  0  0  0  0  0  0
   60.3224   26.6774   44.9984 H   0  0  0  0  0  0  0  0  0  0  0  0
   60.6920   28.4353   44.9984 H   0  0  0  0  0  0  0  0  0  0  0  0
   60.7400   29.1410   48.9470 C   0  0  0  0  0  0  0  0  0  0  0  0
   60.2840   31.1597   48.6144 H   0  0  0  0  0  0  0  0  0  0  0  0
   62.3050   30.9800   49.5230 C   0  0  0  0  0  0  0  0  0  0  0  0
   63.1390   31.7620   48.7890 N   0  0  0  0  0  0  0  0  0  0  0  0
   62.9240   32.2550   47.4230 C   0  0  0  0  0  0  0  0  0  0  0  0
   62.7912   31.3952   46.7499 H   0  0  0  0  0  0  0  0  0  0  0  0
   63.8009   32.8512   47.1304 H   0  0  0  0  0  0  0  0  0  0  0  0
   61.6790   33.1550   47.3350 C   0  0  0  0  0  0  0  0  0  0  0  0
   60.7907   32.5095   47.2696 H   0  0  0  0  0  0  0  0  0  0  0  0
   61.8108   33.7904   46.4468 H   0  0  0  0  0  0  0  0  0  0  0  0
   61.4990   34.1040   48.5350 C   0  0  0  0  0  0  0  0  0  0  0  0
   62.1472   34.9800   48.3855 H   0  0  0  0  0  0  0  0  0  0  0  0
   61.7649   33.5350   49.4381 H   0  0  0  0  0  0  0  0  0  0  0  0
   60.0460   34.5980   48.7230 C   0  0  0  0  0  0  0  0  0  0  0  0
   60.0742   35.6586   49.0135 H   0  0  0  0  0  0  0  0  0  0  0  0
   59.5875   33.9642   49.4964 H   0  0  0  0  0  0  0  0  0  0  0  0
   59.1800   34.4630   47.4570 C   0  0  0  0  0  0  0  0  0  0  0  0
   58.1528   34.7643   47.7102 H   0  0  0  0  0  0  0  0  0  0  0  0
   59.2555   33.4129   47.1382 H   0  0  0  0  0  0  0  0  0  0  0  0
   59.6500   35.3150   46.2660 C   0  0  0  0  0  0  0  0  0  0  0  0
   60.7448   35.4109   46.3126 H   0  0  0  0  0  0  0  0  0  0  0  0
   59.1517   36.2928   46.3407 H   0  0  0  0  0  0  0  0  0  0  0  0
   59.2680   34.7030   44.9100 C   0  0  0  0  0  0  0  0  0  0  0  0
   59.9739   33.8946   44.6687 H   0  0  0  0  0  0  0  0  0  0  0  0
   59.3098   35.4926   44.1453 H   0  0  0  0  0  0  0  0  0  0  0  0
   57.8520   34.1350   44.9450 C   0  0  0  0  0  0  0  0  0  0  0  0
   57.5339   34.0074   45.9902 H   0  0  0  0  0  0  0  0  0  0  0  0
   57.1664   34.8277   44.4350 H   0  0  0  0  0  0  0  0  0  0  0  0
   57.8351   33.1605   44.4350 H   0  0  0  0  0  0  0  0  0  0  0  0
   64.1460   32.0650   49.6330 C   0  0  0  0  0  0  0  0  0  0  0  0
   65.2650   32.8590   49.4010 C   0  0  0  0  0  0  0  0  0  0  0  0
   65.4365   33.3330   48.4233 H   0  0  0  0  0  0  0  0  0  0  0  0
   66.1630   33.0310   50.4590 C   0  0  0  0  0  0  0  0  0  0  0  0
   67.0683   33.6400   50.3187 H   0  0  0  0  0  0  0  0  0  0  0  0
   65.9080   32.4240   51.7050 C   0  0  0  0  0  0  0  0  0  0  0  0
   66.6220   32.5651   52.5298 H   0  0  0  0  0  0  0  0  0  0  0  0
   64.7830   31.6580   51.9100 N   0  0  0  0  0  0  0  0  0  0  0  0
   64.5560   31.0920   53.2440 C   0  0  0  0  0  0  0  0  0  0  0  0
   64.8503   31.8259   54.0086 H   0  0  0  0  0  0  0  0  0  0  0  0
   63.4901   30.8471   53.3619 H   0  0  0  0  0  0  0  0  0  0  0  0
   65.1573   30.1785   53.3619 H   0  0  0  0  0  0  0  0  0  0  0  0
   63.9250   31.4730   50.8490 C   0  0  0  0  0  0  0  0  0  0  0  0
   62.7700   30.7590   50.7880 N   0  0  0  0  0  0  0  0  0  0  0  0
   62.1660   29.8750   51.7900 C   0  0  0  0  0  0  0  0  0  0  0  0
   62.4148   30.2391   52.7978 H   0  0  0  0  0  0  0  0  0  0  0  0
   61.0735   29.8681   51.6619 H   0  0  0  0  0  0  0  0  0  0  0  0
   62.5567   28.8547   51.6619 H   0  0  0  0  0  0  0  0  0  0  0  0
  1  2  1  0
  2  3  1  0
  3  4  1  0
  3  5  2  0
  5  6  1  0
  6  7  1  0
  7  8  1  0
  7  9  1  0
  7 10  1  0
  6 11  1  0
 11 12  2  0
 12 13  1  0
 12 14  1  0
 14 15  1  0
 14 16  2  0
 16 17  1  0
 16 18  1  0
 18 19  1  0
 18 20  2  0
 20 21  1  0
 21 22  1  0
 22 23  1  0
 22 24  1  0
 22 25  1  0
 21 26  1  0
 26 27  1  0
 26 28  1  0
 26 29  1  0
  2 30  2  0
 30 31  1  0
 30 32  1  0
 32 33  1  0
 33 34  1  0
 34 35  1  0
 34 36  1  0
 34 37  1  0
 37 38  1  0
 37 39  1  0
 37 40  1  0
 40 41  1  0
 40 42  1  0
 40 43  1  0
 43 44  1  0
 43 45  1  0
 43 46  1  0
 46 47  1  0
 46 48  1  0
 46 49  1  0
 49 50  1  0
 49 51  1  0
 49 52  1  0
 52 53  1  0
 52 54  1  0
 52 55  1  0
 55 56  1  0
 55 57  1  0
 55 58  1  0
 33 59  1  0
 59 60  2  0
 60 61  1  0
 60 62  1  0
 62 63  1  0
 62 64  2  0
 64 65  1  0
 64 66  1  0
 66 67  1  0
 67 68  1  0
 67 69  1  0
 67 70  1  0
 66 71  2  0
 71 72  1  0
 72 73  1  0
 73 74  1  0
 73 75  1  0
 73 76  1  0
 21  5  1  0
 72 32  2  0
 20 11  1  0
 71 59  1  0
M  CHG  2  66   1  72   1
M  END
>  <UniqueID>  (14) 
12

>  <SMILES>  (14) 
CCCCCCCCn1c(/C=C\C=C2/N(C)c3ccccc3C2(C)C)[n+](C)c2c1ccc[n+]2C

>  <Energy>  (14) 
139.29146654803282

>  <Genealogy>  (14) 
CCCCCCCCn1c(/C=C\C=C2/N(C)c3ccccc3C2(C)C)[n+](C)c2c1ccc[n+]2C (cis-trans isomerization)
CCCCCCCCn1c(/C=C\C=C2/N(C)c3ccccc3C2(C)C)[n+](C)c2c1ccc[n+]2C (3D coordinates assigned)
CCCCCCCCn1c(/C=C\C=C2/N(C)c3ccccc3C2(C)C)[n+](C)c2c1ccc[n+]2C (nonaromatic ring conformer: 139.29146654803282 kcal/mol)

>  <smiles>  (14) 
CCCCCCCCn1c(C=CC=C2N(C)c3ccccc3C2(C)C)[n+](C)c2c1ccc[n+]2C

>  <score_type>  (14) 
oracle

>  <origin>  (14) 
adg

>  <m_score__min__energy>  (14) 
-6.6600000000000001

>  <m_primary>  (14) 
energy

$$$$
14:0
     RDKit          3D

 35 37  0  0  0  0  0  0  0  0999 V2000
   59.4910   35.0040   45.3520 O   0  0  0  0  0  0  0  0  0  0  0  0
   58.9680   33.9150   45.7120 C   0  0  0  0  0  0  0  0  0  0  0  0
   57.6660   33.4850   45.1100 C   0  0  0  0  0  0  0  0  0  0  0  0
   57.2900   32.1990   45.6040 O   0  0  0  0  0  0  0  0  0  0  0  0
   57.3090   31.0030   44.8640 C   0  0  0  0  0  0  0  0  0  0  0  0
   56.3640   30.7390   43.8500 C   0  0  0  0  0  0  0  0  0  0  0  0
   56.4120   29.5450   43.1280 C   0  0  0  0  0  0  0  0  0  0  0  0
   57.3940   28.5920   43.4030 C   0  0  0  0  0  0  0  0  0  0  0  0
   58.3360   28.8300   44.4060 C   0  0  0  0  0  0  0  0  0  0  0  0
   59.2930   27.8990   44.6710 N   0  0  0  0  0  0  0  0  0  0  0  0
   60.2300   28.0890   45.6360 C   0  0  0  0  0  0  0  0  0  0  0  0
   60.2320   29.2640   46.3890 C   0  0  0  0  0  0  0  0  0  0  0  0
   59.2650   30.2410   46.1430 C   0  0  0  0  0  0  0  0  0  0  0  0
   58.2980   30.0370   45.1440 C   0  0  0  0  0  0  0  0  0  0  0  0
   59.5930   33.1070   46.7190 N   0  0  0  0  0  0  0  0  0  0  0  0
   60.8760   33.4200   47.2770 C   0  0  0  0  0  0  0  0  0  0  0  0
   61.9930   33.4730   46.4310 C   0  0  0  0  0  0  0  0  0  0  0  0
   63.2560   33.7770   46.9460 C   0  0  0  0  0  0  0  0  0  0  0  0
   63.4110   34.0450   48.3070 C   0  0  0  0  0  0  0  0  0  0  0  0
   62.3000   34.0240   49.1540 C   0  0  0  0  0  0  0  0  0  0  0  0
   61.0300   33.7200   48.6480 C   0  0  0  0  0  0  0  0  0  0  0  0
   59.6500   33.8050   49.7360 Cl  0  0  0  0  0  0  0  0  0  0  0  0
   56.8867   34.2159   45.3717 H   0  0  0  0  0  0  0  0  0  0  0  0
   57.7794   33.4284   44.0173 H   0  0  0  0  0  0  0  0  0  0  0  0
   55.5827   31.4803   43.6264 H   0  0  0  0  0  0  0  0  0  0  0  0
   55.6713   29.3541   42.3375 H   0  0  0  0  0  0  0  0  0  0  0  0
   57.4259   27.6537   42.8298 H   0  0  0  0  0  0  0  0  0  0  0  0
   60.9887   27.3151   45.8243 H   0  0  0  0  0  0  0  0  0  0  0  0
   60.9900   29.4195   47.1708 H   0  0  0  0  0  0  0  0  0  0  0  0
   59.2602   31.1704   46.7313 H   0  0  0  0  0  0  0  0  0  0  0  0
   59.0190   32.3680   47.1850 H   0  0  0  0  0  0  0  0  0  0  0  0
   61.8744   33.2741   45.3557 H   0  0  0  0  0  0  0  0  0  0  0  0
   64.1293   33.8051   46.2778 H   0  0  0  0  0  0  0  0  0  0  0  0
   64.4078   34.2727   48.7127 H   0  0  0  0  0  0  0  0  0  0  0  0
   62.4235   34.2474   50.2240 H   0  0  0  0  0  0  0  0  0  0  0  0
  1  2  2  0
  2  3  1  0
  3  4  1  0
  4  5  1  0
  5  6  2  0
  6  7  1  0
  7  8  2  0
  8  9  1  0
  9 10  2  0
 10 11  1  0
 11 12  2  0
 12 13  1  0
 13 14  2  0
  2 15  1  0
 15 16  1  0
 16 17  2  0
 17 18  1  0
 18 19  2  0
 19 20  1  0
 20 21  2  0
 21 22  1  0
 14  5  1  0
 21 16  1  0
 14  9  1  0
  3 23  1  0
  3 24  1  0
  6 25  1  0
  7 26  1  0
  8 27  1  0
 11 28  1  0
 12 29  1  0
 13 30  1  0
 15 31  1  0
 17 32  1  0
 18 33  1  0
 19 34  1  0
 20 35  1  0
M  END
>  <UniqueID>  (15) 
13

>  <SMILES>  (15) 
O=C(COc1cccc2ncccc12)Nc1ccccc1Cl

>  <Energy>  (15) 
45.8411307505916

>  <Genealogy>  (15) 
O=C(COc1cccc2ncccc12)Nc1ccccc1Cl (3D coordinates assigned)
O=C(COc1cccc2ncccc12)Nc1ccccc1Cl (optimized conformer: 45.8411307505916 kcal/mol)

>  <smiles>  (15) 
O=C(COc1cccc2ncccc12)Nc1ccccc1Cl

>  <score_type>  (15) 
oracle

>  <origin>  (15) 
adg

>  <m_score__min__energy>  (15) 
-8.0099999999999998

>  <m_primary>  (15) 
energy

$$$$
15:0
     RDKit          3D

 33 33  0  0  0  0  0  0  0  0999 V2000
   58.4861   32.2452   47.1758 H   0  0  0  0  0  0  0  0  0  0  0  0
   58.2500   32.1460   46.1060 C   0  0  0  0  0  0  0  0  0  0  0  0
   57.7630   30.9340   45.6110 C   0  0  0  0  0  0  0  0  0  0  0  0
   57.6231   30.0816   46.2920 H   0  0  0  0  0  0  0  0  0  0  0  0
   57.4510   30.7980   44.2480 C   0  0  0  0  0  0  0  0  0  0  0  0
   56.9640   29.4810   43.7070 C   0  0  0  0  0  0  0  0  0  0  0  0
   57.1947   29.4218   42.6331 H   0  0  0  0  0  0  0  0  0  0  0  0
   55.8774   29.4091   43.8626 H   0  0  0  0  0  0  0  0  0  0  0  0
   57.6390   28.3420   44.4240 C   0  0  0  0  0  0  0  0  0  0  0  0
   56.9790   27.7250   45.3510 N   0  0  0  0  0  0  0  0  0  0  0  0
   57.1570   26.3410   45.7260 C   0  0  0  0  0  0  0  0  0  0  0  0
   57.4142   25.7486   44.8356 H   0  0  0  0  0  0  0  0  0  0  0  0
   57.9690   26.2591   46.4635 H   0  0  0  0  0  0  0  0  0  0  0  0
   55.8880   25.8270   46.3180 C   0  0  0  0  0  0  0  0  0  0  0  0
   54.7830   26.3290   45.9830 O   0  0  0  0  0  0  0  0  0  0  0  0
   55.9260   24.8290   47.2840 O   0  0  0  0  0  0  0  0  0  0  0  0
   59.0420   27.9400   44.0090 C   0  0  0  0  0  0  0  0  0  0  0  0
   59.2354   28.3072   42.9903 H   0  0  0  0  0  0  0  0  0  0  0  0
   59.1180   26.8431   44.0428 H   0  0  0  0  0  0  0  0  0  0  0  0
   60.0800   28.5300   44.9580 C   0  0  0  0  0  0  0  0  0  0  0  0
   59.7685   28.3530   45.9980 H   0  0  0  0  0  0  0  0  0  0  0  0
   61.0539   28.0505   44.7802 H   0  0  0  0  0  0  0  0  0  0  0  0
   60.1662   29.6121   44.7802 H   0  0  0  0  0  0  0  0  0  0  0  0
   57.6520   31.8850   43.3860 C   0  0  0  0  0  0  0  0  0  0  0  0
   57.4248   31.7834   42.3145 H   0  0  0  0  0  0  0  0  0  0  0  0
   58.1400   33.0980   43.8820 C   0  0  0  0  0  0  0  0  0  0  0  0
   58.2893   33.9466   43.1982 H   0  0  0  0  0  0  0  0  0  0  0  0
   58.4400   33.2410   45.2420 C   0  0  0  0  0  0  0  0  0  0  0  0
   58.9270   34.4790   45.6910 O   0  0  0  0  0  0  0  0  0  0  0  0
   59.2580   34.7680   47.0450 C   0  0  0  0  0  0  0  0  0  0  0  0
   58.6002   34.1937   47.7139 H   0  0  0  0  0  0  0  0  0  0  0  0
   60.3055   34.4903   47.2337 H   0  0  0  0  0  0  0  0  0  0  0  0
   59.1241   35.8434   47.2337 H   0  0  0  0  0  0  0  0  0  0  0  0
  1  2  1  0
  2  3  2  0
  3  4  1  0
  3  5  1  0
  5  6  1  0
  6  7  1  0
  6  8  1  0
  6  9  1  0
  9 10  2  0
 10 11  1  0
 11 12  1  0
 11 13  1  0
 11 14  1  0
 14 15  2  0
 14 16  1  0
  9 17  1  0
 17 18  1  0
 17 19  1  0
 17 20  1  0
 20 21  1  0
 20 22  1  0
 20 23  1  0
  5 24  2  0
 24 25  1  0
 24 26  1  0
 26 27  1  0
 26 28  2  0
 28 29  1  0
 29 30  1  0
 30 31  1  0
 30 32  1  0
 30 33  1  0
 28  2  1  0
M  CHG  1  16  -1
M  END
>  <UniqueID>  (16) 
14

>  <SMILES>  (16) 
CC/C(Cc1ccc(OC)cc1)=N\CC(=O)[O-]

>  <Energy>  (16) 
23.167069263311276

>  <Genealogy>  (16) 
CCC(Cc1ccc(OC)cc1)=NCC(=O)[O-] (protonated)
CC/C(Cc1ccc(OC)cc1)=N\CC(=O)[O-] (cis-trans isomerization)
CC/C(Cc1ccc(OC)cc1)=N\CC(=O)[O-] (3D coordinates assigned)
CC/C(Cc1ccc(OC)cc1)=N\CC(=O)[O-] (optimized conformer: 23.167069263311276 kcal/mol)

>  <smiles>  (16) 
CCC(Cc1ccc(OC)cc1)=NCC(=O)O

>  <score_type>  (16) 
oracle

>  <origin>  (16) 
adg

>  <m_score__min__energy>  (16) 
-8.9700000000000006

>  <m_primary>  (16) 
energy

$$$$
16:0
     RDKit          3D

 42 44  0  0  0  0  0  0  0  0999 V2000
   56.2860   20.1320   44.9850 C   0  0  0  0  0  0  0  0  0  0  0  0
   56.3120   21.5220   44.4470 C   0  0  0  0  0  0  0  0  0  0  0  0
   56.6160   22.6680   45.1610 C   0  0  0  0  0  0  0  0  0  0  0  0
   56.4600   23.6670   44.2260 C   0  0  0  0  0  0  0  0  0  0  0  0
   56.6210   24.9340   44.4630 N   0  0  0  0  0  0  0  0  0  0  0  0
   56.2790   25.6920   45.9850 S   0  0  0  0  0  0  0  0  0  0  0  0
   56.3410   24.6580   47.0740 O   0  0  0  0  0  0  0  0  0  0  0  0
   54.8990   26.2840   45.9450 O   0  0  0  0  0  0  0  0  0  0  0  0
   57.4460   26.9770   46.2810 C   0  0  0  0  0  0  0  0  0  0  0  0
   57.5640   28.0510   45.3890 C   0  0  0  0  0  0  0  0  0  0  0  0
   58.4280   29.1120   45.6800 C   0  0  0  0  0  0  0  0  0  0  0  0
   59.1640   29.1180   46.8700 C   0  0  0  0  0  0  0  0  0  0  0  0
   59.9880   30.2520   47.1780 N   0  0  0  0  0  0  0  0  0  0  0  0
   59.5110   31.5240   47.6380 C   0  0  0  0  0  0  0  0  0  0  0  0
   59.5270   31.7630   48.8740 O   0  0  0  0  0  0  0  0  0  0  0  0
   59.0800   32.5820   46.6910 C   0  0  0  0  0  0  0  0  0  0  0  0
   57.7990   32.4960   46.1130 C   0  0  0  0  0  0  0  0  0  0  0  0
   57.3500   33.4740   45.2260 C   0  0  0  0  0  0  0  0  0  0  0  0
   58.1760   34.5440   44.8890 C   0  0  0  0  0  0  0  0  0  0  0  0
   59.4520   34.6450   45.4440 C   0  0  0  0  0  0  0  0  0  0  0  0
   59.9160   33.6800   46.3560 C   0  0  0  0  0  0  0  0  0  0  0  0
   61.2870   33.8420   46.9570 C   0  0  0  0  0  0  0  0  0  0  0  0
   59.0860   28.0130   47.7360 C   0  0  0  0  0  0  0  0  0  0  0  0
   58.2270   26.9520   47.4430 C   0  0  0  0  0  0  0  0  0  0  0  0
   56.0910   23.1330   43.0430 N   0  0  0  0  0  0  0  0  0  0  0  0
   56.0070   21.8460   43.2090 O   0  0  0  0  0  0  0  0  0  0  0  0
   56.2866   20.1643   46.0845 H   0  0  0  0  0  0  0  0  0  0  0  0
   55.3781   19.6198   44.6337 H   0  0  0  0  0  0  0  0  0  0  0  0
   57.1741   19.5862   44.6337 H   0  0  0  0  0  0  0  0  0  0  0  0
   56.9103   22.7587   46.2170 H   0  0  0  0  0  0  0  0  0  0  0  0
   56.9767   28.0599   44.4590 H   0  0  0  0  0  0  0  0  0  0  0  0
   58.5293   29.9458   44.9697 H   0  0  0  0  0  0  0  0  0  0  0  0
   57.1450   31.6479   46.3639 H   0  0  0  0  0  0  0  0  0  0  0  0
   56.3420   33.4004   44.7918 H   0  0  0  0  0  0  0  0  0  0  0  0
   57.8216   35.3105   44.1841 H   0  0  0  0  0  0  0  0  0  0  0  0
   60.1017   35.4878   45.1655 H   0  0  0  0  0  0  0  0  0  0  0  0
   61.2098   33.8329   48.0542 H   0  0  0  0  0  0  0  0  0  0  0  0
   61.9318   33.0138   46.6279 H   0  0  0  0  0  0  0  0  0  0  0  0
   61.7210   34.7977   46.6279 H   0  0  0  0  0  0  0  0  0  0  0  0
   59.7030   27.9844   48.6462 H   0  0  0  0  0  0  0  0  0  0  0  0
   58.1635   26.0933   48.1275 H   0  0  0  0  0  0  0  0  0  0  0  0
   55.9000   23.6240   42.1420 H   0  0  0  0  0  0  0  0  0  0  0  0
  1  2  1  0
  2  3  2  0
  3  4  1  0
  4  5  2  3
  5  6  1  0
  6  7  2  0
  6  8  2  0
  6  9  1  0
  9 10  2  0
 10 11  1  0
 11 12  2  0
 12 13  1  0
 13 14  1  0
 14 15  2  0
 14 16  1  0
 16 17  2  0
 17 18  1  0
 18 19  2  0
 19 20  1  0
 20 21  2  0
 21 22  1  0
 12 23  1  0
 23 24  2  0
  4 25  1  0
 25 26  1  0
 26  2  1  0
 24  9  1  0
 21 16  1  0
  1 27  1  0
  1 28  1  0
  1 29  1  0
  3 30  1  0
 10 31  1  0
 11 32  1  0
 17 33  1  0
 18 34  1  0
 19 35  1  0
 20 36  1  0
 22 37  1  0
 22 38  1  0
 22 39  1  0
 23 40  1  0
 24 41  1  0
 25 42  1  0
M  CHG  1  13  -1
M  END
>  <UniqueID>  (17) 
15

>  <SMILES>  (17) 
Cc1cc(=NS(=O)(=O)c2ccc([N-]C(=O)c3ccccc3C)cc2)[nH]o1

>  <Energy>  (17) 
86.12971106257103

>  <Genealogy>  (17) 
Cc1cc(=NS(=O)(=O)c2ccc([N-]C(=O)c3ccccc3C)cc2)[nH]o1 (protonated)
Cc1cc(=NS(=O)(=O)c2ccc([N-]C(=O)c3ccccc3C)cc2)[nH]o1 (3D coordinates assigned)
Cc1cc(=NS(=O)(=O)c2ccc([N-]C(=O)c3ccccc3C)cc2)[nH]o1 (optimized conformer: 86.12971106257103 kcal/mol)

>  <smiles>  (17) 
Cc1cc(=NS(=O)(=O)c2ccc(NC(=O)c3ccccc3C)cc2)[nH]o1

>  <score_type>  (17) 
oracle

>  <origin>  (17) 
adg

>  <m_score__min__energy>  (17) 
-10.83

>  <m_primary>  (17) 
energy

$$$$
17:0
     RDKit          3D

 52 54  0  0  0  0  0  0  0  0999 V2000
   67.5750   33.3900   50.4910 C   0  0  0  0  0  0  0  0  0  0  0  0
   66.3900   32.5120   50.1260 C   0  0  0  0  0  0  0  0  0  0  0  0
   65.1860   33.1210   50.5890 O   0  0  0  0  0  0  0  0  0  0  0  0
   63.9840   33.1440   49.8680 C   0  0  0  0  0  0  0  0  0  0  0  0
   63.0970   34.2220   50.0840 C   0  0  0  0  0  0  0  0  0  0  0  0
   61.8770   34.3010   49.3910 C   0  0  0  0  0  0  0  0  0  0  0  0
   61.5530   33.2930   48.4830 C   0  0  0  0  0  0  0  0  0  0  0  0
   60.4140   33.2500   47.7450 N   0  0  0  0  0  0  0  0  0  0  0  0
   60.3700   32.1550   46.9440 C   0  0  0  0  0  0  0  0  0  0  0  0
   59.2640   31.8480   46.0090 C   0  0  0  0  0  0  0  0  0  0  0  0
   59.0560   30.5180   45.6100 C   0  0  0  0  0  0  0  0  0  0  0  0
   58.0170   30.1840   44.7300 C   0  0  0  0  0  0  0  0  0  0  0  0
   57.7850   28.7500   44.3270 C   0  0  0  0  0  0  0  0  0  0  0  0
   56.8330   28.0880   45.2300 N   0  0  0  0  0  0  0  0  0  0  0  0
   57.4710   27.3210   46.3170 C   0  0  0  0  0  0  0  0  0  0  0  0
   56.7690   25.9820   46.6160 C   0  0  0  0  0  0  0  0  0  0  0  0
   55.4380   25.9430   45.9980 N   0  0  0  0  0  0  0  0  0  0  0  0
   55.0230   24.5590   45.7640 C   0  0  0  0  0  0  0  0  0  0  0  0
   57.1830   31.1940   44.2390 C   0  0  0  0  0  0  0  0  0  0  0  0
   57.3720   32.5200   44.6330 C   0  0  0  0  0  0  0  0  0  0  0  0
   58.4050   32.8610   45.5290 C   0  0  0  0  0  0  0  0  0  0  0  0
   58.5810   34.1800   45.9780 O   0  0  0  0  0  0  0  0  0  0  0  0
   59.2740   35.1960   45.2600 C   0  0  0  0  0  0  0  0  0  0  0  0
   61.7680   31.2070   47.1210 S   0  0  0  0  0  0  0  0  0  0  0  0
   62.4240   32.2390   48.2720 C   0  0  0  0  0  0  0  0  0  0  0  0
   63.6400   32.1340   48.9410 C   0  0  0  0  0  0  0  0  0  0  0  0
   67.6608   33.4536   51.5858 H   0  0  0  0  0  0  0  0  0  0  0  0
   68.4958   32.9544   50.0757 H   0  0  0  0  0  0  0  0  0  0  0  0
   67.4264   34.3977   50.0757 H   0  0  0  0  0  0  0  0  0  0  0  0
   66.3443   32.3936   49.0333 H   0  0  0  0  0  0  0  0  0  0  0  0
   66.5062   31.5250   50.5974 H   0  0  0  0  0  0  0  0  0  0  0  0
   63.3646   35.0096   50.8038 H   0  0  0  0  0  0  0  0  0  0  0  0
   61.1898   35.1428   49.5616 H   0  0  0  0  0  0  0  0  0  0  0  0
   59.6830   33.9960   47.7700 H   0  0  0  0  0  0  0  0  0  0  0  0
   59.7175   29.7271   45.9932 H   0  0  0  0  0  0  0  0  0  0  0  0
   57.3834   28.7262   43.3032 H   0  0  0  0  0  0  0  0  0  0  0  0
   58.7445   28.2148   44.3817 H   0  0  0  0  0  0  0  0  0  0  0  0
   56.2270   27.4480   44.6650 H   0  0  0  0  0  0  0  0  0  0  0  0
   58.5126   27.1123   46.0315 H   0  0  0  0  0  0  0  0  0  0  0  0
   57.4040   27.9331   47.2285 H   0  0  0  0  0  0  0  0  0  0  0  0
   57.3774   25.1581   46.2147 H   0  0  0  0  0  0  0  0  0  0  0  0
   56.6557   25.8783   47.7052 H   0  0  0  0  0  0  0  0  0  0  0  0
   55.4960   26.4140   45.0650 H   0  0  0  0  0  0  0  0  0  0  0  0
   54.8714   24.0535   46.7291 H   0  0  0  0  0  0  0  0  0  0  0  0
   54.0825   24.5497   45.1935 H   0  0  0  0  0  0  0  0  0  0  0  0
   55.8031   24.0337   45.1935 H   0  0  0  0  0  0  0  0  0  0  0  0
   56.3734   30.9420   43.5383 H   0  0  0  0  0  0  0  0  0  0  0  0
   56.7090   33.3052   44.2408 H   0  0  0  0  0  0  0  0  0  0  0  0
   59.7471   35.8896   45.9708 H   0  0  0  0  0  0  0  0  0  0  0  0
   60.0471   34.7355   44.6273 H   0  0  0  0  0  0  0  0  0  0  0  0
   58.5631   35.7477   44.6273 H   0  0  0  0  0  0  0  0  0  0  0  0
   64.3159   31.2868   48.7531 H   0  0  0  0  0  0  0  0  0  0  0  0
  1  2  1  0
  2  3  1  0
  3  4  1  0
  4  5  2  0
  5  6  1  0
  6  7  2  0
  7  8  1  0
  8  9  2  0
  9 10  1  0
 10 11  2  0
 11 12  1  0
 12 13  1  0
 13 14  1  0
 14 15  1  0
 15 16  1  0
 16 17  1  0
 17 18  1  0
 12 19  2  0
 19 20  1  0
 20 21  2  0
 21 22  1  0
 22 23  1  0
  9 24  1  0
 24 25  1  0
 25 26  2  0
 26  4  1  0
 25  7  1  0
 21 10  1  0
  1 27  1  0
  1 28  1  0
  1 29  1  0
  2 30  1  0
  2 31  1  0
  5 32  1  0
  6 33  1  0
  8 34  1  0
 11 35  1  0
 13 36  1  0
 13 37  1  0
 14 38  1  0
 15 39  1  0
 15 40  1  0
 16 41  1  0
 16 42  1  0
 17 43  1  0
 18 44  1  0
 18 45  1  0
 18 46  1  0
 19 47  1  0
 20 48  1  0
 23 49  1  0
 23 50  1  0
 23 51  1  0
 26 52  1  0
M  CHG  1   8   1
M  END
>  <UniqueID>  (18) 
16

>  <SMILES>  (18) 
CCOc1ccc2[nH+]c(-c3cc(CNCCNC)ccc3OC)sc2c1

>  <Energy>  (18) 
85.42307338648071

>  <Genealogy>  (18) 
CCOc1ccc2[nH+]c(-c3cc(CNCCNC)ccc3OC)sc2c1 (protonated)
CCOc1ccc2[nH+]c(-c3cc(CNCCNC)ccc3OC)sc2c1 (3D coordinates assigned)
CCOc1ccc2[nH+]c(-c3cc(CNCCNC)ccc3OC)sc2c1 (optimized conformer: 85.42307338648071 kcal/mol)

>  <smiles>  (18) 
CCOc1ccc2nc(-c3cc(CNCCNC)ccc3OC)sc2c1

>  <score_type>  (18) 
oracle

>  <origin>  (18) 
adg

>  <m_score__min__energy>  (18) 
-6.0700000000000003

>  <m_primary>  (18) 
energy

$$$$
18:0
     RDKit          3D

 31 33  0  0  0  0  0  0  0  0999 V2000
   55.8490   29.7170   44.1230 Br  0  0  0  0  0  0  0  0  0  0  0  0
   57.1500   30.8040   43.1890 C   0  0  0  0  0  0  0  0  0  0  0  0
   57.7870   31.7620   44.1420 C   0  0  0  0  0  0  0  0  0  0  0  0
   57.7720   33.1080   43.9790 N   0  0  0  0  0  0  0  0  0  0  0  0
   58.5470   33.5560   44.9930 C   0  0  0  0  0  0  0  0  0  0  0  0
   58.8410   34.8910   45.2620 C   0  0  0  0  0  0  0  0  0  0  0  0
   59.6710   35.1680   46.3600 C   0  0  0  0  0  0  0  0  0  0  0  0
   60.1780   34.1200   47.1520 C   0  0  0  0  0  0  0  0  0  0  0  0
   59.8510   32.7930   46.8340 C   0  0  0  0  0  0  0  0  0  0  0  0
   59.0500   32.5720   45.7600 N   0  0  0  0  0  0  0  0  0  0  0  0
   58.5760   31.4340   45.2320 C   0  0  0  0  0  0  0  0  0  0  0  0
   58.9240   30.1120   45.6590 N   0  0  0  0  0  0  0  0  0  0  0  0
   59.4620   29.1510   44.6970 C   0  0  0  0  0  0  0  0  0  0  0  0
   60.4560   28.2280   45.4100 C   0  0  0  0  0  0  0  0  0  0  0  0
   59.8720   27.6550   46.5660 O   0  0  0  0  0  0  0  0  0  0  0  0
   59.5800   28.6690   47.5120 C   0  0  0  0  0  0  0  0  0  0  0  0
   58.5110   29.6240   46.9740 C   0  0  0  0  0  0  0  0  0  0  0  0
   57.9231   30.1542   42.7530 H   0  0  0  0  0  0  0  0  0  0  0  0
   56.6458   31.3677   42.3902 H   0  0  0  0  0  0  0  0  0  0  0  0
   58.4368   35.7000   44.6358 H   0  0  0  0  0  0  0  0  0  0  0  0
   59.9267   36.2099   46.6030 H   0  0  0  0  0  0  0  0  0  0  0  0
   60.8256   34.3399   48.0136 H   0  0  0  0  0  0  0  0  0  0  0  0
   60.2325   31.9560   47.4373 H   0  0  0  0  0  0  0  0  0  0  0  0
   58.6407   28.5524   44.2762 H   0  0  0  0  0  0  0  0  0  0  0  0
   59.9733   29.6879   43.8844 H   0  0  0  0  0  0  0  0  0  0  0  0
   60.7581   27.4241   44.7227 H   0  0  0  0  0  0  0  0  0  0  0  0
   61.3308   28.8211   45.7147 H   0  0  0  0  0  0  0  0  0  0  0  0
   59.2136   28.2029   48.4386 H   0  0  0  0  0  0  0  0  0  0  0  0
   60.4979   29.2424   47.7084 H   0  0  0  0  0  0  0  0  0  0  0  0
   57.5525   29.0916   46.8851 H   0  0  0  0  0  0  0  0  0  0  0  0
   58.3911   30.4726   47.6635 H   0  0  0  0  0  0  0  0  0  0  0  0
  1  2  1  0
  2  3  1  0
  3  4  1  0
  4  5  2  0
  5  6  1  0
  6  7  2  0
  7  8  1  0
  8  9  2  0
  9 10  1  0
 10 11  1  0
 11 12  1  0
 12 13  1  0
 13 14  1  0
 14 15  1  0
 15 16  1  0
 16 17  1  0
 11  3  2  0
 17 12  1  0
 10  5  1  0
  2 18  1  0
  2 19  1  0
  6 20  1  0
  7 21  1  0
  8 22  1  0
  9 23  1  0
 13 24  1  0
 13 25  1  0
 14 26  1  0
 14 27  1  0
 16 28  1  0
 16 29  1  0
 17 30  1  0
 17 31  1  0
M  END
>  <UniqueID>  (19) 
17

>  <SMILES>  (19) 
BrCc1nc2ccccn2c1N1CCOCC1

>  <Energy>  (19) 
71.9733747381295

>  <Genealogy>  (19) 
BrCc1nc2ccccn2c1N1CCOCC1 (3D coordinates assigned)
BrCc1nc2ccccn2c1N1CCOCC1 (nonaromatic ring conformer: 71.9733747381295 kcal/mol)

>  <smiles>  (19) 
BrCc1nc2ccccn2c1N1CCOCC1

>  <score_type>  (19) 
oracle

>  <origin>  (19) 
adg

>  <m_score__min__energy>  (19) 
-5.96

>  <m_primary>  (19) 
energy

$$$$
19:0
     RDKit          3D

 29 31  0  0  0  0  0  0  0  0999 V2000
   64.2440   32.4000   49.3410 C   0  0  0  0  0  0  0  0  0  0  0  0
   63.7790   32.8630   48.0780 O   0  0  0  0  0  0  0  0  0  0  0  0
   62.5320   32.5360   47.5230 C   0  0  0  0  0  0  0  0  0  0  0  0
   61.8010   33.5510   46.8950 C   0  0  0  0  0  0  0  0  0  0  0  0
   60.5550   33.2830   46.3250 C   0  0  0  0  0  0  0  0  0  0  0  0
   60.0220   31.9910   46.3740 C   0  0  0  0  0  0  0  0  0  0  0  0
   58.8350   31.7520   45.8250 O   0  0  0  0  0  0  0  0  0  0  0  0
   58.2670   30.5510   45.8350 C   0  0  0  0  0  0  0  0  0  0  0  0
   57.0170   30.3750   45.2380 C   0  0  0  0  0  0  0  0  0  0  0  0
   56.4030   29.1190   45.2370 C   0  0  0  0  0  0  0  0  0  0  0  0
   55.1570   28.9700   44.6360 O   0  0  0  0  0  0  0  0  0  0  0  0
   57.0420   28.0200   45.8370 C   0  0  0  0  0  0  0  0  0  0  0  0
   56.4230   26.7290   45.8420 N   0  0  0  0  0  0  0  0  0  0  0  0
   58.2990   28.1910   46.4370 C   0  0  0  0  0  0  0  0  0  0  0  0
   58.9210   29.4540   46.4420 C   0  0  0  0  0  0  0  0  0  0  0  0
   60.1790   29.6660   47.0320 C   0  0  0  0  0  0  0  0  0  0  0  0
   60.7930   28.7100   47.5840 O   0  0  0  0  0  0  0  0  0  0  0  0
   60.7450   30.9530   47.0020 C   0  0  0  0  0  0  0  0  0  0  0  0
   62.0010   31.2320   47.5740 C   0  0  0  0  0  0  0  0  0  0  0  0
   63.7116   32.9301   50.1445 H   0  0  0  0  0  0  0  0  0  0  0  0
   64.0562   31.3196   49.4273 H   0  0  0  0  0  0  0  0  0  0  0  0
   65.3236   32.5925   49.4273 H   0  0  0  0  0  0  0  0  0  0  0  0
   62.2124   34.5702   46.8501 H   0  0  0  0  0  0  0  0  0  0  0  0
   59.9907   34.0907   45.8358 H   0  0  0  0  0  0  0  0  0  0  0  0
   56.5120   31.2303   44.7653 H   0  0  0  0  0  0  0  0  0  0  0  0
   56.6040   26.0430   46.6080 H   0  0  0  0  0  0  0  0  0  0  0  0
   55.7740   26.4450   45.0740 H   0  0  0  0  0  0  0  0  0  0  0  0
   58.8016   27.3326   46.9065 H   0  0  0  0  0  0  0  0  0  0  0  0
   62.5704   30.4279   48.0631 H   0  0  0  0  0  0  0  0  0  0  0  0
  1  2  1  0
  2  3  1  0
  3  4  2  0
  4  5  1  0
  5  6  2  0
  6  7  1  0
  7  8  1  0
  8  9  2  0
  9 10  1  0
 10 11  1  0
 10 12  2  0
 12 13  1  0
 12 14  1  0
 14 15  2  0
 15 16  1  0
 16 17  2  0
 16 18  1  0
 18 19  2  0
 19  3  1  0
 18  6  1  0
 15  8  1  0
  1 20  1  0
  1 21  1  0
  1 22  1  0
  4 23  1  0
  5 24  1  0
  9 25  1  0
 13 26  1  0
 13 27  1  0
 14 28  1  0
 19 29  1  0
M  CHG  1  11  -1
M  END
>  <UniqueID>  (20) 
18

>  <SMILES>  (20) 
COc1ccc2oc3cc([O-])c(N)cc3c(=O)c2c1

>  <Energy>  (20) 
39.67419032108945

>  <Genealogy>  (20) 
COc1ccc2oc3cc([O-])c(N)cc3c(=O)c2c1 (protonated)
COc1ccc2oc3cc([O-])c(N)cc3c(=O)c2c1 (3D coordinates assigned)
COc1ccc2oc3cc([O-])c(N)cc3c(=O)c2c1 (optimized conformer: 39.67419032108945 kcal/mol)

>  <smiles>  (20) 
COc1ccc2oc3cc(O)c(N)cc3c(=O)c2c1

>  <score_type>  (20) 
oracle

>  <origin>  (20) 
adg

>  <m_score__min__energy>  (20) 
-8.5399999999999991

>  <m_primary>  (20) 
energy

$$$$
20:0
     RDKit          3D

 52 53  0  0  0  0  0  0  0  0999 V2000
   56.9230   21.6480   43.0500 C   0  0  0  0  0  0  0  0  0  0  0  0
   56.4780   23.1070   43.0310 C   0  0  0  0  0  0  0  0  0  0  0  0
   56.1430   23.6580   44.4290 C   0  0  0  0  0  0  0  0  0  0  0  0
   56.9790   24.8880   44.8250 C   0  0  0  0  0  0  0  0  0  0  0  0
   56.3270   25.7820   46.2430 S   0  0  0  0  0  0  0  0  0  0  0  0
   54.9390   26.3070   45.9970 O   0  0  0  0  0  0  0  0  0  0  0  0
   56.2860   24.8470   47.4180 O   0  0  0  0  0  0  0  0  0  0  0  0
   57.3820   27.1060   46.6270 N   0  0  0  0  0  0  0  0  0  0  0  0
   57.4960   28.2720   45.7960 C   0  0  0  0  0  0  0  0  0  0  0  0
   56.4210   28.7080   45.0020 C   0  0  0  0  0  0  0  0  0  0  0  0
   56.5640   29.8110   44.1570 C   0  0  0  0  0  0  0  0  0  0  0  0
   55.5140   30.1950   43.3860 F   0  0  0  0  0  0  0  0  0  0  0  0
   57.7890   30.4960   44.0880 C   0  0  0  0  0  0  0  0  0  0  0  0
   57.9950   31.6020   43.0810 C   0  0  0  0  0  0  0  0  0  0  0  0
   58.0740   32.9260   43.7190 N   0  0  0  0  0  0  0  0  0  0  0  0
   57.1710   33.0800   44.8770 C   0  0  0  0  0  0  0  0  0  0  0  0
   57.6940   34.1140   45.8910 C   0  0  0  0  0  0  0  0  0  0  0  0
   59.1760   34.1400   45.8790 N   0  0  0  0  0  0  0  0  0  0  0  0
   59.7370   32.8850   46.4060 C   0  0  0  0  0  0  0  0  0  0  0  0
   60.0000   33.0730   47.8970 C   0  0  0  0  0  0  0  0  0  0  0  0
   59.8590   34.5630   48.1510 C   0  0  0  0  0  0  0  0  0  0  0  0
   59.7020   35.1800   46.7730 C   0  0  0  0  0  0  0  0  0  0  0  0
   58.8510   30.0850   44.9070 C   0  0  0  0  0  0  0  0  0  0  0  0
   58.7050   28.9870   45.7600 C   0  0  0  0  0  0  0  0  0  0  0  0
   59.7590   28.5920   46.5190 F   0  0  0  0  0  0  0  0  0  0  0  0
   57.0262   21.3097   44.0916 H   0  0  0  0  0  0  0  0  0  0  0  0
   56.1728   21.0291   42.5361 H   0  0  0  0  0  0  0  0  0  0  0  0
   57.8909   21.5532   42.5361 H   0  0  0  0  0  0  0  0  0  0  0  0
   57.2884   23.7140   42.6011 H   0  0  0  0  0  0  0  0  0  0  0  0
   55.5582   23.1600   42.4301 H   0  0  0  0  0  0  0  0  0  0  0  0
   55.0800   23.9404   44.4456 H   0  0  0  0  0  0  0  0  0  0  0  0
   56.3770   22.8633   45.1527 H   0  0  0  0  0  0  0  0  0  0  0  0
   57.9984   24.5518   45.0656 H   0  0  0  0  0  0  0  0  0  0  0  0
   56.9551   25.5805   43.9707 H   0  0  0  0  0  0  0  0  0  0  0  0
   58.0850   26.9460   47.3820 H   0  0  0  0  0  0  0  0  0  0  0  0
   55.4592   28.1761   45.0465 H   0  0  0  0  0  0  0  0  0  0  0  0
   58.9318   31.4149   42.5357 H   0  0  0  0  0  0  0  0  0  0  0  0
   57.1304   31.6054   42.4010 H   0  0  0  0  0  0  0  0  0  0  0  0
   59.0650   33.1500   43.9730 H   0  0  0  0  0  0  0  0  0  0  0  0
   56.1846   33.4062   44.5157 H   0  0  0  0  0  0  0  0  0  0  0  0
   57.1097   32.1079   45.3882 H   0  0  0  0  0  0  0  0  0  0  0  0
   57.3111   35.1101   45.6242 H   0  0  0  0  0  0  0  0  0  0  0  0
   57.3485   33.8355   46.8975 H   0  0  0  0  0  0  0  0  0  0  0  0
   59.0210   32.0638   46.2543 H   0  0  0  0  0  0  0  0  0  0  0  0
   60.6718   32.6358   45.8825 H   0  0  0  0  0  0  0  0  0  0  0  0
   59.2641   32.5108   48.4907 H   0  0  0  0  0  0  0  0  0  0  0  0
   60.9952   32.7031   48.1849 H   0  0  0  0  0  0  0  0  0  0  0  0
   58.9733   34.7681   48.7702 H   0  0  0  0  0  0  0  0  0  0  0  0
   60.7229   34.9746   48.6934 H   0  0  0  0  0  0  0  0  0  0  0  0
   59.0003   36.0259   46.8183 H   0  0  0  0  0  0  0  0  0  0  0  0
   60.6685   35.5541   46.4044 H   0  0  0  0  0  0  0  0  0  0  0  0
   59.8057   30.6306   44.8779 H   0  0  0  0  0  0  0  0  0  0  0  0
  1  2  1  0
  2  3  1  0
  3  4  1  0
  4  5  1  0
  5  6  2  0
  5  7  2  0
  5  8  1  0
  8  9  1  0
  9 10  2  0
 10 11  1  0
 11 12  1  0
 11 13  2  0
 13 14  1  0
 14 15  1  0
 15 16  1  0
 16 17  1  0
 17 18  1  0
 18 19  1  0
 19 20  1  0
 20 21  1  0
 21 22  1  0
 13 23  1  0
 23 24  2  0
 24 25  1  0
 24  9  1  0
 22 18  1  0
  1 26  1  0
  1 27  1  0
  1 28  1  0
  2 29  1  0
  2 30  1  0
  3 31  1  0
  3 32  1  0
  4 33  1  0
  4 34  1  0
  8 35  1  0
 10 36  1  0
 14 37  1  0
 14 38  1  0
 15 39  1  0
 16 40  1  0
 16 41  1  0
 17 42  1  0
 17 43  1  0
 19 44  1  0
 19 45  1  0
 20 46  1  0
 20 47  1  0
 21 48  1  0
 21 49  1  0
 22 50  1  0
 22 51  1  0
 23 52  1  0
M  END
>  <UniqueID>  (21) 
19

>  <SMILES>  (21) 
CCCCS(=O)(=O)Nc1cc(F)c(CNCCN2CCCC2)cc1F

>  <Energy>  (21) 
50.45435357767272

>  <Genealogy>  (21) 
CCCCS(=O)(=O)Nc1cc(F)c(CNCCN2CCCC2)cc1F (3D coordinates assigned)
CCCCS(=O)(=O)Nc1cc(F)c(CNCCN2CCCC2)cc1F (nonaromatic ring conformer: 50.45435357767272 kcal/mol)

>  <smiles>  (21) 
CCCCS(=O)(=O)Nc1cc(F)c(CNCCN2CCCC2)cc1F

>  <score_type>  (21) 
oracle

>  <origin>  (21) 
adg

>  <m_score__min__energy>  (21) 
-7.7599999999999998

>  <m_primary>  (21) 
energy

$$$$
21:0
     RDKit          3D

 34 35  0  0  0  0  0  0  0  0999 V2000
   57.2620   34.1720   44.8660 C   0  0  0  0  0  0  0  0  0  0  0  0
   58.2940   33.5100   45.4070 C   0  0  0  0  0  0  0  0  0  0  0  0
   58.5050   32.1330   45.3660 C   0  0  0  0  0  0  0  0  0  0  0  0
   57.6930   31.1140   44.6700 C   0  0  0  0  0  0  0  0  0  0  0  0
   58.0930   30.5990   43.4000 N   0  0  0  0  0  0  0  0  0  0  0  0
   56.6510   30.6630   45.2190 O   0  0  0  0  0  0  0  0  0  0  0  0
   59.6440   31.8850   46.1220 C   0  0  0  0  0  0  0  0  0  0  0  0
   60.2430   30.5310   46.3780 C   0  0  0  0  0  0  0  0  0  0  0  0
   60.1310   33.0460   46.6180 N   0  0  0  0  0  0  0  0  0  0  0  0
   61.2930   33.1830   47.4520 C   0  0  0  0  0  0  0  0  0  0  0  0
   62.5670   33.1090   46.8720 C   0  0  0  0  0  0  0  0  0  0  0  0
   63.7110   33.2240   47.6660 C   0  0  0  0  0  0  0  0  0  0  0  0
   63.5890   33.4120   49.0450 C   0  0  0  0  0  0  0  0  0  0  0  0
   62.3240   33.4900   49.6330 C   0  0  0  0  0  0  0  0  0  0  0  0
   61.1660   33.3890   48.8440 C   0  0  0  0  0  0  0  0  0  0  0  0
   59.8100   33.4630   49.4900 C   0  0  0  0  0  0  0  0  0  0  0  0
   59.3270   34.0450   46.1820 C   0  0  0  0  0  0  0  0  0  0  0  0
   59.5090   35.3390   46.4870 C   0  0  0  0  0  0  0  0  0  0  0  0
   57.1993   35.2660   44.9618 H   0  0  0  0  0  0  0  0  0  0  0  0
   56.4776   33.6214   44.3261 H   0  0  0  0  0  0  0  0  0  0  0  0
   57.4900   29.9090   42.9000 H   0  0  0  0  0  0  0  0  0  0  0  0
   59.0240   30.8390   42.9920 H   0  0  0  0  0  0  0  0  0  0  0  0
   60.3177   30.3622   47.4624 H   0  0  0  0  0  0  0  0  0  0  0  0
   59.6036   29.7564   45.9295 H   0  0  0  0  0  0  0  0  0  0  0  0
   61.2463   30.4832   45.9295 H   0  0  0  0  0  0  0  0  0  0  0  0
   62.6666   32.9597   45.7867 H   0  0  0  0  0  0  0  0  0  0  0  0
   64.7081   33.1665   47.2051 H   0  0  0  0  0  0  0  0  0  0  0  0
   64.4907   33.4988   49.6690 H   0  0  0  0  0  0  0  0  0  0  0  0
   62.2342   33.6313   50.7202 H   0  0  0  0  0  0  0  0  0  0  0  0
   59.9242   33.4568   50.5840 H   0  0  0  0  0  0  0  0  0  0  0  0
   59.3059   34.3900   49.1792 H   0  0  0  0  0  0  0  0  0  0  0  0
   59.2080   32.5964   49.1792 H   0  0  0  0  0  0  0  0  0  0  0  0
   58.8156   36.0988   46.0972 H   0  0  0  0  0  0  0  0  0  0  0  0
   60.3516   35.6400   47.1269 H   0  0  0  0  0  0  0  0  0  0  0  0
  1  2  2  0
  2  3  1  0
  3  4  1  0
  4  5  1  0
  4  6  2  0
  3  7  2  0
  7  8  1  0
  7  9  1  0
  9 10  1  0
 10 11  2  0
 11 12  1  0
 12 13  2  0
 13 14  1  0
 14 15  2  0
 15 16  1  0
  9 17  1  0
 17 18  2  0
 17  2  1  0
 15 10  1  0
  1 19  1  0
  1 20  1  0
  5 21  1  0
  5 22  1  0
  8 23  1  0
  8 24  1  0
  8 25  1  0
 11 26  1  0
 12 27  1  0
 13 28  1  0
 14 29  1  0
 16 30  1  0
 16 31  1  0
 16 32  1  0
 18 33  1  0
 18 34  1  0
M  END
>  <UniqueID>  (22) 
20

>  <SMILES>  (22) 
C=c1c(C(N)=O)c(C)n(-c2ccccc2C)c1=C

>  <Energy>  (22) 
73.64802090365652

>  <Genealogy>  (22) 
C=c1c(C(N)=O)c(C)n(-c2ccccc2C)c1=C (3D coordinates assigned)
C=c1c(C(N)=O)c(C)n(-c2ccccc2C)c1=C (optimized conformer: 73.64802090365652 kcal/mol)

>  <smiles>  (22) 
C=c1c(C(N)=O)c(C)n(-c2ccccc2C)c1=C

>  <score_type>  (22) 
oracle

>  <origin>  (22) 
adg

>  <m_score__min__energy>  (22) 
-7.4199999999999999

>  <m_primary>  (22) 
energy

$$$$
22:0
     RDKit          3D

 50 52  0  0  0  0  0  0  0  0999 V2000
   55.7340   30.0480   43.9260 C   0  0  0  0  0  0  0  0  0  0  0  0
   56.2190   29.5810   45.1800 O   0  0  0  0  0  0  0  0  0  0  0  0
   57.3560   28.7760   45.3460 C   0  0  0  0  0  0  0  0  0  0  0  0
   57.3900   27.4350   44.9130 C   0  0  0  0  0  0  0  0  0  0  0  0
   58.5480   26.6710   45.0710 C   0  0  0  0  0  0  0  0  0  0  0  0
   59.6840   27.2330   45.6540 C   0  0  0  0  0  0  0  0  0  0  0  0
   59.6650   28.5600   46.0850 C   0  0  0  0  0  0  0  0  0  0  0  0
   58.5040   29.3360   45.9430 C   0  0  0  0  0  0  0  0  0  0  0  0
   58.4950   30.7000   46.3970 N   0  0  0  0  0  0  0  0  0  0  0  0
   59.0320   31.0220   47.7280 C   0  0  0  0  0  0  0  0  0  0  0  0
   59.0390   32.5340   47.9730 C   0  0  0  0  0  0  0  0  0  0  0  0
   59.5170   33.2320   46.7720 N   0  0  0  0  0  0  0  0  0  0  0  0
   60.4940   34.2880   46.8510 C   0  0  0  0  0  0  0  0  0  0  0  0
   60.3570   35.3100   46.1260 O   0  0  0  0  0  0  0  0  0  0  0  0
   61.6700   34.2100   47.7940 C   0  0  0  0  0  0  0  0  0  0  0  0
   62.9940   33.8330   47.0790 C   0  0  0  0  0  0  0  0  0  0  0  0
   63.7480   32.7140   47.7010 N   0  0  1  0  0  0  0  0  0  0  0  0
   64.3950   33.0750   48.9790 C   0  0  0  0  0  0  0  0  0  0  0  0
   63.7080   32.2910   50.1090 C   0  0  0  0  0  0  0  0  0  0  0  0
   62.8580   31.2240   49.4440 C   0  0  0  0  0  0  0  0  0  0  0  0
   62.9200   31.5890   48.0130 C   0  0  0  0  0  0  0  0  0  0  0  0
   62.3530   30.9390   47.1480 O   0  0  0  0  0  0  0  0  0  0  0  0
   58.9020   32.9390   45.4680 C   0  0  0  0  0  0  0  0  0  0  0  0
   57.9270   31.7590   45.5520 C   0  0  0  0  0  0  0  0  0  0  0  0
   54.9509   30.8021   44.0935 H   0  0  0  0  0  0  0  0  0  0  0  0
   56.5611   30.4984   43.3577 H   0  0  0  0  0  0  0  0  0  0  0  0
   55.3152   29.2044   43.3577 H   0  0  0  0  0  0  0  0  0  0  0  0
   56.4991   26.9878   44.4479 H   0  0  0  0  0  0  0  0  0  0  0  0
   58.5646   25.6237   44.7350 H   0  0  0  0  0  0  0  0  0  0  0  0
   60.5957   26.6294   45.7741 H   0  0  0  0  0  0  0  0  0  0  0  0
   60.5651   29.0005   46.5387 H   0  0  0  0  0  0  0  0  0  0  0  0
   58.4077   30.5376   48.4933 H   0  0  0  0  0  0  0  0  0  0  0  0
   60.0679   30.6560   47.7829 H   0  0  0  0  0  0  0  0  0  0  0  0
   58.0185   32.8702   48.2086 H   0  0  0  0  0  0  0  0  0  0  0  0
   59.7088   32.7617   48.8154 H   0  0  0  0  0  0  0  0  0  0  0  0
   61.7985   35.1902   48.2764 H   0  0  0  0  0  0  0  0  0  0  0  0
   61.4536   33.4182   48.5263 H   0  0  0  0  0  0  0  0  0  0  0  0
   62.7536   33.5486   46.0440 H   0  0  0  0  0  0  0  0  0  0  0  0
   63.6438   34.7178   47.1497 H   0  0  0  0  0  0  0  0  0  0  0  0
   64.4830   32.3970   47.0240 H   0  0  0  0  0  0  0  0  0  0  0  0
   65.4629   32.8138   48.9416 H   0  0  0  0  0  0  0  0  0  0  0  0
   64.3013   34.1563   49.1579 H   0  0  0  0  0  0  0  0  0  0  0  0
   64.4622   31.8242   50.7596 H   0  0  0  0  0  0  0  0  0  0  0  0
   63.0928   32.9547   50.7343 H   0  0  0  0  0  0  0  0  0  0  0  0
   63.2780   30.2217   49.6143 H   0  0  0  0  0  0  0  0  0  0  0  0
   61.8309   31.1835   49.8356 H   0  0  0  0  0  0  0  0  0  0  0  0
   58.3551   33.8292   45.1239 H   0  0  0  0  0  0  0  0  0  0  0  0
   59.7035   32.6714   44.7638 H   0  0  0  0  0  0  0  0  0  0  0  0
   56.9763   32.1017   45.9865 H   0  0  0  0  0  0  0  0  0  0  0  0
   57.7521   31.3612   44.5415 H   0  0  0  0  0  0  0  0  0  0  0  0
  1  2  1  0
  2  3  1  0
  3  4  2  0
  4  5  1  0
  5  6  2  0
  6  7  1  0
  7  8  2  0
  8  9  1  0
  9 10  1  0
 10 11  1  0
 11 12  1  0
 12 13  1  0
 13 14  2  0
 13 15  1  0
 15 16  1  0
 16 17  1  0
 17 18  1  0
 18 19  1  0
 19 20  1  0
 20 21  1  0
 21 22  2  0
 12 23  1  0
 23 24  1  0
  8  3  1  0
 24  9  1  0
 21 17  1  0
  1 25  1  0
  1 26  1  0
  1 27  1  0
  4 28  1  0
  5 29  1  0
  6 30  1  0
  7 31  1  0
 10 32  1  0
 10 33  1  0
 11 34  1  0
 11 35  1  0
 15 36  1  0
 15 37  1  0
 16 38  1  0
 16 39  1  0
 17 40  1  6
 18 41  1  0
 18 42  1  0
 19 43  1  0
 19 44  1  0
 20 45  1  0
 20 46  1  0
 23 47  1  0
 23 48  1  0
 24 49  1  0
 24 50  1  0
M  CHG  1  17   1
M  END
>  <UniqueID>  (23) 
21

>  <SMILES>  (23) 
COc1ccccc1N1CCN(C(=O)CC[N@H+]2CCCC2=O)CC1

>  <Energy>  (23) 
57.96264897322217

>  <Genealogy>  (23) 
COc1ccccc1N1CCN(C(=O)CC[NH+]2CCCC2=O)CC1 (protonated)
COc1ccccc1N1CCN(C(=O)CC[N@H+]2CCCC2=O)CC1 (chirality)
COc1ccccc1N1CCN(C(=O)CC[N@H+]2CCCC2=O)CC1 (3D coordinates assigned)
COc1ccccc1N1CCN(C(=O)CC[N@H+]2CCCC2=O)CC1 (nonaromatic ring conformer: 57.96264897322217 kcal/mol)

>  <smiles>  (23) 
COc1ccccc1N1CCN(C(=O)CCN2CCCC2=O)CC1

>  <score_type>  (23) 
oracle

>  <origin>  (23) 
adg

>  <m_score__min__energy>  (23) 
-6.2400000000000002

>  <m_primary>  (23) 
energy

$$$$
23:0
     RDKit          3D

 59 62  0  0  0  0  0  0  0  0999 V2000
   60.5570   33.8300   46.4010 C   0  0  0  0  0  0  0  0  0  0  0  0
   59.3390   34.5790   46.0500 N   0  0  0  0  0  0  0  0  0  0  0  0
   58.1510   34.0540   46.7700 C   0  0  0  0  0  0  0  0  0  0  0  0
   56.9410   33.8190   45.8490 C   0  0  0  0  0  0  0  0  0  0  0  0
   57.2970   32.9600   44.7010 N   0  0  0  0  0  0  0  0  0  0  0  0
   57.3590   31.5300   45.0860 C   0  0  0  0  0  0  0  0  0  0  0  0
   57.0530   30.6140   43.8900 C   0  0  0  0  0  0  0  0  0  0  0  0
   55.7570   29.8150   44.0780 C   0  0  0  0  0  0  0  0  0  0  0  0
   55.8610   28.9490   45.2440 N   0  0  0  0  0  0  0  0  0  0  0  0
   57.0410   28.2050   45.5580 C   0  0  0  0  0  0  0  0  0  0  0  0
   57.0430   26.9490   45.4400 O   0  0  0  0  0  0  0  0  0  0  0  0
   58.2590   28.8950   46.0210 C   0  0  0  0  0  0  0  0  0  0  0  0
   59.4810   28.7520   45.3390 C   0  0  0  0  0  0  0  0  0  0  0  0
   60.6100   29.4320   45.7960 C   0  0  0  0  0  0  0  0  0  0  0  0
   60.5220   30.2470   46.9310 C   0  0  0  0  0  0  0  0  0  0  0  0
   61.6390   30.9430   47.4180 C   0  0  0  0  0  0  0  0  0  0  0  0
   61.5300   31.7530   48.5550 C   0  0  0  0  0  0  0  0  0  0  0  0
   62.6780   32.4110   49.0190 O   0  0  0  0  0  0  0  0  0  0  0  0
   63.7040   31.8200   49.7700 C   0  0  0  0  0  0  0  0  0  0  0  0
   64.9880   32.3700   49.7200 C   0  0  0  0  0  0  0  0  0  0  0  0
   66.0140   31.7930   50.4690 C   0  0  0  0  0  0  0  0  0  0  0  0
   65.7570   30.6630   51.2630 C   0  0  0  0  0  0  0  0  0  0  0  0
   66.8390   30.0430   52.1100 C   0  0  0  0  0  0  0  0  0  0  0  0
   67.2290   28.8180   51.5980 F   0  0  0  0  0  0  0  0  0  0  0  0
   67.9350   30.8850   52.1430 F   0  0  0  0  0  0  0  0  0  0  0  0
   66.3810   29.8480   53.4020 F   0  0  0  0  0  0  0  0  0  0  0  0
   64.4440   30.1690   51.3170 C   0  0  0  0  0  0  0  0  0  0  0  0
   63.4620   30.7480   50.5750 N   0  0  0  0  0  0  0  0  0  0  0  0
   60.2930   31.8400   49.2250 C   0  0  0  0  0  0  0  0  0  0  0  0
   59.1750   31.1560   48.7400 C   0  0  0  0  0  0  0  0  0  0  0  0
   59.2820   30.3600   47.5950 C   0  0  0  0  0  0  0  0  0  0  0  0
   58.1960   29.6900   47.1250 N   0  0  0  0  0  0  0  0  0  0  0  0
   58.5230   33.4080   43.9860 C   0  0  0  0  0  0  0  0  0  0  0  0
   59.1630   34.6760   44.5840 C   0  0  0  0  0  0  0  0  0  0  0  0
   60.6497   33.7730   47.4956 H   0  0  0  0  0  0  0  0  0  0  0  0
   60.4952   32.8137   45.9848 H   0  0  0  0  0  0  0  0  0  0  0  0
   61.4361   34.3438   45.9848 H   0  0  0  0  0  0  0  0  0  0  0  0
   58.4222   33.0982   47.2422 H   0  0  0  0  0  0  0  0  0  0  0  0
   57.8562   34.8112   47.5114 H   0  0  0  0  0  0  0  0  0  0  0  0
   56.1411   33.3320   46.4260 H   0  0  0  0  0  0  0  0  0  0  0  0
   56.6056   34.7927   45.4623 H   0  0  0  0  0  0  0  0  0  0  0  0
   58.3679   31.3037   45.4613 H   0  0  0  0  0  0  0  0  0  0  0  0
   56.6033   31.3477   45.8643 H   0  0  0  0  0  0  0  0  0  0  0  0
   56.9572   31.2339   42.9864 H   0  0  0  0  0  0  0  0  0  0  0  0
   57.8796   29.8937   43.8008 H   0  0  0  0  0  0  0  0  0  0  0  0
   54.9179   30.5124   44.2178 H   0  0  0  0  0  0  0  0  0  0  0  0
   55.5870   29.1944   43.1858 H   0  0  0  0  0  0  0  0  0  0  0  0
   59.5459   28.1074   44.4500 H   0  0  0  0  0  0  0  0  0  0  0  0
   61.5680   29.3280   45.2654 H   0  0  0  0  0  0  0  0  0  0  0  0
   62.6067   30.8516   46.9031 H   0  0  0  0  0  0  0  0  0  0  0  0
   65.1883   33.2521   49.0941 H   0  0  0  0  0  0  0  0  0  0  0  0
   67.0257   32.2236   50.4377 H   0  0  0  0  0  0  0  0  0  0  0  0
   64.2083   29.3099   51.9622 H   0  0  0  0  0  0  0  0  0  0  0  0
   60.2070   32.4505   50.1360 H   0  0  0  0  0  0  0  0  0  0  0  0
   58.2094   31.2438   49.2596 H   0  0  0  0  0  0  0  0  0  0  0  0
   59.2631   32.5951   44.0237 H   0  0  0  0  0  0  0  0  0  0  0  0
   58.2218   33.6555   42.9574 H   0  0  0  0  0  0  0  0  0  0  0  0
   60.1482   34.8279   44.1188 H   0  0  0  0  0  0  0  0  0  0  0  0
   58.4882   35.5208   44.3815 H   0  0  0  0  0  0  0  0  0  0  0  0
  1  2  1  0
  2  3  1  0
  3  4  1  0
  4  5  1  0
  5  6  1  0
  6  7  1  0
  7  8  1  0
  8  9  1  0
  9 10  1  0
 10 11  2  0
 10 12  1  0
 12 13  2  0
 13 14  1  0
 14 15  2  0
 15 16  1  0
 16 17  2  0
 17 18  1  0
 18 19  1  0
 19 20  2  0
 20 21  1  0
 21 22  2  0
 22 23  1  0
 23 24  1  0
 23 25  1  0
 23 26  1  0
 22 27  1  0
 27 28  2  0
 17 29  1  0
 29 30  2  0
 30 31  1  0
 31 32  2  0
  5 33  1  0
 33 34  1  0
 34  2  1  0
 32 12  1  0
 31 15  1  0
 28 19  1  0
  1 35  1  0
  1 36  1  0
  1 37  1  0
  3 38  1  0
  3 39  1  0
  4 40  1  0
  4 41  1  0
  6 42  1  0
  6 43  1  0
  7 44  1  0
  7 45  1  0
  8 46  1  0
  8 47  1  0
 13 48  1  0
 14 49  1  0
 16 50  1  0
 20 51  1  0
 21 52  1  0
 27 53  1  0
 29 54  1  0
 30 55  1  0
 33 56  1  0
 33 57  1  0
 34 58  1  0
 34 59  1  0
M  CHG  1   9  -1
M  END
>  <UniqueID>  (24) 
22

>  <SMILES>  (24) 
CN1CCN(CCC[N-]C(=O)c2ccc3cc(Oc4ccc(C(F)(F)F)cn4)ccc3n2)CC1

>  <Energy>  (24) 
79.68191308670882

>  <Genealogy>  (24) 
CN1CCN(CCC[N-]C(=O)c2ccc3cc(Oc4ccc(C(F)(F)F)cn4)ccc3n2)CC1 (protonated)
CN1CCN(CCC[N-]C(=O)c2ccc3cc(Oc4ccc(C(F)(F)F)cn4)ccc3n2)CC1 (3D coordinates assigned)
CN1CCN(CCC[N-]C(=O)c2ccc3cc(Oc4ccc(C(F)(F)F)cn4)ccc3n2)CC1 (nonaromatic ring conformer: 79.68191308670882 kcal/mol)

>  <smiles>  (24) 
CN1CCN(CCCNC(=O)c2ccc3cc(Oc4ccc(C(F)(F)F)cn4)ccc3n2)CC1

>  <score_type>  (24) 
oracle

>  <origin>  (24) 
adg

>  <m_score__min__energy>  (24) 
-10.380000000000001

>  <m_primary>  (24) 
energy

$$$$
24:0
     RDKit          3D

 55 60  0  0  0  0  0  0  0  0999 V2000
   57.8280   27.0890   42.6710 C   0  0  0  0  0  0  0  0  0  0  0  0
   57.5230   27.8440   43.8380 O   0  0  0  0  0  0  0  0  0  0  0  0
   58.4810   28.4190   44.6870 C   0  0  0  0  0  0  0  0  0  0  0  0
   59.7620   27.8620   44.8520 C   0  0  0  0  0  0  0  0  0  0  0  0
   60.6940   28.4640   45.7000 C   0  0  0  0  0  0  0  0  0  0  0  0
   60.3580   29.6280   46.4050 C   0  0  0  0  0  0  0  0  0  0  0  0
   61.2970   30.2540   47.2290 C   0  0  0  0  0  0  0  0  0  0  0  0
   60.9600   31.4420   47.9040 C   0  0  0  0  0  0  0  0  0  0  0  0
   59.6800   31.9380   47.8050 N   0  0  0  0  0  0  0  0  0  0  0  0
   58.7530   31.3320   47.0040 C   0  0  0  0  0  0  0  0  0  0  0  0
   59.0700   30.1800   46.2710 C   0  0  0  0  0  0  0  0  0  0  0  0
   58.1420   29.5870   45.3900 C   0  0  0  0  0  0  0  0  0  0  0  0
   56.8830   30.1700   45.1950 O   0  0  0  0  0  0  0  0  0  0  0  0
   56.6550   31.1400   44.1740 C   0  0  0  0  0  0  0  0  0  0  0  0
   57.3450   32.4230   44.5280 C   0  0  0  0  0  0  0  0  0  0  0  0
   56.8910   33.2050   45.5990 C   0  0  0  0  0  0  0  0  0  0  0  0
   57.6290   34.3210   45.9950 C   0  0  0  0  0  0  0  0  0  0  0  0
   58.8080   34.6580   45.3190 C   0  0  0  0  0  0  0  0  0  0  0  0
   59.6450   35.8170   45.7680 C   0  0  0  0  0  0  0  0  0  0  0  0
   59.2360   33.8420   44.2610 C   0  0  0  0  0  0  0  0  0  0  0  0
   58.5060   32.7540   43.8990 N   0  0  0  0  0  0  0  0  0  0  0  0
   59.3120   33.1960   48.4780 C   0  0  0  0  0  0  0  0  0  0  0  0
   59.9790   33.3030   49.8510 C   0  0  0  0  0  0  0  0  0  0  0  0
   61.4600   33.0860   49.7250 C   0  0  0  0  0  0  0  0  0  0  0  0
   62.3510   33.7670   50.5810 C   0  0  0  0  0  0  0  0  0  0  0  0
   63.7100   33.5220   50.4340 C   0  0  0  0  0  0  0  0  0  0  0  0
   64.1880   32.6570   49.5070 C   0  0  0  0  0  0  0  0  0  0  0  0
   63.3500   31.9510   48.6510 C   0  0  0  0  0  0  0  0  0  0  0  0
   61.9500   32.1490   48.7720 C   0  0  0  0  0  0  0  0  0  0  0  0
   65.5680   32.6220   49.5770 O   0  0  0  0  0  0  0  0  0  0  0  0
   65.9810   33.5210   50.6160 C   0  0  0  0  0  0  0  0  0  0  0  0
   64.7640   34.0740   51.1360 O   0  0  0  0  0  0  0  0  0  0  0  0
   58.2252   26.1059   42.9638 H   0  0  0  0  0  0  0  0  0  0  0  0
   56.9145   26.9523   42.0736 H   0  0  0  0  0  0  0  0  0  0  0  0
   58.5801   27.6252   42.0736 H   0  0  0  0  0  0  0  0  0  0  0  0
   60.0319   26.9445   44.3085 H   0  0  0  0  0  0  0  0  0  0  0  0
   61.6952   28.0232   45.8151 H   0  0  0  0  0  0  0  0  0  0  0  0
   62.2997   29.8182   47.3501 H   0  0  0  0  0  0  0  0  0  0  0  0
   57.7404   31.7558   46.9333 H   0  0  0  0  0  0  0  0  0  0  0  0
   57.0505   30.7644   43.2188 H   0  0  0  0  0  0  0  0  0  0  0  0
   55.5742   31.3227   44.0820 H   0  0  0  0  0  0  0  0  0  0  0  0
   55.9605   32.9411   46.1230 H   0  0  0  0  0  0  0  0  0  0  0  0
   57.2843   34.9366   46.8390 H   0  0  0  0  0  0  0  0  0  0  0  0
   59.6679   35.8487   46.8673 H   0  0  0  0  0  0  0  0  0  0  0  0
   60.6689   35.7007   45.3831 H   0  0  0  0  0  0  0  0  0  0  0  0
   59.2127   36.7524   45.3831 H   0  0  0  0  0  0  0  0  0  0  0  0
   60.1647   34.0833   43.7231 H   0  0  0  0  0  0  0  0  0  0  0  0
   59.6339   34.0438   47.8554 H   0  0  0  0  0  0  0  0  0  0  0  0
   58.2210   33.2107   48.6180 H   0  0  0  0  0  0  0  0  0  0  0  0
   59.7923   34.3032   50.2690 H   0  0  0  0  0  0  0  0  0  0  0  0
   59.5583   32.5344   50.5160 H   0  0  0  0  0  0  0  0  0  0  0  0
   61.9807   34.4703   51.3414 H   0  0  0  0  0  0  0  0  0  0  0  0
   63.7606   31.2586   47.9013 H   0  0  0  0  0  0  0  0  0  0  0  0
   66.5258   32.9782   51.4025 H   0  0  0  0  0  0  0  0  0  0  0  0
   66.6611   34.3001   50.2412 H   0  0  0  0  0  0  0  0  0  0  0  0
  1  2  1  0
  2  3  1  0
  3  4  2  0
  4  5  1  0
  5  6  2  0
  6  7  1  0
  7  8  2  0
  8  9  1  0
  9 10  2  0
 10 11  1  0
 11 12  2  0
 12 13  1  0
 13 14  1  0
 14 15  1  0
 15 16  2  0
 16 17  1  0
 17 18  2  0
 18 19  1  0
 18 20  1  0
 20 21  2  0
  9 22  1  0
 22 23  1  0
 23 24  1  0
 24 25  2  0
 25 26  1  0
 26 27  2  0
 27 28  1  0
 28 29  2  0
 27 30  1  0
 30 31  1  0
 31 32  1  0
 12  3  1  0
 21 15  1  0
 29 24  1  0
 11  6  1  0
 32 26  1  0
 29  8  1  0
  1 33  1  0
  1 34  1  0
  1 35  1  0
  4 36  1  0
  5 37  1  0
  7 38  1  0
 10 39  1  0
 14 40  1  0
 14 41  1  0
 16 42  1  0
 17 43  1  0
 19 44  1  0
 19 45  1  0
 19 46  1  0
 20 47  1  0
 22 48  1  0
 22 49  1  0
 23 50  1  0
 23 51  1  0
 25 52  1  0
 28 53  1  0
 31 54  1  0
 31 55  1  0
M  CHG  1   9   1
M  END
>  <UniqueID>  (25) 
23

>  <SMILES>  (25) 
COc1ccc2cc3[n+](cc2c1OCc1ccc(C)cn1)CCc1cc2c(cc1-3)OCO2

>  <Energy>  (25) 
102.6791776173074

>  <Genealogy>  (25) 
COc1ccc2cc3[n+](cc2c1OCc1ccc(C)cn1)CCc1cc2c(cc1-3)OCO2 (3D coordinates assigned)
COc1ccc2cc3[n+](cc2c1OCc1ccc(C)cn1)CCc1cc2c(cc1-3)OCO2 (nonaromatic ring conformer: 102.6791776173074 kcal/mol)

>  <smiles>  (25) 
COc1ccc2cc3[n+](cc2c1OCc1ccc(C)cn1)CCc1cc2c(cc1-3)OCO2

>  <score_type>  (25) 
oracle

>  <origin>  (25) 
adg

>  <m_score__min__energy>  (25) 
-6.9699999999999998

>  <m_primary>  (25) 
energy

$$$$
25:0
     RDKit          3D

 44 47  0  0  0  0  0  0  0  0999 V2000
   59.9310   34.9460   48.3440 N   0  0  0  0  0  0  0  0  0  0  0  0
   59.8300   33.8350   48.0380 C   0  0  0  0  0  0  0  0  0  0  0  0
   59.7060   32.4470   47.6550 C   0  0  0  0  0  0  0  0  0  0  0  0
   60.7740   31.5370   47.8200 C   0  0  0  0  0  0  0  0  0  0  0  0
   62.0970   31.9630   48.3380 C   0  0  0  0  0  0  0  0  0  0  0  0
   62.5790   31.4500   49.5540 C   0  0  0  0  0  0  0  0  0  0  0  0
   63.8310   31.8400   50.0370 C   0  0  0  0  0  0  0  0  0  0  0  0
   64.6160   32.7370   49.3090 C   0  0  0  0  0  0  0  0  0  0  0  0
   65.8310   33.1130   49.7790 F   0  0  0  0  0  0  0  0  0  0  0  0
   64.1500   33.2440   48.0920 C   0  0  0  0  0  0  0  0  0  0  0  0
   62.8980   32.8570   47.6050 C   0  0  0  0  0  0  0  0  0  0  0  0
   60.5790   30.1880   47.4850 C   0  0  0  0  0  0  0  0  0  0  0  0
   59.3420   29.7600   46.9820 C   0  0  0  0  0  0  0  0  0  0  0  0
   59.1150   28.3420   46.6040 C   0  0  0  0  0  0  0  0  0  0  0  0
   60.1410   27.3870   46.7240 C   0  0  0  0  0  0  0  0  0  0  0  0
   59.8920   26.0610   46.3670 C   0  0  0  0  0  0  0  0  0  0  0  0
   58.6330   25.6920   45.8940 C   0  0  0  0  0  0  0  0  0  0  0  0
   57.6360   26.6610   45.7840 C   0  0  0  0  0  0  0  0  0  0  0  0
   57.8960   27.9480   46.1370 N   0  0  0  0  0  0  0  0  0  0  0  0
   58.3400   30.6670   46.8300 N   0  0  0  0  0  0  0  0  0  0  0  0
   58.4830   31.9820   47.1480 C   0  0  0  0  0  0  0  0  0  0  0  0
   57.4150   32.8730   46.9690 O   0  0  0  0  0  0  0  0  0  0  0  0
   57.0860   33.4650   45.7130 C   0  0  0  0  0  0  0  0  0  0  0  0
   57.0460   32.4250   44.6330 C   0  0  0  0  0  0  0  0  0  0  0  0
   57.7690   32.6020   43.4450 C   0  0  0  0  0  0  0  0  0  0  0  0
   57.7350   31.6040   42.4680 C   0  0  0  0  0  0  0  0  0  0  0  0
   56.9850   30.4470   42.6840 C   0  0  0  0  0  0  0  0  0  0  0  0
   56.2760   30.3040   43.8790 C   0  0  0  0  0  0  0  0  0  0  0  0
   56.3230   31.2870   44.8180 N   0  0  0  0  0  0  0  0  0  0  0  0
   61.9681   30.7381   50.1284 H   0  0  0  0  0  0  0  0  0  0  0  0
   64.1992   31.4395   50.9930 H   0  0  0  0  0  0  0  0  0  0  0  0
   64.7693   33.9482   47.5171 H   0  0  0  0  0  0  0  0  0  0  0  0
   62.5377   33.2535   46.6443 H   0  0  0  0  0  0  0  0  0  0  0  0
   61.3978   29.4654   47.6172 H   0  0  0  0  0  0  0  0  0  0  0  0
   61.1326   27.6834   47.0966 H   0  0  0  0  0  0  0  0  0  0  0  0
   60.6881   25.3075   46.4586 H   0  0  0  0  0  0  0  0  0  0  0  0
   58.4287   24.6488   45.6110 H   0  0  0  0  0  0  0  0  0  0  0  0
   56.6388   26.3839   45.4115 H   0  0  0  0  0  0  0  0  0  0  0  0
   56.0999   33.9466   45.7877 H   0  0  0  0  0  0  0  0  0  0  0  0
   57.8551   34.2095   45.4598 H   0  0  0  0  0  0  0  0  0  0  0  0
   58.3571   33.5175   43.2838 H   0  0  0  0  0  0  0  0  0  0  0  0
   58.2977   31.7297   41.5312 H   0  0  0  0  0  0  0  0  0  0  0  0
   56.9525   29.6555   41.9208 H   0  0  0  0  0  0  0  0  0  0  0  0
   55.6802   29.3973   44.0605 H   0  0  0  0  0  0  0  0  0  0  0  0
  1  2  3  0
  2  3  1  0
  3  4  2  0
  4  5  1  0
  5  6  2  0
  6  7  1  0
  7  8  2  0
  8  9  1  0
  8 10  1  0
 10 11  2  0
  4 12  1  0
 12 13  2  0
 13 14  1  0
 14 15  2  0
 15 16  1  0
 16 17  2  0
 17 18  1  0
 18 19  2  0
 13 20  1  0
 20 21  2  0
 21 22  1  0
 22 23  1  0
 23 24  1  0
 24 25  2  0
 25 26  1  0
 26 27  2  0
 27 28  1  0
 28 29  2  0
 21  3  1  0
 29 24  1  0
 11  5  1  0
 19 14  1  0
  6 30  1  0
  7 31  1  0
 10 32  1  0
 11 33  1  0
 12 34  1  0
 15 35  1  0
 16 36  1  0
 17 37  1  0
 18 38  1  0
 23 39  1  0
 23 40  1  0
 25 41  1  0
 26 42  1  0
 27 43  1  0
 28 44  1  0
M  END
>  <UniqueID>  (26) 
24

>  <SMILES>  (26) 
N#Cc1c(-c2ccc(F)cc2)cc(-c2ccccn2)nc1OCc1ccccn1

>  <Energy>  (26) 
56.41761608788602

>  <Genealogy>  (26) 
N#Cc1c(-c2ccc(F)cc2)cc(-c2ccccn2)nc1OCc1ccccn1 (3D coordinates assigned)
N#Cc1c(-c2ccc(F)cc2)cc(-c2ccccn2)nc1OCc1ccccn1 (optimized conformer: 56.41761608788602 kcal/mol)

>  <smiles>  (26) 
N#Cc1c(-c2ccc(F)cc2)cc(-c2ccccn2)nc1OCc1ccccn1

>  <score_type>  (26) 
oracle

>  <origin>  (26) 
adg

>  <m_score__min__energy>  (26) 
-8.1500000000000004

>  <m_primary>  (26) 
energy

$$$$
26:0
     RDKit          3D

 41 41  0  0  0  0  0  0  0  0999 V2000
   59.0450   30.7810   49.5680 C   0  0  0  0  0  0  0  0  0  0  0  0
   60.1410   29.8490   49.2150 N   0  0  0  0  0  0  0  0  0  0  0  0
   61.0290   30.5280   48.2380 C   0  0  0  0  0  0  0  0  0  0  0  0
   60.9440   29.5400   50.4250 C   0  0  0  0  0  0  0  0  0  0  0  0
   59.6200   28.6010   48.5770 C   0  0  0  0  0  0  0  0  0  0  0  0
   60.3370   28.1610   47.2710 C   0  0  0  0  0  0  0  0  0  0  0  0
   59.5760   28.5970   46.0100 C   0  0  0  0  0  0  0  0  0  0  0  0
   58.1550   28.9600   46.3480 C   0  0  0  0  0  0  0  0  0  0  0  0
   57.2900   28.0470   46.4210 O   0  0  0  0  0  0  0  0  0  0  0  0
   57.7810   30.2970   46.7060 N   0  0  0  0  0  0  0  0  0  0  0  0
   58.0600   31.4720   45.9330 C   0  0  0  0  0  0  0  0  0  0  0  0
   58.7840   32.5350   46.4990 C   0  0  0  0  0  0  0  0  0  0  0  0
   59.0600   33.6790   45.7480 C   0  0  0  0  0  0  0  0  0  0  0  0
   58.6330   33.7640   44.4220 C   0  0  0  0  0  0  0  0  0  0  0  0
   57.9410   32.7000   43.8390 C   0  0  0  0  0  0  0  0  0  0  0  0
   57.6630   31.5410   44.5820 C   0  0  0  0  0  0  0  0  0  0  0  0
   56.7910   30.2040   43.8280 S   0  0  0  0  0  0  0  0  0  0  0  0
   55.5130   29.6830   44.8710 N   0  0  0  0  0  0  0  0  0  0  0  0
   57.7210   29.0470   43.5850 O   0  0  0  0  0  0  0  0  0  0  0  0
   56.2170   30.6540   42.5150 O   0  0  0  0  0  0  0  0  0  0  0  0
   58.9620   30.8516   50.6626 H   0  0  0  0  0  0  0  0  0  0  0  0
   59.2614   31.7759   49.1518 H   0  0  0  0  0  0  0  0  0  0  0  0
   58.0978   30.4075   49.1518 H   0  0  0  0  0  0  0  0  0  0  0  0
   61.7905   31.1102   48.7776 H   0  0  0  0  0  0  0  0  0  0  0  0
   61.5228   29.7749   47.6063 H   0  0  0  0  0  0  0  0  0  0  0  0
   60.4317   31.2019   47.6063 H   0  0  0  0  0  0  0  0  0  0  0  0
   60.3535   29.7672   51.3248 H   0  0  0  0  0  0  0  0  0  0  0  0
   61.2142   28.4737   50.4233 H   0  0  0  0  0  0  0  0  0  0  0  0
   61.8593   30.1501   50.4233 H   0  0  0  0  0  0  0  0  0  0  0  0
   59.7155   27.7834   49.3067 H   0  0  0  0  0  0  0  0  0  0  0  0
   58.5820   28.8231   48.2884 H   0  0  0  0  0  0  0  0  0  0  0  0
   61.3410   28.6100   47.2507 H   0  0  0  0  0  0  0  0  0  0  0  0
   60.3869   27.0621   47.2696 H   0  0  0  0  0  0  0  0  0  0  0  0
   60.0774   29.4713   45.5693 H   0  0  0  0  0  0  0  0  0  0  0  0
   59.5681   27.7620   45.2940 H   0  0  0  0  0  0  0  0  0  0  0  0
   59.1351   32.4654   47.5391 H   0  0  0  0  0  0  0  0  0  0  0  0
   59.6143   34.5139   46.2016 H   0  0  0  0  0  0  0  0  0  0  0  0
   58.8418   34.6706   43.8350 H   0  0  0  0  0  0  0  0  0  0  0  0
   57.6118   32.7702   42.7918 H   0  0  0  0  0  0  0  0  0  0  0  0
   54.7730   30.4200   44.8380 H   0  0  0  0  0  0  0  0  0  0  0  0
   55.8930   29.6810   45.8440 H   0  0  0  0  0  0  0  0  0  0  0  0
  1  2  1  0
  2  3  1  0
  2  4  1  0
  2  5  1  0
  5  6  1  0
  6  7  1  0
  7  8  1  0
  8  9  2  0
  8 10  1  0
 10 11  1  0
 11 12  2  0
 12 13  1  0
 13 14  2  0
 14 15  1  0
 15 16  2  0
 16 17  1  0
 17 18  1  0
 17 19  2  0
 17 20  2  0
 16 11  1  0
  1 21  1  0
  1 22  1  0
  1 23  1  0
  3 24  1  0
  3 25  1  0
  3 26  1  0
  4 27  1  0
  4 28  1  0
  4 29  1  0
  5 30  1  0
  5 31  1  0
  6 32  1  0
  6 33  1  0
  7 34  1  0
  7 35  1  0
 12 36  1  0
 13 37  1  0
 14 38  1  0
 15 39  1  0
 18 40  1  0
 18 41  1  0
M  CHG  2   2   1  10  -1
M  END
>  <UniqueID>  (27) 
25

>  <SMILES>  (27) 
C[N+](C)(C)CCCC(=O)[N-]c1ccccc1S(N)(=O)=O

>  <Energy>  (27) 
46.298470012787

>  <Genealogy>  (27) 
C[N+](C)(C)CCCC(=O)[N-]c1ccccc1S(N)(=O)=O (protonated)
C[N+](C)(C)CCCC(=O)[N-]c1ccccc1S(N)(=O)=O (3D coordinates assigned)
C[N+](C)(C)CCCC(=O)[N-]c1ccccc1S(N)(=O)=O (optimized conformer: 46.298470012787 kcal/mol)

>  <smiles>  (27) 
C[N+](C)(C)CCCC(=O)Nc1ccccc1S(N)(=O)=O

>  <score_type>  (27) 
oracle

>  <origin>  (27) 
adg

>  <m_score__min__energy>  (27) 
-7.04

>  <m_primary>  (27) 
energy

$$$$
27:0
     RDKit          3D

 39 41  0  0  0  0  0  0  0  0999 V2000
   58.8970   23.6710   45.5790 C   0  0  0  0  0  0  0  0  0  0  0  0
   57.9400   24.5640   45.0200 O   0  0  0  0  0  0  0  0  0  0  0  0
   57.9830   25.9600   45.1620 C   0  0  0  0  0  0  0  0  0  0  0  0
   58.1560   26.7400   44.0130 C   0  0  0  0  0  0  0  0  0  0  0  0
   58.2040   28.1340   44.1020 C   0  0  0  0  0  0  0  0  0  0  0  0
   58.0730   28.7670   45.3460 C   0  0  0  0  0  0  0  0  0  0  0  0
   58.1280   30.2430   45.4460 C   0  0  0  0  0  0  0  0  0  0  0  0
   57.1820   31.0580   44.7840 C   0  0  0  0  0  0  0  0  0  0  0  0
   56.0610   30.4810   43.9510 C   0  0  0  0  0  0  0  0  0  0  0  0
   55.2480   29.6540   44.7370 O   0  0  0  0  0  0  0  0  0  0  0  0
   57.3010   32.4480   44.8770 C   0  0  0  0  0  0  0  0  0  0  0  0
   58.3170   33.0110   45.6470 C   0  0  0  0  0  0  0  0  0  0  0  0
   59.2100   32.2220   46.3130 N   0  0  0  0  0  0  0  0  0  0  0  0
   60.2310   32.8540   47.1110 C   0  0  0  0  0  0  0  0  0  0  0  0
   59.8920   33.6100   48.2440 C   0  0  0  0  0  0  0  0  0  0  0  0
   60.8920   34.2220   49.0000 C   0  0  0  0  0  0  0  0  0  0  0  0
   62.2270   34.0760   48.6170 C   0  0  0  0  0  0  0  0  0  0  0  0
   62.5430   33.3450   47.5150 N   0  0  0  0  0  0  0  0  0  0  0  0
   61.5870   32.7390   46.7610 C   0  0  0  0  0  0  0  0  0  0  0  0
   59.1390   30.8540   46.2150 C   0  0  0  0  0  0  0  0  0  0  0  0
   59.9970   30.1320   46.7980 O   0  0  0  0  0  0  0  0  0  0  0  0
   57.9080   27.9900   46.5020 C   0  0  0  0  0  0  0  0  0  0  0  0
   57.8600   26.5960   46.4130 C   0  0  0  0  0  0  0  0  0  0  0  0
   58.8457   23.7188   46.6768 H   0  0  0  0  0  0  0  0  0  0  0  0
   58.6797   22.6453   45.2461 H   0  0  0  0  0  0  0  0  0  0  0  0
   59.9052   23.9587   45.2461 H   0  0  0  0  0  0  0  0  0  0  0  0
   58.2550   26.2521   43.0321 H   0  0  0  0  0  0  0  0  0  0  0  0
   58.3451   28.7366   43.1926 H   0  0  0  0  0  0  0  0  0  0  0  0
   55.4546   31.3016   43.5402 H   0  0  0  0  0  0  0  0  0  0  0  0
   56.4926   29.8857   43.1329 H   0  0  0  0  0  0  0  0  0  0  0  0
   55.1570   30.1010   45.6190 H   0  0  0  0  0  0  0  0  0  0  0  0
   56.5924   33.0975   44.3422 H   0  0  0  0  0  0  0  0  0  0  0  0
   58.4005   34.1055   45.7191 H   0  0  0  0  0  0  0  0  0  0  0  0
   58.8372   33.7200   48.5360 H   0  0  0  0  0  0  0  0  0  0  0  0
   60.6314   34.8141   49.8896 H   0  0  0  0  0  0  0  0  0  0  0  0
   63.0234   34.5527   49.2073 H   0  0  0  0  0  0  0  0  0  0  0  0
   61.8764   32.1566   45.8738 H   0  0  0  0  0  0  0  0  0  0  0  0
   57.8160   28.4797   47.4827 H   0  0  0  0  0  0  0  0  0  0  0  0
   57.7257   25.9932   47.3233 H   0  0  0  0  0  0  0  0  0  0  0  0
  1  2  1  0
  2  3  1  0
  3  4  2  0
  4  5  1  0
  5  6  2  0
  6  7  1  0
  7  8  2  0
  8  9  1  0
  9 10  1  0
  8 11  1  0
 11 12  2  0
 12 13  1  0
 13 14  1  0
 14 15  2  0
 15 16  1  0
 16 17  2  0
 17 18  1  0
 18 19  2  0
 13 20  1  0
 20 21  2  0
  6 22  1  0
 22 23  2  0
 23  3  1  0
 20  7  1  0
 19 14  1  0
  1 24  1  0
  1 25  1  0
  1 26  1  0
  4 27  1  0
  5 28  1  0
  9 29  1  0
  9 30  1  0
 10 31  1  0
 11 32  1  0
 12 33  1  0
 15 34  1  0
 16 35  1  0
 17 36  1  0
 19 37  1  0
 22 38  1  0
 23 39  1  0
M  END
>  <UniqueID>  (28) 
26

>  <SMILES>  (28) 
COc1ccc(-c2c(CO)ccn(-c3cccnc3)c2=O)cc1

>  <Energy>  (28) 
59.39216668164414

>  <Genealogy>  (28) 
COc1ccc(-c2c(CO)ccn(-c3cccnc3)c2=O)cc1 (3D coordinates assigned)
COc1ccc(-c2c(CO)ccn(-c3cccnc3)c2=O)cc1 (optimized conformer: 59.39216668164414 kcal/mol)

>  <smiles>  (28) 
COc1ccc(-c2c(CO)ccn(-c3cccnc3)c2=O)cc1

>  <score_type>  (28) 
oracle

>  <origin>  (28) 
adg

>  <m_score__min__energy>  (28) 
-7.3499999999999996

>  <m_primary>  (28) 
energy

$$$$
28:0
     RDKit          3D

 45 47  0  0  0  0  0  0  0  0999 V2000
   62.3450   31.2840   48.8700 C   0  0  0  0  0  0  0  0  0  0  0  0
   61.5510   32.2670   48.0360 C   0  0  0  0  0  0  0  0  0  0  0  0
   60.1320   32.2990   47.9950 C   0  0  0  0  0  0  0  0  0  0  0  0
   59.2080   30.9940   48.8750 S   0  0  0  0  0  0  0  0  0  0  0  0
   58.7970   31.9450   50.3480 C   0  0  0  0  0  0  0  0  0  0  0  0
   57.7080   31.5930   51.1560 C   0  0  0  0  0  0  0  0  0  0  0  0
   57.3880   32.3610   52.2810 C   0  0  0  0  0  0  0  0  0  0  0  0
   58.1370   33.5000   52.5870 C   0  0  0  0  0  0  0  0  0  0  0  0
   59.1990   33.8780   51.7630 C   0  0  0  0  0  0  0  0  0  0  0  0
   59.5260   33.1080   50.6430 C   0  0  0  0  0  0  0  0  0  0  0  0
   59.4910   33.2020   47.1620 N   0  0  0  0  0  0  0  0  0  0  0  0
   58.0070   33.2710   47.1020 C   0  0  0  0  0  0  0  0  0  0  0  0
   57.3940   32.8200   45.7500 C   0  0  0  0  0  0  0  0  0  0  0  0
   58.2520   31.8540   45.0190 N   0  0  0  0  0  0  0  0  0  0  0  0
   58.4360   30.5820   45.7580 C   0  0  0  0  0  0  0  0  0  0  0  0
   57.4010   29.5080   45.3610 C   0  0  0  0  0  0  0  0  0  0  0  0
   56.2260   30.1060   44.8610 O   0  0  0  0  0  0  0  0  0  0  0  0
   56.4940   30.7420   43.6230 C   0  0  0  0  0  0  0  0  0  0  0  0
   57.7850   31.5950   43.6450 C   0  0  0  0  0  0  0  0  0  0  0  0
   60.2410   33.9610   46.2910 C   0  0  0  0  0  0  0  0  0  0  0  0
   59.6850   34.6540   45.3950 O   0  0  0  0  0  0  0  0  0  0  0  0
   61.5940   33.9710   46.3690 N   0  0  0  0  0  0  0  0  0  0  0  0
   62.2570   33.1670   47.2290 C   0  0  0  0  0  0  0  0  0  0  0  0
   63.5180   33.2130   47.2720 O   0  0  0  0  0  0  0  0  0  0  0  0
   62.1783   31.4904   49.9375 H   0  0  0  0  0  0  0  0  0  0  0  0
   62.0181   30.2594   48.6392 H   0  0  0  0  0  0  0  0  0  0  0  0
   63.4155   31.3881   48.6392 H   0  0  0  0  0  0  0  0  0  0  0  0
   57.1023   30.7097   50.9051 H   0  0  0  0  0  0  0  0  0  0  0  0
   56.5459   32.0677   52.9251 H   0  0  0  0  0  0  0  0  0  0  0  0
   57.8903   34.0985   53.4763 H   0  0  0  0  0  0  0  0  0  0  0  0
   59.7792   34.7831   51.9955 H   0  0  0  0  0  0  0  0  0  0  0  0
   60.3571   33.4143   49.9908 H   0  0  0  0  0  0  0  0  0  0  0  0
   57.6011   32.6258   47.8951 H   0  0  0  0  0  0  0  0  0  0  0  0
   57.7386   34.3303   47.2283 H   0  0  0  0  0  0  0  0  0  0  0  0
   56.4211   32.3460   45.9467 H   0  0  0  0  0  0  0  0  0  0  0  0
   57.2937   33.7152   45.1186 H   0  0  0  0  0  0  0  0  0  0  0  0
   59.4437   30.1948   45.5468 H   0  0  0  0  0  0  0  0  0  0  0  0
   58.2989   30.7964   46.8282 H   0  0  0  0  0  0  0  0  0  0  0  0
   57.8338   28.8593   44.5852 H   0  0  0  0  0  0  0  0  0  0  0  0
   57.1444   28.9184   46.2535 H   0  0  0  0  0  0  0  0  0  0  0  0
   56.5986   29.9687   42.8477 H   0  0  0  0  0  0  0  0  0  0  0  0
   55.6550   31.4226   43.4158 H   0  0  0  0  0  0  0  0  0  0  0  0
   58.5740   31.0594   43.0967 H   0  0  0  0  0  0  0  0  0  0  0  0
   57.5606   32.5634   43.1740 H   0  0  0  0  0  0  0  0  0  0  0  0
   62.1390   34.5960   45.7310 H   0  0  0  0  0  0  0  0  0  0  0  0
  1  2  1  0
  2  3  2  0
  3  4  1  0
  4  5  1  0
  5  6  2  0
  6  7  1  0
  7  8  2  0
  8  9  1  0
  9 10  2  0
  3 11  1  0
 11 12  1  0
 12 13  1  0
 13 14  1  0
 14 15  1  0
 15 16  1  0
 16 17  1  0
 17 18  1  0
 18 19  1  0
 11 20  1  0
 20 21  2  0
 20 22  1  0
 22 23  1  0
 23 24  2  0
 23  2  1  0
 10  5  1  0
 19 14  1  0
  1 25  1  0
  1 26  1  0
  1 27  1  0
  6 28  1  0
  7 29  1  0
  8 30  1  0
  9 31  1  0
 10 32  1  0
 12 33  1  0
 12 34  1  0
 13 35  1  0
 13 36  1  0
 15 37  1  0
 15 38  1  0
 16 39  1  0
 16 40  1  0
 18 41  1  0
 18 42  1  0
 19 43  1  0
 19 44  1  0
 22 45  1  0
M  END
>  <UniqueID>  (29) 
27

>  <SMILES>  (29) 
Cc1c(Sc2ccccc2)n(CCN2CCOCC2)c(=O)[nH]c1=O

>  <Energy>  (29) 
69.3708703377983

>  <Genealogy>  (29) 
Cc1c(Sc2ccccc2)n(CCN2CCOCC2)c(=O)[nH]c1=O (3D coordinates assigned)
Cc1c(Sc2ccccc2)n(CCN2CCOCC2)c(=O)[nH]c1=O (nonaromatic ring conformer: 69.3708703377983 kcal/mol)

>  <smiles>  (29) 
Cc1c(Sc2ccccc2)n(CCN2CCOCC2)c(=O)[nH]c1=O

>  <score_type>  (29) 
oracle

>  <origin>  (29) 
adg

>  <m_score__min__energy>  (29) 
-7.8099999999999996

>  <m_primary>  (29) 
energy

$$$$
29:0
     RDKit          3D

 47 49  0  0  0  0  0  0  0  0999 V2000
   59.6510   35.3220   45.8450 C   0  0  0  0  0  0  0  0  0  0  0  0
   60.6900   34.4130   46.4940 C   0  0  0  0  0  0  0  0  0  0  0  0
   60.1630   33.8210   47.7790 C   0  0  0  0  0  0  0  0  0  0  0  0
   60.3880   34.5060   48.9880 C   0  0  0  0  0  0  0  0  0  0  0  0
   59.9180   33.9860   50.1960 C   0  0  0  0  0  0  0  0  0  0  0  0
   59.2230   32.7760   50.2140 C   0  0  0  0  0  0  0  0  0  0  0  0
   58.9970   32.0810   49.0260 C   0  0  0  0  0  0  0  0  0  0  0  0
   59.4680   32.5890   47.8060 C   0  0  0  0  0  0  0  0  0  0  0  0
   59.2170   31.8500   46.6040 N   0  0  0  0  0  0  0  0  0  0  0  0
   58.1650   32.3140   45.6900 C   0  0  0  0  0  0  0  0  0  0  0  0
   58.0980   31.4390   44.4370 C   0  0  0  0  0  0  0  0  0  0  0  0
   58.1220   30.0220   44.8190 N   0  0  0  0  0  0  0  0  0  0  0  0
   57.1960   29.0970   44.2240 C   0  0  0  0  0  0  0  0  0  0  0  0
   55.5790   29.3800   44.3420 S   0  0  0  0  0  0  0  0  0  0  0  0
   57.6770   28.0140   43.4070 N   0  0  0  0  0  0  0  0  0  0  0  0
   57.7640   26.8170   44.2060 C   0  0  0  0  0  0  0  0  0  0  0  0
   57.7350   25.5470   43.5980 C   0  0  0  0  0  0  0  0  0  0  0  0
   57.7630   24.3890   44.3800 C   0  0  0  0  0  0  0  0  0  0  0  0
   57.8150   24.4850   45.7730 C   0  0  0  0  0  0  0  0  0  0  0  0
   57.8410   25.7400   46.3870 C   0  0  0  0  0  0  0  0  0  0  0  0
   57.8120   26.9020   45.6100 C   0  0  0  0  0  0  0  0  0  0  0  0
   59.1090   29.5300   45.7900 C   0  0  0  0  0  0  0  0  0  0  0  0
   60.0150   30.6590   46.2960 C   0  0  0  0  0  0  0  0  0  0  0  0
   59.0692   35.8310   46.6276 H   0  0  0  0  0  0  0  0  0  0  0  0
   60.1587   36.0712   45.2197 H   0  0  0  0  0  0  0  0  0  0  0  0
   58.9759   34.7193   45.2197 H   0  0  0  0  0  0  0  0  0  0  0  0
   60.9400   33.5983   45.7984 H   0  0  0  0  0  0  0  0  0  0  0  0
   61.5842   35.0109   46.7241 H   0  0  0  0  0  0  0  0  0  0  0  0
   60.9384   35.4584   48.9813 H   0  0  0  0  0  0  0  0  0  0  0  0
   60.0959   34.5311   51.1347 H   0  0  0  0  0  0  0  0  0  0  0  0
   58.8528   32.3696   51.1668 H   0  0  0  0  0  0  0  0  0  0  0  0
   58.4463   31.1290   49.0458 H   0  0  0  0  0  0  0  0  0  0  0  0
   57.1956   32.2739   46.2083 H   0  0  0  0  0  0  0  0  0  0  0  0
   58.3979   33.3446   45.3841 H   0  0  0  0  0  0  0  0  0  0  0  0
   57.1680   31.6543   43.8904 H   0  0  0  0  0  0  0  0  0  0  0  0
   58.9640   31.6570   43.7947 H   0  0  0  0  0  0  0  0  0  0  0  0
   57.0310   27.8700   42.5980 H   0  0  0  0  0  0  0  0  0  0  0  0
   58.6180   28.2420   43.0110 H   0  0  0  0  0  0  0  0  0  0  0  0
   57.6901   25.4660   42.5019 H   0  0  0  0  0  0  0  0  0  0  0  0
   57.7441   23.4004   43.8981 H   0  0  0  0  0  0  0  0  0  0  0  0
   57.8355   23.5723   46.3866 H   0  0  0  0  0  0  0  0  0  0  0  0
   57.8844   25.8138   47.4837 H   0  0  0  0  0  0  0  0  0  0  0  0
   57.8268   27.8875   46.0984 H   0  0  0  0  0  0  0  0  0  0  0  0
   58.5779   29.0878   46.6458 H   0  0  0  0  0  0  0  0  0  0  0  0
   59.7401   28.7809   45.2894 H   0  0  0  0  0  0  0  0  0  0  0  0
   60.5367   30.3261   47.2054 H   0  0  0  0  0  0  0  0  0  0  0  0
   60.7464   30.9098   45.5136 H   0  0  0  0  0  0  0  0  0  0  0  0
  1  2  1  0
  2  3  1  0
  3  4  2  0
  4  5  1  0
  5  6  2  0
  6  7  1  0
  7  8  2  0
  8  9  1  0
  9 10  1  0
 10 11  1  0
 11 12  1  0
 12 13  1  0
 13 14  2  0
 13 15  1  0
 15 16  1  0
 16 17  2  0
 17 18  1  0
 18 19  2  0
 19 20  1  0
 20 21  2  0
 12 22  1  0
 22 23  1  0
  8  3  1  0
 23  9  1  0
 21 16  1  0
  1 24  1  0
  1 25  1  0
  1 26  1  0
  2 27  1  0
  2 28  1  0
  4 29  1  0
  5 30  1  0
  6 31  1  0
  7 32  1  0
 10 33  1  0
 10 34  1  0
 11 35  1  0
 11 36  1  0
 15 37  1  0
 15 38  1  0
 17 39  1  0
 18 40  1  0
 19 41  1  0
 20 42  1  0
 21 43  1  0
 22 44  1  0
 22 45  1  0
 23 46  1  0
 23 47  1  0
M  CHG  1  15   1
M  END
>  <UniqueID>  (30) 
28

>  <SMILES>  (30) 
CCc1ccccc1N1CCN(C(=S)[NH2+]c2ccccc2)CC1

>  <Energy>  (30) 
55.215358804218525

>  <Genealogy>  (30) 
CCc1ccccc1N1CCN(C(=S)[NH2+]c2ccccc2)CC1 (protonated)
CCc1ccccc1N1CCN(C(=S)[NH2+]c2ccccc2)CC1 (3D coordinates assigned)
CCc1ccccc1N1CCN(C(=S)[NH2+]c2ccccc2)CC1 (nonaromatic ring conformer: 55.215358804218525 kcal/mol)

>  <smiles>  (30) 
CCc1ccccc1N1CCN(C(=S)Nc2ccccc2)CC1

>  <score_type>  (30) 
oracle

>  <origin>  (30) 
adg

>  <m_score__min__energy>  (30) 
-6.46

>  <m_primary>  (30) 
energy

$$$$
30:0
     RDKit          3D

 43 46  0  0  0  0  0  0  0  0999 V2000
   59.1440   34.9340   45.8020 C   0  0  0  0  0  0  0  0  0  0  0  0
   58.1410   33.9680   45.6860 C   0  0  0  0  0  0  0  0  0  0  0  0
   58.3600   32.6700   46.1550 C   0  0  0  0  0  0  0  0  0  0  0  0
   59.5920   32.3230   46.7380 C   0  0  0  0  0  0  0  0  0  0  0  0
   59.8150   30.9880   47.2340 N   0  0  0  0  0  0  0  0  0  0  0  0
   58.9220   30.4200   48.2530 C   0  0  0  0  0  0  0  0  0  0  0  0
   59.0480   28.8940   48.2950 C   0  0  0  0  0  0  0  0  0  0  0  0
   59.1920   28.3860   46.9180 N   0  0  0  0  0  0  0  0  0  0  0  0
   59.0060   26.9200   46.8810 C   0  0  0  0  0  0  0  0  0  0  0  0
   57.5730   26.5680   46.5950 C   0  0  0  0  0  0  0  0  0  0  0  0
   56.8850   25.4980   47.1260 C   0  0  0  0  0  0  0  0  0  0  0  0
   55.6050   25.5400   46.7090 N   0  0  0  0  0  0  0  0  0  0  0  0
   55.4500   26.6000   45.9280 N   0  0  0  0  0  0  0  0  0  0  0  0
   56.6320   27.2410   45.8260 C   0  0  0  0  0  0  0  0  0  0  0  0
   56.7850   28.4950   45.0600 C   0  0  0  0  0  0  0  0  0  0  0  0
   57.9950   28.8620   44.4500 C   0  0  0  0  0  0  0  0  0  0  0  0
   58.0640   30.0210   43.7420 N   0  0  0  0  0  0  0  0  0  0  0  0
   56.9820   30.8310   43.6080 C   0  0  0  0  0  0  0  0  0  0  0  0
   55.7730   30.4600   44.1930 C   0  0  0  0  0  0  0  0  0  0  0  0
   55.7010   29.3020   44.9000 N   0  0  0  0  0  0  0  0  0  0  0  0
   60.4940   28.7870   46.3240 C   0  0  0  0  0  0  0  0  0  0  0  0
   60.9560   30.1890   46.7740 C   0  0  0  0  0  0  0  0  0  0  0  0
   60.5920   33.3050   46.8590 C   0  0  0  0  0  0  0  0  0  0  0  0
   60.3670   34.6030   46.3890 C   0  0  0  0  0  0  0  0  0  0  0  0
   58.9702   35.9549   45.4310 H   0  0  0  0  0  0  0  0  0  0  0  0
   57.1773   34.2298   45.2247 H   0  0  0  0  0  0  0  0  0  0  0  0
   57.5644   31.9154   46.0677 H   0  0  0  0  0  0  0  0  0  0  0  0
   59.1898   30.8315   49.2374 H   0  0  0  0  0  0  0  0  0  0  0  0
   57.8843   30.6818   47.9988 H   0  0  0  0  0  0  0  0  0  0  0  0
   59.9322   28.6131   48.8861 H   0  0  0  0  0  0  0  0  0  0  0  0
   58.1504   28.4596   48.7594 H   0  0  0  0  0  0  0  0  0  0  0  0
   59.6453   26.4957   46.0928 H   0  0  0  0  0  0  0  0  0  0  0  0
   59.2803   26.5061   47.8626 H   0  0  0  0  0  0  0  0  0  0  0  0
   57.3141   24.7303   47.7867 H   0  0  0  0  0  0  0  0  0  0  0  0
   58.8809   28.2167   44.5441 H   0  0  0  0  0  0  0  0  0  0  0  0
   57.0594   31.7715   43.0427 H   0  0  0  0  0  0  0  0  0  0  0  0
   54.8845   31.0992   44.0834 H   0  0  0  0  0  0  0  0  0  0  0  0
   61.2569   28.0535   46.6240 H   0  0  0  0  0  0  0  0  0  0  0  0
   60.3617   28.8189   45.2325 H   0  0  0  0  0  0  0  0  0  0  0  0
   61.6786   30.0843   47.5967 H   0  0  0  0  0  0  0  0  0  0  0  0
   61.4230   30.6990   45.9185 H   0  0  0  0  0  0  0  0  0  0  0  0
   61.5553   33.0509   47.3254 H   0  0  0  0  0  0  0  0  0  0  0  0
   61.1552   35.3647   46.4820 H   0  0  0  0  0  0  0  0  0  0  0  0
  1  2  2  0
  2  3  1  0
  3  4  2  0
  4  5  1  0
  5  6  1  0
  6  7  1  0
  7  8  1  0
  8  9  1  0
  9 10  1  0
 10 11  2  0
 11 12  1  0
 12 13  1  0
 13 14  2  0
 14 15  1  0
 15 16  2  0
 16 17  1  0
 17 18  2  0
 18 19  1  0
 19 20  2  0
  8 21  1  0
 21 22  1  0
  4 23  1  0
 23 24  2  0
 24  1  1  0
 22  5  1  0
 14 10  1  0
 20 15  1  0
  1 25  1  0
  2 26  1  0
  3 27  1  0
  6 28  1  0
  6 29  1  0
  7 30  1  0
  7 31  1  0
  9 32  1  0
  9 33  1  0
 11 34  1  0
 16 35  1  0
 18 36  1  0
 19 37  1  0
 21 38  1  0
 21 39  1  0
 22 40  1  0
 22 41  1  0
 23 42  1  0
 24 43  1  0
M  CHG  1  12  -1
M  END
>  <UniqueID>  (31) 
29

>  <SMILES>  (31) 
c1ccc(N2CCN(Cc3c[n-]nc3-c3cnccn3)CC2)cc1

>  <Energy>  (31) 
91.20916559258983

>  <Genealogy>  (31) 
c1ccc(N2CCN(Cc3c[n-]nc3-c3cnccn3)CC2)cc1 (protonated)
c1ccc(N2CCN(Cc3c[n-]nc3-c3cnccn3)CC2)cc1 (3D coordinates assigned)
c1ccc(N2CCN(Cc3c[n-]nc3-c3cnccn3)CC2)cc1 (nonaromatic ring conformer: 91.20916559258983 kcal/mol)

>  <smiles>  (31) 
c1ccc(N2CCN(Cc3c[nH]nc3-c3cnccn3)CC2)cc1

>  <score_type>  (31) 
oracle

>  <origin>  (31) 
adg

>  <m_score__min__energy>  (31) 
-10.619999999999999

>  <m_primary>  (31) 
energy

$$$$
31:0
     RDKit          3D

 43 45  0  0  0  0  0  0  0  0999 V2000
   59.0500   32.3490   46.5150 C   0  0  0  0  0  0  0  0  0  0  0  0
   58.1870   31.7880   45.4330 C   0  0  0  0  0  0  0  0  0  0  0  0
   58.0890   32.2860   44.1470 C   0  0  0  0  0  0  0  0  0  0  0  0
   57.2350   31.4400   43.4680 C   0  0  0  0  0  0  0  0  0  0  0  0
   56.8730   30.4530   44.3650 C   0  0  0  0  0  0  0  0  0  0  0  0
   55.9130   29.3410   44.0940 C   0  0  0  0  0  0  0  0  0  0  0  0
   55.8840   28.4410   45.2370 N   0  0  0  0  0  0  0  0  0  0  0  0
   56.9830   27.5940   45.5840 C   0  0  0  0  0  0  0  0  0  0  0  0
   57.9290   28.0360   46.2930 O   0  0  0  0  0  0  0  0  0  0  0  0
   57.0020   26.1700   45.1140 C   0  0  0  0  0  0  0  0  0  0  0  0
   56.8590   25.1740   46.2900 C   0  0  2  0  0  0  0  0  0  0  0  0
   57.8810   24.0720   46.2890 C   0  0  0  0  0  0  0  0  0  0  0  0
   58.9050   24.1000   45.5560 O   0  0  0  0  0  0  0  0  0  0  0  0
   57.6480   22.9660   47.1510 N   0  0  0  0  0  0  0  0  0  0  0  0
   56.5890   23.0680   48.1460 C   0  0  0  0  0  0  0  0  0  0  0  0
   55.2930   23.6820   47.5540 C   0  0  0  0  0  0  0  0  0  0  0  0
   55.4960   24.5820   46.3830 N   0  0  0  0  0  0  0  0  0  0  0  0
   54.9190   24.0400   45.1250 C   0  0  0  0  0  0  0  0  0  0  0  0
   53.4780   23.6320   45.2540 C   0  0  0  0  0  0  0  0  0  0  0  0
   52.4510   24.4740   45.0130 N   0  0  0  0  0  0  0  0  0  0  0  0
   51.3610   23.7180   45.2230 C   0  0  0  0  0  0  0  0  0  0  0  0
   51.7490   22.4500   45.5820 C   0  0  0  0  0  0  0  0  0  0  0  0
   53.0910   22.3880   45.6050 N   0  0  0  0  0  0  0  0  0  0  0  0
   57.4510   30.6680   45.5620 N   0  0  0  0  0  0  0  0  0  0  0  0
   58.6319   32.0772   47.4955 H   0  0  0  0  0  0  0  0  0  0  0  0
   60.0664   31.9385   46.4233 H   0  0  0  0  0  0  0  0  0  0  0  0
   59.0874   33.4445   46.4233 H   0  0  0  0  0  0  0  0  0  0  0  0
   58.5913   33.1783   43.7450 H   0  0  0  0  0  0  0  0  0  0  0  0
   56.9080   31.5330   42.4219 H   0  0  0  0  0  0  0  0  0  0  0  0
   54.9079   29.7558   43.9274 H   0  0  0  0  0  0  0  0  0  0  0  0
   56.2327   28.7885   43.1982 H   0  0  0  0  0  0  0  0  0  0  0  0
   56.1684   26.0153   44.4132 H   0  0  0  0  0  0  0  0  0  0  0  0
   57.9697   25.9845   44.6249 H   0  0  0  0  0  0  0  0  0  0  0  0
   57.0413   25.7950   47.1795 H   0  0  0  0  0  0  0  0  0  0  0  0
   56.3628   22.0617   48.5284 H   0  0  0  0  0  0  0  0  0  0  0  0
   56.9416   23.7295   48.9511 H   0  0  0  0  0  0  0  0  0  0  0  0
   54.6378   22.8563   47.2394 H   0  0  0  0  0  0  0  0  0  0  0  0
   54.8600   24.3071   48.3488 H   0  0  0  0  0  0  0  0  0  0  0  0
   54.9937   24.8132   44.3461 H   0  0  0  0  0  0  0  0  0  0  0  0
   55.4902   23.1351   44.8703 H   0  0  0  0  0  0  0  0  0  0  0  0
   50.3205   24.0605   45.1232 H   0  0  0  0  0  0  0  0  0  0  0  0
   51.0687   21.6173   45.8139 H   0  0  0  0  0  0  0  0  0  0  0  0
   57.3470   30.0840   46.4220 H   0  0  0  0  0  0  0  0  0  0  0  0
  1  2  1  0
  2  3  2  0
  3  4  1  0
  4  5  2  0
  5  6  1  0
  6  7  1  0
  7  8  1  0
  8  9  2  0
  8 10  1  0
 10 11  1  0
 11 12  1  0
 12 13  2  0
 12 14  1  0
 14 15  1  0
 15 16  1  0
 16 17  1  0
 17 18  1  0
 18 19  1  0
 19 20  2  0
 20 21  1  0
 21 22  2  0
 22 23  1  0
  5 24  1  0
 24  2  1  0
 17 11  1  0
 23 19  1  0
  1 25  1  0
  1 26  1  0
  1 27  1  0
  3 28  1  0
  4 29  1  0
  6 30  1  0
  6 31  1  0
 10 32  1  0
 10 33  1  0
 11 34  1  1
 15 35  1  0
 15 36  1  0
 16 37  1  0
 16 38  1  0
 18 39  1  0
 18 40  1  0
 21 41  1  0
 22 42  1  0
 24 43  1  0
M  CHG  3   7  -1  14  -1  23  -1
M  END
>  <UniqueID>  (32) 
30

>  <SMILES>  (32) 
Cc1ccc(C[N-]C(=O)C[C@@H]2C(=O)[N-]CCN2Cc2ncc[n-]2)[nH]1

>  <Energy>  (32) 
104.70558099067907

>  <Genealogy>  (32) 
Cc1ccc(C[N-]C(=O)CC2C(=O)[N-]CCN2Cc2ncc[n-]2)[nH]1 (protonated)
Cc1ccc(C[N-]C(=O)C[C@@H]2C(=O)[N-]CCN2Cc2ncc[n-]2)[nH]1 (chirality)
Cc1ccc(C[N-]C(=O)C[C@@H]2C(=O)[N-]CCN2Cc2ncc[n-]2)[nH]1 (3D coordinates assigned)
Cc1ccc(C[N-]C(=O)C[C@@H]2C(=O)[N-]CCN2Cc2ncc[n-]2)[nH]1 (nonaromatic ring conformer: 104.70558099067907 kcal/mol)

>  <smiles>  (32) 
Cc1ccc(CNC(=O)CC2C(=O)NCCN2Cc2ncc[nH]2)[nH]1

>  <score_type>  (32) 
oracle

>  <origin>  (32) 
adg

>  <m_score__min__energy>  (32) 
-11.869999999999999

>  <m_primary>  (32) 
energy

$$$$
32:0
     RDKit          3D

 39 42  0  0  0  0  0  0  0  0999 V2000
   56.2880   23.3420   42.9950 C   0  0  0  0  0  0  0  0  0  0  0  0
   57.2030   23.8520   43.9580 O   0  0  0  0  0  0  0  0  0  0  0  0
   57.3370   25.2110   44.2810 C   0  0  0  0  0  0  0  0  0  0  0  0
   57.0240   25.7180   45.5570 C   0  0  0  0  0  0  0  0  0  0  0  0
   57.1780   27.0810   45.8300 C   0  0  0  0  0  0  0  0  0  0  0  0
   57.6580   27.9540   44.8430 C   0  0  0  0  0  0  0  0  0  0  0  0
   57.8180   29.3970   45.1120 C   0  0  0  0  0  0  0  0  0  0  0  0
   56.8220   30.2930   44.9040 N   0  0  0  0  0  0  0  0  0  0  0  0
   57.3850   31.4750   45.2210 C   0  0  0  0  0  0  0  0  0  0  0  0
   56.7520   32.7150   45.1630 C   0  0  0  0  0  0  0  0  0  0  0  0
   57.5020   33.8480   45.5110 C   0  0  0  0  0  0  0  0  0  0  0  0
   58.8490   33.7170   45.8990 C   0  0  0  0  0  0  0  0  0  0  0  0
   59.8700   35.2610   46.3710 Br  0  0  0  0  0  0  0  0  0  0  0  0
   59.4360   32.4440   45.9360 C   0  0  0  0  0  0  0  0  0  0  0  0
   58.6710   31.3710   45.6000 N   0  0  0  0  0  0  0  0  0  0  0  0
   58.9720   30.0590   45.5350 C   0  0  0  0  0  0  0  0  0  0  0  0
   60.3370   29.4700   45.7810 C   0  0  0  0  0  0  0  0  0  0  0  0
   60.3790   28.6190   47.0220 C   0  0  0  0  0  0  0  0  0  0  0  0
   60.3080   29.1670   48.3130 C   0  0  0  0  0  0  0  0  0  0  0  0
   60.3110   28.2170   49.3250 C   0  0  0  0  0  0  0  0  0  0  0  0
   60.3780   26.6970   48.6110 S   0  0  0  0  0  0  0  0  0  0  0  0
   60.4060   27.2250   47.0170 C   0  0  0  0  0  0  0  0  0  0  0  0
   57.9470   27.4500   43.5650 C   0  0  0  0  0  0  0  0  0  0  0  0
   57.7930   26.0880   43.2920 C   0  0  0  0  0  0  0  0  0  0  0  0
   55.4391   22.8689   43.5103 H   0  0  0  0  0  0  0  0  0  0  0  0
   55.9215   24.1659   42.3651 H   0  0  0  0  0  0  0  0  0  0  0  0
   56.7960   22.5969   42.3651 H   0  0  0  0  0  0  0  0  0  0  0  0
   56.6572   25.0398   46.3415 H   0  0  0  0  0  0  0  0  0  0  0  0
   56.9208   27.4710   46.8259 H   0  0  0  0  0  0  0  0  0  0  0  0
   55.6997   32.8024   44.8547 H   0  0  0  0  0  0  0  0  0  0  0  0
   57.0355   34.8437   45.4806 H   0  0  0  0  0  0  0  0  0  0  0  0
   60.4885   32.3166   46.2293 H   0  0  0  0  0  0  0  0  0  0  0  0
   60.6147   28.8486   44.9169 H   0  0  0  0  0  0  0  0  0  0  0  0
   61.0417   30.3029   45.9212 H   0  0  0  0  0  0  0  0  0  0  0  0
   60.2549   30.2489   48.5045 H   0  0  0  0  0  0  0  0  0  0  0  0
   60.2757   28.4229   50.4050 H   0  0  0  0  0  0  0  0  0  0  0  0
   60.4398   26.5829   46.1245 H   0  0  0  0  0  0  0  0  0  0  0  0
   58.2964   28.1305   42.7745 H   0  0  0  0  0  0  0  0  0  0  0  0
   58.0327   25.7025   42.2900 H   0  0  0  0  0  0  0  0  0  0  0  0
  1  2  1  0
  2  3  1  0
  3  4  2  0
  4  5  1  0
  5  6  2  0
  6  7  1  0
  7  8  1  0
  8  9  2  0
  9 10  1  0
 10 11  2  0
 11 12  1  0
 12 13  1  0
 12 14  2  0
 14 15  1  0
 15 16  1  0
 16 17  1  0
 17 18  1  0
 18 19  1  0
 19 20  2  0
 20 21  1  0
 21 22  1  0
  6 23  1  0
 23 24  2  0
 24  3  1  0
 16  7  2  0
 22 18  2  0
 15  9  1  0
  1 25  1  0
  1 26  1  0
  1 27  1  0
  4 28  1  0
  5 29  1  0
 10 30  1  0
 11 31  1  0
 14 32  1  0
 17 33  1  0
 17 34  1  0
 19 35  1  0
 20 36  1  0
 22 37  1  0
 23 38  1  0
 24 39  1  0
M  END
>  <UniqueID>  (33) 
31

>  <SMILES>  (33) 
COc1ccc(-c2nc3ccc(Br)cn3c2Cc2ccsc2)cc1

>  <Energy>  (33) 
106.44579715308699

>  <Genealogy>  (33) 
COc1ccc(-c2nc3ccc(Br)cn3c2Cc2ccsc2)cc1 (3D coordinates assigned)
COc1ccc(-c2nc3ccc(Br)cn3c2Cc2ccsc2)cc1 (optimized conformer: 106.44579715308699 kcal/mol)

>  <smiles>  (33) 
COc1ccc(-c2nc3ccc(Br)cn3c2Cc2ccsc2)cc1

>  <score_type>  (33) 
oracle

>  <origin>  (33) 
adg

>  <m_score__min__energy>  (33) 
-7.3700000000000001

>  <m_primary>  (33) 
energy

$$$$
33:0
     RDKit          3D

 61 62  0  0  0  0  0  0  0  0999 V2000
   57.1070   31.1980   42.6030 C   0  0  0  0  0  0  0  0  0  0  0  0
   56.3250   29.9290   42.9340 C   0  0  0  0  0  0  0  0  0  0  0  0
   56.2440   29.6530   44.4430 C   0  0  0  0  0  0  0  0  0  0  0  0
   57.0600   28.4170   44.8590 C   0  0  0  0  0  0  0  0  0  0  0  0
   58.3840   28.2970   44.0820 C   0  0  0  0  0  0  0  0  0  0  0  0
   59.5330   27.7790   44.9620 C   0  0  0  0  0  0  0  0  0  0  0  0
   60.3630   28.9380   45.5280 C   0  0  0  0  0  0  0  0  0  0  0  0
   60.0430   29.1600   47.0170 C   0  0  0  0  0  0  0  0  0  0  0  0
   58.8980   30.1640   47.2370 C   0  0  0  0  0  0  0  0  0  0  0  0
   58.6400   31.1240   46.0570 C   0  0  0  0  0  0  0  0  0  0  0  0
   57.8320   32.3870   46.4400 C   0  0  0  0  0  0  0  0  0  0  0  0
   57.4540   33.2480   45.2210 C   0  0  0  0  0  0  0  0  0  0  0  0
   58.2190   34.5870   45.1850 C   0  0  0  0  0  0  0  0  0  0  0  0
   59.7340   34.3690   45.3010 C   0  0  0  0  0  0  0  0  0  0  0  0
   60.1370   34.3200   46.7070 N   0  0  0  0  0  0  0  0  0  0  0  0
   59.3620   34.6440   47.7700 C   0  0  0  0  0  0  0  0  0  0  0  0
   60.0520   34.4350   48.9590 C   0  0  0  0  0  0  0  0  0  0  0  0
   61.2920   33.9630   48.5770 C   0  0  0  0  0  0  0  0  0  0  0  0
   62.3940   33.5780   49.3320 C   0  0  0  0  0  0  0  0  0  0  0  0
   63.5180   33.1430   48.6770 N   0  0  0  0  0  0  0  0  0  0  0  0
   64.6720   32.6960   49.4590 C   0  0  0  0  0  0  0  0  0  0  0  0
   63.5500   33.0650   47.3020 C   0  0  0  0  0  0  0  0  0  0  0  0
   62.4440   33.4580   46.5300 C   0  0  0  0  0  0  0  0  0  0  0  0
   61.3150   33.9030   47.2130 C   0  0  0  0  0  0  0  0  0  0  0  0
   57.4127   31.6941   43.5359 H   0  0  0  0  0  0  0  0  0  0  0  0
   58.0004   30.9359   42.0173 H   0  0  0  0  0  0  0  0  0  0  0  0
   56.4712   31.8782   42.0173 H   0  0  0  0  0  0  0  0  0  0  0  0
   55.3030   30.0341   42.5411 H   0  0  0  0  0  0  0  0  0  0  0  0
   56.8564   29.0839   42.4720 H   0  0  0  0  0  0  0  0  0  0  0  0
   56.6307   30.5296   44.9835 H   0  0  0  0  0  0  0  0  0  0  0  0
   55.1904   29.4579   44.6916 H   0  0  0  0  0  0  0  0  0  0  0  0
   57.2863   28.4886   45.9331 H   0  0  0  0  0  0  0  0  0  0  0  0
   56.4567   27.5257   44.6319 H   0  0  0  0  0  0  0  0  0  0  0  0
   58.2397   27.6005   43.2429 H   0  0  0  0  0  0  0  0  0  0  0  0
   58.6583   29.3017   43.7281 H   0  0  0  0  0  0  0  0  0  0  0  0
   59.1125   27.1978   45.7959 H   0  0  0  0  0  0  0  0  0  0  0  0
   60.1895   27.1496   44.3433 H   0  0  0  0  0  0  0  0  0  0  0  0
   61.4322   28.7032   45.4196 H   0  0  0  0  0  0  0  0  0  0  0  0
   60.1153   29.8546   44.9726 H   0  0  0  0  0  0  0  0  0  0  0  0
   59.7558   28.1961   47.4624 H   0  0  0  0  0  0  0  0  0  0  0  0
   60.9442   29.5759   47.4912 H   0  0  0  0  0  0  0  0  0  0  0  0
   57.9752   29.5947   47.4223 H   0  0  0  0  0  0  0  0  0  0  0  0
   59.1992   30.7939   48.0870 H   0  0  0  0  0  0  0  0  0  0  0  0
   59.6115   31.4441   45.6524 H   0  0  0  0  0  0  0  0  0  0  0  0
   58.0373   30.5707   45.3217 H   0  0  0  0  0  0  0  0  0  0  0  0
   56.9083   32.0723   46.9476 H   0  0  0  0  0  0  0  0  0  0  0  0
   58.4690   33.0011   47.0935 H   0  0  0  0  0  0  0  0  0  0  0  0
   57.6857   32.6844   44.3052 H   0  0  0  0  0  0  0  0  0  0  0  0
   56.3806   33.4775   45.2932 H   0  0  0  0  0  0  0  0  0  0  0  0
   58.0025   35.0976   44.2351 H   0  0  0  0  0  0  0  0  0  0  0  0
   57.8903   35.1969   46.0394 H   0  0  0  0  0  0  0  0  0  0  0  0
   60.0018   33.4197   44.8141 H   0  0  0  0  0  0  0  0  0  0  0  0
   60.2531   35.2055   44.8103 H   0  0  0  0  0  0  0  0  0  0  0  0
   58.3305   35.0200   47.7019 H   0  0  0  0  0  0  0  0  0  0  0  0
   59.6885   34.6083   49.9826 H   0  0  0  0  0  0  0  0  0  0  0  0
   62.3652   33.6213   50.4308 H   0  0  0  0  0  0  0  0  0  0  0  0
   64.4444   32.7841   50.5316 H   0  0  0  0  0  0  0  0  0  0  0  0
   64.8949   31.6465   49.2165 H   0  0  0  0  0  0  0  0  0  0  0  0
   65.5437   33.3215   49.2165 H   0  0  0  0  0  0  0  0  0  0  0  0
   64.4546   32.6896   46.8013 H   0  0  0  0  0  0  0  0  0  0  0  0
   62.4688   33.4159   45.4311 H   0  0  0  0  0  0  0  0  0  0  0  0
  1  2  1  0
  2  3  1  0
  3  4  1  0
  4  5  1  0
  5  6  1  0
  6  7  1  0
  7  8  1  0
  8  9  1  0
  9 10  1  0
 10 11  1  0
 11 12  1  0
 12 13  1  0
 13 14  1  0
 14 15  1  0
 15 16  1  0
 16 17  2  0
 17 18  1  0
 18 19  2  0
 19 20  1  0
 20 21  1  0
 20 22  2  0
 22 23  1  0
 23 24  2  0
 24 15  1  0
 24 18  1  0
  1 25  1  0
  1 26  1  0
  1 27  1  0
  2 28  1  0
  2 29  1  0
  3 30  1  0
  3 31  1  0
  4 32  1  0
  4 33  1  0
  5 34  1  0
  5 35  1  0
  6 36  1  0
  6 37  1  0
  7 38  1  0
  7 39  1  0
  8 40  1  0
  8 41  1  0
  9 42  1  0
  9 43  1  0
 10 44  1  0
 10 45  1  0
 11 46  1  0
 11 47  1  0
 12 48  1  0
 12 49  1  0
 13 50  1  0
 13 51  1  0
 14 52  1  0
 14 53  1  0
 16 54  1  0
 17 55  1  0
 19 56  1  0
 21 57  1  0
 21 58  1  0
 21 59  1  0
 22 60  1  0
 23 61  1  0
M  CHG  1  20   1
M  END
>  <UniqueID>  (34) 
32

>  <SMILES>  (34) 
CCCCCCCCCCCCCCn1ccc2c[n+](C)ccc21

>  <Energy>  (34) 
74.28564599947799

>  <Genealogy>  (34) 
CCCCCCCCCCCCCCn1ccc2c[n+](C)ccc21 (3D coordinates assigned)
CCCCCCCCCCCCCCn1ccc2c[n+](C)ccc21 (optimized conformer: 74.28564599947799 kcal/mol)

>  <smiles>  (34) 
CCCCCCCCCCCCCCn1ccc2c[n+](C)ccc21

>  <score_type>  (34) 
oracle

>  <origin>  (34) 
adg

>  <m_score__min__energy>  (34) 
-5.8300000000000001

>  <m_primary>  (34) 
energy

$$$$
34:0
     RDKit          3D

 49 50  0  0  0  0  0  0  0  0999 V2000
   62.3010   32.5490   47.4480 C   0  0  0  0  0  0  0  0  0  0  0  0
   62.3490   31.3080   48.3520 C   0  0  0  0  0  0  0  0  0  0  0  0
   61.0140   30.8470   48.7980 N   0  0  0  0  0  0  0  0  0  0  0  0
   61.0560   29.5370   49.4920 C   0  0  0  0  0  0  0  0  0  0  0  0
   59.7980   28.7460   49.1630 C   0  0  0  0  0  0  0  0  0  0  0  0
   60.2730   31.8840   49.5460 C   0  0  0  0  0  0  0  0  0  0  0  0
   58.8560   32.0680   48.9660 C   0  0  0  0  0  0  0  0  0  0  0  0
   58.6910   31.4630   47.6290 N   0  0  0  0  0  0  0  0  0  0  0  0
   58.6190   32.4490   46.5680 C   0  0  0  0  0  0  0  0  0  0  0  0
   59.0700   33.7600   46.8260 C   0  0  0  0  0  0  0  0  0  0  0  0
   59.0840   34.7260   45.8210 C   0  0  0  0  0  0  0  0  0  0  0  0
   58.6350   34.4060   44.5430 C   0  0  0  0  0  0  0  0  0  0  0  0
   58.1440   33.1300   44.2720 C   0  0  0  0  0  0  0  0  0  0  0  0
   58.1120   32.1410   45.2710 C   0  0  0  0  0  0  0  0  0  0  0  0
   57.3300   30.5930   44.8840 S   0  0  0  0  0  0  0  0  0  0  0  0
   58.0240   29.9480   43.7170 O   0  0  0  0  0  0  0  0  0  0  0  0
   55.9000   30.8620   44.5030 O   0  0  0  0  0  0  0  0  0  0  0  0
   57.3860   29.5070   46.2370 N   0  0  0  0  0  0  0  0  0  0  0  0
   57.9160   28.1780   46.1630 C   0  0  0  0  0  0  0  0  0  0  0  0
   57.0620   27.0990   46.4380 C   0  0  0  0  0  0  0  0  0  0  0  0
   57.5270   25.7850   46.3590 C   0  0  0  0  0  0  0  0  0  0  0  0
   58.8570   25.5330   46.0230 C   0  0  0  0  0  0  0  0  0  0  0  0
   59.7280   26.5980   45.7830 C   0  0  0  0  0  0  0  0  0  0  0  0
   59.2720   27.9200   45.8590 C   0  0  0  0  0  0  0  0  0  0  0  0
   60.5720   29.3130   45.6560 Br  0  0  0  0  0  0  0  0  0  0  0  0
   62.2660   33.4551   48.0707 H   0  0  0  0  0  0  0  0  0  0  0  0
   63.1988   32.5750   46.8130 H   0  0  0  0  0  0  0  0  0  0  0  0
   61.4039   32.5056   46.8130 H   0  0  0  0  0  0  0  0  0  0  0  0
   62.8310   30.4908   47.7954 H   0  0  0  0  0  0  0  0  0  0  0  0
   62.9116   31.5882   49.2548 H   0  0  0  0  0  0  0  0  0  0  0  0
   61.9403   28.9741   49.1588 H   0  0  0  0  0  0  0  0  0  0  0  0
   61.1120   29.7001   50.5784 H   0  0  0  0  0  0  0  0  0  0  0  0
   59.3052   28.4361   50.0963 H   0  0  0  0  0  0  0  0  0  0  0  0
   59.1117   29.3754   48.5775 H   0  0  0  0  0  0  0  0  0  0  0  0
   60.0679   27.8548   48.5775 H   0  0  0  0  0  0  0  0  0  0  0  0
   60.1948   31.5817   50.6007 H   0  0  0  0  0  0  0  0  0  0  0  0
   60.8160   32.8368   49.4609 H   0  0  0  0  0  0  0  0  0  0  0  0
   58.1341   31.6013   49.6523 H   0  0  0  0  0  0  0  0  0  0  0  0
   58.6849   33.1493   48.8586 H   0  0  0  0  0  0  0  0  0  0  0  0
   57.8010   30.9130   47.6230 H   0  0  0  0  0  0  0  0  0  0  0  0
   59.4620   30.7780   47.4850 H   0  0  0  0  0  0  0  0  0  0  0  0
   59.4162   34.0245   47.8361 H   0  0  0  0  0  0  0  0  0  0  0  0
   59.4497   35.7405   46.0379 H   0  0  0  0  0  0  0  0  0  0  0  0
   58.6677   35.1621   43.7448 H   0  0  0  0  0  0  0  0  0  0  0  0
   57.7764   32.8934   43.2626 H   0  0  0  0  0  0  0  0  0  0  0  0
   56.0158   27.2904   46.7186 H   0  0  0  0  0  0  0  0  0  0  0  0
   56.8436   24.9473   46.5620 H   0  0  0  0  0  0  0  0  0  0  0  0
   59.2193   24.4972   45.9472 H   0  0  0  0  0  0  0  0  0  0  0  0
   60.7800   26.3970   45.5324 H   0  0  0  0  0  0  0  0  0  0  0  0
  1  2  1  0
  2  3  1  0
  3  4  1  0
  4  5  1  0
  3  6  1  0
  6  7  1  0
  7  8  1  0
  8  9  1  0
  9 10  2  0
 10 11  1  0
 11 12  2  0
 12 13  1  0
 13 14  2  0
 14 15  1  0
 15 16  2  0
 15 17  2  0
 15 18  1  0
 18 19  1  0
 19 20  2  0
 20 21  1  0
 21 22  2  0
 22 23  1  0
 23 24  2  0
 24 25  1  0
 14  9  1  0
 24 19  1  0
  1 26  1  0
  1 27  1  0
  1 28  1  0
  2 29  1  0
  2 30  1  0
  4 31  1  0
  4 32  1  0
  5 33  1  0
  5 34  1  0
  5 35  1  0
  6 36  1  0
  6 37  1  0
  7 38  1  0
  7 39  1  0
  8 40  1  0
  8 41  1  0
 10 42  1  0
 11 43  1  0
 12 44  1  0
 13 45  1  0
 20 46  1  0
 21 47  1  0
 22 48  1  0
 23 49  1  0
M  CHG  2   8   1  18  -1
M  END
>  <UniqueID>  (35) 
33

>  <SMILES>  (35) 
CCN(CC)CC[NH2+]c1ccccc1S(=O)(=O)[N-]c1ccccc1Br

>  <Energy>  (35) 
64.53913616943187

>  <Genealogy>  (35) 
CCN(CC)CC[NH2+]c1ccccc1S(=O)(=O)[N-]c1ccccc1Br (protonated)
CCN(CC)CC[NH2+]c1ccccc1S(=O)(=O)[N-]c1ccccc1Br (3D coordinates assigned)
CCN(CC)CC[NH2+]c1ccccc1S(=O)(=O)[N-]c1ccccc1Br (optimized conformer: 64.53913616943187 kcal/mol)

>  <smiles>  (35) 
CCN(CC)CCNc1ccccc1S(=O)(=O)Nc1ccccc1Br

>  <score_type>  (35) 
oracle

>  <origin>  (35) 
adg

>  <m_score__min__energy>  (35) 
-7.6900000000000004

>  <m_primary>  (35) 
energy

$$$$
35:0
     RDKit          3D

 44 45  0  0  0  0  0  0  0  0999 V2000
   57.1120   33.6500   44.8750 C   0  0  0  0  0  0  0  0  0  0  0  0
   56.7870   32.3170   45.2480 O   0  0  0  0  0  0  0  0  0  0  0  0
   57.7680   31.3250   45.3340 C   0  0  0  0  0  0  0  0  0  0  0  0
   57.6200   30.1040   44.6340 C   0  0  0  0  0  0  0  0  0  0  0  0
   56.4050   29.8960   43.7600 C   0  0  0  0  0  0  0  0  0  0  0  0
   58.5920   29.0810   44.8120 C   0  0  0  0  0  0  0  0  0  0  0  0
   58.4700   27.6950   44.1850 C   0  0  0  0  0  0  0  0  0  0  0  0
   57.4280   26.7980   44.7840 N   0  0  0  0  0  0  0  0  0  0  0  0
   57.4210   25.4050   44.2810 C   0  0  0  0  0  0  0  0  0  0  0  0
   56.2600   24.5950   44.9060 C   0  0  0  0  0  0  0  0  0  0  0  0
   55.6300   25.2780   45.9760 O   0  0  0  0  0  0  0  0  0  0  0  0
   56.6050   25.7240   46.8950 C   0  0  0  0  0  0  0  0  0  0  0  0
   57.4950   26.8140   46.2650 C   0  0  0  0  0  0  0  0  0  0  0  0
   59.7080   29.3310   45.6280 C   0  0  0  0  0  0  0  0  0  0  0  0
   59.8730   30.5560   46.2710 C   0  0  0  0  0  0  0  0  0  0  0  0
   61.4470   30.8370   47.3260 Br  0  0  0  0  0  0  0  0  0  0  0  0
   58.9030   31.5580   46.1300 C   0  0  0  0  0  0  0  0  0  0  0  0
   59.0660   32.8140   46.8080 N   0  0  0  0  0  0  0  0  0  0  0  0
   58.5640   32.9770   48.1710 C   0  0  0  0  0  0  0  0  0  0  0  0
   59.9960   33.8100   46.2740 C   0  0  0  0  0  0  0  0  0  0  0  0
   57.2603   34.2581   45.7796 H   0  0  0  0  0  0  0  0  0  0  0  0
   58.0362   33.6489   44.2784 H   0  0  0  0  0  0  0  0  0  0  0  0
   56.2910   34.0743   44.2784 H   0  0  0  0  0  0  0  0  0  0  0  0
   55.5189   29.7443   44.3939 H   0  0  0  0  0  0  0  0  0  0  0  0
   56.2542   30.7814   43.1249 H   0  0  0  0  0  0  0  0  0  0  0  0
   56.5574   29.0109   43.1249 H   0  0  0  0  0  0  0  0  0  0  0  0
   58.2304   27.8263   43.1195 H   0  0  0  0  0  0  0  0  0  0  0  0
   59.4339   27.1978   44.3684 H   0  0  0  0  0  0  0  0  0  0  0  0
   56.4980   27.2100   44.5230 H   0  0  0  0  0  0  0  0  0  0  0  0
   57.3025   25.4181   43.1875 H   0  0  0  0  0  0  0  0  0  0  0  0
   58.3716   24.9270   44.5602 H   0  0  0  0  0  0  0  0  0  0  0  0
   55.5104   24.3955   44.1261 H   0  0  0  0  0  0  0  0  0  0  0  0
   56.6844   23.6642   45.3103 H   0  0  0  0  0  0  0  0  0  0  0  0
   56.1021   26.1373   47.7817 H   0  0  0  0  0  0  0  0  0  0  0  0
   57.2395   24.8708   47.1768 H   0  0  0  0  0  0  0  0  0  0  0  0
   57.1601   27.7980   46.6251 H   0  0  0  0  0  0  0  0  0  0  0  0
   58.5359   26.6155   46.5603 H   0  0  0  0  0  0  0  0  0  0  0  0
   60.4657   28.5449   45.7618 H   0  0  0  0  0  0  0  0  0  0  0  0
   59.3579   32.7192   48.8874 H   0  0  0  0  0  0  0  0  0  0  0  0
   58.2555   34.0215   48.3257 H   0  0  0  0  0  0  0  0  0  0  0  0
   57.7008   32.3130   48.3257 H   0  0  0  0  0  0  0  0  0  0  0  0
   60.4872   34.3361   47.1058 H   0  0  0  0  0  0  0  0  0  0  0  0
   60.7563   33.3083   45.6574 H   0  0  0  0  0  0  0  0  0  0  0  0
   59.4434   34.5342   45.6574 H   0  0  0  0  0  0  0  0  0  0  0  0
  1  2  1  0
  2  3  1  0
  3  4  2  0
  4  5  1  0
  4  6  1  0
  6  7  1  0
  7  8  1  0
  8  9  1  0
  9 10  1  0
 10 11  1  0
 11 12  1  0
 12 13  1  0
  6 14  2  0
 14 15  1  0
 15 16  1  0
 15 17  2  0
 17 18  1  0
 18 19  1  0
 18 20  1  0
 17  3  1  0
 13  8  1  0
  1 21  1  0
  1 22  1  0
  1 23  1  0
  5 24  1  0
  5 25  1  0
  5 26  1  0
  7 27  1  0
  7 28  1  0
  8 29  1  0
  9 30  1  0
  9 31  1  0
 10 32  1  0
 10 33  1  0
 12 34  1  0
 12 35  1  0
 13 36  1  0
 13 37  1  0
 14 38  1  0
 19 39  1  0
 19 40  1  0
 19 41  1  0
 20 42  1  0
 20 43  1  0
 20 44  1  0
M  CHG  1   8   1
M  END
>  <UniqueID>  (36) 
34

>  <SMILES>  (36) 
COc1c(C)c(C[NH+]2CCOCC2)cc(Br)c1N(C)C

>  <Energy>  (36) 
73.92293378085682

>  <Genealogy>  (36) 
COc1c(C)c(C[NH+]2CCOCC2)cc(Br)c1N(C)C (protonated)
COc1c(C)c(C[NH+]2CCOCC2)cc(Br)c1N(C)C (3D coordinates assigned)
COc1c(C)c(C[NH+]2CCOCC2)cc(Br)c1N(C)C (nonaromatic ring conformer: 73.92293378085682 kcal/mol)

>  <smiles>  (36) 
COc1c(C)c(CN2CCOCC2)cc(Br)c1N(C)C

>  <score_type>  (36) 
oracle

>  <origin>  (36) 
adg

>  <m_score__min__energy>  (36) 
-5.1399999999999997

>  <m_primary>  (36) 
energy

$$$$
36:0
     RDKit          3D

 60 63  0  0  0  0  0  0  0  0999 V2000
   59.2100   34.5760   45.4860 C   0  0  0  0  0  0  0  0  0  0  0  0
   58.4000   33.3740   45.7210 N   0  0  0  0  0  0  0  0  0  0  0  0
   57.6520   33.4680   46.9860 C   0  0  0  0  0  0  0  0  0  0  0  0
   57.5520   33.0060   44.5570 C   0  0  0  0  0  0  0  0  0  0  0  0
   57.5090   31.4960   44.2330 C   0  0  0  0  0  0  0  0  0  0  0  0
   57.3360   30.7310   45.4270 O   0  0  0  0  0  0  0  0  0  0  0  0
   57.6730   29.3720   45.5610 C   0  0  0  0  0  0  0  0  0  0  0  0
   56.6880   28.3670   45.6220 C   0  0  0  0  0  0  0  0  0  0  0  0
   57.0420   27.0090   45.7110 C   0  0  0  0  0  0  0  0  0  0  0  0
   58.4010   26.6470   45.7430 C   0  0  0  0  0  0  0  0  0  0  0  0
   59.3840   27.6490   45.7000 C   0  0  0  0  0  0  0  0  0  0  0  0
   59.0310   29.0050   45.6270 C   0  0  0  0  0  0  0  0  0  0  0  0
   60.1170   30.0550   45.6550 C   0  0  0  0  0  0  0  0  0  0  0  0
   60.1450   30.7920   46.9680 C   0  0  0  0  0  0  0  0  0  0  0  0
   59.3540   30.3580   48.0450 C   0  0  0  0  0  0  0  0  0  0  0  0
   59.3530   31.0650   49.2510 C   0  0  0  0  0  0  0  0  0  0  0  0
   60.1410   32.2220   49.4050 C   0  0  0  0  0  0  0  0  0  0  0  0
   60.1470   32.9510   50.6540 N   0  0  0  0  0  0  0  0  0  0  0  0
   58.8980   33.1700   51.3850 C   0  0  0  0  0  0  0  0  0  0  0  0
   61.3980   33.5050   51.1830 C   0  0  0  0  0  0  0  0  0  0  0  0
   60.9230   32.6550   48.3190 C   0  0  0  0  0  0  0  0  0  0  0  0
   60.9190   31.9530   47.1110 C   0  0  0  0  0  0  0  0  0  0  0  0
   58.7850   25.2170   45.8290 C   0  0  0  0  0  0  0  0  0  0  0  0
   60.0040   24.8920   45.8360 O   0  0  0  0  0  0  0  0  0  0  0  0
   57.7410   24.1680   45.9080 C   0  0  0  0  0  0  0  0  0  0  0  0
   58.0940   22.8080   46.0100 C   0  0  0  0  0  0  0  0  0  0  0  0
   57.1080   21.8250   46.0880 C   0  0  0  0  0  0  0  0  0  0  0  0
   55.7610   22.1840   46.0660 C   0  0  0  0  0  0  0  0  0  0  0  0
   55.3950   23.5290   45.9610 C   0  0  0  0  0  0  0  0  0  0  0  0
   56.3780   24.5320   45.8810 C   0  0  0  0  0  0  0  0  0  0  0  0
   55.9960   25.9610   45.7680 C   0  0  0  0  0  0  0  0  0  0  0  0
   54.7790   26.2850   45.7250 O   0  0  0  0  0  0  0  0  0  0  0  0
   59.5050   35.0138   46.4510 H   0  0  0  0  0  0  0  0  0  0  0  0
   60.1107   34.3054   44.9155 H   0  0  0  0  0  0  0  0  0  0  0  0
   58.6211   35.3092   44.9155 H   0  0  0  0  0  0  0  0  0  0  0  0
   58.3497   33.3803   47.8319 H   0  0  0  0  0  0  0  0  0  0  0  0
   57.1358   34.4381   47.0355 H   0  0  0  0  0  0  0  0  0  0  0  0
   56.9118   32.6558   47.0355 H   0  0  0  0  0  0  0  0  0  0  0  0
   56.5246   33.3402   44.7639 H   0  0  0  0  0  0  0  0  0  0  0  0
   58.0021   33.4960   43.6811 H   0  0  0  0  0  0  0  0  0  0  0  0
   56.6696   31.2963   43.5507 H   0  0  0  0  0  0  0  0  0  0  0  0
   58.4596   31.2071   43.7609 H   0  0  0  0  0  0  0  0  0  0  0  0
   55.6250   28.6489   45.5997 H   0  0  0  0  0  0  0  0  0  0  0  0
   60.4468   27.3665   45.7239 H   0  0  0  0  0  0  0  0  0  0  0  0
   61.0900   29.5658   45.4999 H   0  0  0  0  0  0  0  0  0  0  0  0
   59.9105   30.7835   44.8570 H   0  0  0  0  0  0  0  0  0  0  0  0
   58.7321   29.4569   47.9387 H   0  0  0  0  0  0  0  0  0  0  0  0
   58.7308   30.7143   50.0876 H   0  0  0  0  0  0  0  0  0  0  0  0
   59.0953   33.1354   52.4666 H   0  0  0  0  0  0  0  0  0  0  0  0
   58.4851   34.1542   51.1189 H   0  0  0  0  0  0  0  0  0  0  0  0
   58.1749   32.3849   51.1189 H   0  0  0  0  0  0  0  0  0  0  0  0
   61.3687   33.4920   52.2825 H   0  0  0  0  0  0  0  0  0  0  0  0
   62.2454   32.8980   50.8316 H   0  0  0  0  0  0  0  0  0  0  0  0
   61.5180   34.5404   50.8316 H   0  0  0  0  0  0  0  0  0  0  0  0
   61.5448   33.5566   48.4219 H   0  0  0  0  0  0  0  0  0  0  0  0
   61.5263   32.3128   46.2673 H   0  0  0  0  0  0  0  0  0  0  0  0
   59.1553   22.5193   46.0282 H   0  0  0  0  0  0  0  0  0  0  0  0
   57.3932   20.7656   46.1669 H   0  0  0  0  0  0  0  0  0  0  0  0
   54.9848   21.4074   46.1314 H   0  0  0  0  0  0  0  0  0  0  0  0
   54.3304   23.8051   45.9408 H   0  0  0  0  0  0  0  0  0  0  0  0
  1  2  1  0
  2  3  1  0
  2  4  1  0
  4  5  1  0
  5  6  1  0
  6  7  1  0
  7  8  2  0
  8  9  1  0
  9 10  2  0
 10 11  1  0
 11 12  2  0
 12 13  1  0
 13 14  1  0
 14 15  2  0
 15 16  1  0
 16 17  2  0
 17 18  1  0
 18 19  1  0
 18 20  1  0
 17 21  1  0
 21 22  2  0
 10 23  1  0
 23 24  2  0
 23 25  1  0
 25 26  2  0
 26 27  1  0
 27 28  2  0
 28 29  1  0
 29 30  2  0
 30 31  1  0
 31 32  2  0
 12  7  1  0
 22 14  1  0
 30 25  1  0
 31  9  1  0
  1 33  1  0
  1 34  1  0
  1 35  1  0
  3 36  1  0
  3 37  1  0
  3 38  1  0
  4 39  1  0
  4 40  1  0
  5 41  1  0
  5 42  1  0
  8 43  1  0
 11 44  1  0
 13 45  1  0
 13 46  1  0
 15 47  1  0
 16 48  1  0
 19 49  1  0
 19 50  1  0
 19 51  1  0
 20 52  1  0
 20 53  1  0
 20 54  1  0
 21 55  1  0
 22 56  1  0
 26 57  1  0
 27 58  1  0
 28 59  1  0
 29 60  1  0
M  END
>  <UniqueID>  (37) 
35

>  <SMILES>  (37) 
CN(C)CCOc1cc2c(cc1Cc1ccc(N(C)C)cc1)C(=O)c1ccccc1C2=O

>  <Energy>  (37) 
71.47397291942698

>  <Genealogy>  (37) 
CN(C)CCOc1cc2c(cc1Cc1ccc(N(C)C)cc1)C(=O)c1ccccc1C2=O (3D coordinates assigned)
CN(C)CCOc1cc2c(cc1Cc1ccc(N(C)C)cc1)C(=O)c1ccccc1C2=O (nonaromatic ring conformer: 71.47397291942698 kcal/mol)

>  <smiles>  (37) 
CN(C)CCOc1cc2c(cc1Cc1ccc(N(C)C)cc1)C(=O)c1ccccc1C2=O

>  <score_type>  (37) 
oracle

>  <origin>  (37) 
adg

>  <m_score__min__energy>  (37) 
-8.8300000000000001

>  <m_primary>  (37) 
energy

$$$$
37:0
     RDKit          3D

 48 49  0  0  0  0  0  0  0  0999 V2000
   56.5060   30.0420   42.7790 C   0  0  0  0  0  0  0  0  0  0  0  0
   56.0320   30.3170   44.2140 C   0  0  0  0  0  0  0  0  0  0  0  0
   57.0750   30.1500   45.2500 N   0  0  0  0  0  0  0  0  0  0  0  0
   58.3260   30.8720   44.9400 C   0  0  0  0  0  0  0  0  0  0  0  0
   59.4320   30.5550   45.9730 C   0  0  0  0  0  0  0  0  0  0  0  0
   58.8600   29.9720   47.2100 N   0  0  0  0  0  0  0  0  0  0  0  0
   59.9060   29.7470   48.2430 C   0  0  0  0  0  0  0  0  0  0  0  0
   60.1030   30.9370   49.2140 C   0  0  0  0  0  0  0  0  0  0  0  0
   58.8000   31.4820   49.8220 C   0  0  0  0  0  0  0  0  0  0  0  0
   58.0780   32.3120   48.8480 N   0  0  0  0  0  0  0  0  0  0  0  0
   58.8930   33.4620   48.4470 C   0  0  0  0  0  0  0  0  0  0  0  0
   58.7040   33.7310   46.9820 C   0  0  0  0  0  0  0  0  0  0  0  0
   57.4770   33.8340   46.3510 C   0  0  0  0  0  0  0  0  0  0  0  0
   57.7420   34.1620   45.0340 C   0  0  0  0  0  0  0  0  0  0  0  0
   59.1150   34.2580   44.9160 C   0  0  0  0  0  0  0  0  0  0  0  0
   59.6960   34.0060   46.1060 N   0  0  0  0  0  0  0  0  0  0  0  0
   61.1330   34.0080   46.3720 C   0  0  0  0  0  0  0  0  0  0  0  0
   58.1790   28.6870   46.9060 C   0  0  0  0  0  0  0  0  0  0  0  0
   57.3420   28.7490   45.6110 C   0  0  0  0  0  0  0  0  0  0  0  0
   57.4572   29.4902   42.8064 H   0  0  0  0  0  0  0  0  0  0  0  0
   55.7494   29.4426   42.2515 H   0  0  0  0  0  0  0  0  0  0  0  0
   56.6508   30.9963   42.2515 H   0  0  0  0  0  0  0  0  0  0  0  0
   55.6642   31.3526   44.2613 H   0  0  0  0  0  0  0  0  0  0  0  0
   55.2530   29.5719   44.4331 H   0  0  0  0  0  0  0  0  0  0  0  0
   58.6737   30.5724   43.9403 H   0  0  0  0  0  0  0  0  0  0  0  0
   58.1197   31.9519   44.9745 H   0  0  0  0  0  0  0  0  0  0  0  0
   60.1395   29.8373   45.5321 H   0  0  0  0  0  0  0  0  0  0  0  0
   59.9431   31.4933   46.2346 H   0  0  0  0  0  0  0  0  0  0  0  0
   58.1370   30.6280   47.5880 H   0  0  0  0  0  0  0  0  0  0  0  0
   59.6238   28.8627   48.8333 H   0  0  0  0  0  0  0  0  0  0  0  0
   60.8574   29.6145   47.7070 H   0  0  0  0  0  0  0  0  0  0  0  0
   60.7545   30.6061   50.0362 H   0  0  0  0  0  0  0  0  0  0  0  0
   60.5407   31.7554   48.6235 H   0  0  0  0  0  0  0  0  0  0  0  0
   58.1608   30.6382   50.1210 H   0  0  0  0  0  0  0  0  0  0  0  0
   59.0502   32.1008   50.6963 H   0  0  0  0  0  0  0  0  0  0  0  0
   57.2110   32.6700   49.3140 H   0  0  0  0  0  0  0  0  0  0  0  0
   58.5855   34.3468   49.0237 H   0  0  0  0  0  0  0  0  0  0  0  0
   59.9530   33.2429   48.6430 H   0  0  0  0  0  0  0  0  0  0  0  0
   56.4870   33.6846   46.8066 H   0  0  0  0  0  0  0  0  0  0  0  0
   57.0023   34.3166   44.2347 H   0  0  0  0  0  0  0  0  0  0  0  0
   59.6539   34.5035   43.9890 H   0  0  0  0  0  0  0  0  0  0  0  0
   61.3048   34.0082   47.4585 H   0  0  0  0  0  0  0  0  0  0  0  0
   61.5892   33.1105   45.9289 H   0  0  0  0  0  0  0  0  0  0  0  0
   61.5867   34.9068   45.9289 H   0  0  0  0  0  0  0  0  0  0  0  0
   58.9416   27.9021   46.7950 H   0  0  0  0  0  0  0  0  0  0  0  0
   57.4910   28.4707   47.7366 H   0  0  0  0  0  0  0  0  0  0  0  0
   57.8967   28.2622   44.7953 H   0  0  0  0  0  0  0  0  0  0  0  0
   56.3859   28.2301   45.7743 H   0  0  0  0  0  0  0  0  0  0  0  0
  1  2  1  0
  2  3  1  0
  3  4  1  0
  4  5  1  0
  5  6  1  0
  6  7  1  0
  7  8  1  0
  8  9  1  0
  9 10  1  0
 10 11  1  0
 11 12  1  0
 12 13  2  0
 13 14  1  0
 14 15  2  0
 15 16  1  0
 16 17  1  0
  6 18  1  0
 18 19  1  0
 19  3  1  0
 16 12  1  0
  1 20  1  0
  1 21  1  0
  1 22  1  0
  2 23  1  0
  2 24  1  0
  4 25  1  0
  4 26  1  0
  5 27  1  0
  5 28  1  0
  6 29  1  0
  7 30  1  0
  7 31  1  0
  8 32  1  0
  8 33  1  0
  9 34  1  0
  9 35  1  0
 10 36  1  0
 11 37  1  0
 11 38  1  0
 13 39  1  0
 14 40  1  0
 15 41  1  0
 17 42  1  0
 17 43  1  0
 17 44  1  0
 18 45  1  0
 18 46  1  0
 19 47  1  0
 19 48  1  0
M  CHG  1   6   1
M  END
>  <UniqueID>  (38) 
36

>  <SMILES>  (38) 
CCN1CC[NH+](CCCNCc2cccn2C)CC1

>  <Energy>  (38) 
78.54246961368227

>  <Genealogy>  (38) 
CCN1CC[NH+](CCCNCc2cccn2C)CC1 (protonated)
CCN1CC[NH+](CCCNCc2cccn2C)CC1 (3D coordinates assigned)
CCN1CC[NH+](CCCNCc2cccn2C)CC1 (nonaromatic ring conformer: 78.54246961368227 kcal/mol)

>  <smiles>  (38) 
CCN1CCN(CCCNCc2cccn2C)CC1

>  <score_type>  (38) 
oracle

>  <origin>  (38) 
adg

>  <m_score__min__energy>  (38) 
-4.5199999999999996

>  <m_primary>  (38) 
energy

$$$$
38:0
     RDKit          3D

 43 45  0  0  0  0  0  0  0  0999 V2000
   58.7040   29.8990   45.1740 H   0  0  0  0  0  0  0  0  0  0  0  0
   59.5990   29.6490   45.5240 O   0  0  0  0  0  0  0  0  0  0  0  0
   59.5950   29.9610   46.8910 C   0  0  0  0  0  0  0  0  0  0  0  0
   60.5780   30.3654   47.1740 H   0  0  0  0  0  0  0  0  0  0  0  0
   59.3841   29.0475   47.4663 H   0  0  0  0  0  0  0  0  0  0  0  0
   58.5150   31.0010   47.1940 C   0  0  0  0  0  0  0  0  0  0  0  0
   58.7228   31.4666   48.1687 H   0  0  0  0  0  0  0  0  0  0  0  0
   57.5345   30.5029   47.2159 H   0  0  0  0  0  0  0  0  0  0  0  0
   58.5010   32.0400   46.1530 N   0  0  0  0  0  0  0  0  0  0  0  0
   59.2290   33.2020   46.2000 C   0  0  0  0  0  0  0  0  0  0  0  0
   60.2110   33.5140   47.2550 C   0  0  0  0  0  0  0  0  0  0  0  0
   59.7830   33.9430   48.5160 C   0  0  0  0  0  0  0  0  0  0  0  0
   58.7080   34.0554   48.7201 H   0  0  0  0  0  0  0  0  0  0  0  0
   60.7130   34.2290   49.5160 C   0  0  0  0  0  0  0  0  0  0  0  0
   60.3655   34.5735   50.5012 H   0  0  0  0  0  0  0  0  0  0  0  0
   62.0890   34.0810   49.2760 C   0  0  0  0  0  0  0  0  0  0  0  0
   63.0690   34.3930   50.3770 C   0  0  0  0  0  0  0  0  0  0  0  0
   62.5853   34.2390   51.3529 H   0  0  0  0  0  0  0  0  0  0  0  0
   63.9410   33.7281   50.2910 H   0  0  0  0  0  0  0  0  0  0  0  0
   63.3961   35.4397   50.2910 H   0  0  0  0  0  0  0  0  0  0  0  0
   62.5280   33.6180   48.0120 C   0  0  0  0  0  0  0  0  0  0  0  0
   63.9920   33.4370   47.7100 C   0  0  0  0  0  0  0  0  0  0  0  0
   64.5549   33.3674   48.6525 H   0  0  0  0  0  0  0  0  0  0  0  0
   64.1351   32.5143   47.1284 H   0  0  0  0  0  0  0  0  0  0  0  0
   64.3555   34.2970   47.1284 H   0  0  0  0  0  0  0  0  0  0  0  0
   61.5800   33.3400   47.0120 C   0  0  0  0  0  0  0  0  0  0  0  0
   61.9166   32.9819   46.0279 H   0  0  0  0  0  0  0  0  0  0  0  0
   58.9490   34.1100   45.1790 C   0  0  0  0  0  0  0  0  0  0  0  0
   59.4233   35.0932   45.0439 H   0  0  0  0  0  0  0  0  0  0  0  0
   57.7640   33.4460   44.1910 S   0  0  0  0  0  0  0  0  0  0  0  0
   57.6410   32.0330   45.1020 C   0  0  0  0  0  0  0  0  0  0  0  0
   56.8140   31.0540   44.8660 N   0  0  0  0  0  0  0  0  0  0  0  0
   56.8670   30.1690   43.7050 C   0  0  0  0  0  0  0  0  0  0  0  0
   55.8726   30.1265   43.2366 H   0  0  0  0  0  0  0  0  0  0  0  0
   57.6059   30.5624   42.9914 H   0  0  0  0  0  0  0  0  0  0  0  0
   57.2770   28.7910   44.1150 C   0  0  0  0  0  0  0  0  0  0  0  0
   57.1960   28.3330   45.3420 O   0  0  0  0  0  0  0  0  0  0  0  0
   57.6450   27.0980   45.3580 C   0  0  0  0  0  0  0  0  0  0  0  0
   57.6989   26.4550   46.2488 H   0  0  0  0  0  0  0  0  0  0  0  0
   58.0390   26.7300   44.0860 C   0  0  0  0  0  0  0  0  0  0  0  0
   58.4580   25.7606   43.7783 H   0  0  0  0  0  0  0  0  0  0  0  0
   57.8010   27.8230   43.2800 C   0  0  0  0  0  0  0  0  0  0  0  0
   57.9888   27.9067   42.1994 H   0  0  0  0  0  0  0  0  0  0  0  0
  1  2  1  0
  2  3  1  0
  3  4  1  0
  3  5  1  0
  3  6  1  0
  6  7  1  0
  6  8  1  0
  6  9  1  0
  9 10  1  0
 10 11  1  0
 11 12  2  0
 12 13  1  0
 12 14  1  0
 14 15  1  0
 14 16  2  0
 16 17  1  0
 17 18  1  0
 17 19  1  0
 17 20  1  0
 16 21  1  0
 21 22  1  0
 22 23  1  0
 22 24  1  0
 22 25  1  0
 21 26  2  0
 26 27  1  0
 10 28  2  0
 28 29  1  0
 28 30  1  0
 30 31  1  0
 31 32  2  0
 32 33  1  0
 33 34  1  0
 33 35  1  0
 33 36  1  0
 36 37  1  0
 37 38  1  0
 38 39  1  0
 38 40  2  0
 40 41  1  0
 40 42  1  0
 42 43  1  0
 31  9  1  0
 42 36  2  0
 26 11  1  0
M  END
>  <UniqueID>  (39) 
37

>  <SMILES>  (39) 
Cc1ccc(-c2cs/c(=N\Cc3ccco3)n2CCO)cc1C

>  <Energy>  (39) 
103.9343539973937

>  <Genealogy>  (39) 
Cc1ccc(-c2cs/c(=N\Cc3ccco3)n2CCO)cc1C (cis-trans isomerization)
Cc1ccc(-c2cs/c(=N\Cc3ccco3)n2CCO)cc1C (3D coordinates assigned)
Cc1ccc(-c2cs/c(=N\Cc3ccco3)n2CCO)cc1C (optimized conformer: 103.9343539973937 kcal/mol)

>  <smiles>  (39) 
Cc1ccc(-c2csc(=NCc3ccco3)n2CCO)cc1C

>  <score_type>  (39) 
oracle

>  <origin>  (39) 
adg

>  <m_score__min__energy>  (39) 
-7.8600000000000003

>  <m_primary>  (39) 
energy

$$$$
39:0
     RDKit          3D

 40 42  0  0  0  0  0  0  0  0999 V2000
   59.9960   34.8550   46.1070 C   0  0  0  0  0  0  0  0  0  0  0  0
   59.2780   33.5830   45.7670 C   0  0  0  0  0  0  0  0  0  0  0  0
   58.6880   33.4380   44.5130 C   0  0  0  0  0  0  0  0  0  0  0  0
   58.0130   32.2610   44.1620 C   0  0  0  0  0  0  0  0  0  0  0  0
   57.4010   32.1920   42.7840 C   0  0  0  0  0  0  0  0  0  0  0  0
   57.8840   31.2070   45.1110 C   0  0  0  0  0  0  0  0  0  0  0  0
   56.9320   29.7500   44.6890 S   0  0  0  0  0  0  0  0  0  0  0  0
   55.4970   30.1540   44.5020 O   0  0  0  0  0  0  0  0  0  0  0  0
   57.3970   29.0740   43.4280 O   0  0  0  0  0  0  0  0  0  0  0  0
   57.0290   28.5880   45.9740 N   0  0  0  0  0  0  0  0  0  0  0  0
   56.9260   27.1680   45.8080 C   0  0  0  0  0  0  0  0  0  0  0  0
   58.0620   26.3530   45.6660 C   0  0  0  0  0  0  0  0  0  0  0  0
   57.9090   24.9760   45.4950 C   0  0  0  0  0  0  0  0  0  0  0  0
   56.6260   24.4150   45.4770 C   0  0  0  0  0  0  0  0  0  0  0  0
   56.4350   23.0380   45.2990 C   0  0  0  0  0  0  0  0  0  0  0  0
   55.1400   22.5080   45.2810 C   0  0  0  0  0  0  0  0  0  0  0  0
   54.0360   23.3480   45.4460 C   0  0  0  0  0  0  0  0  0  0  0  0
   54.2190   24.7240   45.6250 C   0  0  0  0  0  0  0  0  0  0  0  0
   55.5080   25.2630   45.6370 C   0  0  0  0  0  0  0  0  0  0  0  0
   55.6910   26.6020   45.7950 N   0  0  0  0  0  0  0  0  0  0  0  0
   58.5320   31.3420   46.3720 C   0  0  0  0  0  0  0  0  0  0  0  0
   58.5130   30.2540   47.4160 C   0  0  0  0  0  0  0  0  0  0  0  0
   59.2070   32.5330   46.6860 C   0  0  0  0  0  0  0  0  0  0  0  0
   60.0560   34.9612   47.2002 H   0  0  0  0  0  0  0  0  0  0  0  0
   61.0115   34.8269   45.6851 H   0  0  0  0  0  0  0  0  0  0  0  0
   59.4472   35.7099   45.6851 H   0  0  0  0  0  0  0  0  0  0  0  0
   58.7531   34.2612   43.7863 H   0  0  0  0  0  0  0  0  0  0  0  0
   56.3115   32.0692   42.8724 H   0  0  0  0  0  0  0  0  0  0  0  0
   57.6221   33.1208   42.2377 H   0  0  0  0  0  0  0  0  0  0  0  0
   57.8234   31.3358   42.2377 H   0  0  0  0  0  0  0  0  0  0  0  0
   59.0676   26.7983   45.6895 H   0  0  0  0  0  0  0  0  0  0  0  0
   58.7937   24.3335   45.3747 H   0  0  0  0  0  0  0  0  0  0  0  0
   57.3029   22.3740   45.1735 H   0  0  0  0  0  0  0  0  0  0  0  0
   54.9910   21.4277   45.1366 H   0  0  0  0  0  0  0  0  0  0  0  0
   53.0199   22.9267   45.4352 H   0  0  0  0  0  0  0  0  0  0  0  0
   53.3472   25.3817   45.7564 H   0  0  0  0  0  0  0  0  0  0  0  0
   58.5209   30.7073   48.4182 H   0  0  0  0  0  0  0  0  0  0  0  0
   57.6041   29.6462   47.2957 H   0  0  0  0  0  0  0  0  0  0  0  0
   59.4001   29.6148   47.2957 H   0  0  0  0  0  0  0  0  0  0  0  0
   59.6868   32.6407   47.6700 H   0  0  0  0  0  0  0  0  0  0  0  0
  1  2  1  0
  2  3  2  0
  3  4  1  0
  4  5  1  0
  4  6  2  0
  6  7  1  0
  7  8  2  0
  7  9  2  0
  7 10  1  0
 10 11  1  0
 11 12  2  0
 12 13  1  0
 13 14  2  0
 14 15  1  0
 15 16  2  0
 16 17  1  0
 17 18  2  0
 18 19  1  0
 19 20  2  0
  6 21  1  0
 21 22  1  0
 21 23  2  0
 23  2  1  0
 20 11  1  0
 19 14  1  0
  1 24  1  0
  1 25  1  0
  1 26  1  0
  3 27  1  0
  5 28  1  0
  5 29  1  0
  5 30  1  0
 12 31  1  0
 13 32  1  0
 15 33  1  0
 16 34  1  0
 17 35  1  0
 18 36  1  0
 22 37  1  0
 22 38  1  0
 22 39  1  0
 23 40  1  0
M  CHG  1  10  -1
M  END
>  <UniqueID>  (40) 
38

>  <SMILES>  (40) 
Cc1cc(C)c(S(=O)(=O)[N-]c2ccc3ccccc3n2)c(C)c1

>  <Energy>  (40) 
53.52405460560083

>  <Genealogy>  (40) 
Cc1cc(C)c(S(=O)(=O)[N-]c2ccc3ccccc3n2)c(C)c1 (protonated)
Cc1cc(C)c(S(=O)(=O)[N-]c2ccc3ccccc3n2)c(C)c1 (3D coordinates assigned)
Cc1cc(C)c(S(=O)(=O)[N-]c2ccc3ccccc3n2)c(C)c1 (optimized conformer: 53.52405460560083 kcal/mol)

>  <smiles>  (40) 
Cc1cc(C)c(S(=O)(=O)Nc2ccc3ccccc3n2)c(C)c1

>  <score_type>  (40) 
oracle

>  <origin>  (40) 
adg

>  <m_score__min__energy>  (40) 
-9.9299999999999997

>  <m_primary>  (40) 
energy

$$$$
40:0
     RDKit          3D

 64 66  0  0  0  0  0  0  0  0999 V2000
   57.7760   23.2030   46.5690 C   0  0  0  0  0  0  0  0  0  0  0  0
   58.6680   23.4690   45.3570 C   0  0  0  0  0  0  0  0  0  0  0  0
   57.9190   23.2510   44.0970 N   0  0  0  0  0  0  0  0  0  0  0  0
   57.2760   21.9100   44.0410 C   0  0  0  0  0  0  0  0  0  0  0  0
   56.7270   21.5210   42.6600 C   0  0  0  0  0  0  0  0  0  0  0  0
   57.0010   24.3780   43.7940 C   0  0  0  0  0  0  0  0  0  0  0  0
   55.5560   24.1220   44.2620 C   0  0  0  0  0  0  0  0  0  0  0  0
   55.2530   24.7250   45.6440 C   0  0  0  0  0  0  0  0  0  0  0  0
   55.3430   26.1510   45.6180 O   0  0  0  0  0  0  0  0  0  0  0  0
   56.4450   26.9050   46.0520 C   0  0  0  0  0  0  0  0  0  0  0  0
   57.3160   26.4690   47.0690 C   0  0  0  0  0  0  0  0  0  0  0  0
   58.4020   27.2590   47.4580 C   0  0  0  0  0  0  0  0  0  0  0  0
   58.6290   28.5090   46.8550 C   0  0  0  0  0  0  0  0  0  0  0  0
   59.7620   29.3640   47.2870 C   0  0  0  0  0  0  0  0  0  0  0  0
   60.4740   30.1270   46.3430 C   0  0  0  0  0  0  0  0  0  0  0  0
   61.5190   30.9590   46.7490 C   0  0  0  0  0  0  0  0  0  0  0  0
   61.8930   31.0300   48.0970 C   0  0  0  0  0  0  0  0  0  0  0  0
   62.9480   31.8850   48.4500 O   0  0  0  0  0  0  0  0  0  0  0  0
   62.9520   32.7710   49.5700 C   0  0  0  0  0  0  0  0  0  0  0  0
   62.5250   34.1740   49.1340 C   0  0  0  0  0  0  0  0  0  0  0  0
   61.1070   34.2780   49.2320 O   0  0  0  0  0  0  0  0  0  0  0  0
   60.2600   33.9310   48.1810 C   0  0  0  0  0  0  0  0  0  0  0  0
   59.1430   33.1270   48.4520 C   0  0  0  0  0  0  0  0  0  0  0  0
   58.2750   32.7580   47.4210 C   0  0  0  0  0  0  0  0  0  0  0  0
   58.5010   33.2150   46.1150 C   0  0  0  0  0  0  0  0  0  0  0  0
   57.3820   32.7860   44.8280 Cl  0  0  0  0  0  0  0  0  0  0  0  0
   59.6200   34.0190   45.8400 C   0  0  0  0  0  0  0  0  0  0  0  0
   60.5030   34.3670   46.8680 C   0  0  0  0  0  0  0  0  0  0  0  0
   61.1940   30.2580   49.0440 C   0  0  0  0  0  0  0  0  0  0  0  0
   60.1340   29.4370   48.6410 C   0  0  0  0  0  0  0  0  0  0  0  0
   57.7490   28.9490   45.8510 C   0  0  0  0  0  0  0  0  0  0  0  0
   56.6730   28.1510   45.4530 C   0  0  0  0  0  0  0  0  0  0  0  0
   58.3502   23.3742   47.4915 H   0  0  0  0  0  0  0  0  0  0  0  0
   56.9112   23.8823   46.5440 H   0  0  0  0  0  0  0  0  0  0  0  0
   57.4245   22.1610   46.5440 H   0  0  0  0  0  0  0  0  0  0  0  0
   59.0222   24.5098   45.3909 H   0  0  0  0  0  0  0  0  0  0  0  0
   59.5204   22.7744   45.3862 H   0  0  0  0  0  0  0  0  0  0  0  0
   58.0229   21.1588   44.3373 H   0  0  0  0  0  0  0  0  0  0  0  0
   56.4115   21.9503   44.7200 H   0  0  0  0  0  0  0  0  0  0  0  0
   55.8352   20.8891   42.7846 H   0  0  0  0  0  0  0  0  0  0  0  0
   56.4571   22.4305   42.1033 H   0  0  0  0  0  0  0  0  0  0  0  0
   57.4956   20.9648   42.1033 H   0  0  0  0  0  0  0  0  0  0  0  0
   57.3772   25.2811   44.2969 H   0  0  0  0  0  0  0  0  0  0  0  0
   56.9759   24.4961   42.7006 H   0  0  0  0  0  0  0  0  0  0  0  0
   54.8668   24.5651   43.5281 H   0  0  0  0  0  0  0  0  0  0  0  0
   55.4262   23.0328   44.3441 H   0  0  0  0  0  0  0  0  0  0  0  0
   54.2358   24.4354   45.9464 H   0  0  0  0  0  0  0  0  0  0  0  0
   55.9950   24.3427   46.3605 H   0  0  0  0  0  0  0  0  0  0  0  0
   57.1408   25.5006   47.5605 H   0  0  0  0  0  0  0  0  0  0  0  0
   59.0846   26.8998   48.2423 H   0  0  0  0  0  0  0  0  0  0  0  0
   60.2054   30.0675   45.2780 H   0  0  0  0  0  0  0  0  0  0  0  0
   62.0540   31.5648   46.0028 H   0  0  0  0  0  0  0  0  0  0  0  0
   62.2511   32.3978   50.3313 H   0  0  0  0  0  0  0  0  0  0  0  0
   63.9687   32.8182   49.9873 H   0  0  0  0  0  0  0  0  0  0  0  0
   62.9959   34.9228   49.7878 H   0  0  0  0  0  0  0  0  0  0  0  0
   62.8402   34.3528   48.0954 H   0  0  0  0  0  0  0  0  0  0  0  0
   58.9497   32.7858   49.4797 H   0  0  0  0  0  0  0  0  0  0  0  0
   57.4134   32.1082   47.6343 H   0  0  0  0  0  0  0  0  0  0  0  0
   59.8020   34.3752   44.8153 H   0  0  0  0  0  0  0  0  0  0  0  0
   61.3879   34.9823   46.6479 H   0  0  0  0  0  0  0  0  0  0  0  0
   61.4817   30.2999   50.1049 H   0  0  0  0  0  0  0  0  0  0  0  0
   59.5878   28.8443   49.3896 H   0  0  0  0  0  0  0  0  0  0  0  0
   57.9084   29.9280   45.3754 H   0  0  0  0  0  0  0  0  0  0  0  0
   55.9974   28.5051   44.6605 H   0  0  0  0  0  0  0  0  0  0  0  0
  1  2  1  0
  2  3  1  0
  3  4  1  0
  4  5  1  0
  3  6  1  0
  6  7  1  0
  7  8  1  0
  8  9  1  0
  9 10  1  0
 10 11  2  0
 11 12  1  0
 12 13  2  0
 13 14  1  0
 14 15  2  0
 15 16  1  0
 16 17  2  0
 17 18  1  0
 18 19  1  0
 19 20  1  0
 20 21  1  0
 21 22  1  0
 22 23  2  0
 23 24  1  0
 24 25  2  0
 25 26  1  0
 25 27  1  0
 27 28  2  0
 17 29  1  0
 29 30  2  0
 13 31  1  0
 31 32  2  0
 32 10  1  0
 30 14  1  0
 28 22  1  0
  1 33  1  0
  1 34  1  0
  1 35  1  0
  2 36  1  0
  2 37  1  0
  4 38  1  0
  4 39  1  0
  5 40  1  0
  5 41  1  0
  5 42  1  0
  6 43  1  0
  6 44  1  0
  7 45  1  0
  7 46  1  0
  8 47  1  0
  8 48  1  0
 11 49  1  0
 12 50  1  0
 15 51  1  0
 16 52  1  0
 19 53  1  0
 19 54  1  0
 20 55  1  0
 20 56  1  0
 23 57  1  0
 24 58  1  0
 27 59  1  0
 28 60  1  0
 29 61  1  0
 30 62  1  0
 31 63  1  0
 32 64  1  0
M  END
>  <UniqueID>  (41) 
39

>  <SMILES>  (41) 
CCN(CC)CCCOc1ccc(-c2ccc(OCCOc3ccc(Cl)cc3)cc2)cc1

>  <Energy>  (41) 
73.11001862858421

>  <Genealogy>  (41) 
CCN(CC)CCCOc1ccc(-c2ccc(OCCOc3ccc(Cl)cc3)cc2)cc1 (3D coordinates assigned)
CCN(CC)CCCOc1ccc(-c2ccc(OCCOc3ccc(Cl)cc3)cc2)cc1 (optimized conformer: 73.11001862858421 kcal/mol)

>  <smiles>  (41) 
CCN(CC)CCCOc1ccc(-c2ccc(OCCOc3ccc(Cl)cc3)cc2)cc1

>  <score_type>  (41) 
oracle

>  <origin>  (41) 
adg

>  <m_score__min__energy>  (41) 
-7.4699999999999998

>  <m_primary>  (41) 
energy

$$$$
41:0
     RDKit          3D

 45 47  0  0  0  0  0  0  0  0999 V2000
   60.0240   27.1230   47.8620 C   0  0  0  0  0  0  0  0  0  0  0  0
   59.5110   28.2140   48.6200 O   0  0  0  0  0  0  0  0  0  0  0  0
   59.6820   29.5640   48.2800 C   0  0  0  0  0  0  0  0  0  0  0  0
   58.9370   30.5950   48.8860 C   0  0  0  0  0  0  0  0  0  0  0  0
   59.1430   31.9270   48.5120 C   0  0  0  0  0  0  0  0  0  0  0  0
   60.0910   32.2440   47.5300 C   0  0  0  0  0  0  0  0  0  0  0  0
   60.3770   33.9190   47.0620 S   0  0  0  0  0  0  0  0  0  0  0  0
   60.7380   34.7050   48.2910 O   0  0  0  0  0  0  0  0  0  0  0  0
   61.5230   33.9880   46.0900 O   0  0  0  0  0  0  0  0  0  0  0  0
   58.9200   34.5600   46.3330 N   0  0  0  0  0  0  0  0  0  0  0  0
   57.7000   33.9510   46.9200 C   0  0  0  0  0  0  0  0  0  0  0  0
   56.9870   32.9540   45.9890 C   0  0  0  0  0  0  0  0  0  0  0  0
   57.9660   32.2500   45.1540 N   0  0  0  0  0  0  0  0  0  0  0  0
   57.9600   30.8170   45.0200 C   0  0  0  0  0  0  0  0  0  0  0  0
   59.0910   30.1260   44.5600 C   0  0  0  0  0  0  0  0  0  0  0  0
   59.0390   28.7370   44.4170 C   0  0  0  0  0  0  0  0  0  0  0  0
   57.8560   28.0410   44.7050 C   0  0  0  0  0  0  0  0  0  0  0  0
   57.8020   26.5380   44.6030 C   0  0  0  0  0  0  0  0  0  0  0  0
   58.9050   25.9680   45.2180 F   0  0  0  0  0  0  0  0  0  0  0  0
   56.6630   26.0470   45.2180 F   0  0  0  0  0  0  0  0  0  0  0  0
   57.7890   26.1720   43.2710 F   0  0  0  0  0  0  0  0  0  0  0  0
   56.7490   28.7700   45.1700 C   0  0  0  0  0  0  0  0  0  0  0  0
   56.8240   30.1200   45.3020 N   0  0  0  0  0  0  0  0  0  0  0  0
   58.8950   33.0440   44.3450 C   0  0  0  0  0  0  0  0  0  0  0  0
   58.9700   34.4920   44.8580 C   0  0  0  0  0  0  0  0  0  0  0  0
   60.8360   31.2210   46.9310 C   0  0  0  0  0  0  0  0  0  0  0  0
   60.6300   29.8910   47.3040 C   0  0  0  0  0  0  0  0  0  0  0  0
   60.3910   26.3425   48.5448 H   0  0  0  0  0  0  0  0  0  0  0  0
   59.2259   26.7097   47.2278 H   0  0  0  0  0  0  0  0  0  0  0  0
   60.8514   27.4740   47.2278 H   0  0  0  0  0  0  0  0  0  0  0  0
   58.1904   30.3514   49.6563 H   0  0  0  0  0  0  0  0  0  0  0  0
   58.5594   32.7276   48.9899 H   0  0  0  0  0  0  0  0  0  0  0  0
   57.9867   33.4206   47.8400 H   0  0  0  0  0  0  0  0  0  0  0  0
   56.9930   34.7727   47.1071 H   0  0  0  0  0  0  0  0  0  0  0  0
   56.4342   32.2219   46.5960 H   0  0  0  0  0  0  0  0  0  0  0  0
   56.2916   33.5051   45.3388 H   0  0  0  0  0  0  0  0  0  0  0  0
   60.0124   30.6739   44.3136 H   0  0  0  0  0  0  0  0  0  0  0  0
   59.9292   28.1874   44.0773 H   0  0  0  0  0  0  0  0  0  0  0  0
   55.8173   28.2455   45.4284 H   0  0  0  0  0  0  0  0  0  0  0  0
   59.8960   32.5910   44.3975 H   0  0  0  0  0  0  0  0  0  0  0  0
   58.5334   33.0575   43.3062 H   0  0  0  0  0  0  0  0  0  0  0  0
   59.9126   34.9424   44.5135 H   0  0  0  0  0  0  0  0  0  0  0  0
   58.1004   35.0378   44.4631 H   0  0  0  0  0  0  0  0  0  0  0  0
   61.5859   31.4656   46.1643 H   0  0  0  0  0  0  0  0  0  0  0  0
   61.2181   29.0935   46.8264 H   0  0  0  0  0  0  0  0  0  0  0  0
  1  2  1  0
  2  3  1  0
  3  4  2  0
  4  5  1  0
  5  6  2  0
  6  7  1  0
  7  8  2  0
  7  9  2  0
  7 10  1  0
 10 11  1  0
 11 12  1  0
 12 13  1  0
 13 14  1  0
 14 15  2  0
 15 16  1  0
 16 17  2  0
 17 18  1  0
 18 19  1  0
 18 20  1  0
 18 21  1  0
 17 22  1  0
 22 23  2  0
 13 24  1  0
 24 25  1  0
  6 26  1  0
 26 27  2  0
 27  3  1  0
 25 10  1  0
 23 14  1  0
  1 28  1  0
  1 29  1  0
  1 30  1  0
  4 31  1  0
  5 32  1  0
 11 33  1  0
 11 34  1  0
 12 35  1  0
 12 36  1  0
 15 37  1  0
 16 38  1  0
 22 39  1  0
 24 40  1  0
 24 41  1  0
 25 42  1  0
 25 43  1  0
 26 44  1  0
 27 45  1  0
M  END
>  <UniqueID>  (42) 
40

>  <SMILES>  (42) 
COc1ccc(S(=O)(=O)N2CCN(c3ccc(C(F)(F)F)cn3)CC2)cc1

>  <Energy>  (42) 
56.62351833315563

>  <Genealogy>  (42) 
COc1ccc(S(=O)(=O)N2CCN(c3ccc(C(F)(F)F)cn3)CC2)cc1 (3D coordinates assigned)
COc1ccc(S(=O)(=O)N2CCN(c3ccc(C(F)(F)F)cn3)CC2)cc1 (nonaromatic ring conformer: 56.62351833315563 kcal/mol)

>  <smiles>  (42) 
COc1ccc(S(=O)(=O)N2CCN(c3ccc(C(F)(F)F)cn3)CC2)cc1

>  <score_type>  (42) 
oracle

>  <origin>  (42) 
adg

>  <m_score__min__energy>  (42) 
-6.3499999999999996

>  <m_primary>  (42) 
energy

$$$$
42:0
     RDKit          3D

 66 68  0  0  0  0  0  0  0  0999 V2000
   55.8020   23.1440   43.8720 C   0  0  0  0  0  0  0  0  0  0  0  0
   56.2410   21.7420   43.8410 N   0  0  0  0  0  0  0  0  0  0  0  0
   57.0110   21.4510   42.6180 C   0  0  0  0  0  0  0  0  0  0  0  0
   56.9370   21.3190   45.0820 C   0  0  0  0  0  0  0  0  0  0  0  0
   56.4860   22.0570   46.3550 C   0  0  0  0  0  0  0  0  0  0  0  0
   57.5000   22.9630   46.7840 O   0  0  0  0  0  0  0  0  0  0  0  0
   57.5110   24.3400   46.5110 C   0  0  0  0  0  0  0  0  0  0  0  0
   58.7440   24.9660   46.2860 C   0  0  0  0  0  0  0  0  0  0  0  0
   58.8090   26.3380   46.0220 C   0  0  0  0  0  0  0  0  0  0  0  0
   57.6380   27.1130   46.0120 C   0  0  0  0  0  0  0  0  0  0  0  0
   57.7040   28.5690   45.7730 C   0  0  0  0  0  0  0  0  0  0  0  0
   56.7110   29.2130   45.0200 C   0  0  0  0  0  0  0  0  0  0  0  0
   56.7840   30.5500   44.7910 N   0  0  0  0  0  0  0  0  0  0  0  0
   57.8130   31.3030   45.2580 C   0  0  0  0  0  0  0  0  0  0  0  0
   58.8470   30.7090   46.0030 C   0  0  0  0  0  0  0  0  0  0  0  0
   60.0200   31.5060   46.4420 C   0  0  0  0  0  0  0  0  0  0  0  0
   61.1700   30.8740   46.9520 C   0  0  0  0  0  0  0  0  0  0  0  0
   62.2930   31.6250   47.3130 C   0  0  0  0  0  0  0  0  0  0  0  0
   62.2820   33.0240   47.1760 C   0  0  0  0  0  0  0  0  0  0  0  0
   63.5200   33.8250   47.4660 C   0  0  0  0  0  0  0  0  0  0  0  0
   64.3750   33.0760   48.3920 N   0  0  0  0  0  0  0  0  0  0  0  0
   64.0470   33.3700   49.7960 C   0  0  0  0  0  0  0  0  0  0  0  0
   65.3170   33.4240   50.6740 C   0  0  0  0  0  0  0  0  0  0  0  0
   66.5130   32.7380   50.1190 N   0  0  0  0  0  0  0  0  0  0  0  0
   67.7670   33.4730   50.3690 C   0  0  0  0  0  0  0  0  0  0  0  0
   66.6280   31.3340   50.5600 C   0  0  0  0  0  0  0  0  0  0  0  0
   61.1370   33.6590   46.6730 C   0  0  0  0  0  0  0  0  0  0  0  0
   60.0150   32.9080   46.3140 C   0  0  0  0  0  0  0  0  0  0  0  0
   58.7690   29.3310   46.2740 C   0  0  0  0  0  0  0  0  0  0  0  0
   56.4020   26.4900   46.2360 C   0  0  0  0  0  0  0  0  0  0  0  0
   56.3340   25.1130   46.4650 C   0  0  0  0  0  0  0  0  0  0  0  0
   55.6990   23.4730   44.9166 H   0  0  0  0  0  0  0  0  0  0  0  0
   56.5463   23.7727   43.3613 H   0  0  0  0  0  0  0  0  0  0  0  0
   54.8321   23.2359   43.3613 H   0  0  0  0  0  0  0  0  0  0  0  0
   58.0073   21.0745   42.8929 H   0  0  0  0  0  0  0  0  0  0  0  0
   56.4826   20.6906   42.0243 H   0  0  0  0  0  0  0  0  0  0  0  0
   57.1176   22.3708   42.0243 H   0  0  0  0  0  0  0  0  0  0  0  0
   56.7561   20.2437   45.2269 H   0  0  0  0  0  0  0  0  0  0  0  0
   58.0002   21.5635   44.9410 H   0  0  0  0  0  0  0  0  0  0  0  0
   55.5638   22.6178   46.1425 H   0  0  0  0  0  0  0  0  0  0  0  0
   56.3025   21.3204   47.1511 H   0  0  0  0  0  0  0  0  0  0  0  0
   59.6698   24.3728   46.3173 H   0  0  0  0  0  0  0  0  0  0  0  0
   59.7812   26.8118   45.8214 H   0  0  0  0  0  0  0  0  0  0  0  0
   55.8696   28.6329   44.6132 H   0  0  0  0  0  0  0  0  0  0  0  0
   57.8378   32.3833   45.0524 H   0  0  0  0  0  0  0  0  0  0  0  0
   61.1853   29.7802   47.0675 H   0  0  0  0  0  0  0  0  0  0  0  0
   63.1877   31.1195   47.7054 H   0  0  0  0  0  0  0  0  0  0  0  0
   64.0661   34.0097   46.5292 H   0  0  0  0  0  0  0  0  0  0  0  0
   63.2390   34.7869   47.9196 H   0  0  0  0  0  0  0  0  0  0  0  0
   65.3650   33.3730   48.2230 H   0  0  0  0  0  0  0  0  0  0  0  0
   63.5350   34.3422   49.8476 H   0  0  0  0  0  0  0  0  0  0  0  0
   63.3989   32.5660   50.1750 H   0  0  0  0  0  0  0  0  0  0  0  0
   65.5757   34.4818   50.8296 H   0  0  0  0  0  0  0  0  0  0  0  0
   65.0650   32.8860   51.5998 H   0  0  0  0  0  0  0  0  0  0  0  0
   66.3800   32.7140   49.0770 H   0  0  0  0  0  0  0  0  0  0  0  0
   67.9271   33.5668   51.4532 H   0  0  0  0  0  0  0  0  0  0  0  0
   68.6088   32.9253   49.9201 H   0  0  0  0  0  0  0  0  0  0  0  0
   67.7004   34.4750   49.9201 H   0  0  0  0  0  0  0  0  0  0  0  0
   66.6313   31.2941   51.6593 H   0  0  0  0  0  0  0  0  0  0  0  0
   65.7741   30.7575   50.1747 H   0  0  0  0  0  0  0  0  0  0  0  0
   67.5644   30.9042   50.1747 H   0  0  0  0  0  0  0  0  0  0  0  0
   61.1224   34.7532   46.5607 H   0  0  0  0  0  0  0  0  0  0  0  0
   59.1195   33.4168   45.9278 H   0  0  0  0  0  0  0  0  0  0  0  0
   59.5480   28.8484   46.8825 H   0  0  0  0  0  0  0  0  0  0  0  0
   55.4795   27.0892   46.2315 H   0  0  0  0  0  0  0  0  0  0  0  0
   55.3563   24.6302   46.6101 H   0  0  0  0  0  0  0  0  0  0  0  0
  1  2  1  0
  2  3  1  0
  2  4  1  0
  4  5  1  0
  5  6  1  0
  6  7  1  0
  7  8  2  0
  8  9  1  0
  9 10  2  0
 10 11  1  0
 11 12  2  0
 12 13  1  0
 13 14  2  0
 14 15  1  0
 15 16  1  0
 16 17  2  0
 17 18  1  0
 18 19  2  0
 19 20  1  0
 20 21  1  0
 21 22  1  0
 22 23  1  0
 23 24  1  0
 24 25  1  0
 24 26  1  0
 19 27  1  0
 27 28  2  0
 15 29  2  0
 10 30  1  0
 30 31  2  0
 31  7  1  0
 29 11  1  0
 28 16  1  0
  1 32  1  0
  1 33  1  0
  1 34  1  0
  3 35  1  0
  3 36  1  0
  3 37  1  0
  4 38  1  0
  4 39  1  0
  5 40  1  0
  5 41  1  0
  8 42  1  0
  9 43  1  0
 12 44  1  0
 14 45  1  0
 17 46  1  0
 18 47  1  0
 20 48  1  0
 20 49  1  0
 21 50  1  0
 22 51  1  0
 22 52  1  0
 23 53  1  0
 23 54  1  0
 24 55  1  0
 25 56  1  0
 25 57  1  0
 25 58  1  0
 26 59  1  0
 26 60  1  0
 26 61  1  0
 27 62  1  0
 28 63  1  0
 29 64  1  0
 30 65  1  0
 31 66  1  0
M  CHG  1  24   1
M  END
>  <UniqueID>  (43) 
41

>  <SMILES>  (43) 
CN(C)CCOc1ccc(-c2cncc(-c3ccc(CNCC[NH+](C)C)cc3)c2)cc1

>  <Energy>  (43) 
83.48361942313142

>  <Genealogy>  (43) 
CN(C)CCOc1ccc(-c2cncc(-c3ccc(CNCC[NH+](C)C)cc3)c2)cc1 (protonated)
CN(C)CCOc1ccc(-c2cncc(-c3ccc(CNCC[NH+](C)C)cc3)c2)cc1 (3D coordinates assigned)
CN(C)CCOc1ccc(-c2cncc(-c3ccc(CNCC[NH+](C)C)cc3)c2)cc1 (optimized conformer: 83.48361942313142 kcal/mol)

>  <smiles>  (43) 
CN(C)CCNCc1ccc(-c2cncc(-c3ccc(OCCN(C)C)cc3)c2)cc1

>  <score_type>  (43) 
oracle

>  <origin>  (43) 
adg

>  <m_score__min__energy>  (43) 
-7.3799999999999999

>  <m_primary>  (43) 
energy

$$$$
43:0
     RDKit          3D

 27 29  0  0  0  0  0  0  0  0999 V2000
   60.2200   35.7989   46.9763 H   0  0  0  0  0  0  0  0  0  0  0  0
   59.5140   35.0490   46.5900 C   0  0  0  0  0  0  0  0  0  0  0  0
   59.2660   34.9640   45.2180 C   0  0  0  0  0  0  0  0  0  0  0  0
   59.7832   35.6420   44.5231 H   0  0  0  0  0  0  0  0  0  0  0  0
   58.3610   34.0180   44.7270 C   0  0  0  0  0  0  0  0  0  0  0  0
   58.1826   33.9431   43.6441 H   0  0  0  0  0  0  0  0  0  0  0  0
   57.6800   33.1650   45.6050 C   0  0  0  0  0  0  0  0  0  0  0  0
   56.7840   32.1840   45.0550 N   0  0  0  0  0  0  0  0  0  0  0  0
   57.0370   30.9250   44.8450 C   0  0  0  0  0  0  0  0  0  0  0  0
   56.4540   30.2430   43.8060 N   0  0  0  0  0  0  0  0  0  0  0  0
   56.7300   28.9550   43.5740 N   0  0  0  0  0  0  0  0  0  0  0  0
   56.2710   28.4550   42.7810 H   0  0  0  0  0  0  0  0  0  0  0  0
   57.6130   28.3210   44.3770 C   0  0  0  0  0  0  0  0  0  0  0  0
   58.1260   26.7250   44.3100 S   0  0  0  0  0  0  0  0  0  0  0  0
   59.1690   26.8880   45.6410 C   0  0  0  0  0  0  0  0  0  0  0  0
   59.9610   25.7740   46.2390 C   0  0  0  0  0  0  0  0  0  0  0  0
   59.9148   25.8390   47.3361 H   0  0  0  0  0  0  0  0  0  0  0  0
   59.5441   24.8104   45.9109 H   0  0  0  0  0  0  0  0  0  0  0  0
   61.0081   25.8512   45.9109 H   0  0  0  0  0  0  0  0  0  0  0  0
   59.0980   28.1880   46.1510 C   0  0  0  0  0  0  0  0  0  0  0  0
   59.6662   28.5413   47.0241 H   0  0  0  0  0  0  0  0  0  0  0  0
   58.2180   28.9810   45.4160 C   0  0  0  0  0  0  0  0  0  0  0  0
   57.9340   30.2850   45.6510 N   0  0  0  0  0  0  0  0  0  0  0  0
   57.9570   33.2350   46.9840 C   0  0  0  0  0  0  0  0  0  0  0  0
   57.4580   32.5439   47.6792 H   0  0  0  0  0  0  0  0  0  0  0  0
   58.8640   34.1800   47.4720 C   0  0  0  0  0  0  0  0  0  0  0  0
   59.0668   34.2402   48.5515 H   0  0  0  0  0  0  0  0  0  0  0  0
  1  2  1  0
  2  3  2  0
  3  4  1  0
  3  5  1  0
  5  6  1  0
  5  7  2  0
  7  8  1  0
  8  9  2  0
  9 10  1  0
 10 11  2  0
 11 12  1  0
 11 13  1  0
 13 14  1  0
 14 15  1  0
 15 16  1  0
 16 17  1  0
 16 18  1  0
 16 19  1  0
 15 20  2  0
 20 21  1  0
 20 22  1  0
 22 23  1  0
  7 24  1  0
 24 25  1  0
 24 26  2  0
 26 27  1  0
 26  2  1  0
 23  9  1  0
 22 13  2  0
M  CHG  2  11   1  23  -1
M  END
>  <UniqueID>  (44) 
42

>  <SMILES>  (44) 
Cc1cc2[n-]/c(=N/c3ccccc3)n[nH+]c2s1

>  <Energy>  (44) 
68.87512022914935

>  <Genealogy>  (44) 
Cc1cc2[n-]c(=Nc3ccccc3)n[nH+]c2s1 (protonated)
Cc1cc2[n-]/c(=N/c3ccccc3)n[nH+]c2s1 (cis-trans isomerization)
Cc1cc2[n-]/c(=N/c3ccccc3)n[nH+]c2s1 (3D coordinates assigned)
Cc1cc2[n-]/c(=N/c3ccccc3)n[nH+]c2s1 (optimized conformer: 68.87512022914935 kcal/mol)

>  <smiles>  (44) 
Cc1cc2[nH]c(=Nc3ccccc3)nnc2s1

>  <score_type>  (44) 
oracle

>  <origin>  (44) 
adg

>  <m_score__min__energy>  (44) 
-7.5099999999999998

>  <m_primary>  (44) 
energy

$$$$
44:0
     RDKit          3D

 33 34  0  0  0  0  0  0  0  0999 V2000
   57.6050   33.9270   45.0100 C   0  0  0  0  0  0  0  0  0  0  0  0
   57.9320   33.3500   46.3830 C   0  0  0  0  0  0  0  0  0  0  0  0
   58.9070   32.2540   46.2640 N   0  0  0  0  0  0  0  0  0  0  0  0
   60.3020   32.5070   46.6510 C   0  0  0  0  0  0  0  0  0  0  0  0
   60.5700   34.0060   46.7370 C   0  0  0  0  0  0  0  0  0  0  0  0
   58.4920   30.9660   45.7460 C   0  0  0  0  0  0  0  0  0  0  0  0
   57.2970   30.8260   45.2460 N   0  0  0  0  0  0  0  0  0  0  0  0
   56.6590   29.3160   44.6750 S   0  0  0  0  0  0  0  0  0  0  0  0
   55.1630   29.3410   44.8190 O   0  0  0  0  0  0  0  0  0  0  0  0
   57.0270   29.1180   43.2320 O   0  0  0  0  0  0  0  0  0  0  0  0
   57.3260   28.0120   45.6540 C   0  0  0  0  0  0  0  0  0  0  0  0
   56.5730   26.8610   45.9240 C   0  0  0  0  0  0  0  0  0  0  0  0
   57.0980   25.8550   46.7420 C   0  0  0  0  0  0  0  0  0  0  0  0
   56.3670   24.7440   47.0030 F   0  0  0  0  0  0  0  0  0  0  0  0
   58.3750   25.9980   47.2950 C   0  0  0  0  0  0  0  0  0  0  0  0
   59.1320   27.1420   47.0250 C   0  0  0  0  0  0  0  0  0  0  0  0
   58.6130   28.1450   46.1980 C   0  0  0  0  0  0  0  0  0  0  0  0
   59.5680   29.5660   45.8250 S   0  0  0  0  0  0  0  0  0  0  0  0
   60.3630   29.3540   44.3610 O   0  0  0  0  0  0  0  0  0  0  0  0
   57.0659   34.8782   45.1309 H   0  0  0  0  0  0  0  0  0  0  0  0
   58.5380   34.1024   44.4543 H   0  0  0  0  0  0  0  0  0  0  0  0
   56.9752   33.2167   44.4543 H   0  0  0  0  0  0  0  0  0  0  0  0
   58.3548   34.1430   47.0173 H   0  0  0  0  0  0  0  0  0  0  0  0
   57.0082   32.9564   46.8321 H   0  0  0  0  0  0  0  0  0  0  0  0
   60.4942   32.0482   47.6321 H   0  0  0  0  0  0  0  0  0  0  0  0
   60.9664   32.0702   45.8909 H   0  0  0  0  0  0  0  0  0  0  0  0
   60.6241   34.3088   47.7931 H   0  0  0  0  0  0  0  0  0  0  0  0
   61.5237   34.2371   46.2400 H   0  0  0  0  0  0  0  0  0  0  0  0
   59.7554   34.5532   46.2400 H   0  0  0  0  0  0  0  0  0  0  0  0
   55.5677   26.7486   45.4920 H   0  0  0  0  0  0  0  0  0  0  0  0
   58.7842   25.2091   47.9433 H   0  0  0  0  0  0  0  0  0  0  0  0
   60.1351   27.2538   47.4623 H   0  0  0  0  0  0  0  0  0  0  0  0
   59.6390   29.3450   43.6860 H   0  0  0  0  0  0  0  0  0  0  0  0
  1  2  1  0
  2  3  1  0
  3  4  1  0
  4  5  1  0
  3  6  1  0
  6  7  2  0
  7  8  1  0
  8  9  2  0
  8 10  2  0
  8 11  1  0
 11 12  2  0
 12 13  1  0
 13 14  1  0
 13 15  2  0
 15 16  1  0
 16 17  2  0
 17 18  1  0
 18 19  1  6
 18  6  1  0
 17 11  1  0
  1 20  1  0
  1 21  1  0
  1 22  1  0
  2 23  1  0
  2 24  1  0
  4 25  1  0
  4 26  1  0
  5 27  1  0
  5 28  1  0
  5 29  1  0
 12 30  1  0
 15 31  1  0
 16 32  1  0
 19 33  1  0
M  CHG  1  18   1
M  END
>  <UniqueID>  (45) 
43

>  <SMILES>  (45) 
CCN(CC)C1=NS(=O)(=O)c2cc(F)ccc2[S@@+]1O

>  <Energy>  (45) 
33.393480864917386

>  <Genealogy>  (45) 
CCN(CC)C1=NS(=O)(=O)c2cc(F)ccc2[S+]1O (protonated)
CCN(CC)C1=NS(=O)(=O)c2cc(F)ccc2[S@@+]1O (chirality)
CCN(CC)C1=NS(=O)(=O)c2cc(F)ccc2[S@@+]1O (3D coordinates assigned)
CCN(CC)C1=NS(=O)(=O)c2cc(F)ccc2[S@@+]1O (nonaromatic ring conformer: 33.393480864917386 kcal/mol)

>  <smiles>  (45) 
CCN(CC)C1=NS(=O)(=O)c2cc(F)ccc2[S+]1[O-]

>  <score_type>  (45) 
oracle

>  <origin>  (45) 
adg

>  <m_score__min__energy>  (45) 
-5.6100000000000003

>  <m_primary>  (45) 
energy

$$$$
45:0
     RDKit          3D

 59 63  0  0  0  0  0  0  0  0999 V2000
   63.4040   33.8080   47.4600 C   0  0  0  0  0  0  0  0  0  0  0  0
   61.9690   33.4680   47.2110 C   0  0  0  0  0  0  0  0  0  0  0  0
   61.4110   32.3120   47.7590 C   0  0  0  0  0  0  0  0  0  0  0  0
   60.0570   31.9940   47.5350 C   0  0  0  0  0  0  0  0  0  0  0  0
   59.4890   30.7810   48.2690 C   0  0  0  0  0  0  0  0  0  0  0  0
   59.1230   29.6490   47.3790 N   0  0  0  0  0  0  0  0  0  0  0  0
   59.9830   29.5370   46.1740 C   0  0  0  0  0  0  0  0  0  0  0  0
   59.2830   28.8900   44.9640 C   0  0  0  0  0  0  0  0  0  0  0  0
   59.3170   27.3480   44.9440 C   0  0  0  0  0  0  0  0  0  0  0  0
   58.8850   26.7240   46.2150 N   0  0  0  0  0  0  0  0  0  0  0  0
   58.9110   25.2510   46.1160 C   0  0  0  0  0  0  0  0  0  0  0  0
   57.6460   24.7700   45.4560 C   0  0  0  0  0  0  0  0  0  0  0  0
   57.6950   23.9540   44.3110 C   0  0  0  0  0  0  0  0  0  0  0  0
   56.5130   23.4710   43.7360 C   0  0  0  0  0  0  0  0  0  0  0  0
   55.2790   23.8050   44.2980 C   0  0  0  0  0  0  0  0  0  0  0  0
   55.2260   24.6010   45.4500 C   0  0  0  0  0  0  0  0  0  0  0  0
   56.4010   25.0890   46.0230 C   0  0  0  0  0  0  0  0  0  0  0  0
   53.9830   24.8960   46.0150 O   0  0  0  0  0  0  0  0  0  0  0  0
   52.8030   24.1940   45.6190 C   0  0  0  0  0  0  0  0  0  0  0  0
   52.8260   23.9140   44.1100 C   0  0  0  0  0  0  0  0  0  0  0  0
   54.0840   23.3530   43.7300 O   0  0  0  0  0  0  0  0  0  0  0  0
   59.6530   27.2140   47.3840 C   0  0  0  0  0  0  0  0  0  0  0  0
   58.9040   28.3700   48.0850 C   0  0  0  0  0  0  0  0  0  0  0  0
   59.2980   32.8240   46.6630 C   0  0  0  0  0  0  0  0  0  0  0  0
   57.9710   32.5340   46.2660 C   0  0  0  0  0  0  0  0  0  0  0  0
   57.2640   33.4160   45.4430 C   0  0  0  0  0  0  0  0  0  0  0  0
   57.8710   34.5820   44.9770 C   0  0  0  0  0  0  0  0  0  0  0  0
   59.1970   34.8640   45.3110 C   0  0  0  0  0  0  0  0  0  0  0  0
   59.9150   33.9930   46.1400 C   0  0  0  0  0  0  0  0  0  0  0  0
   61.2130   34.2740   46.4270 N   0  0  0  0  0  0  0  0  0  0  0  0
   63.5878   33.8515   48.5437 H   0  0  0  0  0  0  0  0  0  0  0  0
   64.0469   33.0373   47.0097 H   0  0  0  0  0  0  0  0  0  0  0  0
   63.6327   34.7852   47.0097 H   0  0  0  0  0  0  0  0  0  0  0  0
   62.0340   31.6433   48.3712 H   0  0  0  0  0  0  0  0  0  0  0  0
   60.2442   30.4264   48.9859 H   0  0  0  0  0  0  0  0  0  0  0  0
   58.5611   31.1125   48.7579 H   0  0  0  0  0  0  0  0  0  0  0  0
   60.3085   30.5475   45.8860 H   0  0  0  0  0  0  0  0  0  0  0  0
   60.8248   28.8820   46.4430 H   0  0  0  0  0  0  0  0  0  0  0  0
   58.2302   29.2088   44.9672 H   0  0  0  0  0  0  0  0  0  0  0  0
   59.8353   29.2230   44.0729 H   0  0  0  0  0  0  0  0  0  0  0  0
   58.6515   26.9969   44.1416 H   0  0  0  0  0  0  0  0  0  0  0  0
   60.3642   27.0529   44.7821 H   0  0  0  0  0  0  0  0  0  0  0  0
   59.7789   24.9390   45.5165 H   0  0  0  0  0  0  0  0  0  0  0  0
   58.9866   24.8170   47.1239 H   0  0  0  0  0  0  0  0  0  0  0  0
   58.6665   23.6941   43.8653 H   0  0  0  0  0  0  0  0  0  0  0  0
   56.5565   22.8297   42.8433 H   0  0  0  0  0  0  0  0  0  0  0  0
   56.3523   25.7242   46.9197 H   0  0  0  0  0  0  0  0  0  0  0  0
   52.7493   23.2398   46.1636 H   0  0  0  0  0  0  0  0  0  0  0  0
   51.9247   24.8135   45.8529 H   0  0  0  0  0  0  0  0  0  0  0  0
   52.0222   23.2059   43.8598 H   0  0  0  0  0  0  0  0  0  0  0  0
   52.6768   24.8594   43.5678 H   0  0  0  0  0  0  0  0  0  0  0  0
   59.7907   26.3881   48.0973 H   0  0  0  0  0  0  0  0  0  0  0  0
   60.6284   27.5847   47.0358 H   0  0  0  0  0  0  0  0  0  0  0  0
   57.8272   28.1457   48.0970 H   0  0  0  0  0  0  0  0  0  0  0  0
   59.2896   28.4659   49.1107 H   0  0  0  0  0  0  0  0  0  0  0  0
   57.4909   31.6054   46.6083 H   0  0  0  0  0  0  0  0  0  0  0  0
   56.2249   33.1893   45.1620 H   0  0  0  0  0  0  0  0  0  0  0  0
   57.3038   35.2810   44.3449 H   0  0  0  0  0  0  0  0  0  0  0  0
   59.6791   35.7729   44.9219 H   0  0  0  0  0  0  0  0  0  0  0  0
  1  2  1  0
  2  3  2  0
  3  4  1  0
  4  5  1  0
  5  6  1  0
  6  7  1  0
  7  8  1  0
  8  9  1  0
  9 10  1  0
 10 11  1  0
 11 12  1  0
 12 13  2  0
 13 14  1  0
 14 15  2  0
 15 16  1  0
 16 17  2  0
 16 18  1  0
 18 19  1  0
 19 20  1  0
 20 21  1  0
 10 22  1  0
 22 23  1  0
  4 24  2  0
 24 25  1  0
 25 26  2  0
 26 27  1  0
 27 28  2  0
 28 29  1  0
 29 30  2  0
 30  2  1  0
 23  6  1  0
 29 24  1  0
 17 12  1  0
 21 15  1  0
  1 31  1  0
  1 32  1  0
  1 33  1  0
  3 34  1  0
  5 35  1  0
  5 36  1  0
  7 37  1  0
  7 38  1  0
  8 39  1  0
  8 40  1  0
  9 41  1  0
  9 42  1  0
 11 43  1  0
 11 44  1  0
 13 45  1  0
 14 46  1  0
 17 47  1  0
 19 48  1  0
 19 49  1  0
 20 50  1  0
 20 51  1  0
 22 52  1  0
 22 53  1  0
 23 54  1  0
 23 55  1  0
 25 56  1  0
 26 57  1  0
 27 58  1  0
 28 59  1  0
M  END
>  <UniqueID>  (46) 
44

>  <SMILES>  (46) 
Cc1cc(CN2CCCN(Cc3ccc4c(c3)OCCO4)CC2)c2ccccc2n1

>  <Energy>  (46) 
87.57680466827759

>  <Genealogy>  (46) 
Cc1cc(CN2CCCN(Cc3ccc4c(c3)OCCO4)CC2)c2ccccc2n1 (3D coordinates assigned)
Cc1cc(CN2CCCN(Cc3ccc4c(c3)OCCO4)CC2)c2ccccc2n1 (nonaromatic ring conformer: 87.57680466827759 kcal/mol)

>  <smiles>  (46) 
Cc1cc(CN2CCCN(Cc3ccc4c(c3)OCCO4)CC2)c2ccccc2n1

>  <score_type>  (46) 
oracle

>  <origin>  (46) 
adg

>  <m_score__min__energy>  (46) 
-7.1200000000000001

>  <m_primary>  (46) 
energy

$$$$
46:0
     RDKit          3D

 33 35  0  0  0  0  0  0  0  0999 V2000
   56.8300   30.4040   43.9460 C   0  0  0  0  0  0  0  0  0  0  0  0
   57.0370   31.0560   45.1940 O   0  0  0  0  0  0  0  0  0  0  0  0
   57.7670   32.2450   45.3610 C   0  0  0  0  0  0  0  0  0  0  0  0
   57.4350   33.4240   44.6690 C   0  0  0  0  0  0  0  0  0  0  0  0
   58.1700   34.5910   44.8720 C   0  0  0  0  0  0  0  0  0  0  0  0
   59.2480   34.5960   45.7540 C   0  0  0  0  0  0  0  0  0  0  0  0
   59.6140   33.4290   46.4430 C   0  0  0  0  0  0  0  0  0  0  0  0
   60.7810   33.4710   47.3520 C   0  0  0  0  0  0  0  0  0  0  0  0
   62.0110   32.8660   47.1230 C   0  0  0  0  0  0  0  0  0  0  0  0
   62.7720   33.0940   48.2060 N   0  0  0  0  0  0  0  0  0  0  0  0
   64.0480   32.7140   48.4700 C   0  0  0  0  0  0  0  0  0  0  0  0
   64.6070   33.0730   49.7110 C   0  0  0  0  0  0  0  0  0  0  0  0
   66.0260   32.7160   50.0360 C   0  0  0  0  0  0  0  0  0  0  0  0
   63.8320   33.8310   50.6190 C   0  0  0  0  0  0  0  0  0  0  0  0
   62.5150   34.1990   50.3000 C   0  0  0  0  0  0  0  0  0  0  0  0
   62.0170   33.8030   49.0600 C   0  0  0  0  0  0  0  0  0  0  0  0
   60.7870   34.0520   48.5760 N   0  0  0  0  0  0  0  0  0  0  0  0
   58.8560   32.2490   46.2520 C   0  0  0  0  0  0  0  0  0  0  0  0
   59.1900   30.7840   47.1780 Cl  0  0  0  0  0  0  0  0  0  0  0  0
   56.5015   29.3692   44.1230 H   0  0  0  0  0  0  0  0  0  0  0  0
   56.0582   30.9412   43.3752 H   0  0  0  0  0  0  0  0  0  0  0  0
   57.7703   30.3976   43.3752 H   0  0  0  0  0  0  0  0  0  0  0  0
   56.5908   33.4250   43.9638 H   0  0  0  0  0  0  0  0  0  0  0  0
   57.8977   35.5109   44.3339 H   0  0  0  0  0  0  0  0  0  0  0  0
   59.8181   35.5234   45.9122 H   0  0  0  0  0  0  0  0  0  0  0  0
   62.3060   32.3056   46.2236 H   0  0  0  0  0  0  0  0  0  0  0  0
   64.6300   32.1405   47.7335 H   0  0  0  0  0  0  0  0  0  0  0  0
   66.1550   32.6835   51.1279 H   0  0  0  0  0  0  0  0  0  0  0  0
   66.2630   31.7302   49.6093 H   0  0  0  0  0  0  0  0  0  0  0  0
   66.7013   33.4722   49.6093 H   0  0  0  0  0  0  0  0  0  0  0  0
   64.2646   34.1350   51.5836 H   0  0  0  0  0  0  0  0  0  0  0  0
   61.8988   34.7787   51.0031 H   0  0  0  0  0  0  0  0  0  0  0  0
   60.0030   34.5430   49.0610 H   0  0  0  0  0  0  0  0  0  0  0  0
  1  2  1  0
  2  3  1  0
  3  4  2  0
  4  5  1  0
  5  6  2  0
  6  7  1  0
  7  8  1  0
  8  9  2  0
  9 10  1  0
 10 11  1  0
 11 12  2  0
 12 13  1  0
 12 14  1  0
 14 15  2  0
 15 16  1  0
 16 17  2  0
  7 18  2  0
 18 19  1  0
 18  3  1  0
 17  8  1  0
 16 10  1  0
  1 20  1  0
  1 21  1  0
  1 22  1  0
  4 23  1  0
  5 24  1  0
  6 25  1  0
  9 26  1  0
 11 27  1  0
 13 28  1  0
 13 29  1  0
 13 30  1  0
 14 31  1  0
 15 32  1  0
 17 33  1  0
M  CHG  1  17   1
M  END
>  <UniqueID>  (47) 
45

>  <SMILES>  (47) 
COc1cccc(-c2cn3cc(C)ccc3[nH+]2)c1Cl

>  <Energy>  (47) 
76.15944238146986

>  <Genealogy>  (47) 
COc1cccc(-c2cn3cc(C)ccc3[nH+]2)c1Cl (protonated)
COc1cccc(-c2cn3cc(C)ccc3[nH+]2)c1Cl (3D coordinates assigned)
COc1cccc(-c2cn3cc(C)ccc3[nH+]2)c1Cl (optimized conformer: 76.15944238146986 kcal/mol)

>  <smiles>  (47) 
COc1cccc(-c2cn3cc(C)ccc3n2)c1Cl

>  <score_type>  (47) 
oracle

>  <origin>  (47) 
adg

>  <m_score__min__energy>  (47) 
-5.7800000000000002

>  <m_primary>  (47) 
energy

$$$$
47:0
     RDKit          3D

 33 33  0  0  0  0  0  0  0  0999 V2000
   55.2690   23.0830   47.7710 C   0  0  0  0  0  0  0  0  0  0  0  0
   53.9840   23.3830   47.2410 O   0  0  0  0  0  0  0  0  0  0  0  0
   53.7690   23.6260   45.8820 C   0  0  0  0  0  0  0  0  0  0  0  0
   52.8150   23.0700   45.2710 O   0  0  0  0  0  0  0  0  0  0  0  0
   54.6570   24.5830   45.1540 C   0  0  0  0  0  0  0  0  0  0  0  0
   54.8540   25.7910   45.9460 N   0  0  0  0  0  0  0  0  0  0  0  0
   56.1360   26.2610   46.3810 C   0  0  0  0  0  0  0  0  0  0  0  0
   56.7120   25.7180   47.3620 O   0  0  0  0  0  0  0  0  0  0  0  0
   56.8280   27.3710   45.6450 C   0  0  0  0  0  0  0  0  0  0  0  0
   55.8760   28.3990   45.2370 N   0  0  0  0  0  0  0  0  0  0  0  0
   56.2680   29.6840   44.7470 C   0  0  0  0  0  0  0  0  0  0  0  0
   55.3990   30.5480   44.4500 O   0  0  0  0  0  0  0  0  0  0  0  0
   57.7200   30.0330   44.6690 C   0  0  0  0  0  0  0  0  0  0  0  0
   57.9190   31.4490   45.1350 C   0  0  0  0  0  0  0  0  0  0  0  0
   58.1890   31.7210   46.4870 C   0  0  0  0  0  0  0  0  0  0  0  0
   58.3180   33.0420   46.9260 C   0  0  0  0  0  0  0  0  0  0  0  0
   58.1640   34.1000   46.0250 C   0  0  0  0  0  0  0  0  0  0  0  0
   57.8800   33.8380   44.6820 C   0  0  0  0  0  0  0  0  0  0  0  0
   57.7540   32.5180   44.2370 C   0  0  0  0  0  0  0  0  0  0  0  0
   55.2239   23.0935   48.8700 H   0  0  0  0  0  0  0  0  0  0  0  0
   55.5844   22.0871   47.4265 H   0  0  0  0  0  0  0  0  0  0  0  0
   55.9927   23.8363   47.4265 H   0  0  0  0  0  0  0  0  0  0  0  0
   55.6312   24.1064   44.9702 H   0  0  0  0  0  0  0  0  0  0  0  0
   54.1846   24.8541   44.1983 H   0  0  0  0  0  0  0  0  0  0  0  0
   57.5851   27.8223   46.3032 H   0  0  0  0  0  0  0  0  0  0  0  0
   57.3014   26.9534   44.7442 H   0  0  0  0  0  0  0  0  0  0  0  0
   58.2964   29.3508   45.3112 H   0  0  0  0  0  0  0  0  0  0  0  0
   58.0659   29.9363   43.6293 H   0  0  0  0  0  0  0  0  0  0  0  0
   58.2991   30.8922   47.2018 H   0  0  0  0  0  0  0  0  0  0  0  0
   58.5412   33.2496   47.9829 H   0  0  0  0  0  0  0  0  0  0  0  0
   58.2664   35.1384   46.3732 H   0  0  0  0  0  0  0  0  0  0  0  0
   57.7554   34.6707   43.9742 H   0  0  0  0  0  0  0  0  0  0  0  0
   57.5249   32.3155   43.1803 H   0  0  0  0  0  0  0  0  0  0  0  0
  1  2  1  0
  2  3  1  0
  3  4  2  0
  3  5  1  0
  5  6  1  0
  6  7  1  0
  7  8  2  0
  7  9  1  0
  9 10  1  0
 10 11  1  0
 11 12  2  0
 11 13  1  0
 13 14  1  0
 14 15  2  0
 15 16  1  0
 16 17  2  0
 17 18  1  0
 18 19  2  0
 19 14  1  0
  1 20  1  0
  1 21  1  0
  1 22  1  0
  5 23  1  0
  5 24  1  0
  9 25  1  0
  9 26  1  0
 13 27  1  0
 13 28  1  0
 15 29  1  0
 16 30  1  0
 17 31  1  0
 18 32  1  0
 19 33  1  0
M  CHG  2   6  -1  10  -1
M  END
>  <UniqueID>  (48) 
46

>  <SMILES>  (48) 
COC(=O)C[N-]C(=O)C[N-]C(=O)Cc1ccccc1

>  <Energy>  (48) 
19.577645501458576

>  <Genealogy>  (48) 
COC(=O)C[N-]C(=O)C[N-]C(=O)Cc1ccccc1 (protonated)
COC(=O)C[N-]C(=O)C[N-]C(=O)Cc1ccccc1 (3D coordinates assigned)
COC(=O)C[N-]C(=O)C[N-]C(=O)Cc1ccccc1 (optimized conformer: 19.577645501458576 kcal/mol)

>  <smiles>  (48) 
COC(=O)CNC(=O)CNC(=O)Cc1ccccc1

>  <score_type>  (48) 
oracle

>  <origin>  (48) 
adg

>  <m_score__min__energy>  (48) 
-10.81

>  <m_primary>  (48) 
energy

$$$$
48:0
     RDKit          3D

 50 53  0  0  0  0  0  0  0  0999 V2000
   56.4790   29.9810   52.5680 C   0  0  0  0  0  0  0  0  0  0  0  0
   57.0160   30.1790   51.2640 O   0  0  0  0  0  0  0  0  0  0  0  0
   58.3430   30.5530   50.9990 C   0  0  0  0  0  0  0  0  0  0  0  0
   59.1950   29.7670   50.2000 C   0  0  0  0  0  0  0  0  0  0  0  0
   60.5100   30.1690   49.9620 C   0  0  0  0  0  0  0  0  0  0  0  0
   61.0030   31.3530   50.5280 C   0  0  0  0  0  0  0  0  0  0  0  0
   62.3940   31.7920   50.2750 C   0  0  0  0  0  0  0  0  0  0  0  0
   63.3840   31.2640   51.0480 N   0  0  0  0  0  0  0  0  0  0  0  0
   64.6760   31.6630   50.9290 C   0  0  0  0  0  0  0  0  0  0  0  0
   65.6710   31.1060   51.7390 C   0  0  0  0  0  0  0  0  0  0  0  0
   67.0030   31.5470   51.6280 C   0  0  0  0  0  0  0  0  0  0  0  0
   68.0870   30.9140   52.4650 C   0  0  0  0  0  0  0  0  0  0  0  0
   68.3090   29.6240   52.0220 F   0  0  0  0  0  0  0  0  0  0  0  0
   67.7140   30.8750   53.7980 F   0  0  0  0  0  0  0  0  0  0  0  0
   69.2640   31.6350   52.3670 F   0  0  0  0  0  0  0  0  0  0  0  0
   67.3250   32.5190   50.6630 C   0  0  0  0  0  0  0  0  0  0  0  0
   66.3290   33.0760   49.8530 C   0  0  0  0  0  0  0  0  0  0  0  0
   65.0050   32.6510   49.9860 C   0  0  0  0  0  0  0  0  0  0  0  0
   64.0290   33.1680   49.1970 N   0  0  0  0  0  0  0  0  0  0  0  0
   62.7340   32.7630   49.2980 C   0  0  0  0  0  0  0  0  0  0  0  0
   61.7520   33.3270   48.3450 C   0  0  0  0  0  0  0  0  0  0  0  0
   61.8980   33.0920   46.9690 C   0  0  0  0  0  0  0  0  0  0  0  0
   60.9740   33.6130   46.0600 C   0  0  0  0  0  0  0  0  0  0  0  0
   59.8730   34.3530   46.5150 C   0  0  0  0  0  0  0  0  0  0  0  0
   58.9040   34.9470   45.5360 C   0  0  0  0  0  0  0  0  0  0  0  0
   59.7200   34.5850   47.8900 C   0  0  0  0  0  0  0  0  0  0  0  0
   60.6440   34.0640   48.8000 C   0  0  0  0  0  0  0  0  0  0  0  0
   60.1510   32.1500   51.3060 C   0  0  0  0  0  0  0  0  0  0  0  0
   58.8220   31.7520   51.5510 C   0  0  0  0  0  0  0  0  0  0  0  0
   57.9470   32.5190   52.3370 O   0  0  0  0  0  0  0  0  0  0  0  0
   58.1750   33.8740   52.7090 C   0  0  0  0  0  0  0  0  0  0  0  0
   57.2317   30.2586   53.3206 H   0  0  0  0  0  0  0  0  0  0  0  0
   55.5845   30.6084   52.6953 H   0  0  0  0  0  0  0  0  0  0  0  0
   56.2059   28.9231   52.6953 H   0  0  0  0  0  0  0  0  0  0  0  0
   58.8218   28.8302   49.7606 H   0  0  0  0  0  0  0  0  0  0  0  0
   61.1635   29.5532   49.3266 H   0  0  0  0  0  0  0  0  0  0  0  0
   65.4118   30.3211   52.4648 H   0  0  0  0  0  0  0  0  0  0  0  0
   68.3691   32.8440   50.5442 H   0  0  0  0  0  0  0  0  0  0  0  0
   66.5883   33.8473   49.1128 H   0  0  0  0  0  0  0  0  0  0  0  0
   62.7457   32.4936   46.6039 H   0  0  0  0  0  0  0  0  0  0  0  0
   61.1107   33.4420   44.9820 H   0  0  0  0  0  0  0  0  0  0  0  0
   58.0901   35.4459   46.0825 H   0  0  0  0  0  0  0  0  0  0  0  0
   59.4251   35.6811   44.9038 H   0  0  0  0  0  0  0  0  0  0  0  0
   58.4863   34.1496   44.9038 H   0  0  0  0  0  0  0  0  0  0  0  0
   58.8690   35.1796   48.2536 H   0  0  0  0  0  0  0  0  0  0  0  0
   60.5038   34.2313   49.8781 H   0  0  0  0  0  0  0  0  0  0  0  0
   60.5238   33.0946   51.7289 H   0  0  0  0  0  0  0  0  0  0  0  0
   58.1888   33.9558   53.8059 H   0  0  0  0  0  0  0  0  0  0  0  0
   59.1419   34.2076   52.3043 H   0  0  0  0  0  0  0  0  0  0  0  0
   57.3705   34.5057   52.3043 H   0  0  0  0  0  0  0  0  0  0  0  0
  1  2  1  0
  2  3  1  0
  3  4  2  0
  4  5  1  0
  5  6  2  0
  6  7  1  0
  7  8  2  0
  8  9  1  0
  9 10  2  0
 10 11  1  0
 11 12  1  0
 12 13  1  0
 12 14  1  0
 12 15  1  0
 11 16  2  0
 16 17  1  0
 17 18  2  0
 18 19  1  0
 19 20  2  0
 20 21  1  0
 21 22  2  0
 22 23  1  0
 23 24  2  0
 24 25  1  0
 24 26  1  0
 26 27  2  0
  6 28  1  0
 28 29  2  0
 29 30  1  0
 30 31  1  0
 29  3  1  0
 20  7  1  0
 27 21  1  0
 18  9  1  0
  1 32  1  0
  1 33  1  0
  1 34  1  0
  4 35  1  0
  5 36  1  0
 10 37  1  0
 16 38  1  0
 17 39  1  0
 22 40  1  0
 23 41  1  0
 25 42  1  0
 25 43  1  0
 25 44  1  0
 26 45  1  0
 27 46  1  0
 28 47  1  0
 31 48  1  0
 31 49  1  0
 31 50  1  0
M  END
>  <UniqueID>  (49) 
47

>  <SMILES>  (49) 
COc1ccc(-c2nc3cc(C(F)(F)F)ccc3nc2-c2ccc(C)cc2)cc1OC

>  <Energy>  (49) 
67.9563710495223

>  <Genealogy>  (49) 
COc1ccc(-c2nc3cc(C(F)(F)F)ccc3nc2-c2ccc(C)cc2)cc1OC (3D coordinates assigned)
COc1ccc(-c2nc3cc(C(F)(F)F)ccc3nc2-c2ccc(C)cc2)cc1OC (optimized conformer: 67.9563710495223 kcal/mol)

>  <smiles>  (49) 
COc1ccc(-c2nc3cc(C(F)(F)F)ccc3nc2-c2ccc(C)cc2)cc1OC

>  <score_type>  (49) 
oracle

>  <origin>  (49) 
adg

>  <m_score__min__energy>  (49) 
-7.0700000000000003

>  <m_primary>  (49) 
energy

$$$$
