0:0
     RDKit          3D

 52 55  0  0  0  0  0  0  0  0999 V2000
   60.1800   34.5080   46.4890 C   0  0  0  0  0  0  0  0  0  0  0  0
   58.8550   34.7300   45.9550 N   0  0  0  0  0  0  0  0  0  0  0  0
   57.8550   34.0770   46.7510 C   0  0  0  0  0  0  0  0  0  0  0  0
   57.0180   33.1180   45.9130 C   0  0  0  0  0  0  0  0  0  0  0  0
   57.8370   32.3210   45.1130 N   0  0  0  0  0  0  0  0  0  0  0  0
   57.9650   30.6700   45.4190 S   0  0  0  0  0  0  0  0  0  0  0  0
   56.6220   30.0530   45.2430 O   0  0  0  0  0  0  0  0  0  0  0  0
   58.8360   30.0640   44.3260 O   0  0  0  0  0  0  0  0  0  0  0  0
   58.6850   30.4260   46.9850 C   0  0  0  0  0  0  0  0  0  0  0  0
   58.9930   31.5040   47.8090 C   0  0  0  0  0  0  0  0  0  0  0  0
   59.5850   31.3560   49.0420 C   0  0  0  0  0  0  0  0  0  0  0  0
   59.9040   30.1060   49.5260 C   0  0  0  0  0  0  0  0  0  0  0  0
   59.6060   29.0270   48.7270 C   0  0  0  0  0  0  0  0  0  0  0  0
   59.0030   29.1750   47.4690 C   0  0  0  0  0  0  0  0  0  0  0  0
   58.7220   27.9380   46.7660 C   0  0  0  0  0  0  0  0  0  0  0  0
   59.6650   27.0690   46.2810 C   0  0  0  0  0  0  0  0  0  0  0  0
   59.3370   25.8850   45.6430 C   0  0  0  0  0  0  0  0  0  0  0  0
   58.0330   25.5400   45.4730 C   0  0  0  0  0  0  0  0  0  0  0  0
   57.5730   24.3210   44.8190 C   0  0  0  0  0  0  0  0  0  0  0  0
   57.0100   24.3390   43.5620 C   0  0  0  0  0  0  0  0  0  0  0  0
   56.5870   23.2070   42.9640 N   0  0  0  0  0  0  0  0  0  0  0  0
   56.6940   22.0090   43.5640 C   0  0  0  0  0  0  0  0  0  0  0  0
   56.2880   20.9260   42.9860 N   0  0  0  0  0  0  0  0  0  0  0  0
   57.2590   21.9920   44.8220 C   0  0  0  0  0  0  0  0  0  0  0  0
   57.6770   23.1130   45.4130 N   0  0  0  0  0  0  0  0  0  0  0  0
   57.0710   26.4150   45.9600 C   0  0  0  0  0  0  0  0  0  0  0  0
   55.7390   26.1390   45.8280 F   0  0  0  0  0  0  0  0  0  0  0  0
   57.3940   27.5960   46.5970 C   0  0  0  0  0  0  0  0  0  0  0  0
   58.8630   32.9100   44.3390 C   0  0  0  0  0  0  0  0  0  0  0  0
   58.7940   34.4030   44.5680 C   0  0  0  0  0  0  0  0  0  0  0  0
   60.1382   34.5150   47.5882 H   0  0  0  0  0  0  0  0  0  0  0  0
   60.5565   33.5342   46.1426 H   0  0  0  0  0  0  0  0  0  0  0  0
   60.8534   35.3058   46.1426 H   0  0  0  0  0  0  0  0  0  0  0  0
   58.3497   33.5120   47.5548 H   0  0  0  0  0  0  0  0  0  0  0  0
   57.1878   34.8455   47.1685 H   0  0  0  0  0  0  0  0  0  0  0  0
   56.4287   32.4735   46.5819 H   0  0  0  0  0  0  0  0  0  0  0  0
   56.3510   33.7043   45.2639 H   0  0  0  0  0  0  0  0  0  0  0  0
   58.7527   32.5189   47.4593 H   0  0  0  0  0  0  0  0  0  0  0  0
   59.8064   32.2464   49.6488 H   0  0  0  0  0  0  0  0  0  0  0  0
   60.3773   29.9765   50.5105 H   0  0  0  0  0  0  0  0  0  0  0  0
   59.8482   28.0157   49.0858 H   0  0  0  0  0  0  0  0  0  0  0  0
   60.7280   27.3235   46.4041 H   0  0  0  0  0  0  0  0  0  0  0  0
   60.1330   25.2221   45.2729 H   0  0  0  0  0  0  0  0  0  0  0  0
   56.9031   25.2982   43.0343 H   0  0  0  0  0  0  0  0  0  0  0  0
   56.1640   23.2230   42.0190 H   0  0  0  0  0  0  0  0  0  0  0  0
   56.7740   20.0100   43.1230 H   0  0  0  0  0  0  0  0  0  0  0  0
   57.3675   21.0331   45.3499 H   0  0  0  0  0  0  0  0  0  0  0  0
   56.5996   28.2605   46.9676 H   0  0  0  0  0  0  0  0  0  0  0  0
   59.8432   32.5248   44.6566 H   0  0  0  0  0  0  0  0  0  0  0  0
   58.7338   32.6719   43.2729 H   0  0  0  0  0  0  0  0  0  0  0  0
   59.6393   34.8817   44.0519 H   0  0  0  0  0  0  0  0  0  0  0  0
   57.8332   34.7652   44.1735 H   0  0  0  0  0  0  0  0  0  0  0  0
  1  2  1  0
  2  3  1  0
  3  4  1  0
  4  5  1  0
  5  6  1  0
  6  7  2  0
  6  8  2  0
  6  9  1  0
  9 10  2  0
 10 11  1  0
 11 12  2  0
 12 13  1  0
 13 14  2  0
 14 15  1  0
 15 16  2  0
 16 17  1  0
 17 18  2  0
 18 19  1  0
 19 20  2  0
 20 21  1  0
 21 22  1  0
 22 23  2  3
 22 24  1  0
 24 25  2  0
 18 26  1  0
 26 27  1  0
 26 28  2  0
  5 29  1  0
 29 30  1  0
 30  2  1  0
 14  9  1  0
 28 15  1  0
 25 19  1  0
  1 31  1  0
  1 32  1  0
  1 33  1  0
  3 34  1  0
  3 35  1  0
  4 36  1  0
  4 37  1  0
 10 38  1  0
 11 39  1  0
 12 40  1  0
 13 41  1  0
 16 42  1  0
 17 43  1  0
 20 44  1  0
 21 45  1  0
 23 46  1  0
 24 47  1  0
 28 48  1  0
 29 49  1  0
 29 50  1  0
 30 51  1  0
 30 52  1  0
M  END
>  <smiles>  (1) 
CN1CCN(S(=O)(=O)c2ccccc2-c2ccc(-c3c[nH]c(=N)cn3)c(F)c2)CC1

>  <score_type>  (1) 
oracle

>  <origin>  (1) 
adg

>  <m_score__min__energy>  (1) 
-9.9600000000000009

>  <m_primary>  (1) 
energy

$$$$
1:0
     RDKit          3D

 19 20  0  0  0  0  0  0  0  0999 V2000
   63.0320   33.6040   47.1250 C   0  0  0  0  0  0  0  0  0  0  0  0
   61.8970   33.8270   46.3440 O   0  0  0  0  0  0  0  0  0  0  0  0
   60.6480   33.9890   46.9290 C   0  0  0  0  0  0  0  0  0  0  0  0
   60.4770   34.6110   48.0180 O   0  0  0  0  0  0  0  0  0  0  0  0
   59.4820   33.4150   46.2590 C   0  0  0  0  0  0  0  0  0  0  0  0
   58.6180   34.2030   45.5250 C   0  0  0  0  0  0  0  0  0  0  0  0
   57.5070   33.7010   44.8780 C   0  0  0  0  0  0  0  0  0  0  0  0
   57.2320   32.3360   44.9620 C   0  0  0  0  0  0  0  0  0  0  0  0
   56.2960   31.5360   44.4910 N   0  0  0  0  0  0  0  0  0  0  0  0
   56.5400   30.3400   44.8900 O   0  0  0  0  0  0  0  0  0  0  0  0
   57.6110   30.3090   45.6130 N   0  0  0  0  0  0  0  0  0  0  0  0
   58.0980   31.5580   45.6960 C   0  0  0  0  0  0  0  0  0  0  0  0
   59.2090   32.0650   46.3410 C   0  0  0  0  0  0  0  0  0  0  0  0
   62.7607   33.6573   48.1897 H   0  0  0  0  0  0  0  0  0  0  0  0
   63.4418   32.6082   46.9004 H   0  0  0  0  0  0  0  0  0  0  0  0
   63.7881   34.3708   46.9004 H   0  0  0  0  0  0  0  0  0  0  0  0
   58.8247   35.2810   45.4525 H   0  0  0  0  0  0  0  0  0  0  0  0
   56.8473   34.3683   44.3039 H   0  0  0  0  0  0  0  0  0  0  0  0
   59.8700   31.3988   46.9147 H   0  0  0  0  0  0  0  0  0  0  0  0
  1  2  1  0
  2  3  1  0
  3  4  2  0
  3  5  1  0
  5  6  1  0
  6  7  2  0
  7  8  1  0
  8  9  2  0
  9 10  1  0
 10 11  1  0
 11 12  2  0
 12 13  1  0
 13  5  2  0
 12  8  1  0
  1 14  1  0
  1 15  1  0
  1 16  1  0
  6 17  1  0
  7 18  1  0
 13 19  1  0
M  END
>  <smiles>  (2) 
COC(=O)c1ccc2nonc2c1

>  <score_type>  (2) 
oracle

>  <origin>  (2) 
adg

>  <m_score__min__energy>  (2) 
-5.8300000000000001

>  <m_primary>  (2) 
energy

$$$$
2:0
     RDKit          3D

 51 53  0  0  1  0  0  0  0  0999 V2000
   56.0810   30.1160   43.6220 C   0  0  0  0  0  0  0  0  0  0  0  0
   56.6630   30.5200   44.8700 O   0  0  0  0  0  0  0  0  0  0  0  0
   57.9710   30.1410   45.1490 C   0  0  0  0  0  0  0  0  0  0  0  0
   58.5070   28.9850   44.5850 C   0  0  0  0  0  0  0  0  0  0  0  0
   59.7940   28.5670   44.8300 C   0  0  0  0  0  0  0  0  0  0  0  0
   60.5920   29.3190   45.6660 C   0  0  0  0  0  0  0  0  0  0  0  0
   60.0760   30.4650   46.2320 C   0  0  0  0  0  0  0  0  0  0  0  0
   58.7880   30.9020   46.0000 C   0  0  0  0  0  0  0  0  0  0  0  0
   58.1790   32.0920   46.6240 C   0  0  0  0  0  0  0  0  0  0  0  0
   59.0240   33.1000   47.1420 N   0  0  0  0  0  0  0  0  0  0  0  0
   59.1830   33.0080   48.5900 C   0  0  0  0  0  0  0  0  0  0  0  0
   58.1700   32.3270   49.2130 C   0  0  0  0  0  0  0  0  0  0  0  0
   58.2030   32.1670   50.6030 C   0  0  0  0  0  0  0  0  0  0  0  0
   59.2250   32.6770   51.3660 C   0  0  0  0  0  0  0  0  0  0  0  0
   60.2350   33.3580   50.7370 C   0  0  0  0  0  0  0  0  0  0  0  0
   60.2230   33.5280   49.3680 C   0  0  0  0  0  0  0  0  0  0  0  0
   61.3770   34.3130   48.8420 C   0  0  1  0  0  0  0  0  0  0  0  0
   62.4130   34.5790   49.8610 C   0  0  0  0  0  0  0  0  0  0  0  0
   61.7960   33.6960   47.6220 N   0  0  0  0  0  0  0  0  0  0  0  0
   62.9120   32.8190   47.6010 C   0  0  0  0  0  0  0  0  0  0  0  0
   62.9120   31.5560   48.4240 C   0  0  0  0  0  0  0  0  0  0  0  0
   63.9520   33.0120   46.9240 O   0  0  0  0  0  0  0  0  0  0  0  0
   61.1820   33.8670   46.3250 C   0  0  0  0  0  0  0  0  0  0  0  0
   59.6840   34.1170   46.3720 C   0  0  1  0  0  0  0  0  0  0  0  0
   59.2080   34.3300   44.9760 C   0  0  0  0  0  0  0  0  0  0  0  0
   55.1914   29.4985   43.8151 H   0  0  0  0  0  0  0  0  0  0  0  0
   55.7906   31.0077   43.0471 H   0  0  0  0  0  0  0  0  0  0  0  0
   56.8149   29.5321   43.0471 H   0  0  0  0  0  0  0  0  0  0  0  0
   57.8748   28.3822   43.9165 H   0  0  0  0  0  0  0  0  0  0  0  0
   60.1807   27.6474   44.3665 H   0  0  0  0  0  0  0  0  0  0  0  0
   61.6258   29.0088   45.8782 H   0  0  0  0  0  0  0  0  0  0  0  0
   60.7199   31.0577   46.8985 H   0  0  0  0  0  0  0  0  0  0  0  0
   57.5414   32.5651   45.8626 H   0  0  0  0  0  0  0  0  0  0  0  0
   57.6677   31.6928   47.5124 H   0  0  0  0  0  0  0  0  0  0  0  0
   57.3385   31.9099   48.6259 H   0  0  0  0  0  0  0  0  0  0  0  0
   57.3884   31.6179   51.0979 H   0  0  0  0  0  0  0  0  0  0  0  0
   59.2329   32.5420   52.4577 H   0  0  0  0  0  0  0  0  0  0  0  0
   61.0634   33.7731   51.3299 H   0  0  0  0  0  0  0  0  0  0  0  0
   61.0847   35.3434   48.5913 H   0  0  0  0  0  0  0  0  0  0  0  0
   61.9772   34.4671   50.8648 H   0  0  0  0  0  0  0  0  0  0  0  0
   63.2399   33.8640   49.7385 H   0  0  0  0  0  0  0  0  0  0  0  0
   62.7932   35.6039   49.7385 H   0  0  0  0  0  0  0  0  0  0  0  0
   63.9491   31.2488   48.6242 H   0  0  0  0  0  0  0  0  0  0  0  0
   62.3935   31.7391   49.3767 H   0  0  0  0  0  0  0  0  0  0  0  0
   62.3935   30.7585   47.8717 H   0  0  0  0  0  0  0  0  0  0  0  0
   61.6592   34.7245   45.8280 H   0  0  0  0  0  0  0  0  0  0  0  0
   61.3275   32.9227   45.7799 H   0  0  0  0  0  0  0  0  0  0  0  0
   59.4232   35.0368   46.9160 H   0  0  0  0  0  0  0  0  0  0  0  0
   58.2041   34.7792   44.9954 H   0  0  0  0  0  0  0  0  0  0  0  0
   59.9011   35.0038   44.4511 H   0  0  0  0  0  0  0  0  0  0  0  0
   59.1674   33.3642   44.4511 H   0  0  0  0  0  0  0  0  0  0  0  0
  1  2  1  0
  2  3  1  0
  3  4  2  0
  4  5  1  0
  5  6  2  0
  6  7  1  0
  7  8  2  0
  8  9  1  0
  9 10  1  0
 10 11  1  0
 11 12  2  0
 12 13  1  0
 13 14  2  0
 14 15  1  0
 15 16  2  0
 16 17  1  0
 17 18  1  0
 17 19  1  0
 19 20  1  0
 20 21  1  0
 20 22  2  0
 19 23  1  0
 23 24  1  0
 24 25  1  0
  8  3  1  0
 24 10  1  0
 16 11  1  0
  1 26  1  0
  1 27  1  0
  1 28  1  0
  4 29  1  0
  5 30  1  0
  6 31  1  0
  7 32  1  0
  9 33  1  0
  9 34  1  0
 12 35  1  0
 13 36  1  0
 14 37  1  0
 15 38  1  0
 17 39  1  6
 18 40  1  0
 18 41  1  0
 18 42  1  0
 21 43  1  0
 21 44  1  0
 21 45  1  0
 23 46  1  0
 23 47  1  0
 24 48  1  1
 25 49  1  0
 25 50  1  0
 25 51  1  0
M  END
>  <smiles>  (3) 
COc1ccccc1CN1c2ccccc2C(C)N(C(C)=O)CC1C

>  <score_type>  (3) 
oracle

>  <origin>  (3) 
adg

>  <m_score__min__energy>  (3) 
-7.0300000000000002

>  <m_primary>  (3) 
energy

$$$$
3:0
     RDKit          3D

 49 51  0  0  1  0  0  0  0  0999 V2000
   57.0240   31.2070   42.4290 C   0  0  0  0  0  0  0  0  0  0  0  0
   56.1510   30.0750   42.9940 C   0  0  0  0  0  0  0  0  0  0  0  0
   56.1870   30.2890   44.4400 N   0  0  0  0  0  0  0  0  0  0  0  0
   56.9680   29.6340   45.2140 C   0  0  0  0  0  0  0  0  0  0  0  0
   56.9630   28.2690   45.2370 N   0  0  0  0  0  0  0  0  0  0  0  0
   57.7710   27.5540   46.0250 C   0  0  0  0  0  0  0  0  0  0  0  0
   57.7480   26.0990   46.0370 C   0  0  0  0  0  0  0  0  0  0  0  0
   58.8170   25.3520   45.6020 C   0  0  0  0  0  0  0  0  0  0  0  0
   58.8140   23.9530   45.6200 C   0  0  0  0  0  0  0  0  0  0  0  0
   57.7130   23.2610   46.0870 C   0  0  0  0  0  0  0  0  0  0  0  0
   57.6460   21.7830   46.1300 C   0  0  0  0  0  0  0  0  0  0  0  0
   57.0850   21.1790   44.9680 N   0  0  0  0  0  0  0  0  0  0  0  0
   57.3750   21.8290   43.7330 C   0  0  0  0  0  0  0  0  0  0  0  0
   56.3890   22.8360   43.2930 C   0  0  0  0  0  0  0  0  0  0  0  0
   56.7040   24.0420   42.6190 N   0  0  0  0  0  0  0  0  0  0  0  0
   55.1560   22.6040   43.5390 O   0  0  0  0  0  0  0  0  0  0  0  0
   56.6410   23.9900   46.5230 C   0  0  0  0  0  0  0  0  0  0  0  0
   56.6500   25.3920   46.5010 C   0  0  0  0  0  0  0  0  0  0  0  0
   58.6340   28.2640   46.8410 C   0  0  0  0  0  0  0  0  0  0  0  0
   58.6630   29.6620   46.8410 C   0  0  0  0  0  0  0  0  0  0  0  0
   59.4960   30.3620   47.6290 N   0  0  0  0  0  0  0  0  0  0  0  0
   59.5200   31.7200   47.6280 C   0  0  0  0  0  0  0  0  0  0  0  0
   58.6880   32.3940   46.8160 N   0  0  0  0  0  0  0  0  0  0  0  0
   58.7090   33.8410   46.8040 C   0  0  0  0  0  0  0  0  0  0  0  0
   57.8310   31.7570   46.0040 C   0  0  0  0  0  0  0  0  0  0  0  0
   57.0360   32.3850   45.2290 O   0  0  0  0  0  0  0  0  0  0  0  0
   57.8170   30.3700   46.0170 C   0  0  0  0  0  0  0  0  0  0  0  0
   57.4650   31.7789   43.2587 H   0  0  0  0  0  0  0  0  0  0  0  0
   57.8271   30.7776   41.8120 H   0  0  0  0  0  0  0  0  0  0  0  0
   56.4046   31.8746   41.8120 H   0  0  0  0  0  0  0  0  0  0  0  0
   55.1215   30.1480   42.6134 H   0  0  0  0  0  0  0  0  0  0  0  0
   56.5120   29.0771   42.7045 H   0  0  0  0  0  0  0  0  0  0  0  0
   56.2770   27.8310   44.5840 H   0  0  0  0  0  0  0  0  0  0  0  0
   59.7089   25.8742   45.2254 H   0  0  0  0  0  0  0  0  0  0  0  0
   59.6942   23.4002   45.2599 H   0  0  0  0  0  0  0  0  0  0  0  0
   58.6682   21.3971   46.2573 H   0  0  0  0  0  0  0  0  0  0  0  0
   56.9795   21.5262   46.9665 H   0  0  0  0  0  0  0  0  0  0  0  0
   56.0580   21.0470   45.0590 H   0  0  0  0  0  0  0  0  0  0  0  0
   58.3483   22.3312   43.8357 H   0  0  0  0  0  0  0  0  0  0  0  0
   57.3594   21.0393   42.9674 H   0  0  0  0  0  0  0  0  0  0  0  0
   56.6050   24.9370   43.1890 H   0  0  0  0  0  0  0  0  0  0  0  0
   57.0190   24.0740   41.6070 H   0  0  0  0  0  0  0  0  0  0  0  0
   55.7512   23.4643   46.8996 H   0  0  0  0  0  0  0  0  0  0  0  0
   55.7674   25.9420   46.8594 H   0  0  0  0  0  0  0  0  0  0  0  0
   59.3151   27.7142   47.5072 H   0  0  0  0  0  0  0  0  0  0  0  0
   60.2143   32.2632   48.2860 H   0  0  0  0  0  0  0  0  0  0  0  0
   58.7144   34.2162   47.8380 H   0  0  0  0  0  0  0  0  0  0  0  0
   59.6123   34.1903   46.2824 H   0  0  0  0  0  0  0  0  0  0  0  0
   57.8162   34.2164   46.2824 H   0  0  0  0  0  0  0  0  0  0  0  0
  1  2  1  0
  2  3  1  0
  3  4  2  0
  4  5  1  0
  5  6  1  0
  6  7  1  0
  7  8  2  0
  8  9  1  0
  9 10  2  0
 10 11  1  0
 11 12  1  0
 12 13  1  0
 13 14  1  0
 14 15  1  0
 14 16  2  0
 10 17  1  0
 17 18  2  0
  6 19  2  0
 19 20  1  0
 20 21  1  0
 21 22  2  0
 22 23  1  0
 23 24  1  0
 23 25  1  0
 25 26  2  0
 25 27  1  0
 27  4  1  0
 18  7  1  0
 27 20  2  0
  1 28  1  0
  1 29  1  0
  1 30  1  0
  2 31  1  0
  2 32  1  0
  5 33  1  0
  8 34  1  0
  9 35  1  0
 11 36  1  0
 11 37  1  0
 12 38  1  0
 13 39  1  0
 13 40  1  0
 15 41  1  0
 15 42  1  0
 17 43  1  0
 18 44  1  0
 19 45  1  0
 22 46  1  0
 24 47  1  0
 24 48  1  0
 24 49  1  0
M  END
>  <smiles>  (4) 
CCN=c1[nH]c(-c2ccc(CNCC(N)=O)cc2)cc2ncn(C)c(=O)c12

>  <score_type>  (4) 
oracle

>  <origin>  (4) 
adg

>  <m_score__min__energy>  (4) 
-8.4600000000000009

>  <m_primary>  (4) 
energy

$$$$
4:0
     RDKit          3D

 40 43  0  0  0  0  0  0  0  0999 V2000
   56.1830   30.4550   44.8700 O   0  0  0  0  0  0  0  0  0  0  0  0
   57.1630   29.9470   44.2500 C   0  0  0  0  0  0  0  0  0  0  0  0
   58.0110   30.7980   43.5080 N   0  0  0  0  0  0  0  0  0  0  0  0
   57.8590   32.2210   43.3910 C   0  0  0  0  0  0  0  0  0  0  0  0
   58.3640   32.9930   44.5350 C   0  0  0  0  0  0  0  0  0  0  0  0
   58.8130   34.2740   44.5040 C   0  0  0  0  0  0  0  0  0  0  0  0
   59.2740   34.9510   45.6130 C   0  0  0  0  0  0  0  0  0  0  0  0
   59.2850   34.2990   46.8300 C   0  0  0  0  0  0  0  0  0  0  0  0
   59.7360   34.9280   47.9770 C   0  0  0  0  0  0  0  0  0  0  0  0
   59.7250   34.2300   49.1680 C   0  0  0  0  0  0  0  0  0  0  0  0
   59.2790   32.9250   49.2480 C   0  0  0  0  0  0  0  0  0  0  0  0
   58.8220   32.2830   48.0930 C   0  0  0  0  0  0  0  0  0  0  0  0
   58.8380   32.9930   46.9090 C   0  0  0  0  0  0  0  0  0  0  0  0
   58.3810   32.3450   45.7730 C   0  0  0  0  0  0  0  0  0  0  0  0
   57.3280   28.5100   44.3610 C   0  0  0  0  0  0  0  0  0  0  0  0
   57.7860   27.8160   43.2600 C   0  0  0  0  0  0  0  0  0  0  0  0
   57.9670   26.4280   43.2960 C   0  0  0  0  0  0  0  0  0  0  0  0
   57.6940   25.7020   44.4380 C   0  0  0  0  0  0  0  0  0  0  0  0
   57.8540   24.3720   44.5140 N   0  0  0  0  0  0  0  0  0  0  0  0
   57.5620   23.7510   45.6690 C   0  0  0  0  0  0  0  0  0  0  0  0
   57.1010   24.4060   46.7930 C   0  0  0  0  0  0  0  0  0  0  0  0
   56.9340   25.7610   46.7270 C   0  0  0  0  0  0  0  0  0  0  0  0
   57.2310   26.4070   45.5460 C   0  0  0  0  0  0  0  0  0  0  0  0
   57.0550   27.7860   45.5000 C   0  0  0  0  0  0  0  0  0  0  0  0
   58.8170   30.3230   43.0080 H   0  0  0  0  0  0  0  0  0  0  0  0
   58.4000   32.5497   42.4914 H   0  0  0  0  0  0  0  0  0  0  0  0
   56.7769   32.4129   43.3426 H   0  0  0  0  0  0  0  0  0  0  0  0
   58.8087   34.8018   43.5389 H   0  0  0  0  0  0  0  0  0  0  0  0
   59.6260   35.9898   45.5299 H   0  0  0  0  0  0  0  0  0  0  0  0
   60.0971   35.9664   47.9405 H   0  0  0  0  0  0  0  0  0  0  0  0
   60.0823   34.7282   50.0813 H   0  0  0  0  0  0  0  0  0  0  0  0
   59.2833   32.3954   50.2121 H   0  0  0  0  0  0  0  0  0  0  0  0
   58.4609   31.2445   48.1266 H   0  0  0  0  0  0  0  0  0  0  0  0
   58.0267   31.3062   45.8465 H   0  0  0  0  0  0  0  0  0  0  0  0
   58.0138   28.3648   42.3343 H   0  0  0  0  0  0  0  0  0  0  0  0
   58.3330   25.9071   42.3989 H   0  0  0  0  0  0  0  0  0  0  0  0
   57.6978   22.6607   45.7218 H   0  0  0  0  0  0  0  0  0  0  0  0
   56.8743   23.8529   47.7164 H   0  0  0  0  0  0  0  0  0  0  0  0
   56.5700   26.3246   47.5987 H   0  0  0  0  0  0  0  0  0  0  0  0
   56.6890   28.3107   46.3948 H   0  0  0  0  0  0  0  0  0  0  0  0
  1  2  2  0
  2  3  1  0
  3  4  1  0
  4  5  1  0
  5  6  2  0
  6  7  1  0
  7  8  2  0
  8  9  1  0
  9 10  2  0
 10 11  1  0
 11 12  2  0
 12 13  1  0
 13 14  2  0
  2 15  1  0
 15 16  2  0
 16 17  1  0
 17 18  2  0
 18 19  1  0
 19 20  2  0
 20 21  1  0
 21 22  2  0
 22 23  1  0
 23 24  2  0
 14  5  1  0
 24 15  1  0
 13  8  1  0
 23 18  1  0
  3 25  1  0
  4 26  1  0
  4 27  1  0
  6 28  1  0
  7 29  1  0
  9 30  1  0
 10 31  1  0
 11 32  1  0
 12 33  1  0
 14 34  1  0
 16 35  1  0
 17 36  1  0
 20 37  1  0
 21 38  1  0
 22 39  1  0
 24 40  1  0
M  END
>  <smiles>  (5) 
O=C(NCc1ccc2ccccc2c1)c1ccc2ncccc2c1

>  <score_type>  (5) 
oracle

>  <origin>  (5) 
adg

>  <m_score__min__energy>  (5) 
-8.9000000000000004

>  <m_primary>  (5) 
energy

$$$$
5:0
     RDKit          3D

 45 47  0  0  0  0  0  0  0  0999 V2000
   59.6760   29.7100   46.1130 C   0  0  0  0  0  0  0  0  0  0  0  0
   58.2220   29.3320   46.1400 C   0  0  0  0  0  0  0  0  0  0  0  0
   57.3610   30.3890   45.8300 O   0  0  0  0  0  0  0  0  0  0  0  0
   57.3960   30.9390   44.5580 C   0  0  0  0  0  0  0  0  0  0  0  0
   56.7280   30.3110   43.5320 C   0  0  0  0  0  0  0  0  0  0  0  0
   56.7150   30.7950   42.2470 C   0  0  0  0  0  0  0  0  0  0  0  0
   57.4110   31.9610   42.0110 C   0  0  0  0  0  0  0  0  0  0  0  0
   58.0870   32.5970   43.0510 C   0  0  0  0  0  0  0  0  0  0  0  0
   58.1070   32.1250   44.3380 C   0  0  0  0  0  0  0  0  0  0  0  0
   58.7550   32.6990   45.4260 N   0  0  0  0  0  0  0  0  0  0  0  0
   59.3340   33.9930   45.4810 C   0  0  0  0  0  0  0  0  0  0  0  0
   59.3160   34.7820   44.5100 O   0  0  0  0  0  0  0  0  0  0  0  0
   59.9970   34.4720   46.7220 C   0  0  0  0  0  0  0  0  0  0  0  0
   60.4830   33.4280   47.5570 N   0  0  0  0  0  0  0  0  0  0  0  0
   61.7770   33.0660   47.6650 C   0  0  0  0  0  0  0  0  0  0  0  0
   62.7660   33.8330   46.8360 C   0  0  0  0  0  0  0  0  0  0  0  0
   62.1980   32.0380   48.4970 C   0  0  0  0  0  0  0  0  0  0  0  0
   61.2860   31.3370   49.2560 C   0  0  0  0  0  0  0  0  0  0  0  0
   61.6530   30.3080   50.0980 C   0  0  0  0  0  0  0  0  0  0  0  0
   60.6860   29.6450   50.8330 C   0  0  0  0  0  0  0  0  0  0  0  0
   59.3470   30.0020   50.7350 C   0  0  0  0  0  0  0  0  0  0  0  0
   59.0020   31.0310   49.8920 C   0  0  0  0  0  0  0  0  0  0  0  0
   59.9480   31.7110   49.1450 C   0  0  0  0  0  0  0  0  0  0  0  0
   59.5810   32.7410   48.3030 C   0  0  0  0  0  0  0  0  0  0  0  0
   58.3700   33.0390   48.2370 O   0  0  0  0  0  0  0  0  0  0  0  0
   60.0488   29.8069   47.1433 H   0  0  0  0  0  0  0  0  0  0  0  0
   60.2478   28.9306   45.5879 H   0  0  0  0  0  0  0  0  0  0  0  0
   59.7958   30.6691   45.5879 H   0  0  0  0  0  0  0  0  0  0  0  0
   58.0591   28.5257   45.4097 H   0  0  0  0  0  0  0  0  0  0  0  0
   57.9900   29.0194   47.1688 H   0  0  0  0  0  0  0  0  0  0  0  0
   56.1812   29.3818   43.7504 H   0  0  0  0  0  0  0  0  0  0  0  0
   56.1737   30.2757   41.4425 H   0  0  0  0  0  0  0  0  0  0  0  0
   57.4331   32.3910   40.9988 H   0  0  0  0  0  0  0  0  0  0  0  0
   58.6326   33.5256   42.8275 H   0  0  0  0  0  0  0  0  0  0  0  0
   58.8480   32.1400   46.3300 H   0  0  0  0  0  0  0  0  0  0  0  0
   60.8460   35.1105   46.4365 H   0  0  0  0  0  0  0  0  0  0  0  0
   59.2355   35.0149   47.3011 H   0  0  0  0  0  0  0  0  0  0  0  0
   63.4601   34.3713   47.4981 H   0  0  0  0  0  0  0  0  0  0  0  0
   63.3317   33.1351   46.2012 H   0  0  0  0  0  0  0  0  0  0  0  0
   62.2309   34.5546   46.2012 H   0  0  0  0  0  0  0  0  0  0  0  0
   63.2662   31.7812   48.5509 H   0  0  0  0  0  0  0  0  0  0  0  0
   62.7099   30.0156   50.1849 H   0  0  0  0  0  0  0  0  0  0  0  0
   60.9814   28.8246   51.5036 H   0  0  0  0  0  0  0  0  0  0  0  0
   58.5799   29.4727   51.3193 H   0  0  0  0  0  0  0  0  0  0  0  0
   57.9445   31.3223   49.8086 H   0  0  0  0  0  0  0  0  0  0  0  0
  1  2  1  0
  2  3  1  0
  3  4  1  0
  4  5  2  0
  5  6  1  0
  6  7  2  0
  7  8  1  0
  8  9  2  0
  9 10  1  0
 10 11  1  0
 11 12  2  0
 11 13  1  0
 13 14  1  0
 14 15  1  0
 15 16  1  0
 15 17  2  0
 17 18  1  0
 18 19  2  0
 19 20  1  0
 20 21  2  0
 21 22  1  0
 22 23  2  0
 23 24  1  0
 24 25  2  0
  9  4  1  0
 24 14  1  0
 23 18  1  0
  1 26  1  0
  1 27  1  0
  1 28  1  0
  2 29  1  0
  2 30  1  0
  5 31  1  0
  6 32  1  0
  7 33  1  0
  8 34  1  0
 10 35  1  0
 13 36  1  0
 13 37  1  0
 16 38  1  0
 16 39  1  0
 16 40  1  0
 17 41  1  0
 19 42  1  0
 20 43  1  0
 21 44  1  0
 22 45  1  0
M  END
>  <smiles>  (6) 
CCOc1ccccc1NC(=O)Cn1c(C)cc2ccccc2c1=O

>  <score_type>  (6) 
oracle

>  <origin>  (6) 
adg

>  <m_score__min__energy>  (6) 
-7.6399999999999997

>  <m_primary>  (6) 
energy

$$$$
6:0
     RDKit          3D

 52 55  0  0  0  0  0  0  0  0999 V2000
   57.0150   29.0700   43.3850 C   0  0  0  0  0  0  0  0  0  0  0  0
   57.8690   29.0660   44.5670 C   0  0  0  0  0  0  0  0  0  0  0  0
   58.2810   27.8530   45.1380 C   0  0  0  0  0  0  0  0  0  0  0  0
   57.7960   26.6380   44.6880 C   0  0  0  0  0  0  0  0  0  0  0  0
   58.1740   25.4250   45.2420 C   0  0  0  0  0  0  0  0  0  0  0  0
   59.0700   25.4150   46.2870 C   0  0  0  0  0  0  0  0  0  0  0  0
   59.5770   26.6010   46.7680 C   0  0  0  0  0  0  0  0  0  0  0  0
   59.1740   27.8020   46.1850 C   0  0  0  0  0  0  0  0  0  0  0  0
   59.7110   28.9430   46.7340 C   0  0  0  0  0  0  0  0  0  0  0  0
   59.3150   30.1500   46.1900 C   0  0  0  0  0  0  0  0  0  0  0  0
   59.8830   31.2800   46.7630 C   0  0  0  0  0  0  0  0  0  0  0  0
   60.8050   31.2280   47.8360 N   0  0  0  0  0  0  0  0  0  0  0  0
   62.2160   31.1540   47.5780 C   0  0  0  0  0  0  0  0  0  0  0  0
   63.0640   32.0210   48.4450 C   0  0  0  0  0  0  0  0  0  0  0  0
   63.1000   33.3960   48.1620 N   0  0  0  0  0  0  0  0  0  0  0  0
   62.6600   34.3220   49.1260 C   0  0  0  0  0  0  0  0  0  0  0  0
   63.3840   33.8350   46.8570 C   0  0  0  0  0  0  0  0  0  0  0  0
   59.5150   32.4880   46.2430 C   0  0  0  0  0  0  0  0  0  0  0  0
   60.0890   33.6170   46.7840 C   0  0  0  0  0  0  0  0  0  0  0  0
   59.7960   34.8680   46.3090 C   0  0  0  0  0  0  0  0  0  0  0  0
   58.9050   34.9670   45.2650 C   0  0  0  0  0  0  0  0  0  0  0  0
   58.3260   33.8200   44.7220 C   0  0  0  0  0  0  0  0  0  0  0  0
   58.6190   32.5530   45.2010 C   0  0  0  0  0  0  0  0  0  0  0  0
   58.0500   31.4610   44.6270 N   0  0  0  0  0  0  0  0  0  0  0  0
   57.0390   31.6100   43.6270 C   0  0  0  0  0  0  0  0  0  0  0  0
   58.4130   30.2350   45.1320 C   0  0  0  0  0  0  0  0  0  0  0  0
   55.9596   29.0749   43.6952 H   0  0  0  0  0  0  0  0  0  0  0  0
   57.2248   29.9672   42.7841 H   0  0  0  0  0  0  0  0  0  0  0  0
   57.2164   28.1709   42.7841 H   0  0  0  0  0  0  0  0  0  0  0  0
   57.0789   26.6344   43.8539 H   0  0  0  0  0  0  0  0  0  0  0  0
   57.7632   24.4822   44.8516 H   0  0  0  0  0  0  0  0  0  0  0  0
   59.3805   24.4605   46.7371 H   0  0  0  0  0  0  0  0  0  0  0  0
   60.2925   26.6013   47.6035 H   0  0  0  0  0  0  0  0  0  0  0  0
   60.4247   28.8968   47.5698 H   0  0  0  0  0  0  0  0  0  0  0  0
   60.4130   31.2480   48.8070 H   0  0  0  0  0  0  0  0  0  0  0  0
   62.5347   30.1112   47.7232 H   0  0  0  0  0  0  0  0  0  0  0  0
   62.3586   31.5166   46.5493 H   0  0  0  0  0  0  0  0  0  0  0  0
   62.7007   31.9080   49.4771 H   0  0  0  0  0  0  0  0  0  0  0  0
   64.0917   31.6740   48.2624 H   0  0  0  0  0  0  0  0  0  0  0  0
   62.8503   33.9216   50.1327 H   0  0  0  0  0  0  0  0  0  0  0  0
   63.2041   35.2696   48.9994 H   0  0  0  0  0  0  0  0  0  0  0  0
   61.5817   34.4986   48.9994 H   0  0  0  0  0  0  0  0  0  0  0  0
   63.9810   34.7578   46.9023 H   0  0  0  0  0  0  0  0  0  0  0  0
   63.9507   33.0575   46.3238 H   0  0  0  0  0  0  0  0  0  0  0  0
   62.4425   34.0332   46.3238 H   0  0  0  0  0  0  0  0  0  0  0  0
   60.7995   33.5117   47.6172 H   0  0  0  0  0  0  0  0  0  0  0  0
   60.2581   35.7645   46.7480 H   0  0  0  0  0  0  0  0  0  0  0  0
   58.6481   35.9556   44.8566 H   0  0  0  0  0  0  0  0  0  0  0  0
   57.6156   33.9243   43.8887 H   0  0  0  0  0  0  0  0  0  0  0  0
   56.0621   31.7540   44.1118 H   0  0  0  0  0  0  0  0  0  0  0  0
   57.2695   32.4839   42.9999 H   0  0  0  0  0  0  0  0  0  0  0  0
   57.0076   30.7068   42.9999 H   0  0  0  0  0  0  0  0  0  0  0  0
  1  2  1  0
  2  3  2  0
  3  4  1  0
  4  5  2  0
  5  6  1  0
  6  7  2  0
  7  8  1  0
  8  9  2  0
  9 10  1  0
 10 11  2  0
 11 12  1  0
 12 13  1  0
 13 14  1  0
 14 15  1  0
 15 16  1  0
 15 17  1  0
 11 18  1  0
 18 19  2  0
 19 20  1  0
 20 21  2  0
 21 22  1  0
 22 23  2  0
 23 24  1  0
 24 25  1  0
 24 26  2  0
 26  2  1  0
  8  3  1  0
 26 10  1  0
 23 18  1  0
  1 27  1  0
  1 28  1  0
  1 29  1  0
  4 30  1  0
  5 31  1  0
  6 32  1  0
  7 33  1  0
  9 34  1  0
 12 35  1  0
 13 36  1  0
 13 37  1  0
 14 38  1  0
 14 39  1  0
 16 40  1  0
 16 41  1  0
 16 42  1  0
 17 43  1  0
 17 44  1  0
 17 45  1  0
 19 46  1  0
 20 47  1  0
 21 48  1  0
 22 49  1  0
 25 50  1  0
 25 51  1  0
 25 52  1  0
M  CHG  1  24   1
M  END
>  <smiles>  (7) 
Cc1c2ccccc2cc2c(NCCN(C)C)c3ccccc3[n+](C)c12

>  <score_type>  (7) 
oracle

>  <origin>  (7) 
adg

>  <m_score__min__energy>  (7) 
-6.8200000000000003

>  <m_primary>  (7) 
energy

$$$$
7:0
     RDKit          3D

 43 46  0  0  0  0  0  0  0  0999 V2000
   59.5920   28.1080   44.0680 O   0  0  0  0  0  0  0  0  0  0  0  0
   58.5460   27.5940   43.7500 C   0  0  0  0  0  0  0  0  0  0  0  0
   57.4010   28.4940   43.4460 C   0  0  0  0  0  0  0  0  0  0  0  0
   57.8310   29.8640   43.6430 N   0  0  0  0  0  0  0  0  0  0  0  0
   56.8950   30.7710   44.2090 C   0  0  0  0  0  0  0  0  0  0  0  0
   55.7360   30.3890   44.5250 O   0  0  0  0  0  0  0  0  0  0  0  0
   57.3510   32.1850   44.4070 C   0  0  0  0  0  0  0  0  0  0  0  0
   58.1940   32.2950   45.6270 C   0  0  0  0  0  0  0  0  0  0  0  0
   59.1640   31.3290   45.8140 C   0  0  0  0  0  0  0  0  0  0  0  0
   59.9840   31.3730   46.9310 C   0  0  0  0  0  0  0  0  0  0  0  0
   59.8570   32.3770   47.8850 C   0  0  0  0  0  0  0  0  0  0  0  0
   60.7150   32.3780   49.0030 N   0  0  0  0  0  0  0  0  0  0  0  0
   60.3640   32.0320   50.2630 C   0  0  0  0  0  0  0  0  0  0  0  0
   59.0720   31.5900   50.7700 C   0  0  0  0  0  0  0  0  0  0  0  0
   58.3440   30.4680   50.6360 C   0  0  0  0  0  0  0  0  0  0  0  0
   57.1890   30.4690   51.2810 N   0  0  0  0  0  0  0  0  0  0  0  0
   56.7110   31.2520   51.9230 C   0  0  0  0  0  0  0  0  0  0  0  0
   58.0210   32.6580   51.8710 S   0  0  0  0  0  0  0  0  0  0  0  0
   61.4480   32.1570   51.0520 N   0  0  0  0  0  0  0  0  0  0  0  0
   62.5090   32.5810   50.3330 C   0  0  0  0  0  0  0  0  0  0  0  0
   63.8290   32.8650   50.6500 C   0  0  0  0  0  0  0  0  0  0  0  0
   64.6970   33.2950   49.6460 C   0  0  0  0  0  0  0  0  0  0  0  0
   64.2360   33.4360   48.3470 C   0  0  0  0  0  0  0  0  0  0  0  0
   62.9120   33.1430   48.0710 C   0  0  0  0  0  0  0  0  0  0  0  0
   62.0230   32.7140   49.0400 C   0  0  0  0  0  0  0  0  0  0  0  0
   58.8750   33.3220   47.6600 C   0  0  0  0  0  0  0  0  0  0  0  0
   58.0460   33.3030   46.5580 C   0  0  0  0  0  0  0  0  0  0  0  0
   58.4439   26.5005   43.6875 H   0  0  0  0  0  0  0  0  0  0  0  0
   57.0828   28.3509   42.4028 H   0  0  0  0  0  0  0  0  0  0  0  0
   56.5538   28.2648   44.1091 H   0  0  0  0  0  0  0  0  0  0  0  0
   58.7990   30.2010   43.3850 H   0  0  0  0  0  0  0  0  0  0  0  0
   57.9375   32.5020   43.5321 H   0  0  0  0  0  0  0  0  0  0  0  0
   56.4679   32.8300   44.5258 H   0  0  0  0  0  0  0  0  0  0  0  0
   59.2859   30.5233   45.0751 H   0  0  0  0  0  0  0  0  0  0  0  0
   60.7518   30.5969   47.0657 H   0  0  0  0  0  0  0  0  0  0  0  0
   58.6836   29.6120   50.0343 H   0  0  0  0  0  0  0  0  0  0  0  0
   55.7441   31.2240   52.4468 H   0  0  0  0  0  0  0  0  0  0  0  0
   64.1882   32.7522   51.6836 H   0  0  0  0  0  0  0  0  0  0  0  0
   65.7464   33.5219   49.8854 H   0  0  0  0  0  0  0  0  0  0  0  0
   64.9116   33.7754   47.5480 H   0  0  0  0  0  0  0  0  0  0  0  0
   62.5515   33.2560   47.0379 H   0  0  0  0  0  0  0  0  0  0  0  0
   58.7479   34.1295   48.3961 H   0  0  0  0  0  0  0  0  0  0  0  0
   57.2785   34.0794   46.4231 H   0  0  0  0  0  0  0  0  0  0  0  0
  1  2  2  0
  2  3  1  0
  3  4  1  0
  4  5  1  0
  5  6  2  0
  5  7  1  0
  7  8  1  0
  8  9  2  0
  9 10  1  0
 10 11  2  0
 11 12  1  0
 12 13  1  0
 13 14  1  0
 14 15  2  0
 15 16  1  0
 16 17  2  0
 17 18  1  0
 13 19  2  0
 19 20  1  0
 20 21  2  0
 21 22  1  0
 22 23  2  0
 23 24  1  0
 24 25  2  0
 11 26  1  0
 26 27  2  0
 27  8  1  0
 25 12  1  0
 18 14  1  0
 25 20  1  0
  2 28  1  0
  3 29  1  0
  3 30  1  0
  4 31  1  0
  7 32  1  0
  7 33  1  0
  9 34  1  0
 10 35  1  0
 15 36  1  0
 17 37  1  0
 21 38  1  0
 22 39  1  0
 23 40  1  0
 24 41  1  0
 26 42  1  0
 27 43  1  0
M  END
>  <smiles>  (8) 
O=CCNC(=O)Cc1ccc(-n2c(-c3cncs3)nc3ccccc32)cc1

>  <score_type>  (8) 
oracle

>  <origin>  (8) 
adg

>  <m_score__min__energy>  (8) 
-8.2400000000000002

>  <m_primary>  (8) 
energy

$$$$
8:0
     RDKit          3D

 32 33  0  0  0  0  0  0  0  0999 V2000
   58.5270   31.3910   47.0220 C   0  0  0  0  0  0  0  0  0  0  0  0
   58.9080   32.7820   46.6570 C   0  0  0  0  0  0  0  0  0  0  0  0
   59.6110   33.5770   47.5630 C   0  0  0  0  0  0  0  0  0  0  0  0
   59.9820   34.8780   47.2550 C   0  0  0  0  0  0  0  0  0  0  0  0
   59.6380   35.3610   46.0290 C   0  0  0  0  0  0  0  0  0  0  0  0
   58.9440   34.5900   45.1210 C   0  0  0  0  0  0  0  0  0  0  0  0
   58.5720   33.2950   45.4220 C   0  0  0  0  0  0  0  0  0  0  0  0
   57.8390   32.5030   44.4400 C   0  0  0  0  0  0  0  0  0  0  0  0
   58.0120   32.7090   43.2110 O   0  0  0  0  0  0  0  0  0  0  0  0
   56.9600   31.5330   44.8450 O   0  0  0  0  0  0  0  0  0  0  0  0
   56.5110   30.4700   44.0160 C   0  0  0  0  0  0  0  0  0  0  0  0
   56.5970   29.2290   44.8370 C   0  0  0  0  0  0  0  0  0  0  0  0
   55.5320   28.6650   45.1990 O   0  0  0  0  0  0  0  0  0  0  0  0
   57.8760   28.6810   45.2110 C   0  0  0  0  0  0  0  0  0  0  0  0
   58.9950   29.0870   44.5140 C   0  0  0  0  0  0  0  0  0  0  0  0
   60.2280   28.5560   44.8790 C   0  0  0  0  0  0  0  0  0  0  0  0
   60.3110   27.6460   45.9130 C   0  0  0  0  0  0  0  0  0  0  0  0
   59.1870   27.2830   46.5630 N   0  0  0  0  0  0  0  0  0  0  0  0
   57.9580   27.7640   46.2540 C   0  0  0  0  0  0  0  0  0  0  0  0
   58.5003   31.2936   48.1174 H   0  0  0  0  0  0  0  0  0  0  0  0
   57.5332   31.1627   46.6093 H   0  0  0  0  0  0  0  0  0  0  0  0
   59.2657   30.6882   46.6093 H   0  0  0  0  0  0  0  0  0  0  0  0
   59.8778   33.1618   48.5461 H   0  0  0  0  0  0  0  0  0  0  0  0
   60.5349   35.4979   47.9762 H   0  0  0  0  0  0  0  0  0  0  0  0
   59.9201   36.3889   45.7573 H   0  0  0  0  0  0  0  0  0  0  0  0
   58.6823   35.0137   44.1402 H   0  0  0  0  0  0  0  0  0  0  0  0
   55.4719   30.6463   43.7011 H   0  0  0  0  0  0  0  0  0  0  0  0
   57.1236   30.3887   43.1060 H   0  0  0  0  0  0  0  0  0  0  0  0
   58.9145   29.8120   43.6907 H   0  0  0  0  0  0  0  0  0  0  0  0
   61.1382   28.8621   44.3425 H   0  0  0  0  0  0  0  0  0  0  0  0
   61.2833   27.2215   46.2036 H   0  0  0  0  0  0  0  0  0  0  0  0
   57.0621   27.4424   46.8054 H   0  0  0  0  0  0  0  0  0  0  0  0
  1  2  1  0
  2  3  2  0
  3  4  1  0
  4  5  2  0
  5  6  1  0
  6  7  2  0
  7  8  1  0
  8  9  2  0
  8 10  1  0
 10 11  1  0
 11 12  1  0
 12 13  2  0
 12 14  1  0
 14 15  2  0
 15 16  1  0
 16 17  2  0
 17 18  1  0
 18 19  2  0
  7  2  1  0
 19 14  1  0
  1 20  1  0
  1 21  1  0
  1 22  1  0
  3 23  1  0
  4 24  1  0
  5 25  1  0
  6 26  1  0
 11 27  1  0
 11 28  1  0
 15 29  1  0
 16 30  1  0
 17 31  1  0
 19 32  1  0
M  END
>  <smiles>  (9) 
Cc1ccccc1C(=O)OCC(=O)c1cccnc1

>  <score_type>  (9) 
oracle

>  <origin>  (9) 
adg

>  <m_score__min__energy>  (9) 
-7.0499999999999998

>  <m_primary>  (9) 
energy

$$$$
9:0
     RDKit          3D

 49 49  0  0  1  0  0  0  0  0999 V2000
   56.4530   24.3650   44.6320 C   0  0  0  0  0  0  0  0  0  0  0  0
   57.4630   25.5040   44.8070 C   0  0  0  0  0  0  0  0  0  0  0  0
   56.8530   26.4440   45.7870 C   0  0  0  0  0  0  0  0  0  0  0  0
   57.3210   27.8130   45.6840 N   0  0  0  0  0  0  0  0  0  0  0  0
   58.4570   28.0650   46.4920 C   0  0  0  0  0  0  0  0  0  0  0  0
   59.7340   27.6990   45.8090 C   0  0  0  0  0  0  0  0  0  0  0  0
   60.4900   28.9820   45.3960 C   0  0  0  0  0  0  0  0  0  0  0  0
   57.4080   28.2850   44.3540 C   0  0  0  0  0  0  0  0  0  0  0  0
   56.5660   29.5660   44.1520 C   0  0  1  0  0  0  0  0  0  0  0  0
   55.5430   29.5950   45.0730 O   0  0  0  0  0  0  0  0  0  0  0  0
   57.5090   30.6830   44.4750 C   0  0  0  0  0  0  0  0  0  0  0  0
   57.4120   31.2650   45.7160 O   0  0  0  0  0  0  0  0  0  0  0  0
   58.1510   32.2300   46.3150 C   0  0  0  0  0  0  0  0  0  0  0  0
   58.9120   32.0380   47.4510 C   0  0  0  0  0  0  0  0  0  0  0  0
   58.9490   30.7030   48.1140 C   0  0  0  0  0  0  0  0  0  0  0  0
   59.6580   33.0380   48.0410 C   0  0  0  0  0  0  0  0  0  0  0  0
   59.6680   34.2910   47.5050 C   0  0  0  0  0  0  0  0  0  0  0  0
   58.9270   34.5270   46.3770 C   0  0  0  0  0  0  0  0  0  0  0  0
   58.1760   33.5230   45.7820 C   0  0  0  0  0  0  0  0  0  0  0  0
   57.4140   33.8970   44.5690 C   0  0  0  0  0  0  0  0  0  0  0  0
   56.1327   24.0038   45.6204 H   0  0  0  0  0  0  0  0  0  0  0  0
   55.5786   24.7326   44.0750 H   0  0  0  0  0  0  0  0  0  0  0  0
   56.9226   23.5409   44.0750 H   0  0  0  0  0  0  0  0  0  0  0  0
   58.4162   25.1140   45.1934 H   0  0  0  0  0  0  0  0  0  0  0  0
   57.6792   26.0023   43.8505 H   0  0  0  0  0  0  0  0  0  0  0  0
   55.7639   26.4414   45.6324 H   0  0  0  0  0  0  0  0  0  0  0  0
   57.1486   26.0883   46.7850 H   0  0  0  0  0  0  0  0  0  0  0  0
   58.4835   29.1364   46.7400 H   0  0  0  0  0  0  0  0  0  0  0  0
   58.3701   27.4441   47.3958 H   0  0  0  0  0  0  0  0  0  0  0  0
   60.3603   27.1105   46.4956 H   0  0  0  0  0  0  0  0  0  0  0  0
   59.5096   27.1036   44.9117 H   0  0  0  0  0  0  0  0  0  0  0  0
   60.8101   29.5252   46.2974 H   0  0  0  0  0  0  0  0  0  0  0  0
   61.3728   28.7111   44.7983 H   0  0  0  0  0  0  0  0  0  0  0  0
   59.8252   29.6230   44.7983 H   0  0  0  0  0  0  0  0  0  0  0  0
   58.4598   28.5081   44.1218 H   0  0  0  0  0  0  0  0  0  0  0  0
   57.0165   27.5051   43.6843 H   0  0  0  0  0  0  0  0  0  0  0  0
   56.1365   29.6270   43.1412 H   0  0  0  0  0  0  0  0  0  0  0  0
   55.8360   29.7160   46.0060 H   0  0  0  0  0  0  0  0  0  0  0  0
   58.5310   30.2883   44.3768 H   0  0  0  0  0  0  0  0  0  0  0  0
   57.2400   31.4846   43.7714 H   0  0  0  0  0  0  0  0  0  0  0  0
   58.9453   30.8357   49.2060 H   0  0  0  0  0  0  0  0  0  0  0  0
   58.0667   30.1193   47.8126 H   0  0  0  0  0  0  0  0  0  0  0  0
   59.8623   30.1691   47.8126 H   0  0  0  0  0  0  0  0  0  0  0  0
   60.2457   32.8233   48.9457 H   0  0  0  0  0  0  0  0  0  0  0  0
   60.2583   35.0955   47.9680 H   0  0  0  0  0  0  0  0  0  0  0  0
   58.9273   35.5337   45.9335 H   0  0  0  0  0  0  0  0  0  0  0  0
   56.4625   34.3640   44.8632 H   0  0  0  0  0  0  0  0  0  0  0  0
   58.0024   34.6087   43.9713 H   0  0  0  0  0  0  0  0  0  0  0  0
   57.2109   32.9962   43.9713 H   0  0  0  0  0  0  0  0  0  0  0  0
  1  2  1  0
  2  3  1  0
  3  4  1  0
  4  5  1  0
  5  6  1  0
  6  7  1  0
  4  8  1  0
  8  9  1  0
  9 10  1  0
  9 11  1  0
 11 12  1  0
 12 13  1  0
 13 14  2  0
 14 15  1  0
 14 16  1  0
 16 17  2  0
 17 18  1  0
 18 19  2  0
 19 20  1  0
 19 13  1  0
  1 21  1  0
  1 22  1  0
  1 23  1  0
  2 24  1  0
  2 25  1  0
  3 26  1  0
  3 27  1  0
  5 28  1  0
  5 29  1  0
  6 30  1  0
  6 31  1  0
  7 32  1  0
  7 33  1  0
  7 34  1  0
  8 35  1  0
  8 36  1  0
  9 37  1  6
 10 38  1  0
 11 39  1  0
 11 40  1  0
 15 41  1  0
 15 42  1  0
 15 43  1  0
 16 44  1  0
 17 45  1  0
 18 46  1  0
 20 47  1  0
 20 48  1  0
 20 49  1  0
M  END
>  <smiles>  (10) 
CCCN(CCC)CC(O)COc1c(C)cccc1C

>  <score_type>  (10) 
oracle

>  <origin>  (10) 
adg

>  <m_score__min__energy>  (10) 
-6.8399999999999999

>  <m_primary>  (10) 
energy

$$$$
10:0
     RDKit          3D

 55 57  0  0  1  0  0  0  0  0999 V2000
   61.9320   29.8600   50.5260 C   0  0  0  0  0  0  0  0  0  0  0  0
   60.4990   30.1750   50.1240 C   0  0  0  0  0  0  0  0  0  0  0  0
   59.7480   29.0030   49.9150 O   0  0  0  0  0  0  0  0  0  0  0  0
   60.2000   27.9330   49.1630 C   0  0  0  0  0  0  0  0  0  0  0  0
   60.5980   26.8790   49.7510 O   0  0  0  0  0  0  0  0  0  0  0  0
   60.2550   27.9200   47.7470 N   0  0  0  0  0  0  0  0  0  0  0  0
   60.7540   26.7090   47.1190 C   0  0  0  0  0  0  0  0  0  0  0  0
   59.7670   26.2410   46.0680 C   0  0  0  0  0  0  0  0  0  0  0  0
   59.3100   27.3470   45.2450 N   0  0  0  0  0  0  0  0  0  0  0  0
   58.3150   27.0550   44.2670 C   0  0  0  0  0  0  0  0  0  0  0  0
   57.9380   25.8330   44.2380 O   0  0  0  0  0  0  0  0  0  0  0  0
   57.7750   28.0870   43.3700 C   0  0  0  0  0  0  0  0  0  0  0  0
   56.8810   29.0070   44.1550 C   0  0  0  0  0  0  0  0  0  0  0  0
   56.5340   30.2900   43.4630 C   0  0  0  0  0  0  0  0  0  0  0  0
   57.4530   31.3200   44.0110 N   0  0  0  0  0  0  0  0  0  0  0  0
   57.8180   31.3910   45.3300 C   0  0  0  0  0  0  0  0  0  0  0  0
   57.4030   30.5700   46.2360 O   0  0  0  0  0  0  0  0  0  0  0  0
   58.7190   32.4650   45.6760 C   0  0  0  0  0  0  0  0  0  0  0  0
   59.3840   32.6750   46.7970 C   0  0  0  0  0  0  0  0  0  0  0  0
   60.8280   32.7630   46.8770 C   0  0  0  0  0  0  0  0  0  0  0  0
   61.5400   31.7020   47.4420 C   0  0  0  0  0  0  0  0  0  0  0  0
   62.9150   31.7150   47.5470 C   0  0  0  0  0  0  0  0  0  0  0  0
   63.6360   32.8040   47.0840 C   0  0  0  0  0  0  0  0  0  0  0  0
   62.9380   33.8440   46.5310 C   0  0  0  0  0  0  0  0  0  0  0  0
   61.5650   33.8360   46.4240 C   0  0  0  0  0  0  0  0  0  0  0  0
   58.7800   33.5400   44.2230 S   0  0  0  0  0  0  0  0  0  0  0  0
   58.0060   32.3040   43.1670 C   0  0  0  0  0  0  0  0  0  0  0  0
   57.9710   32.3500   41.5180 S   0  0  0  0  0  0  0  0  0  0  0  0
   59.8830   28.6350   45.4710 C   0  0  0  0  0  0  0  0  0  0  0  0
   59.8430   29.0400   46.9260 C   0  0  0  0  0  0  0  0  0  0  0  0
   62.0097   29.8429   51.6231 H   0  0  0  0  0  0  0  0  0  0  0  0
   62.2184   28.8775   50.1228 H   0  0  0  0  0  0  0  0  0  0  0  0
   62.6040   30.6319   50.1228 H   0  0  0  0  0  0  0  0  0  0  0  0
   60.0257   30.7641   50.9234 H   0  0  0  0  0  0  0  0  0  0  0  0
   60.5235   30.7398   49.1804 H   0  0  0  0  0  0  0  0  0  0  0  0
   61.7246   26.9153   46.6444 H   0  0  0  0  0  0  0  0  0  0  0  0
   60.8775   25.9251   47.8808 H   0  0  0  0  0  0  0  0  0  0  0  0
   60.2552   25.4936   45.4253 H   0  0  0  0  0  0  0  0  0  0  0  0
   58.8960   25.8047   46.5789 H   0  0  0  0  0  0  0  0  0  0  0  0
   58.6031   28.6639   42.9324 H   0  0  0  0  0  0  0  0  0  0  0  0
   57.1979   27.6104   42.5639 H   0  0  0  0  0  0  0  0  0  0  0  0
   55.9450   28.4714   44.3717 H   0  0  0  0  0  0  0  0  0  0  0  0
   57.4420   29.2856   45.0593 H   0  0  0  0  0  0  0  0  0  0  0  0
   56.6792   30.1887   42.3773 H   0  0  0  0  0  0  0  0  0  0  0  0
   55.4816   30.5630   43.6303 H   0  0  0  0  0  0  0  0  0  0  0  0
   58.8069   32.7901   47.7264 H   0  0  0  0  0  0  0  0  0  0  0  0
   60.9859   30.8280   47.8151 H   0  0  0  0  0  0  0  0  0  0  0  0
   63.4398   30.8602   47.9986 H   0  0  0  0  0  0  0  0  0  0  0  0
   64.7331   32.8320   47.1583 H   0  0  0  0  0  0  0  0  0  0  0  0
   63.4938   34.7173   46.1588 H   0  0  0  0  0  0  0  0  0  0  0  0
   61.0503   34.6964   45.9715 H   0  0  0  0  0  0  0  0  0  0  0  0
   60.9314   28.6177   45.1385 H   0  0  0  0  0  0  0  0  0  0  0  0
   59.2904   29.3681   44.9041 H   0  0  0  0  0  0  0  0  0  0  0  0
   60.5257   29.8867   47.0905 H   0  0  0  0  0  0  0  0  0  0  0  0
   58.8195   29.3383   47.1971 H   0  0  0  0  0  0  0  0  0  0  0  0
  1  2  1  0
  2  3  1  0
  3  4  1  0
  4  5  2  0
  4  6  1  0
  6  7  1  0
  7  8  1  0
  8  9  1  0
  9 10  1  0
 10 11  2  0
 10 12  1  0
 12 13  1  0
 13 14  1  0
 14 15  1  0
 15 16  1  0
 16 17  2  0
 16 18  1  0
 18 19  2  0
 19 20  1  0
 20 21  2  0
 21 22  1  0
 22 23  2  0
 23 24  1  0
 24 25  2  0
 18 26  1  0
 26 27  1  0
 27 28  2  0
  9 29  1  0
 29 30  1  0
 30  6  1  0
 27 15  1  0
 25 20  1  0
  1 31  1  0
  1 32  1  0
  1 33  1  0
  2 34  1  0
  2 35  1  0
  7 36  1  0
  7 37  1  0
  8 38  1  0
  8 39  1  0
 12 40  1  0
 12 41  1  0
 13 42  1  0
 13 43  1  0
 14 44  1  0
 14 45  1  0
 19 46  1  0
 21 47  1  0
 22 48  1  0
 23 49  1  0
 24 50  1  0
 25 51  1  0
 29 52  1  0
 29 53  1  0
 30 54  1  0
 30 55  1  0
M  END
>  <smiles>  (11) 
CCOC(=O)N1CCN(C(=O)CCCN2C(=O)C(=Cc3ccccc3)SC2=S)CC1

>  <score_type>  (11) 
oracle

>  <origin>  (11) 
adg

>  <m_score__min__energy>  (11) 
-8.8200000000000003

>  <m_primary>  (11) 
energy

$$$$
11:0
     RDKit          3D

 43 45  0  0  0  0  0  0  0  0999 V2000
   68.0350   27.2970   49.8370 C   0  0  0  0  0  0  0  0  0  0  0  0
   67.8490   28.6030   50.1800 O   0  0  0  0  0  0  0  0  0  0  0  0
   66.9660   28.8810   51.1960 C   0  0  0  0  0  0  0  0  0  0  0  0
   67.1320   30.1860   51.8860 C   0  0  0  0  0  0  0  0  0  0  0  0
   66.6730   31.3260   51.2830 O   0  0  0  0  0  0  0  0  0  0  0  0
   65.5060   31.6280   50.6430 C   0  0  0  0  0  0  0  0  0  0  0  0
   65.5460   32.6840   49.7250 C   0  0  0  0  0  0  0  0  0  0  0  0
   64.4500   33.0820   49.0250 C   0  0  0  0  0  0  0  0  0  0  0  0
   63.2430   32.4530   49.1950 C   0  0  0  0  0  0  0  0  0  0  0  0
   62.0450   32.8840   48.4320 C   0  0  0  0  0  0  0  0  0  0  0  0
   61.6820   34.2180   48.3850 C   0  0  0  0  0  0  0  0  0  0  0  0
   60.1810   34.2320   47.3490 S   0  0  0  0  0  0  0  0  0  0  0  0
   60.2640   32.3220   47.1140 C   0  0  0  0  0  0  0  0  0  0  0  0
   59.2340   31.6990   46.3060 C   0  0  0  0  0  0  0  0  0  0  0  0
   58.3370   32.4450   45.5840 C   0  0  0  0  0  0  0  0  0  0  0  0
   57.3820   31.7900   44.8350 C   0  0  0  0  0  0  0  0  0  0  0  0
   57.3390   30.4100   44.8210 C   0  0  0  0  0  0  0  0  0  0  0  0
   56.3210   29.7710   44.0230 C   0  0  0  0  0  0  0  0  0  0  0  0
   56.4810   29.5270   42.6240 N   0  0  0  0  0  0  0  0  0  0  0  0
   55.2340   29.3980   44.5330 O   0  0  0  0  0  0  0  0  0  0  0  0
   58.2390   29.6650   45.5460 C   0  0  0  0  0  0  0  0  0  0  0  0
   59.1840   30.3310   46.2850 C   0  0  0  0  0  0  0  0  0  0  0  0
   61.2840   32.0680   47.7800 N   0  0  0  0  0  0  0  0  0  0  0  0
   63.1880   31.4100   50.0960 C   0  0  0  0  0  0  0  0  0  0  0  0
   64.2970   31.0090   50.8040 C   0  0  0  0  0  0  0  0  0  0  0  0
   68.1218   26.6873   50.7485 H   0  0  0  0  0  0  0  0  0  0  0  0
   67.1775   26.9482   49.2429 H   0  0  0  0  0  0  0  0  0  0  0  0
   68.9558   27.2015   49.2429 H   0  0  0  0  0  0  0  0  0  0  0  0
   65.9513   28.8548   50.7721 H   0  0  0  0  0  0  0  0  0  0  0  0
   67.1623   28.1201   51.9657 H   0  0  0  0  0  0  0  0  0  0  0  0
   66.6160   30.1050   52.8541 H   0  0  0  0  0  0  0  0  0  0  0  0
   68.2224   30.3280   51.9157 H   0  0  0  0  0  0  0  0  0  0  0  0
   66.4981   33.2108   49.5640 H   0  0  0  0  0  0  0  0  0  0  0  0
   64.5324   33.9177   48.3145 H   0  0  0  0  0  0  0  0  0  0  0  0
   62.1830   35.0731   48.8623 H   0  0  0  0  0  0  0  0  0  0  0  0
   58.3787   33.5441   45.6022 H   0  0  0  0  0  0  0  0  0  0  0  0
   56.6533   32.3680   44.2477 H   0  0  0  0  0  0  0  0  0  0  0  0
   55.6720   29.8300   42.0220 H   0  0  0  0  0  0  0  0  0  0  0  0
   57.3400   29.0840   42.2590 H   0  0  0  0  0  0  0  0  0  0  0  0
   58.2024   28.5657   45.5339 H   0  0  0  0  0  0  0  0  0  0  0  0
   59.9150   29.7551   46.8715 H   0  0  0  0  0  0  0  0  0  0  0  0
   62.2336   30.8859   50.2522 H   0  0  0  0  0  0  0  0  0  0  0  0
   64.2098   30.1735   51.5141 H   0  0  0  0  0  0  0  0  0  0  0  0
  1  2  1  0
  2  3  1  0
  3  4  1  0
  4  5  1  0
  5  6  1  0
  6  7  2  0
  7  8  1  0
  8  9  2  0
  9 10  1  0
 10 11  2  0
 11 12  1  0
 12 13  1  0
 13 14  1  0
 14 15  2  0
 15 16  1  0
 16 17  2  0
 17 18  1  0
 18 19  1  0
 18 20  2  0
 17 21  1  0
 21 22  2  0
 13 23  2  0
  9 24  1  0
 24 25  2  0
 25  6  1  0
 23 10  1  0
 22 14  1  0
  1 26  1  0
  1 27  1  0
  1 28  1  0
  3 29  1  0
  3 30  1  0
  4 31  1  0
  4 32  1  0
  7 33  1  0
  8 34  1  0
 11 35  1  0
 15 36  1  0
 16 37  1  0
 19 38  1  0
 19 39  1  0
 21 40  1  0
 22 41  1  0
 24 42  1  0
 25 43  1  0
M  END
>  <smiles>  (12) 
COCCOc1ccc(-c2csc(-c3ccc(C(N)=O)cc3)n2)cc1

>  <score_type>  (12) 
oracle

>  <origin>  (12) 
adg

>  <m_score__min__energy>  (12) 
-7.5300000000000002

>  <m_primary>  (12) 
energy

$$$$
12:0
     RDKit          3D

 30 31  0  0  0  0  0  0  0  0999 V2000
   63.3920   32.7150   47.2360 C   0  0  0  0  0  0  0  0  0  0  0  0
   62.2600   33.5830   46.7410 C   0  0  0  0  0  0  0  0  0  0  0  0
   61.0670   33.3560   47.6670 C   0  0  0  0  0  0  0  0  0  0  0  0
   59.9350   32.8290   46.9350 N   0  0  0  0  0  0  0  0  0  0  0  0
   59.0490   33.6710   46.3620 C   0  0  0  0  0  0  0  0  0  0  0  0
   59.2730   34.9180   46.5050 O   0  0  0  0  0  0  0  0  0  0  0  0
   57.9770   33.2340   45.6680 N   0  0  0  0  0  0  0  0  0  0  0  0
   57.0760   34.2170   45.0840 C   0  0  0  0  0  0  0  0  0  0  0  0
   57.7460   31.8970   45.5190 C   0  0  0  0  0  0  0  0  0  0  0  0
   56.7390   31.4850   44.8670 O   0  0  0  0  0  0  0  0  0  0  0  0
   58.6450   31.0210   46.1020 C   0  0  0  0  0  0  0  0  0  0  0  0
   59.7380   31.5000   46.8090 C   0  0  0  0  0  0  0  0  0  0  0  0
   60.4250   30.4180   47.2540 N   0  0  0  0  0  0  0  0  0  0  0  0
   59.7960   29.3040   46.8470 C   0  0  0  0  0  0  0  0  0  0  0  0
   60.3570   27.5020   47.2110 Br  0  0  0  0  0  0  0  0  0  0  0  0
   58.7170   29.6850   46.1490 N   0  0  0  0  0  0  0  0  0  0  0  0
   57.7340   28.8180   45.5130 C   0  0  0  0  0  0  0  0  0  0  0  0
   63.3971   32.7111   48.3360 H   0  0  0  0  0  0  0  0  0  0  0  0
   63.2553   31.6880   46.8663 H   0  0  0  0  0  0  0  0  0  0  0  0
   64.3483   33.1135   46.8663 H   0  0  0  0  0  0  0  0  0  0  0  0
   62.5593   34.6412   46.7670 H   0  0  0  0  0  0  0  0  0  0  0  0
   61.9994   33.3248   45.7040 H   0  0  0  0  0  0  0  0  0  0  0  0
   61.3522   32.6405   48.4523 H   0  0  0  0  0  0  0  0  0  0  0  0
   60.7792   34.3206   48.1105 H   0  0  0  0  0  0  0  0  0  0  0  0
   56.5679   34.7713   45.8869 H   0  0  0  0  0  0  0  0  0  0  0  0
   57.6517   34.9181   44.4619 H   0  0  0  0  0  0  0  0  0  0  0  0
   56.3275   33.7044   44.4619 H   0  0  0  0  0  0  0  0  0  0  0  0
   57.1471   28.3003   46.2860 H   0  0  0  0  0  0  0  0  0  0  0  0
   57.0623   29.4231   44.8864 H   0  0  0  0  0  0  0  0  0  0  0  0
   58.2505   28.0759   44.8864 H   0  0  0  0  0  0  0  0  0  0  0  0
  1  2  1  0
  2  3  1  0
  3  4  1  0
  4  5  1  0
  5  6  2  0
  5  7  1  0
  7  8  1  0
  7  9  1  0
  9 10  2  0
  9 11  1  0
 11 12  2  0
 12 13  1  0
 13 14  2  0
 14 15  1  0
 14 16  1  0
 16 17  1  0
 12  4  1  0
 16 11  1  0
  1 18  1  0
  1 19  1  0
  1 20  1  0
  2 21  1  0
  2 22  1  0
  3 23  1  0
  3 24  1  0
  8 25  1  0
  8 26  1  0
  8 27  1  0
 17 28  1  0
 17 29  1  0
 17 30  1  0
M  END
>  <smiles>  (13) 
CCCn1c(=O)n(C)c(=O)c2c1nc(Br)n2C

>  <score_type>  (13) 
oracle

>  <origin>  (13) 
adg

>  <m_score__min__energy>  (13) 
-5.7199999999999998

>  <m_primary>  (13) 
energy

$$$$
13:0
     RDKit          3D

 47 50  0  0  1  0  0  0  0  0999 V2000
   57.7990   30.3190   43.9830 C   0  0  0  0  0  0  0  0  0  0  0  0
   57.0290   29.2780   44.4040 C   0  0  0  0  0  0  0  0  0  0  0  0
   57.8280   28.7840   46.0220 S   0  0  0  0  0  0  0  0  0  0  0  0
   59.0490   29.9980   45.9230 C   0  0  0  0  0  0  0  0  0  0  0  0
   60.1010   30.2190   46.9140 C   0  0  0  0  0  0  0  0  0  0  0  0
   60.0940   29.6640   48.1770 C   0  0  0  0  0  0  0  0  0  0  0  0
   61.2730   30.1400   48.7640 C   0  0  0  0  0  0  0  0  0  0  0  0
   61.9070   30.9420   47.8260 C   0  0  0  0  0  0  0  0  0  0  0  0
   63.1900   31.6840   47.9480 C   0  0  0  0  0  0  0  0  0  0  0  0
   63.4950   32.4430   46.7720 N   0  0  0  0  0  0  0  0  0  0  0  0
   62.8420   33.7540   46.9120 C   0  0  0  0  0  0  0  0  0  0  0  0
   61.5990   33.8280   46.0870 C   0  0  0  0  0  0  0  0  0  0  0  0
   60.5370   34.6010   46.7960 C   0  0  1  0  0  0  0  0  0  0  0  0
   59.4210   34.9890   45.8540 C   0  0  0  0  0  0  0  0  0  0  0  0
   58.6570   33.7650   45.4190 C   0  0  0  0  0  0  0  0  0  0  0  0
   57.8060   33.3210   46.6150 C   0  0  0  0  0  0  0  0  0  0  0  0
   58.6700   33.2460   47.8190 C   0  0  0  0  0  0  0  0  0  0  0  0
   58.1710   32.5400   48.9130 C   0  0  0  0  0  0  0  0  0  0  0  0
   58.9280   32.4390   50.0560 C   0  0  0  0  0  0  0  0  0  0  0  0
   60.1750   33.0090   50.1730 C   0  0  0  0  0  0  0  0  0  0  0  0
   60.6650   33.7110   49.0760 C   0  0  0  0  0  0  0  0  0  0  0  0
   59.9140   33.8280   47.9050 C   0  0  0  0  0  0  0  0  0  0  0  0
   61.1640   30.9540   46.7400 O   0  0  0  0  0  0  0  0  0  0  0  0
   58.8270   30.6900   44.7490 C   0  0  0  0  0  0  0  0  0  0  0  0
   57.5801   30.8392   43.0388 H   0  0  0  0  0  0  0  0  0  0  0  0
   56.1504   28.8350   43.9122 H   0  0  0  0  0  0  0  0  0  0  0  0
   59.3370   29.0006   48.6206 H   0  0  0  0  0  0  0  0  0  0  0  0
   61.6303   29.9190   49.7806 H   0  0  0  0  0  0  0  0  0  0  0  0
   63.1208   32.3713   48.8041 H   0  0  0  0  0  0  0  0  0  0  0  0
   63.9929   30.9454   48.0885 H   0  0  0  0  0  0  0  0  0  0  0  0
   64.5190   32.6420   46.7680 H   0  0  0  0  0  0  0  0  0  0  0  0
   62.5816   33.9144   47.9686 H   0  0  0  0  0  0  0  0  0  0  0  0
   63.5391   34.5299   46.5628 H   0  0  0  0  0  0  0  0  0  0  0  0
   61.8289   34.3234   45.1322 H   0  0  0  0  0  0  0  0  0  0  0  0
   61.2323   32.8062   45.9098 H   0  0  0  0  0  0  0  0  0  0  0  0
   61.0446   35.4900   47.1985 H   0  0  0  0  0  0  0  0  0  0  0  0
   58.7368   35.6810   46.3669 H   0  0  0  0  0  0  0  0  0  0  0  0
   59.8531   35.4759   44.9673 H   0  0  0  0  0  0  0  0  0  0  0  0
   58.0094   34.0078   44.5636 H   0  0  0  0  0  0  0  0  0  0  0  0
   59.3429   32.9642   45.1056 H   0  0  0  0  0  0  0  0  0  0  0  0
   56.9991   34.0491   46.7845 H   0  0  0  0  0  0  0  0  0  0  0  0
   57.3640   32.3344   46.4118 H   0  0  0  0  0  0  0  0  0  0  0  0
   57.1790   32.0674   48.8618 H   0  0  0  0  0  0  0  0  0  0  0  0
   58.5206   31.8801   50.9114 H   0  0  0  0  0  0  0  0  0  0  0  0
   60.7620   32.9134   51.0983 H   0  0  0  0  0  0  0  0  0  0  0  0
   61.6582   34.1804   49.1323 H   0  0  0  0  0  0  0  0  0  0  0  0
   59.4797   31.5245   44.4531 H   0  0  0  0  0  0  0  0  0  0  0  0
  1  2  2  0
  2  3  1  0
  3  4  1  0
  4  5  1  0
  5  6  2  0
  6  7  1  0
  7  8  2  0
  8  9  1  0
  9 10  1  0
 10 11  1  0
 11 12  1  0
 12 13  1  0
 13 14  1  0
 14 15  1  0
 15 16  1  0
 16 17  1  0
 17 18  2  0
 18 19  1  0
 19 20  2  0
 20 21  1  0
 21 22  2  0
  8 23  1  0
  4 24  2  0
 24  1  1  0
 23  5  1  0
 22 13  1  0
 22 17  1  0
  1 25  1  0
  2 26  1  0
  6 27  1  0
  7 28  1  0
  9 29  1  0
  9 30  1  0
 10 31  1  0
 11 32  1  0
 11 33  1  0
 12 34  1  0
 12 35  1  0
 13 36  1  1
 14 37  1  0
 14 38  1  0
 15 39  1  0
 15 40  1  0
 16 41  1  0
 16 42  1  0
 18 43  1  0
 19 44  1  0
 20 45  1  0
 21 46  1  0
 24 47  1  0
M  END
>  <smiles>  (14) 
c1csc(-c2ccc(CNCCC3CCCc4ccccc43)o2)c1

>  <score_type>  (14) 
oracle

>  <origin>  (14) 
adg

>  <m_score__min__energy>  (14) 
-9.1699999999999999

>  <m_primary>  (14) 
energy

$$$$
14:0
     RDKit          3D

 42 44  0  0  0  0  0  0  0  0999 V2000
   57.4140   32.6500   40.7210 C   0  0  0  0  0  0  0  0  0  0  0  0
   57.7020   32.2300   42.1310 C   0  0  0  0  0  0  0  0  0  0  0  0
   57.3040   30.8360   42.3560 N   0  0  0  0  0  0  0  0  0  0  0  0
   56.2760   30.7450   43.3770 C   0  0  0  0  0  0  0  0  0  0  0  0
   56.5510   29.5560   44.2050 C   0  0  0  0  0  0  0  0  0  0  0  0
   55.7250   29.2310   45.1090 O   0  0  0  0  0  0  0  0  0  0  0  0
   57.7370   28.7620   44.0040 N   0  0  0  0  0  0  0  0  0  0  0  0
   57.9790   27.6220   44.8160 C   0  0  0  0  0  0  0  0  0  0  0  0
   57.7800   26.3810   44.2070 C   0  0  0  0  0  0  0  0  0  0  0  0
   57.9840   25.2010   44.8880 C   0  0  0  0  0  0  0  0  0  0  0  0
   58.3990   25.3100   46.2150 C   0  0  0  0  0  0  0  0  0  0  0  0
   58.5970   26.5220   46.8180 C   0  0  0  0  0  0  0  0  0  0  0  0
   58.3910   27.6960   46.1300 C   0  0  0  0  0  0  0  0  0  0  0  0
   58.6030   28.9900   46.7620 C   0  0  0  0  0  0  0  0  0  0  0  0
   58.6850   29.3160   48.0620 N   0  0  0  0  0  0  0  0  0  0  0  0
   58.8820   30.6370   48.1360 N   0  0  0  0  0  0  0  0  0  0  0  0
   58.9270   31.1540   46.9240 N   0  0  0  0  0  0  0  0  0  0  0  0
   59.1140   32.4990   46.5020 C   0  0  0  0  0  0  0  0  0  0  0  0
   58.1260   33.0180   45.6620 C   0  0  0  0  0  0  0  0  0  0  0  0
   58.1800   34.3070   45.1790 C   0  0  0  0  0  0  0  0  0  0  0  0
   59.2670   35.0910   45.5580 C   0  0  0  0  0  0  0  0  0  0  0  0
   60.2550   34.5830   46.3930 C   0  0  0  0  0  0  0  0  0  0  0  0
   60.1870   33.2730   46.8760 C   0  0  0  0  0  0  0  0  0  0  0  0
   58.7560   30.1440   46.0860 N   0  0  0  0  0  0  0  0  0  0  0  0
   56.7919   33.5572   40.7284 H   0  0  0  0  0  0  0  0  0  0  0  0
   58.3601   32.8584   40.2000 H   0  0  0  0  0  0  0  0  0  0  0  0
   56.8786   31.8426   40.2000 H   0  0  0  0  0  0  0  0  0  0  0  0
   58.7802   32.3318   42.3236 H   0  0  0  0  0  0  0  0  0  0  0  0
   57.1263   32.8732   42.8128 H   0  0  0  0  0  0  0  0  0  0  0  0
   58.1750   30.3610   42.6800 H   0  0  0  0  0  0  0  0  0  0  0  0
   56.2942   31.6480   44.0049 H   0  0  0  0  0  0  0  0  0  0  0  0
   55.2837   30.6607   42.9098 H   0  0  0  0  0  0  0  0  0  0  0  0
   58.4300   29.0290   43.2520 H   0  0  0  0  0  0  0  0  0  0  0  0
   57.4523   26.3449   43.1576 H   0  0  0  0  0  0  0  0  0  0  0  0
   57.8276   24.2229   44.4096 H   0  0  0  0  0  0  0  0  0  0  0  0
   58.5727   24.3919   46.7955 H   0  0  0  0  0  0  0  0  0  0  0  0
   58.9254   26.5586   47.8672 H   0  0  0  0  0  0  0  0  0  0  0  0
   57.2783   32.3774   45.3773 H   0  0  0  0  0  0  0  0  0  0  0  0
   57.3940   34.7023   44.5187 H   0  0  0  0  0  0  0  0  0  0  0  0
   59.3445   36.1254   45.1918 H   0  0  0  0  0  0  0  0  0  0  0  0
   61.1038   35.2218   46.6783 H   0  0  0  0  0  0  0  0  0  0  0  0
   60.9700   32.8726   47.5368 H   0  0  0  0  0  0  0  0  0  0  0  0
  1  2  1  0
  2  3  1  0
  3  4  1  0
  4  5  1  0
  5  6  2  0
  5  7  1  0
  7  8  1  0
  8  9  2  0
  9 10  1  0
 10 11  2  0
 11 12  1  0
 12 13  2  0
 13 14  1  0
 14 15  1  0
 15 16  2  0
 16 17  1  0
 17 18  1  0
 18 19  2  0
 19 20  1  0
 20 21  2  0
 21 22  1  0
 22 23  2  0
 17 24  1  0
 13  8  1  0
 24 14  2  0
 23 18  1  0
  1 25  1  0
  1 26  1  0
  1 27  1  0
  2 28  1  0
  2 29  1  0
  3 30  1  0
  4 31  1  0
  4 32  1  0
  7 33  1  0
  9 34  1  0
 10 35  1  0
 11 36  1  0
 12 37  1  0
 19 38  1  0
 20 39  1  0
 21 40  1  0
 22 41  1  0
 23 42  1  0
M  END
>  <smiles>  (15) 
CCNCC(=O)Nc1ccccc1-c1nnn(-c2ccccc2)n1

>  <score_type>  (15) 
oracle

>  <origin>  (15) 
adg

>  <m_score__min__energy>  (15) 
-8.4199999999999999

>  <m_primary>  (15) 
energy

$$$$
15:0
     RDKit          3D

 43 44  0  0  0  0  0  0  0  0999 V2000
   59.1790   34.8250   45.2050 C   0  0  0  0  0  0  0  0  0  0  0  0
   58.0080   34.1740   45.8400 C   0  0  0  0  0  0  0  0  0  0  0  0
   58.1600   32.9270   46.4530 N   0  0  0  0  0  0  0  0  0  0  0  0
   58.0900   32.8020   47.8540 C   0  0  0  0  0  0  0  0  0  0  0  0
   59.3200   33.4470   48.4720 C   0  0  0  0  0  0  0  0  0  0  0  0
   58.8240   31.9050   45.7240 C   0  0  0  0  0  0  0  0  0  0  0  0
   58.0350   31.4590   44.5490 C   0  0  0  0  0  0  0  0  0  0  0  0
   58.1780   32.1500   43.3600 C   0  0  0  0  0  0  0  0  0  0  0  0
   57.5190   31.8430   42.2020 C   0  0  0  0  0  0  0  0  0  0  0  0
   56.6490   30.7640   42.2250 C   0  0  0  0  0  0  0  0  0  0  0  0
   56.5000   30.0720   43.3970 C   0  0  0  0  0  0  0  0  0  0  0  0
   57.1790   30.3970   44.5690 C   0  0  0  0  0  0  0  0  0  0  0  0
   56.9880   29.6520   45.7410 O   0  0  0  0  0  0  0  0  0  0  0  0
   57.9740   28.6690   46.0120 C   0  0  0  0  0  0  0  0  0  0  0  0
   57.6820   27.3830   45.3390 C   0  0  0  0  0  0  0  0  0  0  0  0
   58.0770   27.1280   44.0440 C   0  0  0  0  0  0  0  0  0  0  0  0
   57.7510   25.8890   43.4930 C   0  0  0  0  0  0  0  0  0  0  0  0
   57.0520   24.9390   44.2170 C   0  0  0  0  0  0  0  0  0  0  0  0
   56.6290   23.3720   43.5560 Cl  0  0  0  0  0  0  0  0  0  0  0  0
   56.6550   25.2020   45.5280 C   0  0  0  0  0  0  0  0  0  0  0  0
   56.9820   26.4380   46.0730 C   0  0  0  0  0  0  0  0  0  0  0  0
   59.8568   35.2018   45.9851 H   0  0  0  0  0  0  0  0  0  0  0  0
   59.7109   34.0931   44.5794 H   0  0  0  0  0  0  0  0  0  0  0  0
   58.8381   35.6631   44.5794 H   0  0  0  0  0  0  0  0  0  0  0  0
   57.6367   34.8657   46.6105 H   0  0  0  0  0  0  0  0  0  0  0  0
   57.3390   33.9643   44.9924 H   0  0  0  0  0  0  0  0  0  0  0  0
   57.1846   33.3053   48.2241 H   0  0  0  0  0  0  0  0  0  0  0  0
   58.0508   31.7379   48.1300 H   0  0  0  0  0  0  0  0  0  0  0  0
   59.2433   33.4068   49.5686 H   0  0  0  0  0  0  0  0  0  0  0  0
   60.2205   32.9051   48.1473 H   0  0  0  0  0  0  0  0  0  0  0  0
   59.3863   34.4959   48.1473 H   0  0  0  0  0  0  0  0  0  0  0  0
   59.7937   32.2900   45.3754 H   0  0  0  0  0  0  0  0  0  0  0  0
   58.9562   31.0415   46.3925 H   0  0  0  0  0  0  0  0  0  0  0  0
   58.8694   33.0054   43.3446 H   0  0  0  0  0  0  0  0  0  0  0  0
   57.6736   32.4310   41.2853 H   0  0  0  0  0  0  0  0  0  0  0  0
   56.0916   30.4707   41.3231 H   0  0  0  0  0  0  0  0  0  0  0  0
   55.8092   29.2161   43.4139 H   0  0  0  0  0  0  0  0  0  0  0  0
   58.9487   29.0390   45.6613 H   0  0  0  0  0  0  0  0  0  0  0  0
   57.9810   28.4882   47.0970 H   0  0  0  0  0  0  0  0  0  0  0  0
   58.6324   27.8786   43.4625 H   0  0  0  0  0  0  0  0  0  0  0  0
   58.0560   25.6620   42.4608 H   0  0  0  0  0  0  0  0  0  0  0  0
   56.0999   24.4538   46.1129 H   0  0  0  0  0  0  0  0  0  0  0  0
   56.6801   26.6705   47.1049 H   0  0  0  0  0  0  0  0  0  0  0  0
  1  2  1  0
  2  3  1  0
  3  4  1  0
  4  5  1  0
  3  6  1  0
  6  7  1  0
  7  8  2  0
  8  9  1  0
  9 10  2  0
 10 11  1  0
 11 12  2  0
 12 13  1  0
 13 14  1  0
 14 15  1  0
 15 16  2  0
 16 17  1  0
 17 18  2  0
 18 19  1  0
 18 20  1  0
 20 21  2  0
 12  7  1  0
 21 15  1  0
  1 22  1  0
  1 23  1  0
  1 24  1  0
  2 25  1  0
  2 26  1  0
  4 27  1  0
  4 28  1  0
  5 29  1  0
  5 30  1  0
  5 31  1  0
  6 32  1  0
  6 33  1  0
  8 34  1  0
  9 35  1  0
 10 36  1  0
 11 37  1  0
 14 38  1  0
 14 39  1  0
 16 40  1  0
 17 41  1  0
 20 42  1  0
 21 43  1  0
M  END
>  <smiles>  (16) 
CCN(CC)Cc1ccccc1OCc1ccc(Cl)cc1

>  <score_type>  (16) 
oracle

>  <origin>  (16) 
adg

>  <m_score__min__energy>  (16) 
-6.8700000000000001

>  <m_primary>  (16) 
energy

$$$$
16:0
     RDKit          3D

 41 43  0  0  0  0  0  0  0  0999 V2000
   56.8010   27.2950   45.6490 C   0  0  0  0  0  0  0  0  0  0  0  0
   55.9500   28.3370   45.2270 O   0  0  0  0  0  0  0  0  0  0  0  0
   56.4110   29.4090   44.4860 C   0  0  0  0  0  0  0  0  0  0  0  0
   56.1720   29.4600   43.1270 C   0  0  0  0  0  0  0  0  0  0  0  0
   56.6370   30.5440   42.3820 C   0  0  0  0  0  0  0  0  0  0  0  0
   57.3280   31.5260   43.0640 C   0  0  0  0  0  0  0  0  0  0  0  0
   57.5680   31.4760   44.4230 C   0  0  0  0  0  0  0  0  0  0  0  0
   58.3090   32.5790   45.0280 C   0  0  0  0  0  0  0  0  0  0  0  0
   57.9100   33.8650   44.7170 C   0  0  0  0  0  0  0  0  0  0  0  0
   58.5760   34.9520   45.2640 C   0  0  0  0  0  0  0  0  0  0  0  0
   59.6520   34.7250   46.1310 C   0  0  0  0  0  0  0  0  0  0  0  0
   60.0550   33.4360   46.4450 C   0  0  0  0  0  0  0  0  0  0  0  0
   61.2180   33.2320   47.3800 C   0  0  0  0  0  0  0  0  0  0  0  0
   62.4380   33.7890   46.7310 C   0  0  0  0  0  0  0  0  0  0  0  0
   63.7370   33.2750   47.1940 C   0  0  0  0  0  0  0  0  0  0  0  0
   63.8260   32.0160   47.7920 N   0  0  0  0  0  0  0  0  0  0  0  0
   62.6470   31.3670   48.2310 C   0  0  0  0  0  0  0  0  0  0  0  0
   61.3890   31.7550   47.5190 C   0  0  0  0  0  0  0  0  0  0  0  0
   59.3850   32.3500   45.8940 C   0  0  0  0  0  0  0  0  0  0  0  0
   57.1030   30.3980   45.1590 C   0  0  0  0  0  0  0  0  0  0  0  0
   56.8260   27.2644   46.7483 H   0  0  0  0  0  0  0  0  0  0  0  0
   56.4248   26.3357   45.2640 H   0  0  0  0  0  0  0  0  0  0  0  0
   57.8161   27.4719   45.2640 H   0  0  0  0  0  0  0  0  0  0  0  0
   55.6169   28.6487   42.6335 H   0  0  0  0  0  0  0  0  0  0  0  0
   56.4609   30.6135   41.2984 H   0  0  0  0  0  0  0  0  0  0  0  0
   57.7055   32.3899   42.4973 H   0  0  0  0  0  0  0  0  0  0  0  0
   57.0627   34.0270   44.0344 H   0  0  0  0  0  0  0  0  0  0  0  0
   58.2632   35.9780   45.0201 H   0  0  0  0  0  0  0  0  0  0  0  0
   60.1851   35.5816   46.5692 H   0  0  0  0  0  0  0  0  0  0  0  0
   61.0551   33.7170   48.3538 H   0  0  0  0  0  0  0  0  0  0  0  0
   62.3644   33.5813   45.6533 H   0  0  0  0  0  0  0  0  0  0  0  0
   62.4417   34.8557   46.9995 H   0  0  0  0  0  0  0  0  0  0  0  0
   64.3997   33.2551   46.3162 H   0  0  0  0  0  0  0  0  0  0  0  0
   63.9967   33.9592   48.0152 H   0  0  0  0  0  0  0  0  0  0  0  0
   64.5270   32.0010   48.5850 H   0  0  0  0  0  0  0  0  0  0  0  0
   62.7888   30.2840   48.1006 H   0  0  0  0  0  0  0  0  0  0  0  0
   62.5067   31.6758   49.2774 H   0  0  0  0  0  0  0  0  0  0  0  0
   61.4060   31.3097   46.5133 H   0  0  0  0  0  0  0  0  0  0  0  0
   60.5469   31.3859   48.1228 H   0  0  0  0  0  0  0  0  0  0  0  0
   59.6964   31.3230   46.1354 H   0  0  0  0  0  0  0  0  0  0  0  0
   57.2788   30.3316   46.2428 H   0  0  0  0  0  0  0  0  0  0  0  0
  1  2  1  0
  2  3  1  0
  3  4  2  0
  4  5  1  0
  5  6  2  0
  6  7  1  0
  7  8  1  0
  8  9  2  0
  9 10  1  0
 10 11  2  0
 11 12  1  0
 12 13  1  0
 13 14  1  0
 14 15  1  0
 15 16  1  0
 16 17  1  0
 17 18  1  0
 12 19  2  0
  7 20  2  0
 20  3  1  0
 19  8  1  0
 18 13  1  0
  1 21  1  0
  1 22  1  0
  1 23  1  0
  4 24  1  0
  5 25  1  0
  6 26  1  0
  9 27  1  0
 10 28  1  0
 11 29  1  0
 13 30  1  0
 14 31  1  0
 14 32  1  0
 15 33  1  0
 15 34  1  0
 16 35  1  0
 17 36  1  0
 17 37  1  0
 18 38  1  0
 18 39  1  0
 19 40  1  0
 20 41  1  0
M  END
>  <smiles>  (17) 
COc1cccc(-c2cccc(C3CCNCC3)c2)c1

>  <score_type>  (17) 
oracle

>  <origin>  (17) 
adg

>  <m_score__min__energy>  (17) 
-8.2699999999999996

>  <m_primary>  (17) 
energy

$$$$
17:0
     RDKit          3D

 48 50  0  0  1  0  0  0  0  0999 V2000
   57.0190   31.1130   43.0430 C   0  0  0  0  0  0  0  0  0  0  0  0
   56.3440   30.1920   44.0340 C   0  0  0  0  0  0  0  0  0  0  0  0
   57.0130   30.3380   45.2790 O   0  0  0  0  0  0  0  0  0  0  0  0
   58.2590   29.6920   45.4230 C   0  0  0  0  0  0  0  0  0  0  0  0
   58.7500   28.8720   44.4080 C   0  0  0  0  0  0  0  0  0  0  0  0
   59.9610   28.2210   44.5020 C   0  0  0  0  0  0  0  0  0  0  0  0
   60.6850   28.4130   45.6570 C   0  0  0  0  0  0  0  0  0  0  0  0
   60.2120   29.2180   46.6640 C   0  0  0  0  0  0  0  0  0  0  0  0
   58.9980   29.8870   46.6020 C   0  0  0  0  0  0  0  0  0  0  0  0
   58.5550   30.7650   47.6790 C   0  0  0  0  0  0  0  0  0  0  0  0
   58.4840   32.1380   47.6150 N   0  0  0  0  0  0  0  0  0  0  0  0
   58.6180   33.0230   46.7730 C   0  0  0  0  0  0  0  0  0  0  0  0
   57.9100   32.9910   45.6480 N   0  0  0  0  0  0  0  0  0  0  0  0
   58.0090   33.9140   44.7040 C   0  0  0  0  0  0  0  0  0  0  0  0
   58.8880   34.9770   44.8760 C   0  0  0  0  0  0  0  0  0  0  0  0
   59.6640   35.0850   46.0240 C   0  0  0  0  0  0  0  0  0  0  0  0
   59.4920   34.0700   46.9570 C   0  0  0  0  0  0  0  0  0  0  0  0
   60.3000   34.1730   48.1820 C   0  0  0  0  0  0  0  0  0  0  0  0
   59.8340   34.5330   49.2810 O   0  0  0  0  0  0  0  0  0  0  0  0
   61.6810   33.8300   48.0350 N   0  0  0  0  0  0  0  0  0  0  0  0
   62.2400   33.4050   46.7490 C   0  0  0  0  0  0  0  0  0  0  0  0
   63.6800   33.0390   46.9830 C   0  0  0  0  0  0  0  0  0  0  0  0
   63.8260   32.1110   48.0090 O   0  0  0  0  0  0  0  0  0  0  0  0
   63.3180   32.5410   49.2100 C   0  0  0  0  0  0  0  0  0  0  0  0
   62.6190   33.8780   49.1430 C   0  0  0  0  0  0  0  0  0  0  0  0
   57.5845   31.8846   43.5859 H   0  0  0  0  0  0  0  0  0  0  0  0
   57.7062   30.5313   42.4110 H   0  0  0  0  0  0  0  0  0  0  0  0
   56.2574   31.5931   42.4110 H   0  0  0  0  0  0  0  0  0  0  0  0
   55.2849   30.4687   44.1423 H   0  0  0  0  0  0  0  0  0  0  0  0
   56.3933   29.1489   43.6883 H   0  0  0  0  0  0  0  0  0  0  0  0
   58.1476   28.7396   43.4972 H   0  0  0  0  0  0  0  0  0  0  0  0
   60.3322   27.5772   43.6910 H   0  0  0  0  0  0  0  0  0  0  0  0
   61.6580   27.9136   45.7752 H   0  0  0  0  0  0  0  0  0  0  0  0
   60.8280   29.3388   47.5673 H   0  0  0  0  0  0  0  0  0  0  0  0
   57.5354   30.4326   47.9238 H   0  0  0  0  0  0  0  0  0  0  0  0
   59.3952   30.6487   48.3793 H   0  0  0  0  0  0  0  0  0  0  0  0
   57.2580   32.2110   45.5220 H   0  0  0  0  0  0  0  0  0  0  0  0
   57.4004   33.8402   43.7907 H   0  0  0  0  0  0  0  0  0  0  0  0
   58.9707   35.7441   44.0919 H   0  0  0  0  0  0  0  0  0  0  0  0
   60.3660   35.9168   46.1829 H   0  0  0  0  0  0  0  0  0  0  0  0
   61.6876   32.5331   46.3687 H   0  0  0  0  0  0  0  0  0  0  0  0
   62.1603   34.2117   46.0054 H   0  0  0  0  0  0  0  0  0  0  0  0
   64.0918   32.6112   46.0571 H   0  0  0  0  0  0  0  0  0  0  0  0
   64.2177   33.9531   47.2752 H   0  0  0  0  0  0  0  0  0  0  0  0
   62.5962   31.7918   49.5674 H   0  0  0  0  0  0  0  0  0  0  0  0
   64.1743   32.6655   49.8892 H   0  0  0  0  0  0  0  0  0  0  0  0
   62.0795   34.0664   50.0829 H   0  0  0  0  0  0  0  0  0  0  0  0
   63.3488   34.6877   48.9956 H   0  0  0  0  0  0  0  0  0  0  0  0
  1  2  1  0
  2  3  1  0
  3  4  1  0
  4  5  2  0
  5  6  1  0
  6  7  2  0
  7  8  1  0
  8  9  2  0
  9 10  1  0
 10 11  1  0
 11 12  2  0
 12 13  1  0
 13 14  1  0
 14 15  2  0
 15 16  1  0
 16 17  2  0
 17 18  1  0
 18 19  2  0
 18 20  1  0
 20 21  1  0
 21 22  1  0
 22 23  1  0
 23 24  1  0
 24 25  1  0
  9  4  1  0
 17 12  1  0
 25 20  1  0
  1 26  1  0
  1 27  1  0
  1 28  1  0
  2 29  1  0
  2 30  1  0
  5 31  1  0
  6 32  1  0
  7 33  1  0
  8 34  1  0
 10 35  1  0
 10 36  1  0
 13 37  1  0
 14 38  1  0
 15 39  1  0
 16 40  1  0
 21 41  1  0
 21 42  1  0
 22 43  1  0
 22 44  1  0
 24 45  1  0
 24 46  1  0
 25 47  1  0
 25 48  1  0
M  END
>  <smiles>  (18) 
CCOc1ccccc1CN=c1[nH]cccc1C(=O)N1CCOCC1

>  <score_type>  (18) 
oracle

>  <origin>  (18) 
adg

>  <m_score__min__energy>  (18) 
-7.5499999999999998

>  <m_primary>  (18) 
energy

$$$$
18:0
     RDKit          3D

 74 78  0  0  1  0  0  0  0  0999 V2000
   66.7140   32.7150   50.1430 C   0  0  0  0  0  0  0  0  0  0  0  0
   65.2810   32.7640   50.3670 N   0  0  0  0  0  0  0  0  0  0  0  0
   64.8940   31.4410   50.8630 C   0  0  0  0  0  0  0  0  0  0  0  0
   64.5420   33.0890   49.1970 C   0  0  0  0  0  0  0  0  0  0  0  0
   63.2920   32.2700   48.9900 C   0  0  0  0  0  0  0  0  0  0  0  0
   62.1600   32.9850   48.5800 N   0  0  0  0  0  0  0  0  0  0  0  0
   61.9380   33.0140   47.1460 C   0  0  0  0  0  0  0  0  0  0  0  0
   60.9440   32.4750   49.1610 C   0  0  0  0  0  0  0  0  0  0  0  0
   60.3780   31.2820   48.5530 C   0  0  0  0  0  0  0  0  0  0  0  0
   61.1170   30.0970   48.6350 C   0  0  0  0  0  0  0  0  0  0  0  0
   60.6460   28.9000   48.1390 C   0  0  0  0  0  0  0  0  0  0  0  0
   59.4200   28.8140   47.5370 C   0  0  0  0  0  0  0  0  0  0  0  0
   58.8440   27.5920   46.9990 C   0  0  0  0  0  0  0  0  0  0  0  0
   59.4490   26.3540   47.1030 C   0  0  0  0  0  0  0  0  0  0  0  0
   58.8390   25.2300   46.5770 C   0  0  0  0  0  0  0  0  0  0  0  0
   57.6070   25.2900   45.9300 C   0  0  0  0  0  0  0  0  0  0  0  0
   57.0320   24.1000   45.4150 N   0  0  0  0  0  0  0  0  0  0  0  0
   55.9900   24.0690   44.4100 C   0  0  0  0  0  0  0  0  0  0  0  0
   56.5870   23.4160   43.1790 C   0  0  0  0  0  0  0  0  0  0  0  0
   57.2590   22.2050   43.5250 N   0  0  0  0  0  0  0  0  0  0  0  0
   56.8710   21.1470   42.6190 C   0  0  0  0  0  0  0  0  0  0  0  0
   57.0230   21.7500   44.8810 C   0  0  0  0  0  0  0  0  0  0  0  0
   57.4850   22.7840   45.8950 C   0  0  0  0  0  0  0  0  0  0  0  0
   57.0160   26.5100   45.8300 C   0  0  0  0  0  0  0  0  0  0  0  0
   57.6280   27.6420   46.3580 C   0  0  0  0  0  0  0  0  0  0  0  0
   58.6690   29.9630   47.4390 C   0  0  0  0  0  0  0  0  0  0  0  0
   59.1520   31.1750   47.9430 C   0  0  0  0  0  0  0  0  0  0  0  0
   58.2940   32.3010   47.7280 N   0  0  0  0  0  0  0  0  0  0  0  0
   58.5290   33.0310   46.6760 C   0  0  0  0  0  0  0  0  0  0  0  0
   59.0960   34.2590   46.8300 N   0  0  0  0  0  0  0  0  0  0  0  0
   59.3130   34.9470   45.7000 C   0  0  0  0  0  0  0  0  0  0  0  0
   59.0290   34.5390   44.4750 N   0  0  0  0  0  0  0  0  0  0  0  0
   58.4510   33.2950   44.2600 C   0  0  0  0  0  0  0  0  0  0  0  0
   58.1120   32.7490   43.0970 C   0  0  0  0  0  0  0  0  0  0  0  0
   57.5500   31.5050   43.0530 C   0  0  0  0  0  0  0  0  0  0  0  0
   57.4800   31.0210   44.8820 S   0  0  0  0  0  0  0  0  0  0  0  0
   58.2340   32.6040   45.4300 C   0  0  0  0  0  0  0  0  0  0  0  0
   67.2360   32.6971   51.1111 H   0  0  0  0  0  0  0  0  0  0  0  0
   66.9654   31.8077   49.5741 H   0  0  0  0  0  0  0  0  0  0  0  0
   67.0268   33.6030   49.5741 H   0  0  0  0  0  0  0  0  0  0  0  0
   64.8957   31.4469   51.9630 H   0  0  0  0  0  0  0  0  0  0  0  0
   63.8858   31.1935   50.4992 H   0  0  0  0  0  0  0  0  0  0  0  0
   65.6099   30.6892   50.4992 H   0  0  0  0  0  0  0  0  0  0  0  0
   64.2508   34.1479   49.2594 H   0  0  0  0  0  0  0  0  0  0  0  0
   65.2007   32.8694   48.3439 H   0  0  0  0  0  0  0  0  0  0  0  0
   63.5082   31.5107   48.2241 H   0  0  0  0  0  0  0  0  0  0  0  0
   63.0414   31.8500   49.9753 H   0  0  0  0  0  0  0  0  0  0  0  0
   60.8659   33.1540   46.9437 H   0  0  0  0  0  0  0  0  0  0  0  0
   62.5063   33.8455   46.7037 H   0  0  0  0  0  0  0  0  0  0  0  0
   62.2736   32.0644   46.7037 H   0  0  0  0  0  0  0  0  0  0  0  0
   61.1504   32.2447   50.2166 H   0  0  0  0  0  0  0  0  0  0  0  0
   60.1946   33.2639   48.9997 H   0  0  0  0  0  0  0  0  0  0  0  0
   62.1081   30.1211   49.1117 H   0  0  0  0  0  0  0  0  0  0  0  0
   61.2675   27.9968   48.2288 H   0  0  0  0  0  0  0  0  0  0  0  0
   60.4222   26.2620   47.6075 H   0  0  0  0  0  0  0  0  0  0  0  0
   59.3431   24.2570   46.6726 H   0  0  0  0  0  0  0  0  0  0  0  0
   55.1326   23.4823   44.7716 H   0  0  0  0  0  0  0  0  0  0  0  0
   55.6305   25.0836   44.1832 H   0  0  0  0  0  0  0  0  0  0  0  0
   55.7822   23.1906   42.4638 H   0  0  0  0  0  0  0  0  0  0  0  0
   57.3146   24.1079   42.7297 H   0  0  0  0  0  0  0  0  0  0  0  0
   56.5489   20.2686   43.1975 H   0  0  0  0  0  0  0  0  0  0  0  0
   56.0412   21.4930   41.9851 H   0  0  0  0  0  0  0  0  0  0  0  0
   57.7277   20.8745   41.9851 H   0  0  0  0  0  0  0  0  0  0  0  0
   55.9464   21.5699   45.0170 H   0  0  0  0  0  0  0  0  0  0  0  0
   57.5941   20.8238   45.0424 H   0  0  0  0  0  0  0  0  0  0  0  0
   57.0432   22.5697   46.8793 H   0  0  0  0  0  0  0  0  0  0  0  0
   58.5797   22.7636   46.0012 H   0  0  0  0  0  0  0  0  0  0  0  0
   56.0428   26.6031   45.3258 H   0  0  0  0  0  0  0  0  0  0  0  0
   57.1208   28.6131   46.2593 H   0  0  0  0  0  0  0  0  0  0  0  0
   57.6795   29.9279   46.9598 H   0  0  0  0  0  0  0  0  0  0  0  0
   59.3280   34.6020   47.7850 H   0  0  0  0  0  0  0  0  0  0  0  0
   59.7694   35.9427   45.8015 H   0  0  0  0  0  0  0  0  0  0  0  0
   58.2853   33.3031   42.1627 H   0  0  0  0  0  0  0  0  0  0  0  0
   57.2208   30.9291   42.1755 H   0  0  0  0  0  0  0  0  0  0  0  0
  1  2  1  0
  2  3  1  0
  2  4  1  0
  4  5  1  0
  5  6  1  0
  6  7  1  0
  6  8  1  0
  8  9  1  0
  9 10  2  0
 10 11  1  0
 11 12  2  0
 12 13  1  0
 13 14  2  0
 14 15  1  0
 15 16  2  0
 16 17  1  0
 17 18  1  0
 18 19  1  0
 19 20  1  0
 20 21  1  0
 20 22  1  0
 22 23  1  0
 16 24  1  0
 24 25  2  0
 12 26  1  0
 26 27  2  0
 27 28  1  0
 28 29  2  0
 29 30  1  0
 30 31  1  0
 31 32  2  0
 32 33  1  0
 33 34  1  0
 34 35  2  0
 35 36  1  0
 36 37  1  0
 27  9  1  0
 37 29  1  0
 25 13  1  0
 37 33  2  0
 23 17  1  0
  1 38  1  0
  1 39  1  0
  1 40  1  0
  3 41  1  0
  3 42  1  0
  3 43  1  0
  4 44  1  0
  4 45  1  0
  5 46  1  0
  5 47  1  0
  7 48  1  0
  7 49  1  0
  7 50  1  0
  8 51  1  0
  8 52  1  0
 10 53  1  0
 11 54  1  0
 14 55  1  0
 15 56  1  0
 18 57  1  0
 18 58  1  0
 19 59  1  0
 19 60  1  0
 21 61  1  0
 21 62  1  0
 21 63  1  0
 22 64  1  0
 22 65  1  0
 23 66  1  0
 23 67  1  0
 24 68  1  0
 25 69  1  0
 26 70  1  0
 30 71  1  0
 31 72  1  0
 34 73  1  0
 35 74  1  0
M  END
>  <smiles>  (19) 
CN(C)CCN(C)Cc1ccc(-c2ccc(N3CCN(C)CC3)cc2)cc1N=c1[nH]cnc2ccsc12

>  <score_type>  (19) 
oracle

>  <origin>  (19) 
adg

>  <m_score__min__energy>  (19) 
-9.0800000000000001

>  <m_primary>  (19) 
energy

$$$$
19:0
     RDKit          3D

 44 46  0  0  1  0  0  0  0  0999 V2000
   59.1310   27.8120   44.1460 C   0  0  0  0  0  0  0  0  0  0  0  0
   58.7740   28.5650   45.3090 N   0  0  0  0  0  0  0  0  0  0  0  0
   57.3920   28.4980   45.6900 C   0  0  0  0  0  0  0  0  0  0  0  0
   56.5780   29.3970   44.8200 C   0  0  0  0  0  0  0  0  0  0  0  0
   57.0060   30.7760   45.0990 N   0  0  0  0  0  0  0  0  0  0  0  0
   58.3750   30.8910   44.6540 C   0  0  0  0  0  0  0  0  0  0  0  0
   59.2970   29.9180   45.3000 C   0  0  1  0  0  0  0  0  0  0  0  0
   59.7490   30.2940   46.6880 C   0  0  0  0  0  0  0  0  0  0  0  0
   61.0320   31.0050   46.7570 C   0  0  0  0  0  0  0  0  0  0  0  0
   61.2300   31.8570   47.9490 C   0  0  0  0  0  0  0  0  0  0  0  0
   62.1470   31.4630   48.9090 C   0  0  0  0  0  0  0  0  0  0  0  0
   62.3680   32.2300   50.0450 C   0  0  0  0  0  0  0  0  0  0  0  0
   61.6830   33.3690   50.2160 N   0  0  0  0  0  0  0  0  0  0  0  0
   60.7990   33.7420   49.2840 C   0  0  0  0  0  0  0  0  0  0  0  0
   60.5310   33.0350   48.1390 C   0  0  0  0  0  0  0  0  0  0  0  0
   59.5500   33.4800   47.1370 C   0  0  0  0  0  0  0  0  0  0  0  0
   59.9290   34.1920   46.0210 C   0  0  0  0  0  0  0  0  0  0  0  0
   58.9360   34.5770   45.1200 C   0  0  0  0  0  0  0  0  0  0  0  0
   57.6180   34.2200   45.3990 C   0  0  0  0  0  0  0  0  0  0  0  0
   56.6220   34.5830   44.5310 F   0  0  0  0  0  0  0  0  0  0  0  0
   57.2500   33.5160   46.5040 C   0  0  0  0  0  0  0  0  0  0  0  0
   58.2320   33.1330   47.3980 C   0  0  0  0  0  0  0  0  0  0  0  0
   57.8990   32.4280   48.5150 F   0  0  0  0  0  0  0  0  0  0  0  0
   59.5836   26.8573   44.4520 H   0  0  0  0  0  0  0  0  0  0  0  0
   58.2304   27.6151   43.5459 H   0  0  0  0  0  0  0  0  0  0  0  0
   59.8535   28.3847   43.5459 H   0  0  0  0  0  0  0  0  0  0  0  0
   57.0339   27.4636   45.5810 H   0  0  0  0  0  0  0  0  0  0  0  0
   57.2903   28.8199   46.7369 H   0  0  0  0  0  0  0  0  0  0  0  0
   56.7518   29.1553   43.7610 H   0  0  0  0  0  0  0  0  0  0  0  0
   55.5045   29.2721   45.0252 H   0  0  0  0  0  0  0  0  0  0  0  0
   57.0260   30.8770   46.1350 H   0  0  0  0  0  0  0  0  0  0  0  0
   58.4019   30.7260   43.5668 H   0  0  0  0  0  0  0  0  0  0  0  0
   58.7210   31.8969   44.9342 H   0  0  0  0  0  0  0  0  0  0  0  0
   60.1873   29.9564   44.6550 H   0  0  0  0  0  0  0  0  0  0  0  0
   58.9779   30.9395   47.1337 H   0  0  0  0  0  0  0  0  0  0  0  0
   59.8956   29.3470   47.2281 H   0  0  0  0  0  0  0  0  0  0  0  0
   61.8357   30.2541   46.7411 H   0  0  0  0  0  0  0  0  0  0  0  0
   61.0426   31.6884   45.8951 H   0  0  0  0  0  0  0  0  0  0  0  0
   62.7090   30.5278   48.7693 H   0  0  0  0  0  0  0  0  0  0  0  0
   63.1000   31.9051   50.7991 H   0  0  0  0  0  0  0  0  0  0  0  0
   60.2488   34.6805   49.4468 H   0  0  0  0  0  0  0  0  0  0  0  0
   60.9838   34.4497   45.8451 H   0  0  0  0  0  0  0  0  0  0  0  0
   59.1866   35.1472   44.2133 H   0  0  0  0  0  0  0  0  0  0  0  0
   56.1956   33.2578   46.6815 H   0  0  0  0  0  0  0  0  0  0  0  0
  1  2  1  0
  2  3  1  0
  3  4  1  0
  4  5  1  0
  5  6  1  0
  6  7  1  0
  7  8  1  0
  8  9  1  0
  9 10  1  0
 10 11  2  0
 11 12  1  0
 12 13  2  0
 13 14  1  0
 14 15  2  0
 15 16  1  0
 16 17  2  0
 17 18  1  0
 18 19  2  0
 19 20  1  0
 19 21  1  0
 21 22  2  0
 22 23  1  0
  7  2  1  0
 15 10  1  0
 22 16  1  0
  1 24  1  0
  1 25  1  0
  1 26  1  0
  3 27  1  0
  3 28  1  0
  4 29  1  0
  4 30  1  0
  5 31  1  0
  6 32  1  0
  6 33  1  0
  7 34  1  6
  8 35  1  0
  8 36  1  0
  9 37  1  0
  9 38  1  0
 11 39  1  0
 12 40  1  0
 14 41  1  0
 17 42  1  0
 18 43  1  0
 21 44  1  0
M  END
>  <smiles>  (20) 
CN1CCNCC1CCc1ccncc1-c1ccc(F)cc1F

>  <score_type>  (20) 
oracle

>  <origin>  (20) 
adg

>  <m_score__min__energy>  (20) 
-7.6399999999999997

>  <m_primary>  (20) 
energy

$$$$
20:0
     RDKit          3D

 45 48  0  0  0  0  0  0  0  0999 V2000
   54.2110   22.3040   46.1940 C   0  0  0  0  0  0  0  0  0  0  0  0
   55.3040   23.2740   45.9650 C   0  0  0  0  0  0  0  0  0  0  0  0
   55.7680   23.6280   44.7160 C   0  0  0  0  0  0  0  0  0  0  0  0
   56.8070   24.5550   44.5920 C   0  0  0  0  0  0  0  0  0  0  0  0
   57.3870   25.1310   45.7020 C   0  0  0  0  0  0  0  0  0  0  0  0
   58.4660   26.0990   45.6460 C   0  0  0  0  0  0  0  0  0  0  0  0
   59.6490   25.6230   45.6400 O   0  0  0  0  0  0  0  0  0  0  0  0
   58.2360   27.5170   45.6000 N   0  0  0  0  0  0  0  0  0  0  0  0
   56.8940   28.0780   45.6070 C   0  0  0  0  0  0  0  0  0  0  0  0
   56.7840   28.9580   44.3910 C   0  0  0  0  0  0  0  0  0  0  0  0
   57.8170   30.0320   44.4650 C   0  0  0  0  0  0  0  0  0  0  0  0
   59.2250   29.5010   44.5390 C   0  0  0  0  0  0  0  0  0  0  0  0
   59.3770   28.3900   45.5460 C   0  0  0  0  0  0  0  0  0  0  0  0
   57.7460   30.7900   43.2120 N   0  0  0  0  0  0  0  0  0  0  0  0
   58.1870   32.1470   43.1920 C   0  0  0  0  0  0  0  0  0  0  0  0
   58.4770   32.7370   42.1160 O   0  0  0  0  0  0  0  0  0  0  0  0
   58.2990   32.8560   44.4720 C   0  0  0  0  0  0  0  0  0  0  0  0
   58.7270   34.1840   44.4980 C   0  0  0  0  0  0  0  0  0  0  0  0
   58.8420   34.8750   45.6890 C   0  0  0  0  0  0  0  0  0  0  0  0
   58.5180   34.2040   46.8470 C   0  0  0  0  0  0  0  0  0  0  0  0
   58.0910   32.8820   46.8310 C   0  0  0  0  0  0  0  0  0  0  0  0
   57.9730   32.1830   45.6480 C   0  0  0  0  0  0  0  0  0  0  0  0
   57.5530   30.8640   45.5730 O   0  0  0  0  0  0  0  0  0  0  0  0
   56.9220   24.7770   46.9750 C   0  0  0  0  0  0  0  0  0  0  0  0
   55.8820   23.8500   47.0770 C   0  0  0  0  0  0  0  0  0  0  0  0
   54.0602   22.1701   47.2754 H   0  0  0  0  0  0  0  0  0  0  0  0
   53.2839   22.6820   45.7385 H   0  0  0  0  0  0  0  0  0  0  0  0
   54.4762   21.3385   45.7385 H   0  0  0  0  0  0  0  0  0  0  0  0
   55.3203   23.1807   43.8163 H   0  0  0  0  0  0  0  0  0  0  0  0
   57.1684   24.8299   43.5901 H   0  0  0  0  0  0  0  0  0  0  0  0
   56.1465   27.2723   45.5602 H   0  0  0  0  0  0  0  0  0  0  0  0
   56.7110   28.6520   46.5274 H   0  0  0  0  0  0  0  0  0  0  0  0
   56.9450   28.3550   43.4852 H   0  0  0  0  0  0  0  0  0  0  0  0
   55.7826   29.4116   44.3536 H   0  0  0  0  0  0  0  0  0  0  0  0
   59.5090   29.1183   43.5476 H   0  0  0  0  0  0  0  0  0  0  0  0
   59.8753   30.3289   44.8579 H   0  0  0  0  0  0  0  0  0  0  0  0
   60.2616   27.7936   45.2782 H   0  0  0  0  0  0  0  0  0  0  0  0
   59.4793   28.8572   46.5366 H   0  0  0  0  0  0  0  0  0  0  0  0
   57.3730   30.3460   42.3280 H   0  0  0  0  0  0  0  0  0  0  0  0
   58.9772   34.6896   43.5537 H   0  0  0  0  0  0  0  0  0  0  0  0
   59.1796   35.9217   45.7113 H   0  0  0  0  0  0  0  0  0  0  0  0
   58.5994   34.7287   47.8104 H   0  0  0  0  0  0  0  0  0  0  0  0
   57.8424   32.3836   47.7796 H   0  0  0  0  0  0  0  0  0  0  0  0
   57.3675   25.2207   47.8776 H   0  0  0  0  0  0  0  0  0  0  0  0
   55.5127   23.5708   48.0748 H   0  0  0  0  0  0  0  0  0  0  0  0
  1  2  1  0
  2  3  2  0
  3  4  1  0
  4  5  2  0
  5  6  1  0
  6  7  2  0
  6  8  1  0
  8  9  1  0
  9 10  1  0
 10 11  1  0
 11 12  1  0
 12 13  1  0
 11 14  1  0
 14 15  1  0
 15 16  2  0
 15 17  1  0
 17 18  2  0
 18 19  1  0
 19 20  2  0
 20 21  1  0
 21 22  2  0
 22 23  1  0
  5 24  1  0
 24 25  2  0
 25  2  1  0
 13  8  1  0
 22 17  1  0
 23 11  1  0
  1 26  1  0
  1 27  1  0
  1 28  1  0
  3 29  1  0
  4 30  1  0
  9 31  1  0
  9 32  1  0
 10 33  1  0
 10 34  1  0
 12 35  1  0
 12 36  1  0
 13 37  1  0
 13 38  1  0
 14 39  1  0
 18 40  1  0
 19 41  1  0
 20 42  1  0
 21 43  1  0
 24 44  1  0
 25 45  1  0
M  END
>  <smiles>  (21) 
Cc1ccc(C(=O)N2CCC3(CC2)NC(=O)c2ccccc2O3)cc1

>  <score_type>  (21) 
oracle

>  <origin>  (21) 
adg

>  <m_score__min__energy>  (21) 
-8.0500000000000007

>  <m_primary>  (21) 
energy

$$$$
21:0
     RDKit          3D

 64 67  0  0  0  0  0  0  0  0999 V2000
   59.6480   35.6310   45.5770 C   0  0  0  0  0  0  0  0  0  0  0  0
   58.8780   34.8680   46.4590 O   0  0  0  0  0  0  0  0  0  0  0  0
   58.6510   33.5220   46.2000 C   0  0  0  0  0  0  0  0  0  0  0  0
   57.5550   33.0810   45.4690 C   0  0  0  0  0  0  0  0  0  0  0  0
   57.3690   31.7320   45.2360 C   0  0  0  0  0  0  0  0  0  0  0  0
   56.2870   31.2950   44.5150 O   0  0  0  0  0  0  0  0  0  0  0  0
   56.3530   30.5820   43.3030 C   0  0  0  0  0  0  0  0  0  0  0  0
   58.2530   30.7770   45.7120 C   0  0  0  0  0  0  0  0  0  0  0  0
   58.0840   29.4260   45.4910 C   0  0  0  0  0  0  0  0  0  0  0  0
   58.9930   28.5070   45.9860 C   0  0  0  0  0  0  0  0  0  0  0  0
   58.8860   27.0800   45.7990 C   0  0  0  0  0  0  0  0  0  0  0  0
   57.7740   26.4400   45.2920 C   0  0  0  0  0  0  0  0  0  0  0  0
   57.7580   25.0500   45.1440 C   0  0  0  0  0  0  0  0  0  0  0  0
   58.8380   24.2670   45.4930 C   0  0  0  0  0  0  0  0  0  0  0  0
   58.7710   22.8700   45.3280 N   0  0  0  0  0  0  0  0  0  0  0  0
   59.9420   22.2090   44.7380 C   0  0  0  0  0  0  0  0  0  0  0  0
   57.6660   22.0380   45.6850 C   0  0  0  0  0  0  0  0  0  0  0  0
   57.2550   21.1910   44.4750 C   0  0  0  0  0  0  0  0  0  0  0  0
   56.1230   21.8110   43.7920 N   0  0  0  0  0  0  0  0  0  0  0  0
   56.6100   22.4630   42.6110 C   0  0  0  0  0  0  0  0  0  0  0  0
   55.4440   22.7790   44.6210 C   0  0  0  0  0  0  0  0  0  0  0  0
   59.9480   24.9100   46.0000 C   0  0  0  0  0  0  0  0  0  0  0  0
   59.9690   26.2850   46.1480 C   0  0  0  0  0  0  0  0  0  0  0  0
   60.0730   29.0020   46.7110 C   0  0  0  0  0  0  0  0  0  0  0  0
   60.2520   30.3470   46.9380 C   0  0  0  0  0  0  0  0  0  0  0  0
   59.3320   31.2460   46.4350 C   0  0  0  0  0  0  0  0  0  0  0  0
   59.5470   32.5880   46.6850 C   0  0  0  0  0  0  0  0  0  0  0  0
   60.7070   32.9990   47.4540 C   0  0  0  0  0  0  0  0  0  0  0  0
   61.9240   33.0910   46.8120 C   0  0  0  0  0  0  0  0  0  0  0  0
   63.0180   33.4810   47.5490 C   0  0  0  0  0  0  0  0  0  0  0  0
   62.9060   33.7630   48.8500 N   0  0  0  0  0  0  0  0  0  0  0  0
   61.7250   33.6710   49.4620 C   0  0  0  0  0  0  0  0  0  0  0  0
   60.5540   33.2840   48.8070 C   0  0  0  0  0  0  0  0  0  0  0  0
   60.3150   36.2919   46.1500 H   0  0  0  0  0  0  0  0  0  0  0  0
   60.2497   34.9629   44.9434 H   0  0  0  0  0  0  0  0  0  0  0  0
   58.9854   36.2388   44.9434 H   0  0  0  0  0  0  0  0  0  0  0  0
   56.8317   33.8095   45.0738 H   0  0  0  0  0  0  0  0  0  0  0  0
   56.4525   29.5072   43.5148 H   0  0  0  0  0  0  0  0  0  0  0  0
   55.4347   30.7580   42.7235 H   0  0  0  0  0  0  0  0  0  0  0  0
   57.2234   30.9236   42.7235 H   0  0  0  0  0  0  0  0  0  0  0  0
   57.2159   29.0745   44.9141 H   0  0  0  0  0  0  0  0  0  0  0  0
   56.8916   27.0290   45.0015 H   0  0  0  0  0  0  0  0  0  0  0  0
   56.8575   24.5667   44.7372 H   0  0  0  0  0  0  0  0  0  0  0  0
   60.5973   21.8391   45.5404 H   0  0  0  0  0  0  0  0  0  0  0  0
   59.6115   21.3642   44.1158 H   0  0  0  0  0  0  0  0  0  0  0  0
   60.4945   22.9285   44.1158 H   0  0  0  0  0  0  0  0  0  0  0  0
   57.9574   21.3765   46.5141 H   0  0  0  0  0  0  0  0  0  0  0  0
   56.8192   22.6661   45.9987 H   0  0  0  0  0  0  0  0  0  0  0  0
   58.1032   21.1149   43.7787 H   0  0  0  0  0  0  0  0  0  0  0  0
   56.9633   20.1878   44.8192 H   0  0  0  0  0  0  0  0  0  0  0  0
   57.2455   23.3139   42.8975 H   0  0  0  0  0  0  0  0  0  0  0  0
   57.1986   21.7501   42.0148 H   0  0  0  0  0  0  0  0  0  0  0  0
   55.7594   22.8251   42.0148 H   0  0  0  0  0  0  0  0  0  0  0  0
   55.6135   22.5374   45.6807 H   0  0  0  0  0  0  0  0  0  0  0  0
   55.8359   23.7843   44.4069 H   0  0  0  0  0  0  0  0  0  0  0  0
   54.3654   22.7527   44.4069 H   0  0  0  0  0  0  0  0  0  0  0  0
   60.8298   24.3203   46.2910 H   0  0  0  0  0  0  0  0  0  0  0  0
   60.8721   26.7634   46.5549 H   0  0  0  0  0  0  0  0  0  0  0  0
   60.8094   28.2928   47.1168 H   0  0  0  0  0  0  0  0  0  0  0  0
   61.1189   30.7028   47.5142 H   0  0  0  0  0  0  0  0  0  0  0  0
   62.0173   32.8591   45.7408 H   0  0  0  0  0  0  0  0  0  0  0  0
   63.9999   33.5619   47.0597 H   0  0  0  0  0  0  0  0  0  0  0  0
   61.6705   33.9114   50.5340 H   0  0  0  0  0  0  0  0  0  0  0  0
   59.5846   33.2101   49.3216 H   0  0  0  0  0  0  0  0  0  0  0  0
  1  2  1  0
  2  3  1  0
  3  4  2  0
  4  5  1  0
  5  6  1  0
  6  7  1  0
  5  8  2  0
  8  9  1  0
  9 10  2  0
 10 11  1  0
 11 12  2  0
 12 13  1  0
 13 14  2  0
 14 15  1  0
 15 16  1  0
 15 17  1  0
 17 18  1  0
 18 19  1  0
 19 20  1  0
 19 21  1  0
 14 22  1  0
 22 23  2  0
 10 24  1  0
 24 25  2  0
 25 26  1  0
 26 27  2  0
 27 28  1  0
 28 29  2  0
 29 30  1  0
 30 31  2  0
 31 32  1  0
 32 33  2  0
 27  3  1  0
 33 28  1  0
 26  8  1  0
 23 11  1  0
  1 34  1  0
  1 35  1  0
  1 36  1  0
  4 37  1  0
  7 38  1  0
  7 39  1  0
  7 40  1  0
  9 41  1  0
 12 42  1  0
 13 43  1  0
 16 44  1  0
 16 45  1  0
 16 46  1  0
 17 47  1  0
 17 48  1  0
 18 49  1  0
 18 50  1  0
 20 51  1  0
 20 52  1  0
 20 53  1  0
 21 54  1  0
 21 55  1  0
 21 56  1  0
 22 57  1  0
 23 58  1  0
 24 59  1  0
 25 60  1  0
 29 61  1  0
 30 62  1  0
 32 63  1  0
 33 64  1  0
M  END
>  <smiles>  (22) 
COc1cc(OC)c2cc(-c3ccc(N(C)CCN(C)C)cc3)ccc2c1-c1ccncc1

>  <score_type>  (22) 
oracle

>  <origin>  (22) 
adg

>  <m_score__min__energy>  (22) 
-8.8900000000000006

>  <m_primary>  (22) 
energy

$$$$
22:0
     RDKit          3D

 64 67  0  0  0  0  0  0  0  0999 V2000
   54.3120   24.0710   45.7990 C   0  0  0  0  0  0  0  0  0  0  0  0
   55.5420   24.5110   46.3420 N   0  0  0  0  0  0  0  0  0  0  0  0
   55.9030   24.0120   47.6160 C   0  0  0  0  0  0  0  0  0  0  0  0
   56.0070   25.7880   45.9780 C   0  0  0  0  0  0  0  0  0  0  0  0
   57.4530   26.0380   46.1180 C   0  0  0  0  0  0  0  0  0  0  0  0
   58.3550   25.0210   45.8690 C   0  0  0  0  0  0  0  0  0  0  0  0
   59.7030   25.2730   46.0050 C   0  0  0  0  0  0  0  0  0  0  0  0
   60.1430   26.5220   46.3810 C   0  0  0  0  0  0  0  0  0  0  0  0
   59.2600   27.5760   46.6410 C   0  0  0  0  0  0  0  0  0  0  0  0
   59.7680   28.8360   47.0240 N   0  0  0  0  0  0  0  0  0  0  0  0
   60.2230   29.1800   48.3530 C   0  0  0  0  0  0  0  0  0  0  0  0
   59.3300   30.3140   48.8260 C   0  0  0  0  0  0  0  0  0  0  0  0
   59.4520   31.4190   47.9360 N   0  0  0  0  0  0  0  0  0  0  0  0
   58.1920   32.1040   47.6820 C   0  0  0  0  0  0  0  0  0  0  0  0
   58.0570   32.2500   46.2130 C   0  0  0  0  0  0  0  0  0  0  0  0
   57.4960   31.2310   45.4590 C   0  0  0  0  0  0  0  0  0  0  0  0
   57.3500   31.3220   44.0910 C   0  0  0  0  0  0  0  0  0  0  0  0
   56.5820   29.9320   43.0430 Br  0  0  0  0  0  0  0  0  0  0  0  0
   57.7740   32.4620   43.4250 C   0  0  0  0  0  0  0  0  0  0  0  0
   58.3420   33.5050   44.1630 C   0  0  0  0  0  0  0  0  0  0  0  0
   58.4740   33.3810   45.5450 C   0  0  0  0  0  0  0  0  0  0  0  0
   59.0500   34.4430   46.2610 O   0  0  0  0  0  0  0  0  0  0  0  0
   60.3750   34.8730   45.9980 C   0  0  0  0  0  0  0  0  0  0  0  0
   61.3710   34.2470   46.9070 C   0  0  0  0  0  0  0  0  0  0  0  0
   61.0460   34.1350   48.2590 C   0  0  0  0  0  0  0  0  0  0  0  0
   61.9450   33.5590   49.1410 C   0  0  0  0  0  0  0  0  0  0  0  0
   63.1720   33.0970   48.6520 C   0  0  0  0  0  0  0  0  0  0  0  0
   64.4460   32.2920   49.8440 Br  0  0  0  0  0  0  0  0  0  0  0  0
   63.4680   33.2230   47.2920 C   0  0  0  0  0  0  0  0  0  0  0  0
   62.5760   33.7970   46.4050 C   0  0  0  0  0  0  0  0  0  0  0  0
   60.2080   31.2000   46.7460 C   0  0  0  0  0  0  0  0  0  0  0  0
   59.8560   29.9130   46.0260 C   0  0  0  0  0  0  0  0  0  0  0  0
   57.9250   27.2840   46.4960 C   0  0  0  0  0  0  0  0  0  0  0  0
   53.6184   23.8229   46.6159 H   0  0  0  0  0  0  0  0  0  0  0  0
   53.8781   24.8697   45.1794 H   0  0  0  0  0  0  0  0  0  0  0  0
   54.4831   23.1783   45.1794 H   0  0  0  0  0  0  0  0  0  0  0  0
   55.4493   24.6392   48.3975 H   0  0  0  0  0  0  0  0  0  0  0  0
   55.5425   22.9780   47.7204 H   0  0  0  0  0  0  0  0  0  0  0  0
   56.9979   24.0309   47.7204 H   0  0  0  0  0  0  0  0  0  0  0  0
   55.7430   25.9490   44.9224 H   0  0  0  0  0  0  0  0  0  0  0  0
   55.5273   26.4796   46.6863 H   0  0  0  0  0  0  0  0  0  0  0  0
   58.0018   24.0241   45.5664 H   0  0  0  0  0  0  0  0  0  0  0  0
   60.4314   24.4717   45.8120 H   0  0  0  0  0  0  0  0  0  0  0  0
   61.2244   26.6973   46.4804 H   0  0  0  0  0  0  0  0  0  0  0  0
   60.1279   28.3141   49.0247 H   0  0  0  0  0  0  0  0  0  0  0  0
   61.2818   29.4781   48.3497 H   0  0  0  0  0  0  0  0  0  0  0  0
   58.2843   29.9731   48.8457 H   0  0  0  0  0  0  0  0  0  0  0  0
   59.6349   30.6227   49.8368 H   0  0  0  0  0  0  0  0  0  0  0  0
   57.3548   31.5116   48.0798 H   0  0  0  0  0  0  0  0  0  0  0  0
   58.1780   33.0879   48.1737 H   0  0  0  0  0  0  0  0  0  0  0  0
   57.1555   30.3182   45.9698 H   0  0  0  0  0  0  0  0  0  0  0  0
   57.6652   32.5445   42.3335 H   0  0  0  0  0  0  0  0  0  0  0  0
   58.6831   34.4192   43.6552 H   0  0  0  0  0  0  0  0  0  0  0  0
   60.6310   34.6107   44.9609 H   0  0  0  0  0  0  0  0  0  0  0  0
   60.4111   35.9600   46.1627 H   0  0  0  0  0  0  0  0  0  0  0  0
   60.0763   34.5040   48.6243 H   0  0  0  0  0  0  0  0  0  0  0  0
   61.6984   33.4661   50.2090 H   0  0  0  0  0  0  0  0  0  0  0  0
   64.4351   32.8562   46.9177 H   0  0  0  0  0  0  0  0  0  0  0  0
   62.8180   33.8919   45.3362 H   0  0  0  0  0  0  0  0  0  0  0  0
   60.0276   32.0413   46.0607 H   0  0  0  0  0  0  0  0  0  0  0  0
   61.2632   31.1208   47.0466 H   0  0  0  0  0  0  0  0  0  0  0  0
   58.8891   30.0256   45.5137 H   0  0  0  0  0  0  0  0  0  0  0  0
   60.6256   29.6744   45.2771 H   0  0  0  0  0  0  0  0  0  0  0  0
   57.1929   28.0817   46.6903 H   0  0  0  0  0  0  0  0  0  0  0  0
  1  2  1  0
  2  3  1  0
  2  4  1  0
  4  5  1  0
  5  6  2  0
  6  7  1  0
  7  8  2  0
  8  9  1  0
  9 10  1  0
 10 11  1  0
 11 12  1  0
 12 13  1  0
 13 14  1  0
 14 15  1  0
 15 16  2  0
 16 17  1  0
 17 18  1  0
 17 19  2  0
 19 20  1  0
 20 21  2  0
 21 22  1  0
 22 23  1  0
 23 24  1  0
 24 25  2  0
 25 26  1  0
 26 27  2  0
 27 28  1  0
 27 29  1  0
 29 30  2  0
 13 31  1  0
 31 32  1  0
  9 33  2  0
 33  5  1  0
 32 10  1  0
 21 15  1  0
 30 24  1  0
  1 34  1  0
  1 35  1  0
  1 36  1  0
  3 37  1  0
  3 38  1  0
  3 39  1  0
  4 40  1  0
  4 41  1  0
  6 42  1  0
  7 43  1  0
  8 44  1  0
 11 45  1  0
 11 46  1  0
 12 47  1  0
 12 48  1  0
 14 49  1  0
 14 50  1  0
 16 51  1  0
 19 52  1  0
 20 53  1  0
 23 54  1  0
 23 55  1  0
 25 56  1  0
 26 57  1  0
 29 58  1  0
 30 59  1  0
 31 60  1  0
 31 61  1  0
 32 62  1  0
 32 63  1  0
 33 64  1  0
M  END
>  <smiles>  (23) 
CN(C)Cc1cccc(N2CCN(Cc3cc(Br)ccc3OCc3ccc(Br)cc3)CC2)c1

>  <score_type>  (23) 
oracle

>  <origin>  (23) 
adg

>  <m_score__min__energy>  (23) 
-9.4700000000000006

>  <m_primary>  (23) 
energy

$$$$
23:0
     RDKit          3D

 55 56  0  0  1  0  0  0  0  0999 V2000
   57.1030   32.4540   40.6000 C   0  0  0  0  0  0  0  0  0  0  0  0
   57.7630   31.9580   41.8980 C   0  0  0  0  0  0  0  0  0  0  0  0
   57.0010   30.8340   42.4970 C   0  0  0  0  0  0  0  0  0  0  0  0
   57.2510   30.7510   44.2390 S   0  0  0  0  0  0  0  0  0  0  0  0
   58.2150   29.5960   44.4640 O   0  0  0  0  0  0  0  0  0  0  0  0
   55.8910   30.3550   44.8270 O   0  0  0  0  0  0  0  0  0  0  0  0
   57.7310   32.1670   44.9510 N   0  0  0  0  0  0  0  0  0  0  0  0
   56.8370   33.1400   45.4060 C   0  0  0  0  0  0  0  0  0  0  0  0
   57.3930   34.5550   45.2880 C   0  0  0  0  0  0  0  0  0  0  0  0
   58.8650   34.6180   45.3720 C   0  0  0  0  0  0  0  0  0  0  0  0
   59.5870   33.4350   45.9230 C   0  0  1  0  0  0  0  0  0  0  0  0
   59.9300   33.6430   47.3540 C   0  0  0  0  0  0  0  0  0  0  0  0
   59.2930   34.4950   48.0540 O   0  0  0  0  0  0  0  0  0  0  0  0
   60.9570   32.9350   48.0290 N   0  0  0  0  0  0  0  0  0  0  0  0
   61.1790   33.2300   49.4270 C   0  0  0  0  0  0  0  0  0  0  0  0
   62.5880   33.8350   49.4940 C   0  0  0  0  0  0  0  0  0  0  0  0
   63.5070   33.0970   48.6870 N   0  0  0  0  0  0  0  0  0  0  0  0
   63.7670   33.8290   47.4540 C   0  0  0  0  0  0  0  0  0  0  0  0
   64.7280   32.8960   49.4440 C   0  0  0  0  0  0  0  0  0  0  0  0
   64.6190   31.8470   50.5060 C   0  0  0  0  0  0  0  0  0  0  0  0
   63.0280   31.7880   48.3230 C   0  0  0  0  0  0  0  0  0  0  0  0
   61.8050   31.9410   47.4110 C   0  0  0  0  0  0  0  0  0  0  0  0
   58.8720   32.1180   45.7930 C   0  0  0  0  0  0  0  0  0  0  0  0
   56.2461   33.0979   40.8472 H   0  0  0  0  0  0  0  0  0  0  0  0
   57.8350   33.0274   40.0123 H   0  0  0  0  0  0  0  0  0  0  0  0
   56.7559   31.5914   40.0123 H   0  0  0  0  0  0  0  0  0  0  0  0
   58.7847   31.6182   41.6729 H   0  0  0  0  0  0  0  0  0  0  0  0
   57.7782   32.7891   42.6184 H   0  0  0  0  0  0  0  0  0  0  0  0
   55.9295   30.9790   42.2949 H   0  0  0  0  0  0  0  0  0  0  0  0
   57.3567   29.8944   42.0491 H   0  0  0  0  0  0  0  0  0  0  0  0
   55.9138   33.0745   44.8115 H   0  0  0  0  0  0  0  0  0  0  0  0
   56.6504   32.9454   46.4725 H   0  0  0  0  0  0  0  0  0  0  0  0
   57.0814   34.9718   44.3189 H   0  0  0  0  0  0  0  0  0  0  0  0
   56.9956   35.1306   46.1369 H   0  0  0  0  0  0  0  0  0  0  0  0
   59.2437   34.7867   44.3531 H   0  0  0  0  0  0  0  0  0  0  0  0
   59.0643   35.4224   46.0953 H   0  0  0  0  0  0  0  0  0  0  0  0
   60.4880   33.3638   45.2960 H   0  0  0  0  0  0  0  0  0  0  0  0
   60.4324   33.9506   49.7921 H   0  0  0  0  0  0  0  0  0  0  0  0
   61.0879   32.3317   50.0554 H   0  0  0  0  0  0  0  0  0  0  0  0
   62.5496   34.8740   49.1349 H   0  0  0  0  0  0  0  0  0  0  0  0
   62.9335   33.7973   50.5377 H   0  0  0  0  0  0  0  0  0  0  0  0
   64.1261   34.8400   47.6966 H   0  0  0  0  0  0  0  0  0  0  0  0
   64.5319   33.2991   46.8674 H   0  0  0  0  0  0  0  0  0  0  0  0
   62.8392   33.9004   46.8674 H   0  0  0  0  0  0  0  0  0  0  0  0
   65.5238   32.5993   48.7449 H   0  0  0  0  0  0  0  0  0  0  0  0
   64.9461   33.8454   49.9550 H   0  0  0  0  0  0  0  0  0  0  0  0
   64.6684   32.3220   51.4970 H   0  0  0  0  0  0  0  0  0  0  0  0
   63.6609   31.3169   50.4008 H   0  0  0  0  0  0  0  0  0  0  0  0
   65.4476   31.1312   50.4008 H   0  0  0  0  0  0  0  0  0  0  0  0
   63.8194   31.2404   47.7902 H   0  0  0  0  0  0  0  0  0  0  0  0
   62.7494   31.2287   49.2283 H   0  0  0  0  0  0  0  0  0  0  0  0
   62.1161   32.2754   46.4103 H   0  0  0  0  0  0  0  0  0  0  0  0
   61.2755   30.9845   47.2902 H   0  0  0  0  0  0  0  0  0  0  0  0
   59.5760   31.3803   45.3806 H   0  0  0  0  0  0  0  0  0  0  0  0
   58.5174   31.8452   46.7979 H   0  0  0  0  0  0  0  0  0  0  0  0
  1  2  1  0
  2  3  1  0
  3  4  1  0
  4  5  2  0
  4  6  2  0
  4  7  1  0
  7  8  1  0
  8  9  1  0
  9 10  1  0
 10 11  1  0
 11 12  1  0
 12 13  2  0
 12 14  1  0
 14 15  1  0
 15 16  1  0
 16 17  1  0
 17 18  1  0
 17 19  1  0
 19 20  1  0
 17 21  1  0
 21 22  1  0
 11 23  1  0
 23  7  1  0
 22 14  1  0
  1 24  1  0
  1 25  1  0
  1 26  1  0
  2 27  1  0
  2 28  1  0
  3 29  1  0
  3 30  1  0
  8 31  1  0
  8 32  1  0
  9 33  1  0
  9 34  1  0
 10 35  1  0
 10 36  1  0
 11 37  1  6
 15 38  1  0
 15 39  1  0
 16 40  1  0
 16 41  1  0
 18 42  1  0
 18 43  1  0
 18 44  1  0
 19 45  1  0
 19 46  1  0
 20 47  1  0
 20 48  1  0
 20 49  1  0
 21 50  1  0
 21 51  1  0
 22 52  1  0
 22 53  1  0
 23 54  1  0
 23 55  1  0
M  CHG  1  17   1
M  END
>  <smiles>  (24) 
CCCS(=O)(=O)N1CCCC(C(=O)N2CC[N+](C)(CC)CC2)C1

>  <score_type>  (24) 
oracle

>  <origin>  (24) 
adg

>  <m_score__min__energy>  (24) 
-7.4100000000000001

>  <m_primary>  (24) 
energy

$$$$
24:0
     RDKit          3D

 39 40  0  0  0  0  0  0  0  0999 V2000
   56.5740   30.0410   42.7750 C   0  0  0  0  0  0  0  0  0  0  0  0
   55.5400   29.8270   43.8950 C   0  0  0  0  0  0  0  0  0  0  0  0
   56.1690   29.7900   45.1610 N   0  0  0  0  0  0  0  0  0  0  0  0
   57.4650   29.2480   45.2750 C   0  0  0  0  0  0  0  0  0  0  0  0
   58.3320   29.7410   46.3410 C   0  0  0  0  0  0  0  0  0  0  0  0
   59.1230   29.0600   47.2420 C   0  0  0  0  0  0  0  0  0  0  0  0
   59.2690   27.5850   47.3530 C   0  0  0  0  0  0  0  0  0  0  0  0
   59.7400   29.9400   48.0160 N   0  0  0  0  0  0  0  0  0  0  0  0
   59.3950   31.1940   47.6720 N   0  0  0  0  0  0  0  0  0  0  0  0
   59.9370   32.3320   48.3750 C   0  0  0  0  0  0  0  0  0  0  0  0
   61.3350   32.6360   48.0930 C   0  0  0  0  0  0  0  0  0  0  0  0
   61.6310   33.5430   47.0670 C   0  0  0  0  0  0  0  0  0  0  0  0
   60.3720   34.3090   46.1220 Cl  0  0  0  0  0  0  0  0  0  0  0  0
   62.9350   33.8740   46.7590 C   0  0  0  0  0  0  0  0  0  0  0  0
   64.0040   33.3370   47.4340 C   0  0  0  0  0  0  0  0  0  0  0  0
   63.7290   32.4410   48.4470 C   0  0  0  0  0  0  0  0  0  0  0  0
   62.4230   32.1120   48.7540 C   0  0  0  0  0  0  0  0  0  0  0  0
   62.1390   30.8860   50.1750 Br  0  0  0  0  0  0  0  0  0  0  0  0
   58.5440   31.0900   46.6620 C   0  0  0  0  0  0  0  0  0  0  0  0
   57.8990   32.2010   45.9500 C   0  0  0  0  0  0  0  0  0  0  0  0
   57.5593   30.2449   43.2196 H   0  0  0  0  0  0  0  0  0  0  0  0
   56.6329   29.1360   42.1525 H   0  0  0  0  0  0  0  0  0  0  0  0
   56.2688   30.8950   42.1525 H   0  0  0  0  0  0  0  0  0  0  0  0
   54.8137   30.6530   43.8775 H   0  0  0  0  0  0  0  0  0  0  0  0
   55.0323   28.8659   43.7262 H   0  0  0  0  0  0  0  0  0  0  0  0
   55.5800   29.7100   45.9930 H   0  0  0  0  0  0  0  0  0  0  0  0
   57.3523   28.1638   45.4226 H   0  0  0  0  0  0  0  0  0  0  0  0
   57.9708   29.5592   44.3491 H   0  0  0  0  0  0  0  0  0  0  0  0
   59.2974   27.2982   48.4146 H   0  0  0  0  0  0  0  0  0  0  0  0
   58.4151   27.0941   46.8633 H   0  0  0  0  0  0  0  0  0  0  0  0
   60.2026   27.2711   46.8633 H   0  0  0  0  0  0  0  0  0  0  0  0
   59.3373   33.2139   48.1056 H   0  0  0  0  0  0  0  0  0  0  0  0
   59.8931   32.0759   49.4439 H   0  0  0  0  0  0  0  0  0  0  0  0
   63.1244   34.5911   45.9466 H   0  0  0  0  0  0  0  0  0  0  0  0
   65.0381   33.6103   47.1773 H   0  0  0  0  0  0  0  0  0  0  0  0
   64.5549   31.9860   49.0134 H   0  0  0  0  0  0  0  0  0  0  0  0
   57.4856   32.9131   46.6793 H   0  0  0  0  0  0  0  0  0  0  0  0
   58.6409   32.7119   45.3187 H   0  0  0  0  0  0  0  0  0  0  0  0
   57.0875   31.8100   45.3187 H   0  0  0  0  0  0  0  0  0  0  0  0
  1  2  1  0
  2  3  1  0
  3  4  1  0
  4  5  1  0
  5  6  1  0
  6  7  1  0
  6  8  2  0
  8  9  1  0
  9 10  1  0
 10 11  1  0
 11 12  2  0
 12 13  1  0
 12 14  1  0
 14 15  2  0
 15 16  1  0
 16 17  2  0
 17 18  1  0
  9 19  1  0
 19 20  1  0
 19  5  2  0
 17 11  1  0
  1 21  1  0
  1 22  1  0
  1 23  1  0
  2 24  1  0
  2 25  1  0
  3 26  1  0
  4 27  1  0
  4 28  1  0
  7 29  1  0
  7 30  1  0
  7 31  1  0
 10 32  1  0
 10 33  1  0
 14 34  1  0
 15 35  1  0
 16 36  1  0
 20 37  1  0
 20 38  1  0
 20 39  1  0
M  END
>  <smiles>  (25) 
CCNCc1c(C)nn(Cc2c(Cl)cccc2Br)c1C

>  <score_type>  (25) 
oracle

>  <origin>  (25) 
adg

>  <m_score__min__energy>  (25) 
-7.5800000000000001

>  <m_primary>  (25) 
energy

$$$$
25:0
     RDKit          3D

 48 49  0  0  0  0  0  0  0  0999 V2000
   57.9020   32.0130   42.6590 C   0  0  0  0  0  0  0  0  0  0  0  0
   58.3440   32.3660   43.9090 O   0  0  0  0  0  0  0  0  0  0  0  0
   57.3810   32.8750   44.7430 C   0  0  0  0  0  0  0  0  0  0  0  0
   57.7560   34.2280   45.3110 C   0  0  0  0  0  0  0  0  0  0  0  0
   58.5040   34.1970   46.4940 N   0  0  0  0  0  0  0  0  0  0  0  0
   58.0550   33.2940   47.4630 C   0  0  0  0  0  0  0  0  0  0  0  0
   58.6870   31.9470   47.4340 C   0  0  0  0  0  0  0  0  0  0  0  0
   58.5180   31.0810   48.3280 O   0  0  0  0  0  0  0  0  0  0  0  0
   59.5350   31.6100   46.3400 N   0  0  0  0  0  0  0  0  0  0  0  0
   60.1370   30.2970   46.3430 C   0  0  0  0  0  0  0  0  0  0  0  0
   59.4530   29.3570   45.4940 C   0  0  0  0  0  0  0  0  0  0  0  0
   59.8010   28.2720   44.7530 C   0  0  0  0  0  0  0  0  0  0  0  0
   58.9060   27.5890   44.0560 C   0  0  0  0  0  0  0  0  0  0  0  0
   57.5670   28.0220   44.1020 C   0  0  0  0  0  0  0  0  0  0  0  0
   57.6250   29.5060   45.2260 S   0  0  0  0  0  0  0  0  0  0  0  0
   59.6070   35.0200   46.7010 C   0  0  0  0  0  0  0  0  0  0  0  0
   60.8150   34.2950   47.2420 C   0  0  0  0  0  0  0  0  0  0  0  0
   61.8100   33.8260   46.3810 C   0  0  0  0  0  0  0  0  0  0  0  0
   62.9190   33.1530   46.8480 C   0  0  0  0  0  0  0  0  0  0  0  0
   63.0810   32.9210   48.1980 C   0  0  0  0  0  0  0  0  0  0  0  0
   62.0980   33.3860   49.0370 C   0  0  0  0  0  0  0  0  0  0  0  0
   60.9750   34.0640   48.5930 C   0  0  0  0  0  0  0  0  0  0  0  0
   59.9980   34.5210   49.4690 O   0  0  0  0  0  0  0  0  0  0  0  0
   59.6410   33.6760   50.5460 C   0  0  0  0  0  0  0  0  0  0  0  0
   57.0456   31.3290   42.7525 H   0  0  0  0  0  0  0  0  0  0  0  0
   57.5925   32.9153   42.1112 H   0  0  0  0  0  0  0  0  0  0  0  0
   58.7135   31.5117   42.1112 H   0  0  0  0  0  0  0  0  0  0  0  0
   56.4437   32.9785   44.1766 H   0  0  0  0  0  0  0  0  0  0  0  0
   57.2709   32.1788   45.5875 H   0  0  0  0  0  0  0  0  0  0  0  0
   58.3445   34.7635   44.5515 H   0  0  0  0  0  0  0  0  0  0  0  0
   56.8072   34.7230   45.5656 H   0  0  0  0  0  0  0  0  0  0  0  0
   58.2476   33.7361   48.4516 H   0  0  0  0  0  0  0  0  0  0  0  0
   56.9891   33.1291   47.2472 H   0  0  0  0  0  0  0  0  0  0  0  0
   59.7330   32.2600   45.5550 H   0  0  0  0  0  0  0  0  0  0  0  0
   61.1769   30.3885   45.9964 H   0  0  0  0  0  0  0  0  0  0  0  0
   60.0763   29.9122   47.3717 H   0  0  0  0  0  0  0  0  0  0  0  0
   60.8535   27.9530   44.7318 H   0  0  0  0  0  0  0  0  0  0  0  0
   59.1990   26.7119   43.4604 H   0  0  0  0  0  0  0  0  0  0  0  0
   56.6935   27.5869   43.5943 H   0  0  0  0  0  0  0  0  0  0  0  0
   59.8807   35.4812   45.7406 H   0  0  0  0  0  0  0  0  0  0  0  0
   59.3145   35.7636   47.4570 H   0  0  0  0  0  0  0  0  0  0  0  0
   61.7058   33.9985   45.2996 H   0  0  0  0  0  0  0  0  0  0  0  0
   63.6808   32.7982   46.1382 H   0  0  0  0  0  0  0  0  0  0  0  0
   63.9603   32.3862   48.5863 H   0  0  0  0  0  0  0  0  0  0  0  0
   62.2084   33.2109   50.1173 H   0  0  0  0  0  0  0  0  0  0  0  0
   59.8557   34.1843   51.4976 H   0  0  0  0  0  0  0  0  0  0  0  0
   58.5675   33.4429   50.4889 H   0  0  0  0  0  0  0  0  0  0  0  0
   60.2222   32.7438   50.4889 H   0  0  0  0  0  0  0  0  0  0  0  0
  1  2  1  0
  2  3  1  0
  3  4  1  0
  4  5  1  0
  5  6  1  0
  6  7  1  0
  7  8  2  0
  7  9  1  0
  9 10  1  0
 10 11  1  0
 11 12  2  0
 12 13  1  0
 13 14  2  0
 14 15  1  0
  5 16  1  0
 16 17  1  0
 17 18  2  0
 18 19  1  0
 19 20  2  0
 20 21  1  0
 21 22  2  0
 22 23  1  0
 23 24  1  0
 15 11  1  0
 22 17  1  0
  1 25  1  0
  1 26  1  0
  1 27  1  0
  3 28  1  0
  3 29  1  0
  4 30  1  0
  4 31  1  0
  6 32  1  0
  6 33  1  0
  9 34  1  0
 10 35  1  0
 10 36  1  0
 12 37  1  0
 13 38  1  0
 14 39  1  0
 16 40  1  0
 16 41  1  0
 18 42  1  0
 19 43  1  0
 20 44  1  0
 21 45  1  0
 24 46  1  0
 24 47  1  0
 24 48  1  0
M  END
>  <smiles>  (26) 
COCCN(CC(=O)NCc1cccs1)Cc1ccccc1OC

>  <score_type>  (26) 
oracle

>  <origin>  (26) 
adg

>  <m_score__min__energy>  (26) 
-6.8799999999999999

>  <m_primary>  (26) 
energy

$$$$
26:0
     RDKit          3D

 52 54  0  0  0  0  0  0  0  0999 V2000
   57.4070   26.0740   46.6870 C   0  0  0  0  0  0  0  0  0  0  0  0
   57.5580   25.9560   45.4960 C   0  0  0  0  0  0  0  0  0  0  0  0
   57.7590   25.7990   44.0600 C   0  0  0  0  0  0  0  0  0  0  0  0
   58.1150   27.0250   43.4630 O   0  0  0  0  0  0  0  0  0  0  0  0
   58.5280   28.1460   44.1520 C   0  0  0  0  0  0  0  0  0  0  0  0
   59.7490   28.3460   44.3630 O   0  0  0  0  0  0  0  0  0  0  0  0
   57.4660   29.0830   44.6210 C   0  0  0  0  0  0  0  0  0  0  0  0
   57.9520   29.8900   45.7720 C   0  0  0  0  0  0  0  0  0  0  0  0
   58.7120   31.0720   45.2610 C   0  0  0  0  0  0  0  0  0  0  0  0
   57.9410   31.8720   44.3900 N   0  0  0  0  0  0  0  0  0  0  0  0
   57.1070   32.8660   44.9600 C   0  0  0  0  0  0  0  0  0  0  0  0
   57.8310   34.1960   44.9700 C   0  0  0  0  0  0  0  0  0  0  0  0
   58.1480   34.5790   46.3100 O   0  0  0  0  0  0  0  0  0  0  0  0
   59.3580   34.1640   46.8380 C   0  0  0  0  0  0  0  0  0  0  0  0
   59.3960   33.9680   48.2140 C   0  0  0  0  0  0  0  0  0  0  0  0
   60.5460   33.5580   48.8350 C   0  0  0  0  0  0  0  0  0  0  0  0
   61.6870   33.3350   48.0940 C   0  0  0  0  0  0  0  0  0  0  0  0
   62.8760   32.9040   48.8090 C   0  0  0  0  0  0  0  0  0  0  0  0
   62.7730   31.8090   49.6640 C   0  0  0  0  0  0  0  0  0  0  0  0
   63.8500   31.3360   50.3850 C   0  0  0  0  0  0  0  0  0  0  0  0
   65.0870   31.9670   50.2600 C   0  0  0  0  0  0  0  0  0  0  0  0
   66.5810   31.3180   51.2530 Br  0  0  0  0  0  0  0  0  0  0  0  0
   65.2220   33.0630   49.4140 C   0  0  0  0  0  0  0  0  0  0  0  0
   64.1020   33.5090   48.7030 C   0  0  0  0  0  0  0  0  0  0  0  0
   61.6470   33.5300   46.7260 C   0  0  0  0  0  0  0  0  0  0  0  0
   60.4920   33.9440   46.0840 C   0  0  0  0  0  0  0  0  0  0  0  0
   57.3970   31.2070   43.2480 C   0  0  0  0  0  0  0  0  0  0  0  0
   56.8520   29.8500   43.5030 C   0  0  0  0  0  0  0  0  0  0  0  0
   57.2693   26.1816   47.7730 H   0  0  0  0  0  0  0  0  0  0  0  0
   58.5625   25.0679   43.8870 H   0  0  0  0  0  0  0  0  0  0  0  0
   56.8176   25.4504   43.6103 H   0  0  0  0  0  0  0  0  0  0  0  0
   56.6195   28.5018   45.0154 H   0  0  0  0  0  0  0  0  0  0  0  0
   57.0938   30.2345   46.3677 H   0  0  0  0  0  0  0  0  0  0  0  0
   58.6096   29.2737   46.4026 H   0  0  0  0  0  0  0  0  0  0  0  0
   59.0283   31.6857   46.1173 H   0  0  0  0  0  0  0  0  0  0  0  0
   59.5761   30.6955   44.6939 H   0  0  0  0  0  0  0  0  0  0  0  0
   56.1860   32.9556   44.3652 H   0  0  0  0  0  0  0  0  0  0  0  0
   56.8542   32.5813   45.9920 H   0  0  0  0  0  0  0  0  0  0  0  0
   58.7605   34.1074   44.3885 H   0  0  0  0  0  0  0  0  0  0  0  0
   57.1788   34.9614   44.5242 H   0  0  0  0  0  0  0  0  0  0  0  0
   58.4899   34.1446   48.8122 H   0  0  0  0  0  0  0  0  0  0  0  0
   60.5591   33.4067   49.9245 H   0  0  0  0  0  0  0  0  0  0  0  0
   61.8009   31.3048   49.7677 H   0  0  0  0  0  0  0  0  0  0  0  0
   63.7338   30.4692   51.0522 H   0  0  0  0  0  0  0  0  0  0  0  0
   66.1920   33.5702   49.3057 H   0  0  0  0  0  0  0  0  0  0  0  0
   64.2091   34.3763   48.0349 H   0  0  0  0  0  0  0  0  0  0  0  0
   62.5557   33.3518   46.1324 H   0  0  0  0  0  0  0  0  0  0  0  0
   60.4791   34.0944   44.9944 H   0  0  0  0  0  0  0  0  0  0  0  0
   56.5836   31.8300   42.8476 H   0  0  0  0  0  0  0  0  0  0  0  0
   58.2345   31.0714   42.5478 H   0  0  0  0  0  0  0  0  0  0  0  0
   55.7793   29.9572   43.7217 H   0  0  0  0  0  0  0  0  0  0  0  0
   57.0799   29.2714   42.5956 H   0  0  0  0  0  0  0  0  0  0  0  0
  1  2  3  0
  2  3  1  0
  3  4  1  0
  4  5  1  0
  5  6  2  0
  5  7  1  0
  7  8  1  0
  8  9  1  0
  9 10  1  0
 10 11  1  0
 11 12  1  0
 12 13  1  0
 13 14  1  0
 14 15  2  0
 15 16  1  0
 16 17  2  0
 17 18  1  0
 18 19  2  0
 19 20  1  0
 20 21  2  0
 21 22  1  0
 21 23  1  0
 23 24  2  0
 17 25  1  0
 25 26  2  0
 10 27  1  0
 27 28  1  0
 28  7  1  0
 26 14  1  0
 24 18  1  0
  1 29  1  0
  3 30  1  0
  3 31  1  0
  7 32  1  0
  8 33  1  0
  8 34  1  0
  9 35  1  0
  9 36  1  0
 11 37  1  0
 11 38  1  0
 12 39  1  0
 12 40  1  0
 15 41  1  0
 16 42  1  0
 19 43  1  0
 20 44  1  0
 23 45  1  0
 24 46  1  0
 25 47  1  0
 26 48  1  0
 27 49  1  0
 27 50  1  0
 28 51  1  0
 28 52  1  0
M  END
>  <smiles>  (27) 
C#CCOC(=O)C1CCN(CCOc2ccc(-c3ccc(Br)cc3)cc2)CC1

>  <score_type>  (27) 
oracle

>  <origin>  (27) 
adg

>  <m_score__min__energy>  (27) 
-8.5899999999999999

>  <m_primary>  (27) 
energy

$$$$
27:0
     RDKit          3D

 48 50  0  0  0  0  0  0  0  0999 V2000
   65.1680   33.0690   49.7430 C   0  0  0  0  0  0  0  0  0  0  0  0
   63.8490   32.5540   49.7830 O   0  0  0  0  0  0  0  0  0  0  0  0
   62.9090   33.0590   48.8960 C   0  0  0  0  0  0  0  0  0  0  0  0
   61.7950   33.7050   49.4340 C   0  0  0  0  0  0  0  0  0  0  0  0
   60.8230   34.2300   48.6120 C   0  0  0  0  0  0  0  0  0  0  0  0
   60.9440   34.1210   47.2360 C   0  0  0  0  0  0  0  0  0  0  0  0
   59.6620   34.8170   46.2720 S   0  0  0  0  0  0  0  0  0  0  0  0
   59.9370   34.4600   44.8290 O   0  0  0  0  0  0  0  0  0  0  0  0
   59.6710   36.3140   46.3780 O   0  0  0  0  0  0  0  0  0  0  0  0
   58.1320   34.1550   46.6750 N   0  0  0  0  0  0  0  0  0  0  0  0
   58.2060   32.9560   47.4360 C   0  0  0  0  0  0  0  0  0  0  0  0
   58.5680   31.7740   46.6050 C   0  0  0  0  0  0  0  0  0  0  0  0
   57.8340   31.7660   45.3000 C   0  0  0  0  0  0  0  0  0  0  0  0
   57.3670   30.3810   45.0440 C   0  0  0  0  0  0  0  0  0  0  0  0
   56.1610   30.0950   44.7900 O   0  0  0  0  0  0  0  0  0  0  0  0
   58.3480   29.3500   45.0950 N   0  0  0  0  0  0  0  0  0  0  0  0
   58.0350   27.9750   44.8690 C   0  0  0  0  0  0  0  0  0  0  0  0
   57.6950   27.1630   45.9490 C   0  0  0  0  0  0  0  0  0  0  0  0
   57.3880   25.8130   45.7370 C   0  0  0  0  0  0  0  0  0  0  0  0
   57.4350   25.3350   44.4400 C   0  0  0  0  0  0  0  0  0  0  0  0
   57.7690   26.1240   43.3590 C   0  0  0  0  0  0  0  0  0  0  0  0
   58.0720   27.4590   43.5820 C   0  0  0  0  0  0  0  0  0  0  0  0
   56.7030   32.7560   45.2390 C   0  0  0  0  0  0  0  0  0  0  0  0
   57.2010   34.1210   45.6030 C   0  0  0  0  0  0  0  0  0  0  0  0
   62.0370   33.4860   46.6850 C   0  0  0  0  0  0  0  0  0  0  0  0
   63.0190   32.9560   47.5280 C   0  0  0  0  0  0  0  0  0  0  0  0
   65.5367   33.2130   50.7693 H   0  0  0  0  0  0  0  0  0  0  0  0
   65.8224   32.3603   49.2143 H   0  0  0  0  0  0  0  0  0  0  0  0
   65.1691   34.0336   49.2143 H   0  0  0  0  0  0  0  0  0  0  0  0
   61.6924   33.7957   50.5254 H   0  0  0  0  0  0  0  0  0  0  0  0
   59.9494   34.7365   49.0482 H   0  0  0  0  0  0  0  0  0  0  0  0
   58.9671   33.0823   48.2201 H   0  0  0  0  0  0  0  0  0  0  0  0
   57.2102   32.7705   47.8649 H   0  0  0  0  0  0  0  0  0  0  0  0
   59.6494   31.7970   46.4051 H   0  0  0  0  0  0  0  0  0  0  0  0
   58.2878   30.8668   47.1604 H   0  0  0  0  0  0  0  0  0  0  0  0
   58.5263   32.0902   44.5090 H   0  0  0  0  0  0  0  0  0  0  0  0
   59.3590   29.5870   45.3080 H   0  0  0  0  0  0  0  0  0  0  0  0
   57.6677   27.5813   46.9660 H   0  0  0  0  0  0  0  0  0  0  0  0
   57.1181   25.1539   46.5753 H   0  0  0  0  0  0  0  0  0  0  0  0
   57.1948   24.2764   44.2622 H   0  0  0  0  0  0  0  0  0  0  0  0
   57.7945   25.7038   42.3427 H   0  0  0  0  0  0  0  0  0  0  0  0
   58.3420   28.1095   42.7370 H   0  0  0  0  0  0  0  0  0  0  0  0
   56.2917   32.7777   44.2190 H   0  0  0  0  0  0  0  0  0  0  0  0
   55.9190   32.4549   45.9494 H   0  0  0  0  0  0  0  0  0  0  0  0
   57.6860   34.5548   44.7161 H   0  0  0  0  0  0  0  0  0  0  0  0
   56.3217   34.6884   45.9419 H   0  0  0  0  0  0  0  0  0  0  0  0
   62.1356   33.3972   45.5930 H   0  0  0  0  0  0  0  0  0  0  0  0
   63.8922   32.4493   47.0912 H   0  0  0  0  0  0  0  0  0  0  0  0
  1  2  1  0
  2  3  1  0
  3  4  2  0
  4  5  1  0
  5  6  2  0
  6  7  1  0
  7  8  2  0
  7  9  2  0
  7 10  1  0
 10 11  1  0
 11 12  1  0
 12 13  1  0
 13 14  1  0
 14 15  2  0
 14 16  1  0
 16 17  1  0
 17 18  2  0
 18 19  1  0
 19 20  2  0
 20 21  1  0
 21 22  2  0
 13 23  1  0
 23 24  1  0
  6 25  1  0
 25 26  2  0
 26  3  1  0
 24 10  1  0
 22 17  1  0
  1 27  1  0
  1 28  1  0
  1 29  1  0
  4 30  1  0
  5 31  1  0
 11 32  1  0
 11 33  1  0
 12 34  1  0
 12 35  1  0
 13 36  1  0
 16 37  1  0
 18 38  1  0
 19 39  1  0
 20 40  1  0
 21 41  1  0
 22 42  1  0
 23 43  1  0
 23 44  1  0
 24 45  1  0
 24 46  1  0
 25 47  1  0
 26 48  1  0
M  END
>  <smiles>  (28) 
COc1ccc(S(=O)(=O)N2CCC(C(=O)Nc3ccccc3)CC2)cc1

>  <score_type>  (28) 
oracle

>  <origin>  (28) 
adg

>  <m_score__min__energy>  (28) 
-8.8599999999999994

>  <m_primary>  (28) 
energy

$$$$
28:0
     RDKit          3D

 31 31  0  0  0  0  0  0  0  0999 V2000
   55.8720   30.0370   44.1440 C   0  0  0  0  0  0  0  0  0  0  0  0
   56.9460   30.6900   44.8730 N   0  0  0  0  0  0  0  0  0  0  0  0
   57.7910   29.7140   45.5430 C   0  0  0  0  0  0  0  0  0  0  0  0
   57.7510   31.5370   44.0090 C   0  0  0  0  0  0  0  0  0  0  0  0
   57.9330   32.8770   44.6840 C   0  0  0  0  0  0  0  0  0  0  0  0
   57.3290   32.8940   46.0080 N   0  0  0  0  0  0  0  0  0  0  0  0
   57.9630   34.0090   46.7130 C   0  0  0  0  0  0  0  0  0  0  0  0
   59.4120   33.7570   46.9160 C   0  0  0  0  0  0  0  0  0  0  0  0
   60.3940   34.2470   46.0830 C   0  0  0  0  0  0  0  0  0  0  0  0
   61.7070   33.9360   46.3860 C   0  0  0  0  0  0  0  0  0  0  0  0
   62.0710   33.1660   47.4700 C   0  0  0  0  0  0  0  0  0  0  0  0
   63.7330   32.7830   47.8370 Cl  0  0  0  0  0  0  0  0  0  0  0  0
   61.0810   32.6790   48.3010 C   0  0  0  0  0  0  0  0  0  0  0  0
   59.7670   32.9800   48.0150 C   0  0  0  0  0  0  0  0  0  0  0  0
   58.5350   32.3460   49.0900 Cl  0  0  0  0  0  0  0  0  0  0  0  0
   55.1564   29.6019   44.8572 H   0  0  0  0  0  0  0  0  0  0  0  0
   55.3567   30.7748   43.5115 H   0  0  0  0  0  0  0  0  0  0  0  0
   56.2899   29.2399   43.5115 H   0  0  0  0  0  0  0  0  0  0  0  0
   57.6913   29.8291   46.6324 H   0  0  0  0  0  0  0  0  0  0  0  0
   57.4814   28.6995   45.2517 H   0  0  0  0  0  0  0  0  0  0  0  0
   58.8394   29.8752   45.2517 H   0  0  0  0  0  0  0  0  0  0  0  0
   58.7326   31.0697   43.8416 H   0  0  0  0  0  0  0  0  0  0  0  0
   57.2501   31.6692   43.0386 H   0  0  0  0  0  0  0  0  0  0  0  0
   59.0088   33.0860   44.7792 H   0  0  0  0  0  0  0  0  0  0  0  0
   57.4380   33.6431   44.0691 H   0  0  0  0  0  0  0  0  0  0  0  0
   57.4320   31.9990   46.5020 H   0  0  0  0  0  0  0  0  0  0  0  0
   57.8374   34.9271   46.1202 H   0  0  0  0  0  0  0  0  0  0  0  0
   57.4853   34.1170   47.6980 H   0  0  0  0  0  0  0  0  0  0  0  0
   60.1425   34.8639   45.2077 H   0  0  0  0  0  0  0  0  0  0  0  0
   62.5005   34.3223   45.7293 H   0  0  0  0  0  0  0  0  0  0  0  0
   61.3368   32.0622   49.1751 H   0  0  0  0  0  0  0  0  0  0  0  0
  1  2  1  0
  2  3  1  0
  2  4  1  0
  4  5  1  0
  5  6  1  0
  6  7  1  0
  7  8  1  0
  8  9  2  0
  9 10  1  0
 10 11  2  0
 11 12  1  0
 11 13  1  0
 13 14  2  0
 14 15  1  0
 14  8  1  0
  1 16  1  0
  1 17  1  0
  1 18  1  0
  3 19  1  0
  3 20  1  0
  3 21  1  0
  4 22  1  0
  4 23  1  0
  5 24  1  0
  5 25  1  0
  6 26  1  0
  7 27  1  0
  7 28  1  0
  9 29  1  0
 10 30  1  0
 13 31  1  0
M  END
>  <smiles>  (29) 
CN(C)CCNCc1ccc(Cl)cc1Cl

>  <score_type>  (29) 
oracle

>  <origin>  (29) 
adg

>  <m_score__min__energy>  (29) 
-5.7300000000000004

>  <m_primary>  (29) 
energy

$$$$
29:0
     RDKit          3D

 56 58  0  0  0  0  0  0  0  0999 V2000
   56.0250   23.0920   42.9970 C   0  0  0  0  0  0  0  0  0  0  0  0
   56.2640   21.7910   43.5480 N   0  0  0  0  0  0  0  0  0  0  0  0
   57.4410   21.1400   43.0250 C   0  0  0  0  0  0  0  0  0  0  0  0
   56.2830   21.7840   45.0020 C   0  0  0  0  0  0  0  0  0  0  0  0
   57.6510   21.9770   45.5590 C   0  0  0  0  0  0  0  0  0  0  0  0
   57.7170   23.0780   46.3840 O   0  0  0  0  0  0  0  0  0  0  0  0
   57.7630   24.3770   45.9930 C   0  0  0  0  0  0  0  0  0  0  0  0
   57.3940   25.3290   46.9480 C   0  0  0  0  0  0  0  0  0  0  0  0
   57.3870   26.6750   46.6980 C   0  0  0  0  0  0  0  0  0  0  0  0
   57.7550   27.1540   45.4580 C   0  0  0  0  0  0  0  0  0  0  0  0
   57.7730   28.5720   45.1190 C   0  0  0  0  0  0  0  0  0  0  0  0
   58.9120   29.3610   45.2980 C   0  0  0  0  0  0  0  0  0  0  0  0
   58.8450   30.6940   44.9510 C   0  0  0  0  0  0  0  0  0  0  0  0
   57.7120   31.2890   44.4360 C   0  0  0  0  0  0  0  0  0  0  0  0
   57.5920   32.5960   44.0790 O   0  0  0  0  0  0  0  0  0  0  0  0
   57.4330   33.7280   44.8550 C   0  0  0  0  0  0  0  0  0  0  0  0
   57.0210   33.4460   46.2770 C   0  0  0  0  0  0  0  0  0  0  0  0
   58.1240   32.9530   47.1550 C   0  0  0  0  0  0  0  0  0  0  0  0
   59.3850   33.5930   46.9940 N   0  0  0  0  0  0  0  0  0  0  0  0
   59.6780   34.6520   47.9080 C   0  0  0  0  0  0  0  0  0  0  0  0
   59.7780   33.8890   45.6540 C   0  0  0  0  0  0  0  0  0  0  0  0
   58.6700   34.5940   44.9340 C   0  0  0  0  0  0  0  0  0  0  0  0
   56.5900   30.4730   44.2680 C   0  0  0  0  0  0  0  0  0  0  0  0
   56.6300   29.1510   44.6040 C   0  0  0  0  0  0  0  0  0  0  0  0
   58.1170   26.2490   44.5100 C   0  0  0  0  0  0  0  0  0  0  0  0
   58.1220   24.8700   44.7720 C   0  0  0  0  0  0  0  0  0  0  0  0
   55.8918   23.8171   43.8134 H   0  0  0  0  0  0  0  0  0  0  0  0
   56.8832   23.3911   42.3773 H   0  0  0  0  0  0  0  0  0  0  0  0
   55.1165   23.0665   42.3773 H   0  0  0  0  0  0  0  0  0  0  0  0
   58.0689   20.7927   43.8587 H   0  0  0  0  0  0  0  0  0  0  0  0
   57.1409   20.2796   42.4088 H   0  0  0  0  0  0  0  0  0  0  0  0
   58.0103   21.8515   42.4088 H   0  0  0  0  0  0  0  0  0  0  0  0
   55.6366   22.5960   45.3665 H   0  0  0  0  0  0  0  0  0  0  0  0
   55.9243   20.7988   45.3347 H   0  0  0  0  0  0  0  0  0  0  0  0
   57.9300   21.0828   46.1357 H   0  0  0  0  0  0  0  0  0  0  0  0
   58.3426   22.1375   44.7188 H   0  0  0  0  0  0  0  0  0  0  0  0
   57.0952   24.9801   47.9475 H   0  0  0  0  0  0  0  0  0  0  0  0
   57.0866   27.3775   47.4894 H   0  0  0  0  0  0  0  0  0  0  0  0
   59.8385   28.9300   45.7053 H   0  0  0  0  0  0  0  0  0  0  0  0
   59.7418   31.3152   45.0922 H   0  0  0  0  0  0  0  0  0  0  0  0
   56.6275   34.2575   44.3250 H   0  0  0  0  0  0  0  0  0  0  0  0
   56.6259   34.3763   46.7112 H   0  0  0  0  0  0  0  0  0  0  0  0
   56.2730   32.6407   46.2322 H   0  0  0  0  0  0  0  0  0  0  0  0
   57.8086   33.0896   48.1999 H   0  0  0  0  0  0  0  0  0  0  0  0
   58.2856   31.9040   46.8661 H   0  0  0  0  0  0  0  0  0  0  0  0
   59.5763   34.2845   48.9398 H   0  0  0  0  0  0  0  0  0  0  0  0
   60.7072   35.0038   47.7438 H   0  0  0  0  0  0  0  0  0  0  0  0
   58.9760   35.4828   47.7438 H   0  0  0  0  0  0  0  0  0  0  0  0
   60.6688   34.5341   45.6707 H   0  0  0  0  0  0  0  0  0  0  0  0
   60.0051   32.9486   45.1304 H   0  0  0  0  0  0  0  0  0  0  0  0
   58.4251   35.5216   45.4722 H   0  0  0  0  0  0  0  0  0  0  0  0
   59.0055   34.8173   43.9105 H   0  0  0  0  0  0  0  0  0  0  0  0
   55.6629   30.9018   43.8598 H   0  0  0  0  0  0  0  0  0  0  0  0
   55.7315   28.5326   44.4614 H   0  0  0  0  0  0  0  0  0  0  0  0
   58.4134   26.6065   43.5128 H   0  0  0  0  0  0  0  0  0  0  0  0
   58.4216   24.1719   43.9764 H   0  0  0  0  0  0  0  0  0  0  0  0
  1  2  1  0
  2  3  1  0
  2  4  1  0
  4  5  1  0
  5  6  1  0
  6  7  1  0
  7  8  2  0
  8  9  1  0
  9 10  2  0
 10 11  1  0
 11 12  2  0
 12 13  1  0
 13 14  2  0
 14 15  1  0
 15 16  1  0
 16 17  1  0
 17 18  1  0
 18 19  1  0
 19 20  1  0
 19 21  1  0
 21 22  1  0
 14 23  1  0
 23 24  2  0
 10 25  1  0
 25 26  2  0
 26  7  1  0
 24 11  1  0
 22 16  1  0
  1 27  1  0
  1 28  1  0
  1 29  1  0
  3 30  1  0
  3 31  1  0
  3 32  1  0
  4 33  1  0
  4 34  1  0
  5 35  1  0
  5 36  1  0
  8 37  1  0
  9 38  1  0
 12 39  1  0
 13 40  1  0
 16 41  1  0
 17 42  1  0
 17 43  1  0
 18 44  1  0
 18 45  1  0
 20 46  1  0
 20 47  1  0
 20 48  1  0
 21 49  1  0
 21 50  1  0
 22 51  1  0
 22 52  1  0
 23 53  1  0
 24 54  1  0
 25 55  1  0
 26 56  1  0
M  END
>  <smiles>  (30) 
CN(C)CCOc1ccc(-c2ccc(OC3CCN(C)CC3)cc2)cc1

>  <score_type>  (30) 
oracle

>  <origin>  (30) 
adg

>  <m_score__min__energy>  (30) 
-7.9400000000000004

>  <m_primary>  (30) 
energy

$$$$
30:0
     RDKit          3D

 47 49  0  0  0  0  0  0  0  0999 V2000
   60.5500   26.7140   47.3040 O   0  0  0  0  0  0  0  0  0  0  0  0
   59.9530   27.7940   46.9680 C   0  0  0  0  0  0  0  0  0  0  0  0
   59.3580   27.9330   45.7270 C   0  0  0  0  0  0  0  0  0  0  0  0
   58.7150   29.1050   45.3710 C   0  0  0  0  0  0  0  0  0  0  0  0
   58.1040   29.2760   44.0810 N   0  0  0  0  0  0  0  0  0  0  0  0
   56.6760   29.3460   43.9250 C   0  0  0  0  0  0  0  0  0  0  0  0
   56.2830   30.8180   43.9500 C   0  0  0  0  0  0  0  0  0  0  0  0
   57.4690   31.7140   43.7960 C   0  0  0  0  0  0  0  0  0  0  0  0
   57.6200   32.5030   44.9870 N   0  0  0  0  0  0  0  0  0  0  0  0
   58.4340   33.6860   44.7950 C   0  0  0  0  0  0  0  0  0  0  0  0
   59.2370   33.8540   46.0580 C   0  0  0  0  0  0  0  0  0  0  0  0
   58.6320   34.2840   47.2370 C   0  0  0  0  0  0  0  0  0  0  0  0
   59.3950   34.4400   48.3860 C   0  0  0  0  0  0  0  0  0  0  0  0
   60.7600   34.1570   48.3220 C   0  0  0  0  0  0  0  0  0  0  0  0
   61.5440   34.3010   49.4350 F   0  0  0  0  0  0  0  0  0  0  0  0
   61.3550   33.7280   47.1430 C   0  0  0  0  0  0  0  0  0  0  0  0
   62.8070   33.4200   47.0510 C   0  0  0  0  0  0  0  0  0  0  0  0
   63.3310   33.9000   45.8550 F   0  0  0  0  0  0  0  0  0  0  0  0
   63.4340   34.1230   48.0620 F   0  0  0  0  0  0  0  0  0  0  0  0
   60.5920   33.5760   46.0060 C   0  0  0  0  0  0  0  0  0  0  0  0
   58.6970   30.0990   46.2940 N   0  0  0  0  0  0  0  0  0  0  0  0
   59.2640   29.9850   47.4950 C   0  0  0  0  0  0  0  0  0  0  0  0
   59.2460   31.0180   48.4410 C   0  0  0  0  0  0  0  0  0  0  0  0
   59.8410   30.8780   49.6660 C   0  0  0  0  0  0  0  0  0  0  0  0
   60.4830   29.7240   50.0370 C   0  0  0  0  0  0  0  0  0  0  0  0
   60.5170   28.6770   49.1130 C   0  0  0  0  0  0  0  0  0  0  0  0
   59.9120   28.8290   47.8730 C   0  0  0  0  0  0  0  0  0  0  0  0
   59.3968   27.0982   45.0117 H   0  0  0  0  0  0  0  0  0  0  0  0
   58.7640   29.3450   43.2630 H   0  0  0  0  0  0  0  0  0  0  0  0
   56.3806   28.8948   42.9663 H   0  0  0  0  0  0  0  0  0  0  0  0
   56.1710   28.7969   44.7334 H   0  0  0  0  0  0  0  0  0  0  0  0
   55.5808   31.0127   43.1260 H   0  0  0  0  0  0  0  0  0  0  0  0
   55.8194   31.0306   44.9246 H   0  0  0  0  0  0  0  0  0  0  0  0
   58.3723   31.1059   43.6401 H   0  0  0  0  0  0  0  0  0  0  0  0
   57.3236   32.3755   42.9293 H   0  0  0  0  0  0  0  0  0  0  0  0
   56.6690   32.7880   45.3280 H   0  0  0  0  0  0  0  0  0  0  0  0
   59.1036   33.5521   43.9326 H   0  0  0  0  0  0  0  0  0  0  0  0
   57.8128   34.5714   44.5946 H   0  0  0  0  0  0  0  0  0  0  0  0
   57.5534   34.4991   47.2573 H   0  0  0  0  0  0  0  0  0  0  0  0
   58.9342   34.7790   49.3256 H   0  0  0  0  0  0  0  0  0  0  0  0
   62.9566   32.3323   47.1189 H   0  0  0  0  0  0  0  0  0  0  0  0
   61.0545   33.2374   45.0671 H   0  0  0  0  0  0  0  0  0  0  0  0
   58.2250   30.9800   46.0570 H   0  0  0  0  0  0  0  0  0  0  0  0
   58.7419   31.9639   48.1938 H   0  0  0  0  0  0  0  0  0  0  0  0
   59.8030   31.7178   50.3754 H   0  0  0  0  0  0  0  0  0  0  0  0
   60.9540   29.6266   51.0263 H   0  0  0  0  0  0  0  0  0  0  0  0
   61.0223   27.7337   49.3676 H   0  0  0  0  0  0  0  0  0  0  0  0
  1  2  2  0
  2  3  1  0
  3  4  2  0
  4  5  1  0
  5  6  1  0
  6  7  1  0
  7  8  1  0
  8  9  1  0
  9 10  1  0
 10 11  1  0
 11 12  2  0
 12 13  1  0
 13 14  2  0
 14 15  1  0
 14 16  1  0
 16 17  1  0
 17 18  1  0
 17 19  1  0
 16 20  2  0
  4 21  1  0
 21 22  1  0
 22 23  2  0
 23 24  1  0
 24 25  2  0
 25 26  1  0
 26 27  2  0
 27  2  1  0
 20 11  1  0
 27 22  1  0
  3 28  1  0
  5 29  1  0
  6 30  1  0
  6 31  1  0
  7 32  1  0
  7 33  1  0
  8 34  1  0
  8 35  1  0
  9 36  1  0
 10 37  1  0
 10 38  1  0
 12 39  1  0
 13 40  1  0
 17 41  1  0
 20 42  1  0
 21 43  1  0
 23 44  1  0
 24 45  1  0
 25 46  1  0
 26 47  1  0
M  END
>  <smiles>  (31) 
O=c1cc(NCCCNCc2ccc(F)c(C(F)F)c2)[nH]c2ccccc12

>  <score_type>  (31) 
oracle

>  <origin>  (31) 
adg

>  <m_score__min__energy>  (31) 
-7.79

>  <m_primary>  (31) 
energy

$$$$
31:0
     RDKit          3D

 35 36  0  0  1  0  0  0  0  0999 V2000
   58.1880   32.2650   41.9200 C   0  0  0  0  0  0  0  0  0  0  0  0
   58.4550   32.5630   43.2480 O   0  0  0  0  0  0  0  0  0  0  0  0
   57.3310   32.4610   44.0760 C   0  0  1  0  0  0  0  0  0  0  0  0
   57.3190   31.0960   44.6770 C   0  0  0  0  0  0  0  0  0  0  0  0
   56.4970   29.9560   44.1910 C   0  0  0  0  0  0  0  0  0  0  0  0
   55.7120   29.4000   45.2190 O   0  0  0  0  0  0  0  0  0  0  0  0
   58.1730   31.0980   45.7160 C   0  0  0  0  0  0  0  0  0  0  0  0
   58.7880   32.4500   45.8550 C   0  0  2  0  0  0  0  0  0  0  0  0
   59.2000   32.7820   47.1720 N   0  0  0  0  0  0  0  0  0  0  0  0
   58.9140   32.0740   48.2540 C   0  0  0  0  0  0  0  0  0  0  0  0
   59.3370   32.4340   49.5230 C   0  0  0  0  0  0  0  0  0  0  0  0
   58.9930   31.6060   50.7240 C   0  0  0  0  0  0  0  0  0  0  0  0
   60.0980   33.5980   49.6600 C   0  0  0  0  0  0  0  0  0  0  0  0
   60.5110   33.9720   50.8050 O   0  0  0  0  0  0  0  0  0  0  0  0
   60.3760   34.2980   48.5470 N   0  0  0  0  0  0  0  0  0  0  0  0
   59.9460   33.9150   47.3350 C   0  0  0  0  0  0  0  0  0  0  0  0
   60.2370   34.6080   46.3430 O   0  0  0  0  0  0  0  0  0  0  0  0
   57.6290   33.2970   45.3280 C   0  0  1  0  0  0  0  0  0  0  0  0
   57.9790   34.5880   45.0430 O   0  0  0  0  0  0  0  0  0  0  0  0
   57.4548   31.4467   41.8681 H   0  0  0  0  0  0  0  0  0  0  0  0
   57.7798   33.1553   41.4193 H   0  0  0  0  0  0  0  0  0  0  0  0
   59.1177   31.9567   41.4193 H   0  0  0  0  0  0  0  0  0  0  0  0
   56.4306   32.7319   43.5051 H   0  0  0  0  0  0  0  0  0  0  0  0
   55.8332   30.3122   43.3895 H   0  0  0  0  0  0  0  0  0  0  0  0
   57.1794   29.1758   43.8227 H   0  0  0  0  0  0  0  0  0  0  0  0
   55.1680   30.1120   45.6360 H   0  0  0  0  0  0  0  0  0  0  0  0
   58.3855   30.2349   46.3640 H   0  0  0  0  0  0  0  0  0  0  0  0
   59.7424   32.5785   45.3234 H   0  0  0  0  0  0  0  0  0  0  0  0
   58.3138   31.1593   48.1400 H   0  0  0  0  0  0  0  0  0  0  0  0
   59.2277   32.1709   51.6382 H   0  0  0  0  0  0  0  0  0  0  0  0
   57.9200   31.3643   50.7076 H   0  0  0  0  0  0  0  0  0  0  0  0
   59.5788   30.6751   50.7076 H   0  0  0  0  0  0  0  0  0  0  0  0
   60.9450   35.1730   48.6310 H   0  0  0  0  0  0  0  0  0  0  0  0
   56.7910   33.4551   46.0228 H   0  0  0  0  0  0  0  0  0  0  0  0
   58.8750   34.5910   44.6420 H   0  0  0  0  0  0  0  0  0  0  0  0
  1  2  1  0
  2  3  1  0
  3  4  1  0
  4  5  1  0
  5  6  1  0
  4  7  2  0
  7  8  1  0
  8  9  1  0
  9 10  1  0
 10 11  2  0
 11 12  1  0
 11 13  1  0
 13 14  2  0
 13 15  1  0
 15 16  1  0
 16 17  2  0
  8 18  1  0
 18 19  1  0
 18  3  1  0
 16  9  1  0
  1 20  1  0
  1 21  1  0
  1 22  1  0
  3 23  1  6
  5 24  1  0
  5 25  1  0
  6 26  1  0
  7 27  1  0
  8 28  1  6
 10 29  1  0
 12 30  1  0
 12 31  1  0
 12 32  1  0
 15 33  1  0
 18 34  1  1
 19 35  1  0
M  END
>  <smiles>  (32) 
COC1C(CO)=CC(n2cc(C)c(=O)[nH]c2=O)C1O

>  <score_type>  (32) 
oracle

>  <origin>  (32) 
adg

>  <m_score__min__energy>  (32) 
-6.9199999999999999

>  <m_primary>  (32) 
energy

$$$$
32:0
     RDKit          3D

 26 27  0  0  0  0  0  0  0  0999 V2000
   56.6140   30.2820   43.5080 C   0  0  0  0  0  0  0  0  0  0  0  0
   56.7360   30.6210   44.8770 O   0  0  0  0  0  0  0  0  0  0  0  0
   57.5100   31.7460   45.2330 C   0  0  0  0  0  0  0  0  0  0  0  0
   57.3910   32.9300   44.4890 C   0  0  0  0  0  0  0  0  0  0  0  0
   58.1620   34.0050   44.8710 C   0  0  0  0  0  0  0  0  0  0  0  0
   59.0370   33.9870   45.9320 C   0  0  0  0  0  0  0  0  0  0  0  0
   59.9880   35.3590   46.3800 Cl  0  0  0  0  0  0  0  0  0  0  0  0
   59.1480   32.8200   46.6570 C   0  0  0  0  0  0  0  0  0  0  0  0
   58.3860   31.7060   46.3050 C   0  0  0  0  0  0  0  0  0  0  0  0
   58.5160   30.4330   47.0950 C   0  0  0  0  0  0  0  0  0  0  0  0
   59.1650   29.3710   46.2820 C   0  0  0  0  0  0  0  0  0  0  0  0
   60.4560   29.0200   46.1810 N   0  0  0  0  0  0  0  0  0  0  0  0
   60.5900   28.0020   45.3200 C   0  0  0  0  0  0  0  0  0  0  0  0
   59.2950   27.7240   44.8770 C   0  0  0  0  0  0  0  0  0  0  0  0
   58.4210   28.5630   45.4650 N   0  0  0  0  0  0  0  0  0  0  0  0
   56.2428   29.2505   43.4174 H   0  0  0  0  0  0  0  0  0  0  0  0
   55.9071   30.9702   43.0214 H   0  0  0  0  0  0  0  0  0  0  0  0
   57.5973   30.3619   43.0214 H   0  0  0  0  0  0  0  0  0  0  0  0
   56.7060   32.9969   43.6309 H   0  0  0  0  0  0  0  0  0  0  0  0
   58.0726   34.9358   44.2917 H   0  0  0  0  0  0  0  0  0  0  0  0
   59.8371   32.7672   47.5127 H   0  0  0  0  0  0  0  0  0  0  0  0
   59.1255   30.6249   47.9903 H   0  0  0  0  0  0  0  0  0  0  0  0
   57.5104   30.0921   47.3822 H   0  0  0  0  0  0  0  0  0  0  0  0
   61.5203   27.4943   45.0254 H   0  0  0  0  0  0  0  0  0  0  0  0
   59.0288   26.9374   44.1557 H   0  0  0  0  0  0  0  0  0  0  0  0
   57.3650   28.6070   45.3330 H   0  0  0  0  0  0  0  0  0  0  0  0
  1  2  1  0
  2  3  1  0
  3  4  2  0
  4  5  1  0
  5  6  2  0
  6  7  1  0
  6  8  1  0
  8  9  2  0
  9 10  1  0
 10 11  1  0
 11 12  2  0
 12 13  1  0
 13 14  2  0
 14 15  1  0
  9  3  1  0
 15 11  1  0
  1 16  1  0
  1 17  1  0
  1 18  1  0
  4 19  1  0
  5 20  1  0
  8 21  1  0
 10 22  1  0
 10 23  1  0
 13 24  1  0
 14 25  1  0
 15 26  1  0
M  END
>  <smiles>  (33) 
COc1ccc(Cl)cc1Cc1ncc[nH]1

>  <score_type>  (33) 
oracle

>  <origin>  (33) 
adg

>  <m_score__min__energy>  (33) 
-5.5999999999999996

>  <m_primary>  (33) 
energy

$$$$
33:0
     RDKit          3D

 41 42  0  0  0  0  0  0  0  0999 V2000
   63.3790   33.6740   46.7280 C   0  0  0  0  0  0  0  0  0  0  0  0
   63.0130   32.3580   47.3460 C   0  0  0  0  0  0  0  0  0  0  0  0
   61.8690   32.4680   48.1600 N   0  0  0  0  0  0  0  0  0  0  0  0
   61.6740   33.6550   48.9030 C   0  0  0  0  0  0  0  0  0  0  0  0
   60.5950   33.4990   49.9570 C   0  0  0  0  0  0  0  0  0  0  0  0
   61.4340   31.2410   48.7730 C   0  0  0  0  0  0  0  0  0  0  0  0
   60.3900   30.5320   47.9610 C   0  0  0  0  0  0  0  0  0  0  0  0
   60.1680   30.9890   46.6610 N   0  0  0  0  0  0  0  0  0  0  0  0
   59.7560   30.1210   45.6360 C   0  0  0  0  0  0  0  0  0  0  0  0
   58.3770   30.5540   45.2250 C   0  0  0  0  0  0  0  0  0  0  0  0
   57.3970   29.6660   44.7700 C   0  0  0  0  0  0  0  0  0  0  0  0
   56.3360   30.4450   44.5160 N   0  0  0  0  0  0  0  0  0  0  0  0
   56.6030   31.7020   44.7800 N   0  0  0  0  0  0  0  0  0  0  0  0
   57.8810   31.8450   45.2340 C   0  0  0  0  0  0  0  0  0  0  0  0
   58.5110   33.0770   45.6020 C   0  0  0  0  0  0  0  0  0  0  0  0
   59.2030   34.0510   44.9850 C   0  0  0  0  0  0  0  0  0  0  0  0
   59.6540   35.1130   45.6570 C   0  0  0  0  0  0  0  0  0  0  0  0
   59.3760   35.1630   47.0280 C   0  0  0  0  0  0  0  0  0  0  0  0
   58.4240   33.6170   47.3700 S   0  0  0  0  0  0  0  0  0  0  0  0
   63.5831   34.4077   47.5217 H   0  0  0  0  0  0  0  0  0  0  0  0
   64.2765   33.5493   46.1044 H   0  0  0  0  0  0  0  0  0  0  0  0
   62.5459   34.0306   46.1044 H   0  0  0  0  0  0  0  0  0  0  0  0
   62.8128   31.6309   46.5452 H   0  0  0  0  0  0  0  0  0  0  0  0
   63.8527   32.0279   47.9753 H   0  0  0  0  0  0  0  0  0  0  0  0
   62.6187   33.9216   49.3996 H   0  0  0  0  0  0  0  0  0  0  0  0
   61.3534   34.4422   48.2048 H   0  0  0  0  0  0  0  0  0  0  0  0
   61.0475   33.5644   50.9575 H   0  0  0  0  0  0  0  0  0  0  0  0
   59.8489   34.2986   49.8391 H   0  0  0  0  0  0  0  0  0  0  0  0
   60.1059   32.5208   49.8391 H   0  0  0  0  0  0  0  0  0  0  0  0
   62.3031   30.5765   48.8879 H   0  0  0  0  0  0  0  0  0  0  0  0
   60.9867   31.4934   49.7457 H   0  0  0  0  0  0  0  0  0  0  0  0
   60.6864   29.4749   47.8931 H   0  0  0  0  0  0  0  0  0  0  0  0
   59.4448   30.7210   48.4910 H   0  0  0  0  0  0  0  0  0  0  0  0
   60.5470   31.9170   46.4020 H   0  0  0  0  0  0  0  0  0  0  0  0
   60.4449   30.1911   44.7813 H   0  0  0  0  0  0  0  0  0  0  0  0
   59.7540   29.0767   45.9816 H   0  0  0  0  0  0  0  0  0  0  0  0
   57.4784   28.5758   44.6482 H   0  0  0  0  0  0  0  0  0  0  0  0
   55.8750   32.4560   44.6360 H   0  0  0  0  0  0  0  0  0  0  0  0
   59.4013   33.9713   43.9060 H   0  0  0  0  0  0  0  0  0  0  0  0
   60.2187   35.9128   45.1557 H   0  0  0  0  0  0  0  0  0  0  0  0
   59.6611   35.9486   47.7432 H   0  0  0  0  0  0  0  0  0  0  0  0
  1  2  1  0
  2  3  1  0
  3  4  1  0
  4  5  1  0
  3  6  1  0
  6  7  1  0
  7  8  1  0
  8  9  1  0
  9 10  1  0
 10 11  1  0
 11 12  2  0
 12 13  1  0
 13 14  1  0
 14 15  1  0
 15 16  2  0
 16 17  1  0
 17 18  2  0
 18 19  1  0
 14 10  2  0
 19 15  1  0
  1 20  1  0
  1 21  1  0
  1 22  1  0
  2 23  1  0
  2 24  1  0
  4 25  1  0
  4 26  1  0
  5 27  1  0
  5 28  1  0
  5 29  1  0
  6 30  1  0
  6 31  1  0
  7 32  1  0
  7 33  1  0
  8 34  1  0
  9 35  1  0
  9 36  1  0
 11 37  1  0
 13 38  1  0
 16 39  1  0
 17 40  1  0
 18 41  1  0
M  END
>  <smiles>  (34) 
CCN(CC)CCNCc1cn[nH]c1-c1cccs1

>  <score_type>  (34) 
oracle

>  <origin>  (34) 
adg

>  <m_score__min__energy>  (34) 
-6.3499999999999996

>  <m_primary>  (34) 
energy

$$$$
34:0
     RDKit          3D

 65 67  0  0  0  0  0  0  0  0999 V2000
   54.8000   24.8370   45.6090 C   0  0  0  0  0  0  0  0  0  0  0  0
   55.0600   26.1590   45.9870 O   0  0  0  0  0  0  0  0  0  0  0  0
   56.4200   26.3570   46.1940 C   0  0  0  0  0  0  0  0  0  0  0  0
   57.2230   25.7750   45.0560 C   0  0  0  0  0  0  0  0  0  0  0  0
   58.4790   26.4360   44.9140 N   0  0  0  0  0  0  0  0  0  0  0  0
   58.4600   27.6450   44.1690 C   0  0  0  0  0  0  0  0  0  0  0  0
   59.6530   28.4970   44.5340 C   0  0  0  0  0  0  0  0  0  0  0  0
   59.6510   28.7310   45.9250 N   0  0  0  0  0  0  0  0  0  0  0  0
   60.0200   29.9950   46.4090 C   0  0  0  0  0  0  0  0  0  0  0  0
   59.1090   30.4420   47.5220 C   0  0  0  0  0  0  0  0  0  0  0  0
   59.1520   31.8550   47.7710 N   0  0  0  0  0  0  0  0  0  0  0  0
   59.3690   32.2690   49.1630 C   0  0  0  0  0  0  0  0  0  0  0  0
   60.6760   31.7330   49.6930 C   0  0  0  0  0  0  0  0  0  0  0  0
   61.7620   32.3070   48.9260 N   0  0  0  0  0  0  0  0  0  0  0  0
   62.6050   31.5990   47.9730 C   0  0  0  0  0  0  0  0  0  0  0  0
   63.0230   32.7520   47.0520 C   0  0  0  0  0  0  0  0  0  0  0  0
   63.3780   33.7990   48.1110 C   0  0  0  0  0  0  0  0  0  0  0  0
   62.1770   33.6870   48.9950 C   0  0  0  0  0  0  0  0  0  0  0  0
   61.6220   34.6110   49.6760 O   0  0  0  0  0  0  0  0  0  0  0  0
   58.9970   32.8550   46.7730 C   0  0  0  0  0  0  0  0  0  0  0  0
   59.7240   34.0270   46.8340 C   0  0  0  0  0  0  0  0  0  0  0  0
   59.5880   35.0340   45.8880 C   0  0  0  0  0  0  0  0  0  0  0  0
   58.6840   34.8060   44.8720 C   0  0  0  0  0  0  0  0  0  0  0  0
   57.9560   33.6400   44.8050 C   0  0  0  0  0  0  0  0  0  0  0  0
   58.0940   32.6430   45.7470 C   0  0  0  0  0  0  0  0  0  0  0  0
   57.3830   31.4530   45.7180 O   0  0  0  0  0  0  0  0  0  0  0  0
   57.0260   30.8490   44.5020 C   0  0  0  0  0  0  0  0  0  0  0  0
   59.5300   27.6360   46.8020 C   0  0  0  0  0  0  0  0  0  0  0  0
   59.3550   26.3640   46.0280 C   0  0  0  0  0  0  0  0  0  0  0  0
   54.6778   24.2157   46.5085 H   0  0  0  0  0  0  0  0  0  0  0  0
   53.8776   24.8014   45.0107 H   0  0  0  0  0  0  0  0  0  0  0  0
   55.6402   24.4547   45.0107 H   0  0  0  0  0  0  0  0  0  0  0  0
   56.6214   27.4362   46.2632 H   0  0  0  0  0  0  0  0  0  0  0  0
   56.7127   25.8536   47.1272 H   0  0  0  0  0  0  0  0  0  0  0  0
   57.4006   24.7074   45.2526 H   0  0  0  0  0  0  0  0  0  0  0  0
   56.6530   25.9109   44.1251 H   0  0  0  0  0  0  0  0  0  0  0  0
   58.4946   27.4112   43.0947 H   0  0  0  0  0  0  0  0  0  0  0  0
   57.5377   28.1974   44.4016 H   0  0  0  0  0  0  0  0  0  0  0  0
   60.5784   27.9741   44.2507 H   0  0  0  0  0  0  0  0  0  0  0  0
   59.5979   29.4565   43.9990 H   0  0  0  0  0  0  0  0  0  0  0  0
   61.0516   29.9465   46.7879 H   0  0  0  0  0  0  0  0  0  0  0  0
   59.9420   30.7189   45.5845 H   0  0  0  0  0  0  0  0  0  0  0  0
   58.0772   30.1673   47.2576 H   0  0  0  0  0  0  0  0  0  0  0  0
   59.4543   29.9434   48.4397 H   0  0  0  0  0  0  0  0  0  0  0  0
   59.3851   33.3678   49.2124 H   0  0  0  0  0  0  0  0  0  0  0  0
   58.5513   31.8656   49.7784 H   0  0  0  0  0  0  0  0  0  0  0  0
   60.7859   32.0082   50.7523 H   0  0  0  0  0  0  0  0  0  0  0  0
   60.6940   30.6368   49.6032 H   0  0  0  0  0  0  0  0  0  0  0  0
   63.4740   31.1378   48.4650 H   0  0  0  0  0  0  0  0  0  0  0  0
   62.1101   30.7612   47.4600 H   0  0  0  0  0  0  0  0  0  0  0  0
   63.8900   32.4870   46.4291 H   0  0  0  0  0  0  0  0  0  0  0  0
   62.2664   33.0645   46.3173 H   0  0  0  0  0  0  0  0  0  0  0  0
   64.3044   33.5419   48.6455 H   0  0  0  0  0  0  0  0  0  0  0  0
   63.5740   34.8080   47.7193 H   0  0  0  0  0  0  0  0  0  0  0  0
   60.4357   34.1679   47.6608 H   0  0  0  0  0  0  0  0  0  0  0  0
   60.1709   35.9651   45.9459 H   0  0  0  0  0  0  0  0  0  0  0  0
   58.5415   35.5737   44.0972 H   0  0  0  0  0  0  0  0  0  0  0  0
   57.2449   33.4998   43.9775 H   0  0  0  0  0  0  0  0  0  0  0  0
   56.4757   29.9179   44.7027 H   0  0  0  0  0  0  0  0  0  0  0  0
   56.3881   31.5349   43.9253 H   0  0  0  0  0  0  0  0  0  0  0  0
   57.9345   30.6209   43.9253 H   0  0  0  0  0  0  0  0  0  0  0  0
   60.4381   27.5632   47.4185 H   0  0  0  0  0  0  0  0  0  0  0  0
   58.6492   27.7878   47.4432 H   0  0  0  0  0  0  0  0  0  0  0  0
   60.3442   26.0535   45.6603 H   0  0  0  0  0  0  0  0  0  0  0  0
   58.8936   25.6499   46.7260 H   0  0  0  0  0  0  0  0  0  0  0  0
  1  2  1  0
  2  3  1  0
  3  4  1  0
  4  5  1  0
  5  6  1  0
  6  7  1  0
  7  8  1  0
  8  9  1  0
  9 10  1  0
 10 11  1  0
 11 12  1  0
 12 13  1  0
 13 14  1  0
 14 15  1  0
 15 16  1  0
 16 17  1  0
 17 18  1  0
 18 19  2  0
 11 20  1  0
 20 21  2  0
 21 22  1  0
 22 23  2  0
 23 24  1  0
 24 25  2  0
 25 26  1  0
 26 27  1  0
  8 28  1  0
 28 29  1  0
 29  5  1  0
 18 14  1  0
 25 20  1  0
  1 30  1  0
  1 31  1  0
  1 32  1  0
  3 33  1  0
  3 34  1  0
  4 35  1  0
  4 36  1  0
  6 37  1  0
  6 38  1  0
  7 39  1  0
  7 40  1  0
  9 41  1  0
  9 42  1  0
 10 43  1  0
 10 44  1  0
 12 45  1  0
 12 46  1  0
 13 47  1  0
 13 48  1  0
 15 49  1  0
 15 50  1  0
 16 51  1  0
 16 52  1  0
 17 53  1  0
 17 54  1  0
 21 55  1  0
 22 56  1  0
 23 57  1  0
 24 58  1  0
 27 59  1  0
 27 60  1  0
 27 61  1  0
 28 62  1  0
 28 63  1  0
 29 64  1  0
 29 65  1  0
M  END
>  <smiles>  (35) 
COCCN1CCN(CCN(CCN2CCCC2=O)c2ccccc2OC)CC1

>  <score_type>  (35) 
oracle

>  <origin>  (35) 
adg

>  <m_score__min__energy>  (35) 
-7.8399999999999999

>  <m_primary>  (35) 
energy

$$$$
35:0
     RDKit          3D

 43 45  0  0  0  0  0  0  0  0999 V2000
   57.7780   33.7150   45.4210 C   0  0  0  0  0  0  0  0  0  0  0  0
   57.8540   32.8100   44.2350 C   0  0  0  0  0  0  0  0  0  0  0  0
   56.9570   31.5770   44.4090 C   0  0  0  0  0  0  0  0  0  0  0  0
   57.7860   30.3910   44.0240 C   0  0  0  0  0  0  0  0  0  0  0  0
   57.9530   29.4290   45.0650 N   0  0  0  0  0  0  0  0  0  0  0  0
   57.1930   28.3180   45.0280 C   0  0  0  0  0  0  0  0  0  0  0  0
   57.2660   27.3130   45.9630 C   0  0  0  0  0  0  0  0  0  0  0  0
   56.3950   26.1350   45.8390 C   0  0  0  0  0  0  0  0  0  0  0  0
   55.1460   26.3510   46.0000 O   0  0  0  0  0  0  0  0  0  0  0  0
   56.9060   24.8370   45.5600 N   0  0  0  0  0  0  0  0  0  0  0  0
   58.3400   24.6040   45.3770 C   0  0  0  0  0  0  0  0  0  0  0  0
   55.9740   23.7520   45.4590 C   0  0  0  0  0  0  0  0  0  0  0  0
   58.1670   27.4230   47.0180 C   0  0  0  0  0  0  0  0  0  0  0  0
   58.2040   26.4920   47.8440 O   0  0  0  0  0  0  0  0  0  0  0  0
   58.9380   28.5510   47.0560 C   0  0  0  0  0  0  0  0  0  0  0  0
   59.8360   28.6640   48.1110 C   0  0  0  0  0  0  0  0  0  0  0  0
   60.6150   29.7910   48.1680 C   0  0  0  0  0  0  0  0  0  0  0  0
   60.5150   30.7810   47.2120 C   0  0  0  0  0  0  0  0  0  0  0  0
   59.6180   30.6490   46.1730 C   0  0  0  0  0  0  0  0  0  0  0  0
   58.8200   29.5300   46.0860 C   0  0  0  0  0  0  0  0  0  0  0  0
   61.4200   31.7970   47.5230 O   0  0  0  0  0  0  0  0  0  0  0  0
   62.1430   31.3880   48.6550 C   0  0  0  0  0  0  0  0  0  0  0  0
   61.5830   30.1710   49.0900 O   0  0  0  0  0  0  0  0  0  0  0  0
   57.8283   33.1166   46.3426 H   0  0  0  0  0  0  0  0  0  0  0  0
   58.6199   34.4226   45.3969 H   0  0  0  0  0  0  0  0  0  0  0  0
   56.8299   34.2722   45.3969 H   0  0  0  0  0  0  0  0  0  0  0  0
   57.5304   33.3640   43.3415 H   0  0  0  0  0  0  0  0  0  0  0  0
   58.8939   32.4676   44.1287 H   0  0  0  0  0  0  0  0  0  0  0  0
   56.6307   31.4890   45.4558 H   0  0  0  0  0  0  0  0  0  0  0  0
   56.0539   31.6506   43.7853 H   0  0  0  0  0  0  0  0  0  0  0  0
   57.3016   29.8944   43.1703 H   0  0  0  0  0  0  0  0  0  0  0  0
   58.7893   30.7724   43.7833 H   0  0  0  0  0  0  0  0  0  0  0  0
   56.4734   28.2085   44.2033 H   0  0  0  0  0  0  0  0  0  0  0  0
   58.8270   24.5249   46.3601 H   0  0  0  0  0  0  0  0  0  0  0  0
   58.4911   23.6695   44.8167 H   0  0  0  0  0  0  0  0  0  0  0  0
   58.7792   25.4426   44.8167 H   0  0  0  0  0  0  0  0  0  0  0  0
   55.6881   23.4191   46.4677 H   0  0  0  0  0  0  0  0  0  0  0  0
   55.0782   24.0875   44.9159 H   0  0  0  0  0  0  0  0  0  0  0  0
   56.4408   22.9170   44.9159 H   0  0  0  0  0  0  0  0  0  0  0  0
   59.9189   27.8762   48.8742 H   0  0  0  0  0  0  0  0  0  0  0  0
   59.5397   31.4393   45.4119 H   0  0  0  0  0  0  0  0  0  0  0  0
   63.2018   31.2436   48.3940 H   0  0  0  0  0  0  0  0  0  0  0  0
   62.0890   32.1481   49.4483 H   0  0  0  0  0  0  0  0  0  0  0  0
  1  2  1  0
  2  3  1  0
  3  4  1  0
  4  5  1  0
  5  6  1  0
  6  7  2  0
  7  8  1  0
  8  9  2  0
  8 10  1  0
 10 11  1  0
 10 12  1  0
  7 13  1  0
 13 14  2  0
 13 15  1  0
 15 16  2  0
 16 17  1  0
 17 18  2  0
 18 19  1  0
 19 20  2  0
 18 21  1  0
 21 22  1  0
 22 23  1  0
 20  5  1  0
 20 15  1  0
 23 17  1  0
  1 24  1  0
  1 25  1  0
  1 26  1  0
  2 27  1  0
  2 28  1  0
  3 29  1  0
  3 30  1  0
  4 31  1  0
  4 32  1  0
  6 33  1  0
 11 34  1  0
 11 35  1  0
 11 36  1  0
 12 37  1  0
 12 38  1  0
 12 39  1  0
 16 40  1  0
 19 41  1  0
 22 42  1  0
 22 43  1  0
M  END
>  <smiles>  (36) 
CCCCn1cc(C(=O)N(C)C)c(=O)c2cc3c(cc21)OCO3

>  <score_type>  (36) 
oracle

>  <origin>  (36) 
adg

>  <m_score__min__energy>  (36) 
-6.3399999999999999

>  <m_primary>  (36) 
energy

$$$$
37:0
     RDKit          3D

 37 39  0  0  0  0  0  0  0  0999 V2000
   55.9260   29.3520   45.2390 O   0  0  0  0  0  0  0  0  0  0  0  0
   57.0440   28.9600   44.7950 C   0  0  0  0  0  0  0  0  0  0  0  0
   57.5680   29.6900   43.6870 N   0  0  0  0  0  0  0  0  0  0  0  0
   56.9060   30.8000   43.0820 C   0  0  0  0  0  0  0  0  0  0  0  0
   57.7680   32.0350   42.9300 C   0  0  0  0  0  0  0  0  0  0  0  0
   57.7510   32.7360   44.2580 C   0  0  0  0  0  0  0  0  0  0  0  0
   58.5310   33.8400   44.5880 C   0  0  0  0  0  0  0  0  0  0  0  0
   58.2190   34.1780   45.8930 C   0  0  0  0  0  0  0  0  0  0  0  0
   57.2590   33.2430   46.2710 C   0  0  0  0  0  0  0  0  0  0  0  0
   57.0060   32.4190   45.3050 O   0  0  0  0  0  0  0  0  0  0  0  0
   57.7710   27.8340   45.3680 C   0  0  0  0  0  0  0  0  0  0  0  0
   57.4100   26.5610   44.9640 C   0  0  0  0  0  0  0  0  0  0  0  0
   58.0460   25.4500   45.4580 C   0  0  0  0  0  0  0  0  0  0  0  0
   59.0700   25.6520   46.3800 C   0  0  0  0  0  0  0  0  0  0  0  0
   59.4260   26.9460   46.7800 C   0  0  0  0  0  0  0  0  0  0  0  0
   58.7770   28.0530   46.2760 C   0  0  0  0  0  0  0  0  0  0  0  0
   59.1680   29.3310   46.7070 N   0  0  0  0  0  0  0  0  0  0  0  0
   60.0240   30.1120   45.9830 C   0  0  0  0  0  0  0  0  0  0  0  0
   60.2310   31.3070   46.6400 C   0  0  0  0  0  0  0  0  0  0  0  0
   59.4850   31.2660   47.7980 C   0  0  0  0  0  0  0  0  0  0  0  0
   58.8480   30.0380   47.8020 C   0  0  0  0  0  0  0  0  0  0  0  0
   58.5040   29.3420   43.3320 H   0  0  0  0  0  0  0  0  0  0  0  0
   56.5644   30.4937   42.0823 H   0  0  0  0  0  0  0  0  0  0  0  0
   56.0783   31.0753   43.7522 H   0  0  0  0  0  0  0  0  0  0  0  0
   58.7966   31.7496   42.6646 H   0  0  0  0  0  0  0  0  0  0  0  0
   57.3873   32.6887   42.1314 H   0  0  0  0  0  0  0  0  0  0  0  0
   59.2572   34.3473   43.9358 H   0  0  0  0  0  0  0  0  0  0  0  0
   58.6350   34.9991   46.4952 H   0  0  0  0  0  0  0  0  0  0  0  0
   56.7788   33.2089   47.2601 H   0  0  0  0  0  0  0  0  0  0  0  0
   56.5976   26.4371   44.2328 H   0  0  0  0  0  0  0  0  0  0  0  0
   57.7579   24.4379   45.1378 H   0  0  0  0  0  0  0  0  0  0  0  0
   59.6046   24.7864   46.7983 H   0  0  0  0  0  0  0  0  0  0  0  0
   60.2381   27.0816   47.5095 H   0  0  0  0  0  0  0  0  0  0  0  0
   60.4790   29.8305   45.0219 H   0  0  0  0  0  0  0  0  0  0  0  0
   60.8707   32.1361   46.3033 H   0  0  0  0  0  0  0  0  0  0  0  0
   59.4110   32.0514   48.5646 H   0  0  0  0  0  0  0  0  0  0  0  0
   58.1709   29.6884   48.5953 H   0  0  0  0  0  0  0  0  0  0  0  0
  1  2  2  0
  2  3  1  0
  3  4  1  0
  4  5  1  0
  5  6  1  0
  6  7  2  0
  7  8  1  0
  8  9  2  0
  9 10  1  0
  2 11  1  0
 11 12  2  0
 12 13  1  0
 13 14  2  0
 14 15  1  0
 15 16  2  0
 16 17  1  0
 17 18  1  0
 18 19  2  0
 19 20  1  0
 20 21  2  0
 10  6  1  0
 16 11  1  0
 21 17  1  0
  3 22  1  0
  4 23  1  0
  4 24  1  0
  5 25  1  0
  5 26  1  0
  7 27  1  0
  8 28  1  0
  9 29  1  0
 12 30  1  0
 13 31  1  0
 14 32  1  0
 15 33  1  0
 18 34  1  0
 19 35  1  0
 20 36  1  0
 21 37  1  0
M  END
>  <smiles>  (37) 
O=C(NCCc1ccco1)c1ccccc1-n1cccc1

>  <score_type>  (37) 
oracle

>  <origin>  (37) 
adg

>  <m_score__min__energy>  (37) 
-7.0300000000000002

>  <m_primary>  (37) 
energy

$$$$
38:0
     RDKit          3D

 60 64  0  0  1  0  0  0  0  0999 V2000
   58.4620   23.0770   45.3960 C   0  0  0  0  0  0  0  0  0  0  0  0
   58.3940   24.0350   46.4280 O   0  0  0  0  0  0  0  0  0  0  0  0
   58.2270   25.3930   46.2060 C   0  0  0  0  0  0  0  0  0  0  0  0
   58.3070   26.3290   47.2310 C   0  0  0  0  0  0  0  0  0  0  0  0
   58.1310   27.6810   46.9510 C   0  0  0  0  0  0  0  0  0  0  0  0
   57.8860   28.0220   45.6580 C   0  0  0  0  0  0  0  0  0  0  0  0
   57.6800   29.4500   45.2360 C   0  0  0  0  0  0  0  0  0  0  0  0
   57.8180   30.5240   45.5610 N   0  0  0  0  0  0  0  0  0  0  0  0
   57.5490   31.6820   44.9960 C   0  0  0  0  0  0  0  0  0  0  0  0
   57.8100   33.0120   45.5930 C   0  0  2  0  0  0  0  0  0  0  0  0
   58.0310   34.0820   44.5830 C   0  0  0  0  0  0  0  0  0  0  0  0
   59.2800   34.8510   44.9010 C   0  0  0  0  0  0  0  0  0  0  0  0
   59.3420   35.3260   46.3480 C   0  0  0  0  0  0  0  0  0  0  0  0
   58.9710   34.2550   47.2160 N   0  0  0  0  0  0  0  0  0  0  0  0
   59.5740   34.3180   48.4960 C   0  0  0  0  0  0  0  0  0  0  0  0
   59.9330   32.9430   48.9270 C   0  0  0  0  0  0  0  0  0  0  0  0
   58.9670   32.2130   49.6270 C   0  0  0  0  0  0  0  0  0  0  0  0
   59.2100   30.9250   50.0660 C   0  0  0  0  0  0  0  0  0  0  0  0
   60.4410   30.3480   49.8020 C   0  0  0  0  0  0  0  0  0  0  0  0
   60.6910   28.9860   50.2680 C   0  0  0  0  0  0  0  0  0  0  0  0
   61.0460   28.6950   51.5700 C   0  0  0  0  0  0  0  0  0  0  0  0
   61.2740   27.3940   51.9730 C   0  0  0  0  0  0  0  0  0  0  0  0
   61.1470   26.3450   51.0580 C   0  0  0  0  0  0  0  0  0  0  0  0
   60.7880   26.6290   49.7380 C   0  0  0  0  0  0  0  0  0  0  0  0
   60.5610   27.9420   49.3460 C   0  0  0  0  0  0  0  0  0  0  0  0
   61.4130   31.0610   49.1060 C   0  0  0  0  0  0  0  0  0  0  0  0
   61.1520   32.3560   48.6730 C   0  0  0  0  0  0  0  0  0  0  0  0
   58.9790   32.9800   46.5540 C   0  0  0  0  0  0  0  0  0  0  0  0
   56.9620   31.4580   43.7040 C   0  0  0  0  0  0  0  0  0  0  0  0
   56.8850   29.6870   43.5010 S   0  0  0  0  0  0  0  0  0  0  0  0
   57.8020   27.1200   44.6240 C   0  0  0  0  0  0  0  0  0  0  0  0
   57.9750   25.7790   44.8910 C   0  0  0  0  0  0  0  0  0  0  0  0
   58.5334   22.0705   45.8341 H   0  0  0  0  0  0  0  0  0  0  0  0
   57.5569   23.1429   44.7743 H   0  0  0  0  0  0  0  0  0  0  0  0
   59.3487   23.2701   44.7743 H   0  0  0  0  0  0  0  0  0  0  0  0
   58.5090   26.0016   48.2615 H   0  0  0  0  0  0  0  0  0  0  0  0
   58.1878   28.4421   47.7432 H   0  0  0  0  0  0  0  0  0  0  0  0
   56.8910   33.2589   46.1447 H   0  0  0  0  0  0  0  0  0  0  0  0
   58.1299   33.6256   43.5871 H   0  0  0  0  0  0  0  0  0  0  0  0
   57.1736   34.7710   44.5993 H   0  0  0  0  0  0  0  0  0  0  0  0
   60.1478   34.2030   44.7085 H   0  0  0  0  0  0  0  0  0  0  0  0
   59.2830   35.7470   44.2629 H   0  0  0  0  0  0  0  0  0  0  0  0
   60.3660   35.6513   46.5837 H   0  0  0  0  0  0  0  0  0  0  0  0
   58.6487   36.1685   46.4877 H   0  0  0  0  0  0  0  0  0  0  0  0
   60.4812   34.9381   48.4466 H   0  0  0  0  0  0  0  0  0  0  0  0
   58.8725   34.7632   49.2169 H   0  0  0  0  0  0  0  0  0  0  0  0
   57.9902   32.6750   49.8332 H   0  0  0  0  0  0  0  0  0  0  0  0
   58.4379   30.3672   50.6163 H   0  0  0  0  0  0  0  0  0  0  0  0
   61.1489   29.5129   52.2983 H   0  0  0  0  0  0  0  0  0  0  0  0
   61.5558   27.1830   53.0151 H   0  0  0  0  0  0  0  0  0  0  0  0
   61.3278   25.3069   51.3738 H   0  0  0  0  0  0  0  0  0  0  0  0
   60.6850   25.8121   49.0086 H   0  0  0  0  0  0  0  0  0  0  0  0
   60.2778   28.1619   48.3061 H   0  0  0  0  0  0  0  0  0  0  0  0
   62.3894   30.5989   48.8982 H   0  0  0  0  0  0  0  0  0  0  0  0
   61.9242   32.9150   48.1241 H   0  0  0  0  0  0  0  0  0  0  0  0
   59.9223   32.8378   46.0063 H   0  0  0  0  0  0  0  0  0  0  0  0
   58.8941   32.1494   47.2702 H   0  0  0  0  0  0  0  0  0  0  0  0
   56.6283   32.2221   42.9866 H   0  0  0  0  0  0  0  0  0  0  0  0
   57.5997   27.4634   43.5988 H   0  0  0  0  0  0  0  0  0  0  0  0
   57.9156   25.0318   44.0859 H   0  0  0  0  0  0  0  0  0  0  0  0
  1  2  1  0
  2  3  1  0
  3  4  2  0
  4  5  1  0
  5  6  2  0
  6  7  1  0
  7  8  2  0
  8  9  1  0
  9 10  1  0
 10 11  1  0
 11 12  1  0
 12 13  1  0
 13 14  1  0
 14 15  1  0
 15 16  1  0
 16 17  2  0
 17 18  1  0
 18 19  2  0
 19 20  1  0
 20 21  2  0
 21 22  1  0
 22 23  2  0
 23 24  1  0
 24 25  2  0
 19 26  1  0
 26 27  2  0
 14 28  1  0
  9 29  2  0
 29 30  1  0
  6 31  1  0
 31 32  2  0
 32  3  1  0
 30  7  1  0
 28 10  1  0
 27 16  1  0
 25 20  1  0
  1 33  1  0
  1 34  1  0
  1 35  1  0
  4 36  1  0
  5 37  1  0
 10 38  1  1
 11 39  1  0
 11 40  1  0
 12 41  1  0
 12 42  1  0
 13 43  1  0
 13 44  1  0
 15 45  1  0
 15 46  1  0
 17 47  1  0
 18 48  1  0
 21 49  1  0
 22 50  1  0
 23 51  1  0
 24 52  1  0
 25 53  1  0
 26 54  1  0
 27 55  1  0
 28 56  1  0
 28 57  1  0
 29 58  1  0
 31 59  1  0
 32 60  1  0
M  END
>  <smiles>  (38) 
COc1ccc(-c2nc(C3CCCN(Cc4ccc(-c5ccccc5)cc4)C3)cs2)cc1

>  <score_type>  (38) 
oracle

>  <origin>  (38) 
adg

>  <m_score__min__energy>  (38) 
-10.5

>  <m_primary>  (38) 
energy

$$$$
39:0
     RDKit          3D

 47 49  0  0  0  0  0  0  0  0999 V2000
   56.8260   26.4230   45.9880 C   0  0  0  0  0  0  0  0  0  0  0  0
   55.9450   27.4830   45.6200 O   0  0  0  0  0  0  0  0  0  0  0  0
   56.4600   28.7100   45.2110 C   0  0  0  0  0  0  0  0  0  0  0  0
   55.6690   29.6210   44.5160 C   0  0  0  0  0  0  0  0  0  0  0  0
   56.2020   30.8480   44.1130 C   0  0  0  0  0  0  0  0  0  0  0  0
   57.5110   31.1750   44.3950 C   0  0  0  0  0  0  0  0  0  0  0  0
   58.1490   32.4510   43.9990 C   0  0  0  0  0  0  0  0  0  0  0  0
   57.9360   33.4210   45.0070 N   0  0  0  0  0  0  0  0  0  0  0  0
   57.7280   32.9770   46.3330 C   0  0  0  0  0  0  0  0  0  0  0  0
   59.0130   32.6570   47.0590 C   0  0  0  0  0  0  0  0  0  0  0  0
   60.0430   33.6430   46.7760 N   0  0  0  0  0  0  0  0  0  0  0  0
   61.1610   33.6910   47.6550 C   0  0  0  0  0  0  0  0  0  0  0  0
   61.0670   34.1360   48.9580 C   0  0  0  0  0  0  0  0  0  0  0  0
   62.1620   34.1800   49.8110 C   0  0  0  0  0  0  0  0  0  0  0  0
   63.4060   33.7730   49.3730 C   0  0  0  0  0  0  0  0  0  0  0  0
   64.5360   33.7960   50.1800 O   0  0  0  0  0  0  0  0  0  0  0  0
   65.4620   32.7280   50.1120 C   0  0  0  0  0  0  0  0  0  0  0  0
   63.5220   33.3270   48.0820 C   0  0  0  0  0  0  0  0  0  0  0  0
   62.4310   33.2860   47.2450 C   0  0  0  0  0  0  0  0  0  0  0  0
   60.0070   34.5610   45.6800 C   0  0  0  0  0  0  0  0  0  0  0  0
   58.7550   34.5970   44.8910 C   0  0  0  0  0  0  0  0  0  0  0  0
   58.2760   30.2470   45.0900 C   0  0  0  0  0  0  0  0  0  0  0  0
   57.7720   29.0290   45.4970 C   0  0  0  0  0  0  0  0  0  0  0  0
   56.8814   26.3563   47.0846 H   0  0  0  0  0  0  0  0  0  0  0  0
   56.4472   25.4736   45.5816 H   0  0  0  0  0  0  0  0  0  0  0  0
   57.8287   26.6218   45.5816 H   0  0  0  0  0  0  0  0  0  0  0  0
   54.6225   29.3742   44.2838 H   0  0  0  0  0  0  0  0  0  0  0  0
   55.5696   31.5614   43.5642 H   0  0  0  0  0  0  0  0  0  0  0  0
   59.2294   32.2939   43.8646 H   0  0  0  0  0  0  0  0  0  0  0  0
   57.7077   32.8025   43.0547 H   0  0  0  0  0  0  0  0  0  0  0  0
   57.1997   33.7664   46.8877 H   0  0  0  0  0  0  0  0  0  0  0  0
   57.1413   32.0480   46.2796 H   0  0  0  0  0  0  0  0  0  0  0  0
   58.8184   32.6436   48.1416 H   0  0  0  0  0  0  0  0  0  0  0  0
   59.3699   31.6754   46.7138 H   0  0  0  0  0  0  0  0  0  0  0  0
   60.0884   34.4682   49.3349 H   0  0  0  0  0  0  0  0  0  0  0  0
   62.0371   34.5415   50.8424 H   0  0  0  0  0  0  0  0  0  0  0  0
   65.7346   32.4136   51.1303 H   0  0  0  0  0  0  0  0  0  0  0  0
   65.0070   31.8817   49.5764 H   0  0  0  0  0  0  0  0  0  0  0  0
   66.3642   33.0585   49.5764 H   0  0  0  0  0  0  0  0  0  0  0  0
   64.5029   32.9967   47.7094 H   0  0  0  0  0  0  0  0  0  0  0  0
   62.5651   32.9209   46.2161 H   0  0  0  0  0  0  0  0  0  0  0  0
   60.1773   35.5701   46.0833 H   0  0  0  0  0  0  0  0  0  0  0  0
   60.7819   34.2120   44.9816 H   0  0  0  0  0  0  0  0  0  0  0  0
   58.1631   35.4610   45.2274 H   0  0  0  0  0  0  0  0  0  0  0  0
   59.0559   34.6623   43.8350 H   0  0  0  0  0  0  0  0  0  0  0  0
   59.3223   30.4923   45.3245 H   0  0  0  0  0  0  0  0  0  0  0  0
   58.4096   28.3190   46.0441 H   0  0  0  0  0  0  0  0  0  0  0  0
  1  2  1  0
  2  3  1  0
  3  4  2  0
  4  5  1  0
  5  6  2  0
  6  7  1  0
  7  8  1  0
  8  9  1  0
  9 10  1  0
 10 11  1  0
 11 12  1  0
 12 13  2  0
 13 14  1  0
 14 15  2  0
 15 16  1  0
 16 17  1  0
 15 18  1  0
 18 19  2  0
 11 20  1  0
 20 21  1  0
  6 22  1  0
 22 23  2  0
 23  3  1  0
 21  8  1  0
 19 12  1  0
  1 24  1  0
  1 25  1  0
  1 26  1  0
  4 27  1  0
  5 28  1  0
  7 29  1  0
  7 30  1  0
  9 31  1  0
  9 32  1  0
 10 33  1  0
 10 34  1  0
 13 35  1  0
 14 36  1  0
 17 37  1  0
 17 38  1  0
 17 39  1  0
 18 40  1  0
 19 41  1  0
 20 42  1  0
 20 43  1  0
 21 44  1  0
 21 45  1  0
 22 46  1  0
 23 47  1  0
M  END
>  <smiles>  (39) 
COc1ccc(CN2CCN(c3ccc(OC)cc3)CC2)cc1

>  <score_type>  (39) 
oracle

>  <origin>  (39) 
adg

>  <m_score__min__energy>  (39) 
-7.71

>  <m_primary>  (39) 
energy

$$$$
40:0
     RDKit          3D

 40 42  0  0  0  0  0  0  0  0999 V2000
   57.1520   30.9850   43.1330 C   0  0  0  0  0  0  0  0  0  0  0  0
   56.5540   30.0420   44.0450 N   0  0  0  0  0  0  0  0  0  0  0  0
   55.1900   29.7270   43.7470 C   0  0  0  0  0  0  0  0  0  0  0  0
   57.3730   28.9210   44.3500 C   0  0  0  0  0  0  0  0  0  0  0  0
   57.9470   29.0190   45.7940 C   0  0  0  0  0  0  0  0  0  0  0  0
   57.9840   30.3730   46.1660 N   0  0  0  0  0  0  0  0  0  0  0  0
   58.9160   31.2660   46.7060 C   0  0  0  0  0  0  0  0  0  0  0  0
   59.0890   32.5810   46.3420 C   0  0  0  0  0  0  0  0  0  0  0  0
   58.3060   33.1200   45.3350 C   0  0  0  0  0  0  0  0  0  0  0  0
   58.4600   34.4450   44.9430 C   0  0  0  0  0  0  0  0  0  0  0  0
   59.3800   35.2890   45.5170 C   0  0  0  0  0  0  0  0  0  0  0  0
   60.1610   34.7670   46.5160 C   0  0  0  0  0  0  0  0  0  0  0  0
   59.9970   33.4580   46.8920 C   0  0  0  0  0  0  0  0  0  0  0  0
   60.7870   32.9970   47.8680 N   0  0  0  0  0  0  0  0  0  0  0  0
   61.7680   33.8520   48.5030 C   0  0  0  0  0  0  0  0  0  0  0  0
   60.6480   31.7480   48.2380 C   0  0  0  0  0  0  0  0  0  0  0  0
   61.6280   30.8880   49.5640 S   0  0  0  0  0  0  0  0  0  0  0  0
   60.7240   29.2980   49.3100 C   0  0  0  0  0  0  0  0  0  0  0  0
   59.8350   29.5730   48.3110 C   0  0  0  0  0  0  0  0  0  0  0  0
   59.7820   30.7950   47.7610 C   0  0  0  0  0  0  0  0  0  0  0  0
   57.6554   31.7789   43.7043 H   0  0  0  0  0  0  0  0  0  0  0  0
   57.8869   30.4668   42.4994 H   0  0  0  0  0  0  0  0  0  0  0  0
   56.3699   31.4288   42.4994 H   0  0  0  0  0  0  0  0  0  0  0  0
   54.6302   29.5977   44.6850 H   0  0  0  0  0  0  0  0  0  0  0  0
   54.7437   30.5457   43.1635 H   0  0  0  0  0  0  0  0  0  0  0  0
   55.1479   28.7955   43.1635 H   0  0  0  0  0  0  0  0  0  0  0  0
   56.7720   28.0037   44.2643 H   0  0  0  0  0  0  0  0  0  0  0  0
   58.2142   28.9013   43.6415 H   0  0  0  0  0  0  0  0  0  0  0  0
   57.3024   28.4605   46.4886 H   0  0  0  0  0  0  0  0  0  0  0  0
   58.9594   28.5902   45.8279 H   0  0  0  0  0  0  0  0  0  0  0  0
   57.0110   30.8470   45.9840 H   0  0  0  0  0  0  0  0  0  0  0  0
   57.5521   32.4914   44.8386 H   0  0  0  0  0  0  0  0  0  0  0  0
   57.8180   34.8343   44.1391 H   0  0  0  0  0  0  0  0  0  0  0  0
   59.4850   36.3342   45.1905 H   0  0  0  0  0  0  0  0  0  0  0  0
   60.9151   35.3947   47.0133 H   0  0  0  0  0  0  0  0  0  0  0  0
   61.6736   33.7697   49.5958 H   0  0  0  0  0  0  0  0  0  0  0  0
   62.7780   33.5408   48.1978 H   0  0  0  0  0  0  0  0  0  0  0  0
   61.5977   34.8950   48.1978 H   0  0  0  0  0  0  0  0  0  0  0  0
   60.8688   28.3463   49.8422 H   0  0  0  0  0  0  0  0  0  0  0  0
   59.1558   28.7849   47.9539 H   0  0  0  0  0  0  0  0  0  0  0  0
  1  2  1  0
  2  3  1  0
  2  4  1  0
  4  5  1  0
  5  6  1  0
  6  7  1  0
  7  8  2  0
  8  9  1  0
  9 10  2  0
 10 11  1  0
 11 12  2  0
 12 13  1  0
 13 14  2  0
 14 15  1  0
 14 16  1  0
 16 17  1  0
 17 18  1  0
 18 19  2  0
 19 20  1  0
 20  7  1  0
 13  8  1  0
 20 16  2  0
  1 21  1  0
  1 22  1  0
  1 23  1  0
  3 24  1  0
  3 25  1  0
  3 26  1  0
  4 27  1  0
  4 28  1  0
  5 29  1  0
  5 30  1  0
  6 31  1  0
  9 32  1  0
 10 33  1  0
 11 34  1  0
 12 35  1  0
 15 36  1  0
 15 37  1  0
 15 38  1  0
 18 39  1  0
 19 40  1  0
M  CHG  1  14   1
M  END
>  <smiles>  (40) 
CN(C)CCNc1c2ccccc2[n+](C)c2sccc12

>  <score_type>  (40) 
oracle

>  <origin>  (40) 
adg

>  <m_score__min__energy>  (40) 
-4.7000000000000002

>  <m_primary>  (40) 
energy

$$$$
41:0
     RDKit          3D

 53 55  0  0  0  0  0  0  0  0999 V2000
   65.5400   32.3770   50.1160 C   0  0  0  0  0  0  0  0  0  0  0  0
   64.0850   31.9660   50.0710 C   0  0  0  0  0  0  0  0  0  0  0  0
   63.2770   32.7360   49.1920 N   0  0  0  0  0  0  0  0  0  0  0  0
   62.6840   33.9080   49.7750 C   0  0  0  0  0  0  0  0  0  0  0  0
   61.2080   33.8510   49.9670 C   0  0  0  0  0  0  0  0  0  0  0  0
   64.0570   33.1880   48.0520 C   0  0  0  0  0  0  0  0  0  0  0  0
   63.2320   33.2190   46.7960 C   0  0  0  0  0  0  0  0  0  0  0  0
   61.9210   32.7040   47.0880 N   0  0  0  0  0  0  0  0  0  0  0  0
   60.6960   33.1720   46.5600 C   0  0  0  0  0  0  0  0  0  0  0  0
   60.3960   34.5050   46.4610 C   0  0  0  0  0  0  0  0  0  0  0  0
   59.2260   35.0190   45.9350 C   0  0  0  0  0  0  0  0  0  0  0  0
   58.3030   34.1070   45.4800 C   0  0  0  0  0  0  0  0  0  0  0  0
   57.0200   34.5630   44.9000 C   0  0  0  0  0  0  0  0  0  0  0  0
   58.5970   32.7600   45.5740 C   0  0  0  0  0  0  0  0  0  0  0  0
   57.6580   31.3060   45.0890 S   0  0  0  0  0  0  0  0  0  0  0  0
   58.9910   30.1590   45.6690 C   0  0  0  0  0  0  0  0  0  0  0  0
   58.7890   28.7340   45.5230 N   0  0  0  0  0  0  0  0  0  0  0  0
   57.9240   27.9650   46.3430 C   0  0  0  0  0  0  0  0  0  0  0  0
   57.2370   26.8300   45.6620 C   0  0  0  0  0  0  0  0  0  0  0  0
   57.7100   26.4820   44.3730 N   0  0  0  0  0  0  0  0  0  0  0  0
   58.3870   27.4790   43.6090 C   0  0  0  0  0  0  0  0  0  0  0  0
   59.5200   28.0760   44.4610 C   0  0  0  0  0  0  0  0  0  0  0  0
   59.8020   30.9230   46.0720 N   0  0  0  0  0  0  0  0  0  0  0  0
   59.7430   32.2400   46.0890 C   0  0  0  0  0  0  0  0  0  0  0  0
   65.8630   32.4682   51.1635 H   0  0  0  0  0  0  0  0  0  0  0  0
   66.1517   31.6165   49.6086 H   0  0  0  0  0  0  0  0  0  0  0  0
   65.6634   33.3451   49.6086 H   0  0  0  0  0  0  0  0  0  0  0  0
   64.0357   30.9152   49.7495 H   0  0  0  0  0  0  0  0  0  0  0  0
   63.6851   32.1285   51.0828 H   0  0  0  0  0  0  0  0  0  0  0  0
   63.1480   34.0689   50.7593 H   0  0  0  0  0  0  0  0  0  0  0  0
   62.8647   34.7252   49.0612 H   0  0  0  0  0  0  0  0  0  0  0  0
   60.9782   33.8421   51.0427 H   0  0  0  0  0  0  0  0  0  0  0  0
   60.7432   34.7319   49.5000 H   0  0  0  0  0  0  0  0  0  0  0  0
   60.8125   32.9369   49.5000 H   0  0  0  0  0  0  0  0  0  0  0  0
   64.4345   34.2007   48.2565 H   0  0  0  0  0  0  0  0  0  0  0  0
   64.8876   32.4827   47.9014 H   0  0  0  0  0  0  0  0  0  0  0  0
   63.1499   34.2543   46.4334 H   0  0  0  0  0  0  0  0  0  0  0  0
   63.7104   32.6034   46.0200 H   0  0  0  0  0  0  0  0  0  0  0  0
   61.8940   31.8880   47.7740 H   0  0  0  0  0  0  0  0  0  0  0  0
   61.1447   35.2220   46.8288 H   0  0  0  0  0  0  0  0  0  0  0  0
   59.0425   36.1023   45.8830 H   0  0  0  0  0  0  0  0  0  0  0  0
   56.3192   34.8121   45.7104 H   0  0  0  0  0  0  0  0  0  0  0  0
   57.1944   35.4542   44.2792 H   0  0  0  0  0  0  0  0  0  0  0  0
   56.5928   33.7616   44.2792 H   0  0  0  0  0  0  0  0  0  0  0  0
   58.5191   27.5533   47.1715 H   0  0  0  0  0  0  0  0  0  0  0  0
   57.1270   28.6499   46.6682 H   0  0  0  0  0  0  0  0  0  0  0  0
   57.3397   25.9437   46.3054 H   0  0  0  0  0  0  0  0  0  0  0  0
   56.2017   27.1685   45.5087 H   0  0  0  0  0  0  0  0  0  0  0  0
   57.0070   26.0320   43.7590 H   0  0  0  0  0  0  0  0  0  0  0  0
   58.8085   27.0247   42.7002 H   0  0  0  0  0  0  0  0  0  0  0  0
   57.6804   28.2713   43.3209 H   0  0  0  0  0  0  0  0  0  0  0  0
   60.1779   27.2888   44.8579 H   0  0  0  0  0  0  0  0  0  0  0  0
   60.1866   28.7484   43.9010 H   0  0  0  0  0  0  0  0  0  0  0  0
  1  2  1  0
  2  3  1  0
  3  4  1  0
  4  5  1  0
  3  6  1  0
  6  7  1  0
  7  8  1  0
  8  9  1  0
  9 10  2  0
 10 11  1  0
 11 12  2  0
 12 13  1  0
 12 14  1  0
 14 15  1  0
 15 16  1  0
 16 17  1  0
 17 18  1  0
 18 19  1  0
 19 20  1  0
 20 21  1  0
 21 22  1  0
 16 23  2  0
 23 24  1  0
 24  9  1  0
 24 14  2  0
 22 17  1  0
  1 25  1  0
  1 26  1  0
  1 27  1  0
  2 28  1  0
  2 29  1  0
  4 30  1  0
  4 31  1  0
  5 32  1  0
  5 33  1  0
  5 34  1  0
  6 35  1  0
  6 36  1  0
  7 37  1  0
  7 38  1  0
  8 39  1  0
 10 40  1  0
 11 41  1  0
 13 42  1  0
 13 43  1  0
 13 44  1  0
 18 45  1  0
 18 46  1  0
 19 47  1  0
 19 48  1  0
 20 49  1  0
 21 50  1  0
 21 51  1  0
 22 52  1  0
 22 53  1  0
M  END
>  <smiles>  (41) 
CCN(CC)CCNc1ccc(C)c2sc(N3CCNCC3)nc12

>  <score_type>  (41) 
oracle

>  <origin>  (41) 
adg

>  <m_score__min__energy>  (41) 
-8.1799999999999997

>  <m_primary>  (41) 
energy

$$$$
