0:0
     RDKit          3D

 30 30  0  0  0  0  0  0  0  0999 V2000
   57.7510   33.1700   44.5540 C   0  0  0  0  0  0  0  0  0  0  0  0
   57.4040   32.2390   45.7120 C   0  0  0  0  0  0  0  0  0  0  0  0
   57.2000   30.8590   45.2150 N   0  0  0  0  0  0  0  0  0  0  0  0
   56.6210   30.8490   43.8500 C   0  0  0  0  0  0  0  0  0  0  0  0
   55.5210   29.7880   43.7490 C   0  0  0  0  0  0  0  0  0  0  0  0
   55.1450   29.3260   45.0170 O   0  0  0  0  0  0  0  0  0  0  0  0
   58.4560   30.0800   45.2760 C   0  0  0  0  0  0  0  0  0  0  0  0
   58.1670   28.6140   45.0810 C   0  0  0  0  0  0  0  0  0  0  0  0
   58.4110   27.9930   43.8450 C   0  0  0  0  0  0  0  0  0  0  0  0
   58.1260   26.6350   43.6720 C   0  0  0  0  0  0  0  0  0  0  0  0
   57.5950   25.8890   44.7300 C   0  0  0  0  0  0  0  0  0  0  0  0
   57.2050   24.0350   44.4900 Br  0  0  0  0  0  0  0  0  0  0  0  0
   57.3510   26.5020   45.9630 C   0  0  0  0  0  0  0  0  0  0  0  0
   57.6340   27.8600   46.1390 C   0  0  0  0  0  0  0  0  0  0  0  0
   58.1093   34.1312   44.9510 H   0  0  0  0  0  0  0  0  0  0  0  0
   58.5385   32.7113   43.9381 H   0  0  0  0  0  0  0  0  0  0  0  0
   56.8554   33.3386   43.9381 H   0  0  0  0  0  0  0  0  0  0  0  0
   58.2270   32.2444   46.4418 H   0  0  0  0  0  0  0  0  0  0  0  0
   56.4769   32.5895   46.1890 H   0  0  0  0  0  0  0  0  0  0  0  0
   56.1930   31.8381   43.6298 H   0  0  0  0  0  0  0  0  0  0  0  0
   57.4145   30.6130   43.1256 H   0  0  0  0  0  0  0  0  0  0  0  0
   54.6433   30.2272   43.2523 H   0  0  0  0  0  0  0  0  0  0  0  0
   55.9094   28.9376   43.1694 H   0  0  0  0  0  0  0  0  0  0  0  0
   55.2220   30.1000   45.6340 H   0  0  0  0  0  0  0  0  0  0  0  0
   59.1368   30.4250   44.4838 H   0  0  0  0  0  0  0  0  0  0  0  0
   58.9227   30.2267   46.2612 H   0  0  0  0  0  0  0  0  0  0  0  0
   58.8275   28.5766   43.0108 H   0  0  0  0  0  0  0  0  0  0  0  0
   58.3196   26.1524   42.7026 H   0  0  0  0  0  0  0  0  0  0  0  0
   56.9359   25.9151   46.7956 H   0  0  0  0  0  0  0  0  0  0  0  0
   57.4384   28.3393   47.1096 H   0  0  0  0  0  0  0  0  0  0  0  0
  1  2  1  0
  2  3  1  0
  3  4  1  0
  4  5  1  0
  5  6  1  0
  3  7  1  0
  7  8  1  0
  8  9  2  0
  9 10  1  0
 10 11  2  0
 11 12  1  0
 11 13  1  0
 13 14  2  0
 14  8  1  0
  1 15  1  0
  1 16  1  0
  1 17  1  0
  2 18  1  0
  2 19  1  0
  4 20  1  0
  4 21  1  0
  5 22  1  0
  5 23  1  0
  6 24  1  0
  7 25  1  0
  7 26  1  0
  9 27  1  0
 10 28  1  0
 13 29  1  0
 14 30  1  0
M  END
>  <UniqueID>  (1) 
1

>  <SMILES>  (1) 
CCN(CCO)Cc1ccc(Br)cc1

>  <Energy>  (1) 
26.686247444903458

>  <Genealogy>  (1) 
CCN(CCO)Cc1ccc(Br)cc1 (3D coordinates assigned)
CCN(CCO)Cc1ccc(Br)cc1 (optimized conformer: 26.686247444903458 kcal/mol)

>  <smiles>  (1) 
CCN(CCO)Cc1ccc(Br)cc1

>  <score_type>  (1) 
oracle

>  <origin>  (1) 
adg

>  <m_score__min__energy>  (1) 
-6.3799999999999999

>  <m_primary>  (1) 
energy

$$$$
1:0
     RDKit          3D

 53 55  0  0  0  0  0  0  0  0999 V2000
   62.3890   33.4580   47.1340 C   0  0  0  0  0  0  0  0  0  0  0  0
   61.2520   34.2190   47.8080 C   0  0  0  0  0  0  0  0  0  0  0  0
   60.2800   34.6320   46.8470 O   0  0  0  0  0  0  0  0  0  0  0  0
   59.3330   33.7950   46.2320 C   0  0  0  0  0  0  0  0  0  0  0  0
   58.7240   32.8030   47.0120 C   0  0  0  0  0  0  0  0  0  0  0  0
   57.7720   31.9450   46.4550 C   0  0  0  0  0  0  0  0  0  0  0  0
   57.3980   32.0830   45.1090 C   0  0  0  0  0  0  0  0  0  0  0  0
   56.4490   31.1970   44.5000 N   0  0  0  0  0  0  0  0  0  0  0  0
   56.7450   30.1630   43.5530 C   0  0  0  0  0  0  0  0  0  0  0  0
   56.2250   30.2200   42.4080 O   0  0  0  0  0  0  0  0  0  0  0  0
   57.5900   28.9630   43.9180 C   0  0  0  0  0  0  0  0  0  0  0  0
   58.1880   29.1030   45.2660 N   0  0  0  0  0  0  0  0  0  0  0  0
   57.9840   27.8600   46.0370 C   0  0  0  0  0  0  0  0  0  0  0  0
   58.5000   28.0100   47.4860 C   0  0  0  0  0  0  0  0  0  0  0  0
   59.4160   29.1650   47.6320 N   0  0  0  0  0  0  0  0  0  0  0  0
   60.1330   29.1180   48.9240 C   0  0  0  0  0  0  0  0  0  0  0  0
   59.7360   30.2820   49.7950 C   0  0  0  0  0  0  0  0  0  0  0  0
   60.5730   31.4050   49.8900 C   0  0  0  0  0  0  0  0  0  0  0  0
   60.1980   32.4990   50.6750 C   0  0  0  0  0  0  0  0  0  0  0  0
   58.9820   32.4820   51.3680 C   0  0  0  0  0  0  0  0  0  0  0  0
   58.5120   33.8550   52.3510 Cl  0  0  0  0  0  0  0  0  0  0  0  0
   58.1410   31.3680   51.2720 C   0  0  0  0  0  0  0  0  0  0  0  0
   58.5130   30.2730   50.4870 C   0  0  0  0  0  0  0  0  0  0  0  0
   60.3740   29.1960   46.5140 C   0  0  0  0  0  0  0  0  0  0  0  0
   59.6350   29.4270   45.1790 C   0  0  0  0  0  0  0  0  0  0  0  0
   58.0210   33.0560   44.3210 C   0  0  0  0  0  0  0  0  0  0  0  0
   58.9730   33.9160   44.8760 C   0  0  0  0  0  0  0  0  0  0  0  0
   63.0432   33.0201   47.9023 H   0  0  0  0  0  0  0  0  0  0  0  0
   61.9723   32.6561   46.5068 H   0  0  0  0  0  0  0  0  0  0  0  0
   62.9715   34.1489   46.5068 H   0  0  0  0  0  0  0  0  0  0  0  0
   60.7705   33.5654   48.5503 H   0  0  0  0  0  0  0  0  0  0  0  0
   61.6666   35.1127   48.2973 H   0  0  0  0  0  0  0  0  0  0  0  0
   58.9977   32.6987   48.0723 H   0  0  0  0  0  0  0  0  0  0  0  0
   57.3141   31.1588   47.0733 H   0  0  0  0  0  0  0  0  0  0  0  0
   56.9576   28.0631   43.9004 H   0  0  0  0  0  0  0  0  0  0  0  0
   58.4080   28.8846   43.1867 H   0  0  0  0  0  0  0  0  0  0  0  0
   57.6930   29.8810   45.7670 H   0  0  0  0  0  0  0  0  0  0  0  0
   56.9097   27.6251   46.0612 H   0  0  0  0  0  0  0  0  0  0  0  0
   58.5471   27.0509   45.5488 H   0  0  0  0  0  0  0  0  0  0  0  0
   57.6396   28.1521   48.1565 H   0  0  0  0  0  0  0  0  0  0  0  0
   59.0589   27.0983   47.7438 H   0  0  0  0  0  0  0  0  0  0  0  0
   59.8852   28.1791   49.4407 H   0  0  0  0  0  0  0  0  0  0  0  0
   61.2145   29.1729   48.7310 H   0  0  0  0  0  0  0  0  0  0  0  0
   61.5280   31.4241   49.3444 H   0  0  0  0  0  0  0  0  0  0  0  0
   60.8596   33.3747   50.7483 H   0  0  0  0  0  0  0  0  0  0  0  0
   57.1848   31.3539   51.8156 H   0  0  0  0  0  0  0  0  0  0  0  0
   57.8463   29.4014   50.4107 H   0  0  0  0  0  0  0  0  0  0  0  0
   61.0937   30.0120   46.6758 H   0  0  0  0  0  0  0  0  0  0  0  0
   60.9006   28.2313   46.4683 H   0  0  0  0  0  0  0  0  0  0  0  0
   59.7433   30.4840   44.8942 H   0  0  0  0  0  0  0  0  0  0  0  0
   60.0826   28.7581   44.4292 H   0  0  0  0  0  0  0  0  0  0  0  0
   57.7598   33.1452   43.2562 H   0  0  0  0  0  0  0  0  0  0  0  0
   59.4426   34.6901   44.2513 H   0  0  0  0  0  0  0  0  0  0  0  0
  1  2  1  0
  2  3  1  0
  3  4  1  0
  4  5  2  0
  5  6  1  0
  6  7  2  0
  7  8  1  0
  8  9  1  0
  9 10  2  0
  9 11  1  0
 11 12  1  0
 12 13  1  0
 13 14  1  0
 14 15  1  0
 15 16  1  0
 16 17  1  0
 17 18  2  0
 18 19  1  0
 19 20  2  0
 20 21  1  0
 20 22  1  0
 22 23  2  0
 15 24  1  0
 24 25  1  0
  7 26  1  0
 26 27  2  0
 27  4  1  0
 25 12  1  0
 23 17  1  0
  1 28  1  0
  1 29  1  0
  1 30  1  0
  2 31  1  0
  2 32  1  0
  5 33  1  0
  6 34  1  0
 11 35  1  0
 11 36  1  0
 12 37  1  0
 13 38  1  0
 13 39  1  0
 14 40  1  0
 14 41  1  0
 16 42  1  0
 16 43  1  0
 18 44  1  0
 19 45  1  0
 22 46  1  0
 23 47  1  0
 24 48  1  0
 24 49  1  0
 25 50  1  0
 25 51  1  0
 26 52  1  0
 27 53  1  0
M  CHG  2   8  -1  12   1
M  END
>  <UniqueID>  (2) 
2

>  <SMILES>  (2) 
CCOc1ccc([N-]C(=O)C[NH+]2CCN(Cc3ccc(Cl)cc3)CC2)cc1

>  <Energy>  (2) 
65.96451202248186

>  <Genealogy>  (2) 
CCOc1ccc([N-]C(=O)C[NH+]2CCN(Cc3ccc(Cl)cc3)CC2)cc1 (protonated)
CCOc1ccc([N-]C(=O)C[NH+]2CCN(Cc3ccc(Cl)cc3)CC2)cc1 (3D coordinates assigned)
CCOc1ccc([N-]C(=O)C[NH+]2CCN(Cc3ccc(Cl)cc3)CC2)cc1 (nonaromatic ring conformer: 65.96451202248186 kcal/mol)

>  <smiles>  (2) 
CCOc1ccc(NC(=O)CN2CCN(Cc3ccc(Cl)cc3)CC2)cc1

>  <score_type>  (2) 
oracle

>  <origin>  (2) 
adg

>  <m_score__min__energy>  (2) 
-8.8300000000000001

>  <m_primary>  (2) 
energy

$$$$
2:0
     RDKit          3D

 50 51  0  0  0  0  0  0  0  0999 V2000
   57.7810   33.5450   44.1200 C   0  0  0  0  0  0  0  0  0  0  0  0
   57.4570   32.1320   44.5920 C   0  0  0  0  0  0  0  0  0  0  0  0
   57.4030   32.0890   46.0060 O   0  0  0  0  0  0  0  0  0  0  0  0
   58.1590   33.1430   46.5650 C   0  0  0  0  0  0  0  0  0  0  0  0
   59.6460   32.8180   46.4270 C   0  0  0  0  0  0  0  0  0  0  0  0
   60.2480   32.5510   47.7550 N   0  0  0  0  0  0  0  0  0  0  0  0
   61.5280   31.7990   47.6900 C   0  0  0  0  0  0  0  0  0  0  0  0
   61.4850   30.4380   48.4090 C   0  0  0  0  0  0  0  0  0  0  0  0
   60.2360   29.7000   48.1240 N   0  0  0  0  0  0  0  0  0  0  0  0
   60.1850   29.1540   46.7500 C   0  0  0  0  0  0  0  0  0  0  0  0
   58.8570   28.4940   46.4750 C   0  0  0  0  0  0  0  0  0  0  0  0
   57.8610   29.1920   45.7790 C   0  0  0  0  0  0  0  0  0  0  0  0
   56.6100   28.5940   45.5340 C   0  0  0  0  0  0  0  0  0  0  0  0
   55.5880   29.2600   44.8390 O   0  0  0  0  0  0  0  0  0  0  0  0
   55.6970   29.7340   43.5020 C   0  0  0  0  0  0  0  0  0  0  0  0
   56.3680   27.2940   45.9950 C   0  0  0  0  0  0  0  0  0  0  0  0
   55.1340   26.6980   45.7550 O   0  0  0  0  0  0  0  0  0  0  0  0
   57.3540   26.5860   46.6970 C   0  0  0  0  0  0  0  0  0  0  0  0
   57.0570   25.2890   47.1430 O   0  0  0  0  0  0  0  0  0  0  0  0
   56.6790   24.2110   46.2920 C   0  0  0  0  0  0  0  0  0  0  0  0
   58.6010   27.1940   46.9350 C   0  0  0  0  0  0  0  0  0  0  0  0
   59.0200   30.4790   48.4670 C   0  0  0  0  0  0  0  0  0  0  0  0
   59.2860   31.9790   48.7210 C   0  0  0  0  0  0  0  0  0  0  0  0
   57.9307   34.1978   44.9926 H   0  0  0  0  0  0  0  0  0  0  0  0
   58.6985   33.5276   43.5134 H   0  0  0  0  0  0  0  0  0  0  0  0
   56.9476   33.9291   43.5134 H   0  0  0  0  0  0  0  0  0  0  0  0
   56.4832   31.8263   44.1818 H   0  0  0  0  0  0  0  0  0  0  0  0
   58.2437   31.4475   44.2420 H   0  0  0  0  0  0  0  0  0  0  0  0
   57.9355   34.0794   46.0329 H   0  0  0  0  0  0  0  0  0  0  0  0
   57.9020   33.2609   47.6280 H   0  0  0  0  0  0  0  0  0  0  0  0
   59.7639   31.9281   45.7913 H   0  0  0  0  0  0  0  0  0  0  0  0
   60.1565   33.6804   45.9736 H   0  0  0  0  0  0  0  0  0  0  0  0
   61.7750   31.6251   46.6323 H   0  0  0  0  0  0  0  0  0  0  0  0
   62.2853   32.4095   48.2036 H   0  0  0  0  0  0  0  0  0  0  0  0
   62.3398   29.8322   48.0738 H   0  0  0  0  0  0  0  0  0  0  0  0
   61.5297   30.6245   49.4922 H   0  0  0  0  0  0  0  0  0  0  0  0
   60.3337   29.9741   46.0321 H   0  0  0  0  0  0  0  0  0  0  0  0
   60.9779   28.3988   46.6453 H   0  0  0  0  0  0  0  0  0  0  0  0
   58.0577   30.2136   45.4218 H   0  0  0  0  0  0  0  0  0  0  0  0
   55.9435   30.8060   43.5120 H   0  0  0  0  0  0  0  0  0  0  0  0
   56.4912   29.1800   42.9802 H   0  0  0  0  0  0  0  0  0  0  0  0
   54.7406   29.5825   42.9802 H   0  0  0  0  0  0  0  0  0  0  0  0
   56.3767   23.3489   46.9046 H   0  0  0  0  0  0  0  0  0  0  0  0
   55.8367   24.5230   45.6571 H   0  0  0  0  0  0  0  0  0  0  0  0
   57.5318   23.9287   45.6571 H   0  0  0  0  0  0  0  0  0  0  0  0
   59.3799   26.6459   47.4854 H   0  0  0  0  0  0  0  0  0  0  0  0
   58.3062   30.3903   47.6348 H   0  0  0  0  0  0  0  0  0  0  0  0
   58.6290   30.0615   49.4066 H   0  0  0  0  0  0  0  0  0  0  0  0
   58.3350   32.5256   48.6386 H   0  0  0  0  0  0  0  0  0  0  0  0
   59.7209   32.0775   49.7266 H   0  0  0  0  0  0  0  0  0  0  0  0
  1  2  1  0
  2  3  1  0
  3  4  1  0
  4  5  1  0
  5  6  1  0
  6  7  1  0
  7  8  1  0
  8  9  1  0
  9 10  1  0
 10 11  1  0
 11 12  2  0
 12 13  1  0
 13 14  1  0
 14 15  1  0
 13 16  2  0
 16 17  1  0
 16 18  1  0
 18 19  1  0
 19 20  1  0
 18 21  2  0
  9 22  1  0
 22 23  1  0
 23  6  1  0
 21 11  1  0
  1 24  1  0
  1 25  1  0
  1 26  1  0
  2 27  1  0
  2 28  1  0
  4 29  1  0
  4 30  1  0
  5 31  1  0
  5 32  1  0
  7 33  1  0
  7 34  1  0
  8 35  1  0
  8 36  1  0
 10 37  1  0
 10 38  1  0
 12 39  1  0
 15 40  1  0
 15 41  1  0
 15 42  1  0
 20 43  1  0
 20 44  1  0
 20 45  1  0
 21 46  1  0
 22 47  1  0
 22 48  1  0
 23 49  1  0
 23 50  1  0
M  CHG  1  17  -1
M  END
>  <UniqueID>  (3) 
3

>  <SMILES>  (3) 
CCOCCN1CCN(Cc2cc(OC)c([O-])c(OC)c2)CC1

>  <Energy>  (3) 
62.41930407887625

>  <Genealogy>  (3) 
CCOCCN1CCN(Cc2cc(OC)c([O-])c(OC)c2)CC1 (protonated)
CCOCCN1CCN(Cc2cc(OC)c([O-])c(OC)c2)CC1 (3D coordinates assigned)
CCOCCN1CCN(Cc2cc(OC)c([O-])c(OC)c2)CC1 (nonaromatic ring conformer: 62.41930407887625 kcal/mol)

>  <smiles>  (3) 
CCOCCN1CCN(Cc2cc(OC)c(O)c(OC)c2)CC1

>  <score_type>  (3) 
oracle

>  <origin>  (3) 
adg

>  <m_score__min__energy>  (3) 
-10

>  <m_primary>  (3) 
energy

$$$$
3:0
     RDKit          3D

 24 24  0  0  0  0  0  0  0  0999 V2000
   59.5275   29.9598   44.1892 H   0  0  0  0  0  0  0  0  0  0  0  0
   58.5480   29.5560   44.4850 C   0  0  0  0  0  0  0  0  0  0  0  0
   57.3840   30.1750   44.0390 C   0  0  0  0  0  0  0  0  0  0  0  0
   57.4780   31.7250   42.9270 Br  0  0  0  0  0  0  0  0  0  0  0  0
   56.1510   29.6670   44.4340 C   0  0  0  0  0  0  0  0  0  0  0  0
   55.2241   30.1586   44.1036 H   0  0  0  0  0  0  0  0  0  0  0  0
   56.0880   28.5650   45.2270 N   0  0  0  0  0  0  0  0  0  0  0  0
   55.1420   28.2060   45.4930 H   0  0  0  0  0  0  0  0  0  0  0  0
   57.2030   27.9000   45.6530 C   0  0  0  0  0  0  0  0  0  0  0  0
   57.0210   26.8200   46.3670 N   0  0  0  0  0  0  0  0  0  0  0  0
   55.9220   25.9040   46.3640 C   0  0  0  0  0  0  0  0  0  0  0  0
   54.7880   26.3010   45.9870 O   0  0  0  0  0  0  0  0  0  0  0  0
   56.1280   24.4840   46.6860 C   0  0  0  0  0  0  0  0  0  0  0  0
   55.1680   23.7930   47.1230 O   0  0  0  0  0  0  0  0  0  0  0  0
   57.3910   23.9120   46.4960 O   0  0  0  0  0  0  0  0  0  0  0  0
   58.0990   23.9630   45.2580 C   0  0  0  0  0  0  0  0  0  0  0  0
   58.8650   24.7506   45.3121 H   0  0  0  0  0  0  0  0  0  0  0  0
   57.3847   24.1809   44.4503 H   0  0  0  0  0  0  0  0  0  0  0  0
   58.7740   22.6270   44.9690 C   0  0  0  0  0  0  0  0  0  0  0  0
   59.0250   22.1302   45.9178 H   0  0  0  0  0  0  0  0  0  0  0  0
   58.0904   21.9884   44.3903 H   0  0  0  0  0  0  0  0  0  0  0  0
   59.6937   22.7984   44.3903 H   0  0  0  0  0  0  0  0  0  0  0  0
   58.4840   28.4250   45.3060 C   0  0  0  0  0  0  0  0  0  0  0  0
   60.1740   27.8280   46.0070 Br  0  0  0  0  0  0  0  0  0  0  0  0
  1  2  1  0
  2  3  1  0
  3  4  1  0
  3  5  2  0
  5  6  1  0
  5  7  1  0
  7  8  1  0
  7  9  1  0
  9 10  2  0
 10 11  1  0
 11 12  2  0
 11 13  1  0
 13 14  2  0
 13 15  1  0
 15 16  1  0
 16 17  1  0
 16 18  1  0
 16 19  1  0
 19 20  1  0
 19 21  1  0
 19 22  1  0
  9 23  1  0
 23 24  1  0
 23  2  2  0
M  END
>  <UniqueID>  (4) 
4

>  <SMILES>  (4) 
CCOC(=O)C(=O)/N=c1/[nH]cc(Br)cc1Br

>  <Energy>  (4) 
34.93119818201441

>  <Genealogy>  (4) 
CCOC(=O)C(=O)/N=c1/[nH]cc(Br)cc1Br (cis-trans isomerization)
CCOC(=O)C(=O)/N=c1/[nH]cc(Br)cc1Br (3D coordinates assigned)
CCOC(=O)C(=O)/N=c1/[nH]cc(Br)cc1Br (optimized conformer: 34.93119818201441 kcal/mol)

>  <smiles>  (4) 
CCOC(=O)C(=O)N=c1[nH]cc(Br)cc1Br

>  <score_type>  (4) 
oracle

>  <origin>  (4) 
adg

>  <m_score__min__energy>  (4) 
-6.2000000000000002

>  <m_primary>  (4) 
energy

$$$$
4:0
     RDKit          3D

 51 52  0  0  0  0  0  0  0  0999 V2000
   59.3408   26.5121   48.4746 H   0  0  0  0  0  0  0  0  0  0  0  0
   59.6330   27.3100   47.7760 C   0  0  0  0  0  0  0  0  0  0  0  0
   59.3000   28.6390   48.0550 C   0  0  0  0  0  0  0  0  0  0  0  0
   58.7476   28.8836   48.9742 H   0  0  0  0  0  0  0  0  0  0  0  0
   59.6680   29.6640   47.1660 C   0  0  0  0  0  0  0  0  0  0  0  0
   59.2930   31.0970   47.4680 C   0  0  0  0  0  0  0  0  0  0  0  0
   59.7071   31.3740   48.4487 H   0  0  0  0  0  0  0  0  0  0  0  0
   58.1954   31.1702   47.4666 H   0  0  0  0  0  0  0  0  0  0  0  0
   59.8210   32.0380   46.4380 N   0  0  2  0  0  0  0  0  0  0  0  0
   59.8660   31.5240   45.5260 H   0  0  0  0  0  0  0  0  0  0  0  0
   61.2230   32.4610   46.7450 C   0  0  0  0  0  0  0  0  0  0  0  0
   61.8070   32.4149   45.8139 H   0  0  0  0  0  0  0  0  0  0  0  0
   61.5931   31.7745   47.5207 H   0  0  0  0  0  0  0  0  0  0  0  0
   61.3520   33.8880   47.3250 C   0  0  0  0  0  0  0  0  0  0  0  0
   61.3948   34.6077   46.4942 H   0  0  0  0  0  0  0  0  0  0  0  0
   62.2690   33.9297   47.9311 H   0  0  0  0  0  0  0  0  0  0  0  0
   60.1700   34.2420   48.2260 C   0  0  0  0  0  0  0  0  0  0  0  0
   60.2768   35.2851   48.5584 H   0  0  0  0  0  0  0  0  0  0  0  0
   60.1750   33.5494   49.0806 H   0  0  0  0  0  0  0  0  0  0  0  0
   58.8220   34.0880   47.4970 C   0  0  0  0  0  0  0  0  0  0  0  0
   58.4622   35.0866   47.2085 H   0  0  0  0  0  0  0  0  0  0  0  0
   58.1268   33.5881   48.1875 H   0  0  0  0  0  0  0  0  0  0  0  0
   58.9260   33.2110   46.2220 C   0  0  2  0  0  0  0  0  0  0  0  0
   59.3915   33.8289   45.4400 H   0  0  0  0  0  0  0  0  0  0  0  0
   57.5640   32.8130   45.6830 C   0  0  0  0  0  0  0  0  0  0  0  0
   56.6380   33.6680   45.6200 O   0  0  0  0  0  0  0  0  0  0  0  0
   57.3760   31.4810   45.1750 N   0  0  0  0  0  0  0  0  0  0  0  0
   57.3270   31.0780   43.9350 C   0  0  0  0  0  0  0  0  0  0  0  0
   57.7440   31.9470   42.7790 C   0  0  0  0  0  0  0  0  0  0  0  0
   58.1902   32.8768   43.1615 H   0  0  0  0  0  0  0  0  0  0  0  0
   58.4830   31.4111   42.1653 H   0  0  0  0  0  0  0  0  0  0  0  0
   56.8635   32.1882   42.1653 H   0  0  0  0  0  0  0  0  0  0  0  0
   56.8480   29.6760   43.6630 C   0  0  0  0  0  0  0  0  0  0  0  0
   55.8169   29.5749   44.0326 H   0  0  0  0  0  0  0  0  0  0  0  0
   56.9001   29.5034   42.5779 H   0  0  0  0  0  0  0  0  0  0  0  0
   57.7320   28.6190   44.3570 C   0  0  0  0  0  0  0  0  0  0  0  0
   58.6368   29.1253   44.7244 H   0  0  0  0  0  0  0  0  0  0  0  0
   58.1300   27.5270   43.3570 C   0  0  0  0  0  0  0  0  0  0  0  0
   58.4568   26.6304   43.9040 H   0  0  0  0  0  0  0  0  0  0  0  0
   57.2655   27.2761   42.7248 H   0  0  0  0  0  0  0  0  0  0  0  0
   58.9532   27.8912   42.7248 H   0  0  0  0  0  0  0  0  0  0  0  0
   57.0200   27.9930   45.5640 C   0  0  0  0  0  0  0  0  0  0  0  0
   57.4624   28.3820   46.4930 H   0  0  0  0  0  0  0  0  0  0  0  0
   55.9506   28.2487   45.5320 H   0  0  0  0  0  0  0  0  0  0  0  0
   57.1367   26.8997   45.5320 H   0  0  0  0  0  0  0  0  0  0  0  0
   60.3780   29.3390   45.9990 C   0  0  0  0  0  0  0  0  0  0  0  0
   60.6746   30.1339   45.2989 H   0  0  0  0  0  0  0  0  0  0  0  0
   60.7100   28.0070   45.7230 C   0  0  0  0  0  0  0  0  0  0  0  0
   61.2652   27.7578   44.8067 H   0  0  0  0  0  0  0  0  0  0  0  0
   60.3370   26.9940   46.6100 C   0  0  0  0  0  0  0  0  0  0  0  0
   60.6600   25.7050   46.3410 F   0  0  0  0  0  0  0  0  0  0  0  0
  1  2  1  0
  2  3  2  0
  3  4  1  0
  3  5  1  0
  5  6  1  0
  6  7  1  0
  6  8  1  0
  6  9  1  0
  9 10  1  6
  9 11  1  0
 11 12  1  0
 11 13  1  0
 11 14  1  0
 14 15  1  0
 14 16  1  0
 14 17  1  0
 17 18  1  0
 17 19  1  0
 17 20  1  0
 20 21  1  0
 20 22  1  0
 20 23  1  0
 23 24  1  6
 23 25  1  0
 25 26  2  0
 25 27  1  0
 27 28  2  0
 28 29  1  0
 29 30  1  0
 29 31  1  0
 29 32  1  0
 28 33  1  0
 33 34  1  0
 33 35  1  0
 33 36  1  0
 36 37  1  0
 36 38  1  0
 38 39  1  0
 38 40  1  0
 38 41  1  0
 36 42  1  0
 42 43  1  0
 42 44  1  0
 42 45  1  0
  5 46  2  0
 46 47  1  0
 46 48  1  0
 48 49  1  0
 48 50  2  0
 50 51  1  0
 50  2  1  0
 23  9  1  0
M  CHG  1   9   1
M  END
>  <UniqueID>  (5) 
5

>  <SMILES>  (5) 
C/C(CC(C)C)=N\C(=O)[C@H]1CCCC[N@H+]1Cc1ccc(F)cc1

>  <Energy>  (5) 
56.325983213626

>  <Genealogy>  (5) 
CC(CC(C)C)=NC(=O)C1CCCC[NH+]1Cc1ccc(F)cc1 (protonated)
CC(CC(C)C)=NC(=O)[C@H]1CCCC[N@H+]1Cc1ccc(F)cc1 (chirality)
C/C(CC(C)C)=N\C(=O)[C@H]1CCCC[N@H+]1Cc1ccc(F)cc1 (cis-trans isomerization)
C/C(CC(C)C)=N\C(=O)[C@H]1CCCC[N@H+]1Cc1ccc(F)cc1 (3D coordinates assigned)
C/C(CC(C)C)=N\C(=O)[C@H]1CCCC[N@H+]1Cc1ccc(F)cc1 (nonaromatic ring conformer: 56.325983213626 kcal/mol)

>  <smiles>  (5) 
CC(CC(C)C)=NC(=O)C1CCCCN1Cc1ccc(F)cc1

>  <score_type>  (5) 
oracle

>  <origin>  (5) 
adg

>  <m_score__min__energy>  (5) 
-5.8700000000000001

>  <m_primary>  (5) 
energy

$$$$
5:0
     RDKit          3D

 31 32  0  0  0  0  0  0  0  0999 V2000
   54.0910   24.3002   45.9144 H   0  0  0  0  0  0  0  0  0  0  0  0
   55.0390   24.8480   45.8090 C   0  0  0  0  0  0  0  0  0  0  0  0
   55.1290   26.1920   45.9990 N   0  0  0  0  0  0  0  0  0  0  0  0
   56.3880   26.6410   45.8180 C   0  0  0  0  0  0  0  0  0  0  0  0
   56.6940   27.9000   45.9400 N   0  0  0  0  0  0  0  0  0  0  0  0
   56.6080   28.9220   44.9350 C   0  0  0  0  0  0  0  0  0  0  0  0
   55.6250   29.7090   44.8800 O   0  0  0  0  0  0  0  0  0  0  0  0
   57.7000   29.0450   43.9190 C   0  0  0  0  0  0  0  0  0  0  0  0
   57.2714   29.3947   42.9682 H   0  0  0  0  0  0  0  0  0  0  0  0
   58.1718   28.0604   43.7845 H   0  0  0  0  0  0  0  0  0  0  0  0
   58.6920   29.9750   44.3570 O   0  0  0  0  0  0  0  0  0  0  0  0
   58.4620   31.0680   45.2100 C   0  0  0  0  0  0  0  0  0  0  0  0
   58.8120   31.0540   46.5730 C   0  0  0  0  0  0  0  0  0  0  0  0
   59.2937   30.1639   47.0040 H   0  0  0  0  0  0  0  0  0  0  0  0
   58.5510   32.1670   47.3860 C   0  0  0  0  0  0  0  0  0  0  0  0
   58.9660   32.1610   48.8280 C   0  0  0  0  0  0  0  0  0  0  0  0
   58.0709   32.1739   49.4672 H   0  0  0  0  0  0  0  0  0  0  0  0
   59.5527   31.2543   49.0369 H   0  0  0  0  0  0  0  0  0  0  0  0
   59.5787   33.0504   49.0369 H   0  0  0  0  0  0  0  0  0  0  0  0
   57.9670   33.3110   46.8250 C   0  0  0  0  0  0  0  0  0  0  0  0
   57.7938   34.1989   47.4508 H   0  0  0  0  0  0  0  0  0  0  0  0
   57.6020   33.3310   45.4710 C   0  0  0  0  0  0  0  0  0  0  0  0
   57.0050   34.5680   44.8690 C   0  0  0  0  0  0  0  0  0  0  0  0
   56.6781   35.2454   45.6717 H   0  0  0  0  0  0  0  0  0  0  0  0
   57.7584   35.0734   44.2469 H   0  0  0  0  0  0  0  0  0  0  0  0
   56.1406   34.2926   44.2469 H   0  0  0  0  0  0  0  0  0  0  0  0
   57.8650   32.2120   44.6690 C   0  0  0  0  0  0  0  0  0  0  0  0
   57.5990   32.2334   43.6019 H   0  0  0  0  0  0  0  0  0  0  0  0
   57.4390   25.3840   45.4090 S   0  0  0  0  0  0  0  0  0  0  0  0
   56.2310   24.2160   45.4720 C   0  0  0  0  0  0  0  0  0  0  0  0
   56.3609   23.1406   45.2803 H   0  0  0  0  0  0  0  0  0  0  0  0
  1  2  1  0
  2  3  1  0
  3  4  1  0
  4  5  2  0
  5  6  1  0
  6  7  2  0
  6  8  1  0
  8  9  1  0
  8 10  1  0
  8 11  1  0
 11 12  1  0
 12 13  2  0
 13 14  1  0
 13 15  1  0
 15 16  1  0
 16 17  1  0
 16 18  1  0
 16 19  1  0
 15 20  2  0
 20 21  1  0
 20 22  1  0
 22 23  1  0
 23 24  1  0
 23 25  1  0
 23 26  1  0
 22 27  2  0
 27 28  1  0
  4 29  1  0
 29 30  1  0
 30 31  1  0
 30  2  2  0
 27 12  1  0
M  CHG  1   3  -1
M  END
>  <UniqueID>  (6) 
6

>  <SMILES>  (6) 
Cc1cc(C)cc(OCC(=O)/N=c2/[n-]ccs2)c1

>  <Energy>  (6) 
61.80390972739822

>  <Genealogy>  (6) 
Cc1cc(C)cc(OCC(=O)N=c2[n-]ccs2)c1 (protonated)
Cc1cc(C)cc(OCC(=O)/N=c2/[n-]ccs2)c1 (cis-trans isomerization)
Cc1cc(C)cc(OCC(=O)/N=c2/[n-]ccs2)c1 (3D coordinates assigned)
Cc1cc(C)cc(OCC(=O)/N=c2/[n-]ccs2)c1 (optimized conformer: 61.80390972739822 kcal/mol)

>  <smiles>  (6) 
Cc1cc(C)cc(OCC(=O)N=c2[nH]ccs2)c1

>  <score_type>  (6) 
oracle

>  <origin>  (6) 
adg

>  <m_score__min__energy>  (6) 
-8.8599999999999994

>  <m_primary>  (6) 
energy

$$$$
6:0
     RDKit          3D

 40 44  0  0  0  0  0  0  0  0999 V2000
   60.9220   26.3980   46.7960 C   0  0  0  0  0  0  0  0  0  0  0  0
   60.2020   27.7050   46.6380 C   0  0  0  0  0  0  0  0  0  0  0  0
   59.2240   28.0900   47.5670 C   0  0  0  0  0  0  0  0  0  0  0  0
   58.5270   29.2890   47.4000 C   0  0  0  0  0  0  0  0  0  0  0  0
   58.7880   30.1190   46.2940 C   0  0  0  0  0  0  0  0  0  0  0  0
   58.0300   31.4180   46.1040 C   0  0  2  0  0  0  0  0  0  0  0  0
   57.7120   31.6150   44.6320 C   0  0  0  0  0  0  0  0  0  0  0  0
   58.3830   32.5910   43.8780 C   0  0  0  0  0  0  0  0  0  0  0  0
   58.1480   32.7010   42.5450 N   0  0  0  0  0  0  0  0  0  0  0  0
   57.2610   31.8870   41.9200 C   0  0  0  0  0  0  0  0  0  0  0  0
   57.0580   32.0080   40.6840 O   0  0  0  0  0  0  0  0  0  0  0  0
   56.5890   30.9430   42.6280 N   0  0  0  0  0  0  0  0  0  0  0  0
   56.7920   30.7870   43.9610 C   0  0  0  0  0  0  0  0  0  0  0  0
   56.1560   29.8970   44.5820 O   0  0  0  0  0  0  0  0  0  0  0  0
   59.2780   33.4680   44.4890 O   0  0  0  0  0  0  0  0  0  0  0  0
   59.4560   33.5100   45.8730 C   0  0  0  0  0  0  0  0  0  0  0  0
   60.2600   34.5140   46.4210 C   0  0  0  0  0  0  0  0  0  0  0  0
   60.4310   34.6100   47.8020 C   0  0  0  0  0  0  0  0  0  0  0  0
   59.7960   33.6960   48.6530 C   0  0  0  0  0  0  0  0  0  0  0  0
   59.9550   33.7750   50.0420 C   0  0  0  0  0  0  0  0  0  0  0  0
   59.3190   32.8470   50.8680 C   0  0  0  0  0  0  0  0  0  0  0  0
   58.5300   31.8480   50.2960 C   0  0  0  0  0  0  0  0  0  0  0  0
   58.3830   31.7820   48.9470 N   0  0  0  0  0  0  0  0  0  0  0  0
   58.9890   32.6700   48.1090 C   0  0  0  0  0  0  0  0  0  0  0  0
   58.8200   32.5690   46.7100 C   0  0  0  0  0  0  0  0  0  0  0  0
   59.7580   29.7200   45.3580 C   0  0  0  0  0  0  0  0  0  0  0  0
   60.4540   28.5210   45.5250 C   0  0  0  0  0  0  0  0  0  0  0  0
   61.0452   26.1743   47.8659 H   0  0  0  0  0  0  0  0  0  0  0  0
   60.3376   25.5974   46.3189 H   0  0  0  0  0  0  0  0  0  0  0  0
   61.9110   26.4642   46.3189 H   0  0  0  0  0  0  0  0  0  0  0  0
   59.0050   27.4450   48.4307 H   0  0  0  0  0  0  0  0  0  0  0  0
   57.7683   29.5867   48.1387 H   0  0  0  0  0  0  0  0  0  0  0  0
   57.0668   31.3834   46.6341 H   0  0  0  0  0  0  0  0  0  0  0  0
   60.7617   35.2340   45.7578 H   0  0  0  0  0  0  0  0  0  0  0  0
   61.0650   35.4041   48.2233 H   0  0  0  0  0  0  0  0  0  0  0  0
   60.5798   34.5667   50.4811 H   0  0  0  0  0  0  0  0  0  0  0  0
   59.4386   32.9025   51.9601 H   0  0  0  0  0  0  0  0  0  0  0  0
   58.0257   31.1119   50.9393 H   0  0  0  0  0  0  0  0  0  0  0  0
   59.9705   30.3574   44.4870 H   0  0  0  0  0  0  0  0  0  0  0  0
   61.2035   28.2148   44.7803 H   0  0  0  0  0  0  0  0  0  0  0  0
  1  2  1  0
  2  3  2  0
  3  4  1  0
  4  5  2  0
  5  6  1  0
  6  7  1  0
  7  8  2  0
  8  9  1  0
  9 10  1  0
 10 11  2  0
 10 12  1  0
 12 13  1  0
 13 14  2  0
  8 15  1  0
 15 16  1  0
 16 17  2  0
 17 18  1  0
 18 19  2  0
 19 20  1  0
 20 21  2  0
 21 22  1  0
 22 23  2  0
 23 24  1  0
 24 25  2  0
  5 26  1  0
 26 27  2  0
 27  2  1  0
 25  6  1  0
 13  7  1  0
 25 16  1  0
 24 19  1  0
  1 28  1  0
  1 29  1  0
  1 30  1  0
  3 31  1  0
  4 32  1  0
  6 33  1  1
 17 34  1  0
 18 35  1  0
 20 36  1  0
 21 37  1  0
 22 38  1  0
 26 39  1  0
 27 40  1  0
M  CHG  2   9  -1  12  -1
M  END
>  <UniqueID>  (7) 
7

>  <SMILES>  (7) 
Cc1ccc([C@@H]2c3c([n-]c(=O)[n-]c3=O)Oc3ccc4cccnc4c32)cc1

>  <Energy>  (7) 
55.04622459247975

>  <Genealogy>  (7) 
Cc1ccc(C2c3c([n-]c(=O)[n-]c3=O)Oc3ccc4cccnc4c32)cc1 (protonated)
Cc1ccc([C@@H]2c3c([n-]c(=O)[n-]c3=O)Oc3ccc4cccnc4c32)cc1 (chirality)
Cc1ccc([C@@H]2c3c([n-]c(=O)[n-]c3=O)Oc3ccc4cccnc4c32)cc1 (3D coordinates assigned)
Cc1ccc([C@@H]2c3c([n-]c(=O)[n-]c3=O)Oc3ccc4cccnc4c32)cc1 (nonaromatic ring conformer: 55.04622459247975 kcal/mol)

>  <smiles>  (7) 
Cc1ccc(C2c3c([nH]c(=O)[nH]c3=O)Oc3ccc4cccnc4c32)cc1

>  <score_type>  (7) 
oracle

>  <origin>  (7) 
adg

>  <m_score__min__energy>  (7) 
-10.390000000000001

>  <m_primary>  (7) 
energy

$$$$
7:0
     RDKit          3D

 30 31  0  0  0  0  0  0  0  0999 V2000
   55.8900   29.7240   43.6830 C   0  0  0  0  0  0  0  0  0  0  0  0
   56.2890   30.8050   44.4970 O   0  0  0  0  0  0  0  0  0  0  0  0
   57.3420   31.5200   43.8820 C   0  0  0  0  0  0  0  0  0  0  0  0
   58.0100   32.4530   44.8660 C   0  0  0  0  0  0  0  0  0  0  0  0
   58.2670   33.7780   44.4790 C   0  0  0  0  0  0  0  0  0  0  0  0
   58.8810   34.6660   45.3640 C   0  0  0  0  0  0  0  0  0  0  0  0
   59.2560   34.2380   46.6390 C   0  0  0  0  0  0  0  0  0  0  0  0
   59.0050   32.9230   47.0430 C   0  0  0  0  0  0  0  0  0  0  0  0
   59.6250   32.3650   48.7680 Br  0  0  0  0  0  0  0  0  0  0  0  0
   58.3590   32.0280   46.1650 C   0  0  0  0  0  0  0  0  0  0  0  0
   58.0880   30.7100   46.5590 O   0  0  0  0  0  0  0  0  0  0  0  0
   58.9370   29.6170   46.3240 C   0  0  0  0  0  0  0  0  0  0  0  0
   58.8810   28.5240   47.1920 C   0  0  0  0  0  0  0  0  0  0  0  0
   59.7180   27.4260   46.9910 C   0  0  0  0  0  0  0  0  0  0  0  0
   60.6130   27.4340   45.9200 C   0  0  0  0  0  0  0  0  0  0  0  0
   60.6670   28.5070   45.0840 N   0  0  0  0  0  0  0  0  0  0  0  0
   59.8600   29.5880   45.2610 C   0  0  0  0  0  0  0  0  0  0  0  0
   55.5791   28.8817   44.3185 H   0  0  0  0  0  0  0  0  0  0  0  0
   55.0473   30.0347   43.0479 H   0  0  0  0  0  0  0  0  0  0  0  0
   56.7325   29.4127   43.0479 H   0  0  0  0  0  0  0  0  0  0  0  0
   58.0869   30.8061   43.5005 H   0  0  0  0  0  0  0  0  0  0  0  0
   56.9252   32.1187   43.0587 H   0  0  0  0  0  0  0  0  0  0  0  0
   57.9828   34.1184   43.4723 H   0  0  0  0  0  0  0  0  0  0  0  0
   59.0698   35.7051   45.0562 H   0  0  0  0  0  0  0  0  0  0  0  0
   59.7508   34.9379   47.3284 H   0  0  0  0  0  0  0  0  0  0  0  0
   58.1754   28.5290   48.0359 H   0  0  0  0  0  0  0  0  0  0  0  0
   59.6730   26.5620   47.6703 H   0  0  0  0  0  0  0  0  0  0  0  0
   61.2755   26.5722   45.7513 H   0  0  0  0  0  0  0  0  0  0  0  0
   61.3460   28.5010   44.2900 H   0  0  0  0  0  0  0  0  0  0  0  0
   59.9288   30.4422   44.5714 H   0  0  0  0  0  0  0  0  0  0  0  0
  1  2  1  0
  2  3  1  0
  3  4  1  0
  4  5  2  0
  5  6  1  0
  6  7  2  0
  7  8  1  0
  8  9  1  0
  8 10  2  0
 10 11  1  0
 11 12  1  0
 12 13  2  0
 13 14  1  0
 14 15  2  0
 15 16  1  0
 16 17  2  0
 10  4  1  0
 17 12  1  0
  1 18  1  0
  1 19  1  0
  1 20  1  0
  3 21  1  0
  3 22  1  0
  5 23  1  0
  6 24  1  0
  7 25  1  0
 13 26  1  0
 14 27  1  0
 15 28  1  0
 16 29  1  0
 17 30  1  0
M  CHG  1  16   1
M  END
>  <UniqueID>  (8) 
8

>  <SMILES>  (8) 
COCc1cccc(Br)c1Oc1ccc[nH+]c1

>  <Energy>  (8) 
40.45974371843592

>  <Genealogy>  (8) 
COCc1cccc(Br)c1Oc1ccc[nH+]c1 (protonated)
COCc1cccc(Br)c1Oc1ccc[nH+]c1 (3D coordinates assigned)
COCc1cccc(Br)c1Oc1ccc[nH+]c1 (optimized conformer: 40.45974371843592 kcal/mol)

>  <smiles>  (8) 
COCc1cccc(Br)c1Oc1cccnc1

>  <score_type>  (8) 
oracle

>  <origin>  (8) 
adg

>  <m_score__min__energy>  (8) 
-5.0099999999999998

>  <m_primary>  (8) 
energy

$$$$
8:0
     RDKit          3D

 55 56  0  0  0  0  0  0  0  0999 V2000
   62.6620   33.5160   48.2850 C   0  0  0  0  0  0  0  0  0  0  0  0
   62.9980   32.5480   47.1550 C   0  0  0  0  0  0  0  0  0  0  0  0
   62.0660   31.3320   47.1710 C   0  0  0  0  0  0  0  0  0  0  0  0
   61.0290   31.4490   48.2950 C   0  0  0  0  0  0  0  0  0  0  0  0
   59.6690   30.8920   47.8490 C   0  0  0  0  0  0  0  0  0  0  0  0
   58.5520   31.9430   47.9340 C   0  0  0  0  0  0  0  0  0  0  0  0
   58.6820   33.0030   46.8650 C   0  0  0  0  0  0  0  0  0  0  0  0
   59.4740   34.1380   47.1040 C   0  0  0  0  0  0  0  0  0  0  0  0
   59.6270   35.1150   46.1180 C   0  0  0  0  0  0  0  0  0  0  0  0
   58.9950   34.9670   44.8840 C   0  0  0  0  0  0  0  0  0  0  0  0
   58.2100   33.8400   44.6280 C   0  0  0  0  0  0  0  0  0  0  0  0
   58.0480   32.8460   45.6140 C   0  0  0  0  0  0  0  0  0  0  0  0
   57.2710   31.6980   45.3860 O   0  0  0  0  0  0  0  0  0  0  0  0
   57.0200   31.1280   44.1040 C   0  0  0  0  0  0  0  0  0  0  0  0
   57.5870   29.6960   44.0780 C   0  0  0  0  0  0  0  0  0  0  0  0
   58.5960   29.4000   45.1280 N   0  0  0  0  0  0  0  0  0  0  0  0
   59.8980   28.9760   44.5540 C   0  0  0  0  0  0  0  0  0  0  0  0
   60.7710   28.3020   45.6190 C   0  0  0  0  0  0  0  0  0  0  0  0
   60.1460   27.0530   46.1150 N   0  0  0  0  0  0  0  0  0  0  0  0
   60.6570   26.7160   47.4520 C   0  0  0  0  0  0  0  0  0  0  0  0
   58.6610   27.0740   46.0910 C   0  0  0  0  0  0  0  0  0  0  0  0
   58.0910   28.5000   46.2030 C   0  0  0  0  0  0  0  0  0  0  0  0
   62.8332   33.0229   49.2533 H   0  0  0  0  0  0  0  0  0  0  0  0
   63.3038   34.4061   48.2083 H   0  0  0  0  0  0  0  0  0  0  0  0
   61.6068   33.8171   48.2083 H   0  0  0  0  0  0  0  0  0  0  0  0
   62.8910   33.0694   46.1923 H   0  0  0  0  0  0  0  0  0  0  0  0
   64.0312   32.1966   47.2933 H   0  0  0  0  0  0  0  0  0  0  0  0
   61.5437   31.2664   46.2051 H   0  0  0  0  0  0  0  0  0  0  0  0
   62.6704   30.4295   47.3444 H   0  0  0  0  0  0  0  0  0  0  0  0
   61.3807   30.8819   49.1695 H   0  0  0  0  0  0  0  0  0  0  0  0
   60.9061   32.5121   48.5492 H   0  0  0  0  0  0  0  0  0  0  0  0
   59.7521   30.5477   46.8076 H   0  0  0  0  0  0  0  0  0  0  0  0
   59.4056   30.0657   48.5257 H   0  0  0  0  0  0  0  0  0  0  0  0
   57.5815   31.4386   47.8164 H   0  0  0  0  0  0  0  0  0  0  0  0
   58.6297   32.4394   48.9125 H   0  0  0  0  0  0  0  0  0  0  0  0
   59.9773   34.2582   48.0747 H   0  0  0  0  0  0  0  0  0  0  0  0
   60.2467   36.0022   46.3151 H   0  0  0  0  0  0  0  0  0  0  0  0
   59.1148   35.7395   44.1101 H   0  0  0  0  0  0  0  0  0  0  0  0
   57.7157   33.7278   43.6517 H   0  0  0  0  0  0  0  0  0  0  0  0
   55.9363   31.1000   43.9176 H   0  0  0  0  0  0  0  0  0  0  0  0
   57.5024   31.7353   43.3239 H   0  0  0  0  0  0  0  0  0  0  0  0
   56.7487   28.9949   44.2033 H   0  0  0  0  0  0  0  0  0  0  0  0
   58.1063   29.5889   43.1142 H   0  0  0  0  0  0  0  0  0  0  0  0
   58.7810   30.3230   45.5920 H   0  0  0  0  0  0  0  0  0  0  0  0
   59.7161   28.2651   43.7345 H   0  0  0  0  0  0  0  0  0  0  0  0
   60.4242   29.8666   44.1798 H   0  0  0  0  0  0  0  0  0  0  0  0
   61.7510   28.0628   45.1804 H   0  0  0  0  0  0  0  0  0  0  0  0
   60.8829   28.9948   46.4661 H   0  0  0  0  0  0  0  0  0  0  0  0
   59.9972   27.1511   48.2171 H   0  0  0  0  0  0  0  0  0  0  0  0
   60.6835   25.6226   47.5695 H   0  0  0  0  0  0  0  0  0  0  0  0
   61.6725   27.1222   47.5695 H   0  0  0  0  0  0  0  0  0  0  0  0
   58.3169   26.6295   45.1455 H   0  0  0  0  0  0  0  0  0  0  0  0
   58.3039   26.5015   46.9597 H   0  0  0  0  0  0  0  0  0  0  0  0
   56.9944   28.4484   46.1343 H   0  0  0  0  0  0  0  0  0  0  0  0
   58.4154   28.9159   47.1683 H   0  0  0  0  0  0  0  0  0  0  0  0
  1  2  1  0
  2  3  1  0
  3  4  1  0
  4  5  1  0
  5  6  1  0
  6  7  1  0
  7  8  2  0
  8  9  1  0
  9 10  2  0
 10 11  1  0
 11 12  2  0
 12 13  1  0
 13 14  1  0
 14 15  1  0
 15 16  1  0
 16 17  1  0
 17 18  1  0
 18 19  1  0
 19 20  1  0
 19 21  1  0
 21 22  1  0
 12  7  1  0
 22 16  1  0
  1 23  1  0
  1 24  1  0
  1 25  1  0
  2 26  1  0
  2 27  1  0
  3 28  1  0
  3 29  1  0
  4 30  1  0
  4 31  1  0
  5 32  1  0
  5 33  1  0
  6 34  1  0
  6 35  1  0
  8 36  1  0
  9 37  1  0
 10 38  1  0
 11 39  1  0
 14 40  1  0
 14 41  1  0
 15 42  1  0
 15 43  1  0
 16 44  1  0
 17 45  1  0
 17 46  1  0
 18 47  1  0
 18 48  1  0
 20 49  1  0
 20 50  1  0
 20 51  1  0
 21 52  1  0
 21 53  1  0
 22 54  1  0
 22 55  1  0
M  CHG  1  16   1
M  END
>  <UniqueID>  (9) 
9

>  <SMILES>  (9) 
CCCCCCc1ccccc1OCC[NH+]1CCN(C)CC1

>  <Energy>  (9) 
55.59524792886368

>  <Genealogy>  (9) 
CCCCCCc1ccccc1OCC[NH+]1CCN(C)CC1 (protonated)
CCCCCCc1ccccc1OCC[NH+]1CCN(C)CC1 (3D coordinates assigned)
CCCCCCc1ccccc1OCC[NH+]1CCN(C)CC1 (nonaromatic ring conformer: 55.59524792886368 kcal/mol)

>  <smiles>  (9) 
CCCCCCc1ccccc1OCCN1CCN(C)CC1

>  <score_type>  (9) 
oracle

>  <origin>  (9) 
adg

>  <m_score__min__energy>  (9) 
-4.75

>  <m_primary>  (9) 
energy

$$$$
9:0
     RDKit          3D

 22 23  0  0  0  0  0  0  0  0999 V2000
   55.1380   29.7170   43.7780 C   0  0  0  0  0  0  0  0  0  0  0  0
   55.6740   28.9830   44.8740 O   0  0  0  0  0  0  0  0  0  0  0  0
   57.0370   28.6880   45.0520 C   0  0  0  0  0  0  0  0  0  0  0  0
   58.0390   29.5870   44.6350 C   0  0  0  0  0  0  0  0  0  0  0  0
   59.3860   29.2820   44.8170 C   0  0  0  0  0  0  0  0  0  0  0  0
   59.7610   28.0810   45.4150 C   0  0  0  0  0  0  0  0  0  0  0  0
   58.7840   27.1680   45.8400 C   0  0  0  0  0  0  0  0  0  0  0  0
   57.4130   27.4660   45.6600 C   0  0  0  0  0  0  0  0  0  0  0  0
   56.4050   26.4700   46.1250 C   0  0  0  0  0  0  0  0  0  0  0  0
   55.1700   26.6800   45.9920 O   0  0  0  0  0  0  0  0  0  0  0  0
   56.8450   25.2110   46.7530 C   0  0  0  0  0  0  0  0  0  0  0  0
   58.1410   24.9380   46.9180 C   0  0  0  0  0  0  0  0  0  0  0  0
   59.1770   25.8870   46.4780 C   0  0  0  0  0  0  0  0  0  0  0  0
   60.3910   25.5980   46.6490 O   0  0  0  0  0  0  0  0  0  0  0  0
   54.5292   30.5507   44.1578 H   0  0  0  0  0  0  0  0  0  0  0  0
   55.9607   30.1133   43.1647 H   0  0  0  0  0  0  0  0  0  0  0  0
   54.5100   29.0540   43.1647 H   0  0  0  0  0  0  0  0  0  0  0  0
   57.7548   30.5383   44.1614 H   0  0  0  0  0  0  0  0  0  0  0  0
   60.1575   29.9932   44.4868 H   0  0  0  0  0  0  0  0  0  0  0  0
   60.8269   27.8476   45.5545 H   0  0  0  0  0  0  0  0  0  0  0  0
   56.0922   24.4839   47.0915 H   0  0  0  0  0  0  0  0  0  0  0  0
   58.4394   23.9901   47.3896 H   0  0  0  0  0  0  0  0  0  0  0  0
  1  2  1  0
  2  3  1  0
  3  4  2  0
  4  5  1  0
  5  6  2  0
  6  7  1  0
  7  8  2  0
  8  9  1  0
  9 10  2  0
  9 11  1  0
 11 12  2  0
 12 13  1  0
 13 14  2  0
  8  3  1  0
 13  7  1  0
  1 15  1  0
  1 16  1  0
  1 17  1  0
  4 18  1  0
  5 19  1  0
  6 20  1  0
 11 21  1  0
 12 22  1  0
M  END
>  <UniqueID>  (10) 
10

>  <SMILES>  (10) 
COc1cccc2c1C(=O)C=CC2=O

>  <Energy>  (10) 
24.458955609639972

>  <Genealogy>  (10) 
COc1cccc2c1C(=O)C=CC2=O (3D coordinates assigned)
COc1cccc2c1C(=O)C=CC2=O (nonaromatic ring conformer: 24.458955609639972 kcal/mol)

>  <smiles>  (10) 
COc1cccc2c1C(=O)C=CC2=O

>  <score_type>  (10) 
oracle

>  <origin>  (10) 
adg

>  <m_score__min__energy>  (10) 
-6.1299999999999999

>  <m_primary>  (10) 
energy

$$$$
10:0
     RDKit          3D

 35 37  0  0  0  0  0  0  0  0999 V2000
   55.5210   29.3820   44.4950 C   0  0  0  0  0  0  0  0  0  0  0  0
   56.1910   30.1670   43.8710 C   0  0  0  0  0  0  0  0  0  0  0  0
   57.0190   31.1160   43.1120 C   0  0  0  0  0  0  0  0  0  0  0  0
   58.4560   30.9760   43.4190 N   0  0  0  0  0  0  0  0  0  0  0  0
   58.7370   31.1220   44.8440 C   0  0  0  0  0  0  0  0  0  0  0  0
   58.9400   29.9720   45.6560 C   0  0  0  0  0  0  0  0  0  0  0  0
   58.9690   28.6650   45.1060 C   0  0  0  0  0  0  0  0  0  0  0  0
   59.2200   27.5510   45.9030 C   0  0  0  0  0  0  0  0  0  0  0  0
   59.4590   27.7060   47.2590 C   0  0  0  0  0  0  0  0  0  0  0  0
   59.4210   28.9730   47.8330 C   0  0  0  0  0  0  0  0  0  0  0  0
   59.1260   30.1250   47.0580 C   0  0  0  0  0  0  0  0  0  0  0  0
   59.0310   31.3710   47.6410 N   0  0  0  0  0  0  0  0  0  0  0  0
   58.8890   31.4900   49.1110 C   0  0  0  0  0  0  0  0  0  0  0  0
   59.0410   32.5040   46.8560 C   0  0  0  0  0  0  0  0  0  0  0  0
   59.2530   33.7860   47.4260 C   0  0  0  0  0  0  0  0  0  0  0  0
   59.2030   34.9400   46.6510 C   0  0  0  0  0  0  0  0  0  0  0  0
   58.9570   34.8500   45.2910 C   0  0  0  0  0  0  0  0  0  0  0  0
   58.7880   33.6060   44.6900 C   0  0  0  0  0  0  0  0  0  0  0  0
   58.8510   32.4080   45.4470 C   0  0  0  0  0  0  0  0  0  0  0  0
   54.9099   28.6660   45.0641 H   0  0  0  0  0  0  0  0  0  0  0  0
   56.8678   30.9365   42.0373 H   0  0  0  0  0  0  0  0  0  0  0  0
   56.7117   32.1331   43.3967 H   0  0  0  0  0  0  0  0  0  0  0  0
   58.8310   30.0890   43.0220 H   0  0  0  0  0  0  0  0  0  0  0  0
   58.9900   31.6960   42.8850 H   0  0  0  0  0  0  0  0  0  0  0  0
   58.7898   28.5287   44.0293 H   0  0  0  0  0  0  0  0  0  0  0  0
   59.2285   26.5463   45.4553 H   0  0  0  0  0  0  0  0  0  0  0  0
   59.6790   26.8267   47.8823 H   0  0  0  0  0  0  0  0  0  0  0  0
   59.6236   29.0840   48.9085 H   0  0  0  0  0  0  0  0  0  0  0  0
   59.6425   30.8585   49.6045 H   0  0  0  0  0  0  0  0  0  0  0  0
   59.0364   32.5383   49.4099 H   0  0  0  0  0  0  0  0  0  0  0  0
   57.8827   31.1615   49.4099 H   0  0  0  0  0  0  0  0  0  0  0  0
   59.4612   33.8690   48.5029 H   0  0  0  0  0  0  0  0  0  0  0  0
   59.3588   35.9237   47.1181 H   0  0  0  0  0  0  0  0  0  0  0  0
   58.8950   35.7650   44.6836 H   0  0  0  0  0  0  0  0  0  0  0  0
   58.6020   33.5508   43.6072 H   0  0  0  0  0  0  0  0  0  0  0  0
  1  2  3  0
  2  3  1  0
  3  4  1  0
  4  5  1  0
  5  6  2  0
  6  7  1  0
  7  8  2  0
  8  9  1  0
  9 10  2  0
 10 11  1  0
 11 12  2  0
 12 13  1  0
 12 14  1  0
 14 15  2  0
 15 16  1  0
 16 17  2  0
 17 18  1  0
 18 19  2  0
 19  5  1  0
 11  6  1  0
 19 14  1  0
  1 20  1  0
  3 21  1  0
  3 22  1  0
  4 23  1  0
  4 24  1  0
  7 25  1  0
  8 26  1  0
  9 27  1  0
 10 28  1  0
 13 29  1  0
 13 30  1  0
 13 31  1  0
 15 32  1  0
 16 33  1  0
 17 34  1  0
 18 35  1  0
M  CHG  2   4   1  12   1
M  END
>  <UniqueID>  (11) 
11

>  <SMILES>  (11) 
C#CC[NH2+]c1c2ccccc2[n+](C)c2ccccc12

>  <Energy>  (11) 
64.95100775210307

>  <Genealogy>  (11) 
C#CC[NH2+]c1c2ccccc2[n+](C)c2ccccc12 (protonated)
C#CC[NH2+]c1c2ccccc2[n+](C)c2ccccc12 (3D coordinates assigned)
C#CC[NH2+]c1c2ccccc2[n+](C)c2ccccc12 (optimized conformer: 64.95100775210307 kcal/mol)

>  <smiles>  (11) 
C#CCNc1c2ccccc2[n+](C)c2ccccc12

>  <score_type>  (11) 
oracle

>  <origin>  (11) 
adg

>  <m_score__min__energy>  (11) 
-3.9300000000000002

>  <m_primary>  (11) 
energy

$$$$
11:0
     RDKit          3D

 58 61  0  0  0  0  0  0  0  0999 V2000
   61.4330   32.8780   50.8230 C   0  0  0  0  0  0  0  0  0  0  0  0
   62.4470   33.6580   49.9950 C   0  0  0  0  0  0  0  0  0  0  0  0
   61.9630   33.8580   48.6240 N   0  0  0  0  0  0  0  0  0  0  0  0
   62.9180   33.8850   47.5070 C   0  0  0  0  0  0  0  0  0  0  0  0
   64.0940   32.9490   47.7730 C   0  0  0  0  0  0  0  0  0  0  0  0
   60.5560   34.0940   48.4120 C   0  0  0  0  0  0  0  0  0  0  0  0
   59.9830   34.9970   49.0780 O   0  0  0  0  0  0  0  0  0  0  0  0
   59.7310   33.2770   47.4380 C   0  0  0  0  0  0  0  0  0  0  0  0
   58.2460   33.6830   47.4660 C   0  0  0  0  0  0  0  0  0  0  0  0
   57.4200   32.7340   46.5840 C   0  0  0  0  0  0  0  0  0  0  0  0
   58.0970   32.4460   45.3070 N   0  0  0  0  0  0  0  0  0  0  0  0
   57.7150   31.3020   44.5070 C   0  0  0  0  0  0  0  0  0  0  0  0
   57.0320   31.4790   43.3350 N   0  0  0  0  0  0  0  0  0  0  0  0
   56.6680   30.4230   42.5410 C   0  0  0  0  0  0  0  0  0  0  0  0
   56.9780   29.1440   42.9040 N   0  0  0  0  0  0  0  0  0  0  0  0
   57.6430   28.9540   44.0720 C   0  0  0  0  0  0  0  0  0  0  0  0
   58.0210   29.9860   44.8680 C   0  0  0  0  0  0  0  0  0  0  0  0
   58.6660   29.5220   45.9530 N   0  0  0  0  0  0  0  0  0  0  0  0
   58.6620   28.1750   45.7630 C   0  0  0  0  0  0  0  0  0  0  0  0
   58.0260   27.7870   44.6190 N   0  0  0  0  0  0  0  0  0  0  0  0
   57.8490   26.4460   44.0350 C   0  0  0  0  0  0  0  0  0  0  0  0
   57.9390   25.2850   45.0460 C   0  0  0  0  0  0  0  0  0  0  0  0
   57.3140   25.6160   46.4100 C   0  0  0  0  0  0  0  0  0  0  0  0
   58.3050   26.2840   47.3850 C   0  0  0  0  0  0  0  0  0  0  0  0
   59.3160   27.2340   46.7250 C   0  0  0  0  0  0  0  0  0  0  0  0
   59.2430   33.2770   44.9090 C   0  0  0  0  0  0  0  0  0  0  0  0
   60.3240   33.2640   46.0010 C   0  0  0  0  0  0  0  0  0  0  0  0
   61.6357   33.0339   51.8929 H   0  0  0  0  0  0  0  0  0  0  0  0
   60.4181   33.2304   50.5869 H   0  0  0  0  0  0  0  0  0  0  0  0
   61.5133   31.8066   50.5869 H   0  0  0  0  0  0  0  0  0  0  0  0
   62.6160   34.6387   50.4636 H   0  0  0  0  0  0  0  0  0  0  0  0
   63.3842   33.0834   49.9558 H   0  0  0  0  0  0  0  0  0  0  0  0
   62.4054   33.5669   46.5872 H   0  0  0  0  0  0  0  0  0  0  0  0
   63.3023   34.9099   47.3979 H   0  0  0  0  0  0  0  0  0  0  0  0
   64.2351   32.8367   48.8581 H   0  0  0  0  0  0  0  0  0  0  0  0
   63.8879   31.9651   47.3263 H   0  0  0  0  0  0  0  0  0  0  0  0
   65.0065   33.3706   47.3263 H   0  0  0  0  0  0  0  0  0  0  0  0
   59.7817   32.2340   47.7839 H   0  0  0  0  0  0  0  0  0  0  0  0
   57.8750   33.6329   48.5003 H   0  0  0  0  0  0  0  0  0  0  0  0
   58.1469   34.7086   47.0808 H   0  0  0  0  0  0  0  0  0  0  0  0
   57.2646   31.7893   47.1256 H   0  0  0  0  0  0  0  0  0  0  0  0
   56.4607   33.2235   46.3598 H   0  0  0  0  0  0  0  0  0  0  0  0
   56.1219   30.6073   41.6041 H   0  0  0  0  0  0  0  0  0  0  0  0
   56.7020   28.3450   42.2920 H   0  0  0  0  0  0  0  0  0  0  0  0
   56.8587   26.4084   43.5575 H   0  0  0  0  0  0  0  0  0  0  0  0
   58.6777   26.3046   43.3255 H   0  0  0  0  0  0  0  0  0  0  0  0
   57.4159   24.4139   44.6246 H   0  0  0  0  0  0  0  0  0  0  0  0
   59.0070   25.0847   45.2174 H   0  0  0  0  0  0  0  0  0  0  0  0
   56.4666   26.2989   46.2501 H   0  0  0  0  0  0  0  0  0  0  0  0
   56.9978   24.6655   46.8646 H   0  0  0  0  0  0  0  0  0  0  0  0
   57.7251   26.8594   48.1217 H   0  0  0  0  0  0  0  0  0  0  0  0
   58.8926   25.4704   47.8353 H   0  0  0  0  0  0  0  0  0  0  0  0
   59.8158   27.8205   47.5100 H   0  0  0  0  0  0  0  0  0  0  0  0
   60.0367   26.6225   46.1623 H   0  0  0  0  0  0  0  0  0  0  0  0
   59.6683   32.8829   43.9742 H   0  0  0  0  0  0  0  0  0  0  0  0
   58.8980   34.3113   44.7630 H   0  0  0  0  0  0  0  0  0  0  0  0
   60.9336   32.3563   45.8809 H   0  0  0  0  0  0  0  0  0  0  0  0
   60.9242   34.1782   45.8828 H   0  0  0  0  0  0  0  0  0  0  0  0
  1  2  1  0
  2  3  1  0
  3  4  1  0
  4  5  1  0
  3  6  1  0
  6  7  2  0
  6  8  1  0
  8  9  1  0
  9 10  1  0
 10 11  1  0
 11 12  1  0
 12 13  2  0
 13 14  1  0
 14 15  2  0
 15 16  1  0
 16 17  2  0
 17 18  1  0
 18 19  2  0
 19 20  1  0
 20 21  1  0
 21 22  1  0
 22 23  1  0
 23 24  1  0
 24 25  1  0
 11 26  1  0
 26 27  1  0
 27  8  1  0
 17 12  1  0
 25 19  1  0
 20 16  1  0
  1 28  1  0
  1 29  1  0
  1 30  1  0
  2 31  1  0
  2 32  1  0
  4 33  1  0
  4 34  1  0
  5 35  1  0
  5 36  1  0
  5 37  1  0
  8 38  1  0
  9 39  1  0
  9 40  1  0
 10 41  1  0
 10 42  1  0
 14 43  1  0
 15 44  1  0
 21 45  1  0
 21 46  1  0
 22 47  1  0
 22 48  1  0
 23 49  1  0
 23 50  1  0
 24 51  1  0
 24 52  1  0
 25 53  1  0
 25 54  1  0
 26 55  1  0
 26 56  1  0
 27 57  1  0
 27 58  1  0
M  CHG  1  15   1
M  END
>  <UniqueID>  (12) 
12

>  <SMILES>  (12) 
CCN(CC)C(=O)C1CCN(c2nc[nH+]c3c2nc2n3CCCCC2)CC1

>  <Energy>  (12) 
106.6117788816708

>  <Genealogy>  (12) 
CCN(CC)C(=O)C1CCN(c2nc[nH+]c3c2nc2n3CCCCC2)CC1 (protonated)
CCN(CC)C(=O)C1CCN(c2nc[nH+]c3c2nc2n3CCCCC2)CC1 (3D coordinates assigned)
CCN(CC)C(=O)C1CCN(c2nc[nH+]c3c2nc2n3CCCCC2)CC1 (nonaromatic ring conformer: 106.6117788816708 kcal/mol)

>  <smiles>  (12) 
CCN(CC)C(=O)C1CCN(c2ncnc3c2nc2n3CCCCC2)CC1

>  <score_type>  (12) 
oracle

>  <origin>  (12) 
adg

>  <m_score__min__energy>  (12) 
-4.9400000000000004

>  <m_primary>  (12) 
energy

$$$$
12:0
     RDKit          3D

 45 46  0  0  0  0  0  0  0  0999 V2000
   58.9890   29.2880   49.1020 C   0  0  0  0  0  0  0  0  0  0  0  0
   59.4520   30.5250   49.8590 C   0  0  0  0  0  0  0  0  0  0  0  0
   58.3690   31.5130   49.9210 N   0  0  0  0  0  0  0  0  0  0  0  0
   58.6590   32.5280   50.9420 C   0  0  0  0  0  0  0  0  0  0  0  0
   59.6580   33.5610   50.4020 C   0  0  0  0  0  0  0  0  0  0  0  0
   59.6460   33.6520   48.9270 N   0  0  0  0  0  0  0  0  0  0  0  0
   60.9770   33.8290   48.3760 C   0  0  0  0  0  0  0  0  0  0  0  0
   62.0550   33.9420   49.2780 C   0  0  0  0  0  0  0  0  0  0  0  0
   63.3720   33.9790   48.8250 C   0  0  0  0  0  0  0  0  0  0  0  0
   63.6420   33.8630   47.4670 C   0  0  0  0  0  0  0  0  0  0  0  0
   62.5950   33.7490   46.5530 C   0  0  0  0  0  0  0  0  0  0  0  0
   61.2490   33.8030   46.9710 C   0  0  0  0  0  0  0  0  0  0  0  0
   60.1410   33.6980   45.9330 C   0  0  0  0  0  0  0  0  0  0  0  0
   58.8360   32.5260   46.3360 S   0  0  0  0  0  0  0  0  0  0  0  0
   57.7790   33.2290   47.1430 O   0  0  0  0  0  0  0  0  0  0  0  0
   59.4140   31.4230   47.1810 O   0  0  0  0  0  0  0  0  0  0  0  0
   58.0820   31.8470   44.8890 C   0  0  0  0  0  0  0  0  0  0  0  0
   57.4070   30.6210   44.9630 C   0  0  0  0  0  0  0  0  0  0  0  0
   56.7780   30.0940   43.8320 C   0  0  0  0  0  0  0  0  0  0  0  0
   56.8240   30.7870   42.6210 C   0  0  0  0  0  0  0  0  0  0  0  0
   57.5180   31.9970   42.5330 C   0  0  0  0  0  0  0  0  0  0  0  0
   58.1490   32.5260   43.6610 C   0  0  0  0  0  0  0  0  0  0  0  0
   58.6967   28.5071   49.8195 H   0  0  0  0  0  0  0  0  0  0  0  0
   58.1267   29.5464   48.4698 H   0  0  0  0  0  0  0  0  0  0  0  0
   59.8090   28.9167   48.4698 H   0  0  0  0  0  0  0  0  0  0  0  0
   59.7423   30.2388   50.8807 H   0  0  0  0  0  0  0  0  0  0  0  0
   60.3126   30.9665   49.3351 H   0  0  0  0  0  0  0  0  0  0  0  0
   58.3230   31.9990   48.9930 H   0  0  0  0  0  0  0  0  0  0  0  0
   57.7253   33.0383   51.2210 H   0  0  0  0  0  0  0  0  0  0  0  0
   59.0975   32.0339   51.8215 H   0  0  0  0  0  0  0  0  0  0  0  0
   59.4028   34.5472   50.8171 H   0  0  0  0  0  0  0  0  0  0  0  0
   60.6648   33.2387   50.7059 H   0  0  0  0  0  0  0  0  0  0  0  0
   58.9700   34.3760   48.5960 H   0  0  0  0  0  0  0  0  0  0  0  0
   59.2710   32.7470   48.5600 H   0  0  0  0  0  0  0  0  0  0  0  0
   61.8527   34.0020   50.3576 H   0  0  0  0  0  0  0  0  0  0  0  0
   64.1975   34.1000   49.5419 H   0  0  0  0  0  0  0  0  0  0  0  0
   64.6832   33.8611   47.1123 H   0  0  0  0  0  0  0  0  0  0  0  0
   62.8233   33.6144   45.4854 H   0  0  0  0  0  0  0  0  0  0  0  0
   59.6844   34.6922   45.8185 H   0  0  0  0  0  0  0  0  0  0  0  0
   60.6147   33.3285   45.0115 H   0  0  0  0  0  0  0  0  0  0  0  0
   57.3722   30.0714   45.9152 H   0  0  0  0  0  0  0  0  0  0  0  0
   56.2466   29.1330   43.8959 H   0  0  0  0  0  0  0  0  0  0  0  0
   56.3137   30.3805   41.7354 H   0  0  0  0  0  0  0  0  0  0  0  0
   57.5673   32.5334   41.5739 H   0  0  0  0  0  0  0  0  0  0  0  0
   58.6992   33.4757   43.5878 H   0  0  0  0  0  0  0  0  0  0  0  0
  1  2  1  0
  2  3  1  0
  3  4  1  0
  4  5  1  0
  5  6  1  0
  6  7  1  0
  7  8  2  0
  8  9  1  0
  9 10  2  0
 10 11  1  0
 11 12  2  0
 12 13  1  0
 13 14  1  0
 14 15  2  0
 14 16  2  0
 14 17  1  0
 17 18  2  0
 18 19  1  0
 19 20  2  0
 20 21  1  0
 21 22  2  0
 12  7  1  0
 22 17  1  0
  1 23  1  0
  1 24  1  0
  1 25  1  0
  2 26  1  0
  2 27  1  0
  3 28  1  0
  4 29  1  0
  4 30  1  0
  5 31  1  0
  5 32  1  0
  6 33  1  0
  6 34  1  0
  8 35  1  0
  9 36  1  0
 10 37  1  0
 11 38  1  0
 13 39  1  0
 13 40  1  0
 18 41  1  0
 19 42  1  0
 20 43  1  0
 21 44  1  0
 22 45  1  0
M  CHG  1   6   1
M  END
>  <UniqueID>  (13) 
13

>  <SMILES>  (13) 
CCNCC[NH2+]c1ccccc1CS(=O)(=O)c1ccccc1

>  <Energy>  (13) 
43.07011723883737

>  <Genealogy>  (13) 
CCNCC[NH2+]c1ccccc1CS(=O)(=O)c1ccccc1 (protonated)
CCNCC[NH2+]c1ccccc1CS(=O)(=O)c1ccccc1 (3D coordinates assigned)
CCNCC[NH2+]c1ccccc1CS(=O)(=O)c1ccccc1 (optimized conformer: 43.07011723883737 kcal/mol)

>  <smiles>  (13) 
CCNCCNc1ccccc1CS(=O)(=O)c1ccccc1

>  <score_type>  (13) 
oracle

>  <origin>  (13) 
adg

>  <m_score__min__energy>  (13) 
-4.4299999999999997

>  <m_primary>  (13) 
energy

$$$$
13:0
     RDKit          3D

 36 38  0  0  0  0  0  0  0  0999 V2000
   57.9290   34.2100   44.9230 C   0  0  0  0  0  0  0  0  0  0  0  0
   58.2560   33.7740   46.2390 O   0  0  0  0  0  0  0  0  0  0  0  0
   59.5300   33.3490   46.6490 C   0  0  0  0  0  0  0  0  0  0  0  0
   60.4210   34.2270   47.3020 C   0  0  0  0  0  0  0  0  0  0  0  0
   61.6650   33.7760   47.7450 C   0  0  0  0  0  0  0  0  0  0  0  0
   62.0370   32.4460   47.5510 C   0  0  0  0  0  0  0  0  0  0  0  0
   61.1700   31.5660   46.9010 C   0  0  0  0  0  0  0  0  0  0  0  0
   59.9210   32.0060   46.4300 C   0  0  0  0  0  0  0  0  0  0  0  0
   59.0450   31.0320   45.7380 C   0  0  0  0  0  0  0  0  0  0  0  0
   57.7770   30.6170   46.1150 C   0  0  0  0  0  0  0  0  0  0  0  0
   57.4150   29.7130   45.1340 C   0  0  0  0  0  0  0  0  0  0  0  0
   56.1420   28.9750   45.0360 C   0  0  0  0  0  0  0  0  0  0  0  0
   55.1600   29.5180   44.4650 O   0  0  0  0  0  0  0  0  0  0  0  0
   55.9690   27.6780   45.6230 N   0  0  0  0  0  0  0  0  0  0  0  0
   56.9840   26.6730   45.7670 C   0  0  0  0  0  0  0  0  0  0  0  0
   58.2300   26.9630   46.3540 C   0  0  0  0  0  0  0  0  0  0  0  0
   59.2000   25.9630   46.4710 C   0  0  0  0  0  0  0  0  0  0  0  0
   58.9440   24.6770   45.9880 C   0  0  0  0  0  0  0  0  0  0  0  0
   57.7170   24.3920   45.3810 C   0  0  0  0  0  0  0  0  0  0  0  0
   56.7430   25.3880   45.2640 C   0  0  0  0  0  0  0  0  0  0  0  0
   58.4090   29.6360   44.2300 N   0  0  0  0  0  0  0  0  0  0  0  0
   59.3650   30.4290   44.6130 O   0  0  0  0  0  0  0  0  0  0  0  0
   57.2699   35.0888   44.9811 H   0  0  0  0  0  0  0  0  0  0  0  0
   58.8508   34.4779   44.3858 H   0  0  0  0  0  0  0  0  0  0  0  0
   57.4138   33.4001   44.3858 H   0  0  0  0  0  0  0  0  0  0  0  0
   60.1324   35.2762   47.4632 H   0  0  0  0  0  0  0  0  0  0  0  0
   62.3535   34.4708   48.2482 H   0  0  0  0  0  0  0  0  0  0  0  0
   63.0139   32.0903   47.9103 H   0  0  0  0  0  0  0  0  0  0  0  0
   61.4675   30.5170   46.7559 H   0  0  0  0  0  0  0  0  0  0  0  0
   57.1938   30.9339   46.9922 H   0  0  0  0  0  0  0  0  0  0  0  0
   58.4409   27.9782   46.7213 H   0  0  0  0  0  0  0  0  0  0  0  0
   60.1669   26.1890   46.9443 H   0  0  0  0  0  0  0  0  0  0  0  0
   59.7065   23.8901   46.0851 H   0  0  0  0  0  0  0  0  0  0  0  0
   57.5176   23.3816   44.9946 H   0  0  0  0  0  0  0  0  0  0  0  0
   55.7839   25.1618   44.7752 H   0  0  0  0  0  0  0  0  0  0  0  0
   58.4320   29.0500   43.3670 H   0  0  0  0  0  0  0  0  0  0  0  0
  1  2  1  0
  2  3  1  0
  3  4  2  0
  4  5  1  0
  5  6  2  0
  6  7  1  0
  7  8  2  0
  8  9  1  0
  9 10  2  0
 10 11  1  0
 11 12  1  0
 12 13  2  0
 12 14  1  0
 14 15  1  0
 15 16  2  0
 16 17  1  0
 17 18  2  0
 18 19  1  0
 19 20  2  0
 11 21  2  0
 21 22  1  0
  8  3  1  0
 22  9  1  0
 20 15  1  0
  1 23  1  0
  1 24  1  0
  1 25  1  0
  4 26  1  0
  5 27  1  0
  6 28  1  0
  7 29  1  0
 10 30  1  0
 16 31  1  0
 17 32  1  0
 18 33  1  0
 19 34  1  0
 20 35  1  0
 21 36  1  0
M  CHG  2  14  -1  21   1
M  END
>  <UniqueID>  (14) 
14

>  <SMILES>  (14) 
COc1ccccc1-c1cc(C(=O)[N-]c2ccccc2)[nH+]o1

>  <Energy>  (14) 
76.20134965227479

>  <Genealogy>  (14) 
COc1ccccc1-c1cc(C(=O)[N-]c2ccccc2)[nH+]o1 (protonated)
COc1ccccc1-c1cc(C(=O)[N-]c2ccccc2)[nH+]o1 (3D coordinates assigned)
COc1ccccc1-c1cc(C(=O)[N-]c2ccccc2)[nH+]o1 (optimized conformer: 76.20134965227479 kcal/mol)

>  <smiles>  (14) 
COc1ccccc1-c1cc(C(=O)Nc2ccccc2)no1

>  <score_type>  (14) 
oracle

>  <origin>  (14) 
adg

>  <m_score__min__energy>  (14) 
-7.6100000000000003

>  <m_primary>  (14) 
energy

$$$$
14:0
     RDKit          3D

 47 50  0  0  0  0  0  0  0  0999 V2000
   62.9970   33.7750   46.6840 C   0  0  0  0  0  0  0  0  0  0  0  0
   63.3180   32.6400   47.5650 N   0  0  0  0  0  0  0  0  0  0  0  0
   64.1410   33.1120   48.6930 C   0  0  0  0  0  0  0  0  0  0  0  0
   62.0720   31.9930   48.0370 C   0  0  0  0  0  0  0  0  0  0  0  0
   61.6480   30.8350   47.1210 C   0  0  0  0  0  0  0  0  0  0  0  0
   60.2480   30.4720   47.3430 N   0  0  0  0  0  0  0  0  0  0  0  0
   59.2810   30.5560   46.2850 C   0  0  0  0  0  0  0  0  0  0  0  0
   58.7970   31.8020   45.8200 C   0  0  0  0  0  0  0  0  0  0  0  0
   59.1780   33.0050   46.4500 C   0  0  0  0  0  0  0  0  0  0  0  0
   58.6920   34.2300   45.9990 C   0  0  0  0  0  0  0  0  0  0  0  0
   57.8100   34.2800   44.9250 C   0  0  0  0  0  0  0  0  0  0  0  0
   57.4200   33.1070   44.2750 C   0  0  0  0  0  0  0  0  0  0  0  0
   57.9190   31.8450   44.6830 C   0  0  0  0  0  0  0  0  0  0  0  0
   57.5750   30.6780   44.0180 N   0  0  0  0  0  0  0  0  0  0  0  0
   56.7730   30.7050   42.7790 C   0  0  0  0  0  0  0  0  0  0  0  0
   57.9820   29.4820   44.5490 C   0  0  0  0  0  0  0  0  0  0  0  0
   57.6210   28.2440   44.1230 N   0  0  0  0  0  0  0  0  0  0  0  0
   58.2200   27.3910   44.9760 C   0  0  0  0  0  0  0  0  0  0  0  0
   58.1100   26.0000   44.9790 C   0  0  0  0  0  0  0  0  0  0  0  0
   58.7650   25.2870   45.9990 C   0  0  0  0  0  0  0  0  0  0  0  0
   59.4910   25.9710   46.9960 C   0  0  0  0  0  0  0  0  0  0  0  0
   59.5810   27.3740   46.9800 C   0  0  0  0  0  0  0  0  0  0  0  0
   58.9510   28.0600   45.9370 C   0  0  0  0  0  0  0  0  0  0  0  0
   58.8070   29.4080   45.6540 C   0  0  0  0  0  0  0  0  0  0  0  0
   62.7482   34.6549   47.2955 H   0  0  0  0  0  0  0  0  0  0  0  0
   63.8657   34.0035   46.0491 H   0  0  0  0  0  0  0  0  0  0  0  0
   62.1373   33.5147   46.0491 H   0  0  0  0  0  0  0  0  0  0  0  0
   63.6572   32.8346   49.6412 H   0  0  0  0  0  0  0  0  0  0  0  0
   65.1368   32.6477   48.6398 H   0  0  0  0  0  0  0  0  0  0  0  0
   64.2432   34.2060   48.6398 H   0  0  0  0  0  0  0  0  0  0  0  0
   62.2362   31.6022   49.0521 H   0  0  0  0  0  0  0  0  0  0  0  0
   61.2709   32.7468   48.0282 H   0  0  0  0  0  0  0  0  0  0  0  0
   61.7778   31.1407   46.0723 H   0  0  0  0  0  0  0  0  0  0  0  0
   62.2756   29.9611   47.3500 H   0  0  0  0  0  0  0  0  0  0  0  0
   59.9100   30.3980   48.3310 H   0  0  0  0  0  0  0  0  0  0  0  0
   59.8667   32.9755   47.3072 H   0  0  0  0  0  0  0  0  0  0  0  0
   59.0068   35.1606   46.4938 H   0  0  0  0  0  0  0  0  0  0  0  0
   57.4170   35.2496   44.5853 H   0  0  0  0  0  0  0  0  0  0  0  0
   56.7143   33.1636   43.4331 H   0  0  0  0  0  0  0  0  0  0  0  0
   55.7038   30.7410   43.0350 H   0  0  0  0  0  0  0  0  0  0  0  0
   57.0390   31.5947   42.1894 H   0  0  0  0  0  0  0  0  0  0  0  0
   56.9786   29.7994   42.1894 H   0  0  0  0  0  0  0  0  0  0  0  0
   56.9740   27.9770   43.3500 H   0  0  0  0  0  0  0  0  0  0  0  0
   57.5280   25.4765   44.2062 H   0  0  0  0  0  0  0  0  0  0  0  0
   58.7107   24.1885   46.0193 H   0  0  0  0  0  0  0  0  0  0  0  0
   59.9913   25.4018   47.7933 H   0  0  0  0  0  0  0  0  0  0  0  0
   60.1303   27.9156   47.7642 H   0  0  0  0  0  0  0  0  0  0  0  0
  1  2  1  0
  2  3  1  0
  2  4  1  0
  4  5  1  0
  5  6  1  0
  6  7  1  0
  7  8  2  0
  8  9  1  0
  9 10  2  0
 10 11  1  0
 11 12  2  0
 12 13  1  0
 13 14  2  0
 14 15  1  0
 14 16  1  0
 16 17  1  0
 17 18  1  0
 18 19  2  0
 19 20  1  0
 20 21  2  0
 21 22  1  0
 22 23  2  0
 23 24  1  0
 24  7  1  0
 13  8  1  0
 24 16  2  0
 23 18  1  0
  1 25  1  0
  1 26  1  0
  1 27  1  0
  3 28  1  0
  3 29  1  0
  3 30  1  0
  4 31  1  0
  4 32  1  0
  5 33  1  0
  5 34  1  0
  6 35  1  0
  9 36  1  0
 10 37  1  0
 11 38  1  0
 12 39  1  0
 15 40  1  0
 15 41  1  0
 15 42  1  0
 17 43  1  0
 19 44  1  0
 20 45  1  0
 21 46  1  0
 22 47  1  0
M  CHG  1  14   1
M  END
>  <UniqueID>  (15) 
15

>  <SMILES>  (15) 
CN(C)CCNc1c2ccccc2[n+](C)c2[nH]c3ccccc3c12

>  <Energy>  (15) 
104.79325701212014

>  <Genealogy>  (15) 
CN(C)CCNc1c2ccccc2[n+](C)c2[nH]c3ccccc3c12 (3D coordinates assigned)
CN(C)CCNc1c2ccccc2[n+](C)c2[nH]c3ccccc3c12 (optimized conformer: 104.79325701212014 kcal/mol)

>  <smiles>  (15) 
CN(C)CCNc1c2ccccc2[n+](C)c2[nH]c3ccccc3c12

>  <score_type>  (15) 
oracle

>  <origin>  (15) 
adg

>  <m_score__min__energy>  (15) 
-6.3099999999999996

>  <m_primary>  (15) 
energy

$$$$
15:0
     RDKit          3D

 35 36  0  0  0  0  0  0  0  0999 V2000
   57.9670   30.2782   42.8876 H   0  0  0  0  0  0  0  0  0  0  0  0
   58.0660   30.2980   43.9830 C   0  0  0  0  0  0  0  0  0  0  0  0
   57.3200   31.3450   44.7180 C   0  0  0  0  0  0  0  0  0  0  0  0
   56.0670   31.2490   44.8310 O   0  0  0  0  0  0  0  0  0  0  0  0
   58.0090   32.5420   45.2630 C   0  0  0  0  0  0  0  0  0  0  0  0
   58.1700   32.7230   46.6520 C   0  0  0  0  0  0  0  0  0  0  0  0
   57.7867   31.9637   47.3496 H   0  0  0  0  0  0  0  0  0  0  0  0
   58.8130   33.8600   47.1490 C   0  0  0  0  0  0  0  0  0  0  0  0
   58.9373   33.9894   48.2343 H   0  0  0  0  0  0  0  0  0  0  0  0
   59.2980   34.8320   46.2720 C   0  0  0  0  0  0  0  0  0  0  0  0
   59.8061   35.7244   46.6662 H   0  0  0  0  0  0  0  0  0  0  0  0
   59.1380   34.6710   44.8950 C   0  0  0  0  0  0  0  0  0  0  0  0
   59.5184   35.4384   44.2047 H   0  0  0  0  0  0  0  0  0  0  0  0
   58.4950   33.5360   44.3910 C   0  0  0  0  0  0  0  0  0  0  0  0
   58.3677   33.4184   43.3047 H   0  0  0  0  0  0  0  0  0  0  0  0
   58.8540   29.3710   44.5510 C   0  0  0  0  0  0  0  0  0  0  0  0
   59.9411   29.4893   44.4316 H   0  0  0  0  0  0  0  0  0  0  0  0
   58.3780   28.2040   45.3240 C   0  0  0  0  0  0  0  0  0  0  0  0
   59.2710   27.5360   46.1720 C   0  0  0  0  0  0  0  0  0  0  0  0
   60.3188   27.8653   46.2320 H   0  0  0  0  0  0  0  0  0  0  0  0
   58.8380   26.4550   46.9410 C   0  0  0  0  0  0  0  0  0  0  0  0
   59.5492   25.9250   47.5916 H   0  0  0  0  0  0  0  0  0  0  0  0
   57.5040   26.0440   46.8870 C   0  0  0  0  0  0  0  0  0  0  0  0
   57.1704   25.1853   47.4881 H   0  0  0  0  0  0  0  0  0  0  0  0
   56.5860   26.7240   46.0670 C   0  0  0  0  0  0  0  0  0  0  0  0
   55.2030   26.3530   45.9910 N   0  0  0  0  0  0  0  0  0  0  0  0
   54.5940   24.7720   45.6190 S   0  0  0  0  0  0  0  0  0  0  0  0
   54.7700   23.8920   46.8230 O   0  0  0  0  0  0  0  0  0  0  0  0
   53.1300   24.8500   45.2880 O   0  0  0  0  0  0  0  0  0  0  0  0
   55.5030   24.0700   44.2590 C   0  0  0  0  0  0  0  0  0  0  0  0
   56.3173   23.4411   44.6480 H   0  0  0  0  0  0  0  0  0  0  0  0
   54.8277   23.4567   43.6443 H   0  0  0  0  0  0  0  0  0  0  0  0
   55.9257   24.8784   43.6443 H   0  0  0  0  0  0  0  0  0  0  0  0
   57.0300   27.8070   45.2970 C   0  0  0  0  0  0  0  0  0  0  0  0
   56.3152   28.3530   44.6639 H   0  0  0  0  0  0  0  0  0  0  0  0
  1  2  1  0
  2  3  1  0
  3  4  2  0
  3  5  1  0
  5  6  2  0
  6  7  1  0
  6  8  1  0
  8  9  1  0
  8 10  2  0
 10 11  1  0
 10 12  1  0
 12 13  1  0
 12 14  2  0
 14 15  1  0
  2 16  2  0
 16 17  1  0
 16 18  1  0
 18 19  2  0
 19 20  1  0
 19 21  1  0
 21 22  1  0
 21 23  2  0
 23 24  1  0
 23 25  1  0
 25 26  1  0
 26 27  1  0
 27 28  2  0
 27 29  2  0
 27 30  1  0
 30 31  1  0
 30 32  1  0
 30 33  1  0
 25 34  2  0
 34 35  1  0
 14  5  1  0
 34 18  1  0
M  CHG  1  26  -1
M  END
>  <UniqueID>  (16) 
16

>  <SMILES>  (16) 
CS(=O)(=O)[N-]c1cccc(/C=C\C(=O)c2ccccc2)c1

>  <Energy>  (16) 
44.569322273365366

>  <Genealogy>  (16) 
CS(=O)(=O)[N-]c1cccc(C=CC(=O)c2ccccc2)c1 (protonated)
CS(=O)(=O)[N-]c1cccc(/C=C\C(=O)c2ccccc2)c1 (cis-trans isomerization)
CS(=O)(=O)[N-]c1cccc(/C=C\C(=O)c2ccccc2)c1 (3D coordinates assigned)
CS(=O)(=O)[N-]c1cccc(/C=C\C(=O)c2ccccc2)c1 (optimized conformer: 44.569322273365366 kcal/mol)

>  <smiles>  (16) 
CS(=O)(=O)Nc1cccc(C=CC(=O)c2ccccc2)c1

>  <score_type>  (16) 
oracle

>  <origin>  (16) 
adg

>  <m_score__min__energy>  (16) 
-10.609999999999999

>  <m_primary>  (16) 
energy

$$$$
16:0
     RDKit          3D

 48 51  0  0  0  0  0  0  0  0999 V2000
   58.2178   35.1692   44.1216 H   0  0  0  0  0  0  0  0  0  0  0  0
   58.3830   34.5900   45.0420 C   0  0  0  0  0  0  0  0  0  0  0  0
   59.2550   35.0540   45.9870 N   0  0  0  0  0  0  0  0  0  0  0  0
   59.4450   34.3300   47.1190 C   0  0  0  0  0  0  0  0  0  0  0  0
   58.7940   33.1500   47.3460 C   0  0  0  0  0  0  0  0  0  0  0  0
   57.9040   32.6300   46.4110 C   0  0  0  0  0  0  0  0  0  0  0  0
   57.3867   31.6748   46.5840 H   0  0  0  0  0  0  0  0  0  0  0  0
   57.6920   33.3730   45.2370 C   0  0  0  0  0  0  0  0  0  0  0  0
   56.9904   33.0083   44.4724 H   0  0  0  0  0  0  0  0  0  0  0  0
   59.2090   32.7050   48.5870 C   0  0  0  0  0  0  0  0  0  0  0  0
   58.8660   31.4050   49.2540 C   0  0  0  0  0  0  0  0  0  0  0  0
   57.7720   31.2983   49.2955 H   0  0  0  0  0  0  0  0  0  0  0  0
   59.2887   31.4068   50.2695 H   0  0  0  0  0  0  0  0  0  0  0  0
   59.4360   30.2660   48.5050 N   0  0  0  0  0  0  0  0  0  0  0  0
   60.9160   30.3310   48.5100 C   0  0  0  0  0  0  0  0  0  0  0  0
   61.3184   29.3247   48.6982 H   0  0  0  0  0  0  0  0  0  0  0  0
   61.2306   31.0294   49.2995 H   0  0  0  0  0  0  0  0  0  0  0  0
   61.4530   30.8400   47.1730 C   0  0  0  0  0  0  0  0  0  0  0  0
   62.2404   31.5864   47.3543 H   0  0  0  0  0  0  0  0  0  0  0  0
   61.8704   29.9982   46.6011 H   0  0  0  0  0  0  0  0  0  0  0  0
   60.6347   31.3019   46.6011 H   0  0  0  0  0  0  0  0  0  0  0  0
   58.9330   28.9610   49.0120 C   0  0  0  0  0  0  0  0  0  0  0  0
   58.8019   29.0197   50.1026 H   0  0  0  0  0  0  0  0  0  0  0  0
   57.9693   28.7340   48.5328 H   0  0  0  0  0  0  0  0  0  0  0  0
   59.9350   27.8500   48.6800 C   0  0  0  0  0  0  0  0  0  0  0  0
   60.9283   28.2917   48.5118 H   0  0  0  0  0  0  0  0  0  0  0  0
   59.9837   27.1405   49.5192 H   0  0  0  0  0  0  0  0  0  0  0  0
   59.5070   27.1460   47.4760 N   0  0  0  0  0  0  0  0  0  0  0  0
   58.4300   27.2410   46.7380 C   0  0  0  0  0  0  0  0  0  0  0  0
   57.4160   26.3190   47.0370 C   0  0  0  0  0  0  0  0  0  0  0  0
   57.6252   25.4845   47.7225 H   0  0  0  0  0  0  0  0  0  0  0  0
   56.1510   26.4470   46.4780 C   0  0  0  0  0  0  0  0  0  0  0  0
   55.3619   25.7250   46.7349 H   0  0  0  0  0  0  0  0  0  0  0  0
   55.8870   27.4580   45.6180 N   0  0  0  0  0  0  0  0  0  0  0  0
   56.8420   28.3430   45.2360 C   0  0  0  0  0  0  0  0  0  0  0  0
   56.5000   29.3380   44.3130 C   0  0  0  0  0  0  0  0  0  0  0  0
   55.4606   29.4272   43.9642 H   0  0  0  0  0  0  0  0  0  0  0  0
   57.4700   30.2160   43.8340 C   0  0  0  0  0  0  0  0  0  0  0  0
   57.0370   31.4540   42.6680 Cl  0  0  0  0  0  0  0  0  0  0  0  0
   58.7920   30.0810   44.2490 C   0  0  0  0  0  0  0  0  0  0  0  0
   59.5626   30.7545   43.8458 H   0  0  0  0  0  0  0  0  0  0  0  0
   59.1470   29.0950   45.1750 C   0  0  0  0  0  0  0  0  0  0  0  0
   60.2012   28.9820   45.4682 H   0  0  0  0  0  0  0  0  0  0  0  0
   58.1710   28.2400   45.7410 C   0  0  0  0  0  0  0  0  0  0  0  0
   60.1170   33.6580   49.0440 C   0  0  0  0  0  0  0  0  0  0  0  0
   60.6503   33.6060   50.0047 H   0  0  0  0  0  0  0  0  0  0  0  0
   60.2510   34.6570   48.1400 N   0  0  0  0  0  0  0  0  0  0  0  0
   60.8610   35.5020   48.2210 H   0  0  0  0  0  0  0  0  0  0  0  0
  1  2  1  0
  2  3  2  0
  3  4  1  0
  4  5  2  0
  5  6  1  0
  6  7  1  0
  6  8  2  0
  8  9  1  0
  5 10  1  0
 10 11  1  0
 11 12  1  0
 11 13  1  0
 11 14  1  0
 14 15  1  0
 15 16  1  0
 15 17  1  0
 15 18  1  0
 18 19  1  0
 18 20  1  0
 18 21  1  0
 14 22  1  0
 22 23  1  0
 22 24  1  0
 22 25  1  0
 25 26  1  0
 25 27  1  0
 25 28  1  0
 28 29  2  0
 29 30  1  0
 30 31  1  0
 30 32  2  0
 32 33  1  0
 32 34  1  0
 34 35  1  0
 35 36  2  0
 36 37  1  0
 36 38  1  0
 38 39  1  0
 38 40  2  0
 40 41  1  0
 40 42  1  0
 42 43  1  0
 42 44  2  0
 10 45  2  0
 45 46  1  0
 45 47  1  0
 47 48  1  0
  8  2  1  0
 44 29  1  0
 47  4  1  0
 44 35  1  0
M  CHG  1  34  -1
M  END
>  <UniqueID>  (17) 
17

>  <SMILES>  (17) 
CCN(CC/N=c1/cc[n-]c2cc(Cl)ccc12)Cc1c[nH]c2ncccc12

>  <Energy>  (17) 
101.06779251815253

>  <Genealogy>  (17) 
CCN(CCN=c1cc[n-]c2cc(Cl)ccc12)Cc1c[nH]c2ncccc12 (protonated)
CCN(CC/N=c1/cc[n-]c2cc(Cl)ccc12)Cc1c[nH]c2ncccc12 (cis-trans isomerization)
CCN(CC/N=c1/cc[n-]c2cc(Cl)ccc12)Cc1c[nH]c2ncccc12 (3D coordinates assigned)
CCN(CC/N=c1/cc[n-]c2cc(Cl)ccc12)Cc1c[nH]c2ncccc12 (optimized conformer: 101.06779251815253 kcal/mol)

>  <smiles>  (17) 
CCN(CCN=c1cc[nH]c2cc(Cl)ccc12)Cc1c[nH]c2ncccc12

>  <score_type>  (17) 
oracle

>  <origin>  (17) 
adg

>  <m_score__min__energy>  (17) 
-10.220000000000001

>  <m_primary>  (17) 
energy

$$$$
17:0
     RDKit          3D

 34 36  0  0  0  0  0  0  0  0999 V2000
   58.1400   26.7240   42.4550 C   0  0  0  0  0  0  0  0  0  0  0  0
   58.1950   27.2010   43.8760 C   0  0  0  0  0  0  0  0  0  0  0  0
   57.9750   26.3030   44.9310 C   0  0  0  0  0  0  0  0  0  0  0  0
   58.0710   26.7330   46.2610 C   0  0  0  0  0  0  0  0  0  0  0  0
   57.7870   25.7790   47.3840 C   0  0  0  0  0  0  0  0  0  0  0  0
   58.3690   28.0750   46.5360 C   0  0  0  0  0  0  0  0  0  0  0  0
   58.6100   28.9820   45.4890 C   0  0  0  0  0  0  0  0  0  0  0  0
   58.9450   30.3910   45.7760 C   0  0  0  0  0  0  0  0  0  0  0  0
   60.1210   30.7860   46.3350 N   0  0  0  0  0  0  0  0  0  0  0  0
   59.9710   32.1210   46.4010 C   0  0  0  0  0  0  0  0  0  0  0  0
   60.8760   33.0670   46.8850 C   0  0  0  0  0  0  0  0  0  0  0  0
   62.1600   32.6780   47.4100 C   0  0  0  0  0  0  0  0  0  0  0  0
   63.1900   32.3650   47.8310 N   0  0  0  0  0  0  0  0  0  0  0  0
   60.4940   34.4230   46.8330 C   0  0  0  0  0  0  0  0  0  0  0  0
   59.2330   34.7920   46.3100 C   0  0  0  0  0  0  0  0  0  0  0  0
   58.3330   33.8090   45.8440 C   0  0  0  0  0  0  0  0  0  0  0  0
   57.0100   34.1810   45.2460 C   0  0  0  0  0  0  0  0  0  0  0  0
   58.7560   32.4800   45.9000 C   0  0  0  0  0  0  0  0  0  0  0  0
   58.1280   31.4010   45.5140 O   0  0  0  0  0  0  0  0  0  0  0  0
   58.5300   28.5330   44.1610 C   0  0  0  0  0  0  0  0  0  0  0  0
   58.0140   25.6313   42.4396 H   0  0  0  0  0  0  0  0  0  0  0  0
   57.2906   27.1983   41.9416 H   0  0  0  0  0  0  0  0  0  0  0  0
   59.0751   26.9925   41.9416 H   0  0  0  0  0  0  0  0  0  0  0  0
   57.7254   25.2542   44.7126 H   0  0  0  0  0  0  0  0  0  0  0  0
   57.9390   26.2897   48.3463 H   0  0  0  0  0  0  0  0  0  0  0  0
   56.7461   25.4302   47.3144 H   0  0  0  0  0  0  0  0  0  0  0  0
   58.4677   24.9177   47.3144 H   0  0  0  0  0  0  0  0  0  0  0  0
   58.4146   28.4211   47.5791 H   0  0  0  0  0  0  0  0  0  0  0  0
   61.1811   35.1989   47.2016 H   0  0  0  0  0  0  0  0  0  0  0  0
   58.9508   35.8543   46.2659 H   0  0  0  0  0  0  0  0  0  0  0  0
   56.2880   34.3840   46.0507 H   0  0  0  0  0  0  0  0  0  0  0  0
   57.1286   35.0806   44.6242 H   0  0  0  0  0  0  0  0  0  0  0  0
   56.6424   33.3514   44.6242 H   0  0  0  0  0  0  0  0  0  0  0  0
   58.7319   29.2324   43.3363 H   0  0  0  0  0  0  0  0  0  0  0  0
  1  2  1  0
  2  3  2  0
  3  4  1  0
  4  5  1  0
  4  6  2  0
  6  7  1  0
  7  8  1  0
  8  9  2  0
  9 10  1  0
 10 11  2  0
 11 12  1  0
 12 13  3  0
 11 14  1  0
 14 15  2  0
 15 16  1  0
 16 17  1  0
 16 18  2  0
 18 19  1  0
  7 20  2  0
 20  2  1  0
 19  8  1  0
 18 10  1  0
  1 21  1  0
  1 22  1  0
  1 23  1  0
  3 24  1  0
  5 25  1  0
  5 26  1  0
  5 27  1  0
  6 28  1  0
 14 29  1  0
 15 30  1  0
 17 31  1  0
 17 32  1  0
 17 33  1  0
 20 34  1  0
M  END
>  <UniqueID>  (18) 
18

>  <SMILES>  (18) 
Cc1cc(C)cc(-c2nc3c(C#N)ccc(C)c3o2)c1

>  <Energy>  (18) 
70.42266145506329

>  <Genealogy>  (18) 
Cc1cc(C)cc(-c2nc3c(C#N)ccc(C)c3o2)c1 (3D coordinates assigned)
Cc1cc(C)cc(-c2nc3c(C#N)ccc(C)c3o2)c1 (optimized conformer: 70.42266145506329 kcal/mol)

>  <smiles>  (18) 
Cc1cc(C)cc(-c2nc3c(C#N)ccc(C)c3o2)c1

>  <score_type>  (18) 
oracle

>  <origin>  (18) 
adg

>  <m_score__min__energy>  (18) 
-6.7599999999999998

>  <m_primary>  (18) 
energy

$$$$
18:0
     RDKit          3D

 68 67  0  0  0  0  0  0  0  0999 V2000
   65.1052   31.8680   49.5594 H   0  0  0  0  0  0  0  0  0  0  0  0
   64.2460   32.1940   50.1640 C   0  0  0  0  0  0  0  0  0  0  0  0
   63.6320   31.3080   50.9610 C   0  0  0  0  0  0  0  0  0  0  0  0
   64.0062   31.1535   51.9838 H   0  0  0  0  0  0  0  0  0  0  0  0
   62.4390   30.5190   50.4840 C   0  0  0  0  0  0  0  0  0  0  0  0
   62.2688   29.6811   51.1760 H   0  0  0  0  0  0  0  0  0  0  0  0
   62.6560   30.1606   49.4669 H   0  0  0  0  0  0  0  0  0  0  0  0
   61.2150   31.3410   50.4230 N   0  0  0  0  0  0  0  0  0  0  0  0
   60.7630   31.1970   49.4900 H   0  0  0  0  0  0  0  0  0  0  0  0
   61.4820   32.3520   50.4840 H   0  0  0  0  0  0  0  0  0  0  0  0
   60.2310   31.0490   51.4860 C   0  0  0  0  0  0  0  0  0  0  0  0
   60.1676   31.9196   52.1553 H   0  0  0  0  0  0  0  0  0  0  0  0
   60.5748   30.1499   52.0184 H   0  0  0  0  0  0  0  0  0  0  0  0
   58.8250   30.7510   50.9310 C   0  0  0  0  0  0  0  0  0  0  0  0
   58.1998   30.3422   51.7385 H   0  0  0  0  0  0  0  0  0  0  0  0
   58.9215   30.0256   50.1098 H   0  0  0  0  0  0  0  0  0  0  0  0
   58.1640   32.0220   50.3810 C   0  0  0  0  0  0  0  0  0  0  0  0
   58.3439   32.8524   51.0796 H   0  0  0  0  0  0  0  0  0  0  0  0
   57.0850   31.8376   50.2722 H   0  0  0  0  0  0  0  0  0  0  0  0
   58.7380   32.3880   49.0090 C   0  0  0  0  0  0  0  0  0  0  0  0
   57.9839   32.9522   48.4406 H   0  0  0  0  0  0  0  0  0  0  0  0
   59.0020   31.4621   48.4770 H   0  0  0  0  0  0  0  0  0  0  0  0
   59.9490   33.2120   49.1560 N   0  0  0  0  0  0  0  0  0  0  0  0
   60.7430   32.6850   48.7220 H   0  0  0  0  0  0  0  0  0  0  0  0
   59.8180   34.4840   48.4330 C   0  0  0  0  0  0  0  0  0  0  0  0
   60.8005   34.9762   48.3836 H   0  0  0  0  0  0  0  0  0  0  0  0
   59.1012   35.1262   48.9657 H   0  0  0  0  0  0  0  0  0  0  0  0
   59.3070   34.2380   47.0180 C   0  0  0  0  0  0  0  0  0  0  0  0
   58.3167   33.7613   47.0635 H   0  0  0  0  0  0  0  0  0  0  0  0
   59.2282   35.1969   46.4847 H   0  0  0  0  0  0  0  0  0  0  0  0
   60.0074   33.5784   46.4847 H   0  0  0  0  0  0  0  0  0  0  0  0
   63.7880   33.6200   50.0780 C   0  0  0  0  0  0  0  0  0  0  0  0
   63.5316   33.9825   51.0844 H   0  0  0  0  0  0  0  0  0  0  0  0
   64.5960   34.2361   49.6567 H   0  0  0  0  0  0  0  0  0  0  0  0
   62.6020   33.7120   49.2080 N   0  0  0  0  0  0  0  0  0  0  0  0
   62.1380   32.7730   49.1920 H   0  0  0  0  0  0  0  0  0  0  0  0
   62.9390   34.0510   47.8150 C   0  0  0  0  0  0  0  0  0  0  0  0
   62.0062   34.1993   47.2512 H   0  0  0  0  0  0  0  0  0  0  0  0
   63.5491   34.9662   47.8289 H   0  0  0  0  0  0  0  0  0  0  0  0
   63.7620   32.9460   47.1290 C   0  0  0  0  0  0  0  0  0  0  0  0
   63.9248   33.2371   46.0808 H   0  0  0  0  0  0  0  0  0  0  0  0
   64.7004   32.8523   47.6953 H   0  0  0  0  0  0  0  0  0  0  0  0
   63.0950   31.5630   47.1470 C   0  0  0  0  0  0  0  0  0  0  0  0
   63.0921   31.1533   46.1261 H   0  0  0  0  0  0  0  0  0  0  0  0
   63.6647   30.9117   47.8262 H   0  0  0  0  0  0  0  0  0  0  0  0
   61.7090   31.6440   47.6350 N   0  0  0  0  0  0  0  0  0  0  0  0
   61.4240   32.6510   47.7040 H   0  0  0  0  0  0  0  0  0  0  0  0
   60.7670   30.9690   46.7290 C   0  0  0  0  0  0  0  0  0  0  0  0
   60.0177   31.7000   46.3911 H   0  0  0  0  0  0  0  0  0  0  0  0
   61.3466   30.5640   45.8864 H   0  0  0  0  0  0  0  0  0  0  0  0
   60.0340   29.7840   47.4080 C   0  0  0  0  0  0  0  0  0  0  0  0
   60.5583   28.8527   47.1474 H   0  0  0  0  0  0  0  0  0  0  0  0
   60.0413   29.9720   48.4918 H   0  0  0  0  0  0  0  0  0  0  0  0
   58.5620   29.6550   46.9750 C   0  0  0  0  0  0  0  0  0  0  0  0
   58.2282   28.6257   47.1728 H   0  0  0  0  0  0  0  0  0  0  0  0
   57.9856   30.3939   47.5510 H   0  0  0  0  0  0  0  0  0  0  0  0
   58.3380   29.9660   45.4700 C   0  0  0  0  0  0  0  0  0  0  0  0
   59.2060   30.5358   45.1067 H   0  0  0  0  0  0  0  0  0  0  0  0
   58.2130   28.9936   44.9711 H   0  0  0  0  0  0  0  0  0  0  0  0
   57.1140   30.7480   45.1650 N   0  0  0  0  0  0  0  0  0  0  0  0
   57.3800   32.1750   44.9350 C   0  0  0  0  0  0  0  0  0  0  0  0
   57.4761   32.6906   45.9019 H   0  0  0  0  0  0  0  0  0  0  0  0
   58.3144   32.2867   44.3655 H   0  0  0  0  0  0  0  0  0  0  0  0
   56.5486   32.6158   44.3655 H   0  0  0  0  0  0  0  0  0  0  0  0
   56.3020   30.1670   44.0820 C   0  0  0  0  0  0  0  0  0  0  0  0
   55.4798   29.5787   44.5154 H   0  0  0  0  0  0  0  0  0  0  0  0
   55.8873   30.9746   43.4609 H   0  0  0  0  0  0  0  0  0  0  0  0
   56.9326   29.5138   43.4609 H   0  0  0  0  0  0  0  0  0  0  0  0
  1  2  1  0
  2  3  2  0
  3  4  1  0
  3  5  1  0
  5  6  1  0
  5  7  1  0
  5  8  1  0
  8  9  1  0
  8 10  1  0
  8 11  1  0
 11 12  1  0
 11 13  1  0
 11 14  1  0
 14 15  1  0
 14 16  1  0
 14 17  1  0
 17 18  1  0
 17 19  1  0
 17 20  1  0
 20 21  1  0
 20 22  1  0
 20 23  1  0
 23 24  1  0
 23 25  1  0
 25 26  1  0
 25 27  1  0
 25 28  1  0
 28 29  1  0
 28 30  1  0
 28 31  1  0
  2 32  1  0
 32 33  1  0
 32 34  1  0
 32 35  1  0
 35 36  1  0
 35 37  1  0
 37 38  1  0
 37 39  1  0
 37 40  1  0
 40 41  1  0
 40 42  1  0
 40 43  1  0
 43 44  1  0
 43 45  1  0
 43 46  1  0
 46 47  1  0
 46 48  1  0
 48 49  1  0
 48 50  1  0
 48 51  1  0
 51 52  1  0
 51 53  1  0
 51 54  1  0
 54 55  1  0
 54 56  1  0
 54 57  1  0
 57 58  1  0
 57 59  1  0
 57 60  1  0
 60 61  1  0
 61 62  1  0
 61 63  1  0
 61 64  1  0
 60 65  1  0
 65 66  1  0
 65 67  1  0
 65 68  1  0
M  CHG  1   8   1
M  END
>  <UniqueID>  (19) 
19

>  <SMILES>  (19) 
CCNCCCC[NH2+]C/C=C/CNCCCNCCCCN(C)C

>  <Energy>  (19) 
50.31650752968846

>  <Genealogy>  (19) 
CCNCCCC[NH2+]CC=CCNCCCNCCCCN(C)C (protonated)
CCNCCCC[NH2+]C/C=C/CNCCCNCCCCN(C)C (cis-trans isomerization)
CCNCCCC[NH2+]C/C=C/CNCCCNCCCCN(C)C (3D coordinates assigned)
CCNCCCC[NH2+]C/C=C/CNCCCNCCCCN(C)C (optimized conformer: 50.31650752968846 kcal/mol)

>  <smiles>  (19) 
CCNCCCCNCC=CCNCCCNCCCCN(C)C

>  <score_type>  (19) 
oracle

>  <origin>  (19) 
adg

>  <m_score__min__energy>  (19) 
-2.8100000000000001

>  <m_primary>  (19) 
energy

$$$$
19:0
     RDKit          3D

 41 43  0  0  0  0  0  0  0  0999 V2000
   58.1470   33.1210   47.3670 C   0  0  0  0  0  0  0  0  0  0  0  0
   59.3540   32.2710   47.7620 C   0  0  0  0  0  0  0  0  0  0  0  0
   58.9630   30.9510   48.4570 C   0  0  0  0  0  0  0  0  0  0  0  0
   59.4940   29.7480   47.7930 N   0  0  0  0  0  0  0  0  0  0  0  0
   59.6560   28.6140   48.7130 C   0  0  0  0  0  0  0  0  0  0  0  0
   60.2760   27.4150   47.9830 C   0  0  0  0  0  0  0  0  0  0  0  0
   59.3040   26.7960   47.0040 C   0  0  0  0  0  0  0  0  0  0  0  0
   58.4780   25.7480   47.4420 C   0  0  0  0  0  0  0  0  0  0  0  0
   57.5220   25.1910   46.5900 C   0  0  0  0  0  0  0  0  0  0  0  0
   57.3520   25.6920   45.3000 C   0  0  0  0  0  0  0  0  0  0  0  0
   58.1520   26.7500   44.8400 C   0  0  0  0  0  0  0  0  0  0  0  0
   59.1590   27.2770   45.6820 C   0  0  0  0  0  0  0  0  0  0  0  0
   60.1730   28.6210   45.0280 S   0  0  0  0  0  0  0  0  0  0  0  0
   58.7220   29.5100   44.4590 C   0  0  0  0  0  0  0  0  0  0  0  0
   58.5330   30.8580   44.7740 C   0  0  0  0  0  0  0  0  0  0  0  0
   57.3830   31.5200   44.3340 C   0  0  0  0  0  0  0  0  0  0  0  0
   56.4190   30.8330   43.5900 C   0  0  0  0  0  0  0  0  0  0  0  0
   56.5900   29.4750   43.2980 C   0  0  0  0  0  0  0  0  0  0  0  0
   57.7400   28.7990   43.7400 C   0  0  0  0  0  0  0  0  0  0  0  0
   57.8890   27.3710   43.5570 N   0  0  0  0  0  0  0  0  0  0  0  0
   57.6382   33.4793   48.2741 H   0  0  0  0  0  0  0  0  0  0  0  0
   58.4841   33.9821   46.7713 H   0  0  0  0  0  0  0  0  0  0  0  0
   57.4498   32.5134   46.7713 H   0  0  0  0  0  0  0  0  0  0  0  0
   59.9263   32.0321   46.8535 H   0  0  0  0  0  0  0  0  0  0  0  0
   59.9467   32.8567   48.4801 H   0  0  0  0  0  0  0  0  0  0  0  0
   59.3460   30.9754   49.4879 H   0  0  0  0  0  0  0  0  0  0  0  0
   57.8660   30.8809   48.4162 H   0  0  0  0  0  0  0  0  0  0  0  0
   58.8610   29.4740   47.0080 H   0  0  0  0  0  0  0  0  0  0  0  0
   60.3134   28.9121   49.5430 H   0  0  0  0  0  0  0  0  0  0  0  0
   58.6673   28.3240   49.0982 H   0  0  0  0  0  0  0  0  0  0  0  0
   61.1680   27.7529   47.4351 H   0  0  0  0  0  0  0  0  0  0  0  0
   60.5401   26.6547   48.7328 H   0  0  0  0  0  0  0  0  0  0  0  0
   58.5852   25.3620   48.4665 H   0  0  0  0  0  0  0  0  0  0  0  0
   56.9002   24.3531   46.9382 H   0  0  0  0  0  0  0  0  0  0  0  0
   56.5876   25.2563   44.6397 H   0  0  0  0  0  0  0  0  0  0  0  0
   59.2870   31.3969   45.3666 H   0  0  0  0  0  0  0  0  0  0  0  0
   57.2363   32.5835   44.5736 H   0  0  0  0  0  0  0  0  0  0  0  0
   55.5230   31.3617   43.2329 H   0  0  0  0  0  0  0  0  0  0  0  0
   55.8234   28.9362   42.7219 H   0  0  0  0  0  0  0  0  0  0  0  0
   58.6990   27.1910   42.9200 H   0  0  0  0  0  0  0  0  0  0  0  0
   57.0320   26.9640   43.1150 H   0  0  0  0  0  0  0  0  0  0  0  0
  1  2  1  0
  2  3  1  0
  3  4  1  0
  4  5  1  0
  5  6  1  0
  6  7  1  0
  7  8  2  0
  8  9  1  0
  9 10  2  0
 10 11  1  0
 11 12  2  0
 12 13  1  0
 13 14  1  0
 14 15  2  0
 15 16  1  0
 16 17  2  0
 17 18  1  0
 18 19  2  0
 19 20  1  0
 12  7  1  0
 19 14  1  0
 20 11  1  0
  1 21  1  0
  1 22  1  0
  1 23  1  0
  2 24  1  0
  2 25  1  0
  3 26  1  0
  3 27  1  0
  4 28  1  0
  5 29  1  0
  5 30  1  0
  6 31  1  0
  6 32  1  0
  8 33  1  0
  9 34  1  0
 10 35  1  0
 15 36  1  0
 16 37  1  0
 17 38  1  0
 18 39  1  0
 20 40  1  0
 20 41  1  0
M  CHG  1  20   1
M  END
>  <UniqueID>  (20) 
20

>  <SMILES>  (20) 
CCCNCCc1cccc2c1Sc1ccccc1[NH2+]2

>  <Energy>  (20) 
50.4403747898701

>  <Genealogy>  (20) 
CCCNCCc1cccc2c1Sc1ccccc1[NH2+]2 (protonated)
CCCNCCc1cccc2c1Sc1ccccc1[NH2+]2 (3D coordinates assigned)
CCCNCCc1cccc2c1Sc1ccccc1[NH2+]2 (nonaromatic ring conformer: 50.4403747898701 kcal/mol)

>  <smiles>  (20) 
CCCNCCc1cccc2c1Sc1ccccc1N2

>  <score_type>  (20) 
oracle

>  <origin>  (20) 
adg

>  <m_score__min__energy>  (20) 
-5.71

>  <m_primary>  (20) 
energy

$$$$
20:0
     RDKit          3D

 35 37  0  0  0  0  0  0  0  0999 V2000
   60.0350   29.7460   45.2430 C   0  0  0  0  0  0  0  0  0  0  0  0
   58.5430   29.6150   45.0550 C   0  0  0  0  0  0  0  0  0  0  0  0
   57.7630   30.5580   44.3130 C   0  0  0  0  0  0  0  0  0  0  0  0
   58.3730   31.7730   43.6410 C   0  0  0  0  0  0  0  0  0  0  0  0
   57.7990   33.0880   44.1880 C   0  0  0  0  0  0  0  0  0  0  0  0
   58.3780   33.4330   45.5370 C   0  0  0  0  0  0  0  0  0  0  0  0
   57.9390   32.7580   46.6880 C   0  0  0  0  0  0  0  0  0  0  0  0
   58.4380   33.1140   47.9450 C   0  0  0  0  0  0  0  0  0  0  0  0
   59.3700   34.1490   48.0620 C   0  0  0  0  0  0  0  0  0  0  0  0
   59.8040   34.8320   46.9230 C   0  0  0  0  0  0  0  0  0  0  0  0
   59.3090   34.4780   45.6630 C   0  0  0  0  0  0  0  0  0  0  0  0
   56.3730   30.3270   44.1310 C   0  0  0  0  0  0  0  0  0  0  0  0
   55.7480   29.1880   44.6600 C   0  0  0  0  0  0  0  0  0  0  0  0
   56.5370   28.2840   45.3600 C   0  0  0  0  0  0  0  0  0  0  0  0
   56.2350   27.0830   45.9600 C   0  0  0  0  0  0  0  0  0  0  0  0
   54.9840   26.4750   46.0170 O   0  0  0  0  0  0  0  0  0  0  0  0
   57.3270   26.5640   46.4830 O   0  0  0  0  0  0  0  0  0  0  0  0
   58.3400   27.3800   46.2520 C   0  0  0  0  0  0  0  0  0  0  0  0
   57.8770   28.4820   45.5470 C   0  0  0  0  0  0  0  0  0  0  0  0
   60.2687   29.7665   46.3177 H   0  0  0  0  0  0  0  0  0  0  0  0
   60.5403   28.8888   44.7742 H   0  0  0  0  0  0  0  0  0  0  0  0
   60.3832   30.6782   44.7742 H   0  0  0  0  0  0  0  0  0  0  0  0
   59.4598   31.7633   43.8106 H   0  0  0  0  0  0  0  0  0  0  0  0
   58.1346   31.7209   42.5684 H   0  0  0  0  0  0  0  0  0  0  0  0
   58.0320   33.8991   43.4824 H   0  0  0  0  0  0  0  0  0  0  0  0
   56.7120   32.9650   44.3036 H   0  0  0  0  0  0  0  0  0  0  0  0
   57.2008   31.9472   46.6004 H   0  0  0  0  0  0  0  0  0  0  0  0
   58.0964   32.5786   48.8431 H   0  0  0  0  0  0  0  0  0  0  0  0
   59.7622   34.4261   49.0517 H   0  0  0  0  0  0  0  0  0  0  0  0
   60.5352   35.6484   47.0168 H   0  0  0  0  0  0  0  0  0  0  0  0
   59.6498   35.0195   44.7682 H   0  0  0  0  0  0  0  0  0  0  0  0
   55.7751   31.0557   43.5640 H   0  0  0  0  0  0  0  0  0  0  0  0
   54.6699   29.0165   44.5251 H   0  0  0  0  0  0  0  0  0  0  0  0
   54.3270   26.6920   46.7560 H   0  0  0  0  0  0  0  0  0  0  0  0
   59.3806   27.2131   46.5671 H   0  0  0  0  0  0  0  0  0  0  0  0
  1  2  1  0
  2  3  2  0
  3  4  1  0
  4  5  1  0
  5  6  1  0
  6  7  2  0
  7  8  1  0
  8  9  2  0
  9 10  1  0
 10 11  2  0
  3 12  1  0
 12 13  2  0
 13 14  1  0
 14 15  2  0
 15 16  1  0
 15 17  1  0
 17 18  1  0
 18 19  2  0
 19  2  1  0
 11  6  1  0
 19 14  1  0
  1 20  1  0
  1 21  1  0
  1 22  1  0
  4 23  1  0
  4 24  1  0
  5 25  1  0
  5 26  1  0
  7 27  1  0
  8 28  1  0
  9 29  1  0
 10 30  1  0
 11 31  1  0
 12 32  1  0
 13 33  1  0
 16 34  1  0
 18 35  1  0
M  END
>  <UniqueID>  (21) 
21

>  <SMILES>  (21) 
Cc1c(CCc2ccccc2)ccc2c(O)occ12

>  <Energy>  (21) 
70.93830554221778

>  <Genealogy>  (21) 
Cc1c(CCc2ccccc2)ccc2c(O)occ12 (3D coordinates assigned)
Cc1c(CCc2ccccc2)ccc2c(O)occ12 (optimized conformer: 70.93830554221778 kcal/mol)

>  <smiles>  (21) 
Cc1c(CCc2ccccc2)ccc2c(O)occ12

>  <score_type>  (21) 
oracle

>  <origin>  (21) 
adg

>  <m_score__min__energy>  (21) 
-8.2100000000000009

>  <m_primary>  (21) 
energy

$$$$
21:0
     RDKit          3D

 45 48  0  0  0  0  0  0  0  0999 V2000
   61.0130   29.8770   49.6490 C   0  0  0  0  0  0  0  0  0  0  0  0
   61.7870   31.1770   49.7960 C   0  0  0  0  0  0  0  0  0  0  0  0
   62.7000   31.2970   48.7260 O   0  0  0  0  0  0  0  0  0  0  0  0
   63.8800   31.9540   49.1500 C   0  0  0  0  0  0  0  0  0  0  0  0
   63.7430   33.4690   48.9780 C   0  0  0  0  0  0  0  0  0  0  0  0
   64.0990   33.8570   47.6630 O   0  0  0  0  0  0  0  0  0  0  0  0
   63.0970   33.4980   46.7290 C   0  0  0  0  0  0  0  0  0  0  0  0
   61.7100   33.7970   47.2990 C   0  0  0  0  0  0  0  0  0  0  0  0
   60.7150   32.9230   46.6830 N   0  0  0  0  0  0  0  0  0  0  0  0
   60.7110   31.5880   46.7880 N   0  0  0  0  0  0  0  0  0  0  0  0
   59.5830   31.1290   46.1970 C   0  0  0  0  0  0  0  0  0  0  0  0
   58.8900   32.1850   45.7430 C   0  0  0  0  0  0  0  0  0  0  0  0
   57.6290   32.1450   45.2140 C   0  0  0  0  0  0  0  0  0  0  0  0
   57.0340   33.3810   44.9010 C   0  0  0  0  0  0  0  0  0  0  0  0
   57.7390   34.5900   45.1860 C   0  0  0  0  0  0  0  0  0  0  0  0
   59.0280   34.5590   45.7840 C   0  0  0  0  0  0  0  0  0  0  0  0
   59.5790   33.3000   46.0470 C   0  0  0  0  0  0  0  0  0  0  0  0
   57.0260   30.8800   45.0690 O   0  0  0  0  0  0  0  0  0  0  0  0
   57.6950   29.7040   45.5150 C   0  0  0  0  0  0  0  0  0  0  0  0
   57.0810   28.4550   45.3850 C   0  0  0  0  0  0  0  0  0  0  0  0
   57.7350   27.3020   45.8350 C   0  0  0  0  0  0  0  0  0  0  0  0
   59.0060   27.3880   46.4160 C   0  0  0  0  0  0  0  0  0  0  0  0
   59.6380   28.6280   46.5540 C   0  0  0  0  0  0  0  0  0  0  0  0
   58.9920   29.7840   46.1050 C   0  0  0  0  0  0  0  0  0  0  0  0
   60.7750   29.4773   50.6458 H   0  0  0  0  0  0  0  0  0  0  0  0
   60.0802   30.0660   49.0974 H   0  0  0  0  0  0  0  0  0  0  0  0
   61.6237   29.1470   49.0974 H   0  0  0  0  0  0  0  0  0  0  0  0
   61.0873   32.0257   49.7796 H   0  0  0  0  0  0  0  0  0  0  0  0
   62.3341   31.1756   50.7503 H   0  0  0  0  0  0  0  0  0  0  0  0
   64.0602   31.7252   50.2107 H   0  0  0  0  0  0  0  0  0  0  0  0
   64.7226   31.6017   48.5369 H   0  0  0  0  0  0  0  0  0  0  0  0
   62.7004   33.7617   49.1713 H   0  0  0  0  0  0  0  0  0  0  0  0
   64.4173   33.9685   49.6893 H   0  0  0  0  0  0  0  0  0  0  0  0
   63.2408   34.0739   45.8029 H   0  0  0  0  0  0  0  0  0  0  0  0
   63.1731   32.4211   46.5181 H   0  0  0  0  0  0  0  0  0  0  0  0
   61.7193   33.6283   48.3860 H   0  0  0  0  0  0  0  0  0  0  0  0
   61.4509   34.8444   47.0849 H   0  0  0  0  0  0  0  0  0  0  0  0
   61.4340   31.0220   47.2860 H   0  0  0  0  0  0  0  0  0  0  0  0
   56.0353   33.4158   44.4412 H   0  0  0  0  0  0  0  0  0  0  0  0
   57.2783   35.5579   44.9394 H   0  0  0  0  0  0  0  0  0  0  0  0
   59.5691   35.4847   46.0295 H   0  0  0  0  0  0  0  0  0  0  0  0
   56.0831   28.3781   44.9287 H   0  0  0  0  0  0  0  0  0  0  0  0
   57.2470   26.3216   45.7314 H   0  0  0  0  0  0  0  0  0  0  0  0
   59.5103   26.4752   46.7659 H   0  0  0  0  0  0  0  0  0  0  0  0
   60.6358   28.6934   47.0123 H   0  0  0  0  0  0  0  0  0  0  0  0
  1  2  1  0
  2  3  1  0
  3  4  1  0
  4  5  1  0
  5  6  1  0
  6  7  1  0
  7  8  1  0
  8  9  1  0
  9 10  1  0
 10 11  2  0
 11 12  1  0
 12 13  2  0
 13 14  1  0
 14 15  2  0
 15 16  1  0
 16 17  2  0
 13 18  1  0
 18 19  1  0
 19 20  2  0
 20 21  1  0
 21 22  2  0
 22 23  1  0
 23 24  2  0
 17  9  1  0
 24 19  1  0
 24 11  1  0
 17 12  1  0
  1 25  1  0
  1 26  1  0
  1 27  1  0
  2 28  1  0
  2 29  1  0
  4 30  1  0
  4 31  1  0
  5 32  1  0
  5 33  1  0
  7 34  1  0
  7 35  1  0
  8 36  1  0
  8 37  1  0
 10 38  1  0
 14 39  1  0
 15 40  1  0
 16 41  1  0
 20 42  1  0
 21 43  1  0
 22 44  1  0
 23 45  1  0
M  CHG  1  10   1
M  END
>  <UniqueID>  (22) 
22

>  <SMILES>  (22) 
CCOCCOCCn1[nH+]c2c3c(cccc31)Oc1ccccc1-2

>  <Energy>  (22) 
101.86969895909273

>  <Genealogy>  (22) 
CCOCCOCCn1[nH+]c2c3c(cccc31)Oc1ccccc1-2 (protonated)
CCOCCOCCn1[nH+]c2c3c(cccc31)Oc1ccccc1-2 (3D coordinates assigned)
CCOCCOCCn1[nH+]c2c3c(cccc31)Oc1ccccc1-2 (nonaromatic ring conformer: 101.86969895909273 kcal/mol)

>  <smiles>  (22) 
CCOCCOCCn1nc2c3c(cccc31)Oc1ccccc1-2

>  <score_type>  (22) 
oracle

>  <origin>  (22) 
adg

>  <m_score__min__energy>  (22) 
-5.0599999999999996

>  <m_primary>  (22) 
energy

$$$$
22:0
     RDKit          3D

 34 36  0  0  1  0  0  0  0  0999 V2000
   55.6030   30.7020   44.8570 O   0  0  0  0  0  0  0  0  0  0  0  0
   55.8670   29.9840   43.7170 C   0  0  0  0  0  0  0  0  0  0  0  0
   57.0130   28.9980   43.8510 C   0  0  0  0  0  0  0  0  0  0  0  0
   57.2650   28.6890   45.2230 N   0  0  0  0  0  0  0  0  0  0  0  0
   58.0810   29.3510   45.9370 C   0  0  0  0  0  0  0  0  0  0  0  0
   58.2340   30.6740   45.8400 N   0  0  0  0  0  0  0  0  0  0  0  0
   59.0820   31.3800   46.5770 C   0  0  0  0  0  0  0  0  0  0  0  0
   59.2700   32.8170   46.4940 C   0  0  0  0  0  0  0  0  0  0  0  0
   59.0580   33.5300   45.3080 C   0  0  0  0  0  0  0  0  0  0  0  0
   59.2400   34.8970   45.2390 C   0  0  0  0  0  0  0  0  0  0  0  0
   59.6300   35.6020   46.3100 N   0  0  0  0  0  0  0  0  0  0  0  0
   59.8430   34.9440   47.4680 C   0  0  0  0  0  0  0  0  0  0  0  0
   59.6710   33.5750   47.5740 C   0  0  0  0  0  0  0  0  0  0  0  0
   59.8320   30.7060   47.4800 N   0  0  0  0  0  0  0  0  0  0  0  0
   59.7560   29.3800   47.6560 C   0  0  0  0  0  0  0  0  0  0  0  0
   60.5430   28.7240   48.5920 C   0  0  0  0  0  0  0  0  0  0  0  0
   60.4380   27.3510   48.7490 C   0  0  0  0  0  0  0  0  0  0  0  0
   59.5520   26.6400   47.9730 C   0  0  0  0  0  0  0  0  0  0  0  0
   58.7710   27.3110   47.0390 C   0  0  0  0  0  0  0  0  0  0  0  0
   58.8600   28.6860   46.8670 C   0  0  0  0  0  0  0  0  0  0  0  0
   55.7370   30.0790   45.6190 H   0  0  0  0  0  0  0  0  0  0  0  0
   54.9604   29.4235   43.4452 H   0  0  0  0  0  0  0  0  0  0  0  0
   56.1661   30.7120   42.9485 H   0  0  0  0  0  0  0  0  0  0  0  0
   56.7556   28.0724   43.3152 H   0  0  0  0  0  0  0  0  0  0  0  0
   57.9183   29.4526   43.4222 H   0  0  0  0  0  0  0  0  0  0  0  0
   57.6460   31.1700   45.1390 H   0  0  0  0  0  0  0  0  0  0  0  0
   58.7378   32.9866   44.4068 H   0  0  0  0  0  0  0  0  0  0  0  0
   59.0614   35.4175   44.2865 H   0  0  0  0  0  0  0  0  0  0  0  0
   60.1628   35.5122   48.3540 H   0  0  0  0  0  0  0  0  0  0  0  0
   59.8579   33.0815   48.5391 H   0  0  0  0  0  0  0  0  0  0  0  0
   61.2514   29.2948   49.2104 H   0  0  0  0  0  0  0  0  0  0  0  0
   61.0611   26.8314   49.4918 H   0  0  0  0  0  0  0  0  0  0  0  0
   59.4623   25.5500   48.0906 H   0  0  0  0  0  0  0  0  0  0  0  0
   58.0645   26.7381   46.4204 H   0  0  0  0  0  0  0  0  0  0  0  0
  1  2  1  0
  2  3  1  0
  3  4  1  0
  4  5  2  0
  5  6  1  0
  6  7  1  0
  7  8  1  0
  8  9  2  0
  9 10  1  0
 10 11  2  0
 11 12  1  0
 12 13  2  0
  7 14  2  0
 14 15  1  0
 15 16  2  0
 16 17  1  0
 17 18  2  0
 18 19  1  0
 19 20  2  0
 20  5  1  0
 13  8  1  0
 20 15  1  0
  1 21  1  0
  2 22  1  0
  2 23  1  0
  3 24  1  0
  3 25  1  0
  6 26  1  0
  9 27  1  0
 10 28  1  0
 12 29  1  0
 13 30  1  0
 16 31  1  0
 17 32  1  0
 18 33  1  0
 19 34  1  0
M  END
>  <smiles>  (23) 
OCCN=c1[nH]c(-c2ccncc2)nc2ccccc12

>  <score_type>  (23) 
oracle

>  <origin>  (23) 
adg

>  <m_score__min__energy>  (23) 
-6.9500000000000002

>  <m_primary>  (23) 
energy

$$$$
23:0
     RDKit          3D

 53 55  0  0  0  0  0  0  0  0999 V2000
   63.7700   33.4730   46.9840 C   0  0  0  0  0  0  0  0  0  0  0  0
   63.6500   32.1370   47.5620 N   0  0  0  0  0  0  0  0  0  0  0  0
   62.4160   31.6070   48.0900 C   0  0  0  0  0  0  0  0  0  0  0  0
   61.3880   31.1710   47.2300 C   0  0  0  0  0  0  0  0  0  0  0  0
   60.2010   30.6420   47.7450 C   0  0  0  0  0  0  0  0  0  0  0  0
   58.9210   30.0610   46.6300 S   0  0  0  0  0  0  0  0  0  0  0  0
   58.4400   31.7300   46.1660 C   0  0  0  0  0  0  0  0  0  0  0  0
   59.1240   32.8180   46.7240 C   0  0  0  0  0  0  0  0  0  0  0  0
   58.7600   34.1230   46.3890 C   0  0  0  0  0  0  0  0  0  0  0  0
   57.7110   34.3480   45.4950 C   0  0  0  0  0  0  0  0  0  0  0  0
   57.0250   33.2690   44.9320 C   0  0  0  0  0  0  0  0  0  0  0  0
   57.3850   31.9470   45.2620 C   0  0  0  0  0  0  0  0  0  0  0  0
   56.7180   30.8370   44.7200 O   0  0  0  0  0  0  0  0  0  0  0  0
   56.8520   30.3930   43.3750 C   0  0  0  0  0  0  0  0  0  0  0  0
   60.0160   30.5590   49.1260 C   0  0  0  0  0  0  0  0  0  0  0  0
   61.0190   30.9920   49.9920 C   0  0  0  0  0  0  0  0  0  0  0  0
   62.2180   31.5130   49.4880 C   0  0  0  0  0  0  0  0  0  0  0  0
   63.2310   31.9340   50.4120 N   0  0  0  0  0  0  0  0  0  0  0  0
   63.1620   33.2660   51.0110 C   0  0  0  0  0  0  0  0  0  0  0  0
   64.5550   33.9320   51.0860 C   0  0  0  0  0  0  0  0  0  0  0  0
   65.7100   32.9730   51.1410 N   0  0  0  0  0  0  0  0  0  0  0  0
   66.2860   32.7910   49.7820 C   0  0  0  0  0  0  0  0  0  0  0  0
   66.7740   33.5440   52.0040 C   0  0  0  0  0  0  0  0  0  0  0  0
   65.3080   31.6570   51.7130 C   0  0  0  0  0  0  0  0  0  0  0  0
   64.2220   30.9650   50.8770 C   0  0  0  0  0  0  0  0  0  0  0  0
   63.8368   34.2171   47.7913 H   0  0  0  0  0  0  0  0  0  0  0  0
   64.6763   33.5237   46.3627 H   0  0  0  0  0  0  0  0  0  0  0  0
   62.8872   33.6844   46.3627 H   0  0  0  0  0  0  0  0  0  0  0  0
   64.5120   31.5490   47.5650 H   0  0  0  0  0  0  0  0  0  0  0  0
   61.5213   31.2479   46.1408 H   0  0  0  0  0  0  0  0  0  0  0  0
   59.9506   32.6431   47.4284 H   0  0  0  0  0  0  0  0  0  0  0  0
   59.2995   34.9745   46.8292 H   0  0  0  0  0  0  0  0  0  0  0  0
   57.4242   35.3772   45.2335 H   0  0  0  0  0  0  0  0  0  0  0  0
   56.2000   33.4521   44.2278 H   0  0  0  0  0  0  0  0  0  0  0  0
   57.1698   29.3399   43.3664 H   0  0  0  0  0  0  0  0  0  0  0  0
   55.8851   30.4884   42.8593 H   0  0  0  0  0  0  0  0  0  0  0  0
   57.6047   31.0074   42.8593 H   0  0  0  0  0  0  0  0  0  0  0  0
   59.0781   30.1516   49.5313 H   0  0  0  0  0  0  0  0  0  0  0  0
   60.8679   30.9241   51.0795 H   0  0  0  0  0  0  0  0  0  0  0  0
   62.4976   33.8967   50.4021 H   0  0  0  0  0  0  0  0  0  0  0  0
   62.7762   33.1616   52.0358 H   0  0  0  0  0  0  0  0  0  0  0  0
   64.6792   34.5665   50.1961 H   0  0  0  0  0  0  0  0  0  0  0  0
   64.5772   34.4977   52.0291 H   0  0  0  0  0  0  0  0  0  0  0  0
   67.3317   32.4606   49.8682 H   0  0  0  0  0  0  0  0  0  0  0  0
   65.7056   32.0325   49.2363 H   0  0  0  0  0  0  0  0  0  0  0  0
   66.2468   33.7453   49.2363 H   0  0  0  0  0  0  0  0  0  0  0  0
   66.5055   33.3999   53.0610 H   0  0  0  0  0  0  0  0  0  0  0  0
   67.7272   33.0362   51.7953 H   0  0  0  0  0  0  0  0  0  0  0  0
   66.8778   34.6190   51.7953 H   0  0  0  0  0  0  0  0  0  0  0  0
   66.1924   31.0042   51.7540 H   0  0  0  0  0  0  0  0  0  0  0  0
   64.8954   31.8384   52.7164 H   0  0  0  0  0  0  0  0  0  0  0  0
   64.6898   30.4813   50.0068 H   0  0  0  0  0  0  0  0  0  0  0  0
   63.7166   30.2161   51.5045 H   0  0  0  0  0  0  0  0  0  0  0  0
  1  2  1  0
  2  3  1  0
  3  4  2  0
  4  5  1  0
  5  6  1  0
  6  7  1  0
  7  8  2  0
  8  9  1  0
  9 10  2  0
 10 11  1  0
 11 12  2  0
 12 13  1  0
 13 14  1  0
  5 15  2  0
 15 16  1  0
 16 17  2  0
 17 18  1  0
 18 19  1  0
 19 20  1  0
 20 21  1  0
 21 22  1  0
 21 23  1  0
 21 24  1  0
 24 25  1  0
 17  3  1  0
 25 18  1  0
 12  7  1  0
  1 26  1  0
  1 27  1  0
  1 28  1  0
  2 29  1  0
  4 30  1  0
  8 31  1  0
  9 32  1  0
 10 33  1  0
 11 34  1  0
 14 35  1  0
 14 36  1  0
 14 37  1  0
 15 38  1  0
 16 39  1  0
 19 40  1  0
 19 41  1  0
 20 42  1  0
 20 43  1  0
 22 44  1  0
 22 45  1  0
 22 46  1  0
 23 47  1  0
 23 48  1  0
 23 49  1  0
 24 50  1  0
 24 51  1  0
 25 52  1  0
 25 53  1  0
M  CHG  1  21   1
M  END
>  <UniqueID>  (24) 
23

>  <SMILES>  (24) 
CNc1cc(Sc2ccccc2OC)ccc1N1CC[N+](C)(C)CC1

>  <Energy>  (24) 
64.77553051815441

>  <Genealogy>  (24) 
CNc1cc(Sc2ccccc2OC)ccc1N1CC[N+](C)(C)CC1 (3D coordinates assigned)
CNc1cc(Sc2ccccc2OC)ccc1N1CC[N+](C)(C)CC1 (nonaromatic ring conformer: 64.77553051815441 kcal/mol)

>  <smiles>  (24) 
CNc1cc(Sc2ccccc2OC)ccc1N1CC[N+](C)(C)CC1

>  <score_type>  (24) 
oracle

>  <origin>  (24) 
adg

>  <m_score__min__energy>  (24) 
-6.04

>  <m_primary>  (24) 
energy

$$$$
24:0
     RDKit          3D

 42 44  0  0  0  0  0  0  0  0999 V2000
   58.5530   32.1890   48.6900 C   0  0  0  0  0  0  0  0  0  0  0  0
   58.9700   33.6200   48.3710 C   0  0  0  0  0  0  0  0  0  0  0  0
   60.2440   33.6390   47.6480 N   0  0  0  0  0  0  0  0  0  0  0  0
   60.5000   34.1140   46.3980 C   0  0  0  0  0  0  0  0  0  0  0  0
   59.2610   34.8430   45.3220 S   0  0  0  0  0  0  0  0  0  0  0  0
   58.6290   33.2450   44.6990 C   0  0  0  0  0  0  0  0  0  0  0  0
   57.4120   32.8000   45.5010 C   0  0  0  0  0  0  0  0  0  0  0  0
   57.0180   31.4980   45.0760 O   0  0  0  0  0  0  0  0  0  0  0  0
   57.7010   30.3150   45.4010 C   0  0  0  0  0  0  0  0  0  0  0  0
   59.0540   30.3160   45.7950 C   0  0  0  0  0  0  0  0  0  0  0  0
   59.6970   29.1170   46.1090 C   0  0  0  0  0  0  0  0  0  0  0  0
   59.0030   27.9110   46.0340 C   0  0  0  0  0  0  0  0  0  0  0  0
   57.6620   27.8960   45.6460 C   0  0  0  0  0  0  0  0  0  0  0  0
   57.0020   29.1000   45.3260 C   0  0  0  0  0  0  0  0  0  0  0  0
   55.6550   29.1280   44.9300 O   0  0  0  0  0  0  0  0  0  0  0  0
   55.1810   29.7190   43.7250 C   0  0  0  0  0  0  0  0  0  0  0  0
   61.7980   33.9680   46.0180 N   0  0  0  0  0  0  0  0  0  0  0  0
   62.3620   33.3910   47.0950 C   0  0  0  0  0  0  0  0  0  0  0  0
   63.6920   33.0160   47.2610 C   0  0  0  0  0  0  0  0  0  0  0  0
   64.0400   32.4240   48.4890 C   0  0  0  0  0  0  0  0  0  0  0  0
   63.0920   32.2340   49.4620 N   0  0  0  0  0  0  0  0  0  0  0  0
   61.7880   32.6040   49.2860 C   0  0  0  0  0  0  0  0  0  0  0  0
   61.4370   33.1940   48.0730 C   0  0  0  0  0  0  0  0  0  0  0  0
   58.5134   32.0531   49.7809 H   0  0  0  0  0  0  0  0  0  0  0  0
   57.5601   31.9919   48.2597 H   0  0  0  0  0  0  0  0  0  0  0  0
   59.2846   31.4893   48.2597 H   0  0  0  0  0  0  0  0  0  0  0  0
   58.1949   34.0919   47.7493 H   0  0  0  0  0  0  0  0  0  0  0  0
   59.0906   34.1720   49.3148 H   0  0  0  0  0  0  0  0  0  0  0  0
   58.3446   33.3560   43.6422 H   0  0  0  0  0  0  0  0  0  0  0  0
   59.4189   32.4865   44.8030 H   0  0  0  0  0  0  0  0  0  0  0  0
   57.6658   32.7761   46.5710 H   0  0  0  0  0  0  0  0  0  0  0  0
   56.5849   33.5067   45.3381 H   0  0  0  0  0  0  0  0  0  0  0  0
   59.6060   31.2655   45.8554 H   0  0  0  0  0  0  0  0  0  0  0  0
   60.7532   29.1245   46.4161 H   0  0  0  0  0  0  0  0  0  0  0  0
   59.5131   26.9683   46.2812 H   0  0  0  0  0  0  0  0  0  0  0  0
   57.1184   26.9414   45.5898 H   0  0  0  0  0  0  0  0  0  0  0  0
   54.5096   30.5562   43.9666 H   0  0  0  0  0  0  0  0  0  0  0  0
   56.0342   30.0907   43.1386 H   0  0  0  0  0  0  0  0  0  0  0  0
   54.6329   28.9669   43.1386 H   0  0  0  0  0  0  0  0  0  0  0  0
   64.4374   33.1753   46.4679 H   0  0  0  0  0  0  0  0  0  0  0  0
   65.0790   32.1115   48.6700 H   0  0  0  0  0  0  0  0  0  0  0  0
   61.0400   32.4414   50.0759 H   0  0  0  0  0  0  0  0  0  0  0  0
  1  2  1  0
  2  3  1  0
  3  4  1  0
  4  5  1  0
  5  6  1  0
  6  7  1  0
  7  8  1  0
  8  9  1  0
  9 10  2  0
 10 11  1  0
 11 12  2  0
 12 13  1  0
 13 14  2  0
 14 15  1  0
 15 16  1  0
  4 17  2  0
 17 18  1  0
 18 19  2  0
 19 20  1  0
 20 21  2  0
 21 22  1  0
 22 23  2  0
 23  3  1  0
 14  9  1  0
 23 18  1  0
  1 24  1  0
  1 25  1  0
  1 26  1  0
  2 27  1  0
  2 28  1  0
  6 29  1  0
  6 30  1  0
  7 31  1  0
  7 32  1  0
 10 33  1  0
 11 34  1  0
 12 35  1  0
 13 36  1  0
 16 37  1  0
 16 38  1  0
 16 39  1  0
 19 40  1  0
 20 41  1  0
 22 42  1  0
M  END
>  <UniqueID>  (25) 
24

>  <SMILES>  (25) 
CCn1c(SCCOc2ccccc2OC)nc2ccncc21

>  <Energy>  (25) 
73.5201914968423

>  <Genealogy>  (25) 
CCn1c(SCCOc2ccccc2OC)nc2ccncc21 (3D coordinates assigned)
CCn1c(SCCOc2ccccc2OC)nc2ccncc21 (optimized conformer: 73.5201914968423 kcal/mol)

>  <smiles>  (25) 
CCn1c(SCCOc2ccccc2OC)nc2ccncc21

>  <score_type>  (25) 
oracle

>  <origin>  (25) 
adg

>  <m_score__min__energy>  (25) 
-7.6200000000000001

>  <m_primary>  (25) 
energy

$$$$
25:0
     RDKit          3D

 42 43  0  0  0  0  0  0  0  0999 V2000
   58.8830   29.3750   47.2810 C   0  0  0  0  0  0  0  0  0  0  0  0
   57.9500   30.2380   46.6380 O   0  0  0  0  0  0  0  0  0  0  0  0
   58.1480   31.6130   46.4360 C   0  0  0  0  0  0  0  0  0  0  0  0
   58.9790   32.3800   47.2760 C   0  0  0  0  0  0  0  0  0  0  0  0
   59.1440   33.7570   47.0590 C   0  0  0  0  0  0  0  0  0  0  0  0
   60.0440   34.5770   47.9640 C   0  0  0  0  0  0  0  0  0  0  0  0
   61.4520   34.1060   48.0220 N   0  0  0  0  0  0  0  0  0  0  0  0
   61.6510   33.0390   49.0380 C   0  0  0  0  0  0  0  0  0  0  0  0
   63.0280   32.3410   48.9230 C   0  0  0  0  0  0  0  0  0  0  0  0
   64.0360   33.1770   48.1350 C   0  0  0  0  0  0  0  0  0  0  0  0
   63.5060   33.5160   46.7310 C   0  0  0  0  0  0  0  0  0  0  0  0
   61.9730   33.6970   46.6990 C   0  0  0  0  0  0  0  0  0  0  0  0
   58.4940   34.3590   45.9720 C   0  0  0  0  0  0  0  0  0  0  0  0
   57.6700   33.6060   45.1350 C   0  0  0  0  0  0  0  0  0  0  0  0
   57.4900   32.2280   45.3590 C   0  0  0  0  0  0  0  0  0  0  0  0
   56.6650   31.4320   44.5450 O   0  0  0  0  0  0  0  0  0  0  0  0
   57.0420   30.8400   43.3030 C   0  0  0  0  0  0  0  0  0  0  0  0
   56.5570   29.3940   43.2260 C   0  0  0  0  0  0  0  0  0  0  0  0
   57.8380   28.2160   44.0770 Br  0  0  0  0  0  0  0  0  0  0  0  0
   58.7795   29.4708   48.3719 H   0  0  0  0  0  0  0  0  0  0  0  0
   58.6852   28.3345   46.9838 H   0  0  0  0  0  0  0  0  0  0  0  0
   59.9049   29.6532   46.9838 H   0  0  0  0  0  0  0  0  0  0  0  0
   59.5045   31.8944   48.1114 H   0  0  0  0  0  0  0  0  0  0  0  0
   60.0435   35.6151   47.6001 H   0  0  0  0  0  0  0  0  0  0  0  0
   59.6385   34.4783   48.9818 H   0  0  0  0  0  0  0  0  0  0  0  0
   62.0070   34.9400   48.3330 H   0  0  0  0  0  0  0  0  0  0  0  0
   61.5687   33.4885   50.0386 H   0  0  0  0  0  0  0  0  0  0  0  0
   60.8797   32.2738   48.8658 H   0  0  0  0  0  0  0  0  0  0  0  0
   63.4240   32.1701   49.9349 H   0  0  0  0  0  0  0  0  0  0  0  0
   62.8817   31.3931   48.3845 H   0  0  0  0  0  0  0  0  0  0  0  0
   64.2295   34.1125   48.6803 H   0  0  0  0  0  0  0  0  0  0  0  0
   64.9609   32.5919   48.0247 H   0  0  0  0  0  0  0  0  0  0  0  0
   63.9776   34.4506   46.3933 H   0  0  0  0  0  0  0  0  0  0  0  0
   63.7542   32.6724   46.0701 H   0  0  0  0  0  0  0  0  0  0  0  0
   61.7189   34.4704   45.9592 H   0  0  0  0  0  0  0  0  0  0  0  0
   61.5154   32.7340   46.4283 H   0  0  0  0  0  0  0  0  0  0  0  0
   58.6348   35.4325   45.7779 H   0  0  0  0  0  0  0  0  0  0  0  0
   57.1567   34.0933   44.2929 H   0  0  0  0  0  0  0  0  0  0  0  0
   56.5956   31.4151   42.4784 H   0  0  0  0  0  0  0  0  0  0  0  0
   58.1392   30.8501   43.2246 H   0  0  0  0  0  0  0  0  0  0  0  0
   55.5873   29.3077   43.7381 H   0  0  0  0  0  0  0  0  0  0  0  0
   56.4494   29.1061   42.1698 H   0  0  0  0  0  0  0  0  0  0  0  0
  1  2  1  0
  2  3  1  0
  3  4  2  0
  4  5  1  0
  5  6  1  0
  6  7  1  0
  7  8  1  0
  8  9  1  0
  9 10  1  0
 10 11  1  0
 11 12  1  0
  5 13  2  0
 13 14  1  0
 14 15  2  0
 15 16  1  0
 16 17  1  0
 17 18  1  0
 18 19  1  0
 15  3  1  0
 12  7  1  0
  1 20  1  0
  1 21  1  0
  1 22  1  0
  4 23  1  0
  6 24  1  0
  6 25  1  0
  7 26  1  0
  8 27  1  0
  8 28  1  0
  9 29  1  0
  9 30  1  0
 10 31  1  0
 10 32  1  0
 11 33  1  0
 11 34  1  0
 12 35  1  0
 12 36  1  0
 13 37  1  0
 14 38  1  0
 17 39  1  0
 17 40  1  0
 18 41  1  0
 18 42  1  0
M  CHG  1   7   1
M  END
>  <UniqueID>  (26) 
25

>  <SMILES>  (26) 
COc1cc(C[NH+]2CCCCC2)ccc1OCCBr

>  <Energy>  (26) 
46.24447994040321

>  <Genealogy>  (26) 
COc1cc(C[NH+]2CCCCC2)ccc1OCCBr (protonated)
COc1cc(C[NH+]2CCCCC2)ccc1OCCBr (3D coordinates assigned)
COc1cc(C[NH+]2CCCCC2)ccc1OCCBr (nonaromatic ring conformer: 46.24447994040321 kcal/mol)

>  <smiles>  (26) 
COc1cc(CN2CCCCC2)ccc1OCCBr

>  <score_type>  (26) 
oracle

>  <origin>  (26) 
adg

>  <m_score__min__energy>  (26) 
-5.2699999999999996

>  <m_primary>  (26) 
energy

$$$$
26:0
     RDKit          3D

 43 45  0  0  0  0  0  0  0  0999 V2000
   58.8770   34.7510   44.8890 C   0  0  0  0  0  0  0  0  0  0  0  0
   57.6080   34.2410   45.5640 C   0  0  0  0  0  0  0  0  0  0  0  0
   57.9050   33.0460   46.4310 C   0  0  0  0  0  0  0  0  0  0  0  0
   57.5530   33.1000   47.6420 O   0  0  0  0  0  0  0  0  0  0  0  0
   58.6470   31.8960   45.9530 N   0  0  0  0  0  0  0  0  0  0  0  0
   60.0170   31.5790   46.4220 C   0  0  0  0  0  0  0  0  0  0  0  0
   60.4310   32.3830   47.5940 N   0  0  0  0  0  0  0  0  0  0  0  0
   61.5720   33.2300   47.3400 C   0  0  0  0  0  0  0  0  0  0  0  0
   61.5610   34.1790   46.5120 O   0  0  0  0  0  0  0  0  0  0  0  0
   62.6900   32.9230   48.2190 C   0  0  0  0  0  0  0  0  0  0  0  0
   63.9720   33.4660   48.2920 C   0  0  0  0  0  0  0  0  0  0  0  0
   64.8590   32.9370   49.2460 C   0  0  0  0  0  0  0  0  0  0  0  0
   64.4480   31.8860   50.0960 C   0  0  0  0  0  0  0  0  0  0  0  0
   63.1470   31.3600   49.9980 C   0  0  0  0  0  0  0  0  0  0  0  0
   62.2910   31.9100   49.0460 C   0  0  0  0  0  0  0  0  0  0  0  0
   60.9270   31.5670   48.6770 C   0  0  0  0  0  0  0  0  0  0  0  0
   60.2360   30.6850   49.2550 O   0  0  0  0  0  0  0  0  0  0  0  0
   58.0180   31.0290   44.9870 C   0  0  0  0  0  0  0  0  0  0  0  0
   57.5960   31.5610   43.7580 C   0  0  0  0  0  0  0  0  0  0  0  0
   57.0280   30.7400   42.7830 C   0  0  0  0  0  0  0  0  0  0  0  0
   56.6490   31.2630   41.5910 F   0  0  0  0  0  0  0  0  0  0  0  0
   56.8540   29.3780   43.0340 C   0  0  0  0  0  0  0  0  0  0  0  0
   57.2270   28.8410   44.2670 C   0  0  0  0  0  0  0  0  0  0  0  0
   57.7860   29.6580   45.2630 C   0  0  0  0  0  0  0  0  0  0  0  0
   58.1280   29.0430   46.5930 C   0  0  0  0  0  0  0  0  0  0  0  0
   59.6080   35.0448   45.6567 H   0  0  0  0  0  0  0  0  0  0  0  0
   59.3041   33.9547   44.2617 H   0  0  0  0  0  0  0  0  0  0  0  0
   58.6342   35.6214   44.2617 H   0  0  0  0  0  0  0  0  0  0  0  0
   57.1845   35.0422   46.1875 H   0  0  0  0  0  0  0  0  0  0  0  0
   56.8912   33.9414   44.7853 H   0  0  0  0  0  0  0  0  0  0  0  0
   60.0553   30.5145   46.6967 H   0  0  0  0  0  0  0  0  0  0  0  0
   60.7081   31.8178   45.6002 H   0  0  0  0  0  0  0  0  0  0  0  0
   59.6330   32.9650   47.9400 H   0  0  0  0  0  0  0  0  0  0  0  0
   64.2802   34.2834   47.6235 H   0  0  0  0  0  0  0  0  0  0  0  0
   65.8777   33.3433   49.3310 H   0  0  0  0  0  0  0  0  0  0  0  0
   65.1490   31.4768   50.8384 H   0  0  0  0  0  0  0  0  0  0  0  0
   62.8158   30.5402   50.6524 H   0  0  0  0  0  0  0  0  0  0  0  0
   57.7144   32.6368   43.5616 H   0  0  0  0  0  0  0  0  0  0  0  0
   56.4225   28.7273   42.2592 H   0  0  0  0  0  0  0  0  0  0  0  0
   57.0818   27.7679   44.4604 H   0  0  0  0  0  0  0  0  0  0  0  0
   57.7658   29.6943   47.4021 H   0  0  0  0  0  0  0  0  0  0  0  0
   57.6492   28.0561   46.6746 H   0  0  0  0  0  0  0  0  0  0  0  0
   59.2190   28.9291   46.6746 H   0  0  0  0  0  0  0  0  0  0  0  0
  1  2  1  0
  2  3  1  0
  3  4  2  0
  3  5  1  0
  5  6  1  0
  6  7  1  0
  7  8  1  0
  8  9  2  0
  8 10  1  0
 10 11  2  0
 11 12  1  0
 12 13  2  0
 13 14  1  0
 14 15  2  0
 15 16  1  0
 16 17  2  0
  5 18  1  0
 18 19  2  0
 19 20  1  0
 20 21  1  0
 20 22  2  0
 22 23  1  0
 23 24  2  0
 24 25  1  0
 16  7  1  0
 24 18  1  0
 15 10  1  0
  1 26  1  0
  1 27  1  0
  1 28  1  0
  2 29  1  0
  2 30  1  0
  6 31  1  0
  6 32  1  0
  7 33  1  0
 11 34  1  0
 12 35  1  0
 13 36  1  0
 14 37  1  0
 19 38  1  0
 22 39  1  0
 23 40  1  0
 25 41  1  0
 25 42  1  0
 25 43  1  0
M  CHG  1   7   1
M  END
>  <UniqueID>  (27) 
26

>  <SMILES>  (27) 
CCC(=O)N(C[NH+]1C(=O)c2ccccc2C1=O)c1cc(F)ccc1C

>  <Energy>  (27) 
75.8715562595451

>  <Genealogy>  (27) 
CCC(=O)N(C[NH+]1C(=O)c2ccccc2C1=O)c1cc(F)ccc1C (protonated)
CCC(=O)N(C[NH+]1C(=O)c2ccccc2C1=O)c1cc(F)ccc1C (3D coordinates assigned)
CCC(=O)N(C[NH+]1C(=O)c2ccccc2C1=O)c1cc(F)ccc1C (nonaromatic ring conformer: 75.8715562595451 kcal/mol)

>  <smiles>  (27) 
CCC(=O)N(CN1C(=O)c2ccccc2C1=O)c1cc(F)ccc1C

>  <score_type>  (27) 
oracle

>  <origin>  (27) 
adg

>  <m_score__min__energy>  (27) 
-6.8899999999999997

>  <m_primary>  (27) 
energy

$$$$
27:0
     RDKit          3D

 47 49  0  0  0  0  0  0  0  0999 V2000
   64.5454   30.5413   51.3051 H   0  0  0  0  0  0  0  0  0  0  0  0
   63.7340   31.0370   50.7520 C   0  0  0  0  0  0  0  0  0  0  0  0
   64.0820   32.0070   49.6910 C   0  0  0  0  0  0  0  0  0  0  0  0
   65.2900   32.3320   49.5130 O   0  0  0  0  0  0  0  0  0  0  0  0
   63.0280   32.6430   48.9270 N   0  0  0  0  0  0  0  0  0  0  0  0
   62.1720   32.0360   48.9860 H   0  0  0  0  0  0  0  0  0  0  0  0
   62.7050   33.9630   49.5080 C   0  0  0  0  0  0  0  0  0  0  0  0
   63.5256   34.6645   49.2972 H   0  0  0  0  0  0  0  0  0  0  0  0
   62.5750   33.8571   50.5951 H   0  0  0  0  0  0  0  0  0  0  0  0
   61.4030   34.5030   48.8940 C   0  0  0  0  0  0  0  0  0  0  0  0
   61.4096   35.6022   48.9345 H   0  0  0  0  0  0  0  0  0  0  0  0
   60.5464   34.1138   49.4639 H   0  0  0  0  0  0  0  0  0  0  0  0
   61.2890   34.0680   47.4940 N   0  0  0  0  0  0  0  0  0  0  0  0
   59.9970   33.9460   46.8730 C   0  0  0  0  0  0  0  0  0  0  0  0
   59.6910   34.7170   45.7360 C   0  0  0  0  0  0  0  0  0  0  0  0
   60.4336   35.4234   45.3365 H   0  0  0  0  0  0  0  0  0  0  0  0
   58.4470   34.5880   45.1130 C   0  0  0  0  0  0  0  0  0  0  0  0
   58.2242   35.1715   44.2075 H   0  0  0  0  0  0  0  0  0  0  0  0
   57.4860   33.7210   45.6360 C   0  0  0  0  0  0  0  0  0  0  0  0
   56.5085   33.6212   45.1414 H   0  0  0  0  0  0  0  0  0  0  0  0
   57.7640   32.9820   46.7840 C   0  0  0  0  0  0  0  0  0  0  0  0
   56.9985   32.3108   47.2006 H   0  0  0  0  0  0  0  0  0  0  0  0
   59.0200   33.0890   47.4150 C   0  0  0  0  0  0  0  0  0  0  0  0
   59.3240   32.3700   48.5820 O   0  0  0  0  0  0  0  0  0  0  0  0
   58.5020   32.3300   49.7490 C   0  0  0  0  0  0  0  0  0  0  0  0
   58.2369   31.2866   49.9751 H   0  0  0  0  0  0  0  0  0  0  0  0
   57.5852   32.9114   49.5715 H   0  0  0  0  0  0  0  0  0  0  0  0
   59.2600   32.9260   50.9240 C   0  0  0  0  0  0  0  0  0  0  0  0
   58.8126   32.5742   51.8653 H   0  0  0  0  0  0  0  0  0  0  0  0
   60.3131   32.6115   50.8785 H   0  0  0  0  0  0  0  0  0  0  0  0
   59.2028   34.0236   50.8785 H   0  0  0  0  0  0  0  0  0  0  0  0
   62.5180   33.7900   46.7400 C   0  0  0  0  0  0  0  0  0  0  0  0
   63.0866   34.7237   46.6176 H   0  0  0  0  0  0  0  0  0  0  0  0
   62.2466   33.3795   45.7562 H   0  0  0  0  0  0  0  0  0  0  0  0
   63.3920   32.7560   47.4900 C   0  0  0  0  0  0  0  0  0  0  0  0
   64.4455   33.0635   47.4155 H   0  0  0  0  0  0  0  0  0  0  0  0
   63.2250   31.7740   47.0233 H   0  0  0  0  0  0  0  0  0  0  0  0
   62.4680   30.7420   51.0620 C   0  0  0  0  0  0  0  0  0  0  0  0
   62.0990   30.9411   52.0790 H   0  0  0  0  0  0  0  0  0  0  0  0
   61.5600   30.1550   50.0640 C   0  0  0  0  0  0  0  0  0  0  0  0
   61.5190   30.5100   48.8000 O   0  0  0  0  0  0  0  0  0  0  0  0
   60.6280   29.7680   48.1900 C   0  0  0  0  0  0  0  0  0  0  0  0
   60.2380   29.8790   46.3270 Br  0  0  0  0  0  0  0  0  0  0  0  0
   60.0540   28.8810   49.0820 C   0  0  0  0  0  0  0  0  0  0  0  0
   59.2780   28.1315   48.8674 H   0  0  0  0  0  0  0  0  0  0  0  0
   60.6580   29.1320   50.2990 C   0  0  0  0  0  0  0  0  0  0  0  0
   60.4627   28.6246   51.2552 H   0  0  0  0  0  0  0  0  0  0  0  0
  1  2  1  0
  2  3  1  0
  3  4  2  0
  3  5  1  0
  5  6  1  0
  5  7  1  0
  7  8  1  0
  7  9  1  0
  7 10  1  0
 10 11  1  0
 10 12  1  0
 10 13  1  0
 13 14  1  0
 14 15  2  0
 15 16  1  0
 15 17  1  0
 17 18  1  0
 17 19  2  0
 19 20  1  0
 19 21  1  0
 21 22  1  0
 21 23  2  0
 23 24  1  0
 24 25  1  0
 25 26  1  0
 25 27  1  0
 25 28  1  0
 28 29  1  0
 28 30  1  0
 28 31  1  0
 13 32  1  0
 32 33  1  0
 32 34  1  0
 32 35  1  0
 35 36  1  0
 35 37  1  0
  2 38  2  0
 38 39  1  0
 38 40  1  0
 40 41  1  0
 41 42  1  0
 42 43  1  0
 42 44  2  0
 44 45  1  0
 44 46  1  0
 46 47  1  0
 35  5  1  0
 46 40  2  0
 23 14  1  0
M  CHG  1   5   1
M  END
>  <UniqueID>  (28) 
27

>  <SMILES>  (28) 
CCOc1ccccc1N1CC[NH+](C(=O)/C=C/c2ccc(Br)o2)CC1

>  <Energy>  (28) 
81.91183738935425

>  <Genealogy>  (28) 
CCOc1ccccc1N1CC[NH+](C(=O)C=Cc2ccc(Br)o2)CC1 (protonated)
CCOc1ccccc1N1CC[NH+](C(=O)/C=C/c2ccc(Br)o2)CC1 (cis-trans isomerization)
CCOc1ccccc1N1CC[NH+](C(=O)/C=C/c2ccc(Br)o2)CC1 (3D coordinates assigned)
CCOc1ccccc1N1CC[NH+](C(=O)/C=C/c2ccc(Br)o2)CC1 (nonaromatic ring conformer: 81.91183738935425 kcal/mol)

>  <smiles>  (28) 
CCOc1ccccc1N1CCN(C(=O)C=Cc2ccc(Br)o2)CC1

>  <score_type>  (28) 
oracle

>  <origin>  (28) 
adg

>  <m_score__min__energy>  (28) 
-5.5800000000000001

>  <m_primary>  (28) 
energy

$$$$
28:0
     RDKit          3D

 41 43  0  0  0  0  0  0  0  0999 V2000
   57.7008   32.1438   42.9049 H   0  0  0  0  0  0  0  0  0  0  0  0
   57.4380   31.3540   43.6240 C   0  0  0  0  0  0  0  0  0  0  0  0
   56.6910   29.8930   43.2550 S   0  0  0  0  0  0  0  0  0  0  0  0
   56.7020   29.3680   44.8560 C   0  0  0  0  0  0  0  0  0  0  0  0
   56.2410   28.2350   45.2920 N   0  0  0  0  0  0  0  0  0  0  0  0
   56.9500   26.9570   45.2490 C   0  0  0  0  0  0  0  0  0  0  0  0
   56.2532   26.1740   44.9153 H   0  0  0  0  0  0  0  0  0  0  0  0
   57.7946   27.0571   44.5514 H   0  0  0  0  0  0  0  0  0  0  0  0
   57.5110   26.5700   46.6280 C   0  0  0  0  0  0  0  0  0  0  0  0
   56.9206   27.0895   47.3972 H   0  0  0  0  0  0  0  0  0  0  0  0
   57.4402   25.4745   46.6982 H   0  0  0  0  0  0  0  0  0  0  0  0
   58.9350   26.9130   46.8290 N   0  0  0  0  0  0  0  0  0  0  0  0
   59.7290   27.2150   45.6200 C   0  0  0  0  0  0  0  0  0  0  0  0
   60.6691   26.6456   45.6638 H   0  0  0  0  0  0  0  0  0  0  0  0
   59.1261   26.9324   44.7444 H   0  0  0  0  0  0  0  0  0  0  0  0
   60.0630   28.7090   45.4950 C   0  0  0  0  0  0  0  0  0  0  0  0
   60.7959   28.8475   44.6865 H   0  0  0  0  0  0  0  0  0  0  0  0
   59.1362   29.2582   45.2727 H   0  0  0  0  0  0  0  0  0  0  0  0
   60.6040   29.2080   46.6990 O   0  0  0  0  0  0  0  0  0  0  0  0
   59.6160   29.1520   47.7040 C   0  0  0  0  0  0  0  0  0  0  0  0
   59.9936   29.6484   48.6101 H   0  0  0  0  0  0  0  0  0  0  0  0
   58.7111   29.6607   47.3402 H   0  0  0  0  0  0  0  0  0  0  0  0
   59.2650   27.6960   48.0360 C   0  0  0  0  0  0  0  0  0  0  0  0
   60.1262   27.2293   48.5366 H   0  0  0  0  0  0  0  0  0  0  0  0
   58.3786   27.7023   48.6873 H   0  0  0  0  0  0  0  0  0  0  0  0
   57.2630   30.2790   45.6760 N   0  0  0  0  0  0  0  0  0  0  0  0
   57.6670   31.3910   45.0020 C   0  0  0  0  0  0  0  0  0  0  0  0
   58.3460   32.4960   45.7080 C   0  0  0  0  0  0  0  0  0  0  0  0
   59.6020   32.2570   46.8080 S   0  0  0  0  0  0  0  0  0  0  0  0
   59.7930   33.8920   47.1320 C   0  0  0  0  0  0  0  0  0  0  0  0
   60.7450   34.4580   48.1330 C   0  0  0  0  0  0  0  0  0  0  0  0
   60.3811   34.2416   49.1483 H   0  0  0  0  0  0  0  0  0  0  0  0
   61.7367   34.0027   47.9942 H   0  0  0  0  0  0  0  0  0  0  0  0
   60.8187   35.5467   47.9942 H   0  0  0  0  0  0  0  0  0  0  0  0
   58.8940   34.6300   46.4470 N   0  0  0  0  0  0  0  0  0  0  0  0
   58.8190   35.6690   46.5330 H   0  0  0  0  0  0  0  0  0  0  0  0
   58.0780   33.8750   45.6590 C   0  0  0  0  0  0  0  0  0  0  0  0
   56.9830   34.5060   44.8530 C   0  0  0  0  0  0  0  0  0  0  0  0
   56.2320   34.9388   45.5302 H   0  0  0  0  0  0  0  0  0  0  0  0
   57.4052   35.2993   44.2186 H   0  0  0  0  0  0  0  0  0  0  0  0
   56.5083   33.7430   44.2186 H   0  0  0  0  0  0  0  0  0  0  0  0
  1  2  1  0
  2  3  1  0
  3  4  1  0
  4  5  2  0
  5  6  1  0
  6  7  1  0
  6  8  1  0
  6  9  1  0
  9 10  1  0
  9 11  1  0
  9 12  1  0
 12 13  1  0
 13 14  1  0
 13 15  1  0
 13 16  1  0
 16 17  1  0
 16 18  1  0
 16 19  1  0
 19 20  1  0
 20 21  1  0
 20 22  1  0
 20 23  1  0
 23 24  1  0
 23 25  1  0
  4 26  1  0
 26 27  1  0
 27 28  1  0
 28 29  1  0
 29 30  1  0
 30 31  1  0
 31 32  1  0
 31 33  1  0
 31 34  1  0
 30 35  2  0
 35 36  1  0
 35 37  1  0
 37 38  1  0
 38 39  1  0
 38 40  1  0
 38 41  1  0
 27  2  2  0
 37 28  2  0
 23 12  1  0
M  CHG  2  26  -1  35   1
M  END
>  <UniqueID>  (29) 
28

>  <SMILES>  (29) 
Cc1[nH+]c(C)c(-c2cs/c(=N\CCN3CCOCC3)[n-]2)s1

>  <Energy>  (29) 
112.65175892008799

>  <Genealogy>  (29) 
Cc1[nH+]c(C)c(-c2csc(=NCCN3CCOCC3)[n-]2)s1 (protonated)
Cc1[nH+]c(C)c(-c2cs/c(=N\CCN3CCOCC3)[n-]2)s1 (cis-trans isomerization)
Cc1[nH+]c(C)c(-c2cs/c(=N\CCN3CCOCC3)[n-]2)s1 (3D coordinates assigned)
Cc1[nH+]c(C)c(-c2cs/c(=N\CCN3CCOCC3)[n-]2)s1 (nonaromatic ring conformer: 112.65175892008799 kcal/mol)

>  <smiles>  (29) 
Cc1nc(C)c(-c2csc(=NCCN3CCOCC3)[nH]2)s1

>  <score_type>  (29) 
oracle

>  <origin>  (29) 
adg

>  <m_score__min__energy>  (29) 
-7.8600000000000003

>  <m_primary>  (29) 
energy

$$$$
29:0
     RDKit          3D

 39 41  0  0  0  0  0  0  0  0999 V2000
   54.3800   23.7200   46.3750 C   0  0  0  0  0  0  0  0  0  0  0  0
   55.3910   24.6490   45.8390 N   0  0  0  0  0  0  0  0  0  0  0  0
   55.8620   24.1570   44.5340 C   0  0  0  0  0  0  0  0  0  0  0  0
   56.5380   24.7950   46.7640 C   0  0  0  0  0  0  0  0  0  0  0  0
   57.1710   26.1950   46.6730 C   0  0  0  0  0  0  0  0  0  0  0  0
   56.6670   26.9530   45.5240 N   0  0  0  0  0  0  0  0  0  0  0  0
   57.0050   28.3310   45.2800 C   0  0  0  0  0  0  0  0  0  0  0  0
   56.6670   28.9760   44.0790 C   0  0  0  0  0  0  0  0  0  0  0  0
   57.0070   30.3160   43.8690 C   0  0  0  0  0  0  0  0  0  0  0  0
   57.6970   31.0600   44.8520 C   0  0  0  0  0  0  0  0  0  0  0  0
   58.0290   32.4300   44.6050 C   0  0  0  0  0  0  0  0  0  0  0  0
   57.6840   32.9260   43.4960 O   0  0  0  0  0  0  0  0  0  0  0  0
   58.7250   33.2800   45.5240 C   0  0  0  0  0  0  0  0  0  0  0  0
   59.0000   34.6230   45.1700 C   0  0  0  0  0  0  0  0  0  0  0  0
   59.6770   35.4760   46.0470 C   0  0  0  0  0  0  0  0  0  0  0  0
   60.0950   35.0140   47.2940 C   0  0  0  0  0  0  0  0  0  0  0  0
   59.8390   33.6960   47.6700 C   0  0  0  0  0  0  0  0  0  0  0  0
   59.1620   32.8390   46.7950 C   0  0  0  0  0  0  0  0  0  0  0  0
   58.8530   31.2490   47.2480 S   0  0  0  0  0  0  0  0  0  0  0  0
   58.0300   30.3950   46.0540 C   0  0  0  0  0  0  0  0  0  0  0  0
   57.6900   29.0550   46.2630 C   0  0  0  0  0  0  0  0  0  0  0  0
   54.4062   23.7441   47.4744 H   0  0  0  0  0  0  0  0  0  0  0  0
   53.3819   24.0226   46.0253 H   0  0  0  0  0  0  0  0  0  0  0  0
   54.5973   22.7000   46.0253 H   0  0  0  0  0  0  0  0  0  0  0  0
   56.6151   23.3703   44.6888 H   0  0  0  0  0  0  0  0  0  0  0  0
   55.0126   23.7454   43.9690 H   0  0  0  0  0  0  0  0  0  0  0  0
   56.3102   24.9876   43.9690 H   0  0  0  0  0  0  0  0  0  0  0  0
   56.1885   24.6285   47.7936 H   0  0  0  0  0  0  0  0  0  0  0  0
   57.3016   24.0554   46.4812 H   0  0  0  0  0  0  0  0  0  0  0  0
   56.9388   26.7501   47.5939 H   0  0  0  0  0  0  0  0  0  0  0  0
   58.2564   26.0691   46.5467 H   0  0  0  0  0  0  0  0  0  0  0  0
   56.0270   26.4800   44.8450 H   0  0  0  0  0  0  0  0  0  0  0  0
   56.1294   28.4215   43.2957 H   0  0  0  0  0  0  0  0  0  0  0  0
   56.7320   30.8001   42.9203 H   0  0  0  0  0  0  0  0  0  0  0  0
   58.6759   35.0014   44.1893 H   0  0  0  0  0  0  0  0  0  0  0  0
   59.8806   36.5159   45.7517 H   0  0  0  0  0  0  0  0  0  0  0  0
   60.6265   35.6889   47.9810 H   0  0  0  0  0  0  0  0  0  0  0  0
   60.1689   33.3301   48.6535 H   0  0  0  0  0  0  0  0  0  0  0  0
   57.9634   28.5649   47.2091 H   0  0  0  0  0  0  0  0  0  0  0  0
  1  2  1  0
  2  3  1  0
  2  4  1  0
  4  5  1  0
  5  6  1  0
  6  7  1  0
  7  8  2  0
  8  9  1  0
  9 10  2  0
 10 11  1  0
 11 12  2  0
 11 13  1  0
 13 14  2  0
 14 15  1  0
 15 16  2  0
 16 17  1  0
 17 18  2  0
 18 19  1  0
 19 20  1  0
 20 21  2  0
 21  7  1  0
 20 10  1  0
 18 13  1  0
  1 22  1  0
  1 23  1  0
  1 24  1  0
  3 25  1  0
  3 26  1  0
  3 27  1  0
  4 28  1  0
  4 29  1  0
  5 30  1  0
  5 31  1  0
  6 32  1  0
  8 33  1  0
  9 34  1  0
 14 35  1  0
 15 36  1  0
 16 37  1  0
 17 38  1  0
 21 39  1  0
M  END
>  <UniqueID>  (30) 
29

>  <SMILES>  (30) 
CN(C)CCNc1ccc2c(=O)c3ccccc3sc2c1

>  <Energy>  (30) 
53.169697435676866

>  <Genealogy>  (30) 
CN(C)CCNc1ccc2c(=O)c3ccccc3sc2c1 (3D coordinates assigned)
CN(C)CCNc1ccc2c(=O)c3ccccc3sc2c1 (optimized conformer: 53.169697435676866 kcal/mol)

>  <smiles>  (30) 
CN(C)CCNc1ccc2c(=O)c3ccccc3sc2c1

>  <score_type>  (30) 
oracle

>  <origin>  (30) 
adg

>  <m_score__min__energy>  (30) 
-7.21

>  <m_primary>  (30) 
energy

$$$$
30:0
     RDKit          3D

 35 36  0  0  0  0  0  0  0  0999 V2000
   56.4583   34.3692   44.3786 H   0  0  0  0  0  0  0  0  0  0  0  0
   57.3990   34.0330   44.8390 C   0  0  0  0  0  0  0  0  0  0  0  0
   58.4430   34.9300   45.0110 C   0  0  0  0  0  0  0  0  0  0  0  0
   58.3349   35.9701   44.6697 H   0  0  0  0  0  0  0  0  0  0  0  0
   59.6260   34.5170   45.6140 C   0  0  0  0  0  0  0  0  0  0  0  0
   60.4414   35.2425   45.7509 H   0  0  0  0  0  0  0  0  0  0  0  0
   59.8040   33.1890   46.0540 C   0  0  0  0  0  0  0  0  0  0  0  0
   58.7390   32.2370   45.8260 C   0  0  0  0  0  0  0  0  0  0  0  0
   58.8580   30.8710   46.1910 C   0  0  0  0  0  0  0  0  0  0  0  0
   57.8730   29.8160   45.8720 C   0  0  0  0  0  0  0  0  0  0  0  0
   58.0600   28.6300   46.2590 O   0  0  0  0  0  0  0  0  0  0  0  0
   56.6910   30.1650   45.2080 O   0  0  0  0  0  0  0  0  0  0  0  0
   56.2790   29.5780   43.9750 C   0  0  0  0  0  0  0  0  0  0  0  0
   55.1876   29.4411   43.9867 H   0  0  0  0  0  0  0  0  0  0  0  0
   56.7832   28.6073   43.8585 H   0  0  0  0  0  0  0  0  0  0  0  0
   56.6590   30.4730   42.8010 C   0  0  0  0  0  0  0  0  0  0  0  0
   57.0626   31.4235   43.1801 H   0  0  0  0  0  0  0  0  0  0  0  0
   57.4210   29.9697   42.1878 H   0  0  0  0  0  0  0  0  0  0  0  0
   55.7676   30.6717   42.1878 H   0  0  0  0  0  0  0  0  0  0  0  0
   60.2460   30.4040   47.0170 S   0  0  0  0  0  0  0  0  0  0  0  0
   61.3160   31.6770   47.2230 C   0  0  0  0  0  0  0  0  0  0  0  0
   62.4410   31.4560   47.8420 N   0  0  0  0  0  0  0  0  0  0  0  0
   63.5130   32.3880   48.0390 C   0  0  0  0  0  0  0  0  0  0  0  0
   63.7880   33.2080   47.1250 O   0  0  0  0  0  0  0  0  0  0  0  0
   64.3910   32.3200   49.2600 C   0  0  0  0  0  0  0  0  0  0  0  0
   64.2391   31.3520   49.7598 H   0  0  0  0  0  0  0  0  0  0  0  0
   65.4397   32.4289   48.9464 H   0  0  0  0  0  0  0  0  0  0  0  0
   64.0530   33.4440   50.2340 C   0  0  0  0  0  0  0  0  0  0  0  0
   64.1625   33.0800   51.2662 H   0  0  0  0  0  0  0  0  0  0  0  0
   64.7365   34.2900   50.0691 H   0  0  0  0  0  0  0  0  0  0  0  0
   63.0163   33.7727   50.0691 H   0  0  0  0  0  0  0  0  0  0  0  0
   60.9910   32.8880   46.6860 N   0  0  0  0  0  0  0  0  0  0  0  0
   61.7020   33.6510   46.7420 H   0  0  0  0  0  0  0  0  0  0  0  0
   57.5370   32.7080   45.2470 C   0  0  0  0  0  0  0  0  0  0  0  0
   56.6939   32.0136   45.1163 H   0  0  0  0  0  0  0  0  0  0  0  0
  1  2  1  0
  2  3  1  0
  3  4  1  0
  3  5  2  0
  5  6  1  0
  5  7  1  0
  7  8  1  0
  8  9  2  0
  9 10  1  0
 10 11  2  0
 10 12  1  0
 12 13  1  0
 13 14  1  0
 13 15  1  0
 13 16  1  0
 16 17  1  0
 16 18  1  0
 16 19  1  0
  9 20  1  0
 20 21  1  0
 21 22  2  0
 22 23  1  0
 23 24  2  0
 23 25  1  0
 25 26  1  0
 25 27  1  0
 25 28  1  0
 28 29  1  0
 28 30  1  0
 28 31  1  0
 21 32  1  0
 32 33  1  0
  8 34  1  0
 34 35  1  0
 34  2  2  0
 32  7  2  0
M  CHG  1  32   1
M  END
>  <UniqueID>  (31) 
30

>  <SMILES>  (31) 
CCOC(=O)c1s/c(=N/C(=O)CC)[nH+]c2ccccc12

>  <Energy>  (31) 
50.944217950976416

>  <Genealogy>  (31) 
CCOC(=O)c1sc(=NC(=O)CC)[nH+]c2ccccc12 (protonated)
CCOC(=O)c1s/c(=N/C(=O)CC)[nH+]c2ccccc12 (cis-trans isomerization)
CCOC(=O)c1s/c(=N/C(=O)CC)[nH+]c2ccccc12 (3D coordinates assigned)
CCOC(=O)c1s/c(=N/C(=O)CC)[nH+]c2ccccc12 (optimized conformer: 50.944217950976416 kcal/mol)

>  <smiles>  (31) 
CCOC(=O)c1sc(=NC(=O)CC)nc2ccccc12

>  <score_type>  (31) 
oracle

>  <origin>  (31) 
adg

>  <m_score__min__energy>  (31) 
-5.2000000000000002

>  <m_primary>  (31) 
energy

$$$$
31:0
     RDKit          3D

 55 57  0  0  0  0  0  0  0  0999 V2000
   57.7690   26.1460   43.1890 C   0  0  0  0  0  0  0  0  0  0  0  0
   57.6110   24.8430   43.9710 C   0  0  0  0  0  0  0  0  0  0  0  0
   56.1430   24.4260   44.1600 C   0  0  0  0  0  0  0  0  0  0  0  0
   55.5610   24.8350   45.5220 C   0  0  0  0  0  0  0  0  0  0  0  0
   55.5630   26.2530   45.6920 O   0  0  0  0  0  0  0  0  0  0  0  0
   56.6420   27.0210   46.1600 C   0  0  0  0  0  0  0  0  0  0  0  0
   57.5000   26.5830   47.1870 C   0  0  0  0  0  0  0  0  0  0  0  0
   58.5630   27.3870   47.6090 C   0  0  0  0  0  0  0  0  0  0  0  0
   58.7870   28.6400   47.0150 C   0  0  0  0  0  0  0  0  0  0  0  0
   59.8770   29.4720   47.4570 N   0  0  0  0  0  0  0  0  0  0  0  0
   60.8210   30.0190   46.4710 C   0  0  0  0  0  0  0  0  0  0  0  0
   61.8040   31.0110   47.1090 C   0  0  0  0  0  0  0  0  0  0  0  0
   61.1010   31.9160   48.0350 N   0  0  0  0  0  0  0  0  0  0  0  0
   61.4860   33.3070   48.1130 C   0  0  0  0  0  0  0  0  0  0  0  0
   62.5380   33.7020   47.5390 O   0  0  0  0  0  0  0  0  0  0  0  0
   60.6730   34.2950   48.9040 C   0  0  0  0  0  0  0  0  0  0  0  0
   59.5090   34.6780   48.1730 O   0  0  0  0  0  0  0  0  0  0  0  0
   59.1280   34.1250   46.9420 C   0  0  0  0  0  0  0  0  0  0  0  0
   59.6000   34.6230   45.7110 C   0  0  0  0  0  0  0  0  0  0  0  0
   59.1880   34.0350   44.5110 C   0  0  0  0  0  0  0  0  0  0  0  0
   58.3060   32.9490   44.5260 C   0  0  0  0  0  0  0  0  0  0  0  0
   57.7460   32.1490   42.8860 Br  0  0  0  0  0  0  0  0  0  0  0  0
   57.8360   32.4510   45.7460 C   0  0  0  0  0  0  0  0  0  0  0  0
   58.2450   33.0380   46.9470 C   0  0  0  0  0  0  0  0  0  0  0  0
   60.1110   31.3720   48.9810 C   0  0  0  0  0  0  0  0  0  0  0  0
   60.0030   29.8500   48.8690 C   0  0  0  0  0  0  0  0  0  0  0  0
   57.9220   29.0800   46.0000 C   0  0  0  0  0  0  0  0  0  0  0  0
   56.8610   28.2740   45.5780 C   0  0  0  0  0  0  0  0  0  0  0  0
   57.8708   26.9857   43.8923 H   0  0  0  0  0  0  0  0  0  0  0  0
   58.6666   26.0871   42.5559 H   0  0  0  0  0  0  0  0  0  0  0  0
   56.8834   26.3033   42.5559 H   0  0  0  0  0  0  0  0  0  0  0  0
   58.1348   24.0429   43.4274 H   0  0  0  0  0  0  0  0  0  0  0  0
   58.0361   25.0081   44.9720 H   0  0  0  0  0  0  0  0  0  0  0  0
   55.5422   24.8979   43.3686 H   0  0  0  0  0  0  0  0  0  0  0  0
   56.1093   23.3277   44.1100 H   0  0  0  0  0  0  0  0  0  0  0  0
   54.5261   24.4689   45.5921 H   0  0  0  0  0  0  0  0  0  0  0  0
   56.1889   24.3939   46.3101 H   0  0  0  0  0  0  0  0  0  0  0  0
   57.3331   25.6037   47.6594 H   0  0  0  0  0  0  0  0  0  0  0  0
   59.2284   27.0360   48.4115 H   0  0  0  0  0  0  0  0  0  0  0  0
   61.3908   29.1899   46.0262 H   0  0  0  0  0  0  0  0  0  0  0  0
   60.2417   30.5571   45.7062 H   0  0  0  0  0  0  0  0  0  0  0  0
   62.5724   30.4523   47.6635 H   0  0  0  0  0  0  0  0  0  0  0  0
   62.2692   31.6105   46.3126 H   0  0  0  0  0  0  0  0  0  0  0  0
   60.3685   33.8348   49.8556 H   0  0  0  0  0  0  0  0  0  0  0  0
   61.2847   35.1889   49.0958 H   0  0  0  0  0  0  0  0  0  0  0  0
   60.2941   35.4762   45.6941 H   0  0  0  0  0  0  0  0  0  0  0  0
   59.5584   34.4274   43.5525 H   0  0  0  0  0  0  0  0  0  0  0  0
   57.1436   31.5963   45.7602 H   0  0  0  0  0  0  0  0  0  0  0  0
   57.8705   32.6432   47.9030 H   0  0  0  0  0  0  0  0  0  0  0  0
   60.4144   31.6340   50.0053 H   0  0  0  0  0  0  0  0  0  0  0  0
   59.1294   31.8055   48.7393 H   0  0  0  0  0  0  0  0  0  0  0  0
   60.9053   29.3860   49.2938 H   0  0  0  0  0  0  0  0  0  0  0  0
   59.1177   29.5032   49.4222 H   0  0  0  0  0  0  0  0  0  0  0  0
   58.0803   30.0641   45.5347 H   0  0  0  0  0  0  0  0  0  0  0  0
   56.1916   28.6285   44.7804 H   0  0  0  0  0  0  0  0  0  0  0  0
  1  2  1  0
  2  3  1  0
  3  4  1  0
  4  5  1  0
  5  6  1  0
  6  7  2  0
  7  8  1  0
  8  9  2  0
  9 10  1  0
 10 11  1  0
 11 12  1  0
 12 13  1  0
 13 14  1  0
 14 15  2  0
 14 16  1  0
 16 17  1  0
 17 18  1  0
 18 19  2  0
 19 20  1  0
 20 21  2  0
 21 22  1  0
 21 23  1  0
 23 24  2  0
 13 25  1  0
 25 26  1  0
  9 27  1  0
 27 28  2  0
 28  6  1  0
 26 10  1  0
 24 18  1  0
  1 29  1  0
  1 30  1  0
  1 31  1  0
  2 32  1  0
  2 33  1  0
  3 34  1  0
  3 35  1  0
  4 36  1  0
  4 37  1  0
  7 38  1  0
  8 39  1  0
 11 40  1  0
 11 41  1  0
 12 42  1  0
 12 43  1  0
 16 44  1  0
 16 45  1  0
 19 46  1  0
 20 47  1  0
 23 48  1  0
 24 49  1  0
 25 50  1  0
 25 51  1  0
 26 52  1  0
 26 53  1  0
 27 54  1  0
 28 55  1  0
M  END
>  <UniqueID>  (32) 
31

>  <SMILES>  (32) 
CCCCOc1ccc(N2CCN(C(=O)COc3ccc(Br)cc3)CC2)cc1

>  <Energy>  (32) 
55.03715639500221

>  <Genealogy>  (32) 
CCCCOc1ccc(N2CCN(C(=O)COc3ccc(Br)cc3)CC2)cc1 (3D coordinates assigned)
CCCCOc1ccc(N2CCN(C(=O)COc3ccc(Br)cc3)CC2)cc1 (nonaromatic ring conformer: 55.03715639500221 kcal/mol)

>  <smiles>  (32) 
CCCCOc1ccc(N2CCN(C(=O)COc3ccc(Br)cc3)CC2)cc1

>  <score_type>  (32) 
oracle

>  <origin>  (32) 
adg

>  <m_score__min__energy>  (32) 
-7.7400000000000002

>  <m_primary>  (32) 
energy

$$$$
32:0
     RDKit          3D

 41 42  0  0  0  0  0  0  0  0999 V2000
   59.3920   28.5760   45.1697 H   0  0  0  0  0  0  0  0  0  0  0  0
   58.5000   29.2140   45.0850 C   0  0  0  0  0  0  0  0  0  0  0  0
   57.2200   28.6560   45.1750 C   0  0  0  0  0  0  0  0  0  0  0  0
   57.0280   27.1770   45.3610 C   0  0  0  0  0  0  0  0  0  0  0  0
   56.6183   26.7516   44.4330 H   0  0  0  0  0  0  0  0  0  0  0  0
   56.3377   27.0250   46.2039 H   0  0  0  0  0  0  0  0  0  0  0  0
   58.3490   26.4680   45.6920 C   0  0  0  0  0  0  0  0  0  0  0  0
   59.1521   26.9190   45.0907 H   0  0  0  0  0  0  0  0  0  0  0  0
   58.2231   25.3999   45.4609 H   0  0  0  0  0  0  0  0  0  0  0  0
   58.7190   26.5840   47.1710 C   0  0  0  0  0  0  0  0  0  0  0  0
   57.8505   26.3117   47.7887 H   0  0  0  0  0  0  0  0  0  0  0  0
   59.5550   25.9049   47.3942 H   0  0  0  0  0  0  0  0  0  0  0  0
   59.0177   27.6189   47.3942 H   0  0  0  0  0  0  0  0  0  0  0  0
   56.1360   29.4680   45.0530 N   0  0  0  0  0  0  0  0  0  0  0  0
   56.2650   30.7820   44.8640 N   0  0  0  0  0  0  0  0  0  0  0  0
   57.4870   31.3770   44.7850 C   0  0  0  0  0  0  0  0  0  0  0  0
   57.6090   32.6570   44.5810 N   0  0  0  0  0  0  0  0  0  0  0  0
   58.3330   33.5960   45.3900 C   0  0  0  0  0  0  0  0  0  0  0  0
   58.9310   34.7420   44.9040 C   0  0  0  0  0  0  0  0  0  0  0  0
   58.8843   35.1449   43.8815 H   0  0  0  0  0  0  0  0  0  0  0  0
   59.6020   35.2690   45.9930 C   0  0  0  0  0  0  0  0  0  0  0  0
   60.1954   36.1952   45.9938 H   0  0  0  0  0  0  0  0  0  0  0  0
   59.4080   34.4590   47.0530 N   0  0  0  0  0  0  0  0  0  0  0  0
   60.0380   34.5930   48.3630 C   0  0  0  0  0  0  0  0  0  0  0  0
   60.6171   35.5278   48.3918 H   0  0  0  0  0  0  0  0  0  0  0  0
   59.2537   34.6077   49.1341 H   0  0  0  0  0  0  0  0  0  0  0  0
   60.9730   33.4140   48.6330 C   0  0  0  0  0  0  0  0  0  0  0  0
   61.9506   33.6098   48.1683 H   0  0  0  0  0  0  0  0  0  0  0  0
   61.0960   33.2903   49.7191 H   0  0  0  0  0  0  0  0  0  0  0  0
   60.4230   32.2290   48.0880 O   0  0  0  0  0  0  0  0  0  0  0  0
   61.4110   31.4820   47.4130 C   0  0  0  0  0  0  0  0  0  0  0  0
   61.5092   30.4924   47.8831 H   0  0  0  0  0  0  0  0  0  0  0  0
   61.1234   31.3566   46.3587 H   0  0  0  0  0  0  0  0  0  0  0  0
   62.7380   32.2180   47.4960 C   0  0  0  0  0  0  0  0  0  0  0  0
   63.0086   32.3681   48.5516 H   0  0  0  0  0  0  0  0  0  0  0  0
   63.5186   31.6239   46.9983 H   0  0  0  0  0  0  0  0  0  0  0  0
   62.6473   33.1947   46.9983 H   0  0  0  0  0  0  0  0  0  0  0  0
   58.6520   33.4330   46.6910 N   0  0  0  0  0  0  0  0  0  0  0  0
   58.4290   32.6220   47.3080 H   0  0  0  0  0  0  0  0  0  0  0  0
   58.6320   30.5860   44.8870 C   0  0  0  0  0  0  0  0  0  0  0  0
   59.6301   31.0422   44.8117 H   0  0  0  0  0  0  0  0  0  0  0  0
  1  2  1  0
  2  3  1  0
  3  4  1  0
  4  5  1  0
  4  6  1  0
  4  7  1  0
  7  8  1  0
  7  9  1  0
  7 10  1  0
 10 11  1  0
 10 12  1  0
 10 13  1  0
  3 14  2  0
 14 15  1  0
 15 16  1  0
 16 17  2  0
 17 18  1  0
 18 19  1  0
 19 20  1  0
 19 21  2  0
 21 22  1  0
 21 23  1  0
 23 24  1  0
 24 25  1  0
 24 26  1  0
 24 27  1  0
 27 28  1  0
 27 29  1  0
 27 30  1  0
 30 31  1  0
 31 32  1  0
 31 33  1  0
 31 34  1  0
 34 35  1  0
 34 36  1  0
 34 37  1  0
 23 38  1  0
 38 39  1  0
 16 40  1  0
 40 41  1  0
 40  2  2  0
 38 18  2  0
M  CHG  2  15  -1  38   1
M  END
>  <UniqueID>  (33) 
32

>  <SMILES>  (33) 
CCCc1cc/c(=N/c2ccn(CCOCC)[nH+]2)[n-]n1

>  <Energy>  (33) 
67.11291523475666

>  <Genealogy>  (33) 
CCCc1ccc(=Nc2ccn(CCOCC)[nH+]2)[n-]n1 (protonated)
CCCc1cc/c(=N/c2ccn(CCOCC)[nH+]2)[n-]n1 (cis-trans isomerization)
CCCc1cc/c(=N/c2ccn(CCOCC)[nH+]2)[n-]n1 (3D coordinates assigned)
CCCc1cc/c(=N/c2ccn(CCOCC)[nH+]2)[n-]n1 (optimized conformer: 67.11291523475666 kcal/mol)

>  <smiles>  (33) 
CCCc1ccc(=Nc2ccn(CCOCC)n2)[nH]n1

>  <score_type>  (33) 
oracle

>  <origin>  (33) 
adg

>  <m_score__min__energy>  (33) 
-5.9699999999999998

>  <m_primary>  (33) 
energy

$$$$
33:0
     RDKit          3D

 34 36  0  0  1  0  0  0  0  0999 V2000
   57.4420   25.1250   47.0070 C   0  0  0  0  0  0  0  0  0  0  0  0
   57.4720   26.1790   45.9740 C   0  0  0  0  0  0  0  0  0  0  0  0
   57.7870   25.9390   44.6480 C   0  0  0  0  0  0  0  0  0  0  0  0
   57.7920   26.9890   43.7370 C   0  0  0  0  0  0  0  0  0  0  0  0
   58.1350   26.7270   42.2950 C   0  0  0  0  0  0  0  0  0  0  0  0
   57.4910   28.2610   44.1280 N   0  0  0  0  0  0  0  0  0  0  0  0
   57.4230   29.4220   43.4810 N   0  0  0  0  0  0  0  0  0  0  0  0
   57.0730   30.3370   44.4120 C   0  0  0  0  0  0  0  0  0  0  0  0
   56.8850   31.6200   44.2390 N   0  0  0  0  0  0  0  0  0  0  0  0
   58.0300   32.4860   43.9190 C   0  0  0  0  0  0  0  0  0  0  0  0
   58.4480   33.1720   45.1540 C   0  0  0  0  0  0  0  0  0  0  0  0
   59.0150   34.4490   45.1340 C   0  0  0  0  0  0  0  0  0  0  0  0
   59.3870   35.0370   46.3460 C   0  0  0  0  0  0  0  0  0  0  0  0
   59.1930   34.3580   47.5530 C   0  0  0  0  0  0  0  0  0  0  0  0
   58.6290   33.0940   47.5440 C   0  0  0  0  0  0  0  0  0  0  0  0
   58.2590   32.5060   46.3500 C   0  0  0  0  0  0  0  0  0  0  0  0
   56.9290   29.7390   45.6140 N   0  0  0  0  0  0  0  0  0  0  0  0
   57.1940   28.4340   45.4290 C   0  0  0  0  0  0  0  0  0  0  0  0
   57.1830   27.4300   46.3260 N   0  0  0  0  0  0  0  0  0  0  0  0
   57.4552   25.5887   48.0044 H   0  0  0  0  0  0  0  0  0  0  0  0
   56.5264   24.5260   46.8932 H   0  0  0  0  0  0  0  0  0  0  0  0
   58.3220   24.4749   46.8932 H   0  0  0  0  0  0  0  0  0  0  0  0
   58.0329   24.9197   44.3156 H   0  0  0  0  0  0  0  0  0  0  0  0
   59.0081   26.0601   42.2411 H   0  0  0  0  0  0  0  0  0  0  0  0
   57.2786   26.2510   41.7950 H   0  0  0  0  0  0  0  0  0  0  0  0
   58.3690   27.6785   41.7950 H   0  0  0  0  0  0  0  0  0  0  0  0
   57.6010   29.5910   42.4740 H   0  0  0  0  0  0  0  0  0  0  0  0
   58.8604   31.8773   43.5319 H   0  0  0  0  0  0  0  0  0  0  0  0
   57.7467   33.2225   43.1526 H   0  0  0  0  0  0  0  0  0  0  0  0
   59.1656   34.9810   44.1830 H   0  0  0  0  0  0  0  0  0  0  0  0
   59.8357   36.0413   46.3506 H   0  0  0  0  0  0  0  0  0  0  0  0
   59.4869   34.8258   48.5042 H   0  0  0  0  0  0  0  0  0  0  0  0
   58.4749   32.5558   48.4909 H   0  0  0  0  0  0  0  0  0  0  0  0
   57.8111   31.5013   46.3512 H   0  0  0  0  0  0  0  0  0  0  0  0
  1  2  1  0
  2  3  1  0
  3  4  2  0
  4  5  1  0
  4  6  1  0
  6  7  1  0
  7  8  1  0
  8  9  2  0
  9 10  1  0
 10 11  1  0
 11 12  2  0
 12 13  1  0
 13 14  2  0
 14 15  1  0
 15 16  2  0
  8 17  1  0
 17 18  2  0
 18 19  1  0
 19  2  2  0
 18  6  1  0
 16 11  1  0
  1 20  1  0
  1 21  1  0
  1 22  1  0
  3 23  1  0
  5 24  1  0
  5 25  1  0
  5 26  1  0
  7 27  1  0
 10 28  1  0
 10 29  1  0
 12 30  1  0
 13 31  1  0
 14 32  1  0
 15 33  1  0
 16 34  1  0
M  END
>  <smiles>  (34) 
Cc1cc(C)n2[nH]c(=NCc3ccccc3)nc2n1

>  <score_type>  (34) 
oracle

>  <origin>  (34) 
adg

>  <m_score__min__energy>  (34) 
-7.3600000000000003

>  <m_primary>  (34) 
energy

$$$$
34:0
     RDKit          3D

 39 41  0  0  0  0  0  0  0  0999 V2000
   55.5430   30.0530   43.7060 C   0  0  0  0  0  0  0  0  0  0  0  0
   55.4010   29.3230   44.9040 O   0  0  0  0  0  0  0  0  0  0  0  0
   56.5890   28.6090   45.1920 C   0  0  0  0  0  0  0  0  0  0  0  0
   57.5140   28.6100   43.9720 C   0  0  0  0  0  0  0  0  0  0  0  0
   58.5980   29.5760   44.1440 N   0  0  0  0  0  0  0  0  0  0  0  0
   58.8590   30.1970   45.4140 C   0  0  0  0  0  0  0  0  0  0  0  0
   58.5220   31.5460   45.6190 C   0  0  0  0  0  0  0  0  0  0  0  0
   57.8470   32.2810   44.6230 C   0  0  0  0  0  0  0  0  0  0  0  0
   57.4820   33.6070   44.8420 C   0  0  0  0  0  0  0  0  0  0  0  0
   57.7690   34.2160   46.0580 C   0  0  0  0  0  0  0  0  0  0  0  0
   58.4460   33.5120   47.0540 C   0  0  0  0  0  0  0  0  0  0  0  0
   58.8670   32.1730   46.8470 C   0  0  0  0  0  0  0  0  0  0  0  0
   59.5850   31.4780   47.8020 N   0  0  0  0  0  0  0  0  0  0  0  0
   60.1980   32.2020   48.9380 C   0  0  0  0  0  0  0  0  0  0  0  0
   59.7410   30.1090   47.6880 C   0  0  0  0  0  0  0  0  0  0  0  0
   60.2170   29.3180   48.7660 C   0  0  0  0  0  0  0  0  0  0  0  0
   60.3930   27.9420   48.6270 C   0  0  0  0  0  0  0  0  0  0  0  0
   60.0810   27.3140   47.4270 C   0  0  0  0  0  0  0  0  0  0  0  0
   59.5790   28.0570   46.3610 C   0  0  0  0  0  0  0  0  0  0  0  0
   59.4010   29.4520   46.4750 C   0  0  0  0  0  0  0  0  0  0  0  0
   55.7482   31.1077   43.9415 H   0  0  0  0  0  0  0  0  0  0  0  0
   56.3774   29.6389   43.1210 H   0  0  0  0  0  0  0  0  0  0  0  0
   54.6142   29.9819   43.1210 H   0  0  0  0  0  0  0  0  0  0  0  0
   57.1037   29.0862   46.0389 H   0  0  0  0  0  0  0  0  0  0  0  0
   56.3313   27.5704   45.4468 H   0  0  0  0  0  0  0  0  0  0  0  0
   57.9431   27.6053   43.8438 H   0  0  0  0  0  0  0  0  0  0  0  0
   56.9278   28.8917   43.0849 H   0  0  0  0  0  0  0  0  0  0  0  0
   59.2320   29.7810   43.3400 H   0  0  0  0  0  0  0  0  0  0  0  0
   57.6061   31.8019   43.6626 H   0  0  0  0  0  0  0  0  0  0  0  0
   56.9662   34.1728   44.0521 H   0  0  0  0  0  0  0  0  0  0  0  0
   57.4611   35.2570   46.2356 H   0  0  0  0  0  0  0  0  0  0  0  0
   58.6569   34.0030   48.0155 H   0  0  0  0  0  0  0  0  0  0  0  0
   59.8355   31.7738   49.8842 H   0  0  0  0  0  0  0  0  0  0  0  0
   61.2925   32.1048   48.8871 H   0  0  0  0  0  0  0  0  0  0  0  0
   59.9216   33.2655   48.8871 H   0  0  0  0  0  0  0  0  0  0  0  0
   60.4510   29.7987   49.7273 H   0  0  0  0  0  0  0  0  0  0  0  0
   60.7802   27.3512   49.4702 H   0  0  0  0  0  0  0  0  0  0  0  0
   60.2306   26.2296   47.3190 H   0  0  0  0  0  0  0  0  0  0  0  0
   59.3185   27.5505   45.4199 H   0  0  0  0  0  0  0  0  0  0  0  0
  1  2  1  0
  2  3  1  0
  3  4  1  0
  4  5  1  0
  5  6  1  0
  6  7  2  0
  7  8  1  0
  8  9  2  0
  9 10  1  0
 10 11  2  0
 11 12  1  0
 12 13  2  0
 13 14  1  0
 13 15  1  0
 15 16  2  0
 16 17  1  0
 17 18  2  0
 18 19  1  0
 19 20  2  0
 20  6  1  0
 12  7  1  0
 20 15  1  0
  1 21  1  0
  1 22  1  0
  1 23  1  0
  3 24  1  0
  3 25  1  0
  4 26  1  0
  4 27  1  0
  5 28  1  0
  8 29  1  0
  9 30  1  0
 10 31  1  0
 11 32  1  0
 14 33  1  0
 14 34  1  0
 14 35  1  0
 16 36  1  0
 17 37  1  0
 18 38  1  0
 19 39  1  0
M  CHG  1  13   1
M  END
>  <UniqueID>  (35) 
33

>  <SMILES>  (35) 
COCCNc1c2ccccc2[n+](C)c2ccccc12

>  <Energy>  (35) 
66.70721186920352

>  <Genealogy>  (35) 
COCCNc1c2ccccc2[n+](C)c2ccccc12 (3D coordinates assigned)
COCCNc1c2ccccc2[n+](C)c2ccccc12 (optimized conformer: 66.70721186920352 kcal/mol)

>  <smiles>  (35) 
COCCNc1c2ccccc2[n+](C)c2ccccc12

>  <score_type>  (35) 
oracle

>  <origin>  (35) 
adg

>  <m_score__min__energy>  (35) 
-5.5

>  <m_primary>  (35) 
energy

$$$$
35:0
     RDKit          3D

 49 52  0  0  0  0  0  0  0  0999 V2000
   62.9920   34.0160   48.9370 C   0  0  0  0  0  0  0  0  0  0  0  0
   62.7920   33.3060   47.6640 N   0  0  0  0  0  0  0  0  0  0  0  0
   63.3810   34.0300   46.5290 C   0  0  0  0  0  0  0  0  0  0  0  0
   63.1260   31.8620   47.7130 C   0  0  0  0  0  0  0  0  0  0  0  0
   62.0010   30.9120   48.1940 C   0  0  0  0  0  0  0  0  0  0  0  0
   60.7090   31.5960   48.3780 N   0  0  0  0  0  0  0  0  0  0  0  0
   59.9250   31.5280   47.1590 C   0  0  0  0  0  0  0  0  0  0  0  0
   59.4900   30.2880   46.6780 C   0  0  0  0  0  0  0  0  0  0  0  0
   58.7070   30.1950   45.5420 C   0  0  0  0  0  0  0  0  0  0  0  0
   58.2190   31.3050   44.9040 N   0  0  0  0  0  0  0  0  0  0  0  0
   57.1270   31.1710   43.9250 C   0  0  0  0  0  0  0  0  0  0  0  0
   58.7150   32.5470   45.2620 C   0  0  0  0  0  0  0  0  0  0  0  0
   58.4280   33.7030   44.4950 C   0  0  0  0  0  0  0  0  0  0  0  0
   58.8760   34.9600   44.8920 C   0  0  0  0  0  0  0  0  0  0  0  0
   59.6270   35.1000   46.0520 C   0  0  0  0  0  0  0  0  0  0  0  0
   59.9640   33.9830   46.8110 C   0  0  0  0  0  0  0  0  0  0  0  0
   59.5470   32.6890   46.4240 C   0  0  0  0  0  0  0  0  0  0  0  0
   58.4760   28.7690   45.2710 C   0  0  0  0  0  0  0  0  0  0  0  0
   57.9480   28.1100   44.1500 C   0  0  0  0  0  0  0  0  0  0  0  0
   57.9290   26.7070   44.1410 C   0  0  0  0  0  0  0  0  0  0  0  0
   58.4720   25.9790   45.2140 C   0  0  0  0  0  0  0  0  0  0  0  0
   59.0610   26.6520   46.2940 C   0  0  0  0  0  0  0  0  0  0  0  0
   59.0610   28.0470   46.2970 C   0  0  0  0  0  0  0  0  0  0  0  0
   59.7500   28.9350   47.2790 C   0  0  0  0  0  0  0  0  0  0  0  0
   62.7985   33.3292   49.7742 H   0  0  0  0  0  0  0  0  0  0  0  0
   64.0280   34.3813   48.9943 H   0  0  0  0  0  0  0  0  0  0  0  0
   62.2990   34.8683   48.9943 H   0  0  0  0  0  0  0  0  0  0  0  0
   64.0335   34.8320   46.9045 H   0  0  0  0  0  0  0  0  0  0  0  0
   63.9719   33.3332   45.9164 H   0  0  0  0  0  0  0  0  0  0  0  0
   62.5785   34.4668   45.9164 H   0  0  0  0  0  0  0  0  0  0  0  0
   63.4162   31.5508   46.6986 H   0  0  0  0  0  0  0  0  0  0  0  0
   63.9258   31.7718   48.4628 H   0  0  0  0  0  0  0  0  0  0  0  0
   61.8723   30.1148   47.4471 H   0  0  0  0  0  0  0  0  0  0  0  0
   62.3040   30.5125   49.1731 H   0  0  0  0  0  0  0  0  0  0  0  0
   60.1740   31.1720   49.1650 H   0  0  0  0  0  0  0  0  0  0  0  0
   60.8720   32.5920   48.6480 H   0  0  0  0  0  0  0  0  0  0  0  0
   56.1708   31.0537   44.4560 H   0  0  0  0  0  0  0  0  0  0  0  0
   57.0879   32.0711   43.2939 H   0  0  0  0  0  0  0  0  0  0  0  0
   57.3067   30.2882   43.2939 H   0  0  0  0  0  0  0  0  0  0  0  0
   57.8410   33.6058   43.5698 H   0  0  0  0  0  0  0  0  0  0  0  0
   58.6344   35.8450   44.2851 H   0  0  0  0  0  0  0  0  0  0  0  0
   59.9572   36.0991   46.3726 H   0  0  0  0  0  0  0  0  0  0  0  0
   60.5632   34.1090   47.7248 H   0  0  0  0  0  0  0  0  0  0  0  0
   57.5569   28.6819   43.2956 H   0  0  0  0  0  0  0  0  0  0  0  0
   57.4858   26.1727   43.2877 H   0  0  0  0  0  0  0  0  0  0  0  0
   58.4348   24.8797   45.2064 H   0  0  0  0  0  0  0  0  0  0  0  0
   59.5148   26.0902   47.1237 H   0  0  0  0  0  0  0  0  0  0  0  0
   59.3074   28.8473   48.2822 H   0  0  0  0  0  0  0  0  0  0  0  0
   60.8149   28.7035   47.4287 H   0  0  0  0  0  0  0  0  0  0  0  0
  1  2  1  0
  2  3  1  0
  2  4  1  0
  4  5  1  0
  5  6  1  0
  6  7  1  0
  7  8  2  0
  8  9  1  0
  9 10  2  0
 10 11  1  0
 10 12  1  0
 12 13  2  0
 13 14  1  0
 14 15  2  0
 15 16  1  0
 16 17  2  0
  9 18  1  0
 18 19  2  0
 19 20  1  0
 20 21  2  0
 21 22  1  0
 22 23  2  0
 23 24  1  0
 17  7  1  0
 23 18  1  0
 24  8  1  0
 17 12  1  0
  1 25  1  0
  1 26  1  0
  1 27  1  0
  3 28  1  0
  3 29  1  0
  3 30  1  0
  4 31  1  0
  4 32  1  0
  5 33  1  0
  5 34  1  0
  6 35  1  0
  6 36  1  0
 11 37  1  0
 11 38  1  0
 11 39  1  0
 13 40  1  0
 14 41  1  0
 15 42  1  0
 16 43  1  0
 19 44  1  0
 20 45  1  0
 21 46  1  0
 22 47  1  0
 24 48  1  0
 24 49  1  0
M  CHG  2   6   1  10   1
M  END
>  <UniqueID>  (36) 
34

>  <SMILES>  (36) 
CN(C)CC[NH2+]c1c2c([n+](C)c3ccccc13)-c1ccccc1C2

>  <Energy>  (36) 
98.85130826134008

>  <Genealogy>  (36) 
CN(C)CC[NH2+]c1c2c([n+](C)c3ccccc13)-c1ccccc1C2 (protonated)
CN(C)CC[NH2+]c1c2c([n+](C)c3ccccc13)-c1ccccc1C2 (3D coordinates assigned)
CN(C)CC[NH2+]c1c2c([n+](C)c3ccccc13)-c1ccccc1C2 (nonaromatic ring conformer: 98.85130826134008 kcal/mol)

>  <smiles>  (36) 
CN(C)CCNc1c2c([n+](C)c3ccccc13)-c1ccccc1C2

>  <score_type>  (36) 
oracle

>  <origin>  (36) 
adg

>  <m_score__min__energy>  (36) 
-4.6600000000000001

>  <m_primary>  (36) 
energy

$$$$
36:0
     RDKit          3D

 56 60  0  0  0  0  0  0  0  0999 V2000
   62.3880   33.8210   50.9620 C   0  0  0  0  0  0  0  0  0  0  0  0
   62.4510   33.6060   49.4840 C   0  0  0  0  0  0  0  0  0  0  0  0
   61.3030   33.4130   48.7790 N   0  0  0  0  0  0  0  0  0  0  0  0
   61.3220   33.2120   47.4350 C   0  0  0  0  0  0  0  0  0  0  0  0
   60.0480   33.0150   46.7200 C   0  0  0  0  0  0  0  0  0  0  0  0
   59.2010   34.0310   46.2770 C   0  0  0  0  0  0  0  0  0  0  0  0
   58.1120   33.5020   45.6690 N   0  0  0  0  0  0  0  0  0  0  0  0
   57.0290   34.2370   45.0270 C   0  0  0  0  0  0  0  0  0  0  0  0
   58.2690   32.1670   45.7210 C   0  0  0  0  0  0  0  0  0  0  0  0
   57.3970   31.2400   45.2570 N   0  0  0  0  0  0  0  0  0  0  0  0
   57.6710   29.9150   45.4410 C   0  0  0  0  0  0  0  0  0  0  0  0
   58.8410   29.5020   46.1340 C   0  0  0  0  0  0  0  0  0  0  0  0
   59.1130   28.0620   46.3760 C   0  0  0  0  0  0  0  0  0  0  0  0
   59.8990   27.5000   47.3720 C   0  0  0  0  0  0  0  0  0  0  0  0
   59.9220   26.1610   47.2250 N   0  0  0  0  0  0  0  0  0  0  0  0
   59.1680   25.8620   46.1800 N   0  0  0  0  0  0  0  0  0  0  0  0
   59.0150   24.5100   45.6500 C   0  0  0  0  0  0  0  0  0  0  0  0
   57.5700   24.0380   45.8280 C   0  0  0  0  0  0  0  0  0  0  0  0
   56.6730   24.7810   44.9130 N   0  0  0  0  0  0  0  0  0  0  0  0
   56.9890   24.5340   43.4940 C   0  0  0  0  0  0  0  0  0  0  0  0
   56.5750   23.1100   43.0480 C   0  0  0  0  0  0  0  0  0  0  0  0
   55.7860   22.4420   44.0150 O   0  0  0  0  0  0  0  0  0  0  0  0
   54.7200   23.2730   44.4270 C   0  0  0  0  0  0  0  0  0  0  0  0
   55.2410   24.5160   45.1800 C   0  0  0  0  0  0  0  0  0  0  0  0
   58.6670   26.9830   45.6320 C   0  0  0  0  0  0  0  0  0  0  0  0
   59.7340   30.4910   46.6100 C   0  0  0  0  0  0  0  0  0  0  0  0
   59.4250   31.8260   46.3640 C   0  0  0  0  0  0  0  0  0  0  0  0
   62.5460   33.2380   46.7570 C   0  0  0  0  0  0  0  0  0  0  0  0
   63.7130   33.4390   47.4920 C   0  0  0  0  0  0  0  0  0  0  0  0
   63.6490   33.6130   48.8380 N   0  0  0  0  0  0  0  0  0  0  0  0
   62.6609   32.8897   51.4800 H   0  0  0  0  0  0  0  0  0  0  0  0
   63.0903   34.6183   51.2468 H   0  0  0  0  0  0  0  0  0  0  0  0
   61.3665   34.1132   51.2468 H   0  0  0  0  0  0  0  0  0  0  0  0
   59.3902   35.1072   46.4032 H   0  0  0  0  0  0  0  0  0  0  0  0
   56.3787   34.6783   45.7966 H   0  0  0  0  0  0  0  0  0  0  0  0
   57.4499   35.0368   44.4000 H   0  0  0  0  0  0  0  0  0  0  0  0
   56.4412   33.5505   44.4000 H   0  0  0  0  0  0  0  0  0  0  0  0
   56.9771   29.1575   45.0477 H   0  0  0  0  0  0  0  0  0  0  0  0
   60.4225   28.0612   48.1600 H   0  0  0  0  0  0  0  0  0  0  0  0
   59.2698   24.5073   44.5799 H   0  0  0  0  0  0  0  0  0  0  0  0
   59.6864   23.8304   46.1953 H   0  0  0  0  0  0  0  0  0  0  0  0
   57.5086   22.9629   45.6034 H   0  0  0  0  0  0  0  0  0  0  0  0
   57.2572   24.2232   46.8662 H   0  0  0  0  0  0  0  0  0  0  0  0
   56.4522   25.2697   42.8771 H   0  0  0  0  0  0  0  0  0  0  0  0
   58.0776   24.6274   43.3666 H   0  0  0  0  0  0  0  0  0  0  0  0
   55.9973   23.1875   42.1151 H   0  0  0  0  0  0  0  0  0  0  0  0
   57.4959   22.5247   42.9090 H   0  0  0  0  0  0  0  0  0  0  0  0
   54.1567   23.6002   43.5406 H   0  0  0  0  0  0  0  0  0  0  0  0
   54.0733   22.6991   45.1070 H   0  0  0  0  0  0  0  0  0  0  0  0
   54.6551   25.3916   44.8636 H   0  0  0  0  0  0  0  0  0  0  0  0
   55.1315   24.3245   46.2577 H   0  0  0  0  0  0  0  0  0  0  0  0
   58.0161   27.0339   44.7467 H   0  0  0  0  0  0  0  0  0  0  0  0
   60.6460   30.2131   47.1586 H   0  0  0  0  0  0  0  0  0  0  0  0
   62.5862   33.1025   45.6661 H   0  0  0  0  0  0  0  0  0  0  0  0
   64.6873   33.4568   46.9816 H   0  0  0  0  0  0  0  0  0  0  0  0
   64.5340   33.7650   49.3740 H   0  0  0  0  0  0  0  0  0  0  0  0
  1  2  1  0
  2  3  2  0
  3  4  1  0
  4  5  1  0
  5  6  2  0
  6  7  1  0
  7  8  1  0
  7  9  1  0
  9 10  2  0
 10 11  1  0
 11 12  2  0
 12 13  1  0
 13 14  1  0
 14 15  2  0
 15 16  1  0
 16 17  1  0
 17 18  1  0
 18 19  1  0
 19 20  1  0
 20 21  1  0
 21 22  1  0
 22 23  1  0
 23 24  1  0
 16 25  1  0
 12 26  1  0
 26 27  2  0
  4 28  2  0
 28 29  1  0
 29 30  2  0
 30  2  1  0
 27  5  1  0
 27  9  1  0
 25 13  2  0
 24 19  1  0
  1 31  1  0
  1 32  1  0
  1 33  1  0
  6 34  1  0
  8 35  1  0
  8 36  1  0
  8 37  1  0
 11 38  1  0
 14 39  1  0
 17 40  1  0
 17 41  1  0
 18 42  1  0
 18 43  1  0
 20 44  1  0
 20 45  1  0
 21 46  1  0
 21 47  1  0
 23 48  1  0
 23 49  1  0
 24 50  1  0
 24 51  1  0
 25 52  1  0
 26 53  1  0
 28 54  1  0
 29 55  1  0
 30 56  1  0
M  CHG  1  30   1
M  END
>  <UniqueID>  (37) 
35

>  <SMILES>  (37) 
Cc1nc(-c2cn(C)c3ncc(-c4cnn(CCN5CCOCC5)c4)cc23)cc[nH+]1

>  <Energy>  (37) 
140.05992626471155

>  <Genealogy>  (37) 
Cc1nc(-c2cn(C)c3ncc(-c4cnn(CCN5CCOCC5)c4)cc23)cc[nH+]1 (protonated)
Cc1nc(-c2cn(C)c3ncc(-c4cnn(CCN5CCOCC5)c4)cc23)cc[nH+]1 (3D coordinates assigned)
Cc1nc(-c2cn(C)c3ncc(-c4cnn(CCN5CCOCC5)c4)cc23)cc[nH+]1 (nonaromatic ring conformer: 140.05992626471155 kcal/mol)

>  <smiles>  (37) 
Cc1nccc(-c2cn(C)c3ncc(-c4cnn(CCN5CCOCC5)c4)cc23)n1

>  <score_type>  (37) 
oracle

>  <origin>  (37) 
adg

>  <m_score__min__energy>  (37) 
-7.7699999999999996

>  <m_primary>  (37) 
energy

$$$$
37:0
     RDKit          3D

 40 41  0  0  0  0  0  0  0  0999 V2000
   56.2780   24.9700   46.7510 C   0  0  0  0  0  0  0  0  0  0  0  0
   56.6900   25.8340   45.5630 C   0  0  0  0  0  0  0  0  0  0  0  0
   56.1040   27.1190   45.6620 O   0  0  0  0  0  0  0  0  0  0  0  0
   57.0800   28.1450   45.5820 C   0  0  1  0  0  0  0  0  0  0  0  0
   58.4830   27.5650   45.8790 C   0  0  0  0  0  0  0  0  0  0  0  0
   59.6130   28.3310   45.1640 C   0  0  0  0  0  0  0  0  0  0  0  0
   59.2050   29.7810   44.8870 C   0  0  0  0  0  0  0  0  0  0  0  0
   58.0270   29.8530   43.9830 N   0  0  2  0  0  0  0  0  0  0  0  0
   57.3790   31.1450   44.1130 C   0  0  0  0  0  0  0  0  0  0  0  0
   56.2190   31.2170   44.4980 O   0  0  0  0  0  0  0  0  0  0  0  0
   58.0940   32.4070   43.7110 C   0  0  0  0  0  0  0  0  0  0  0  0
   58.4670   33.1970   44.9350 C   0  0  0  0  0  0  0  0  0  0  0  0
   58.0800   32.7560   46.2120 C   0  0  0  0  0  0  0  0  0  0  0  0
   58.4680   33.4690   47.3500 C   0  0  0  0  0  0  0  0  0  0  0  0
   59.2510   34.6210   47.2230 C   0  0  0  0  0  0  0  0  0  0  0  0
   59.6480   35.0590   45.9570 C   0  0  0  0  0  0  0  0  0  0  0  0
   59.2630   34.3490   44.8160 C   0  0  0  0  0  0  0  0  0  0  0  0
   57.0420   28.7490   44.1680 C   0  0  0  0  0  0  0  0  0  0  0  0
   56.5266   25.4913   47.6872 H   0  0  0  0  0  0  0  0  0  0  0  0
   55.1945   24.7845   46.7112 H   0  0  0  0  0  0  0  0  0  0  0  0
   56.8159   24.0113   46.7112 H   0  0  0  0  0  0  0  0  0  0  0  0
   57.7853   25.9349   45.5505 H   0  0  0  0  0  0  0  0  0  0  0  0
   56.3446   25.3542   44.6354 H   0  0  0  0  0  0  0  0  0  0  0  0
   56.8649   28.9268   46.3254 H   0  0  0  0  0  0  0  0  0  0  0  0
   58.6594   27.6114   46.9638 H   0  0  0  0  0  0  0  0  0  0  0  0
   58.4981   26.5305   45.5054 H   0  0  0  0  0  0  0  0  0  0  0  0
   60.5100   28.3253   45.8007 H   0  0  0  0  0  0  0  0  0  0  0  0
   59.8183   27.8357   44.2035 H   0  0  0  0  0  0  0  0  0  0  0  0
   58.9545   30.2700   45.8400 H   0  0  0  0  0  0  0  0  0  0  0  0
   60.0482   30.2887   44.3958 H   0  0  0  0  0  0  0  0  0  0  0  0
   58.3920   29.7700   43.0040 H   0  0  0  0  0  0  0  0  0  0  0  0
   59.0056   32.1475   43.1528 H   0  0  0  0  0  0  0  0  0  0  0  0
   57.4296   33.0132   43.0777 H   0  0  0  0  0  0  0  0  0  0  0  0
   57.4698   31.8468   46.3164 H   0  0  0  0  0  0  0  0  0  0  0  0
   58.1570   33.1235   48.3470 H   0  0  0  0  0  0  0  0  0  0  0  0
   59.5541   35.1819   48.1194 H   0  0  0  0  0  0  0  0  0  0  0  0
   60.2648   35.9644   45.8579 H   0  0  0  0  0  0  0  0  0  0  0  0
   59.5842   34.6932   43.8218 H   0  0  0  0  0  0  0  0  0  0  0  0
   56.0325   29.1443   43.9820 H   0  0  0  0  0  0  0  0  0  0  0  0
   57.3049   27.9494   43.4598 H   0  0  0  0  0  0  0  0  0  0  0  0
  1  2  1  0
  2  3  1  0
  3  4  1  0
  4  5  1  0
  5  6  1  0
  6  7  1  0
  7  8  1  0
  8  9  1  0
  9 10  2  0
  9 11  1  0
 11 12  1  0
 12 13  2  0
 13 14  1  0
 14 15  2  0
 15 16  1  0
 16 17  2  0
  8 18  1  0
 18  4  1  0
 17 12  1  0
  1 19  1  0
  1 20  1  0
  1 21  1  0
  2 22  1  0
  2 23  1  0
  4 24  1  1
  5 25  1  0
  5 26  1  0
  6 27  1  0
  6 28  1  0
  7 29  1  0
  7 30  1  0
  8 31  1  6
 11 32  1  0
 11 33  1  0
 13 34  1  0
 14 35  1  0
 15 36  1  0
 16 37  1  0
 17 38  1  0
 18 39  1  0
 18 40  1  0
M  CHG  1   8   1
M  END
>  <UniqueID>  (38) 
36

>  <SMILES>  (38) 
CCO[C@H]1CCC[N@H+](C(=O)Cc2ccccc2)C1

>  <Energy>  (38) 
44.819497063088484

>  <Genealogy>  (38) 
CCOC1CCC[NH+](C(=O)Cc2ccccc2)C1 (protonated)
CCO[C@H]1CCC[N@H+](C(=O)Cc2ccccc2)C1 (chirality)
CCO[C@H]1CCC[N@H+](C(=O)Cc2ccccc2)C1 (3D coordinates assigned)
CCO[C@H]1CCC[N@H+](C(=O)Cc2ccccc2)C1 (nonaromatic ring conformer: 44.819497063088484 kcal/mol)

>  <smiles>  (38) 
CCOC1CCCN(C(=O)Cc2ccccc2)C1

>  <score_type>  (38) 
oracle

>  <origin>  (38) 
adg

>  <m_score__min__energy>  (38) 
-6.1399999999999997

>  <m_primary>  (38) 
energy

$$$$
38:0
     RDKit          3D

 37 37  0  0  0  0  0  0  0  0999 V2000
   56.2580   29.7170   42.9280 C   0  0  0  0  0  0  0  0  0  0  0  0
   56.4280   29.7100   44.4550 C   0  0  0  0  0  0  0  0  0  0  0  0
   57.3700   30.7390   44.9530 N   0  0  0  0  0  0  0  0  0  0  0  0
   58.5990   30.1600   45.5470 C   0  0  0  0  0  0  0  0  0  0  0  0
   58.2190   29.1440   46.6170 C   0  0  0  0  0  0  0  0  0  0  0  0
   57.6360   31.7980   43.9550 C   0  0  0  0  0  0  0  0  0  0  0  0
   57.5810   33.1960   44.5890 C   0  0  0  0  0  0  0  0  0  0  0  0
   57.2820   33.1310   46.0280 N   0  0  0  0  0  0  0  0  0  0  0  0
   57.9630   34.1950   46.7780 C   0  0  0  0  0  0  0  0  0  0  0  0
   59.3960   33.8010   47.0360 C   0  0  0  0  0  0  0  0  0  0  0  0
   60.4040   34.2380   46.1570 C   0  0  0  0  0  0  0  0  0  0  0  0
   61.7340   33.8660   46.3640 C   0  0  0  0  0  0  0  0  0  0  0  0
   62.0740   33.0470   47.4440 C   0  0  0  0  0  0  0  0  0  0  0  0
   63.7450   32.5800   47.7000 Cl  0  0  0  0  0  0  0  0  0  0  0  0
   61.0800   32.5950   48.3160 C   0  0  0  0  0  0  0  0  0  0  0  0
   59.7430   32.9630   48.1170 C   0  0  0  0  0  0  0  0  0  0  0  0
   58.5320   32.3450   49.2360 Cl  0  0  0  0  0  0  0  0  0  0  0  0
   55.1876   29.7611   42.6784 H   0  0  0  0  0  0  0  0  0  0  0  0
   56.7693   30.5949   42.5062 H   0  0  0  0  0  0  0  0  0  0  0  0
   56.6954   28.8001   42.5062 H   0  0  0  0  0  0  0  0  0  0  0  0
   55.4446   29.8874   44.9149 H   0  0  0  0  0  0  0  0  0  0  0  0
   56.8477   28.7304   44.7277 H   0  0  0  0  0  0  0  0  0  0  0  0
   59.1860   29.6621   44.7612 H   0  0  0  0  0  0  0  0  0  0  0  0
   59.1986   30.9625   46.0014 H   0  0  0  0  0  0  0  0  0  0  0  0
   58.3827   29.5817   47.6128 H   0  0  0  0  0  0  0  0  0  0  0  0
   57.1588   28.8731   46.5053 H   0  0  0  0  0  0  0  0  0  0  0  0
   58.8412   28.2438   46.5053 H   0  0  0  0  0  0  0  0  0  0  0  0
   58.6357   31.6401   43.5241 H   0  0  0  0  0  0  0  0  0  0  0  0
   56.8606   31.7413   43.1768 H   0  0  0  0  0  0  0  0  0  0  0  0
   58.5544   33.6890   44.4493 H   0  0  0  0  0  0  0  0  0  0  0  0
   56.7768   33.7633   44.0976 H   0  0  0  0  0  0  0  0  0  0  0  0
   57.6470   32.2130   46.3790 H   0  0  0  0  0  0  0  0  0  0  0  0
   57.9399   35.1263   46.1931 H   0  0  0  0  0  0  0  0  0  0  0  0
   57.4496   34.3480   47.7388 H   0  0  0  0  0  0  0  0  0  0  0  0
   60.1426   34.8771   45.3008 H   0  0  0  0  0  0  0  0  0  0  0  0
   62.5159   34.2185   45.6752 H   0  0  0  0  0  0  0  0  0  0  0  0
   61.3488   31.9468   49.1631 H   0  0  0  0  0  0  0  0  0  0  0  0
  1  2  1  0
  2  3  1  0
  3  4  1  0
  4  5  1  0
  3  6  1  0
  6  7  1  0
  7  8  1  0
  8  9  1  0
  9 10  1  0
 10 11  2  0
 11 12  1  0
 12 13  2  0
 13 14  1  0
 13 15  1  0
 15 16  2  0
 16 17  1  0
 16 10  1  0
  1 18  1  0
  1 19  1  0
  1 20  1  0
  2 21  1  0
  2 22  1  0
  4 23  1  0
  4 24  1  0
  5 25  1  0
  5 26  1  0
  5 27  1  0
  6 28  1  0
  6 29  1  0
  7 30  1  0
  7 31  1  0
  8 32  1  0
  9 33  1  0
  9 34  1  0
 11 35  1  0
 12 36  1  0
 15 37  1  0
M  END
>  <UniqueID>  (39) 
37

>  <SMILES>  (39) 
CCN(CC)CCNCc1ccc(Cl)cc1Cl

>  <Energy>  (39) 
33.3165043498408

>  <Genealogy>  (39) 
CCN(CC)CCNCc1ccc(Cl)cc1Cl (3D coordinates assigned)
CCN(CC)CCNCc1ccc(Cl)cc1Cl (optimized conformer: 33.3165043498408 kcal/mol)

>  <smiles>  (39) 
CCN(CC)CCNCc1ccc(Cl)cc1Cl

>  <score_type>  (39) 
oracle

>  <origin>  (39) 
adg

>  <m_score__min__energy>  (39) 
-6.0800000000000001

>  <m_primary>  (39) 
energy

$$$$
39:0
     RDKit          3D

 59 62  0  0  0  0  0  0  0  0999 V2000
   58.1850   28.1210   47.5430 C   0  0  0  0  0  0  0  0  0  0  0  0
   59.6740   28.3010   47.8080 C   0  0  0  0  0  0  0  0  0  0  0  0
   60.0160   29.7240   47.8530 N   0  0  0  0  0  0  0  0  0  0  0  0
   60.8810   30.3820   47.0520 C   0  0  0  0  0  0  0  0  0  0  0  0
   61.4910   29.8290   46.0960 O   0  0  0  0  0  0  0  0  0  0  0  0
   61.0660   31.6840   47.4010 N   0  0  0  0  0  0  0  0  0  0  0  0
   62.1500   32.5130   46.8540 C   0  0  0  0  0  0  0  0  0  0  0  0
   63.3590   32.4930   47.7860 C   0  0  0  0  0  0  0  0  0  0  0  0
   60.2660   31.8510   48.4980 C   0  0  0  0  0  0  0  0  0  0  0  0
   59.9840   32.9920   49.3000 C   0  0  0  0  0  0  0  0  0  0  0  0
   60.3990   34.4090   48.9810 C   0  0  0  0  0  0  0  0  0  0  0  0
   60.4920   34.6600   47.4670 C   0  0  0  0  0  0  0  0  0  0  0  0
   59.1480   34.8330   46.8680 N   0  0  0  0  0  0  0  0  0  0  0  0
   58.1330   33.9380   47.4950 C   0  0  0  0  0  0  0  0  0  0  0  0
   57.1730   33.2840   46.4930 C   0  0  0  0  0  0  0  0  0  0  0  0
   57.9420   32.6320   45.4260 N   0  0  0  0  0  0  0  0  0  0  0  0
   57.5110   31.3810   44.8530 C   0  0  0  0  0  0  0  0  0  0  0  0
   56.2360   31.2300   44.3990 N   0  0  0  0  0  0  0  0  0  0  0  0
   55.8170   30.0620   43.8500 C   0  0  0  0  0  0  0  0  0  0  0  0
   56.6980   28.9880   43.7420 C   0  0  0  0  0  0  0  0  0  0  0  0
   58.0050   29.1440   44.2190 C   0  0  0  0  0  0  0  0  0  0  0  0
   58.9950   28.0220   44.1090 C   0  0  0  0  0  0  0  0  0  0  0  0
   58.7780   27.0840   45.1050 F   0  0  0  0  0  0  0  0  0  0  0  0
   58.8660   27.4010   42.8780 F   0  0  0  0  0  0  0  0  0  0  0  0
   60.2770   28.5240   44.2340 F   0  0  0  0  0  0  0  0  0  0  0  0
   58.3820   30.3370   44.7540 N   0  0  0  0  0  0  0  0  0  0  0  0
   59.1150   33.3210   44.8730 C   0  0  0  0  0  0  0  0  0  0  0  0
   59.1920   34.7630   45.3880 C   0  0  0  0  0  0  0  0  0  0  0  0
   59.1580   32.7940   50.4330 C   0  0  0  0  0  0  0  0  0  0  0  0
   58.5970   31.5370   50.7210 C   0  0  0  0  0  0  0  0  0  0  0  0
   58.8290   30.4480   49.8770 C   0  0  0  0  0  0  0  0  0  0  0  0
   59.6570   30.6400   48.7710 C   0  0  0  0  0  0  0  0  0  0  0  0
   57.6474   28.0560   48.5005 H   0  0  0  0  0  0  0  0  0  0  0  0
   57.8083   28.9801   46.9686 H   0  0  0  0  0  0  0  0  0  0  0  0
   58.0239   27.1968   46.9686 H   0  0  0  0  0  0  0  0  0  0  0  0
   59.9294   27.8362   48.7717 H   0  0  0  0  0  0  0  0  0  0  0  0
   60.2413   27.8232   46.9957 H   0  0  0  0  0  0  0  0  0  0  0  0
   62.4449   32.1203   45.8697 H   0  0  0  0  0  0  0  0  0  0  0  0
   61.7922   33.5486   46.7567 H   0  0  0  0  0  0  0  0  0  0  0  0
   63.0163   32.4987   48.8312 H   0  0  0  0  0  0  0  0  0  0  0  0
   63.9510   31.5849   47.5991 H   0  0  0  0  0  0  0  0  0  0  0  0
   63.9807   33.3810   47.5991 H   0  0  0  0  0  0  0  0  0  0  0  0
   59.6584   35.1001   49.4098 H   0  0  0  0  0  0  0  0  0  0  0  0
   61.3973   34.5738   49.4126 H   0  0  0  0  0  0  0  0  0  0  0  0
   61.0834   35.5705   47.2901 H   0  0  0  0  0  0  0  0  0  0  0  0
   60.9720   33.7881   46.9987 H   0  0  0  0  0  0  0  0  0  0  0  0
   58.6627   33.1408   48.0372 H   0  0  0  0  0  0  0  0  0  0  0  0
   57.5207   34.5669   48.1580 H   0  0  0  0  0  0  0  0  0  0  0  0
   56.5581   32.5337   47.0117 H   0  0  0  0  0  0  0  0  0  0  0  0
   56.5223   34.0550   46.0547 H   0  0  0  0  0  0  0  0  0  0  0  0
   54.7822   29.9631   43.4903 H   0  0  0  0  0  0  0  0  0  0  0  0
   56.3737   28.0382   43.2918 H   0  0  0  0  0  0  0  0  0  0  0  0
   60.0252   32.7815   45.1738 H   0  0  0  0  0  0  0  0  0  0  0  0
   59.0273   33.3422   43.7767 H   0  0  0  0  0  0  0  0  0  0  0  0
   60.1333   35.2135   45.0400 H   0  0  0  0  0  0  0  0  0  0  0  0
   58.3191   35.3074   44.9985 H   0  0  0  0  0  0  0  0  0  0  0  0
   58.9506   33.6419   51.1024 H   0  0  0  0  0  0  0  0  0  0  0  0
   57.9713   31.4103   51.6168 H   0  0  0  0  0  0  0  0  0  0  0  0
   58.3721   29.4679   50.0788 H   0  0  0  0  0  0  0  0  0  0  0  0
  1  2  1  0
  2  3  1  0
  3  4  1  0
  4  5  2  0
  4  6  1  0
  6  7  1  0
  7  8  1  0
  6  9  1  0
  9 10  2  0
 10 11  1  0
 11 12  1  0
 12 13  1  0
 13 14  1  0
 14 15  1  0
 15 16  1  0
 16 17  1  0
 17 18  2  0
 18 19  1  0
 19 20  2  0
 20 21  1  0
 21 22  1  0
 22 23  1  0
 22 24  1  0
 22 25  1  0
 21 26  2  0
 16 27  1  0
 27 28  1  0
 10 29  1  0
 29 30  2  0
 30 31  1  0
 31 32  2  0
 32  3  1  0
 32  9  1  0
 28 13  1  0
 26 17  1  0
  1 33  1  0
  1 34  1  0
  1 35  1  0
  2 36  1  0
  2 37  1  0
  7 38  1  0
  7 39  1  0
  8 40  1  0
  8 41  1  0
  8 42  1  0
 11 43  1  0
 11 44  1  0
 12 45  1  0
 12 46  1  0
 14 47  1  0
 14 48  1  0
 15 49  1  0
 15 50  1  0
 19 51  1  0
 20 52  1  0
 27 53  1  0
 27 54  1  0
 28 55  1  0
 28 56  1  0
 29 57  1  0
 30 58  1  0
 31 59  1  0
M  END
>  <UniqueID>  (40) 
38

>  <SMILES>  (40) 
CCn1c(=O)n(CC)c2c(CCN3CCN(c4nccc(C(F)(F)F)n4)CC3)cccc21

>  <Energy>  (40) 
111.78916948990378

>  <Genealogy>  (40) 
CCn1c(=O)n(CC)c2c(CCN3CCN(c4nccc(C(F)(F)F)n4)CC3)cccc21 (3D coordinates assigned)
CCn1c(=O)n(CC)c2c(CCN3CCN(c4nccc(C(F)(F)F)n4)CC3)cccc21 (nonaromatic ring conformer: 111.78916948990378 kcal/mol)

>  <smiles>  (40) 
CCn1c(=O)n(CC)c2c(CCN3CCN(c4nccc(C(F)(F)F)n4)CC3)cccc21

>  <score_type>  (40) 
oracle

>  <origin>  (40) 
adg

>  <m_score__min__energy>  (40) 
-7.6500000000000004

>  <m_primary>  (40) 
energy

$$$$
40:0
     RDKit          3D

 58 61  0  0  0  0  0  0  0  0999 V2000
   60.2740   31.7890   51.9210 C   0  0  0  0  0  0  0  0  0  0  0  0
   60.6710   30.4770   51.5370 O   0  0  0  0  0  0  0  0  0  0  0  0
   60.2100   29.8140   50.3910 C   0  0  0  0  0  0  0  0  0  0  0  0
   60.8350   28.6600   49.8830 C   0  0  0  0  0  0  0  0  0  0  0  0
   60.3380   28.0340   48.7360 C   0  0  0  0  0  0  0  0  0  0  0  0
   59.2090   28.5490   48.0750 C   0  0  0  0  0  0  0  0  0  0  0  0
   58.7000   27.9110   46.8880 N   0  0  0  0  0  0  0  0  0  0  0  0
   59.5580   27.8060   45.7010 C   0  0  0  0  0  0  0  0  0  0  0  0
   58.8950   26.9430   44.6200 C   0  0  0  0  0  0  0  0  0  0  0  0
   57.4930   27.3490   44.3910 N   0  0  0  0  0  0  0  0  0  0  0  0
   57.4040   28.6420   43.6800 C   0  0  0  0  0  0  0  0  0  0  0  0
   57.3990   29.7760   44.6610 C   0  0  0  0  0  0  0  0  0  0  0  0
   56.3250   30.0880   45.2440 O   0  0  0  0  0  0  0  0  0  0  0  0
   58.6240   30.4610   44.9680 N   0  0  0  0  0  0  0  0  0  0  0  0
   58.6860   31.6940   45.7070 C   0  0  0  0  0  0  0  0  0  0  0  0
   57.6660   32.6560   45.5730 C   0  0  0  0  0  0  0  0  0  0  0  0
   57.7080   33.8430   46.3070 C   0  0  0  0  0  0  0  0  0  0  0  0
   58.7680   34.0880   47.1810 C   0  0  0  0  0  0  0  0  0  0  0  0
   59.7980   33.1540   47.3090 C   0  0  0  0  0  0  0  0  0  0  0  0
   59.7790   31.9690   46.5590 C   0  0  0  0  0  0  0  0  0  0  0  0
   61.1410   30.8060   46.7530 S   0  0  0  0  0  0  0  0  0  0  0  0
   62.1740   31.9880   47.6280 C   0  0  0  0  0  0  0  0  0  0  0  0
   62.9220   32.9390   46.9200 C   0  0  0  0  0  0  0  0  0  0  0  0
   63.7230   33.8550   47.6100 C   0  0  0  0  0  0  0  0  0  0  0  0
   63.7860   33.8180   49.0060 C   0  0  0  0  0  0  0  0  0  0  0  0
   63.0530   32.8610   49.7130 C   0  0  0  0  0  0  0  0  0  0  0  0
   62.2500   31.9440   49.0260 C   0  0  0  0  0  0  0  0  0  0  0  0
   56.6540   27.3200   45.6210 C   0  0  0  0  0  0  0  0  0  0  0  0
   57.4430   27.1540   46.9340 C   0  0  0  0  0  0  0  0  0  0  0  0
   58.5900   29.7040   48.5840 C   0  0  0  0  0  0  0  0  0  0  0  0
   59.0870   30.3260   49.7320 C   0  0  0  0  0  0  0  0  0  0  0  0
   60.2528   31.8592   53.0186 H   0  0  0  0  0  0  0  0  0  0  0  0
   60.9909   32.5210   51.5206 H   0  0  0  0  0  0  0  0  0  0  0  0
   59.2716   32.0007   51.5206 H   0  0  0  0  0  0  0  0  0  0  0  0
   61.7194   28.2483   50.3912 H   0  0  0  0  0  0  0  0  0  0  0  0
   60.8338   27.1320   48.3479 H   0  0  0  0  0  0  0  0  0  0  0  0
   59.7386   28.8131   45.2971 H   0  0  0  0  0  0  0  0  0  0  0  0
   60.5070   27.3335   45.9944 H   0  0  0  0  0  0  0  0  0  0  0  0
   59.4571   27.0516   43.6807 H   0  0  0  0  0  0  0  0  0  0  0  0
   58.9014   25.8969   44.9599 H   0  0  0  0  0  0  0  0  0  0  0  0
   58.2688   28.7471   43.0083 H   0  0  0  0  0  0  0  0  0  0  0  0
   56.4703   28.6674   43.0990 H   0  0  0  0  0  0  0  0  0  0  0  0
   59.5120   29.9900   44.6920 H   0  0  0  0  0  0  0  0  0  0  0  0
   56.8289   32.4705   44.8840 H   0  0  0  0  0  0  0  0  0  0  0  0
   56.9045   34.5860   46.1962 H   0  0  0  0  0  0  0  0  0  0  0  0
   58.7921   35.0172   47.7692 H   0  0  0  0  0  0  0  0  0  0  0  0
   60.6295   33.3488   48.0023 H   0  0  0  0  0  0  0  0  0  0  0  0
   62.8790   32.9649   45.8211 H   0  0  0  0  0  0  0  0  0  0  0  0
   64.3039   34.6052   47.0535 H   0  0  0  0  0  0  0  0  0  0  0  0
   64.4123   34.5419   49.5478 H   0  0  0  0  0  0  0  0  0  0  0  0
   63.1074   32.8286   50.8112 H   0  0  0  0  0  0  0  0  0  0  0  0
   61.6780   31.1881   49.5841 H   0  0  0  0  0  0  0  0  0  0  0  0
   56.0928   28.2645   45.6754 H   0  0  0  0  0  0  0  0  0  0  0  0
   56.0053   26.4359   45.5341 H   0  0  0  0  0  0  0  0  0  0  0  0
   56.8313   27.5218   47.7709 H   0  0  0  0  0  0  0  0  0  0  0  0
   57.6788   26.0883   47.0704 H   0  0  0  0  0  0  0  0  0  0  0  0
   57.7084   30.1208   48.0750 H   0  0  0  0  0  0  0  0  0  0  0  0
   58.5906   31.2270   50.1216 H   0  0  0  0  0  0  0  0  0  0  0  0
  1  2  1  0
  2  3  1  0
  3  4  2  0
  4  5  1  0
  5  6  2  0
  6  7  1  0
  7  8  1  0
  8  9  1  0
  9 10  1  0
 10 11  1  0
 11 12  1  0
 12 13  2  0
 12 14  1  0
 14 15  1  0
 15 16  2  0
 16 17  1  0
 17 18  2  0
 18 19  1  0
 19 20  2  0
 20 21  1  0
 21 22  1  0
 22 23  2  0
 23 24  1  0
 24 25  2  0
 25 26  1  0
 26 27  2  0
 10 28  1  0
 28 29  1  0
  6 30  1  0
 30 31  2  0
 31  3  1  0
 29  7  1  0
 20 15  1  0
 27 22  1  0
  1 32  1  0
  1 33  1  0
  1 34  1  0
  4 35  1  0
  5 36  1  0
  8 37  1  0
  8 38  1  0
  9 39  1  0
  9 40  1  0
 11 41  1  0
 11 42  1  0
 14 43  1  0
 16 44  1  0
 17 45  1  0
 18 46  1  0
 19 47  1  0
 23 48  1  0
 24 49  1  0
 25 50  1  0
 26 51  1  0
 27 52  1  0
 28 53  1  0
 28 54  1  0
 29 55  1  0
 29 56  1  0
 30 57  1  0
 31 58  1  0
M  END
>  <UniqueID>  (41) 
39

>  <SMILES>  (41) 
COc1ccc(N2CCN(CC(=O)Nc3ccccc3Sc3ccccc3)CC2)cc1

>  <Energy>  (41) 
71.54636122751714

>  <Genealogy>  (41) 
COc1ccc(N2CCN(CC(=O)Nc3ccccc3Sc3ccccc3)CC2)cc1 (3D coordinates assigned)
COc1ccc(N2CCN(CC(=O)Nc3ccccc3Sc3ccccc3)CC2)cc1 (nonaromatic ring conformer: 71.54636122751714 kcal/mol)

>  <smiles>  (41) 
COc1ccc(N2CCN(CC(=O)Nc3ccccc3Sc3ccccc3)CC2)cc1

>  <score_type>  (41) 
oracle

>  <origin>  (41) 
adg

>  <m_score__min__energy>  (41) 
-8.7899999999999991

>  <m_primary>  (41) 
energy

$$$$
41:0
     RDKit          3D

 56 58  0  0  0  0  0  0  0  0999 V2000
   61.0410   30.7240   49.6840 C   0  0  0  0  0  0  0  0  0  0  0  0
   61.5560   30.8050   48.2500 C   0  0  0  0  0  0  0  0  0  0  0  0
   60.6370   31.6410   47.3970 C   0  0  0  0  0  0  0  0  0  0  0  0
   59.2860   31.3750   47.2240 C   0  0  0  0  0  0  0  0  0  0  0  0
   58.6400   30.2650   47.7850 O   0  0  0  0  0  0  0  0  0  0  0  0
   58.8050   28.9160   47.3750 C   0  0  0  0  0  0  0  0  0  0  0  0
   57.7580   28.5770   46.3140 C   0  0  0  0  0  0  0  0  0  0  0  0
   58.3500   28.5940   44.9590 N   0  0  0  0  0  0  0  0  0  0  0  0
   58.1470   29.8380   44.1750 C   0  0  0  0  0  0  0  0  0  0  0  0
   56.6950   30.0960   43.7330 C   0  0  0  0  0  0  0  0  0  0  0  0
   59.6850   27.9620   44.8310 C   0  0  0  0  0  0  0  0  0  0  0  0
   60.8530   28.9520   44.8480 C   0  0  0  0  0  0  0  0  0  0  0  0
   58.7800   32.4060   46.4420 C   0  0  0  0  0  0  0  0  0  0  0  0
   57.4950   32.6840   45.9590 C   0  0  0  0  0  0  0  0  0  0  0  0
   57.3050   33.8550   45.2090 C   0  0  0  0  0  0  0  0  0  0  0  0
   58.3840   34.7250   44.9550 C   0  0  0  0  0  0  0  0  0  0  0  0
   59.6670   34.4300   45.4440 C   0  0  0  0  0  0  0  0  0  0  0  0
   59.8400   33.2530   46.1860 C   0  0  0  0  0  0  0  0  0  0  0  0
   60.9800   32.7910   46.7570 N   0  0  0  0  0  0  0  0  0  0  0  0
   62.3090   33.4190   46.7170 C   0  0  0  0  0  0  0  0  0  0  0  0
   62.8910   33.5270   48.1020 C   0  0  0  0  0  0  0  0  0  0  0  0
   64.1420   32.9550   48.3890 C   0  0  0  0  0  0  0  0  0  0  0  0
   64.6780   33.0410   49.6780 C   0  0  0  0  0  0  0  0  0  0  0  0
   63.9720   33.6990   50.6870 C   0  0  0  0  0  0  0  0  0  0  0  0
   62.7300   34.2740   50.4110 C   0  0  0  0  0  0  0  0  0  0  0  0
   62.1880   34.1870   49.1240 C   0  0  0  0  0  0  0  0  0  0  0  0
   61.8801   30.8560   50.3829 H   0  0  0  0  0  0  0  0  0  0  0  0
   60.2963   31.5161   49.8514 H   0  0  0  0  0  0  0  0  0  0  0  0
   60.5754   29.7416   49.8514 H   0  0  0  0  0  0  0  0  0  0  0  0
   62.5581   31.2587   48.2519 H   0  0  0  0  0  0  0  0  0  0  0  0
   61.5964   29.7882   47.8323 H   0  0  0  0  0  0  0  0  0  0  0  0
   59.8120   28.7810   46.9534 H   0  0  0  0  0  0  0  0  0  0  0  0
   58.6794   28.2502   48.2416 H   0  0  0  0  0  0  0  0  0  0  0  0
   57.3524   27.5748   46.5165 H   0  0  0  0  0  0  0  0  0  0  0  0
   56.9595   29.3324   46.3565 H   0  0  0  0  0  0  0  0  0  0  0  0
   58.4723   30.6881   44.7927 H   0  0  0  0  0  0  0  0  0  0  0  0
   58.7341   29.7204   43.2522 H   0  0  0  0  0  0  0  0  0  0  0  0
   56.0560   30.2095   44.6212 H   0  0  0  0  0  0  0  0  0  0  0  0
   56.6529   31.0157   43.1310 H   0  0  0  0  0  0  0  0  0  0  0  0
   56.3386   29.2471   43.1310 H   0  0  0  0  0  0  0  0  0  0  0  0
   59.8158   27.2599   45.6676 H   0  0  0  0  0  0  0  0  0  0  0  0
   59.7064   27.4651   43.8499 H   0  0  0  0  0  0  0  0  0  0  0  0
   61.1239   29.1816   45.8891 H   0  0  0  0  0  0  0  0  0  0  0  0
   61.7178   28.5076   44.3336 H   0  0  0  0  0  0  0  0  0  0  0  0
   60.5564   29.8779   44.3336 H   0  0  0  0  0  0  0  0  0  0  0  0
   56.6562   32.0020   46.1623 H   0  0  0  0  0  0  0  0  0  0  0  0
   56.3060   34.0955   44.8164 H   0  0  0  0  0  0  0  0  0  0  0  0
   58.2202   35.6417   44.3695 H   0  0  0  0  0  0  0  0  0  0  0  0
   60.5139   35.1046   45.2500 H   0  0  0  0  0  0  0  0  0  0  0  0
   62.9774   32.8092   46.0914 H   0  0  0  0  0  0  0  0  0  0  0  0
   62.2086   34.4306   46.2967 H   0  0  0  0  0  0  0  0  0  0  0  0
   64.7022   32.4373   47.5964 H   0  0  0  0  0  0  0  0  0  0  0  0
   65.6569   32.5897   49.8971 H   0  0  0  0  0  0  0  0  0  0  0  0
   64.3947   33.7644   51.7004 H   0  0  0  0  0  0  0  0  0  0  0  0
   62.1771   34.7958   51.2060 H   0  0  0  0  0  0  0  0  0  0  0  0
   61.2072   34.6373   48.9113 H   0  0  0  0  0  0  0  0  0  0  0  0
  1  2  1  0
  2  3  1  0
  3  4  2  0
  4  5  1  0
  5  6  1  0
  6  7  1  0
  7  8  1  0
  8  9  1  0
  9 10  1  0
  8 11  1  0
 11 12  1  0
  4 13  1  0
 13 14  2  0
 14 15  1  0
 15 16  2  0
 16 17  1  0
 17 18  2  0
 18 19  1  0
 19 20  1  0
 20 21  1  0
 21 22  2  0
 22 23  1  0
 23 24  2  0
 24 25  1  0
 25 26  2  0
 19  3  1  0
 26 21  1  0
 18 13  1  0
  1 27  1  0
  1 28  1  0
  1 29  1  0
  2 30  1  0
  2 31  1  0
  6 32  1  0
  6 33  1  0
  7 34  1  0
  7 35  1  0
  9 36  1  0
  9 37  1  0
 10 38  1  0
 10 39  1  0
 10 40  1  0
 11 41  1  0
 11 42  1  0
 12 43  1  0
 12 44  1  0
 12 45  1  0
 14 46  1  0
 15 47  1  0
 16 48  1  0
 17 49  1  0
 20 50  1  0
 20 51  1  0
 22 52  1  0
 23 53  1  0
 24 54  1  0
 25 55  1  0
 26 56  1  0
M  END
>  <UniqueID>  (42) 
40

>  <SMILES>  (42) 
CCc1c(OCCN(CC)CC)c2ccccc2n1Cc1ccccc1

>  <Energy>  (42) 
93.56385077621509

>  <Genealogy>  (42) 
CCc1c(OCCN(CC)CC)c2ccccc2n1Cc1ccccc1 (3D coordinates assigned)
CCc1c(OCCN(CC)CC)c2ccccc2n1Cc1ccccc1 (optimized conformer: 93.56385077621509 kcal/mol)

>  <smiles>  (42) 
CCc1c(OCCN(CC)CC)c2ccccc2n1Cc1ccccc1

>  <score_type>  (42) 
oracle

>  <origin>  (42) 
adg

>  <m_score__min__energy>  (42) 
-7.5700000000000003

>  <m_primary>  (42) 
energy

$$$$
42:0
     RDKit          3D

 67 69  0  0  0  0  0  0  0  0999 V2000
   63.7740   33.1200   46.9460 C   0  0  0  0  0  0  0  0  0  0  0  0
   62.7920   32.7500   48.0520 C   0  0  0  0  0  0  0  0  0  0  0  0
   61.4100   32.9240   47.5890 N   0  0  0  0  0  0  0  0  0  0  0  0
   60.9650   34.1630   47.2260 C   0  0  0  0  0  0  0  0  0  0  0  0
   59.6420   34.3350   46.8160 C   0  0  0  0  0  0  0  0  0  0  0  0
   58.7930   33.2670   46.7770 N   0  0  0  0  0  0  0  0  0  0  0  0
   57.3920   33.4610   46.3870 C   0  0  0  0  0  0  0  0  0  0  0  0
   57.3040   33.8230   44.8980 C   0  0  0  0  0  0  0  0  0  0  0  0
   58.4280   33.2010   44.0510 C   0  0  0  0  0  0  0  0  0  0  0  0
   57.9660   32.2590   42.9210 C   0  0  0  0  0  0  0  0  0  0  0  0
   57.0170   31.1310   43.3750 C   0  0  0  0  0  0  0  0  0  0  0  0
   57.6660   30.1480   44.3190 C   0  0  0  0  0  0  0  0  0  0  0  0
   59.0640   30.0840   44.4290 C   0  0  0  0  0  0  0  0  0  0  0  0
   59.6650   29.1760   45.3040 C   0  0  0  0  0  0  0  0  0  0  0  0
   58.8780   28.3320   46.1030 C   0  0  0  0  0  0  0  0  0  0  0  0
   59.5270   27.3290   47.0250 C   0  0  0  0  0  0  0  0  0  0  0  0
   59.3680   25.8800   46.5350 C   0  0  0  0  0  0  0  0  0  0  0  0
   57.9120   25.3720   46.5530 C   0  0  0  0  0  0  0  0  0  0  0  0
   57.6740   24.3190   45.5420 N   0  0  0  0  0  0  0  0  0  0  0  0
   57.7680   23.0140   45.9530 C   0  0  0  0  0  0  0  0  0  0  0  0
   57.4470   21.9610   45.0970 C   0  0  0  0  0  0  0  0  0  0  0  0
   57.0210   22.2350   43.7980 C   0  0  0  0  0  0  0  0  0  0  0  0
   56.6960   21.1160   42.8530 C   0  0  0  0  0  0  0  0  0  0  0  0
   56.9940   23.5610   43.3590 C   0  0  0  0  0  0  0  0  0  0  0  0
   57.3490   24.6010   44.2300 C   0  0  0  0  0  0  0  0  0  0  0  0
   57.4020   25.9330   43.6980 N   0  0  0  0  0  0  0  0  0  0  0  0
   57.4790   28.4040   46.0040 C   0  0  0  0  0  0  0  0  0  0  0  0
   56.8780   29.3140   45.1310 C   0  0  0  0  0  0  0  0  0  0  0  0
   59.2320   32.0330   47.1610 C   0  0  0  0  0  0  0  0  0  0  0  0
   60.5560   31.8600   47.5720 C   0  0  0  0  0  0  0  0  0  0  0  0
   64.7142   33.4742   47.3938 H   0  0  0  0  0  0  0  0  0  0  0  0
   63.9748   32.2359   46.3231 H   0  0  0  0  0  0  0  0  0  0  0  0
   63.3415   33.9168   46.3231 H   0  0  0  0  0  0  0  0  0  0  0  0
   62.9485   31.6997   48.3391 H   0  0  0  0  0  0  0  0  0  0  0  0
   62.9640   33.4080   48.9165 H   0  0  0  0  0  0  0  0  0  0  0  0
   61.6484   35.0244   47.2567 H   0  0  0  0  0  0  0  0  0  0  0  0
   59.2830   35.3329   46.5238 H   0  0  0  0  0  0  0  0  0  0  0  0
   56.8317   32.5321   46.5693 H   0  0  0  0  0  0  0  0  0  0  0  0
   56.9627   34.2802   46.9825 H   0  0  0  0  0  0  0  0  0  0  0  0
   56.3378   33.4688   44.5095 H   0  0  0  0  0  0  0  0  0  0  0  0
   57.4069   34.9156   44.8226 H   0  0  0  0  0  0  0  0  0  0  0  0
   59.0016   34.0212   43.5948 H   0  0  0  0  0  0  0  0  0  0  0  0
   59.0158   32.5780   44.7412 H   0  0  0  0  0  0  0  0  0  0  0  0
   57.4447   32.8620   42.1629 H   0  0  0  0  0  0  0  0  0  0  0  0
   58.8712   31.7686   42.5335 H   0  0  0  0  0  0  0  0  0  0  0  0
   56.1533   31.5848   43.8831 H   0  0  0  0  0  0  0  0  0  0  0  0
   56.7218   30.5718   42.4749 H   0  0  0  0  0  0  0  0  0  0  0  0
   59.6907   30.7537   43.8218 H   0  0  0  0  0  0  0  0  0  0  0  0
   60.7619   29.1221   45.3673 H   0  0  0  0  0  0  0  0  0  0  0  0
   60.6000   27.5602   47.0966 H   0  0  0  0  0  0  0  0  0  0  0  0
   59.0274   27.4052   48.0020 H   0  0  0  0  0  0  0  0  0  0  0  0
   59.7433   25.8200   45.5027 H   0  0  0  0  0  0  0  0  0  0  0  0
   59.9375   25.2435   47.2283 H   0  0  0  0  0  0  0  0  0  0  0  0
   57.6924   24.9619   47.5498 H   0  0  0  0  0  0  0  0  0  0  0  0
   57.2553   26.2220   46.3156 H   0  0  0  0  0  0  0  0  0  0  0  0
   58.1030   22.7937   46.9773 H   0  0  0  0  0  0  0  0  0  0  0  0
   57.5294   20.9206   45.4445 H   0  0  0  0  0  0  0  0  0  0  0  0
   56.4344   20.2152   43.4275 H   0  0  0  0  0  0  0  0  0  0  0  0
   55.8452   21.4067   42.2193 H   0  0  0  0  0  0  0  0  0  0  0  0
   57.5702   20.9057   42.2193 H   0  0  0  0  0  0  0  0  0  0  0  0
   56.6931   23.7901   42.3261 H   0  0  0  0  0  0  0  0  0  0  0  0
   58.0880   26.6210   44.0800 H   0  0  0  0  0  0  0  0  0  0  0  0
   56.6500   26.3210   43.0910 H   0  0  0  0  0  0  0  0  0  0  0  0
   56.8526   27.7398   46.6176 H   0  0  0  0  0  0  0  0  0  0  0  0
   55.7811   29.3783   45.0787 H   0  0  0  0  0  0  0  0  0  0  0  0
   58.5437   31.1751   47.1469 H   0  0  0  0  0  0  0  0  0  0  0  0
   60.9101   30.8657   47.8820 H   0  0  0  0  0  0  0  0  0  0  0  0
  1  2  1  0
  2  3  1  0
  3  4  2  0
  4  5  1  0
  5  6  2  0
  6  7  1  0
  7  8  1  0
  8  9  1  0
  9 10  1  0
 10 11  1  0
 11 12  1  0
 12 13  2  0
 13 14  1  0
 14 15  2  0
 15 16  1  0
 16 17  1  0
 17 18  1  0
 18 19  1  0
 19 20  2  0
 20 21  1  0
 21 22  2  0
 22 23  1  0
 22 24  1  0
 24 25  2  0
 25 26  1  0
 15 27  1  0
 27 28  2  0
  6 29  1  0
 29 30  2  0
 30  3  1  0
 28 12  1  0
 25 19  1  0
  1 31  1  0
  1 32  1  0
  1 33  1  0
  2 34  1  0
  2 35  1  0
  4 36  1  0
  5 37  1  0
  7 38  1  0
  7 39  1  0
  8 40  1  0
  8 41  1  0
  9 42  1  0
  9 43  1  0
 10 44  1  0
 10 45  1  0
 11 46  1  0
 11 47  1  0
 13 48  1  0
 14 49  1  0
 16 50  1  0
 16 51  1  0
 17 52  1  0
 17 53  1  0
 18 54  1  0
 18 55  1  0
 20 56  1  0
 21 57  1  0
 23 58  1  0
 23 59  1  0
 23 60  1  0
 24 61  1  0
 26 62  1  0
 26 63  1  0
 27 64  1  0
 28 65  1  0
 29 66  1  0
 30 67  1  0
M  CHG  3   3   1   6   1  19   1
M  END
>  <UniqueID>  (43) 
41

>  <SMILES>  (43) 
CC[n+]1cc[n+](CCCCCc2ccc(CCC[n+]3ccc(C)cc3N)cc2)cc1

>  <Energy>  (43) 
60.06035442927839

>  <Genealogy>  (43) 
CC[n+]1cc[n+](CCCCCc2ccc(CCC[n+]3ccc(C)cc3N)cc2)cc1 (3D coordinates assigned)
CC[n+]1cc[n+](CCCCCc2ccc(CCC[n+]3ccc(C)cc3N)cc2)cc1 (optimized conformer: 60.06035442927839 kcal/mol)

>  <smiles>  (43) 
CC[n+]1cc[n+](CCCCCc2ccc(CCC[n+]3ccc(C)cc3N)cc2)cc1

>  <score_type>  (43) 
oracle

>  <origin>  (43) 
adg

>  <m_score__min__energy>  (43) 
-4.8899999999999997

>  <m_primary>  (43) 
energy

$$$$
