0:0
     RDKit          3D

 87 90  0  0  0  0  0  0  0  0999 V2000
   63.3480   33.8920   52.2410 C   0  0  0  0  0  0  0  0  0  0  0  0
   61.9300   33.8290   51.6760 C   0  0  0  0  0  0  0  0  0  0  0  0
   61.0900   32.9660   52.5440 N   0  0  0  0  0  0  0  0  0  0  0  0
   59.9450   33.7050   53.1220 C   0  0  0  0  0  0  0  0  0  0  0  0
   58.9870   34.1910   52.0280 C   0  0  0  0  0  0  0  0  0  0  0  0
   61.8770   32.3120   53.6220 C   0  0  0  0  0  0  0  0  0  0  0  0
   61.0880   31.1620   54.2560 C   0  0  0  0  0  0  0  0  0  0  0  0
   60.2070   30.6160   53.2870 O   0  0  0  0  0  0  0  0  0  0  0  0
   59.1240   29.9280   53.8920 C   0  0  0  0  0  0  0  0  0  0  0  0
   57.7840   30.6400   53.6110 C   0  0  0  0  0  0  0  0  0  0  0  0
   57.7810   31.3610   52.3880 O   0  0  0  0  0  0  0  0  0  0  0  0
   57.3890   30.5520   51.2970 C   0  0  0  0  0  0  0  0  0  0  0  0
   58.3950   30.6200   50.1400 C   0  0  0  0  0  0  0  0  0  0  0  0
   59.4900   31.5240   50.4850 N   0  0  0  0  0  0  0  0  0  0  0  0
   60.5280   31.8150   49.5370 C   0  0  0  0  0  0  0  0  0  0  0  0
   60.2260   32.6790   48.4630 C   0  0  0  0  0  0  0  0  0  0  0  0
   58.8910   33.0940   48.2210 C   0  0  0  0  0  0  0  0  0  0  0  0
   58.5960   33.9770   47.1840 C   0  0  0  0  0  0  0  0  0  0  0  0
   59.6200   34.4730   46.3920 C   0  0  0  0  0  0  0  0  0  0  0  0
   60.9390   34.0780   46.6020 C   0  0  0  0  0  0  0  0  0  0  0  0
   61.2670   33.1550   47.6260 C   0  0  0  0  0  0  0  0  0  0  0  0
   62.5750   32.7680   47.8640 N   0  0  0  0  0  0  0  0  0  0  0  0
   63.6270   33.1000   46.8730 C   0  0  0  0  0  0  0  0  0  0  0  0
   62.8930   32.0470   49.0010 C   0  0  0  0  0  0  0  0  0  0  0  0
   64.2290   31.9700   49.4580 C   0  0  0  0  0  0  0  0  0  0  0  0
   64.5660   31.2250   50.5800 C   0  0  0  0  0  0  0  0  0  0  0  0
   63.5970   30.4810   51.2350 C   0  0  0  0  0  0  0  0  0  0  0  0
   62.2580   30.4750   50.7900 C   0  0  0  0  0  0  0  0  0  0  0  0
   61.3120   29.5320   51.3810 N   0  0  0  0  0  0  0  0  0  0  0  0
   61.1190   28.2910   50.6000 C   0  0  0  0  0  0  0  0  0  0  0  0
   60.8550   28.5720   49.1080 C   0  0  0  0  0  0  0  0  0  0  0  0
   59.6430   27.7550   48.6060 C   0  0  0  0  0  0  0  0  0  0  0  0
   59.2150   28.0790   47.2240 N   0  0  0  0  0  0  0  0  0  0  0  0
   60.2790   27.9640   46.2150 C   0  0  0  0  0  0  0  0  0  0  0  0
   60.5940   29.3600   45.7170 C   0  0  0  0  0  0  0  0  0  0  0  0
   59.3160   30.1380   45.9470 C   0  0  0  0  0  0  0  0  0  0  0  0
   58.6160   29.4210   47.0950 C   0  0  0  0  0  0  0  0  0  0  0  0
   61.8730   31.4220   49.7760 C   0  0  0  0  0  0  0  0  0  0  0  0
   63.3052   33.8901   53.3402 H   0  0  0  0  0  0  0  0  0  0  0  0
   63.9198   33.0184   51.8948 H   0  0  0  0  0  0  0  0  0  0  0  0
   63.8401   34.8129   51.8948 H   0  0  0  0  0  0  0  0  0  0  0  0
   61.5030   34.8422   51.6429 H   0  0  0  0  0  0  0  0  0  0  0  0
   61.9584   33.4100   50.6593 H   0  0  0  0  0  0  0  0  0  0  0  0
   59.3987   33.0404   53.8075 H   0  0  0  0  0  0  0  0  0  0  0  0
   60.3335   34.5830   53.6588 H   0  0  0  0  0  0  0  0  0  0  0  0
   58.0980   34.6420   52.4930 H   0  0  0  0  0  0  0  0  0  0  0  0
   59.4942   34.9408   51.4031 H   0  0  0  0  0  0  0  0  0  0  0  0
   58.6815   33.3389   51.4031 H   0  0  0  0  0  0  0  0  0  0  0  0
   62.8108   31.9161   53.1963 H   0  0  0  0  0  0  0  0  0  0  0  0
   62.0948   33.0587   54.3998 H   0  0  0  0  0  0  0  0  0  0  0  0
   61.7843   30.3836   54.6014 H   0  0  0  0  0  0  0  0  0  0  0  0
   60.5103   31.5366   55.1139 H   0  0  0  0  0  0  0  0  0  0  0  0
   59.0785   28.9055   53.4890 H   0  0  0  0  0  0  0  0  0  0  0  0
   59.2872   29.9092   54.9797 H   0  0  0  0  0  0  0  0  0  0  0  0
   56.9868   29.8830   53.5728 H   0  0  0  0  0  0  0  0  0  0  0  0
   57.6236   31.3674   54.4204 H   0  0  0  0  0  0  0  0  0  0  0  0
   57.3103   29.5093   51.6383 H   0  0  0  0  0  0  0  0  0  0  0  0
   56.4217   30.9241   50.9284 H   0  0  0  0  0  0  0  0  0  0  0  0
   58.7986   29.6149   49.9482 H   0  0  0  0  0  0  0  0  0  0  0  0
   57.8863   30.9947   49.2396 H   0  0  0  0  0  0  0  0  0  0  0  0
   59.6900   31.7330   51.4920 H   0  0  0  0  0  0  0  0  0  0  0  0
   58.0795   32.7144   48.8593 H   0  0  0  0  0  0  0  0  0  0  0  0
   57.5554   34.2790   46.9948 H   0  0  0  0  0  0  0  0  0  0  0  0
   59.3880   35.1871   45.5881 H   0  0  0  0  0  0  0  0  0  0  0  0
   61.7364   34.4878   45.9647 H   0  0  0  0  0  0  0  0  0  0  0  0
   64.5481   33.3907   47.3995 H   0  0  0  0  0  0  0  0  0  0  0  0
   63.8270   32.2213   46.2422 H   0  0  0  0  0  0  0  0  0  0  0  0
   63.2863   33.9343   46.2422 H   0  0  0  0  0  0  0  0  0  0  0  0
   65.0169   32.5112   48.9137 H   0  0  0  0  0  0  0  0  0  0  0  0
   65.6022   31.2251   50.9493 H   0  0  0  0  0  0  0  0  0  0  0  0
   63.8766   29.8853   52.1165 H   0  0  0  0  0  0  0  0  0  0  0  0
   60.3560   29.9470   51.4410 H   0  0  0  0  0  0  0  0  0  0  0  0
   61.6460   29.2760   52.3400 H   0  0  0  0  0  0  0  0  0  0  0  0
   62.0249   27.6733   50.6884 H   0  0  0  0  0  0  0  0  0  0  0  0
   60.2373   27.7729   51.0052 H   0  0  0  0  0  0  0  0  0  0  0  0
   60.6490   29.6441   48.9731 H   0  0  0  0  0  0  0  0  0  0  0  0
   61.7437   28.2792   48.5297 H   0  0  0  0  0  0  0  0  0  0  0  0
   59.9085   26.6882   48.6426 H   0  0  0  0  0  0  0  0  0  0  0  0
   58.7989   28.0101   49.2636 H   0  0  0  0  0  0  0  0  0  0  0  0
   61.1765   27.5158   46.6663 H   0  0  0  0  0  0  0  0  0  0  0  0
   59.9534   27.3223   45.3830 H   0  0  0  0  0  0  0  0  0  0  0  0
   61.4253   29.7989   46.2883 H   0  0  0  0  0  0  0  0  0  0  0  0
   60.9067   29.3688   44.6624 H   0  0  0  0  0  0  0  0  0  0  0  0
   59.5417   31.1789   46.2221 H   0  0  0  0  0  0  0  0  0  0  0  0
   58.6899   30.1786   45.0435 H   0  0  0  0  0  0  0  0  0  0  0  0
   58.7570   29.9846   48.0291 H   0  0  0  0  0  0  0  0  0  0  0  0
   57.5371   29.3415   46.8960 H   0  0  0  0  0  0  0  0  0  0  0  0
  1  2  1  0
  2  3  1  0
  3  4  1  0
  4  5  1  0
  3  6  1  0
  6  7  1  0
  7  8  1  0
  8  9  1  0
  9 10  1  0
 10 11  1  0
 11 12  1  0
 12 13  1  0
 13 14  1  0
 14 15  1  0
 15 16  2  0
 16 17  1  0
 17 18  2  0
 18 19  1  0
 19 20  2  0
 20 21  1  0
 21 22  2  0
 22 23  1  0
 22 24  1  0
 24 25  2  0
 25 26  1  0
 26 27  2  0
 27 28  1  0
 28 29  1  0
 29 30  1  0
 30 31  1  0
 31 32  1  0
 32 33  1  0
 33 34  1  0
 34 35  1  0
 35 36  1  0
 36 37  1  0
 28 38  2  0
 38 15  1  0
 21 16  1  0
 38 24  1  0
 37 33  1  0
  1 39  1  0
  1 40  1  0
  1 41  1  0
  2 42  1  0
  2 43  1  0
  4 44  1  0
  4 45  1  0
  5 46  1  0
  5 47  1  0
  5 48  1  0
  6 49  1  0
  6 50  1  0
  7 51  1  0
  7 52  1  0
  9 53  1  0
  9 54  1  0
 10 55  1  0
 10 56  1  0
 12 57  1  0
 12 58  1  0
 13 59  1  0
 13 60  1  0
 14 61  1  0
 17 62  1  0
 18 63  1  0
 19 64  1  0
 20 65  1  0
 23 66  1  0
 23 67  1  0
 23 68  1  0
 25 69  1  0
 26 70  1  0
 27 71  1  0
 29 72  1  0
 29 73  1  0
 30 74  1  0
 30 75  1  0
 31 76  1  0
 31 77  1  0
 32 78  1  0
 32 79  1  0
 34 80  1  0
 34 81  1  0
 35 82  1  0
 35 83  1  0
 36 84  1  0
 36 85  1  0
 37 86  1  0
 37 87  1  0
M  CHG  2  22   1  29   1
M  END
>  <UniqueID>  (1) 
1

>  <SMILES>  (1) 
CCN(CC)CCOCCOCCNc1c2ccccc2[n+](C)c2cccc([NH2+]CCCN3CCCC3)c12

>  <Energy>  (1) 
137.4785466248596

>  <Genealogy>  (1) 
CCN(CC)CCOCCOCCNc1c2ccccc2[n+](C)c2cccc([NH2+]CCCN3CCCC3)c12 (protonated)
CCN(CC)CCOCCOCCNc1c2ccccc2[n+](C)c2cccc([NH2+]CCCN3CCCC3)c12 (3D coordinates assigned)
CCN(CC)CCOCCOCCNc1c2ccccc2[n+](C)c2cccc([NH2+]CCCN3CCCC3)c12 (nonaromatic ring conformer: 137.4785466248596 kcal/mol)

>  <smiles>  (1) 
CCN(CC)CCOCCOCCNc1c2ccccc2[n+](C)c2cccc(NCCCN3CCCC3)c12

>  <score_type>  (1) 
oracle

>  <origin>  (1) 
adg

>  <m_score__min__energy>  (1) 
-4.2800000000000002

>  <m_primary>  (1) 
energy

$$$$
1:0
     RDKit          3D

 61 63  0  0  0  0  0  0  0  0999 V2000
   57.3500   24.9570   47.2760 C   0  0  0  0  0  0  0  0  0  0  0  0
   56.3550   23.9370   46.7270 C   0  0  0  0  0  0  0  0  0  0  0  0
   55.7210   24.4400   45.4840 N   0  0  0  0  0  0  0  0  0  0  0  0
   54.2460   24.4790   45.6210 C   0  0  0  0  0  0  0  0  0  0  0  0
   53.7160   23.0890   45.9550 C   0  0  0  0  0  0  0  0  0  0  0  0
   56.1410   23.6560   44.2990 C   0  0  0  0  0  0  0  0  0  0  0  0
   57.1230   24.4680   43.4410 C   0  0  0  0  0  0  0  0  0  0  0  0
   57.3940   25.7760   44.0390 N   0  0  0  0  0  0  0  0  0  0  0  0
   57.8290   26.8990   43.2550 C   0  0  0  0  0  0  0  0  0  0  0  0
   58.2190   26.7130   42.0690 O   0  0  0  0  0  0  0  0  0  0  0  0
   57.8310   28.2770   43.8150 C   0  0  0  0  0  0  0  0  0  0  0  0
   56.7440   29.1350   43.5630 C   0  0  0  0  0  0  0  0  0  0  0  0
   56.7130   30.4240   44.1010 C   0  0  0  0  0  0  0  0  0  0  0  0
   57.7630   30.8820   44.9130 C   0  0  0  0  0  0  0  0  0  0  0  0
   58.8550   30.0250   45.1680 C   0  0  0  0  0  0  0  0  0  0  0  0
   58.8860   28.7360   44.6260 C   0  0  0  0  0  0  0  0  0  0  0  0
   59.8750   30.4540   45.9550 N   0  0  0  0  0  0  0  0  0  0  0  0
   59.8670   31.6960   46.5020 C   0  0  0  0  0  0  0  0  0  0  0  0
   60.9320   32.1090   47.3100 C   0  0  0  0  0  0  0  0  0  0  0  0
   60.9300   33.3890   47.8920 C   0  0  0  0  0  0  0  0  0  0  0  0
   62.0200   33.8070   48.7430 N   0  0  0  0  0  0  0  0  0  0  0  0
   61.7590   34.1920   50.1380 C   0  0  0  0  0  0  0  0  0  0  0  0
   60.6040   33.3860   50.7270 C   0  0  0  0  0  0  0  0  0  0  0  0
   63.4010   33.8300   48.2340 C   0  0  0  0  0  0  0  0  0  0  0  0
   63.4140   33.8440   46.7080 C   0  0  0  0  0  0  0  0  0  0  0  0
   59.8460   34.2500   47.6440 C   0  0  0  0  0  0  0  0  0  0  0  0
   58.7820   33.8430   46.8360 C   0  0  0  0  0  0  0  0  0  0  0  0
   58.7780   32.5610   46.2570 C   0  0  0  0  0  0  0  0  0  0  0  0
   57.7450   32.1340   45.4660 N   0  0  0  0  0  0  0  0  0  0  0  0
   56.6540   32.9580   45.2610 O   0  0  0  0  0  0  0  0  0  0  0  0
   57.3286   24.9350   48.3756 H   0  0  0  0  0  0  0  0  0  0  0  0
   58.3620   24.7082   46.9240 H   0  0  0  0  0  0  0  0  0  0  0  0
   57.0762   25.9625   46.9240 H   0  0  0  0  0  0  0  0  0  0  0  0
   56.8843   22.9979   46.5080 H   0  0  0  0  0  0  0  0  0  0  0  0
   55.5713   23.7666   47.4799 H   0  0  0  0  0  0  0  0  0  0  0  0
   53.9734   25.1761   46.4271 H   0  0  0  0  0  0  0  0  0  0  0  0
   53.8041   24.8152   44.6714 H   0  0  0  0  0  0  0  0  0  0  0  0
   53.6695   22.9670   47.0472 H   0  0  0  0  0  0  0  0  0  0  0  0
   52.7089   22.9686   45.5294 H   0  0  0  0  0  0  0  0  0  0  0  0
   54.3873   22.3286   45.5294 H   0  0  0  0  0  0  0  0  0  0  0  0
   56.6313   22.7295   44.6324 H   0  0  0  0  0  0  0  0  0  0  0  0
   55.2527   23.4172   43.6957 H   0  0  0  0  0  0  0  0  0  0  0  0
   58.0676   23.9112   43.3533 H   0  0  0  0  0  0  0  0  0  0  0  0
   56.6713   24.6254   42.4505 H   0  0  0  0  0  0  0  0  0  0  0  0
   57.3470   25.8560   45.0790 H   0  0  0  0  0  0  0  0  0  0  0  0
   55.9100   28.7869   42.9358 H   0  0  0  0  0  0  0  0  0  0  0  0
   55.8600   31.0847   43.8870 H   0  0  0  0  0  0  0  0  0  0  0  0
   59.7410   28.0762   44.8350 H   0  0  0  0  0  0  0  0  0  0  0  0
   61.7765   31.4278   47.4911 H   0  0  0  0  0  0  0  0  0  0  0  0
   62.6645   34.0105   50.7356 H   0  0  0  0  0  0  0  0  0  0  0  0
   61.4866   35.2575   50.1598 H   0  0  0  0  0  0  0  0  0  0  0  0
   60.6547   33.4214   51.8253 H   0  0  0  0  0  0  0  0  0  0  0  0
   59.6485   33.8145   50.3901 H   0  0  0  0  0  0  0  0  0  0  0  0
   60.6765   32.3414   50.3901 H   0  0  0  0  0  0  0  0  0  0  0  0
   63.9084   34.7316   48.6076 H   0  0  0  0  0  0  0  0  0  0  0  0
   63.9215   32.9262   48.5835 H   0  0  0  0  0  0  0  0  0  0  0  0
   64.1228   34.6073   46.3543 H   0  0  0  0  0  0  0  0  0  0  0  0
   63.7224   32.8563   46.3349 H   0  0  0  0  0  0  0  0  0  0  0  0
   62.4062   34.0786   46.3349 H   0  0  0  0  0  0  0  0  0  0  0  0
   59.8360   35.2549   48.0913 H   0  0  0  0  0  0  0  0  0  0  0  0
   57.9422   34.5290   46.6513 H   0  0  0  0  0  0  0  0  0  0  0  0
  1  2  1  0
  2  3  1  0
  3  4  1  0
  4  5  1  0
  3  6  1  0
  6  7  1  0
  7  8  1  0
  8  9  1  0
  9 10  2  0
  9 11  1  0
 11 12  2  0
 12 13  1  0
 13 14  2  0
 14 15  1  0
 15 16  2  0
 15 17  1  0
 17 18  2  0
 18 19  1  0
 19 20  2  0
 20 21  1  0
 21 22  1  0
 22 23  1  0
 21 24  1  0
 24 25  1  0
 20 26  1  0
 26 27  2  0
 27 28  1  0
 28 29  2  0
 29 30  1  0
 16 11  1  0
 28 18  1  0
 29 14  1  0
  1 31  1  0
  1 32  1  0
  1 33  1  0
  2 34  1  0
  2 35  1  0
  4 36  1  0
  4 37  1  0
  5 38  1  0
  5 39  1  0
  5 40  1  0
  6 41  1  0
  6 42  1  0
  7 43  1  0
  7 44  1  0
  8 45  1  0
 12 46  1  0
 13 47  1  0
 16 48  1  0
 19 49  1  0
 22 50  1  0
 22 51  1  0
 23 52  1  0
 23 53  1  0
 23 54  1  0
 24 55  1  0
 24 56  1  0
 25 57  1  0
 25 58  1  0
 25 59  1  0
 26 60  1  0
 27 61  1  0
M  CHG  2  29   1  30  -1
M  END
>  <UniqueID>  (2) 
2

>  <SMILES>  (2) 
CCN(CC)CCNC(=O)c1ccc2c(c1)nc1cc(N(CC)CC)ccc1[n+]2[O-]

>  <Energy>  (2) 
65.86522145300437

>  <Genealogy>  (2) 
CCN(CC)CCNC(=O)c1ccc2c(c1)nc1cc(N(CC)CC)ccc1[n+]2[O-] (3D coordinates assigned)
CCN(CC)CCNC(=O)c1ccc2c(c1)nc1cc(N(CC)CC)ccc1[n+]2[O-] (optimized conformer: 65.86522145300437 kcal/mol)

>  <smiles>  (2) 
CCN(CC)CCNC(=O)c1ccc2c(c1)nc1cc(N(CC)CC)ccc1[n+]2[O-]

>  <score_type>  (2) 
oracle

>  <origin>  (2) 
adg

>  <m_score__min__energy>  (2) 
-7.21

>  <m_primary>  (2) 
energy

$$$$
2:0
     RDKit          3D

 48 51  0  0  0  0  0  0  0  0999 V2000
   57.7870   31.0760   51.2550 C   0  0  0  0  0  0  0  0  0  0  0  0
   58.1950   29.7190   50.8800 N   0  0  0  0  0  0  0  0  0  0  0  0
   59.6200   29.6540   50.5260 C   0  0  0  0  0  0  0  0  0  0  0  0
   59.8810   30.1980   49.1160 C   0  0  0  0  0  0  0  0  0  0  0  0
   58.6280   30.4180   48.3920 N   0  0  0  0  0  0  0  0  0  0  0  0
   58.6280   30.9370   47.0540 C   0  0  0  0  0  0  0  0  0  0  0  0
   58.8500   32.3110   46.7890 C   0  0  0  0  0  0  0  0  0  0  0  0
   59.1670   33.2060   47.8310 C   0  0  0  0  0  0  0  0  0  0  0  0
   59.4060   34.5520   47.5650 C   0  0  0  0  0  0  0  0  0  0  0  0
   59.3430   35.0300   46.2620 C   0  0  0  0  0  0  0  0  0  0  0  0
   59.0190   34.1730   45.2100 C   0  0  0  0  0  0  0  0  0  0  0  0
   58.7400   32.8040   45.4440 C   0  0  0  0  0  0  0  0  0  0  0  0
   58.3770   31.9520   44.4110 N   0  0  0  0  0  0  0  0  0  0  0  0
   58.1410   32.4550   43.0450 C   0  0  0  0  0  0  0  0  0  0  0  0
   58.2610   30.6140   44.6840 C   0  0  0  0  0  0  0  0  0  0  0  0
   58.0630   29.6220   43.7790 N   0  0  0  0  0  0  0  0  0  0  0  0
   58.0730   28.4830   44.4990 C   0  0  0  0  0  0  0  0  0  0  0  0
   57.9530   27.1860   44.0050 C   0  0  0  0  0  0  0  0  0  0  0  0
   58.0510   26.1210   44.9150 C   0  0  0  0  0  0  0  0  0  0  0  0
   58.2890   26.3560   46.2870 C   0  0  0  0  0  0  0  0  0  0  0  0
   58.3940   25.2490   47.1410 O   0  0  0  0  0  0  0  0  0  0  0  0
   57.3090   24.3970   47.4890 C   0  0  0  0  0  0  0  0  0  0  0  0
   58.4190   27.6860   46.7570 C   0  0  0  0  0  0  0  0  0  0  0  0
   58.2780   28.7290   45.8380 C   0  0  0  0  0  0  0  0  0  0  0  0
   58.3880   30.1050   45.9610 C   0  0  0  0  0  0  0  0  0  0  0  0
   57.7613   31.1614   52.3514 H   0  0  0  0  0  0  0  0  0  0  0  0
   58.5068   31.8011   50.8475 H   0  0  0  0  0  0  0  0  0  0  0  0
   56.7866   31.2839   50.8475 H   0  0  0  0  0  0  0  0  0  0  0  0
   57.6450   29.4560   50.0290 H   0  0  0  0  0  0  0  0  0  0  0  0
   60.1945   30.2505   51.2500 H   0  0  0  0  0  0  0  0  0  0  0  0
   59.9306   28.5990   50.5488 H   0  0  0  0  0  0  0  0  0  0  0  0
   60.4222   31.1524   49.1944 H   0  0  0  0  0  0  0  0  0  0  0  0
   60.4772   29.4577   48.5624 H   0  0  0  0  0  0  0  0  0  0  0  0
   57.7680   29.9440   48.7500 H   0  0  0  0  0  0  0  0  0  0  0  0
   59.2262   32.8372   48.8656 H   0  0  0  0  0  0  0  0  0  0  0  0
   59.6456   35.2393   48.3897 H   0  0  0  0  0  0  0  0  0  0  0  0
   59.5499   36.0910   46.0586 H   0  0  0  0  0  0  0  0  0  0  0  0
   58.9796   34.5662   44.1834 H   0  0  0  0  0  0  0  0  0  0  0  0
   57.6743   33.4498   43.0961 H   0  0  0  0  0  0  0  0  0  0  0  0
   59.0994   32.5267   42.5100 H   0  0  0  0  0  0  0  0  0  0  0  0
   57.4732   31.7637   42.5100 H   0  0  0  0  0  0  0  0  0  0  0  0
   57.9800   29.6840   42.7410 H   0  0  0  0  0  0  0  0  0  0  0  0
   57.7864   27.0015   42.9335 H   0  0  0  0  0  0  0  0  0  0  0  0
   57.9407   25.0879   44.5536 H   0  0  0  0  0  0  0  0  0  0  0  0
   57.2289   24.3341   48.5843 H   0  0  0  0  0  0  0  0  0  0  0  0
   56.3749   24.8055   47.0759 H   0  0  0  0  0  0  0  0  0  0  0  0
   57.4843   23.3927   47.0759 H   0  0  0  0  0  0  0  0  0  0  0  0
   58.6255   27.8922   47.8176 H   0  0  0  0  0  0  0  0  0  0  0  0
  1  2  1  0
  2  3  1  0
  3  4  1  0
  4  5  1  0
  5  6  1  0
  6  7  2  0
  7  8  1  0
  8  9  2  0
  9 10  1  0
 10 11  2  0
 11 12  1  0
 12 13  2  0
 13 14  1  0
 13 15  1  0
 15 16  1  0
 16 17  1  0
 17 18  2  0
 18 19  1  0
 19 20  2  0
 20 21  1  0
 21 22  1  0
 20 23  1  0
 23 24  2  0
 24 25  1  0
 25  6  1  0
 12  7  1  0
 25 15  2  0
 24 17  1  0
  1 26  1  0
  1 27  1  0
  1 28  1  0
  2 29  1  0
  3 30  1  0
  3 31  1  0
  4 32  1  0
  4 33  1  0
  5 34  1  0
  8 35  1  0
  9 36  1  0
 10 37  1  0
 11 38  1  0
 14 39  1  0
 14 40  1  0
 14 41  1  0
 16 42  1  0
 18 43  1  0
 19 44  1  0
 22 45  1  0
 22 46  1  0
 22 47  1  0
 23 48  1  0
M  CHG  1  13   1
M  END
>  <UniqueID>  (3) 
3

>  <SMILES>  (3) 
CNCCNc1c2ccccc2[n+](C)c2[nH]c3ccc(OC)cc3c12

>  <Energy>  (3) 
104.05440806368084

>  <Genealogy>  (3) 
CNCCNc1c2ccccc2[n+](C)c2[nH]c3ccc(OC)cc3c12 (3D coordinates assigned)
CNCCNc1c2ccccc2[n+](C)c2[nH]c3ccc(OC)cc3c12 (optimized conformer: 104.05440806368084 kcal/mol)

>  <smiles>  (3) 
CNCCNc1c2ccccc2[n+](C)c2[nH]c3ccc(OC)cc3c12

>  <score_type>  (3) 
oracle

>  <origin>  (3) 
adg

>  <m_score__min__energy>  (3) 
-6.46

>  <m_primary>  (3) 
energy

$$$$
3:0
     RDKit          3D

 46 47  0  0  0  0  0  0  0  0999 V2000
   57.4010   33.2710   44.5600 C   0  0  0  0  0  0  0  0  0  0  0  0
   57.8080   34.2130   45.6930 C   0  0  0  0  0  0  0  0  0  0  0  0
   59.2730   34.6710   45.5880 C   0  0  0  0  0  0  0  0  0  0  0  0
   60.2870   33.6590   46.1530 C   0  0  0  0  0  0  0  0  0  0  0  0
   59.7660   32.9410   47.3370 N   0  0  0  0  0  0  0  0  0  0  0  0
   59.2430   31.6680   47.2390 C   0  0  0  0  0  0  0  0  0  0  0  0
   59.2110   30.7420   45.6920 S   0  0  0  0  0  0  0  0  0  0  0  0
   58.2310   29.3500   46.3580 C   0  0  0  0  0  0  0  0  0  0  0  0
   56.9610   29.1500   45.5800 C   0  0  0  0  0  0  0  0  0  0  0  0
   56.5080   30.1010   44.8910 O   0  0  0  0  0  0  0  0  0  0  0  0
   56.2330   27.9170   45.6210 N   0  0  0  0  0  0  0  0  0  0  0  0
   56.6530   26.7340   46.3630 C   0  0  0  0  0  0  0  0  0  0  0  0
   56.1020   25.4770   45.6920 C   0  0  0  0  0  0  0  0  0  0  0  0
   54.7260   25.3140   45.9870 O   0  0  0  0  0  0  0  0  0  0  0  0
   54.2010   24.2020   45.2950 C   0  0  0  0  0  0  0  0  0  0  0  0
   58.7150   31.0590   48.3310 N   0  0  0  0  0  0  0  0  0  0  0  0
   58.7030   31.6530   49.5450 C   0  0  0  0  0  0  0  0  0  0  0  0
   58.1480   30.9890   50.6450 C   0  0  0  0  0  0  0  0  0  0  0  0
   58.1450   31.6000   51.9020 C   0  0  0  0  0  0  0  0  0  0  0  0
   58.6940   32.8760   52.0620 C   0  0  0  0  0  0  0  0  0  0  0  0
   59.2480   33.5450   50.9670 C   0  0  0  0  0  0  0  0  0  0  0  0
   59.2560   32.9360   49.6970 C   0  0  0  0  0  0  0  0  0  0  0  0
   59.7940   33.5670   48.5630 C   0  0  0  0  0  0  0  0  0  0  0  0
   60.3060   34.7170   48.6780 O   0  0  0  0  0  0  0  0  0  0  0  0
   56.9985   32.3394   44.9844 H   0  0  0  0  0  0  0  0  0  0  0  0
   56.6313   33.7541   43.9401 H   0  0  0  0  0  0  0  0  0  0  0  0
   58.2803   33.0416   43.9401 H   0  0  0  0  0  0  0  0  0  0  0  0
   57.1589   35.1006   45.6628 H   0  0  0  0  0  0  0  0  0  0  0  0
   57.6997   33.6613   46.6385 H   0  0  0  0  0  0  0  0  0  0  0  0
   59.5075   34.8399   44.5266 H   0  0  0  0  0  0  0  0  0  0  0  0
   59.3650   35.5854   46.1925 H   0  0  0  0  0  0  0  0  0  0  0  0
   60.5258   32.9236   45.3706 H   0  0  0  0  0  0  0  0  0  0  0  0
   61.1809   34.2185   46.4661 H   0  0  0  0  0  0  0  0  0  0  0  0
   58.8325   28.4307   46.3032 H   0  0  0  0  0  0  0  0  0  0  0  0
   57.9651   29.5819   47.3999 H   0  0  0  0  0  0  0  0  0  0  0  0
   57.7518   26.6859   46.3813 H   0  0  0  0  0  0  0  0  0  0  0  0
   56.2664   26.7950   47.3910 H   0  0  0  0  0  0  0  0  0  0  0  0
   56.2300   25.5634   44.6029 H   0  0  0  0  0  0  0  0  0  0  0  0
   56.6512   24.6033   46.0727 H   0  0  0  0  0  0  0  0  0  0  0  0
   53.8474   23.4531   46.0190 H   0  0  0  0  0  0  0  0  0  0  0  0
   53.3610   24.5265   44.6633 H   0  0  0  0  0  0  0  0  0  0  0  0
   54.9853   23.7596   44.6633 H   0  0  0  0  0  0  0  0  0  0  0  0
   57.7140   29.9860   50.5202 H   0  0  0  0  0  0  0  0  0  0  0  0
   57.7103   31.0765   52.7663 H   0  0  0  0  0  0  0  0  0  0  0  0
   58.6899   33.3546   53.0524 H   0  0  0  0  0  0  0  0  0  0  0  0
   59.6785   34.5488   51.0973 H   0  0  0  0  0  0  0  0  0  0  0  0
  1  2  1  0
  2  3  1  0
  3  4  1  0
  4  5  1  0
  5  6  1  0
  6  7  1  0
  7  8  1  0
  8  9  1  0
  9 10  2  0
  9 11  1  0
 11 12  1  0
 12 13  1  0
 13 14  1  0
 14 15  1  0
  6 16  2  0
 16 17  1  0
 17 18  2  0
 18 19  1  0
 19 20  2  0
 20 21  1  0
 21 22  2  0
 22 23  1  0
 23 24  2  0
 23  5  1  0
 22 17  1  0
  1 25  1  0
  1 26  1  0
  1 27  1  0
  2 28  1  0
  2 29  1  0
  3 30  1  0
  3 31  1  0
  4 32  1  0
  4 33  1  0
  8 34  1  0
  8 35  1  0
 12 36  1  0
 12 37  1  0
 13 38  1  0
 13 39  1  0
 15 40  1  0
 15 41  1  0
 15 42  1  0
 18 43  1  0
 19 44  1  0
 20 45  1  0
 21 46  1  0
M  CHG  1  11  -1
M  END
>  <UniqueID>  (4) 
4

>  <SMILES>  (4) 
CCCCn1c(SCC(=O)[N-]CCOC)nc2ccccc2c1=O

>  <Energy>  (4) 
42.610711615445446

>  <Genealogy>  (4) 
CCCCn1c(SCC(=O)[N-]CCOC)nc2ccccc2c1=O (protonated)
CCCCn1c(SCC(=O)[N-]CCOC)nc2ccccc2c1=O (3D coordinates assigned)
CCCCn1c(SCC(=O)[N-]CCOC)nc2ccccc2c1=O (optimized conformer: 42.610711615445446 kcal/mol)

>  <smiles>  (4) 
CCCCn1c(SCC(=O)NCCOC)nc2ccccc2c1=O

>  <score_type>  (4) 
oracle

>  <origin>  (4) 
adg

>  <m_score__min__energy>  (4) 
-9.2400000000000002

>  <m_primary>  (4) 
energy

$$$$
4:0
     RDKit          3D

 49 51  0  0  0  0  0  0  0  0999 V2000
   56.6700   29.7560   43.3390 C   0  0  0  0  0  0  0  0  0  0  0  0
   56.2840   30.7150   44.4780 C   0  0  0  0  0  0  0  0  0  0  0  0
   57.4360   31.2690   45.2270 N   0  0  0  0  0  0  0  0  0  0  0  0
   58.5730   30.3370   45.3090 C   0  0  0  0  0  0  0  0  0  0  0  0
   57.8470   32.6130   44.7650 C   0  0  0  0  0  0  0  0  0  0  0  0
   57.3940   33.6730   45.7780 C   0  0  0  0  0  0  0  0  0  0  0  0
   58.4600   33.9490   46.8440 C   0  0  0  0  0  0  0  0  0  0  0  0
   59.1180   32.7150   47.2740 N   0  0  0  0  0  0  0  0  0  0  0  0
   60.0090   32.7310   48.4000 C   0  0  0  0  0  0  0  0  0  0  0  0
   59.5170   32.5190   49.6990 C   0  0  0  0  0  0  0  0  0  0  0  0
   58.1420   32.2930   49.9230 C   0  0  0  0  0  0  0  0  0  0  0  0
   57.6640   32.0200   51.2020 C   0  0  0  0  0  0  0  0  0  0  0  0
   58.5450   31.9590   52.2750 C   0  0  0  0  0  0  0  0  0  0  0  0
   59.9030   32.2080   52.0830 C   0  0  0  0  0  0  0  0  0  0  0  0
   60.4150   32.5340   50.8000 C   0  0  0  0  0  0  0  0  0  0  0  0
   61.7460   32.8520   50.6060 N   0  0  0  0  0  0  0  0  0  0  0  0
   62.6150   33.1480   51.7670 C   0  0  0  0  0  0  0  0  0  0  0  0
   62.2590   32.9240   49.3240 C   0  0  0  0  0  0  0  0  0  0  0  0
   63.6530   32.9970   49.0720 C   0  0  0  0  0  0  0  0  0  0  0  0
   64.1300   33.1090   47.8050 N   0  0  0  0  0  0  0  0  0  0  0  0
   63.3010   33.1410   46.7330 C   0  0  0  0  0  0  0  0  0  0  0  0
   61.9260   33.0320   46.9080 C   0  0  0  0  0  0  0  0  0  0  0  0
   61.3890   32.9040   48.2040 C   0  0  0  0  0  0  0  0  0  0  0  0
   57.0488   28.8150   43.7645 H   0  0  0  0  0  0  0  0  0  0  0  0
   55.7855   29.5482   42.7190 H   0  0  0  0  0  0  0  0  0  0  0  0
   57.4518   30.2190   42.7190 H   0  0  0  0  0  0  0  0  0  0  0  0
   55.7192   31.5539   44.0452 H   0  0  0  0  0  0  0  0  0  0  0  0
   55.6944   30.1277   45.1973 H   0  0  0  0  0  0  0  0  0  0  0  0
   58.8115   30.1415   46.3649 H   0  0  0  0  0  0  0  0  0  0  0  0
   58.3091   29.3920   44.8117 H   0  0  0  0  0  0  0  0  0  0  0  0
   59.4478   30.7812   44.8117 H   0  0  0  0  0  0  0  0  0  0  0  0
   58.9421   32.6462   44.6670 H   0  0  0  0  0  0  0  0  0  0  0  0
   57.3808   32.8199   43.7904 H   0  0  0  0  0  0  0  0  0  0  0  0
   57.1806   34.6085   45.2401 H   0  0  0  0  0  0  0  0  0  0  0  0
   56.4976   33.2907   46.2883 H   0  0  0  0  0  0  0  0  0  0  0  0
   59.2156   34.6305   46.4263 H   0  0  0  0  0  0  0  0  0  0  0  0
   57.9669   34.4005   47.7175 H   0  0  0  0  0  0  0  0  0  0  0  0
   58.6780   31.8010   47.0210 H   0  0  0  0  0  0  0  0  0  0  0  0
   57.4397   32.3330   49.0773 H   0  0  0  0  0  0  0  0  0  0  0  0
   56.5888   31.8526   51.3631 H   0  0  0  0  0  0  0  0  0  0  0  0
   58.1694   31.7134   53.2793 H   0  0  0  0  0  0  0  0  0  0  0  0
   60.5896   32.1509   52.9405 H   0  0  0  0  0  0  0  0  0  0  0  0
   62.0602   32.9590   52.6979 H   0  0  0  0  0  0  0  0  0  0  0  0
   63.5049   32.5023   51.7330 H   0  0  0  0  0  0  0  0  0  0  0  0
   62.9257   34.2027   51.7330 H   0  0  0  0  0  0  0  0  0  0  0  0
   64.3584   32.9624   49.9153 H   0  0  0  0  0  0  0  0  0  0  0  0
   65.1620   33.1640   47.6520 H   0  0  0  0  0  0  0  0  0  0  0  0
   63.7175   33.2536   45.7212 H   0  0  0  0  0  0  0  0  0  0  0  0
   61.2575   33.0457   46.0345 H   0  0  0  0  0  0  0  0  0  0  0  0
  1  2  1  0
  2  3  1  0
  3  4  1  0
  3  5  1  0
  5  6  1  0
  6  7  1  0
  7  8  1  0
  8  9  1  0
  9 10  2  0
 10 11  1  0
 11 12  2  0
 12 13  1  0
 13 14  2  0
 14 15  1  0
 15 16  2  0
 16 17  1  0
 16 18  1  0
 18 19  2  0
 19 20  1  0
 20 21  2  0
 21 22  1  0
 22 23  2  0
 23  9  1  0
 15 10  1  0
 23 18  1  0
  1 24  1  0
  1 25  1  0
  1 26  1  0
  2 27  1  0
  2 28  1  0
  4 29  1  0
  4 30  1  0
  4 31  1  0
  5 32  1  0
  5 33  1  0
  6 34  1  0
  6 35  1  0
  7 36  1  0
  7 37  1  0
  8 38  1  0
 11 39  1  0
 12 40  1  0
 13 41  1  0
 14 42  1  0
 17 43  1  0
 17 44  1  0
 17 45  1  0
 19 46  1  0
 20 47  1  0
 21 48  1  0
 22 49  1  0
M  CHG  2  16   1  20   1
M  END
>  <UniqueID>  (5) 
5

>  <SMILES>  (5) 
CCN(C)CCCNc1c2ccccc2[n+](C)c2c[nH+]ccc12

>  <Energy>  (5) 
75.97604060518343

>  <Genealogy>  (5) 
CCN(C)CCCNc1c2ccccc2[n+](C)c2c[nH+]ccc12 (protonated)
CCN(C)CCCNc1c2ccccc2[n+](C)c2c[nH+]ccc12 (3D coordinates assigned)
CCN(C)CCCNc1c2ccccc2[n+](C)c2c[nH+]ccc12 (optimized conformer: 75.97604060518343 kcal/mol)

>  <smiles>  (5) 
CCN(C)CCCNc1c2ccccc2[n+](C)c2cnccc12

>  <score_type>  (5) 
oracle

>  <origin>  (5) 
adg

>  <m_score__min__energy>  (5) 
-4.6299999999999999

>  <m_primary>  (5) 
energy

$$$$
5:0
     RDKit          3D

 65 67  0  0  0  0  0  0  0  0999 V2000
   57.5760   28.4070   53.5510 C   0  0  0  0  0  0  0  0  0  0  0  0
   56.4020   29.3970   53.6580 C   0  0  0  0  0  0  0  0  0  0  0  0
   55.9000   29.9250   52.3580 N   0  0  1  0  0  0  0  0  0  0  0  0
   54.4330   29.7970   52.2380 C   0  0  0  0  0  0  0  0  0  0  0  0
   56.3310   31.3230   52.0830 C   0  0  0  0  0  0  0  0  0  0  0  0
   57.5490   31.3990   51.1470 C   0  0  0  0  0  0  0  0  0  0  0  0
   58.0230   30.0940   50.8850 O   0  0  0  0  0  0  0  0  0  0  0  0
   59.4380   30.0770   50.8330 C   0  0  0  0  0  0  0  0  0  0  0  0
   59.9000   29.0190   49.8250 C   0  0  0  0  0  0  0  0  0  0  0  0
   59.8800   29.5250   48.3770 C   0  0  0  0  0  0  0  0  0  0  0  0
   58.5470   29.9980   47.9900 N   0  0  0  0  0  0  0  0  0  0  0  0
   58.2560   30.4140   46.6440 C   0  0  0  0  0  0  0  0  0  0  0  0
   57.8490   29.4720   45.6860 C   0  0  0  0  0  0  0  0  0  0  0  0
   57.6870   29.8670   44.3490 C   0  0  0  0  0  0  0  0  0  0  0  0
   57.7530   31.1990   44.0010 N   0  0  0  0  0  0  0  0  0  0  0  0
   57.3640   31.6150   42.6370 C   0  0  0  0  0  0  0  0  0  0  0  0
   58.1970   32.1370   44.9150 C   0  0  0  0  0  0  0  0  0  0  0  0
   58.4080   31.7640   46.2710 C   0  0  0  0  0  0  0  0  0  0  0  0
   58.8840   32.7700   47.3090 C   0  0  0  0  0  0  0  0  0  0  0  0
   58.7300   34.2260   46.8740 C   0  0  0  0  0  0  0  0  0  0  0  0
   59.2600   34.4000   45.4600 C   0  0  0  0  0  0  0  0  0  0  0  0
   58.4020   33.5890   44.4900 C   0  0  0  0  0  0  0  0  0  0  0  0
   57.4020   28.7660   43.3370 C   0  0  0  0  0  0  0  0  0  0  0  0
   58.2250   27.5070   43.6550 C   0  0  0  0  0  0  0  0  0  0  0  0
   58.0860   27.0260   45.1160 C   0  0  0  0  0  0  0  0  0  0  0  0
   57.4470   28.0590   46.0560 C   0  0  0  0  0  0  0  0  0  0  0  0
   57.9107   28.1247   54.5601 H   0  0  0  0  0  0  0  0  0  0  0  0
   57.2491   27.5078   53.0082 H   0  0  0  0  0  0  0  0  0  0  0  0
   58.4071   28.8810   53.0082 H   0  0  0  0  0  0  0  0  0  0  0  0
   55.5692   28.8849   54.1622 H   0  0  0  0  0  0  0  0  0  0  0  0
   56.7835   30.2656   54.2147 H   0  0  0  0  0  0  0  0  0  0  0  0
   56.3000   29.3040   51.6130 H   0  0  0  0  0  0  0  0  0  0  0  0
   53.9850   29.7579   53.2419 H   0  0  0  0  0  0  0  0  0  0  0  0
   54.0328   30.6636   51.6914 H   0  0  0  0  0  0  0  0  0  0  0  0
   54.1890   28.8742   51.6914 H   0  0  0  0  0  0  0  0  0  0  0  0
   55.4944   31.8630   51.6154 H   0  0  0  0  0  0  0  0  0  0  0  0
   56.6229   31.7740   53.0429 H   0  0  0  0  0  0  0  0  0  0  0  0
   57.2559   31.8794   50.2019 H   0  0  0  0  0  0  0  0  0  0  0  0
   58.3441   31.9888   51.6266 H   0  0  0  0  0  0  0  0  0  0  0  0
   59.8053   31.0658   50.5209 H   0  0  0  0  0  0  0  0  0  0  0  0
   59.8384   29.8343   51.8284 H   0  0  0  0  0  0  0  0  0  0  0  0
   60.9276   28.7186   50.0776 H   0  0  0  0  0  0  0  0  0  0  0  0
   59.1989   28.1738   49.8890 H   0  0  0  0  0  0  0  0  0  0  0  0
   60.5958   30.3544   48.2785 H   0  0  0  0  0  0  0  0  0  0  0  0
   60.1544   28.6895   47.7162 H   0  0  0  0  0  0  0  0  0  0  0  0
   57.8390   30.1700   48.7360 H   0  0  0  0  0  0  0  0  0  0  0  0
   56.6139   32.4172   42.6983 H   0  0  0  0  0  0  0  0  0  0  0  0
   58.2503   31.9821   42.0988 H   0  0  0  0  0  0  0  0  0  0  0  0
   56.9383   30.7552   42.0988 H   0  0  0  0  0  0  0  0  0  0  0  0
   58.3013   32.6199   48.2298 H   0  0  0  0  0  0  0  0  0  0  0  0
   59.9594   32.5924   47.4569 H   0  0  0  0  0  0  0  0  0  0  0  0
   57.6663   34.5049   46.9022 H   0  0  0  0  0  0  0  0  0  0  0  0
   59.3008   34.8715   47.5577 H   0  0  0  0  0  0  0  0  0  0  0  0
   59.2212   35.4637   45.1824 H   0  0  0  0  0  0  0  0  0  0  0  0
   60.3004   34.0460   45.4127 H   0  0  0  0  0  0  0  0  0  0  0  0
   57.4159   34.0705   44.4133 H   0  0  0  0  0  0  0  0  0  0  0  0
   58.9366   33.5692   43.5289 H   0  0  0  0  0  0  0  0  0  0  0  0
   56.3315   28.5149   43.3690 H   0  0  0  0  0  0  0  0  0  0  0  0
   57.6806   29.1262   42.3357 H   0  0  0  0  0  0  0  0  0  0  0  0
   57.8914   26.6970   42.9897 H   0  0  0  0  0  0  0  0  0  0  0  0
   59.2827   27.7677   43.5020 H   0  0  0  0  0  0  0  0  0  0  0  0
   57.4631   26.1194   45.1238 H   0  0  0  0  0  0  0  0  0  0  0  0
   59.1046   26.8436   45.4891 H   0  0  0  0  0  0  0  0  0  0  0  0
   56.3524   27.9708   45.9924 H   0  0  0  0  0  0  0  0  0  0  0  0
   57.7980   27.8576   47.0788 H   0  0  0  0  0  0  0  0  0  0  0  0
  1  2  1  0
  2  3  1  0
  3  4  1  0
  3  5  1  0
  5  6  1  0
  6  7  1  0
  7  8  1  0
  8  9  1  0
  9 10  1  0
 10 11  1  0
 11 12  1  0
 12 13  2  0
 13 14  1  0
 14 15  2  0
 15 16  1  0
 15 17  1  0
 17 18  2  0
 18 19  1  0
 19 20  1  0
 20 21  1  0
 21 22  1  0
 14 23  1  0
 23 24  1  0
 24 25  1  0
 25 26  1  0
 18 12  1  0
 26 13  1  0
 22 17  1  0
  1 27  1  0
  1 28  1  0
  1 29  1  0
  2 30  1  0
  2 31  1  0
  3 32  1  6
  4 33  1  0
  4 34  1  0
  4 35  1  0
  5 36  1  0
  5 37  1  0
  6 38  1  0
  6 39  1  0
  8 40  1  0
  8 41  1  0
  9 42  1  0
  9 43  1  0
 10 44  1  0
 10 45  1  0
 11 46  1  0
 16 47  1  0
 16 48  1  0
 16 49  1  0
 19 50  1  0
 19 51  1  0
 20 52  1  0
 20 53  1  0
 21 54  1  0
 21 55  1  0
 22 56  1  0
 22 57  1  0
 23 58  1  0
 23 59  1  0
 24 60  1  0
 24 61  1  0
 25 62  1  0
 25 63  1  0
 26 64  1  0
 26 65  1  0
M  CHG  2   3   1  15   1
M  END
>  <UniqueID>  (6) 
6

>  <SMILES>  (6) 
CC[N@@H+](C)CCOCCCNc1c2c([n+](C)c3c1CCCC3)CCCC2

>  <Energy>  (6) 
84.89668819393513

>  <Genealogy>  (6) 
CC[NH+](C)CCOCCCNc1c2c([n+](C)c3c1CCCC3)CCCC2 (protonated)
CC[N@@H+](C)CCOCCCNc1c2c([n+](C)c3c1CCCC3)CCCC2 (chirality)
CC[N@@H+](C)CCOCCCNc1c2c([n+](C)c3c1CCCC3)CCCC2 (3D coordinates assigned)
CC[N@@H+](C)CCOCCCNc1c2c([n+](C)c3c1CCCC3)CCCC2 (nonaromatic ring conformer: 84.89668819393513 kcal/mol)

>  <smiles>  (6) 
CCN(C)CCOCCCNc1c2c([n+](C)c3c1CCCC3)CCCC2

>  <score_type>  (6) 
oracle

>  <origin>  (6) 
adg

>  <m_score__min__energy>  (6) 
-4.4800000000000004

>  <m_primary>  (6) 
energy

$$$$
6:0
     RDKit          3D

 51 53  0  0  0  0  0  0  0  0999 V2000
   56.6200   30.2390   42.9480 C   0  0  0  0  0  0  0  0  0  0  0  0
   55.4210   29.8810   43.8170 C   0  0  0  0  0  0  0  0  0  0  0  0
   55.8320   28.9380   44.8600 N   0  0  0  0  0  0  0  0  0  0  0  0
   57.1590   28.3810   44.5750 C   0  0  0  0  0  0  0  0  0  0  0  0
   58.2120   29.0090   45.4990 C   0  0  0  0  0  0  0  0  0  0  0  0
   57.6700   30.1270   46.2820 N   0  0  0  0  0  0  0  0  0  0  0  0
   58.4960   31.1150   46.9280 C   0  0  0  0  0  0  0  0  0  0  0  0
   58.6360   32.4060   46.3850 C   0  0  0  0  0  0  0  0  0  0  0  0
   59.4740   33.3490   47.0400 C   0  0  0  0  0  0  0  0  0  0  0  0
   60.0970   33.0120   48.2280 N   0  0  0  0  0  0  0  0  0  0  0  0
   60.8410   34.0310   48.9990 C   0  0  0  0  0  0  0  0  0  0  0  0
   60.0500   31.7150   48.6940 C   0  0  0  0  0  0  0  0  0  0  0  0
   59.1960   30.7730   48.0960 C   0  0  0  0  0  0  0  0  0  0  0  0
   59.0030   29.4360   48.7850 C   0  0  0  0  0  0  0  0  0  0  0  0
   60.3280   28.8100   49.2590 C   0  0  0  0  0  0  0  0  0  0  0  0
   61.4350   29.8300   49.5860 C   0  0  0  0  0  0  0  0  0  0  0  0
   60.8930   31.2360   49.8650 C   0  0  0  0  0  0  0  0  0  0  0  0
   59.6170   34.7600   46.4720 C   0  0  0  0  0  0  0  0  0  0  0  0
   59.1650   34.9010   45.0210 C   0  0  0  0  0  0  0  0  0  0  0  0
   57.8070   34.2440   44.8380 C   0  0  0  0  0  0  0  0  0  0  0  0
   57.9350   32.7440   45.0810 C   0  0  0  0  0  0  0  0  0  0  0  0
   57.4754   30.4944   43.5907 H   0  0  0  0  0  0  0  0  0  0  0  0
   56.8821   29.3799   42.3129 H   0  0  0  0  0  0  0  0  0  0  0  0
   56.3682   31.1011   42.3129 H   0  0  0  0  0  0  0  0  0  0  0  0
   55.0230   30.7934   44.2850 H   0  0  0  0  0  0  0  0  0  0  0  0
   54.6434   29.4174   43.1922 H   0  0  0  0  0  0  0  0  0  0  0  0
   55.1450   28.1480   44.8790 H   0  0  0  0  0  0  0  0  0  0  0  0
   57.1378   27.2931   44.7362 H   0  0  0  0  0  0  0  0  0  0  0  0
   57.4226   28.6030   43.5304 H   0  0  0  0  0  0  0  0  0  0  0  0
   58.5802   28.2377   46.1915 H   0  0  0  0  0  0  0  0  0  0  0  0
   59.0227   29.4018   44.8677 H   0  0  0  0  0  0  0  0  0  0  0  0
   56.6560   30.1030   46.5290 H   0  0  0  0  0  0  0  0  0  0  0  0
   60.7066   33.8469   50.0751 H   0  0  0  0  0  0  0  0  0  0  0  0
   61.9103   33.9724   48.7477 H   0  0  0  0  0  0  0  0  0  0  0  0
   60.4596   35.0317   48.7477 H   0  0  0  0  0  0  0  0  0  0  0  0
   58.3513   29.5822   49.6590 H   0  0  0  0  0  0  0  0  0  0  0  0
   58.5561   28.7481   48.0521 H   0  0  0  0  0  0  0  0  0  0  0  0
   60.1249   28.2209   50.1655 H   0  0  0  0  0  0  0  0  0  0  0  0
   60.7019   28.1991   48.4241 H   0  0  0  0  0  0  0  0  0  0  0  0
   61.9801   29.4819   50.4758 H   0  0  0  0  0  0  0  0  0  0  0  0
   62.0884   29.8993   48.7038 H   0  0  0  0  0  0  0  0  0  0  0  0
   60.2733   31.2130   50.7736 H   0  0  0  0  0  0  0  0  0  0  0  0
   61.7385   31.9257   50.0048 H   0  0  0  0  0  0  0  0  0  0  0  0
   59.0139   35.4425   47.0887 H   0  0  0  0  0  0  0  0  0  0  0  0
   60.6901   35.0010   46.4928 H   0  0  0  0  0  0  0  0  0  0  0  0
   59.0920   35.9679   44.7634 H   0  0  0  0  0  0  0  0  0  0  0  0
   59.8973   34.4098   44.3634 H   0  0  0  0  0  0  0  0  0  0  0  0
   57.0919   34.6726   45.5556 H   0  0  0  0  0  0  0  0  0  0  0  0
   57.4472   34.4216   43.8138 H   0  0  0  0  0  0  0  0  0  0  0  0
   56.9261   32.3062   45.1029 H   0  0  0  0  0  0  0  0  0  0  0  0
   58.5470   32.3321   44.2650 H   0  0  0  0  0  0  0  0  0  0  0  0
  1  2  1  0
  2  3  1  0
  3  4  1  0
  4  5  1  0
  5  6  1  0
  6  7  1  0
  7  8  2  0
  8  9  1  0
  9 10  2  0
 10 11  1  0
 10 12  1  0
 12 13  2  0
 13 14  1  0
 14 15  1  0
 15 16  1  0
 16 17  1  0
  9 18  1  0
 18 19  1  0
 19 20  1  0
 20 21  1  0
 13  7  1  0
 21  8  1  0
 17 12  1  0
  1 22  1  0
  1 23  1  0
  1 24  1  0
  2 25  1  0
  2 26  1  0
  3 27  1  0
  4 28  1  0
  4 29  1  0
  5 30  1  0
  5 31  1  0
  6 32  1  0
 11 33  1  0
 11 34  1  0
 11 35  1  0
 14 36  1  0
 14 37  1  0
 15 38  1  0
 15 39  1  0
 16 40  1  0
 16 41  1  0
 17 42  1  0
 17 43  1  0
 18 44  1  0
 18 45  1  0
 19 46  1  0
 19 47  1  0
 20 48  1  0
 20 49  1  0
 21 50  1  0
 21 51  1  0
M  CHG  1  10   1
M  END
>  <UniqueID>  (7) 
7

>  <SMILES>  (7) 
CCNCCNc1c2c([n+](C)c3c1CCCC3)CCCC2

>  <Energy>  (7) 
61.30307945650903

>  <Genealogy>  (7) 
CCNCCNc1c2c([n+](C)c3c1CCCC3)CCCC2 (3D coordinates assigned)
CCNCCNc1c2c([n+](C)c3c1CCCC3)CCCC2 (nonaromatic ring conformer: 61.30307945650903 kcal/mol)

>  <smiles>  (7) 
CCNCCNc1c2c([n+](C)c3c1CCCC3)CCCC2

>  <score_type>  (7) 
oracle

>  <origin>  (7) 
adg

>  <m_score__min__energy>  (7) 
-6.2199999999999998

>  <m_primary>  (7) 
energy

$$$$
7:0
     RDKit          3D

 51 53  0  0  0  0  0  0  0  0999 V2000
   57.6940   34.2010   45.6140 C   0  0  0  0  0  0  0  0  0  0  0  0
   57.9880   33.1110   44.5880 C   0  0  0  0  0  0  0  0  0  0  0  0
   57.3610   31.8440   44.9920 N   0  0  0  0  0  0  0  0  0  0  0  0
   56.9920   31.0330   43.8230 C   0  0  0  0  0  0  0  0  0  0  0  0
   56.4960   29.6630   44.2730 C   0  0  0  0  0  0  0  0  0  0  0  0
   56.8900   29.4470   45.6110 O   0  0  0  0  0  0  0  0  0  0  0  0
   57.7180   28.3050   45.6820 C   0  0  0  0  0  0  0  0  0  0  0  0
   58.1970   28.1240   47.1250 C   0  0  0  0  0  0  0  0  0  0  0  0
   59.3560   28.9930   47.4250 N   0  0  0  0  0  0  0  0  0  0  0  0
   58.9860   30.0870   48.3580 C   0  0  0  0  0  0  0  0  0  0  0  0
   58.6670   31.3970   47.6160 C   0  0  0  0  0  0  0  0  0  0  0  0
   59.8220   31.8960   46.8200 N   0  0  0  0  0  0  0  0  0  0  0  0
   60.5260   33.0050   47.5110 C   0  0  2  0  0  0  0  0  0  0  0  0
   61.2110   33.8170   46.5410 O   0  0  0  0  0  0  0  0  0  0  0  0
   62.5830   33.7520   46.7230 C   0  0  0  0  0  0  0  0  0  0  0  0
   63.4230   34.3440   45.9970 O   0  0  0  0  0  0  0  0  0  0  0  0
   62.8780   32.9440   47.8730 C   0  0  0  0  0  0  0  0  0  0  0  0
   64.0920   32.6960   48.5110 C   0  0  0  0  0  0  0  0  0  0  0  0
   64.0660   31.9830   49.7210 C   0  0  0  0  0  0  0  0  0  0  0  0
   65.5640   31.6430   50.5670 Cl  0  0  0  0  0  0  0  0  0  0  0  0
   62.8360   31.5730   50.2750 C   0  0  0  0  0  0  0  0  0  0  0  0
   61.6290   31.8570   49.6160 C   0  0  0  0  0  0  0  0  0  0  0  0
   61.6730   32.5160   48.3800 C   0  0  0  0  0  0  0  0  0  0  0  0
   60.7480   30.8100   46.4170 C   0  0  0  0  0  0  0  0  0  0  0  0
   60.0050   29.4870   46.1850 C   0  0  0  0  0  0  0  0  0  0  0  0
   57.8050   33.7895   46.6281 H   0  0  0  0  0  0  0  0  0  0  0  0
   58.3997   35.0336   45.4769 H   0  0  0  0  0  0  0  0  0  0  0  0
   56.6654   34.5658   45.4769 H   0  0  0  0  0  0  0  0  0  0  0  0
   57.5890   33.4170   43.6097 H   0  0  0  0  0  0  0  0  0  0  0  0
   59.0765   32.9658   44.5238 H   0  0  0  0  0  0  0  0  0  0  0  0
   58.0670   31.3000   45.5430 H   0  0  0  0  0  0  0  0  0  0  0  0
   56.1944   31.5431   43.2631 H   0  0  0  0  0  0  0  0  0  0  0  0
   57.8754   30.9036   43.1805 H   0  0  0  0  0  0  0  0  0  0  0  0
   55.3989   29.6264   44.2014 H   0  0  0  0  0  0  0  0  0  0  0  0
   56.9267   28.8824   43.6287 H   0  0  0  0  0  0  0  0  0  0  0  0
   57.1492   27.4173   45.3684 H   0  0  0  0  0  0  0  0  0  0  0  0
   58.5845   28.4329   45.0166 H   0  0  0  0  0  0  0  0  0  0  0  0
   57.3738   28.3774   47.8092 H   0  0  0  0  0  0  0  0  0  0  0  0
   58.5077   27.0770   47.2566 H   0  0  0  0  0  0  0  0  0  0  0  0
   58.0994   29.7793   48.9317 H   0  0  0  0  0  0  0  0  0  0  0  0
   59.8447   30.2729   49.0199 H   0  0  0  0  0  0  0  0  0  0  0  0
   57.8200   31.2206   46.9366 H   0  0  0  0  0  0  0  0  0  0  0  0
   58.4268   32.1596   48.3715 H   0  0  0  0  0  0  0  0  0  0  0  0
   59.7498   33.5226   48.0938 H   0  0  0  0  0  0  0  0  0  0  0  0
   65.0411   33.0477   48.0804 H   0  0  0  0  0  0  0  0  0  0  0  0
   62.8218   31.0270   51.2298 H   0  0  0  0  0  0  0  0  0  0  0  0
   60.6661   31.5674   50.0620 H   0  0  0  0  0  0  0  0  0  0  0  0
   61.2557   31.1017   45.4858 H   0  0  0  0  0  0  0  0  0  0  0  0
   61.4728   30.6581   47.2304 H   0  0  0  0  0  0  0  0  0  0  0  0
   59.2330   29.6424   45.4170 H   0  0  0  0  0  0  0  0  0  0  0  0
   60.7398   28.7351   45.8615 H   0  0  0  0  0  0  0  0  0  0  0  0
  1  2  1  0
  2  3  1  0
  3  4  1  0
  4  5  1  0
  5  6  1  0
  6  7  1  0
  7  8  1  0
  8  9  1  0
  9 10  1  0
 10 11  1  0
 11 12  1  0
 12 13  1  0
 13 14  1  0
 14 15  1  0
 15 16  2  0
 15 17  1  0
 17 18  2  0
 18 19  1  0
 19 20  1  0
 19 21  2  0
 21 22  1  0
 22 23  2  0
 12 24  1  0
 24 25  1  0
 25  9  1  0
 23 13  1  0
 23 17  1  0
  1 26  1  0
  1 27  1  0
  1 28  1  0
  2 29  1  0
  2 30  1  0
  3 31  1  0
  4 32  1  0
  4 33  1  0
  5 34  1  0
  5 35  1  0
  7 36  1  0
  7 37  1  0
  8 38  1  0
  8 39  1  0
 10 40  1  0
 10 41  1  0
 11 42  1  0
 11 43  1  0
 13 44  1  1
 18 45  1  0
 21 46  1  0
 22 47  1  0
 24 48  1  0
 24 49  1  0
 25 50  1  0
 25 51  1  0
M  END
>  <UniqueID>  (8) 
8

>  <SMILES>  (8) 
CCNCCOCCN1CCN([C@@H]2OC(=O)c3cc(Cl)ccc32)CC1

>  <Energy>  (8) 
86.09709474439558

>  <Genealogy>  (8) 
CCNCCOCCN1CCN([C@@H]2OC(=O)c3cc(Cl)ccc32)CC1 (chirality)
CCNCCOCCN1CCN([C@@H]2OC(=O)c3cc(Cl)ccc32)CC1 (3D coordinates assigned)
CCNCCOCCN1CCN([C@@H]2OC(=O)c3cc(Cl)ccc32)CC1 (nonaromatic ring conformer: 86.09709474439558 kcal/mol)

>  <smiles>  (8) 
CCNCCOCCN1CCN(C2OC(=O)c3cc(Cl)ccc32)CC1

>  <score_type>  (8) 
oracle

>  <origin>  (8) 
adg

>  <m_score__min__energy>  (8) 
-7.9100000000000001

>  <m_primary>  (8) 
energy

$$$$
8:0
     RDKit          3D

 56 59  0  0  0  0  0  0  0  0999 V2000
   64.9150   32.3350   50.0340 C   0  0  0  0  0  0  0  0  0  0  0  0
   63.8710   33.4330   50.2810 C   0  0  0  0  0  0  0  0  0  0  0  0
   62.6920   33.3530   49.3890 N   0  0  0  0  0  0  0  0  0  0  0  0
   61.5020   33.9910   49.9810 C   0  0  0  0  0  0  0  0  0  0  0  0
   62.9740   33.8520   48.0240 C   0  0  0  0  0  0  0  0  0  0  0  0
   63.4530   32.7220   47.1030 C   0  0  0  0  0  0  0  0  0  0  0  0
   62.6850   31.4180   47.3480 C   0  0  0  0  0  0  0  0  0  0  0  0
   61.3430   31.6940   47.8570 N   0  0  0  0  0  0  0  0  0  0  0  0
   60.2040   31.5500   47.0030 C   0  0  0  0  0  0  0  0  0  0  0  0
   59.6120   30.3080   46.8240 C   0  0  0  0  0  0  0  0  0  0  0  0
   58.4950   30.1420   46.0220 C   0  0  0  0  0  0  0  0  0  0  0  0
   57.9770   31.1870   45.2870 N   0  0  0  0  0  0  0  0  0  0  0  0
   56.9390   30.9380   44.2670 C   0  0  0  0  0  0  0  0  0  0  0  0
   57.4640   31.2530   42.8660 C   0  0  0  0  0  0  0  0  0  0  0  0
   58.4980   32.4620   45.4890 C   0  0  0  0  0  0  0  0  0  0  0  0
   57.9340   33.6120   44.8760 C   0  0  0  0  0  0  0  0  0  0  0  0
   58.4820   34.8790   45.0750 C   0  0  0  0  0  0  0  0  0  0  0  0
   59.5960   35.0450   45.8900 C   0  0  0  0  0  0  0  0  0  0  0  0
   60.1670   33.9450   46.5240 C   0  0  0  0  0  0  0  0  0  0  0  0
   59.6330   32.6540   46.3430 C   0  0  0  0  0  0  0  0  0  0  0  0
   58.1120   28.6980   46.0840 C   0  0  0  0  0  0  0  0  0  0  0  0
   56.9930   27.9850   45.6130 C   0  0  0  0  0  0  0  0  0  0  0  0
   56.8990   26.6110   45.8860 C   0  0  0  0  0  0  0  0  0  0  0  0
   57.8860   25.9610   46.6470 C   0  0  0  0  0  0  0  0  0  0  0  0
   58.9710   26.6830   47.1590 C   0  0  0  0  0  0  0  0  0  0  0  0
   59.0540   28.0440   46.8710 C   0  0  0  0  0  0  0  0  0  0  0  0
   60.0180   29.0120   47.3530 C   0  0  0  0  0  0  0  0  0  0  0  0
   61.0220   28.7690   48.0740 O   0  0  0  0  0  0  0  0  0  0  0  0
   65.2793   31.9518   50.9986 H   0  0  0  0  0  0  0  0  0  0  0  0
   64.4560   31.5143   49.4632 H   0  0  0  0  0  0  0  0  0  0  0  0
   65.7578   32.7521   49.4632 H   0  0  0  0  0  0  0  0  0  0  0  0
   63.5238   33.3526   51.3217 H   0  0  0  0  0  0  0  0  0  0  0  0
   64.3638   34.3941   50.0726 H   0  0  0  0  0  0  0  0  0  0  0  0
   61.5731   33.9529   51.0780 H   0  0  0  0  0  0  0  0  0  0  0  0
   61.4469   35.0396   49.6533 H   0  0  0  0  0  0  0  0  0  0  0  0
   60.5982   33.4565   49.6533 H   0  0  0  0  0  0  0  0  0  0  0  0
   62.0554   34.2894   47.6059 H   0  0  0  0  0  0  0  0  0  0  0  0
   63.7712   34.6071   48.0891 H   0  0  0  0  0  0  0  0  0  0  0  0
   63.3061   33.0297   46.0572 H   0  0  0  0  0  0  0  0  0  0  0  0
   64.5158   32.5361   47.3171 H   0  0  0  0  0  0  0  0  0  0  0  0
   62.6047   30.8634   46.4014 H   0  0  0  0  0  0  0  0  0  0  0  0
   63.2301   30.8228   48.0954 H   0  0  0  0  0  0  0  0  0  0  0  0
   61.1800   31.8280   48.8820 H   0  0  0  0  0  0  0  0  0  0  0  0
   56.6384   29.8807   44.3097 H   0  0  0  0  0  0  0  0  0  0  0  0
   56.0784   31.5908   44.4748 H   0  0  0  0  0  0  0  0  0  0  0  0
   58.4048   31.8175   42.9453 H   0  0  0  0  0  0  0  0  0  0  0  0
   57.6446   30.3139   42.3224 H   0  0  0  0  0  0  0  0  0  0  0  0
   56.7204   31.8542   42.3224 H   0  0  0  0  0  0  0  0  0  0  0  0
   57.0488   33.5016   44.2325 H   0  0  0  0  0  0  0  0  0  0  0  0
   58.0296   35.7530   44.5837 H   0  0  0  0  0  0  0  0  0  0  0  0
   60.0268   36.0468   46.0341 H   0  0  0  0  0  0  0  0  0  0  0  0
   61.0441   34.0853   47.1729 H   0  0  0  0  0  0  0  0  0  0  0  0
   56.2051   28.4962   45.0404 H   0  0  0  0  0  0  0  0  0  0  0  0
   56.0437   26.0369   45.5002 H   0  0  0  0  0  0  0  0  0  0  0  0
   57.8058   24.8812   46.8410 H   0  0  0  0  0  0  0  0  0  0  0  0
   59.7383   26.1886   47.7729 H   0  0  0  0  0  0  0  0  0  0  0  0
  1  2  1  0
  2  3  1  0
  3  4  1  0
  3  5  1  0
  5  6  1  0
  6  7  1  0
  7  8  1  0
  8  9  1  0
  9 10  2  0
 10 11  1  0
 11 12  2  0
 12 13  1  0
 13 14  1  0
 12 15  1  0
 15 16  2  0
 16 17  1  0
 17 18  2  0
 18 19  1  0
 19 20  2  0
 11 21  1  0
 21 22  2  0
 22 23  1  0
 23 24  2  0
 24 25  1  0
 25 26  2  0
 26 27  1  0
 27 28  2  0
 20  9  1  0
 26 21  1  0
 27 10  1  0
 20 15  1  0
  1 29  1  0
  1 30  1  0
  1 31  1  0
  2 32  1  0
  2 33  1  0
  4 34  1  0
  4 35  1  0
  4 36  1  0
  5 37  1  0
  5 38  1  0
  6 39  1  0
  6 40  1  0
  7 41  1  0
  7 42  1  0
  8 43  1  0
 13 44  1  0
 13 45  1  0
 14 46  1  0
 14 47  1  0
 14 48  1  0
 16 49  1  0
 17 50  1  0
 18 51  1  0
 19 52  1  0
 22 53  1  0
 23 54  1  0
 24 55  1  0
 25 56  1  0
M  CHG  1  12   1
M  END
>  <UniqueID>  (9) 
9

>  <SMILES>  (9) 
CCN(C)CCCNc1c2c([n+](CC)c3ccccc13)-c1ccccc1C2=O

>  <Energy>  (9) 
110.23206655628017

>  <Genealogy>  (9) 
CCN(C)CCCNc1c2c([n+](CC)c3ccccc13)-c1ccccc1C2=O (3D coordinates assigned)
CCN(C)CCCNc1c2c([n+](CC)c3ccccc13)-c1ccccc1C2=O (nonaromatic ring conformer: 110.23206655628017 kcal/mol)

>  <smiles>  (9) 
CCN(C)CCCNc1c2c([n+](CC)c3ccccc13)-c1ccccc1C2=O

>  <score_type>  (9) 
oracle

>  <origin>  (9) 
adg

>  <m_score__min__energy>  (9) 
-6.5800000000000001

>  <m_primary>  (9) 
energy

$$$$
9:0
     RDKit          3D

 32 33  0  0  0  0  0  0  0  0999 V2000
   60.6580   32.0100   46.7360 C   0  0  0  0  0  0  0  0  0  0  0  0
   60.0220   33.2430   47.1850 N   0  0  0  0  0  0  0  0  0  0  0  0
   59.9950   33.7220   48.4400 C   0  0  0  0  0  0  0  0  0  0  0  0
   59.4440   34.9500   48.4600 N   0  0  0  0  0  0  0  0  0  0  0  0
   59.1240   35.2840   47.2190 N   0  0  0  0  0  0  0  0  0  0  0  0
   59.4800   34.2360   46.4490 C   0  0  0  0  0  0  0  0  0  0  0  0
   59.2740   34.2060   44.6660 S   0  0  0  0  0  0  0  0  0  0  0  0
   57.4860   33.8200   44.7190 C   0  0  0  0  0  0  0  0  0  0  0  0
   57.2070   32.4120   45.2590 C   0  0  0  0  0  0  0  0  0  0  0  0
   57.8970   31.3690   44.4610 N   0  0  0  0  0  0  0  0  0  0  0  0
   58.2220   30.1620   45.2610 C   0  0  0  0  0  0  0  0  0  0  0  0
   57.1030   29.1000   45.2200 C   0  0  0  0  0  0  0  0  0  0  0  0
   55.8640   29.6870   44.8880 O   0  0  0  0  0  0  0  0  0  0  0  0
   55.8960   30.1540   43.5510 C   0  0  0  0  0  0  0  0  0  0  0  0
   57.1570   30.9950   43.2380 C   0  0  0  0  0  0  0  0  0  0  0  0
   60.9643   31.4162   47.6098 H   0  0  0  0  0  0  0  0  0  0  0  0
   59.9465   31.4301   46.1297 H   0  0  0  0  0  0  0  0  0  0  0  0
   61.5429   32.2536   46.1297 H   0  0  0  0  0  0  0  0  0  0  0  0
   60.3698   33.1869   49.3250 H   0  0  0  0  0  0  0  0  0  0  0  0
   59.3040   35.5580   49.2960 H   0  0  0  0  0  0  0  0  0  0  0  0
   56.9856   34.5530   45.3688 H   0  0  0  0  0  0  0  0  0  0  0  0
   57.1026   33.8660   43.6890 H   0  0  0  0  0  0  0  0  0  0  0  0
   57.5577   32.3540   46.3000 H   0  0  0  0  0  0  0  0  0  0  0  0
   56.1240   32.2301   45.1959 H   0  0  0  0  0  0  0  0  0  0  0  0
   59.1456   29.7153   44.8643 H   0  0  0  0  0  0  0  0  0  0  0  0
   58.3400   30.4795   46.3076 H   0  0  0  0  0  0  0  0  0  0  0  0
   57.3551   28.3401   44.4657 H   0  0  0  0  0  0  0  0  0  0  0  0
   57.0184   28.6399   46.2156 H   0  0  0  0  0  0  0  0  0  0  0  0
   55.8760   29.2862   42.8753 H   0  0  0  0  0  0  0  0  0  0  0  0
   55.0207   30.8045   43.4070 H   0  0  0  0  0  0  0  0  0  0  0  0
   57.8218   30.4077   42.5875 H   0  0  0  0  0  0  0  0  0  0  0  0
   56.8302   31.9222   42.7446 H   0  0  0  0  0  0  0  0  0  0  0  0
  1  2  1  0
  2  3  1  0
  3  4  2  0
  4  5  1  0
  5  6  2  0
  6  7  1  0
  7  8  1  0
  8  9  1  0
  9 10  1  0
 10 11  1  0
 11 12  1  0
 12 13  1  0
 13 14  1  0
 14 15  1  0
  6  2  1  0
 15 10  1  0
  1 16  1  0
  1 17  1  0
  1 18  1  0
  3 19  1  0
  4 20  1  0
  8 21  1  0
  8 22  1  0
  9 23  1  0
  9 24  1  0
 11 25  1  0
 11 26  1  0
 12 27  1  0
 12 28  1  0
 14 29  1  0
 14 30  1  0
 15 31  1  0
 15 32  1  0
M  CHG  1   4   1
M  END
>  <UniqueID>  (10) 
10

>  <SMILES>  (10) 
Cn1c[nH+]nc1SCCN1CCOCC1

>  <Energy>  (10) 
72.98527835849052

>  <Genealogy>  (10) 
Cn1c[nH+]nc1SCCN1CCOCC1 (protonated)
Cn1c[nH+]nc1SCCN1CCOCC1 (3D coordinates assigned)
Cn1c[nH+]nc1SCCN1CCOCC1 (nonaromatic ring conformer: 72.98527835849052 kcal/mol)

>  <smiles>  (10) 
Cn1cnnc1SCCN1CCOCC1

>  <score_type>  (10) 
oracle

>  <origin>  (10) 
adg

>  <m_score__min__energy>  (10) 
-4.6399999999999997

>  <m_primary>  (10) 
energy

$$$$
10:0
     RDKit          3D

 57 59  0  0  0  0  0  0  0  0999 V2000
   57.1830   32.6790   40.4140 C   0  0  0  0  0  0  0  0  0  0  0  0
   58.1210   32.3440   41.5630 C   0  0  0  0  0  0  0  0  0  0  0  0
   57.3890   32.3280   42.7860 O   0  0  0  0  0  0  0  0  0  0  0  0
   57.9100   32.7050   44.0330 C   0  0  0  0  0  0  0  0  0  0  0  0
   58.7260   33.8430   44.1880 C   0  0  0  0  0  0  0  0  0  0  0  0
   59.2080   34.2000   45.4480 C   0  0  0  0  0  0  0  0  0  0  0  0
   58.8710   33.4440   46.5770 C   0  0  0  0  0  0  0  0  0  0  0  0
   59.3950   33.8320   47.9420 C   0  0  0  0  0  0  0  0  0  0  0  0
   60.8570   34.1030   48.0030 N   0  0  0  0  0  0  0  0  0  0  0  0
   61.4010   34.2550   49.3780 C   0  0  0  0  0  0  0  0  0  0  0  0
   62.0050   32.9670   49.9720 C   0  0  0  0  0  0  0  0  0  0  0  0
   62.9090   32.2670   49.0440 N   0  0  0  0  0  0  0  0  0  0  0  0
   64.2160   32.9390   48.8670 C   0  0  0  0  0  0  0  0  0  0  0  0
   65.1970   32.4230   49.8830 C   0  0  0  0  0  0  0  0  0  0  0  0
   66.4170   33.0850   50.1020 C   0  0  0  0  0  0  0  0  0  0  0  0
   67.3130   32.6100   51.0660 C   0  0  0  0  0  0  0  0  0  0  0  0
   66.9960   31.4740   51.8180 C   0  0  0  0  0  0  0  0  0  0  0  0
   67.8640   31.0170   52.7560 F   0  0  0  0  0  0  0  0  0  0  0  0
   65.7810   30.8160   51.6100 C   0  0  0  0  0  0  0  0  0  0  0  0
   64.8820   31.2890   50.6500 C   0  0  0  0  0  0  0  0  0  0  0  0
   62.2240   31.9830   47.7760 C   0  0  0  0  0  0  0  0  0  0  0  0
   61.6830   33.2560   47.1070 C   0  0  0  0  0  0  0  0  0  0  0  0
   58.1060   32.2790   46.4180 C   0  0  0  0  0  0  0  0  0  0  0  0
   57.6060   31.9130   45.1510 C   0  0  0  0  0  0  0  0  0  0  0  0
   56.8140   30.7680   44.9540 O   0  0  0  0  0  0  0  0  0  0  0  0
   57.1240   29.6760   44.0890 C   0  0  0  0  0  0  0  0  0  0  0  0
   58.4420   29.0230   44.4870 C   0  0  0  0  0  0  0  0  0  0  0  0
   56.2188   33.0233   40.8163 H   0  0  0  0  0  0  0  0  0  0  0  0
   57.6279   33.4738   39.7973 H   0  0  0  0  0  0  0  0  0  0  0  0
   57.0237   31.7822   39.7973 H   0  0  0  0  0  0  0  0  0  0  0  0
   58.5710   31.3549   41.3923 H   0  0  0  0  0  0  0  0  0  0  0  0
   58.9147   33.1034   41.6211 H   0  0  0  0  0  0  0  0  0  0  0  0
   58.9847   34.4538   43.3105 H   0  0  0  0  0  0  0  0  0  0  0  0
   59.8572   35.0815   45.5548 H   0  0  0  0  0  0  0  0  0  0  0  0
   58.8661   34.7411   48.2643 H   0  0  0  0  0  0  0  0  0  0  0  0
   59.2163   32.9661   48.5964 H   0  0  0  0  0  0  0  0  0  0  0  0
   60.9320   35.0630   47.5880 H   0  0  0  0  0  0  0  0  0  0  0  0
   62.1874   35.0238   49.3534 H   0  0  0  0  0  0  0  0  0  0  0  0
   60.5523   34.5287   50.0220 H   0  0  0  0  0  0  0  0  0  0  0  0
   62.5706   33.2317   50.8776 H   0  0  0  0  0  0  0  0  0  0  0  0
   61.1697   32.2854   50.1901 H   0  0  0  0  0  0  0  0  0  0  0  0
   64.5971   32.7353   47.8554 H   0  0  0  0  0  0  0  0  0  0  0  0
   64.0881   34.0229   49.0042 H   0  0  0  0  0  0  0  0  0  0  0  0
   66.6685   33.9797   49.5136 H   0  0  0  0  0  0  0  0  0  0  0  0
   68.2677   33.1305   51.2326 H   0  0  0  0  0  0  0  0  0  0  0  0
   65.5315   29.9238   52.2031 H   0  0  0  0  0  0  0  0  0  0  0  0
   63.9240   30.7712   50.4944 H   0  0  0  0  0  0  0  0  0  0  0  0
   62.9350   31.4982   47.0908 H   0  0  0  0  0  0  0  0  0  0  0  0
   61.3676   31.3286   47.9957 H   0  0  0  0  0  0  0  0  0  0  0  0
   62.5379   33.8533   46.7572 H   0  0  0  0  0  0  0  0  0  0  0  0
   61.0295   32.9306   46.2842 H   0  0  0  0  0  0  0  0  0  0  0  0
   57.8938   31.6441   47.2908 H   0  0  0  0  0  0  0  0  0  0  0  0
   56.3191   28.9287   44.1501 H   0  0  0  0  0  0  0  0  0  0  0  0
   57.2175   30.0576   43.0616 H   0  0  0  0  0  0  0  0  0  0  0  0
   58.5164   28.9861   45.5839 H   0  0  0  0  0  0  0  0  0  0  0  0
   58.4818   28.0010   44.0822 H   0  0  0  0  0  0  0  0  0  0  0  0
   59.2792   29.6105   44.0822 H   0  0  0  0  0  0  0  0  0  0  0  0
  1  2  1  0
  2  3  1  0
  3  4  1  0
  4  5  2  0
  5  6  1  0
  6  7  2  0
  7  8  1  0
  8  9  1  0
  9 10  1  0
 10 11  1  0
 11 12  1  0
 12 13  1  0
 13 14  1  0
 14 15  2  0
 15 16  1  0
 16 17  2  0
 17 18  1  0
 17 19  1  0
 19 20  2  0
 12 21  1  0
 21 22  1  0
  7 23  1  0
 23 24  2  0
 24 25  1  0
 25 26  1  0
 26 27  1  0
 24  4  1  0
 22  9  1  0
 20 14  1  0
  1 28  1  0
  1 29  1  0
  1 30  1  0
  2 31  1  0
  2 32  1  0
  5 33  1  0
  6 34  1  0
  8 35  1  0
  8 36  1  0
  9 37  1  0
 10 38  1  0
 10 39  1  0
 11 40  1  0
 11 41  1  0
 13 42  1  0
 13 43  1  0
 15 44  1  0
 16 45  1  0
 19 46  1  0
 20 47  1  0
 21 48  1  0
 21 49  1  0
 22 50  1  0
 22 51  1  0
 23 52  1  0
 26 53  1  0
 26 54  1  0
 27 55  1  0
 27 56  1  0
 27 57  1  0
M  CHG  1   9   1
M  END
>  <UniqueID>  (11) 
11

>  <SMILES>  (11) 
CCOc1ccc(C[NH+]2CCN(Cc3ccc(F)cc3)CC2)cc1OCC

>  <Energy>  (11) 
65.95246054408081

>  <Genealogy>  (11) 
CCOc1ccc(C[NH+]2CCN(Cc3ccc(F)cc3)CC2)cc1OCC (protonated)
CCOc1ccc(C[NH+]2CCN(Cc3ccc(F)cc3)CC2)cc1OCC (3D coordinates assigned)
CCOc1ccc(C[NH+]2CCN(Cc3ccc(F)cc3)CC2)cc1OCC (nonaromatic ring conformer: 65.95246054408081 kcal/mol)

>  <smiles>  (11) 
CCOc1ccc(CN2CCN(Cc3ccc(F)cc3)CC2)cc1OCC

>  <score_type>  (11) 
oracle

>  <origin>  (11) 
adg

>  <m_score__min__energy>  (11) 
-6.5099999999999998

>  <m_primary>  (11) 
energy

$$$$
11:0
     RDKit          3D

 68 71  0  0  0  0  0  0  0  0999 V2000
   58.2470   33.5540   52.4940 C   0  0  0  0  0  0  0  0  0  0  0  0
   58.2520   32.0780   52.1000 C   0  0  0  0  0  0  0  0  0  0  0  0
   59.0830   31.8660   50.9050 N   0  0  0  0  0  0  0  0  0  0  0  0
   58.7940   32.5750   49.6550 C   0  0  0  0  0  0  0  0  0  0  0  0
   59.7190   33.7860   49.4870 C   0  0  0  0  0  0  0  0  0  0  0  0
   60.9630   33.5490   50.1150 O   0  0  0  0  0  0  0  0  0  0  0  0
   61.8990   34.5870   49.8580 C   0  0  0  0  0  0  0  0  0  0  0  0
   63.0540   34.0390   49.0240 C   0  0  0  0  0  0  0  0  0  0  0  0
   63.1500   32.5760   49.1890 N   0  0  0  0  0  0  0  0  0  0  0  0
   63.7200   31.9280   47.9970 C   0  0  0  0  0  0  0  0  0  0  0  0
   62.6070   31.2630   47.1770 C   0  0  0  0  0  0  0  0  0  0  0  0
   61.2860   31.6740   47.6460 N   0  0  0  0  0  0  0  0  0  0  0  0
   60.1360   31.4180   46.8270 C   0  0  0  0  0  0  0  0  0  0  0  0
   59.6310   30.1150   46.7050 C   0  0  0  0  0  0  0  0  0  0  0  0
   60.1780   29.0600   47.4650 C   0  0  0  0  0  0  0  0  0  0  0  0
   59.6430   27.7750   47.3820 C   0  0  0  0  0  0  0  0  0  0  0  0
   58.5550   27.5250   46.5530 C   0  0  0  0  0  0  0  0  0  0  0  0
   58.0060   28.5520   45.7850 C   0  0  0  0  0  0  0  0  0  0  0  0
   58.5480   29.8630   45.8190 C   0  0  0  0  0  0  0  0  0  0  0  0
   58.0440   30.8850   45.0340 N   0  0  0  0  0  0  0  0  0  0  0  0
   57.1160   30.5750   43.9230 C   0  0  0  0  0  0  0  0  0  0  0  0
   58.4240   32.1940   45.2710 C   0  0  0  0  0  0  0  0  0  0  0  0
   57.7520   33.2920   44.6740 C   0  0  0  0  0  0  0  0  0  0  0  0
   58.1850   34.6010   44.8810 C   0  0  0  0  0  0  0  0  0  0  0  0
   59.2860   34.8560   45.6910 C   0  0  0  0  0  0  0  0  0  0  0  0
   59.9380   33.8050   46.3300 C   0  0  0  0  0  0  0  0  0  0  0  0
   59.5070   32.4740   46.1470 C   0  0  0  0  0  0  0  0  0  0  0  0
   59.9980   30.7630   50.8810 C   0  0  0  0  0  0  0  0  0  0  0  0
   59.5200   29.4490   50.9730 C   0  0  0  0  0  0  0  0  0  0  0  0
   60.4260   28.3870   50.9480 C   0  0  0  0  0  0  0  0  0  0  0  0
   61.7980   28.6480   50.8700 C   0  0  0  0  0  0  0  0  0  0  0  0
   62.2410   29.9740   50.8060 C   0  0  0  0  0  0  0  0  0  0  0  0
   61.3410   30.9950   50.7990 N   0  0  0  0  0  0  0  0  0  0  0  0
   58.2467   33.6408   53.5906 H   0  0  0  0  0  0  0  0  0  0  0  0
   59.1435   34.0450   52.0876 H   0  0  0  0  0  0  0  0  0  0  0  0
   57.3472   34.0390   52.0876 H   0  0  0  0  0  0  0  0  0  0  0  0
   58.6561   31.4827   52.9321 H   0  0  0  0  0  0  0  0  0  0  0  0
   57.2211   31.7664   51.8760 H   0  0  0  0  0  0  0  0  0  0  0  0
   58.9424   31.8882   48.8087 H   0  0  0  0  0  0  0  0  0  0  0  0
   57.7530   32.9291   49.6842 H   0  0  0  0  0  0  0  0  0  0  0  0
   59.8837   33.9699   48.4151 H   0  0  0  0  0  0  0  0  0  0  0  0
   59.2460   34.6627   49.9535 H   0  0  0  0  0  0  0  0  0  0  0  0
   61.4027   35.3995   49.3071 H   0  0  0  0  0  0  0  0  0  0  0  0
   62.2878   34.9732   50.8118 H   0  0  0  0  0  0  0  0  0  0  0  0
   62.8808   34.2748   47.9636 H   0  0  0  0  0  0  0  0  0  0  0  0
   63.9930   34.5015   49.3622 H   0  0  0  0  0  0  0  0  0  0  0  0
   62.1840   32.2000   49.3360 H   0  0  0  0  0  0  0  0  0  0  0  0
   64.2258   32.6840   47.3784 H   0  0  0  0  0  0  0  0  0  0  0  0
   64.4417   31.1608   48.3141 H   0  0  0  0  0  0  0  0  0  0  0  0
   62.7184   31.5512   46.1213 H   0  0  0  0  0  0  0  0  0  0  0  0
   62.6936   30.1726   47.2933 H   0  0  0  0  0  0  0  0  0  0  0  0
   61.1870   32.3380   48.4470 H   0  0  0  0  0  0  0  0  0  0  0  0
   61.0338   29.2526   48.1287 H   0  0  0  0  0  0  0  0  0  0  0  0
   60.0823   26.9579   47.9731 H   0  0  0  0  0  0  0  0  0  0  0  0
   58.1256   26.5135   46.5026 H   0  0  0  0  0  0  0  0  0  0  0  0
   57.1384   28.3420   45.1422 H   0  0  0  0  0  0  0  0  0  0  0  0
   56.1480   30.2516   44.3332 H   0  0  0  0  0  0  0  0  0  0  0  0
   56.9707   31.4734   43.3051 H   0  0  0  0  0  0  0  0  0  0  0  0
   57.5398   29.7696   43.3051 H   0  0  0  0  0  0  0  0  0  0  0  0
   56.8744   33.1072   44.0370 H   0  0  0  0  0  0  0  0  0  0  0  0
   57.6532   35.4359   44.4013 H   0  0  0  0  0  0  0  0  0  0  0  0
   59.6418   35.8880   45.8269 H   0  0  0  0  0  0  0  0  0  0  0  0
   60.7975   34.0142   46.9839 H   0  0  0  0  0  0  0  0  0  0  0  0
   58.4409   29.2560   51.0641 H   0  0  0  0  0  0  0  0  0  0  0  0
   60.0625   27.3496   50.9895 H   0  0  0  0  0  0  0  0  0  0  0  0
   62.5214   27.8194   50.8591 H   0  0  0  0  0  0  0  0  0  0  0  0
   63.3184   30.1914   50.7613 H   0  0  0  0  0  0  0  0  0  0  0  0
   61.6890   31.9770   50.7190 H   0  0  0  0  0  0  0  0  0  0  0  0
  1  2  1  0
  2  3  1  0
  3  4  1  0
  4  5  1  0
  5  6  1  0
  6  7  1  0
  7  8  1  0
  8  9  1  0
  9 10  1  0
 10 11  1  0
 11 12  1  0
 12 13  1  0
 13 14  1  0
 14 15  2  0
 15 16  1  0
 16 17  2  0
 17 18  1  0
 18 19  2  0
 19 20  1  0
 20 21  1  0
 20 22  2  0
 22 23  1  0
 23 24  2  0
 24 25  1  0
 25 26  2  0
 26 27  1  0
  3 28  1  0
 28 29  2  0
 29 30  1  0
 30 31  2  0
 31 32  1  0
 32 33  2  0
 27 13  2  0
 33 28  1  0
 19 14  1  0
 27 22  1  0
  1 34  1  0
  1 35  1  0
  1 36  1  0
  2 37  1  0
  2 38  1  0
  4 39  1  0
  4 40  1  0
  5 41  1  0
  5 42  1  0
  7 43  1  0
  7 44  1  0
  8 45  1  0
  8 46  1  0
  9 47  1  0
 10 48  1  0
 10 49  1  0
 11 50  1  0
 11 51  1  0
 12 52  1  0
 15 53  1  0
 16 54  1  0
 17 55  1  0
 18 56  1  0
 21 57  1  0
 21 58  1  0
 21 59  1  0
 23 60  1  0
 24 61  1  0
 25 62  1  0
 26 63  1  0
 29 64  1  0
 30 65  1  0
 31 66  1  0
 32 67  1  0
 33 68  1  0
M  CHG  2  20   1  33   1
M  END
>  <UniqueID>  (12) 
12

>  <SMILES>  (12) 
CCN(CCOCCNCCNc1c2ccccc2[n+](C)c2ccccc12)c1cccc[nH+]1

>  <Energy>  (12) 
94.69165407216613

>  <Genealogy>  (12) 
CCN(CCOCCNCCNc1c2ccccc2[n+](C)c2ccccc12)c1cccc[nH+]1 (protonated)
CCN(CCOCCNCCNc1c2ccccc2[n+](C)c2ccccc12)c1cccc[nH+]1 (3D coordinates assigned)
CCN(CCOCCNCCNc1c2ccccc2[n+](C)c2ccccc12)c1cccc[nH+]1 (optimized conformer: 94.69165407216613 kcal/mol)

>  <smiles>  (12) 
CCN(CCOCCNCCNc1c2ccccc2[n+](C)c2ccccc12)c1ccccn1

>  <score_type>  (12) 
oracle

>  <origin>  (12) 
adg

>  <m_score__min__energy>  (12) 
-4.5300000000000002

>  <m_primary>  (12) 
energy

$$$$
12:0
     RDKit          3D

 65 67  0  0  0  0  0  0  0  0999 V2000
   63.3610   33.9450   46.3680 C   0  0  0  0  0  0  0  0  0  0  0  0
   63.6870   32.7030   47.1990 C   0  0  0  0  0  0  0  0  0  0  0  0
   62.5070   32.2520   48.0800 C   0  0  0  0  0  0  0  0  0  0  0  0
   62.2670   33.1600   49.2950 C   0  0  0  0  0  0  0  0  0  0  0  0
   61.0790   32.6920   50.0550 N   0  0  0  0  0  0  0  0  0  0  0  0
   61.4490   31.8210   51.1940 C   0  0  0  0  0  0  0  0  0  0  0  0
   61.9790   30.4720   50.6840 C   0  0  0  0  0  0  0  0  0  0  0  0
   60.8240   29.5730   50.2130 C   0  0  0  0  0  0  0  0  0  0  0  0
   60.4250   29.8340   48.7470 C   0  0  0  0  0  0  0  0  0  0  0  0
   59.3380   30.8240   48.5900 N   0  0  0  0  0  0  0  0  0  0  0  0
   59.0480   31.0980   47.1910 C   0  0  0  0  0  0  0  0  0  0  0  0
   59.0990   32.4010   46.6110 C   0  0  0  0  0  0  0  0  0  0  0  0
   59.6050   33.5190   47.3180 C   0  0  0  0  0  0  0  0  0  0  0  0
   59.6630   34.7780   46.7310 C   0  0  0  0  0  0  0  0  0  0  0  0
   59.2320   34.9610   45.4240 C   0  0  0  0  0  0  0  0  0  0  0  0
   58.7360   33.8860   44.6900 C   0  0  0  0  0  0  0  0  0  0  0  0
   58.6430   32.5900   45.2590 C   0  0  0  0  0  0  0  0  0  0  0  0
   58.1400   31.5240   44.5270 N   0  0  0  0  0  0  0  0  0  0  0  0
   57.5260   31.7330   43.2000 C   0  0  0  0  0  0  0  0  0  0  0  0
   58.2290   30.2580   45.0520 C   0  0  0  0  0  0  0  0  0  0  0  0
   57.9230   29.0520   44.3820 C   0  0  0  0  0  0  0  0  0  0  0  0
   58.0870   27.9220   45.1760 C   0  0  0  0  0  0  0  0  0  0  0  0
   58.6220   28.4030   46.6960 S   0  0  0  0  0  0  0  0  0  0  0  0
   58.6540   30.0520   46.3540 C   0  0  0  0  0  0  0  0  0  0  0  0
   60.2270   33.8220   50.4990 C   0  0  0  0  0  0  0  0  0  0  0  0
   58.9960   33.3160   51.2500 C   0  0  0  0  0  0  0  0  0  0  0  0
   58.4840   32.1540   50.6050 O   0  0  0  0  0  0  0  0  0  0  0  0
   57.6890   31.2120   51.2640 C   0  0  0  0  0  0  0  0  0  0  0  0
   56.7940   31.6470   52.3750 C   0  0  0  0  0  0  0  0  0  0  0  0
   57.7250   29.9960   50.9290 O   0  0  0  0  0  0  0  0  0  0  0  0
   63.1398   34.7877   47.0395 H   0  0  0  0  0  0  0  0  0  0  0  0
   64.2231   34.1983   45.7334 H   0  0  0  0  0  0  0  0  0  0  0  0
   62.4857   33.7422   45.7334 H   0  0  0  0  0  0  0  0  0  0  0  0
   63.9507   31.8818   46.5163 H   0  0  0  0  0  0  0  0  0  0  0  0
   64.5221   32.9597   47.8674 H   0  0  0  0  0  0  0  0  0  0  0  0
   61.5954   32.2460   47.4644 H   0  0  0  0  0  0  0  0  0  0  0  0
   62.7559   31.2529   48.4671 H   0  0  0  0  0  0  0  0  0  0  0  0
   63.1510   33.1338   49.9492 H   0  0  0  0  0  0  0  0  0  0  0  0
   62.0897   34.1883   48.9468 H   0  0  0  0  0  0  0  0  0  0  0  0
   62.2299   32.3156   51.7903 H   0  0  0  0  0  0  0  0  0  0  0  0
   60.5573   31.6439   51.8133 H   0  0  0  0  0  0  0  0  0  0  0  0
   62.6643   30.6491   49.8420 H   0  0  0  0  0  0  0  0  0  0  0  0
   62.5054   29.9666   51.5071 H   0  0  0  0  0  0  0  0  0  0  0  0
   61.1337   28.5221   50.3114 H   0  0  0  0  0  0  0  0  0  0  0  0
   59.9495   29.8005   50.8403 H   0  0  0  0  0  0  0  0  0  0  0  0
   61.3099   30.2025   48.2074 H   0  0  0  0  0  0  0  0  0  0  0  0
   60.0509   28.8817   48.3431 H   0  0  0  0  0  0  0  0  0  0  0  0
   58.5050   30.5460   49.1440 H   0  0  0  0  0  0  0  0  0  0  0  0
   59.6530   31.7120   49.0410 H   0  0  0  0  0  0  0  0  0  0  0  0
   59.9589   33.3888   48.3513 H   0  0  0  0  0  0  0  0  0  0  0  0
   60.0519   35.6324   47.3044 H   0  0  0  0  0  0  0  0  0  0  0  0
   59.2824   35.9598   44.9658 H   0  0  0  0  0  0  0  0  0  0  0  0
   58.4108   34.0449   43.6512 H   0  0  0  0  0  0  0  0  0  0  0  0
   56.4915   32.0851   43.3260 H   0  0  0  0  0  0  0  0  0  0  0  0
   58.1040   32.4850   42.6429 H   0  0  0  0  0  0  0  0  0  0  0  0
   57.5252   30.7845   42.6429 H   0  0  0  0  0  0  0  0  0  0  0  0
   57.5879   29.0110   43.3351 H   0  0  0  0  0  0  0  0  0  0  0  0
   57.8980   26.8850   44.8617 H   0  0  0  0  0  0  0  0  0  0  0  0
   60.8119   34.4739   51.1645 H   0  0  0  0  0  0  0  0  0  0  0  0
   59.8923   34.3790   49.6115 H   0  0  0  0  0  0  0  0  0  0  0  0
   59.2755   33.0668   52.2843 H   0  0  0  0  0  0  0  0  0  0  0  0
   58.2243   34.0999   51.2544 H   0  0  0  0  0  0  0  0  0  0  0  0
   57.2688   31.4162   53.3401 H   0  0  0  0  0  0  0  0  0  0  0  0
   56.6192   32.7306   52.3022 H   0  0  0  0  0  0  0  0  0  0  0  0
   55.8340   31.1150   52.3022 H   0  0  0  0  0  0  0  0  0  0  0  0
  1  2  1  0
  2  3  1  0
  3  4  1  0
  4  5  1  0
  5  6  1  0
  6  7  1  0
  7  8  1  0
  8  9  1  0
  9 10  1  0
 10 11  1  0
 11 12  2  0
 12 13  1  0
 13 14  2  0
 14 15  1  0
 15 16  2  0
 16 17  1  0
 17 18  2  0
 18 19  1  0
 18 20  1  0
 20 21  1  0
 21 22  2  0
 22 23  1  0
 23 24  1  0
  5 25  1  0
 25 26  1  0
 26 27  1  0
 27 28  1  0
 28 29  1  0
 28 30  2  0
 24 11  1  0
 17 12  1  0
 24 20  2  0
  1 31  1  0
  1 32  1  0
  1 33  1  0
  2 34  1  0
  2 35  1  0
  3 36  1  0
  3 37  1  0
  4 38  1  0
  4 39  1  0
  6 40  1  0
  6 41  1  0
  7 42  1  0
  7 43  1  0
  8 44  1  0
  8 45  1  0
  9 46  1  0
  9 47  1  0
 10 48  1  0
 10 49  1  0
 13 50  1  0
 14 51  1  0
 15 52  1  0
 16 53  1  0
 19 54  1  0
 19 55  1  0
 19 56  1  0
 21 57  1  0
 22 58  1  0
 25 59  1  0
 25 60  1  0
 26 61  1  0
 26 62  1  0
 29 63  1  0
 29 64  1  0
 29 65  1  0
M  CHG  2  10   1  18   1
M  END
>  <UniqueID>  (13) 
13

>  <SMILES>  (13) 
CCCCN(CCCC[NH2+]c1c2ccccc2[n+](C)c2ccsc12)CCOC(C)=O

>  <Energy>  (13) 
103.24102154126429

>  <Genealogy>  (13) 
CCCCN(CCCC[NH2+]c1c2ccccc2[n+](C)c2ccsc12)CCOC(C)=O (protonated)
CCCCN(CCCC[NH2+]c1c2ccccc2[n+](C)c2ccsc12)CCOC(C)=O (3D coordinates assigned)
CCCCN(CCCC[NH2+]c1c2ccccc2[n+](C)c2ccsc12)CCOC(C)=O (optimized conformer: 103.24102154126429 kcal/mol)

>  <smiles>  (13) 
CCCCN(CCCCNc1c2ccccc2[n+](C)c2ccsc12)CCOC(C)=O

>  <score_type>  (13) 
oracle

>  <origin>  (13) 
adg

>  <m_score__min__energy>  (13) 
-5.1799999999999997

>  <m_primary>  (13) 
energy

$$$$
13:0
     RDKit          3D

 42 43  0  0  0  0  0  0  0  0999 V2000
   63.5010   32.7670   47.1290 C   0  0  0  0  0  0  0  0  0  0  0  0
   62.4340   33.7930   46.7340 C   0  0  0  0  0  0  0  0  0  0  0  0
   61.0990   33.4760   47.3080 N   0  0  0  0  0  0  0  0  0  0  0  0
   60.9380   33.9970   48.6980 C   0  0  0  0  0  0  0  0  0  0  0  0
   59.6590   33.4820   49.3660 C   0  0  0  0  0  0  0  0  0  0  0  0
   60.0040   33.9360   46.4140 C   0  0  0  0  0  0  0  0  0  0  0  0
   59.0870   32.8280   45.9460 C   0  0  0  0  0  0  0  0  0  0  0  0
   59.3850   31.5170   46.0320 N   0  0  0  0  0  0  0  0  0  0  0  0
   58.2800   30.9060   45.5500 C   0  0  0  0  0  0  0  0  0  0  0  0
   58.1400   29.4410   45.4320 C   0  0  0  0  0  0  0  0  0  0  0  0
   58.0010   28.8330   44.1740 C   0  0  0  0  0  0  0  0  0  0  0  0
   57.8680   27.4460   44.0690 C   0  0  0  0  0  0  0  0  0  0  0  0
   57.8520   26.6410   45.2210 C   0  0  0  0  0  0  0  0  0  0  0  0
   57.7580   25.1410   45.1040 C   0  0  0  0  0  0  0  0  0  0  0  0
   57.6680   24.7590   43.7760 F   0  0  0  0  0  0  0  0  0  0  0  0
   58.8750   24.5370   45.6530 F   0  0  0  0  0  0  0  0  0  0  0  0
   56.6320   24.7020   45.7750 F   0  0  0  0  0  0  0  0  0  0  0  0
   58.0170   27.2490   46.4770 C   0  0  0  0  0  0  0  0  0  0  0  0
   58.1510   28.6370   46.5820 C   0  0  0  0  0  0  0  0  0  0  0  0
   57.3420   31.7600   45.2020 O   0  0  0  0  0  0  0  0  0  0  0  0
   57.8070   32.9600   45.4420 C   0  0  0  0  0  0  0  0  0  0  0  0
   57.0360   34.2200   45.2190 C   0  0  0  0  0  0  0  0  0  0  0  0
   63.5636   32.7068   48.2256 H   0  0  0  0  0  0  0  0  0  0  0  0
   63.2302   31.7814   46.7225 H   0  0  0  0  0  0  0  0  0  0  0  0
   64.4753   33.0762   46.7225 H   0  0  0  0  0  0  0  0  0  0  0  0
   62.7468   34.7840   47.0947 H   0  0  0  0  0  0  0  0  0  0  0  0
   62.3401   33.7726   45.6382 H   0  0  0  0  0  0  0  0  0  0  0  0
   61.0110   32.4310   47.3160 H   0  0  0  0  0  0  0  0  0  0  0  0
   61.8034   33.6788   49.2978 H   0  0  0  0  0  0  0  0  0  0  0  0
   60.8707   35.0935   48.6414 H   0  0  0  0  0  0  0  0  0  0  0  0
   59.7724   33.5276   50.4592 H   0  0  0  0  0  0  0  0  0  0  0  0
   58.8077   34.1074   49.0592 H   0  0  0  0  0  0  0  0  0  0  0  0
   59.4786   32.4412   49.0592 H   0  0  0  0  0  0  0  0  0  0  0  0
   59.4010   34.6775   46.9586 H   0  0  0  0  0  0  0  0  0  0  0  0
   60.4808   34.3558   45.5160 H   0  0  0  0  0  0  0  0  0  0  0  0
   57.9968   29.4526   43.2651 H   0  0  0  0  0  0  0  0  0  0  0  0
   57.7751   26.9804   43.0767 H   0  0  0  0  0  0  0  0  0  0  0  0
   58.0409   26.6283   47.3848 H   0  0  0  0  0  0  0  0  0  0  0  0
   58.2658   29.1015   47.5725 H   0  0  0  0  0  0  0  0  0  0  0  0
   56.7660   34.6613   46.1897 H   0  0  0  0  0  0  0  0  0  0  0  0
   57.6533   34.9320   44.6515 H   0  0  0  0  0  0  0  0  0  0  0  0
   56.1211   33.9945   44.6515 H   0  0  0  0  0  0  0  0  0  0  0  0
  1  2  1  0
  2  3  1  0
  3  4  1  0
  4  5  1  0
  3  6  1  0
  6  7  1  0
  7  8  1  0
  8  9  2  0
  9 10  1  0
 10 11  2  0
 11 12  1  0
 12 13  2  0
 13 14  1  0
 14 15  1  0
 14 16  1  0
 14 17  1  0
 13 18  1  0
 18 19  2  0
  9 20  1  0
 20 21  1  0
 21 22  1  0
 21  7  2  0
 19 10  1  0
  1 23  1  0
  1 24  1  0
  1 25  1  0
  2 26  1  0
  2 27  1  0
  3 28  1  0
  4 29  1  0
  4 30  1  0
  5 31  1  0
  5 32  1  0
  5 33  1  0
  6 34  1  0
  6 35  1  0
 11 36  1  0
 12 37  1  0
 18 38  1  0
 19 39  1  0
 22 40  1  0
 22 41  1  0
 22 42  1  0
M  CHG  1   3   1
M  END
>  <UniqueID>  (14) 
14

>  <SMILES>  (14) 
CC[NH+](CC)Cc1nc(-c2ccc(C(F)(F)F)cc2)oc1C

>  <Energy>  (14) 
74.52858865430522

>  <Genealogy>  (14) 
CC[NH+](CC)Cc1nc(-c2ccc(C(F)(F)F)cc2)oc1C (protonated)
CC[NH+](CC)Cc1nc(-c2ccc(C(F)(F)F)cc2)oc1C (3D coordinates assigned)
CC[NH+](CC)Cc1nc(-c2ccc(C(F)(F)F)cc2)oc1C (optimized conformer: 74.52858865430522 kcal/mol)

>  <smiles>  (14) 
CCN(CC)Cc1nc(-c2ccc(C(F)(F)F)cc2)oc1C

>  <score_type>  (14) 
oracle

>  <origin>  (14) 
adg

>  <m_score__min__energy>  (14) 
-4.1799999999999997

>  <m_primary>  (14) 
energy

$$$$
14:0
     RDKit          3D

 54 57  0  0  0  0  0  0  0  0999 V2000
   60.6170   33.4630   51.8320 C   0  0  0  0  0  0  0  0  0  0  0  0
   60.2330   33.0880   50.4580 N   0  0  0  0  0  0  0  0  0  0  0  0
   58.8030   32.7070   50.4190 C   0  0  0  0  0  0  0  0  0  0  0  0
   58.5910   31.3780   49.6650 C   0  0  0  0  0  0  0  0  0  0  0  0
   59.6790   31.0650   48.7160 N   0  0  0  0  0  0  0  0  0  0  0  0
   59.1860   30.8120   47.3640 C   0  0  0  0  0  0  0  0  0  0  0  0
   59.2890   29.5090   46.8010 C   0  0  0  0  0  0  0  0  0  0  0  0
   59.8860   28.4320   47.5080 C   0  0  0  0  0  0  0  0  0  0  0  0
   60.0450   27.1820   46.9190 C   0  0  0  0  0  0  0  0  0  0  0  0
   59.6340   26.9690   45.6130 C   0  0  0  0  0  0  0  0  0  0  0  0
   59.0200   27.9940   44.9020 C   0  0  0  0  0  0  0  0  0  0  0  0
   58.7880   29.2640   45.4920 C   0  0  0  0  0  0  0  0  0  0  0  0
   58.0940   30.2460   44.8190 N   0  0  0  0  0  0  0  0  0  0  0  0
   57.2800   29.8960   43.6320 C   0  0  0  0  0  0  0  0  0  0  0  0
   58.1340   31.5510   45.2630 C   0  0  0  0  0  0  0  0  0  0  0  0
   57.6840   32.6130   44.4380 C   0  0  0  0  0  0  0  0  0  0  0  0
   57.6730   33.9270   44.8910 C   0  0  0  0  0  0  0  0  0  0  0  0
   58.1180   34.2220   46.1680 C   0  0  0  0  0  0  0  0  0  0  0  0
   58.6050   33.2100   46.9920 C   0  0  0  0  0  0  0  0  0  0  0  0
   58.6480   31.8580   46.5570 C   0  0  0  0  0  0  0  0  0  0  0  0
   60.5290   34.2030   49.5230 C   0  0  0  0  0  0  0  0  0  0  0  0
   61.6470   33.8170   48.5930 C   0  0  0  0  0  0  0  0  0  0  0  0
   62.7510   33.0950   49.0760 C   0  0  0  0  0  0  0  0  0  0  0  0
   63.7900   32.7330   48.2130 C   0  0  0  0  0  0  0  0  0  0  0  0
   63.7430   33.1010   46.8660 C   0  0  0  0  0  0  0  0  0  0  0  0
   62.6520   33.8240   46.3780 C   0  0  0  0  0  0  0  0  0  0  0  0
   61.6050   34.1790   47.2350 C   0  0  0  0  0  0  0  0  0  0  0  0
   60.0213   32.8813   52.5509 H   0  0  0  0  0  0  0  0  0  0  0  0
   61.6855   33.2511   51.9849 H   0  0  0  0  0  0  0  0  0  0  0  0
   60.4305   34.5362   51.9849 H   0  0  0  0  0  0  0  0  0  0  0  0
   58.4348   32.5957   51.4495 H   0  0  0  0  0  0  0  0  0  0  0  0
   58.2505   33.4963   49.8881 H   0  0  0  0  0  0  0  0  0  0  0  0
   58.5262   30.5645   50.4026 H   0  0  0  0  0  0  0  0  0  0  0  0
   57.6661   31.4800   49.0784 H   0  0  0  0  0  0  0  0  0  0  0  0
   60.4180   31.7910   48.7700 H   0  0  0  0  0  0  0  0  0  0  0  0
   60.1970   30.2250   49.0560 H   0  0  0  0  0  0  0  0  0  0  0  0
   60.2293   28.5892   48.5412 H   0  0  0  0  0  0  0  0  0  0  0  0
   60.4985   26.3598   47.4919 H   0  0  0  0  0  0  0  0  0  0  0  0
   59.7934   25.9893   45.1389 H   0  0  0  0  0  0  0  0  0  0  0  0
   58.7080   27.8173   43.8621 H   0  0  0  0  0  0  0  0  0  0  0  0
   56.3150   29.4811   43.9585 H   0  0  0  0  0  0  0  0  0  0  0  0
   57.1055   30.7986   43.0280 H   0  0  0  0  0  0  0  0  0  0  0  0
   57.8150   29.1484   43.0280 H   0  0  0  0  0  0  0  0  0  0  0  0
   57.3363   32.3922   43.4180 H   0  0  0  0  0  0  0  0  0  0  0  0
   57.3108   34.7322   44.2349 H   0  0  0  0  0  0  0  0  0  0  0  0
   58.0870   35.2591   46.5334 H   0  0  0  0  0  0  0  0  0  0  0  0
   58.9638   33.4628   48.0006 H   0  0  0  0  0  0  0  0  0  0  0  0
   59.6288   34.4321   48.9338 H   0  0  0  0  0  0  0  0  0  0  0  0
   60.8329   35.0871   50.1027 H   0  0  0  0  0  0  0  0  0  0  0  0
   62.7984   32.8131   50.1382 H   0  0  0  0  0  0  0  0  0  0  0  0
   64.6459   32.1575   48.5953 H   0  0  0  0  0  0  0  0  0  0  0  0
   64.5647   32.8215   46.1902 H   0  0  0  0  0  0  0  0  0  0  0  0
   62.6161   34.1148   45.3177 H   0  0  0  0  0  0  0  0  0  0  0  0
   60.7453   34.7436   46.8449 H   0  0  0  0  0  0  0  0  0  0  0  0
  1  2  1  0
  2  3  1  0
  3  4  1  0
  4  5  1  0
  5  6  1  0
  6  7  1  0
  7  8  2  0
  8  9  1  0
  9 10  2  0
 10 11  1  0
 11 12  2  0
 12 13  1  0
 13 14  1  0
 13 15  2  0
 15 16  1  0
 16 17  2  0
 17 18  1  0
 18 19  2  0
 19 20  1  0
  2 21  1  0
 21 22  1  0
 22 23  2  0
 23 24  1  0
 24 25  2  0
 25 26  1  0
 26 27  2  0
 20  6  2  0
 27 22  1  0
 12  7  1  0
 20 15  1  0
  1 28  1  0
  1 29  1  0
  1 30  1  0
  3 31  1  0
  3 32  1  0
  4 33  1  0
  4 34  1  0
  5 35  1  0
  5 36  1  0
  8 37  1  0
  9 38  1  0
 10 39  1  0
 11 40  1  0
 14 41  1  0
 14 42  1  0
 14 43  1  0
 16 44  1  0
 17 45  1  0
 18 46  1  0
 19 47  1  0
 21 48  1  0
 21 49  1  0
 23 50  1  0
 24 51  1  0
 25 52  1  0
 26 53  1  0
 27 54  1  0
M  CHG  2   5   1  13   1
M  END
>  <UniqueID>  (15) 
15

>  <SMILES>  (15) 
CN(CC[NH2+]c1c2ccccc2[n+](C)c2ccccc12)Cc1ccccc1

>  <Energy>  (15) 
83.65083436290462

>  <Genealogy>  (15) 
CN(CC[NH2+]c1c2ccccc2[n+](C)c2ccccc12)Cc1ccccc1 (protonated)
CN(CC[NH2+]c1c2ccccc2[n+](C)c2ccccc12)Cc1ccccc1 (3D coordinates assigned)
CN(CC[NH2+]c1c2ccccc2[n+](C)c2ccccc12)Cc1ccccc1 (optimized conformer: 83.65083436290462 kcal/mol)

>  <smiles>  (15) 
CN(CCNc1c2ccccc2[n+](C)c2ccccc12)Cc1ccccc1

>  <score_type>  (15) 
oracle

>  <origin>  (15) 
adg

>  <m_score__min__energy>  (15) 
-5.25

>  <m_primary>  (15) 
energy

$$$$
15:0
     RDKit          3D

 69 73  0  0  0  0  0  0  0  0999 V2000
   56.3040   28.0990   53.8820 C   0  0  0  0  0  0  0  0  0  0  0  0
   54.8600   28.3500   53.4390 C   0  0  0  0  0  0  0  0  0  0  0  0
   54.7800   29.0130   52.1250 N   0  0  0  0  0  0  0  0  0  0  0  0
   54.6220   30.4730   52.2460 C   0  0  0  0  0  0  0  0  0  0  0  0
   55.9530   31.2000   52.0040 C   0  0  0  0  0  0  0  0  0  0  0  0
   56.9730   30.2730   51.6760 O   0  0  0  0  0  0  0  0  0  0  0  0
   57.9340   30.8480   50.8080 C   0  0  0  0  0  0  0  0  0  0  0  0
   58.9020   29.7810   50.2870 C   0  0  0  0  0  0  0  0  0  0  0  0
   60.1870   30.3390   50.0890 O   0  0  0  0  0  0  0  0  0  0  0  0
   60.1260   31.4710   49.2480 C   0  0  0  0  0  0  0  0  0  0  0  0
   61.5190   31.7690   48.6990 C   0  0  0  0  0  0  0  0  0  0  0  0
   61.5650   31.5670   47.2510 N   0  0  0  0  0  0  0  0  0  0  0  0
   60.3740   31.3120   46.4860 C   0  0  0  0  0  0  0  0  0  0  0  0
   59.6110   32.3890   46.0090 C   0  0  0  0  0  0  0  0  0  0  0  0
   59.9380   33.7230   46.3290 C   0  0  0  0  0  0  0  0  0  0  0  0
   59.1970   34.7800   45.8040 C   0  0  0  0  0  0  0  0  0  0  0  0
   58.1160   34.5230   44.9680 C   0  0  0  0  0  0  0  0  0  0  0  0
   57.7670   33.2080   44.6540 C   0  0  0  0  0  0  0  0  0  0  0  0
   58.5070   32.1140   45.1710 C   0  0  0  0  0  0  0  0  0  0  0  0
   58.1730   30.8090   44.8880 N   0  0  0  0  0  0  0  0  0  0  0  0
   57.2490   30.5150   43.7720 C   0  0  0  0  0  0  0  0  0  0  0  0
   58.7800   29.7870   45.5870 C   0  0  0  0  0  0  0  0  0  0  0  0
   59.9580   30.0250   46.2610 N   0  0  0  0  0  0  0  0  0  0  0  0
   60.7080   28.8910   46.8510 C   0  0  0  0  0  0  0  0  0  0  0  0
   60.5650   27.6200   46.0030 C   0  0  0  0  0  0  0  0  0  0  0  0
   59.1110   27.3170   45.8250 C   0  0  0  0  0  0  0  0  0  0  0  0
   58.6360   25.9910   45.9020 C   0  0  0  0  0  0  0  0  0  0  0  0
   57.2620   25.7920   45.8400 C   0  0  0  0  0  0  0  0  0  0  0  0
   56.3920   26.8250   45.7200 C   0  0  0  0  0  0  0  0  0  0  0  0
   56.8210   28.1460   45.6300 C   0  0  0  0  0  0  0  0  0  0  0  0
   58.2150   28.3990   45.6240 C   0  0  0  0  0  0  0  0  0  0  0  0
   55.0980   26.3410   45.7180 O   0  0  0  0  0  0  0  0  0  0  0  0
   55.1590   24.9120   45.8320 C   0  0  0  0  0  0  0  0  0  0  0  0
   56.5600   24.6040   45.9170 O   0  0  0  0  0  0  0  0  0  0  0  0
   56.3542   28.0903   54.9808 H   0  0  0  0  0  0  0  0  0  0  0  0
   56.6438   27.1283   53.4917 H   0  0  0  0  0  0  0  0  0  0  0  0
   56.9514   28.8981   53.4917 H   0  0  0  0  0  0  0  0  0  0  0  0
   54.3364   27.3845   53.3794 H   0  0  0  0  0  0  0  0  0  0  0  0
   54.3945   29.0175   54.1791 H   0  0  0  0  0  0  0  0  0  0  0  0
   55.6730   28.8170   51.6170 H   0  0  0  0  0  0  0  0  0  0  0  0
   53.9950   28.6080   51.5670 H   0  0  0  0  0  0  0  0  0  0  0  0
   53.8860   30.8165   51.5042 H   0  0  0  0  0  0  0  0  0  0  0  0
   54.2817   30.7021   53.2666 H   0  0  0  0  0  0  0  0  0  0  0  0
   55.8308   31.9121   51.1745 H   0  0  0  0  0  0  0  0  0  0  0  0
   56.2391   31.7330   52.9228 H   0  0  0  0  0  0  0  0  0  0  0  0
   57.4176   31.3138   49.9557 H   0  0  0  0  0  0  0  0  0  0  0  0
   58.5074   31.6026   51.3663 H   0  0  0  0  0  0  0  0  0  0  0  0
   58.9702   28.9638   51.0201 H   0  0  0  0  0  0  0  0  0  0  0  0
   58.5273   29.3957   49.3273 H   0  0  0  0  0  0  0  0  0  0  0  0
   59.4373   31.2719   48.4137 H   0  0  0  0  0  0  0  0  0  0  0  0
   59.7638   32.3367   49.8220 H   0  0  0  0  0  0  0  0  0  0  0  0
   61.7791   32.8136   48.9251 H   0  0  0  0  0  0  0  0  0  0  0  0
   62.2368   31.0827   49.1720 H   0  0  0  0  0  0  0  0  0  0  0  0
   62.4940   31.5370   46.7620 H   0  0  0  0  0  0  0  0  0  0  0  0
   60.7854   33.9310   46.9989 H   0  0  0  0  0  0  0  0  0  0  0  0
   59.4672   35.8173   46.0509 H   0  0  0  0  0  0  0  0  0  0  0  0
   57.5337   35.3587   44.5525 H   0  0  0  0  0  0  0  0  0  0  0  0
   56.9060   33.0178   43.9964 H   0  0  0  0  0  0  0  0  0  0  0  0
   56.2738   30.2047   44.1754 H   0  0  0  0  0  0  0  0  0  0  0  0
   57.1205   31.4166   43.1551 H   0  0  0  0  0  0  0  0  0  0  0  0
   57.6652   29.7049   43.1551 H   0  0  0  0  0  0  0  0  0  0  0  0
   61.7726   29.1607   46.9140 H   0  0  0  0  0  0  0  0  0  0  0  0
   60.2958   28.6873   47.8503 H   0  0  0  0  0  0  0  0  0  0  0  0
   61.0323   27.7777   45.0198 H   0  0  0  0  0  0  0  0  0  0  0  0
   61.0621   26.7780   46.5069 H   0  0  0  0  0  0  0  0  0  0  0  0
   59.3294   25.1436   46.0075 H   0  0  0  0  0  0  0  0  0  0  0  0
   56.0970   28.9716   45.5653 H   0  0  0  0  0  0  0  0  0  0  0  0
   54.6334   24.5738   46.7372 H   0  0  0  0  0  0  0  0  0  0  0  0
   54.6768   24.4091   44.9808 H   0  0  0  0  0  0  0  0  0  0  0  0
  1  2  1  0
  2  3  1  0
  3  4  1  0
  4  5  1  0
  5  6  1  0
  6  7  1  0
  7  8  1  0
  8  9  1  0
  9 10  1  0
 10 11  1  0
 11 12  1  0
 12 13  1  0
 13 14  2  0
 14 15  1  0
 15 16  2  0
 16 17  1  0
 17 18  2  0
 18 19  1  0
 19 20  2  0
 20 21  1  0
 20 22  1  0
 22 23  2  0
 23 24  1  0
 24 25  1  0
 25 26  1  0
 26 27  2  0
 27 28  1  0
 28 29  2  0
 29 30  1  0
 30 31  2  0
 29 32  1  0
 32 33  1  0
 33 34  1  0
 23 13  1  0
 31 26  1  0
 19 14  1  0
 31 22  1  0
 34 28  1  0
  1 35  1  0
  1 36  1  0
  1 37  1  0
  2 38  1  0
  2 39  1  0
  3 40  1  0
  3 41  1  0
  4 42  1  0
  4 43  1  0
  5 44  1  0
  5 45  1  0
  7 46  1  0
  7 47  1  0
  8 48  1  0
  8 49  1  0
 10 50  1  0
 10 51  1  0
 11 52  1  0
 11 53  1  0
 12 54  1  0
 15 55  1  0
 16 56  1  0
 17 57  1  0
 18 58  1  0
 21 59  1  0
 21 60  1  0
 21 61  1  0
 24 62  1  0
 24 63  1  0
 25 64  1  0
 25 65  1  0
 27 66  1  0
 30 67  1  0
 33 68  1  0
 33 69  1  0
M  CHG  3   3   1  20   1  23   1
M  END
>  <UniqueID>  (16) 
16

>  <SMILES>  (16) 
CC[NH2+]CCOCCOCCNc1c2ccccc2[n+](C)c2[n+]1CCc1cc3c(cc1-2)OCO3

>  <Energy>  (16) 
130.96000021258317

>  <Genealogy>  (16) 
CC[NH2+]CCOCCOCCNc1c2ccccc2[n+](C)c2[n+]1CCc1cc3c(cc1-2)OCO3 (protonated)
CC[NH2+]CCOCCOCCNc1c2ccccc2[n+](C)c2[n+]1CCc1cc3c(cc1-2)OCO3 (3D coordinates assigned)
CC[NH2+]CCOCCOCCNc1c2ccccc2[n+](C)c2[n+]1CCc1cc3c(cc1-2)OCO3 (nonaromatic ring conformer: 130.96000021258317 kcal/mol)

>  <smiles>  (16) 
CCNCCOCCOCCNc1c2ccccc2[n+](C)c2[n+]1CCc1cc3c(cc1-2)OCO3

>  <score_type>  (16) 
oracle

>  <origin>  (16) 
adg

>  <m_score__min__energy>  (16) 
-4.2400000000000002

>  <m_primary>  (16) 
energy

$$$$
17:0
     RDKit          3D

 38 41  0  0  1  0  0  0  0  0999 V2000
   63.3010   33.5020   46.6870 C   0  0  0  0  0  0  0  0  0  0  0  0
   62.7140   33.2550   48.0590 C   0  0  0  0  0  0  0  0  0  0  0  0
   61.8400   32.0970   48.0070 N   0  0  0  0  0  0  0  0  0  0  0  0
   62.1240   30.8640   48.4370 N   0  0  0  0  0  0  0  0  0  0  0  0
   61.0480   30.0660   48.2110 C   0  0  0  0  0  0  0  0  0  0  0  0
   60.0440   30.8170   47.6160 C   0  0  0  0  0  0  0  0  0  0  0  0
   58.7820   30.5290   47.1840 C   0  0  0  0  0  0  0  0  0  0  0  0
   58.2980   29.3390   47.2960 N   0  0  0  0  0  0  0  0  0  0  0  0
   58.1330   28.4380   46.1980 C   0  0  0  0  0  0  0  0  0  0  0  0
   57.3270   29.0710   45.1020 C   0  0  0  0  0  0  0  0  0  0  0  0
   57.6420   29.1660   43.7580 C   0  0  0  0  0  0  0  0  0  0  0  0
   56.6220   29.8250   43.0990 C   0  0  0  0  0  0  0  0  0  0  0  0
   55.6960   30.1120   44.1100 C   0  0  0  0  0  0  0  0  0  0  0  0
   56.1660   29.6480   45.2440 O   0  0  0  0  0  0  0  0  0  0  0  0
   58.0310   31.5010   46.6340 N   0  0  0  0  0  0  0  0  0  0  0  0
   58.5360   32.7430   46.5170 C   0  0  0  0  0  0  0  0  0  0  0  0
   57.7440   33.8520   45.9150 C   0  0  0  0  0  0  0  0  0  0  0  0
   58.5340   34.6720   44.8700 C   0  0  0  0  0  0  0  0  0  0  0  0
   57.3740   33.8140   44.4990 C   0  0  0  0  0  0  0  0  0  0  0  0
   59.7810   33.0260   46.9430 N   0  0  0  0  0  0  0  0  0  0  0  0
   60.5920   32.0940   47.5080 C   0  0  0  0  0  0  0  0  0  0  0  0
   64.3103   33.9267   46.7911 H   0  0  0  0  0  0  0  0  0  0  0  0
   63.3581   32.5516   46.1361 H   0  0  0  0  0  0  0  0  0  0  0  0
   62.6614   34.2073   46.1361 H   0  0  0  0  0  0  0  0  0  0  0  0
   63.5258   33.0703   48.7779 H   0  0  0  0  0  0  0  0  0  0  0  0
   62.1381   34.1366   48.3769 H   0  0  0  0  0  0  0  0  0  0  0  0
   60.9830   28.9964   48.4597 H   0  0  0  0  0  0  0  0  0  0  0  0
   59.1232   28.1644   45.8048 H   0  0  0  0  0  0  0  0  0  0  0  0
   57.6004   27.5439   46.5542 H   0  0  0  0  0  0  0  0  0  0  0  0
   58.5585   28.7786   43.2889 H   0  0  0  0  0  0  0  0  0  0  0  0
   56.5531   30.0680   42.0284 H   0  0  0  0  0  0  0  0  0  0  0  0
   54.7385   30.6367   43.9763 H   0  0  0  0  0  0  0  0  0  0  0  0
   57.0650   31.2930   46.3000 H   0  0  0  0  0  0  0  0  0  0  0  0
   57.1604   34.0291   46.8304 H   0  0  0  0  0  0  0  0  0  0  0  0
   58.4469   35.7682   44.8414 H   0  0  0  0  0  0  0  0  0  0  0  0
   59.5865   34.7566   44.5616 H   0  0  0  0  0  0  0  0  0  0  0  0
   56.4352   34.2849   44.1721 H   0  0  0  0  0  0  0  0  0  0  0  0
   57.2334   33.0000   43.7726 H   0  0  0  0  0  0  0  0  0  0  0  0
  1  2  1  0
  2  3  1  0
  3  4  1  0
  4  5  2  0
  5  6  1  0
  6  7  1  0
  7  8  2  0
  8  9  1  0
  9 10  1  0
 10 11  2  0
 11 12  1  0
 12 13  2  0
 13 14  1  0
  7 15  1  0
 15 16  1  0
 16 17  1  0
 17 18  1  0
 18 19  1  0
 16 20  2  0
 20 21  1  0
 21  3  1  0
 21  6  2  0
 14 10  1  0
 19 17  1  0
  1 22  1  0
  1 23  1  0
  1 24  1  0
  2 25  1  0
  2 26  1  0
  5 27  1  0
  9 28  1  0
  9 29  1  0
 11 30  1  0
 12 31  1  0
 13 32  1  0
 15 33  1  0
 17 34  1  0
 18 35  1  0
 18 36  1  0
 19 37  1  0
 19 38  1  0
M  END
>  <smiles>  (17) 
CCn1ncc2c(=NCc3ccco3)[nH]c(C3CC3)nc21

>  <score_type>  (17) 
oracle

>  <origin>  (17) 
adg

>  <m_score__min__energy>  (17) 
-6.3600000000000003

>  <m_primary>  (17) 
energy

$$$$
18:0
     RDKit          3D

 45 48  0  0  0  0  0  0  0  0999 V2000
   62.6070   33.7980   47.7150 C   0  0  0  0  0  0  0  0  0  0  0  0
   61.5900   34.1630   48.7910 C   0  0  0  0  0  0  0  0  0  0  0  0
   60.3680   34.6090   48.2030 O   0  0  0  0  0  0  0  0  0  0  0  0
   59.6880   33.9780   47.1460 C   0  0  0  0  0  0  0  0  0  0  0  0
   59.2540   34.7750   46.0800 C   0  0  0  0  0  0  0  0  0  0  0  0
   58.5740   34.2140   44.9970 C   0  0  0  0  0  0  0  0  0  0  0  0
   58.3180   32.8400   44.9650 C   0  0  0  0  0  0  0  0  0  0  0  0
   57.6520   32.2980   43.9020 N   0  0  0  0  0  0  0  0  0  0  0  0
   57.3760   30.9650   43.8150 C   0  0  0  0  0  0  0  0  0  0  0  0
   56.6430   30.4300   42.6250 C   0  0  0  0  0  0  0  0  0  0  0  0
   57.7900   30.1260   44.8550 C   0  0  0  0  0  0  0  0  0  0  0  0
   58.4650   30.6460   45.9420 C   0  0  0  0  0  0  0  0  0  0  0  0
   58.7520   32.0170   46.0350 C   0  0  0  0  0  0  0  0  0  0  0  0
   59.4390   32.5910   47.1180 C   0  0  0  0  0  0  0  0  0  0  0  0
   58.7440   29.5290   46.8260 C   0  0  0  0  0  0  0  0  0  0  0  0
   59.3340   29.5850   47.9360 O   0  0  0  0  0  0  0  0  0  0  0  0
   58.2380   28.3260   46.2570 N   0  0  0  0  0  0  0  0  0  0  0  0
   58.3380   26.9920   46.8420 C   0  0  0  0  0  0  0  0  0  0  0  0
   57.5280   26.0130   46.0370 C   0  0  0  0  0  0  0  0  0  0  0  0
   56.1830   25.7650   46.3580 C   0  0  0  0  0  0  0  0  0  0  0  0
   55.4450   24.8300   45.6260 C   0  0  0  0  0  0  0  0  0  0  0  0
   56.0450   24.1330   44.5730 C   0  0  0  0  0  0  0  0  0  0  0  0
   57.3860   24.3690   44.2540 C   0  0  0  0  0  0  0  0  0  0  0  0
   58.1270   25.3030   44.9840 C   0  0  0  0  0  0  0  0  0  0  0  0
   57.5990   28.6400   44.9790 C   0  0  0  0  0  0  0  0  0  0  0  0
   63.5403   33.4630   48.1911 H   0  0  0  0  0  0  0  0  0  0  0  0
   62.2038   32.9885   47.0888 H   0  0  0  0  0  0  0  0  0  0  0  0
   62.8105   34.6792   47.0888 H   0  0  0  0  0  0  0  0  0  0  0  0
   61.3892   33.2779   49.4126 H   0  0  0  0  0  0  0  0  0  0  0  0
   62.0032   34.9765   49.4054 H   0  0  0  0  0  0  0  0  0  0  0  0
   59.4512   35.8571   46.0957 H   0  0  0  0  0  0  0  0  0  0  0  0
   58.2392   34.8543   44.1676 H   0  0  0  0  0  0  0  0  0  0  0  0
   55.7973   29.8127   42.9623 H   0  0  0  0  0  0  0  0  0  0  0  0
   56.2670   31.2675   42.0190 H   0  0  0  0  0  0  0  0  0  0  0  0
   57.3260   29.8165   42.0190 H   0  0  0  0  0  0  0  0  0  0  0  0
   59.7838   31.9555   47.9470 H   0  0  0  0  0  0  0  0  0  0  0  0
   59.3913   26.6751   46.8475 H   0  0  0  0  0  0  0  0  0  0  0  0
   57.9504   27.0200   47.8711 H   0  0  0  0  0  0  0  0  0  0  0  0
   55.7087   26.3085   47.1884 H   0  0  0  0  0  0  0  0  0  0  0  0
   54.3910   24.6425   45.8789 H   0  0  0  0  0  0  0  0  0  0  0  0
   55.4628   23.3996   43.9959 H   0  0  0  0  0  0  0  0  0  0  0  0
   57.8586   23.8187   43.4271 H   0  0  0  0  0  0  0  0  0  0  0  0
   59.1828   25.4823   44.7327 H   0  0  0  0  0  0  0  0  0  0  0  0
   58.0910   28.1087   44.1510 H   0  0  0  0  0  0  0  0  0  0  0  0
   56.5426   28.3362   44.9389 H   0  0  0  0  0  0  0  0  0  0  0  0
  1  2  1  0
  2  3  1  0
  3  4  1  0
  4  5  2  0
  5  6  1  0
  6  7  2  0
  7  8  1  0
  8  9  2  0
  9 10  1  0
  9 11  1  0
 11 12  2  0
 12 13  1  0
 13 14  2  0
 12 15  1  0
 15 16  2  0
 15 17  1  0
 17 18  1  0
 18 19  1  0
 19 20  2  0
 20 21  1  0
 21 22  2  0
 22 23  1  0
 23 24  2  0
 17 25  1  0
 14  4  1  0
 24 19  1  0
 13  7  1  0
 25 11  1  0
  1 26  1  0
  1 27  1  0
  1 28  1  0
  2 29  1  0
  2 30  1  0
  5 31  1  0
  6 32  1  0
 10 33  1  0
 10 34  1  0
 10 35  1  0
 14 36  1  0
 18 37  1  0
 18 38  1  0
 20 39  1  0
 21 40  1  0
 22 41  1  0
 23 42  1  0
 24 43  1  0
 25 44  1  0
 25 45  1  0
M  END
>  <UniqueID>  (18) 
17

>  <SMILES>  (18) 
CCOc1ccc2nc(C)c3c(c2c1)C(=O)N(Cc1ccccc1)C3

>  <Energy>  (18) 
69.34092797246346

>  <Genealogy>  (18) 
CCOc1ccc2nc(C)c3c(c2c1)C(=O)N(Cc1ccccc1)C3 (3D coordinates assigned)
CCOc1ccc2nc(C)c3c(c2c1)C(=O)N(Cc1ccccc1)C3 (nonaromatic ring conformer: 69.34092797246346 kcal/mol)

>  <smiles>  (18) 
CCOc1ccc2nc(C)c3c(c2c1)C(=O)N(Cc1ccccc1)C3

>  <score_type>  (18) 
oracle

>  <origin>  (18) 
adg

>  <m_score__min__energy>  (18) 
-8.3499999999999996

>  <m_primary>  (18) 
energy

$$$$
19:0
     RDKit          3D

 57 60  0  0  0  0  0  0  0  0999 V2000
   63.3400   33.8320   46.3020 C   0  0  0  0  0  0  0  0  0  0  0  0
   63.4590   33.6610   47.8110 C   0  0  0  0  0  0  0  0  0  0  0  0
   63.6450   32.2450   48.1460 N   0  0  0  0  0  0  0  0  0  0  0  0
   63.8070   32.0790   49.5950 C   0  0  0  0  0  0  0  0  0  0  0  0
   62.5680   31.3900   50.1830 C   0  0  0  0  0  0  0  0  0  0  0  0
   61.3580   32.3350   50.2970 C   0  0  0  0  0  0  0  0  0  0  0  0
   60.1970   31.9700   49.3620 C   0  0  0  0  0  0  0  0  0  0  0  0
   60.6830   31.4780   48.0700 N   0  0  0  0  0  0  0  0  0  0  0  0
   59.8180   31.4310   46.9260 C   0  0  0  0  0  0  0  0  0  0  0  0
   59.4720   32.6020   46.2110 C   0  0  0  0  0  0  0  0  0  0  0  0
   60.0370   33.8470   46.5510 C   0  0  0  0  0  0  0  0  0  0  0  0
   59.6590   35.0080   45.8810 C   0  0  0  0  0  0  0  0  0  0  0  0
   58.7070   34.9550   44.8700 C   0  0  0  0  0  0  0  0  0  0  0  0
   58.1340   33.7370   44.5040 C   0  0  0  0  0  0  0  0  0  0  0  0
   58.5110   32.5290   45.1450 C   0  0  0  0  0  0  0  0  0  0  0  0
   57.9630   31.3090   44.7730 N   0  0  0  0  0  0  0  0  0  0  0  0
   57.0370   31.2080   43.6280 C   0  0  0  0  0  0  0  0  0  0  0  0
   58.3010   30.1950   45.4980 C   0  0  0  0  0  0  0  0  0  0  0  0
   57.8240   28.9380   45.3200 N   0  0  0  0  0  0  0  0  0  0  0  0
   58.4800   28.1810   46.2220 C   0  0  0  0  0  0  0  0  0  0  0  0
   58.3530   26.8060   46.4050 C   0  0  0  0  0  0  0  0  0  0  0  0
   59.1580   26.1880   47.3750 C   0  0  0  0  0  0  0  0  0  0  0  0
   60.0890   26.9490   48.1350 C   0  0  0  0  0  0  0  0  0  0  0  0
   60.9240   26.3630   49.0970 O   0  0  0  0  0  0  0  0  0  0  0  0
   61.0710   26.8390   50.4300 C   0  0  0  0  0  0  0  0  0  0  0  0
   60.1910   28.3370   47.9230 C   0  0  0  0  0  0  0  0  0  0  0  0
   59.3560   28.9300   46.9730 C   0  0  0  0  0  0  0  0  0  0  0  0
   59.2220   30.2360   46.5270 C   0  0  0  0  0  0  0  0  0  0  0  0
   62.7245   34.7164   46.0806 H   0  0  0  0  0  0  0  0  0  0  0  0
   64.3420   33.9646   45.8679 H   0  0  0  0  0  0  0  0  0  0  0  0
   62.8676   32.9385   45.8679 H   0  0  0  0  0  0  0  0  0  0  0  0
   64.3223   34.2372   48.1753 H   0  0  0  0  0  0  0  0  0  0  0  0
   62.5370   34.0251   48.2879 H   0  0  0  0  0  0  0  0  0  0  0  0
   64.5280   31.9210   47.6860 H   0  0  0  0  0  0  0  0  0  0  0  0
   64.6962   31.4629   49.7945 H   0  0  0  0  0  0  0  0  0  0  0  0
   63.9276   33.0677   50.0618 H   0  0  0  0  0  0  0  0  0  0  0  0
   62.2943   30.5452   49.5339 H   0  0  0  0  0  0  0  0  0  0  0  0
   62.8251   31.0569   51.1993 H   0  0  0  0  0  0  0  0  0  0  0  0
   60.9911   32.3052   51.3336 H   0  0  0  0  0  0  0  0  0  0  0  0
   61.7045   33.3364   50.0018 H   0  0  0  0  0  0  0  0  0  0  0  0
   59.5882   31.1865   49.8369 H   0  0  0  0  0  0  0  0  0  0  0  0
   59.5991   32.8760   49.1838 H   0  0  0  0  0  0  0  0  0  0  0  0
   61.7140   31.3950   47.9220 H   0  0  0  0  0  0  0  0  0  0  0  0
   60.7855   33.9028   47.3551 H   0  0  0  0  0  0  0  0  0  0  0  0
   60.1159   35.9709   46.1532 H   0  0  0  0  0  0  0  0  0  0  0  0
   58.4036   35.8787   44.3555 H   0  0  0  0  0  0  0  0  0  0  0  0
   57.3777   33.7129   43.7056 H   0  0  0  0  0  0  0  0  0  0  0  0
   56.0072   31.0957   43.9981 H   0  0  0  0  0  0  0  0  0  0  0  0
   57.1095   32.1194   43.0163 H   0  0  0  0  0  0  0  0  0  0  0  0
   57.3042   30.3337   43.0163 H   0  0  0  0  0  0  0  0  0  0  0  0
   57.1020   28.5890   44.6530 H   0  0  0  0  0  0  0  0  0  0  0  0
   57.6409   26.2200   45.8054 H   0  0  0  0  0  0  0  0  0  0  0  0
   59.0680   25.1056   47.5489 H   0  0  0  0  0  0  0  0  0  0  0  0
   60.8222   26.0334   51.1365 H   0  0  0  0  0  0  0  0  0  0  0  0
   62.1104   27.1607   50.5919 H   0  0  0  0  0  0  0  0  0  0  0  0
   60.3940   27.6908   50.5919 H   0  0  0  0  0  0  0  0  0  0  0  0
   60.9123   28.9412   48.4928 H   0  0  0  0  0  0  0  0  0  0  0  0
  1  2  1  0
  2  3  1  0
  3  4  1  0
  4  5  1  0
  5  6  1  0
  6  7  1  0
  7  8  1  0
  8  9  1  0
  9 10  2  0
 10 11  1  0
 11 12  2  0
 12 13  1  0
 13 14  2  0
 14 15  1  0
 15 16  2  0
 16 17  1  0
 16 18  1  0
 18 19  1  0
 19 20  1  0
 20 21  2  0
 21 22  1  0
 22 23  2  0
 23 24  1  0
 24 25  1  0
 23 26  1  0
 26 27  2  0
 27 28  1  0
 28  9  1  0
 15 10  1  0
 28 18  2  0
 27 20  1  0
  1 29  1  0
  1 30  1  0
  1 31  1  0
  2 32  1  0
  2 33  1  0
  3 34  1  0
  4 35  1  0
  4 36  1  0
  5 37  1  0
  5 38  1  0
  6 39  1  0
  6 40  1  0
  7 41  1  0
  7 42  1  0
  8 43  1  0
 11 44  1  0
 12 45  1  0
 13 46  1  0
 14 47  1  0
 17 48  1  0
 17 49  1  0
 17 50  1  0
 19 51  1  0
 21 52  1  0
 22 53  1  0
 25 54  1  0
 25 55  1  0
 25 56  1  0
 26 57  1  0
M  CHG  1  16   1
M  END
>  <UniqueID>  (19) 
18

>  <SMILES>  (19) 
CCNCCCCNc1c2ccccc2[n+](C)c2[nH]c3ccc(OC)cc3c12

>  <Energy>  (19) 
107.83892893259441

>  <Genealogy>  (19) 
CCNCCCCNc1c2ccccc2[n+](C)c2[nH]c3ccc(OC)cc3c12 (3D coordinates assigned)
CCNCCCCNc1c2ccccc2[n+](C)c2[nH]c3ccc(OC)cc3c12 (optimized conformer: 107.83892893259441 kcal/mol)

>  <smiles>  (19) 
CCNCCCCNc1c2ccccc2[n+](C)c2[nH]c3ccc(OC)cc3c12

>  <score_type>  (19) 
oracle

>  <origin>  (19) 
adg

>  <m_score__min__energy>  (19) 
-6.0599999999999996

>  <m_primary>  (19) 
energy

$$$$
20:0
     RDKit          3D

 56 56  0  0  0  0  0  0  0  0999 V2000
   60.0350   31.3320   50.5090 C   0  0  0  0  0  0  0  0  0  0  0  0
   58.8760   31.4180   49.5030 C   0  0  0  0  0  0  0  0  0  0  0  0
   59.2230   30.9460   48.1370 N   0  0  0  0  0  0  0  0  0  0  0  0
   58.5590   29.6790   47.7430 C   0  0  0  0  0  0  0  0  0  0  0  0
   59.3140   28.4470   48.2360 C   0  0  0  0  0  0  0  0  0  0  0  0
   60.6870   30.8800   47.9180 C   0  0  0  0  0  0  0  0  0  0  0  0
   61.1970   32.2350   47.3730 C   0  0  0  0  0  0  0  0  0  0  0  0
   60.2220   33.3630   47.4380 N   0  0  1  0  0  0  0  0  0  0  0  0
   60.7090   34.5630   48.1460 C   0  0  0  0  0  0  0  0  0  0  0  0
   59.5610   33.6740   46.1420 C   0  0  0  0  0  0  0  0  0  0  0  0
   58.0130   33.7410   46.1760 C   0  0  2  0  0  0  0  0  0  0  0  0
   57.4890   33.1070   47.3150 O   0  0  0  0  0  0  0  0  0  0  0  0
   57.4030   33.1260   44.9040 C   0  0  0  0  0  0  0  0  0  0  0  0
   56.9870   31.7970   45.1610 O   0  0  0  0  0  0  0  0  0  0  0  0
   57.2510   30.9680   44.0460 C   0  0  0  0  0  0  0  0  0  0  0  0
   57.4880   29.5660   44.5240 C   0  0  0  0  0  0  0  0  0  0  0  0
   58.7860   29.0290   44.5220 C   0  0  0  0  0  0  0  0  0  0  0  0
   59.0110   27.7370   45.0020 C   0  0  0  0  0  0  0  0  0  0  0  0
   57.9470   26.9760   45.4960 C   0  0  0  0  0  0  0  0  0  0  0  0
   56.6470   27.4990   45.5170 C   0  0  0  0  0  0  0  0  0  0  0  0
   55.6110   26.6940   46.0140 O   0  0  0  0  0  0  0  0  0  0  0  0
   55.5880   25.2740   45.9270 C   0  0  0  0  0  0  0  0  0  0  0  0
   56.4220   28.8040   45.0370 C   0  0  0  0  0  0  0  0  0  0  0  0
   59.6346   31.3617   51.5331 H   0  0  0  0  0  0  0  0  0  0  0  0
   60.5835   30.3907   50.3569 H   0  0  0  0  0  0  0  0  0  0  0  0
   60.7164   32.1821   50.3569 H   0  0  0  0  0  0  0  0  0  0  0  0
   58.0448   30.8040   49.8801 H   0  0  0  0  0  0  0  0  0  0  0  0
   58.6112   32.4819   49.4137 H   0  0  0  0  0  0  0  0  0  0  0  0
   57.5446   29.6650   48.1682 H   0  0  0  0  0  0  0  0  0  0  0  0
   58.5366   29.6404   46.6439 H   0  0  0  0  0  0  0  0  0  0  0  0
   59.3203   28.4367   49.3359 H   0  0  0  0  0  0  0  0  0  0  0  0
   58.8170   27.5391   47.8636 H   0  0  0  0  0  0  0  0  0  0  0  0
   60.3486   28.4776   47.8636 H   0  0  0  0  0  0  0  0  0  0  0  0
   61.1891   30.6574   48.8711 H   0  0  0  0  0  0  0  0  0  0  0  0
   60.9096   30.0879   47.1879 H   0  0  0  0  0  0  0  0  0  0  0  0
   62.0854   32.5213   47.9550 H   0  0  0  0  0  0  0  0  0  0  0  0
   61.3996   32.0729   46.3040 H   0  0  0  0  0  0  0  0  0  0  0  0
   59.4410   33.0100   48.0420 H   0  0  0  0  0  0  0  0  0  0  0  0
   60.6429   34.4001   49.2319 H   0  0  0  0  0  0  0  0  0  0  0  0
   61.7557   34.7539   47.8669 H   0  0  0  0  0  0  0  0  0  0  0  0
   60.0913   35.4293   47.8669 H   0  0  0  0  0  0  0  0  0  0  0  0
   59.9340   34.6500   45.7980 H   0  0  0  0  0  0  0  0  0  0  0  0
   59.8102   32.8392   45.4704 H   0  0  0  0  0  0  0  0  0  0  0  0
   57.7398   34.8056   46.2210 H   0  0  0  0  0  0  0  0  0  0  0  0
   57.6440   32.1310   47.2120 H   0  0  0  0  0  0  0  0  0  0  0  0
   56.5357   33.7250   44.5895 H   0  0  0  0  0  0  0  0  0  0  0  0
   58.1606   33.1198   44.1065 H   0  0  0  0  0  0  0  0  0  0  0  0
   56.3892   30.9838   43.3626 H   0  0  0  0  0  0  0  0  0  0  0  0
   58.1412   31.3342   43.5136 H   0  0  0  0  0  0  0  0  0  0  0  0
   59.6270   29.6274   44.1416 H   0  0  0  0  0  0  0  0  0  0  0  0
   60.0276   27.3170   44.9914 H   0  0  0  0  0  0  0  0  0  0  0  0
   58.1319   25.9586   45.8712 H   0  0  0  0  0  0  0  0  0  0  0  0
   55.5810   24.8447   46.9397 H   0  0  0  0  0  0  0  0  0  0  0  0
   54.6846   24.9543   45.3870 H   0  0  0  0  0  0  0  0  0  0  0  0
   56.4806   24.9252   45.3870 H   0  0  0  0  0  0  0  0  0  0  0  0
   55.4080   29.2296   45.0633 H   0  0  0  0  0  0  0  0  0  0  0  0
  1  2  1  0
  2  3  1  0
  3  4  1  0
  4  5  1  0
  3  6  1  0
  6  7  1  0
  7  8  1  0
  8  9  1  0
  8 10  1  0
 10 11  1  0
 11 12  1  0
 11 13  1  0
 13 14  1  0
 14 15  1  0
 15 16  1  0
 16 17  2  0
 17 18  1  0
 18 19  2  0
 19 20  1  0
 20 21  1  0
 21 22  1  0
 20 23  2  0
 23 16  1  0
  1 24  1  0
  1 25  1  0
  1 26  1  0
  2 27  1  0
  2 28  1  0
  4 29  1  0
  4 30  1  0
  5 31  1  0
  5 32  1  0
  5 33  1  0
  6 34  1  0
  6 35  1  0
  7 36  1  0
  7 37  1  0
  8 38  1  1
  9 39  1  0
  9 40  1  0
  9 41  1  0
 10 42  1  0
 10 43  1  0
 11 44  1  1
 12 45  1  0
 13 46  1  0
 13 47  1  0
 15 48  1  0
 15 49  1  0
 17 50  1  0
 18 51  1  0
 19 52  1  0
 22 53  1  0
 22 54  1  0
 22 55  1  0
 23 56  1  0
M  CHG  1   8   1
M  END
>  <UniqueID>  (20) 
19

>  <SMILES>  (20) 
CCN(CC)CC[N@@H+](C)C[C@H](O)COCc1cccc(OC)c1

>  <Energy>  (20) 
61.55223857024232

>  <Genealogy>  (20) 
CCN(CC)CC[NH+](C)CC(O)COCc1cccc(OC)c1 (protonated)
CCN(CC)CC[N@@H+](C)C[C@H](O)COCc1cccc(OC)c1 (chirality)
CCN(CC)CC[N@@H+](C)C[C@H](O)COCc1cccc(OC)c1 (3D coordinates assigned)
CCN(CC)CC[N@@H+](C)C[C@H](O)COCc1cccc(OC)c1 (optimized conformer: 61.55223857024232 kcal/mol)

>  <smiles>  (20) 
CCN(CC)CCN(C)CC(O)COCc1cccc(OC)c1

>  <score_type>  (20) 
oracle

>  <origin>  (20) 
adg

>  <m_score__min__energy>  (20) 
-4.1699999999999999

>  <m_primary>  (20) 
energy

$$$$
21:0
     RDKit          3D

 63 65  0  0  0  0  0  0  0  0999 V2000
   63.3180   33.4720   46.7910 C   0  0  0  0  0  0  0  0  0  0  0  0
   62.6860   32.1850   47.3030 C   0  0  0  0  0  0  0  0  0  0  0  0
   62.8120   32.1150   48.7640 N   0  0  0  0  0  0  0  0  0  0  0  0
   63.2610   33.3880   49.3520 C   0  0  0  0  0  0  0  0  0  0  0  0
   62.1030   34.3330   49.7190 C   0  0  0  0  0  0  0  0  0  0  0  0
   60.8580   33.6580   49.6900 O   0  0  0  0  0  0  0  0  0  0  0  0
   60.1430   33.8380   50.8990 C   0  0  0  0  0  0  0  0  0  0  0  0
   60.5440   32.7690   51.9140 C   0  0  0  0  0  0  0  0  0  0  0  0
   60.9900   31.5580   51.2100 N   0  0  0  0  0  0  0  0  0  0  0  0
   59.9130   30.5670   51.0550 C   0  0  0  0  0  0  0  0  0  0  0  0
   59.2750   30.6030   49.6510 C   0  0  0  0  0  0  0  0  0  0  0  0
   60.1330   31.2860   48.6640 N   0  0  0  0  0  0  0  0  0  0  0  0
   59.5210   31.3440   47.3430 C   0  0  0  0  0  0  0  0  0  0  0  0
   59.0340   32.5670   46.8070 C   0  0  0  0  0  0  0  0  0  0  0  0
   58.5090   32.5970   45.4980 C   0  0  0  0  0  0  0  0  0  0  0  0
   58.2800   31.4300   44.8050 N   0  0  0  0  0  0  0  0  0  0  0  0
   57.4260   31.4520   43.5990 C   0  0  0  0  0  0  0  0  0  0  0  0
   58.8330   30.2470   45.2470 C   0  0  0  0  0  0  0  0  0  0  0  0
   58.8320   29.0870   44.4300 C   0  0  0  0  0  0  0  0  0  0  0  0
   59.3550   27.8820   44.8870 C   0  0  0  0  0  0  0  0  0  0  0  0
   59.9000   27.7980   46.1590 C   0  0  0  0  0  0  0  0  0  0  0  0
   59.9500   28.9240   46.9740 C   0  0  0  0  0  0  0  0  0  0  0  0
   59.4420   30.1740   46.5330 C   0  0  0  0  0  0  0  0  0  0  0  0
   58.1870   33.9630   44.9030 C   0  0  0  0  0  0  0  0  0  0  0  0
   59.2710   34.9870   45.2720 C   0  0  0  0  0  0  0  0  0  0  0  0
   59.5940   35.0280   46.7800 C   0  0  0  0  0  0  0  0  0  0  0  0
   58.9620   33.8790   47.5780 C   0  0  0  0  0  0  0  0  0  0  0  0
   63.6239   34.0950   47.6444 H   0  0  0  0  0  0  0  0  0  0  0  0
   64.1995   33.2295   46.1793 H   0  0  0  0  0  0  0  0  0  0  0  0
   62.5872   34.0213   46.1793 H   0  0  0  0  0  0  0  0  0  0  0  0
   61.6213   32.1663   47.0271 H   0  0  0  0  0  0  0  0  0  0  0  0
   63.2012   31.3237   46.8527 H   0  0  0  0  0  0  0  0  0  0  0  0
   61.8900   31.8420   49.1770 H   0  0  0  0  0  0  0  0  0  0  0  0
   63.8341   33.1677   50.2647 H   0  0  0  0  0  0  0  0  0  0  0  0
   63.8701   33.9000   48.5925 H   0  0  0  0  0  0  0  0  0  0  0  0
   62.2717   34.7301   50.7309 H   0  0  0  0  0  0  0  0  0  0  0  0
   62.0730   35.1479   48.9807 H   0  0  0  0  0  0  0  0  0  0  0  0
   60.3696   34.8327   51.3104 H   0  0  0  0  0  0  0  0  0  0  0  0
   59.0656   33.7523   50.6946 H   0  0  0  0  0  0  0  0  0  0  0  0
   61.3635   33.1498   52.5412 H   0  0  0  0  0  0  0  0  0  0  0  0
   59.6775   32.5241   52.5458 H   0  0  0  0  0  0  0  0  0  0  0  0
   61.3540   31.8270   50.2650 H   0  0  0  0  0  0  0  0  0  0  0  0
   60.3293   29.5636   51.2277 H   0  0  0  0  0  0  0  0  0  0  0  0
   59.1274   30.8100   51.7856 H   0  0  0  0  0  0  0  0  0  0  0  0
   59.1016   29.5702   49.3145 H   0  0  0  0  0  0  0  0  0  0  0  0
   58.3323   31.1651   49.7238 H   0  0  0  0  0  0  0  0  0  0  0  0
   61.0480   30.7890   48.6000 H   0  0  0  0  0  0  0  0  0  0  0  0
   60.4250   32.2190   49.0220 H   0  0  0  0  0  0  0  0  0  0  0  0
   56.3681   31.4793   43.8993 H   0  0  0  0  0  0  0  0  0  0  0  0
   57.6603   32.3444   43.0001 H   0  0  0  0  0  0  0  0  0  0  0  0
   57.6140   30.5487   43.0001 H   0  0  0  0  0  0  0  0  0  0  0  0
   58.4095   29.1417   43.4158 H   0  0  0  0  0  0  0  0  0  0  0  0
   59.3362   26.9940   44.2380 H   0  0  0  0  0  0  0  0  0  0  0  0
   60.2939   26.8383   46.5247 H   0  0  0  0  0  0  0  0  0  0  0  0
   60.3912   28.8444   47.9785 H   0  0  0  0  0  0  0  0  0  0  0  0
   58.1312   33.8755   43.8079 H   0  0  0  0  0  0  0  0  0  0  0  0
   57.2241   34.3066   45.3088 H   0  0  0  0  0  0  0  0  0  0  0  0
   60.1911   34.7314   44.7261 H   0  0  0  0  0  0  0  0  0  0  0  0
   58.8840   35.9795   44.9979 H   0  0  0  0  0  0  0  0  0  0  0  0
   60.6859   34.9766   46.9028 H   0  0  0  0  0  0  0  0  0  0  0  0
   59.1709   35.9638   47.1740 H   0  0  0  0  0  0  0  0  0  0  0  0
   59.5003   33.7653   48.5305 H   0  0  0  0  0  0  0  0  0  0  0  0
   57.9037   34.1201   47.7565 H   0  0  0  0  0  0  0  0  0  0  0  0
  1  2  1  0
  2  3  1  0
  3  4  1  0
  4  5  1  0
  5  6  1  0
  6  7  1  0
  7  8  1  0
  8  9  1  0
  9 10  1  0
 10 11  1  0
 11 12  1  0
 12 13  1  0
 13 14  2  0
 14 15  1  0
 15 16  2  0
 16 17  1  0
 16 18  1  0
 18 19  2  0
 19 20  1  0
 20 21  2  0
 21 22  1  0
 22 23  2  0
 15 24  1  0
 24 25  1  0
 25 26  1  0
 26 27  1  0
 23 13  1  0
 27 14  1  0
 23 18  1  0
  1 28  1  0
  1 29  1  0
  1 30  1  0
  2 31  1  0
  2 32  1  0
  3 33  1  0
  4 34  1  0
  4 35  1  0
  5 36  1  0
  5 37  1  0
  7 38  1  0
  7 39  1  0
  8 40  1  0
  8 41  1  0
  9 42  1  0
 10 43  1  0
 10 44  1  0
 11 45  1  0
 11 46  1  0
 12 47  1  0
 12 48  1  0
 17 49  1  0
 17 50  1  0
 17 51  1  0
 19 52  1  0
 20 53  1  0
 21 54  1  0
 22 55  1  0
 24 56  1  0
 24 57  1  0
 25 58  1  0
 25 59  1  0
 26 60  1  0
 26 61  1  0
 27 62  1  0
 27 63  1  0
M  CHG  2  12   1  16   1
M  END
>  <UniqueID>  (21) 
20

>  <SMILES>  (21) 
CCNCCOCCNCC[NH2+]c1c2c([n+](C)c3ccccc13)CCCC2

>  <Energy>  (21) 
89.00718712780541

>  <Genealogy>  (21) 
CCNCCOCCNCC[NH2+]c1c2c([n+](C)c3ccccc13)CCCC2 (protonated)
CCNCCOCCNCC[NH2+]c1c2c([n+](C)c3ccccc13)CCCC2 (3D coordinates assigned)
CCNCCOCCNCC[NH2+]c1c2c([n+](C)c3ccccc13)CCCC2 (nonaromatic ring conformer: 89.00718712780541 kcal/mol)

>  <smiles>  (21) 
CCNCCOCCNCCNc1c2c([n+](C)c3ccccc13)CCCC2

>  <score_type>  (21) 
oracle

>  <origin>  (21) 
adg

>  <m_score__min__energy>  (21) 
-3.54

>  <m_primary>  (21) 
energy

$$$$
22:0
     RDKit          3D

 41 41  0  0  0  0  0  0  0  0999 V2000
   63.0360   32.9080   47.1290 C   0  0  0  0  0  0  0  0  0  0  0  0
   61.7180   32.2150   47.4730 C   0  0  0  0  0  0  0  0  0  0  0  0
   60.5800   33.1610   47.4000 N   0  0  0  0  0  0  0  0  0  0  0  0
   60.3320   33.7840   48.7130 C   0  0  0  0  0  0  0  0  0  0  0  0
   60.8130   34.2020   46.3670 C   0  0  0  0  0  0  0  0  0  0  0  0
   59.5080   34.5370   45.6390 C   0  0  0  0  0  0  0  0  0  0  0  0
   58.3460   34.0950   46.4270 N   0  0  0  0  0  0  0  0  0  0  0  0
   57.1540   33.9170   45.5840 C   0  0  0  0  0  0  0  0  0  0  0  0
   57.4150   32.8760   44.4930 C   0  0  0  0  0  0  0  0  0  0  0  0
   57.6900   31.5220   45.0800 C   0  0  0  0  0  0  0  0  0  0  0  0
   56.8790   30.5810   44.8700 O   0  0  0  0  0  0  0  0  0  0  0  0
   58.8740   31.3040   45.8630 N   0  0  0  0  0  0  0  0  0  0  0  0
   59.3370   30.0010   46.2500 C   0  0  0  0  0  0  0  0  0  0  0  0
   59.8880   29.1530   45.2770 C   0  0  0  0  0  0  0  0  0  0  0  0
   60.3310   27.8730   45.6230 C   0  0  0  0  0  0  0  0  0  0  0  0
   60.2110   27.4240   46.9400 C   0  0  0  0  0  0  0  0  0  0  0  0
   59.6380   28.2500   47.9110 C   0  0  0  0  0  0  0  0  0  0  0  0
   59.1940   29.5330   47.5700 C   0  0  0  0  0  0  0  0  0  0  0  0
   58.5820   30.2890   48.5160 F   0  0  0  0  0  0  0  0  0  0  0  0
   63.5588   33.1829   48.0570 H   0  0  0  0  0  0  0  0  0  0  0  0
   63.6669   32.2250   46.5412 H   0  0  0  0  0  0  0  0  0  0  0  0
   62.8309   33.8149   46.5412 H   0  0  0  0  0  0  0  0  0  0  0  0
   61.5480   31.3937   46.7612 H   0  0  0  0  0  0  0  0  0  0  0  0
   61.7851   31.8297   48.5011 H   0  0  0  0  0  0  0  0  0  0  0  0
   60.6119   33.0808   49.5112 H   0  0  0  0  0  0  0  0  0  0  0  0
   60.9340   34.7002   48.8037 H   0  0  0  0  0  0  0  0  0  0  0  0
   59.2651   34.0358   48.8037 H   0  0  0  0  0  0  0  0  0  0  0  0
   61.2016   35.1107   46.8500 H   0  0  0  0  0  0  0  0  0  0  0  0
   61.5406   33.8206   45.6355 H   0  0  0  0  0  0  0  0  0  0  0  0
   59.4484   35.6247   45.4862 H   0  0  0  0  0  0  0  0  0  0  0  0
   59.4985   34.0152   44.6707 H   0  0  0  0  0  0  0  0  0  0  0  0
   58.5770   33.1680   46.8570 H   0  0  0  0  0  0  0  0  0  0  0  0
   56.3150   33.5807   46.2109 H   0  0  0  0  0  0  0  0  0  0  0  0
   56.9115   34.8777   45.1061 H   0  0  0  0  0  0  0  0  0  0  0  0
   56.5306   32.8107   43.8422 H   0  0  0  0  0  0  0  0  0  0  0  0
   58.2999   33.1904   43.9202 H   0  0  0  0  0  0  0  0  0  0  0  0
   59.3640   32.1380   46.2580 H   0  0  0  0  0  0  0  0  0  0  0  0
   59.9718   29.4976   44.2357 H   0  0  0  0  0  0  0  0  0  0  0  0
   60.7743   27.2191   44.8575 H   0  0  0  0  0  0  0  0  0  0  0  0
   60.5676   26.4199   47.2132 H   0  0  0  0  0  0  0  0  0  0  0  0
   59.5357   27.8910   48.9457 H   0  0  0  0  0  0  0  0  0  0  0  0
  1  2  1  0
  2  3  1  0
  3  4  1  0
  3  5  1  0
  5  6  1  0
  6  7  1  0
  7  8  1  0
  8  9  1  0
  9 10  1  0
 10 11  2  0
 10 12  1  0
 12 13  1  0
 13 14  2  0
 14 15  1  0
 15 16  2  0
 16 17  1  0
 17 18  2  0
 18 19  1  0
 18 13  1  0
  1 20  1  0
  1 21  1  0
  1 22  1  0
  2 23  1  0
  2 24  1  0
  4 25  1  0
  4 26  1  0
  4 27  1  0
  5 28  1  0
  5 29  1  0
  6 30  1  0
  6 31  1  0
  7 32  1  0
  8 33  1  0
  8 34  1  0
  9 35  1  0
  9 36  1  0
 12 37  1  0
 14 38  1  0
 15 39  1  0
 16 40  1  0
 17 41  1  0
M  END
>  <UniqueID>  (22) 
21

>  <SMILES>  (22) 
CCN(C)CCNCCC(=O)Nc1ccccc1F

>  <Energy>  (22) 
38.44195579791825

>  <Genealogy>  (22) 
CCN(C)CCNCCC(=O)Nc1ccccc1F (3D coordinates assigned)
CCN(C)CCNCCC(=O)Nc1ccccc1F (optimized conformer: 38.44195579791825 kcal/mol)

>  <smiles>  (22) 
CCN(C)CCNCCC(=O)Nc1ccccc1F

>  <score_type>  (22) 
oracle

>  <origin>  (22) 
adg

>  <m_score__min__energy>  (22) 
-5.8099999999999996

>  <m_primary>  (22) 
energy

$$$$
