0:0
     RDKit          3D

 70 74  0  0  0  0  0  0  0  0999 V2000
   57.0690   32.6760   40.3720 C   0  0  0  0  0  0  0  0  0  0  0  0
   57.1970   31.9360   41.5640 O   0  0  0  0  0  0  0  0  0  0  0  0
   58.1280   32.5740   42.4130 C   0  0  0  0  0  0  0  0  0  0  0  0
   57.6310   32.5110   43.8570 C   0  0  0  0  0  0  0  0  0  0  0  0
   57.0140   31.2020   44.1410 N   0  0  0  0  0  0  0  0  0  0  0  0
   57.9440   30.0530   44.0870 C   0  0  0  0  0  0  0  0  0  0  0  0
   57.2230   28.6860   43.9400 C   0  0  0  0  0  0  0  0  0  0  0  0
   57.0790   27.9230   45.2680 C   0  0  0  0  0  0  0  0  0  0  0  0
   58.3420   27.8640   46.0250 N   0  0  0  0  0  0  0  0  0  0  0  0
   58.4290   26.9660   47.1580 C   0  0  0  0  0  0  0  0  0  0  0  0
   57.4550   26.2020   47.4210 O   0  0  0  0  0  0  0  0  0  0  0  0
   59.6550   26.9180   48.0370 C   0  0  0  0  0  0  0  0  0  0  0  0
   59.9550   28.2280   48.6140 N   0  0  0  0  0  0  0  0  0  0  0  0
   59.2650   28.8370   49.5970 C   0  0  0  0  0  0  0  0  0  0  0  0
   59.9130   30.0200   49.8890 C   0  0  0  0  0  0  0  0  0  0  0  0
   59.6740   30.8850   51.0040 N   0  0  0  0  0  0  0  0  0  0  0  0
   59.1500   32.2150   50.9300 C   0  0  0  0  0  0  0  0  0  0  0  0
   58.2000   32.5740   51.6740 O   0  0  0  0  0  0  0  0  0  0  0  0
   59.7060   33.1620   49.9570 C   0  0  0  0  0  0  0  0  0  0  0  0
   60.8420   33.9580   50.0950 C   0  0  0  0  0  0  0  0  0  0  0  0
   61.0490   34.6740   48.9600 N   0  0  0  0  0  0  0  0  0  0  0  0
   60.0780   34.3490   48.1250 N   0  0  0  0  0  0  0  0  0  0  0  0
   59.8810   34.8270   46.8740 C   0  0  0  0  0  0  0  0  0  0  0  0
   58.7760   34.3490   46.1560 C   0  0  0  0  0  0  0  0  0  0  0  0
   57.9280   33.4030   46.7650 C   0  0  0  0  0  0  0  0  0  0  0  0
   58.1800   32.9610   48.0320 N   0  0  0  0  0  0  0  0  0  0  0  0
   59.2590   33.4530   48.6880 C   0  0  0  0  0  0  0  0  0  0  0  0
   61.0040   30.0710   49.0330 C   0  0  0  0  0  0  0  0  0  0  0  0
   62.0860   31.0850   48.9940 C   0  0  0  0  0  0  0  0  0  0  0  0
   62.1970   31.9000   47.8530 C   0  0  0  0  0  0  0  0  0  0  0  0
   63.2090   32.8590   47.7580 C   0  0  0  0  0  0  0  0  0  0  0  0
   63.3370   33.8580   46.3200 Cl  0  0  0  0  0  0  0  0  0  0  0  0
   64.1160   33.0210   48.8050 C   0  0  0  0  0  0  0  0  0  0  0  0
   64.0080   32.2340   49.9530 C   0  0  0  0  0  0  0  0  0  0  0  0
   62.9880   31.2670   50.0680 C   0  0  0  0  0  0  0  0  0  0  0  0
   62.8330   30.5040   51.2370 O   0  0  0  0  0  0  0  0  0  0  0  0
   62.3360   30.9970   52.4770 C   0  0  0  0  0  0  0  0  0  0  0  0
   63.2420   30.6970   53.4760 F   0  0  0  0  0  0  0  0  0  0  0  0
   62.1760   32.3680   52.4100 F   0  0  0  0  0  0  0  0  0  0  0  0
   61.0060   28.9590   48.2690 N   0  0  0  0  0  0  0  0  0  0  0  0
   59.4840   28.6850   45.5880 C   0  0  0  0  0  0  0  0  0  0  0  0
   59.0000   30.0870   45.2240 C   0  0  0  0  0  0  0  0  0  0  0  0
   56.8861   33.7332   40.6146 H   0  0  0  0  0  0  0  0  0  0  0  0
   57.9955   32.5894   39.7854 H   0  0  0  0  0  0  0  0  0  0  0  0
   56.2255   32.2832   39.7854 H   0  0  0  0  0  0  0  0  0  0  0  0
   59.1005   32.0655   42.3379 H   0  0  0  0  0  0  0  0  0  0  0  0
   58.2384   33.6256   42.1099 H   0  0  0  0  0  0  0  0  0  0  0  0
   58.4810   32.6646   44.5381 H   0  0  0  0  0  0  0  0  0  0  0  0
   56.8755   33.2968   44.0048 H   0  0  0  0  0  0  0  0  0  0  0  0
   56.2420   31.0280   43.4540 H   0  0  0  0  0  0  0  0  0  0  0  0
   58.5152   30.1663   43.1538 H   0  0  0  0  0  0  0  0  0  0  0  0
   56.2179   28.8646   43.5302 H   0  0  0  0  0  0  0  0  0  0  0  0
   57.8401   28.0643   43.2746 H   0  0  0  0  0  0  0  0  0  0  0  0
   56.3213   28.4284   45.8848 H   0  0  0  0  0  0  0  0  0  0  0  0
   56.7836   26.8905   45.0298 H   0  0  0  0  0  0  0  0  0  0  0  0
   59.4820   26.2000   48.8522 H   0  0  0  0  0  0  0  0  0  0  0  0
   60.5106   26.6105   47.4178 H   0  0  0  0  0  0  0  0  0  0  0  0
   58.3511   28.4601   50.0795 H   0  0  0  0  0  0  0  0  0  0  0  0
   61.4775   33.9999   50.9918 H   0  0  0  0  0  0  0  0  0  0  0  0
   60.5662   35.5670   46.4348 H   0  0  0  0  0  0  0  0  0  0  0  0
   58.5746   34.7062   45.1353 H   0  0  0  0  0  0  0  0  0  0  0  0
   57.0564   33.0176   46.2156 H   0  0  0  0  0  0  0  0  0  0  0  0
   61.4801   31.7813   47.0272 H   0  0  0  0  0  0  0  0  0  0  0  0
   64.9177   33.7700   48.7261 H   0  0  0  0  0  0  0  0  0  0  0  0
   64.7254   32.3695   50.7758 H   0  0  0  0  0  0  0  0  0  0  0  0
   61.3642   30.5283   52.6915 H   0  0  0  0  0  0  0  0  0  0  0  0
   60.2194   28.7521   46.4033 H   0  0  0  0  0  0  0  0  0  0  0  0
   59.9509   28.2204   44.7070 H   0  0  0  0  0  0  0  0  0  0  0  0
   58.5504   30.5512   46.1142 H   0  0  0  0  0  0  0  0  0  0  0  0
   59.8652   30.6674   44.8710 H   0  0  0  0  0  0  0  0  0  0  0  0
  1  2  1  0
  2  3  1  0
  3  4  1  0
  4  5  1  0
  5  6  1  0
  6  7  1  0
  7  8  1  0
  8  9  1  0
  9 10  1  0
 10 11  2  0
 10 12  1  0
 12 13  1  0
 13 14  1  0
 14 15  2  0
 15 16  1  0
 16 17  1  0
 17 18  2  0
 17 19  1  0
 19 20  1  0
 20 21  2  0
 21 22  1  0
 22 23  1  0
 23 24  2  0
 24 25  1  0
 25 26  2  0
 26 27  1  0
 15 28  1  0
 28 29  1  0
 29 30  2  0
 30 31  1  0
 31 32  1  0
 31 33  2  0
 33 34  1  0
 34 35  2  0
 35 36  1  0
 36 37  1  0
 37 38  1  0
 37 39  1  0
 28 40  2  0
  9 41  1  0
 41 42  1  0
 42  6  1  0
 40 13  1  0
 27 19  2  0
 35 29  1  0
 27 22  1  0
  1 43  1  0
  1 44  1  0
  1 45  1  0
  3 46  1  0
  3 47  1  0
  4 48  1  0
  4 49  1  0
  5 50  1  0
  6 51  1  0
  7 52  1  0
  7 53  1  0
  8 54  1  0
  8 55  1  0
 12 56  1  0
 12 57  1  0
 14 58  1  0
 20 59  1  0
 23 60  1  0
 24 61  1  0
 25 62  1  0
 30 63  1  0
 33 64  1  0
 34 65  1  0
 37 66  1  0
 41 67  1  0
 41 68  1  0
 42 69  1  0
 42 70  1  0
M  CHG  1  16  -1
M  END
>  <UniqueID>  (1) 
1

>  <SMILES>  (1) 
COCCNC1CCN(C(=O)Cn2cc([N-]C(=O)c3cnn4cccnc34)c(-c3cc(Cl)ccc3OC(F)F)n2)CC1

>  <Energy>  (1) 
154.0354424487641

>  <Genealogy>  (1) 
COCCNC1CCN(C(=O)Cn2cc([N-]C(=O)c3cnn4cccnc34)c(-c3cc(Cl)ccc3OC(F)F)n2)CC1 (protonated)
COCCNC1CCN(C(=O)Cn2cc([N-]C(=O)c3cnn4cccnc34)c(-c3cc(Cl)ccc3OC(F)F)n2)CC1 (3D coordinates assigned)
COCCNC1CCN(C(=O)Cn2cc([N-]C(=O)c3cnn4cccnc34)c(-c3cc(Cl)ccc3OC(F)F)n2)CC1 (nonaromatic ring conformer: 154.0354424487641 kcal/mol)

>  <smiles>  (1) 
COCCNC1CCN(C(=O)Cn2cc(NC(=O)c3cnn4cccnc34)c(-c3cc(Cl)ccc3OC(F)F)n2)CC1

>  <score_type>  (1) 
oracle

>  <origin>  (1) 
adg

>  <m_score__min__energy>  (1) 
-10.17

>  <m_primary>  (1) 
energy

$$$$
1:0
     RDKit          3D

 25 25  0  0  0  0  0  0  0  0999 V2000
   57.5910   33.4750   46.7650 C   0  0  0  0  0  0  0  0  0  0  0  0
   57.5970   32.7000   45.8400 C   0  0  0  0  0  0  0  0  0  0  0  0
   57.6110   31.7490   44.7090 C   0  0  2  0  0  0  0  0  0  0  0  0
   58.1220   32.4980   43.4580 C   0  0  0  0  0  0  0  0  0  0  0  0
   58.1460   31.6390   42.3350 O   0  0  0  0  0  0  0  0  0  0  0  0
   57.7640   32.3580   41.1850 C   0  0  0  0  0  0  0  0  0  0  0  0
   56.2370   31.4080   44.4830 O   0  0  0  0  0  0  0  0  0  0  0  0
   56.0350   30.1000   43.9820 C   0  0  0  0  0  0  0  0  0  0  0  0
   56.5660   29.1220   44.9700 C   0  0  0  0  0  0  0  0  0  0  0  0
   55.9460   28.0660   45.2600 O   0  0  0  0  0  0  0  0  0  0  0  0
   57.7750   29.4290   45.5720 O   0  0  0  0  0  0  0  0  0  0  0  0
   58.5440   30.5030   45.0410 C   0  0  2  0  0  0  0  0  0  0  0  0
   59.7220   30.7830   45.9840 C   0  0  0  0  0  0  0  0  0  0  0  0
   57.5855   34.1814   47.6082 H   0  0  0  0  0  0  0  0  0  0  0  0
   57.4552   33.3474   43.2485 H   0  0  0  0  0  0  0  0  0  0  0  0
   59.1446   32.8538   43.6525 H   0  0  0  0  0  0  0  0  0  0  0  0
   57.2675   33.2926   41.4850 H   0  0  0  0  0  0  0  0  0  0  0  0
   58.6563   32.5928   40.5861 H   0  0  0  0  0  0  0  0  0  0  0  0
   57.0700   31.7500   40.5861 H   0  0  0  0  0  0  0  0  0  0  0  0
   54.9600   29.9245   43.8288 H   0  0  0  0  0  0  0  0  0  0  0  0
   56.5574   29.9824   43.0211 H   0  0  0  0  0  0  0  0  0  0  0  0
   58.9909   30.2403   44.0708 H   0  0  0  0  0  0  0  0  0  0  0  0
   59.3835   30.7025   47.0275 H   0  0  0  0  0  0  0  0  0  0  0  0
   60.5211   30.0498   45.8002 H   0  0  0  0  0  0  0  0  0  0  0  0
   60.1057   31.7974   45.8002 H   0  0  0  0  0  0  0  0  0  0  0  0
  1  2  3  0
  3  2  1  1
  3  4  1  0
  4  5  1  0
  5  6  1  0
  3  7  1  0
  7  8  1  0
  8  9  1  0
  9 10  2  0
  9 11  1  0
 11 12  1  0
 12 13  1  0
 12  3  1  0
  1 14  1  0
  4 15  1  0
  4 16  1  0
  6 17  1  0
  6 18  1  0
  6 19  1  0
  8 20  1  0
  8 21  1  0
 12 22  1  6
 13 23  1  0
 13 24  1  0
 13 25  1  0
M  END
>  <UniqueID>  (2) 
2

>  <SMILES>  (2) 
C#C[C@]1(COC)OCC(=O)O[C@@H]1C

>  <Energy>  (2) 
32.466125560994186

>  <Genealogy>  (2) 
C#C[C@]1(COC)OCC(=O)O[C@@H]1C (chirality)
C#C[C@]1(COC)OCC(=O)O[C@@H]1C (3D coordinates assigned)
C#C[C@]1(COC)OCC(=O)O[C@@H]1C (nonaromatic ring conformer: 32.466125560994186 kcal/mol)

>  <smiles>  (2) 
C#CC1(COC)OCC(=O)OC1C

>  <score_type>  (2) 
oracle

>  <origin>  (2) 
adg

>  <m_score__min__energy>  (2) 
-4.7300000000000004

>  <m_primary>  (2) 
energy

$$$$
2:0
     RDKit          3D

 41 43  0  0  0  0  0  0  0  0999 V2000
   57.8420   27.0920   44.9300 C   0  0  0  0  0  0  0  0  0  0  0  0
   58.4580   28.2650   44.1710 C   0  0  0  0  0  0  0  0  0  0  0  0
   58.2980   29.5120   44.9290 N   0  0  0  0  0  0  0  0  0  0  0  0
   57.5260   30.5970   44.3700 C   0  0  0  0  0  0  0  0  0  0  0  0
   56.3320   30.7770   44.7380 O   0  0  0  0  0  0  0  0  0  0  0  0
   58.1450   31.5970   43.4320 C   0  0  0  0  0  0  0  0  0  0  0  0
   57.8620   33.0190   43.9170 C   0  0  0  0  0  0  0  0  0  0  0  0
   58.0090   33.0980   45.3700 N   0  0  0  0  0  0  0  0  0  0  0  0
   57.0910   32.7170   46.2540 N   0  0  0  0  0  0  0  0  0  0  0  0
   57.5280   32.8410   47.5060 N   0  0  0  0  0  0  0  0  0  0  0  0
   58.7840   33.3190   47.3960 C   0  0  0  0  0  0  0  0  0  0  0  0
   59.7020   33.5960   48.4030 C   0  0  0  0  0  0  0  0  0  0  0  0
   60.9810   34.0440   48.0100 C   0  0  0  0  0  0  0  0  0  0  0  0
   61.3000   34.1980   46.6390 C   0  0  0  0  0  0  0  0  0  0  0  0
   60.3440   33.9100   45.6470 C   0  0  0  0  0  0  0  0  0  0  0  0
   59.0890   33.4730   46.0760 C   0  0  0  0  0  0  0  0  0  0  0  0
   59.0830   29.7070   46.1200 C   0  0  0  0  0  0  0  0  0  0  0  0
   58.5480   29.3780   47.3790 C   0  0  0  0  0  0  0  0  0  0  0  0
   59.3070   29.5690   48.5380 C   0  0  0  0  0  0  0  0  0  0  0  0
   60.6000   30.0950   48.4500 C   0  0  0  0  0  0  0  0  0  0  0  0
   61.1360   30.4300   47.2020 C   0  0  0  0  0  0  0  0  0  0  0  0
   60.3810   30.2390   46.0400 C   0  0  0  0  0  0  0  0  0  0  0  0
   57.9338   27.2667   46.0121 H   0  0  0  0  0  0  0  0  0  0  0  0
   56.7791   26.9997   44.6623 H   0  0  0  0  0  0  0  0  0  0  0  0
   58.3694   26.1645   44.6623 H   0  0  0  0  0  0  0  0  0  0  0  0
   59.5296   28.0718   44.0148 H   0  0  0  0  0  0  0  0  0  0  0  0
   57.9453   28.3698   43.2034 H   0  0  0  0  0  0  0  0  0  0  0  0
   59.2324   31.4354   43.3941 H   0  0  0  0  0  0  0  0  0  0  0  0
   57.7115   31.4660   42.4296 H   0  0  0  0  0  0  0  0  0  0  0  0
   58.5717   33.7124   43.4422 H   0  0  0  0  0  0  0  0  0  0  0  0
   56.8312   33.2911   43.6462 H   0  0  0  0  0  0  0  0  0  0  0  0
   56.1490   32.3470   46.0030 H   0  0  0  0  0  0  0  0  0  0  0  0
   59.4414   33.4708   49.4643 H   0  0  0  0  0  0  0  0  0  0  0  0
   61.7366   34.2756   48.7751 H   0  0  0  0  0  0  0  0  0  0  0  0
   62.3021   34.5452   46.3472 H   0  0  0  0  0  0  0  0  0  0  0  0
   60.5759   34.0244   44.5778 H   0  0  0  0  0  0  0  0  0  0  0  0
   57.5294   28.9692   47.4519 H   0  0  0  0  0  0  0  0  0  0  0  0
   58.8867   29.3053   49.5197 H   0  0  0  0  0  0  0  0  0  0  0  0
   61.1957   30.2453   49.3625 H   0  0  0  0  0  0  0  0  0  0  0  0
   62.1528   30.8443   47.1343 H   0  0  0  0  0  0  0  0  0  0  0  0
   60.8047   30.5061   45.0607 H   0  0  0  0  0  0  0  0  0  0  0  0
  1  2  1  0
  2  3  1  0
  3  4  1  0
  4  5  2  0
  4  6  1  0
  6  7  1  0
  7  8  1  0
  8  9  1  0
  9 10  2  0
 10 11  1  0
 11 12  2  0
 12 13  1  0
 13 14  2  0
 14 15  1  0
 15 16  2  0
  3 17  1  0
 17 18  2  0
 18 19  1  0
 19 20  2  0
 20 21  1  0
 21 22  2  0
 16  8  1  0
 22 17  1  0
 16 11  1  0
  1 23  1  0
  1 24  1  0
  1 25  1  0
  2 26  1  0
  2 27  1  0
  6 28  1  0
  6 29  1  0
  7 30  1  0
  7 31  1  0
  9 32  1  0
 12 33  1  0
 13 34  1  0
 14 35  1  0
 15 36  1  0
 18 37  1  0
 19 38  1  0
 20 39  1  0
 21 40  1  0
 22 41  1  0
M  CHG  1   9   1
M  END
>  <UniqueID>  (3) 
3

>  <SMILES>  (3) 
CCN(C(=O)CCn1[nH+]nc2ccccc21)c1ccccc1

>  <Energy>  (3) 
87.42541653704914

>  <Genealogy>  (3) 
CCN(C(=O)CCn1[nH+]nc2ccccc21)c1ccccc1 (protonated)
CCN(C(=O)CCn1[nH+]nc2ccccc21)c1ccccc1 (3D coordinates assigned)
CCN(C(=O)CCn1[nH+]nc2ccccc21)c1ccccc1 (optimized conformer: 87.42541653704914 kcal/mol)

>  <smiles>  (3) 
CCN(C(=O)CCn1nnc2ccccc21)c1ccccc1

>  <score_type>  (3) 
oracle

>  <origin>  (3) 
adg

>  <m_score__min__energy>  (3) 
-6.2800000000000002

>  <m_primary>  (3) 
energy

$$$$
3:0
     RDKit          3D

 48 50  0  0  0  0  0  0  0  0999 V2000
   55.2220   25.1120   45.6150 C   0  0  0  0  0  0  0  0  0  0  0  0
   55.3760   26.4930   45.9260 O   0  0  0  0  0  0  0  0  0  0  0  0
   56.6130   27.1490   46.0210 C   0  0  0  0  0  0  0  0  0  0  0  0
   57.6840   26.6360   46.7740 C   0  0  0  0  0  0  0  0  0  0  0  0
   58.8970   27.3290   46.8380 C   0  0  0  0  0  0  0  0  0  0  0  0
   59.0560   28.5520   46.1660 C   0  0  0  0  0  0  0  0  0  0  0  0
   60.3780   29.2970   46.2250 C   0  0  0  0  0  0  0  0  0  0  0  0
   60.3860   30.4700   47.1380 N   0  0  1  0  0  0  0  0  0  0  0  0
   59.9730   30.1190   48.5240 C   0  0  0  0  0  0  0  0  0  0  0  0
   60.5150   31.0880   49.5980 C   0  0  0  0  0  0  0  0  0  0  0  0
   60.6640   32.5330   49.0840 C   0  0  2  0  0  0  0  0  0  0  0  0
   59.2780   33.2070   48.9170 C   0  0  0  0  0  0  0  0  0  0  0  0
   58.9770   33.5400   47.4750 C   0  0  0  0  0  0  0  0  0  0  0  0
   58.1000   32.7310   46.7320 C   0  0  0  0  0  0  0  0  0  0  0  0
   57.8120   33.0430   45.4000 C   0  0  0  0  0  0  0  0  0  0  0  0
   58.3950   34.1630   44.8010 C   0  0  0  0  0  0  0  0  0  0  0  0
   59.2690   34.9710   45.5320 C   0  0  0  0  0  0  0  0  0  0  0  0
   59.5610   34.6620   46.8640 C   0  0  0  0  0  0  0  0  0  0  0  0
   61.5240   32.5810   47.7900 C   0  0  0  0  0  0  0  0  0  0  0  0
   61.6650   31.2120   47.0990 C   0  0  0  0  0  0  0  0  0  0  0  0
   57.9910   29.0480   45.3950 C   0  0  0  0  0  0  0  0  0  0  0  0
   56.7800   28.3550   45.3310 C   0  0  0  0  0  0  0  0  0  0  0  0
   55.1572   24.5313   46.5470 H   0  0  0  0  0  0  0  0  0  0  0  0
   54.3023   24.9685   45.0289 H   0  0  0  0  0  0  0  0  0  0  0  0
   56.0875   24.7694   45.0289 H   0  0  0  0  0  0  0  0  0  0  0  0
   57.5672   25.6854   47.3151 H   0  0  0  0  0  0  0  0  0  0  0  0
   59.7331   26.9130   47.4192 H   0  0  0  0  0  0  0  0  0  0  0  0
   61.1535   28.5938   46.5627 H   0  0  0  0  0  0  0  0  0  0  0  0
   60.5616   29.6877   45.2132 H   0  0  0  0  0  0  0  0  0  0  0  0
   59.6560   31.1140   46.7510 H   0  0  0  0  0  0  0  0  0  0  0  0
   60.3420   29.1078   48.7507 H   0  0  0  0  0  0  0  0  0  0  0  0
   58.8754   30.1829   48.5581 H   0  0  0  0  0  0  0  0  0  0  0  0
   61.5013   30.7297   49.9279 H   0  0  0  0  0  0  0  0  0  0  0  0
   59.7878   31.1053   50.4231 H   0  0  0  0  0  0  0  0  0  0  0  0
   61.2081   33.1201   49.8384 H   0  0  0  0  0  0  0  0  0  0  0  0
   58.5032   32.5220   49.2918 H   0  0  0  0  0  0  0  0  0  0  0  0
   59.2888   34.1481   49.4863 H   0  0  0  0  0  0  0  0  0  0  0  0
   57.6385   31.8491   47.2003 H   0  0  0  0  0  0  0  0  0  0  0  0
   57.1256   32.4061   44.8227 H   0  0  0  0  0  0  0  0  0  0  0  0
   58.1655   34.4083   43.7535 H   0  0  0  0  0  0  0  0  0  0  0  0
   59.7282   35.8516   45.0591 H   0  0  0  0  0  0  0  0  0  0  0  0
   60.2508   35.3001   47.4358 H   0  0  0  0  0  0  0  0  0  0  0  0
   62.5286   32.9445   48.0521 H   0  0  0  0  0  0  0  0  0  0  0  0
   61.0112   33.2503   47.0836 H   0  0  0  0  0  0  0  0  0  0  0  0
   62.4384   30.6250   47.6160 H   0  0  0  0  0  0  0  0  0  0  0  0
   61.9465   31.3747   46.0481 H   0  0  0  0  0  0  0  0  0  0  0  0
   58.1119   29.9888   44.8379 H   0  0  0  0  0  0  0  0  0  0  0  0
   55.9505   28.7606   44.7332 H   0  0  0  0  0  0  0  0  0  0  0  0
  1  2  1  0
  2  3  1  0
  3  4  2  0
  4  5  1  0
  5  6  2  0
  6  7  1  0
  7  8  1  0
  8  9  1  0
  9 10  1  0
 10 11  1  0
 11 12  1  0
 12 13  1  0
 13 14  2  0
 14 15  1  0
 15 16  2  0
 16 17  1  0
 17 18  2  0
 11 19  1  0
 19 20  1  0
  6 21  1  0
 21 22  2  0
 22  3  1  0
 20  8  1  0
 18 13  1  0
  1 23  1  0
  1 24  1  0
  1 25  1  0
  4 26  1  0
  5 27  1  0
  7 28  1  0
  7 29  1  0
  8 30  1  6
  9 31  1  0
  9 32  1  0
 10 33  1  0
 10 34  1  0
 11 35  1  1
 12 36  1  0
 12 37  1  0
 14 38  1  0
 15 39  1  0
 16 40  1  0
 17 41  1  0
 18 42  1  0
 19 43  1  0
 19 44  1  0
 20 45  1  0
 20 46  1  0
 21 47  1  0
 22 48  1  0
M  CHG  1   8   1
M  END
>  <UniqueID>  (4) 
4

>  <SMILES>  (4) 
COc1ccc(C[NH+]2CCC(Cc3ccccc3)CC2)cc1

>  <Energy>  (4) 
58.62665399702195

>  <Genealogy>  (4) 
COc1ccc(C[NH+]2CCC(Cc3ccccc3)CC2)cc1 (protonated)
COc1ccc(C[NH+]2CCC(Cc3ccccc3)CC2)cc1 (3D coordinates assigned)
COc1ccc(C[NH+]2CCC(Cc3ccccc3)CC2)cc1 (nonaromatic ring conformer: 58.62665399702195 kcal/mol)

>  <smiles>  (4) 
COc1ccc(CN2CCC(Cc3ccccc3)CC2)cc1

>  <score_type>  (4) 
oracle

>  <origin>  (4) 
adg

>  <m_score__min__energy>  (4) 
-6.1600000000000001

>  <m_primary>  (4) 
energy

$$$$
4:0
     RDKit          3D

 60 63  0  0  0  0  0  0  0  0999 V2000
   56.6010   30.3530   43.5180 C   0  0  0  0  0  0  0  0  0  0  0  0
   56.4990   31.2190   44.6450 O   0  0  0  0  0  0  0  0  0  0  0  0
   57.5940   31.8400   45.2650 C   0  0  0  0  0  0  0  0  0  0  0  0
   58.1510   32.9700   44.6560 C   0  0  0  0  0  0  0  0  0  0  0  0
   59.2360   33.6320   45.2400 C   0  0  0  0  0  0  0  0  0  0  0  0
   59.7870   33.1680   46.4460 C   0  0  0  0  0  0  0  0  0  0  0  0
   60.9190   33.8400   47.0390 N   0  0  0  0  0  0  0  0  0  0  0  0
   60.8100   34.5450   48.3190 C   0  0  0  0  0  0  0  0  0  0  0  0
   61.8180   33.9660   49.3300 C   0  0  0  0  0  0  0  0  0  0  0  0
   63.0810   33.4780   48.7070 N   0  0  0  0  0  0  0  0  0  0  0  0
   63.1520   32.0000   48.6420 C   0  0  0  0  0  0  0  0  0  0  0  0
   63.2430   31.3800   50.0460 C   0  0  0  0  0  0  0  0  0  0  0  0
   61.8720   31.1010   50.6950 C   0  0  0  0  0  0  0  0  0  0  0  0
   61.2430   29.7580   50.2940 C   0  0  0  0  0  0  0  0  0  0  0  0
   60.9040   29.7220   48.8710 N   0  0  0  0  0  0  0  0  0  0  0  0
   60.4800   28.5090   48.2300 C   0  0  0  0  0  0  0  0  0  0  0  0
   60.4170   27.4420   48.8970 O   0  0  0  0  0  0  0  0  0  0  0  0
   60.1190   28.4980   46.7970 C   0  0  0  0  0  0  0  0  0  0  0  0
   60.5700   29.3830   45.8160 C   0  0  0  0  0  0  0  0  0  0  0  0
   60.0350   29.0720   44.6140 N   0  0  0  0  0  0  0  0  0  0  0  0
   59.2550   28.0000   44.8160 C   0  0  0  0  0  0  0  0  0  0  0  0
   58.5040   27.3150   43.8610 C   0  0  0  0  0  0  0  0  0  0  0  0
   57.7460   26.2100   44.2850 C   0  0  0  0  0  0  0  0  0  0  0  0
   57.7610   25.8130   45.6390 C   0  0  0  0  0  0  0  0  0  0  0  0
   58.5330   26.5180   46.5810 C   0  0  0  0  0  0  0  0  0  0  0  0
   59.2720   27.6180   46.1340 C   0  0  0  0  0  0  0  0  0  0  0  0
   63.3530   34.1010   47.3930 C   0  0  0  0  0  0  0  0  0  0  0  0
   62.2330   33.7920   46.3840 C   0  0  0  0  0  0  0  0  0  0  0  0
   59.2420   32.0210   47.0470 C   0  0  0  0  0  0  0  0  0  0  0  0
   58.1510   31.3670   46.4680 C   0  0  0  0  0  0  0  0  0  0  0  0
   56.7232   29.3156   43.8626 H   0  0  0  0  0  0  0  0  0  0  0  0
   55.6873   30.4324   42.9107 H   0  0  0  0  0  0  0  0  0  0  0  0
   57.4713   30.6425   42.9107 H   0  0  0  0  0  0  0  0  0  0  0  0
   57.7317   33.3412   43.7092 H   0  0  0  0  0  0  0  0  0  0  0  0
   59.6605   34.5216   44.7518 H   0  0  0  0  0  0  0  0  0  0  0  0
   61.0220   35.6133   48.1651 H   0  0  0  0  0  0  0  0  0  0  0  0
   59.7912   34.4186   48.7139 H   0  0  0  0  0  0  0  0  0  0  0  0
   62.0708   34.7521   50.0568 H   0  0  0  0  0  0  0  0  0  0  0  0
   61.3361   33.0966   49.8012 H   0  0  0  0  0  0  0  0  0  0  0  0
   62.2494   31.6201   48.1409 H   0  0  0  0  0  0  0  0  0  0  0  0
   64.0565   31.7214   48.0814 H   0  0  0  0  0  0  0  0  0  0  0  0
   63.7904   30.4289   49.9700 H   0  0  0  0  0  0  0  0  0  0  0  0
   63.7567   32.1123   50.6862 H   0  0  0  0  0  0  0  0  0  0  0  0
   62.0003   31.1085   51.7875 H   0  0  0  0  0  0  0  0  0  0  0  0
   61.1896   31.8867   50.3387 H   0  0  0  0  0  0  0  0  0  0  0  0
   61.9582   28.9507   50.5105 H   0  0  0  0  0  0  0  0  0  0  0  0
   60.3153   29.6283   50.8707 H   0  0  0  0  0  0  0  0  0  0  0  0
   61.0580   30.5770   48.2940 H   0  0  0  0  0  0  0  0  0  0  0  0
   61.2640   30.2172   45.9960 H   0  0  0  0  0  0  0  0  0  0  0  0
   60.1980   29.5730   43.7120 H   0  0  0  0  0  0  0  0  0  0  0  0
   58.5049   27.6303   42.8071 H   0  0  0  0  0  0  0  0  0  0  0  0
   57.1380   25.6519   43.5577 H   0  0  0  0  0  0  0  0  0  0  0  0
   57.1649   24.9462   45.9605 H   0  0  0  0  0  0  0  0  0  0  0  0
   58.5546   26.2129   47.6376 H   0  0  0  0  0  0  0  0  0  0  0  0
   63.4281   35.1908   47.5220 H   0  0  0  0  0  0  0  0  0  0  0  0
   64.2951   33.6890   47.0023 H   0  0  0  0  0  0  0  0  0  0  0  0
   62.2606   34.5360   45.5742 H   0  0  0  0  0  0  0  0  0  0  0  0
   62.3902   32.7817   45.9782 H   0  0  0  0  0  0  0  0  0  0  0  0
   59.6773   31.6347   47.9804 H   0  0  0  0  0  0  0  0  0  0  0  0
   57.7251   30.4775   46.9552 H   0  0  0  0  0  0  0  0  0  0  0  0
  1  2  1  0
  2  3  1  0
  3  4  2  0
  4  5  1  0
  5  6  2  0
  6  7  1  0
  7  8  1  0
  8  9  1  0
  9 10  1  0
 10 11  1  0
 11 12  1  0
 12 13  1  0
 13 14  1  0
 14 15  1  0
 15 16  1  0
 16 17  2  0
 16 18  1  0
 18 19  2  0
 19 20  1  0
 20 21  1  0
 21 22  2  0
 22 23  1  0
 23 24  2  0
 24 25  1  0
 25 26  2  0
 10 27  1  0
 27 28  1  0
  6 29  1  0
 29 30  2  0
 30  3  1  0
 28  7  1  0
 26 18  1  0
 26 21  1  0
  1 31  1  0
  1 32  1  0
  1 33  1  0
  4 34  1  0
  5 35  1  0
  8 36  1  0
  8 37  1  0
  9 38  1  0
  9 39  1  0
 11 40  1  0
 11 41  1  0
 12 42  1  0
 12 43  1  0
 13 44  1  0
 13 45  1  0
 14 46  1  0
 14 47  1  0
 15 48  1  0
 19 49  1  0
 20 50  1  0
 22 51  1  0
 23 52  1  0
 24 53  1  0
 25 54  1  0
 27 55  1  0
 27 56  1  0
 28 57  1  0
 28 58  1  0
 29 59  1  0
 30 60  1  0
M  END
>  <UniqueID>  (5) 
5

>  <SMILES>  (5) 
COc1ccc(N2CCN(CCCCNC(=O)c3c[nH]c4ccccc34)CC2)cc1

>  <Energy>  (5) 
102.24490247581173

>  <Genealogy>  (5) 
COc1ccc(N2CCN(CCCCNC(=O)c3c[nH]c4ccccc34)CC2)cc1 (3D coordinates assigned)
COc1ccc(N2CCN(CCCCNC(=O)c3c[nH]c4ccccc34)CC2)cc1 (nonaromatic ring conformer: 102.24490247581173 kcal/mol)

>  <smiles>  (5) 
COc1ccc(N2CCN(CCCCNC(=O)c3c[nH]c4ccccc34)CC2)cc1

>  <score_type>  (5) 
oracle

>  <origin>  (5) 
adg

>  <m_score__min__energy>  (5) 
-8.5700000000000003

>  <m_primary>  (5) 
energy

$$$$
5:0
     RDKit          3D

 33 35  0  0  0  0  0  0  0  0999 V2000
   58.4760   32.2130   50.7290 C   0  0  0  0  0  0  0  0  0  0  0  0
   59.2410   33.8100   51.1510 S   0  0  0  0  0  0  0  0  0  0  0  0
   60.5100   33.6670   49.8900 C   0  0  0  0  0  0  0  0  0  0  0  0
   61.7530   33.1960   50.1500 N   0  0  0  0  0  0  0  0  0  0  0  0
   62.3870   33.2690   48.9690 C   0  0  0  0  0  0  0  0  0  0  0  0
   63.7030   32.9170   48.6780 C   0  0  0  0  0  0  0  0  0  0  0  0
   64.1470   33.0910   47.3550 C   0  0  0  0  0  0  0  0  0  0  0  0
   63.2750   33.6060   46.3680 C   0  0  0  0  0  0  0  0  0  0  0  0
   61.9500   33.9510   46.6960 C   0  0  0  0  0  0  0  0  0  0  0  0
   61.5390   33.7670   48.0190 C   0  0  0  0  0  0  0  0  0  0  0  0
   60.3400   34.0180   48.5860 N   0  0  0  0  0  0  0  0  0  0  0  0
   59.1290   34.5520   47.9550 C   0  0  0  0  0  0  0  0  0  0  0  0
   58.7100   33.6850   46.7980 C   0  0  0  0  0  0  0  0  0  0  0  0
   58.3830   34.2670   45.5610 C   0  0  0  0  0  0  0  0  0  0  0  0
   57.9770   33.4640   44.4900 C   0  0  0  0  0  0  0  0  0  0  0  0
   57.8980   32.0770   44.6440 C   0  0  0  0  0  0  0  0  0  0  0  0
   57.5030   31.3010   43.6040 F   0  0  0  0  0  0  0  0  0  0  0  0
   58.2280   31.4900   45.8680 C   0  0  0  0  0  0  0  0  0  0  0  0
   58.6340   32.2890   46.9410 C   0  0  0  0  0  0  0  0  0  0  0  0
   58.2180   31.6745   51.6528 H   0  0  0  0  0  0  0  0  0  0  0  0
   57.5638   32.3877   50.1396 H   0  0  0  0  0  0  0  0  0  0  0  0
   59.1839   31.6117   50.1396 H   0  0  0  0  0  0  0  0  0  0  0  0
   62.1340   32.8650   51.0650 H   0  0  0  0  0  0  0  0  0  0  0  0
   64.3710   32.5173   49.4552 H   0  0  0  0  0  0  0  0  0  0  0  0
   65.1798   32.8246   47.0860 H   0  0  0  0  0  0  0  0  0  0  0  0
   63.6344   33.7380   45.3368 H   0  0  0  0  0  0  0  0  0  0  0  0
   61.2619   34.3516   45.9370 H   0  0  0  0  0  0  0  0  0  0  0  0
   58.3176   34.5821   48.6971 H   0  0  0  0  0  0  0  0  0  0  0  0
   59.3400   35.5650   47.5818 H   0  0  0  0  0  0  0  0  0  0  0  0
   58.4466   35.3579   45.4347 H   0  0  0  0  0  0  0  0  0  0  0  0
   57.7195   33.9249   43.5250 H   0  0  0  0  0  0  0  0  0  0  0  0
   58.1683   30.3982   45.9876 H   0  0  0  0  0  0  0  0  0  0  0  0
   58.8953   31.8225   47.9023 H   0  0  0  0  0  0  0  0  0  0  0  0
  1  2  1  0
  2  3  1  0
  3  4  2  0
  4  5  1  0
  5  6  2  0
  6  7  1  0
  7  8  2  0
  8  9  1  0
  9 10  2  0
 10 11  1  0
 11 12  1  0
 12 13  1  0
 13 14  2  0
 14 15  1  0
 15 16  2  0
 16 17  1  0
 16 18  1  0
 18 19  2  0
 11  3  1  0
 19 13  1  0
 10  5  1  0
  1 20  1  0
  1 21  1  0
  1 22  1  0
  4 23  1  0
  6 24  1  0
  7 25  1  0
  8 26  1  0
  9 27  1  0
 12 28  1  0
 12 29  1  0
 14 30  1  0
 15 31  1  0
 18 32  1  0
 19 33  1  0
M  CHG  1   4   1
M  END
>  <UniqueID>  (6) 
6

>  <SMILES>  (6) 
CSc1[nH+]c2ccccc2n1Cc1ccc(F)cc1

>  <Energy>  (6) 
68.35960791036486

>  <Genealogy>  (6) 
CSc1[nH+]c2ccccc2n1Cc1ccc(F)cc1 (protonated)
CSc1[nH+]c2ccccc2n1Cc1ccc(F)cc1 (3D coordinates assigned)
CSc1[nH+]c2ccccc2n1Cc1ccc(F)cc1 (optimized conformer: 68.35960791036486 kcal/mol)

>  <smiles>  (6) 
CSc1nc2ccccc2n1Cc1ccc(F)cc1

>  <score_type>  (6) 
oracle

>  <origin>  (6) 
adg

>  <m_score__min__energy>  (6) 
-4.9800000000000004

>  <m_primary>  (6) 
energy

$$$$
6:0
     RDKit          3D

 42 44  0  0  0  0  0  0  0  0999 V2000
   57.5870   27.6840   44.8440 C   0  0  0  0  0  0  0  0  0  0  0  0
   57.4050   29.1550   44.6810 C   0  0  0  0  0  0  0  0  0  0  0  0
   58.3270   30.0300   44.1480 C   0  0  0  0  0  0  0  0  0  0  0  0
   57.6410   31.2250   44.1030 C   0  0  0  0  0  0  0  0  0  0  0  0
   58.1540   32.5240   43.5670 C   0  0  0  0  0  0  0  0  0  0  0  0
   57.3780   33.6500   44.1140 N   0  0  0  0  0  0  0  0  0  0  0  0
   58.2080   34.5830   44.8930 C   0  0  0  0  0  0  0  0  0  0  0  0
   58.6790   33.9500   46.1780 C   0  0  0  0  0  0  0  0  0  0  0  0
   57.7820   33.2130   46.9660 C   0  0  0  0  0  0  0  0  0  0  0  0
   58.2000   32.6650   48.1790 C   0  0  0  0  0  0  0  0  0  0  0  0
   59.5140   32.8450   48.6160 C   0  0  0  0  0  0  0  0  0  0  0  0
   60.4280   33.5750   47.8390 C   0  0  0  0  0  0  0  0  0  0  0  0
   61.7880   33.7540   48.2820 N   0  0  0  0  0  0  0  0  0  0  0  0
   62.0620   34.0850   49.6850 C   0  0  0  0  0  0  0  0  0  0  0  0
   63.5530   33.9230   49.9870 C   0  0  0  0  0  0  0  0  0  0  0  0
   64.0510   32.7940   49.3010 O   0  0  0  0  0  0  0  0  0  0  0  0
   64.1530   33.0720   47.9130 C   0  0  0  0  0  0  0  0  0  0  0  0
   62.8960   33.7470   47.3180 C   0  0  0  0  0  0  0  0  0  0  0  0
   60.0050   34.1170   46.6130 C   0  0  0  0  0  0  0  0  0  0  0  0
   56.4320   31.0420   44.5800 O   0  0  0  0  0  0  0  0  0  0  0  0
   56.2490   29.8020   44.9310 N   0  0  0  0  0  0  0  0  0  0  0  0
   57.6178   27.4348   45.9150 H   0  0  0  0  0  0  0  0  0  0  0  0
   56.7474   27.1557   44.3686 H   0  0  0  0  0  0  0  0  0  0  0  0
   58.5301   27.3763   44.3686 H   0  0  0  0  0  0  0  0  0  0  0  0
   59.3610   29.8244   43.8342 H   0  0  0  0  0  0  0  0  0  0  0  0
   59.2104   32.6407   43.8506 H   0  0  0  0  0  0  0  0  0  0  0  0
   58.0535   32.5215   42.4716 H   0  0  0  0  0  0  0  0  0  0  0  0
   56.6690   33.2470   44.7710 H   0  0  0  0  0  0  0  0  0  0  0  0
   59.0836   34.8714   44.2929 H   0  0  0  0  0  0  0  0  0  0  0  0
   57.6007   35.4659   45.1414 H   0  0  0  0  0  0  0  0  0  0  0  0
   56.7460   33.0668   46.6263 H   0  0  0  0  0  0  0  0  0  0  0  0
   57.4921   32.0892   48.7932 H   0  0  0  0  0  0  0  0  0  0  0  0
   59.8352   32.4122   49.5749 H   0  0  0  0  0  0  0  0  0  0  0  0
   61.7638   35.1262   49.8772 H   0  0  0  0  0  0  0  0  0  0  0  0
   61.4897   33.4038   50.3318 H   0  0  0  0  0  0  0  0  0  0  0  0
   64.0941   34.8216   49.6559 H   0  0  0  0  0  0  0  0  0  0  0  0
   63.6958   33.7876   51.0692 H   0  0  0  0  0  0  0  0  0  0  0  0
   65.0128   33.7398   47.7553 H   0  0  0  0  0  0  0  0  0  0  0  0
   64.2708   32.1058   47.4005 H   0  0  0  0  0  0  0  0  0  0  0  0
   63.1410   34.7843   47.0459 H   0  0  0  0  0  0  0  0  0  0  0  0
   62.5818   33.1764   46.4316 H   0  0  0  0  0  0  0  0  0  0  0  0
   60.7175   34.6764   45.9890 H   0  0  0  0  0  0  0  0  0  0  0  0
  1  2  1  0
  2  3  1  0
  3  4  2  0
  4  5  1  0
  5  6  1  0
  6  7  1  0
  7  8  1  0
  8  9  2  0
  9 10  1  0
 10 11  2  0
 11 12  1  0
 12 13  1  0
 13 14  1  0
 14 15  1  0
 15 16  1  0
 16 17  1  0
 17 18  1  0
 12 19  2  0
  4 20  1  0
 20 21  1  0
 21  2  2  0
 19  8  1  0
 18 13  1  0
  1 22  1  0
  1 23  1  0
  1 24  1  0
  3 25  1  0
  5 26  1  0
  5 27  1  0
  6 28  1  0
  7 29  1  0
  7 30  1  0
  9 31  1  0
 10 32  1  0
 11 33  1  0
 14 34  1  0
 14 35  1  0
 15 36  1  0
 15 37  1  0
 17 38  1  0
 17 39  1  0
 18 40  1  0
 18 41  1  0
 19 42  1  0
M  END
>  <UniqueID>  (7) 
7

>  <SMILES>  (7) 
Cc1cc(CNCc2cccc(N3CCOCC3)c2)on1

>  <Energy>  (7) 
77.39285539321892

>  <Genealogy>  (7) 
Cc1cc(CNCc2cccc(N3CCOCC3)c2)on1 (3D coordinates assigned)
Cc1cc(CNCc2cccc(N3CCOCC3)c2)on1 (nonaromatic ring conformer: 77.39285539321892 kcal/mol)

>  <smiles>  (7) 
Cc1cc(CNCc2cccc(N3CCOCC3)c2)on1

>  <score_type>  (7) 
oracle

>  <origin>  (7) 
adg

>  <m_score__min__energy>  (7) 
-8.2899999999999991

>  <m_primary>  (7) 
energy

$$$$
7:0
     RDKit          3D

 29 30  0  0  0  0  0  0  0  0999 V2000
   59.9430   28.4060   44.9560 C   0  0  0  0  0  0  0  0  0  0  0  0
   59.7820   29.7280   45.6360 C   0  0  0  0  0  0  0  0  0  0  0  0
   60.7710   30.3790   46.2790 N   0  0  0  0  0  0  0  0  0  0  0  0
   60.2760   31.4860   46.8160 N   0  0  0  0  0  0  0  0  0  0  0  0
   61.0610   32.4250   47.5700 C   0  0  0  0  0  0  0  0  0  0  0  0
   60.5700   32.9780   48.7650 C   0  0  0  0  0  0  0  0  0  0  0  0
   61.3450   33.8890   49.4920 C   0  0  0  0  0  0  0  0  0  0  0  0
   62.6180   34.2450   49.0370 C   0  0  0  0  0  0  0  0  0  0  0  0
   63.1210   33.6860   47.8590 C   0  0  0  0  0  0  0  0  0  0  0  0
   62.3490   32.7750   47.1310 C   0  0  0  0  0  0  0  0  0  0  0  0
   58.9570   31.5620   46.5180 C   0  0  0  0  0  0  0  0  0  0  0  0
   57.8540   32.9230   46.9380 S   0  0  0  0  0  0  0  0  0  0  0  0
   58.2330   33.8980   45.4450 C   0  0  0  0  0  0  0  0  0  0  0  0
   59.2180   34.9370   45.7550 C   0  0  0  0  0  0  0  0  0  0  0  0
   59.9960   35.7570   45.9970 N   0  0  0  0  0  0  0  0  0  0  0  0
   58.6100   30.4480   45.7780 C   0  0  0  0  0  0  0  0  0  0  0  0
   57.3130   30.1210   45.2460 C   0  0  0  0  0  0  0  0  0  0  0  0
   56.2700   29.8580   44.8190 N   0  0  0  0  0  0  0  0  0  0  0  0
   60.0395   27.6137   45.7129 H   0  0  0  0  0  0  0  0  0  0  0  0
   59.0624   28.2073   44.3274 H   0  0  0  0  0  0  0  0  0  0  0  0
   60.8455   28.4245   44.3274 H   0  0  0  0  0  0  0  0  0  0  0  0
   61.7630   30.0620   46.3660 H   0  0  0  0  0  0  0  0  0  0  0  0
   59.5723   32.6937   49.1306 H   0  0  0  0  0  0  0  0  0  0  0  0
   60.9520   34.3252   50.4222 H   0  0  0  0  0  0  0  0  0  0  0  0
   63.2239   34.9653   49.6063 H   0  0  0  0  0  0  0  0  0  0  0  0
   64.1248   33.9627   47.5042 H   0  0  0  0  0  0  0  0  0  0  0  0
   62.7524   32.3300   46.2095 H   0  0  0  0  0  0  0  0  0  0  0  0
   58.6395   33.2319   44.6697 H   0  0  0  0  0  0  0  0  0  0  0  0
   57.3098   34.3752   45.0844 H   0  0  0  0  0  0  0  0  0  0  0  0
  1  2  1  0
  2  3  2  0
  3  4  1  0
  4  5  1  0
  5  6  2  0
  6  7  1  0
  7  8  2  0
  8  9  1  0
  9 10  2  0
  4 11  1  0
 11 12  1  0
 12 13  1  0
 13 14  1  0
 14 15  3  0
 11 16  2  0
 16 17  1  0
 17 18  3  0
 16  2  1  0
 10  5  1  0
  1 19  1  0
  1 20  1  0
  1 21  1  0
  3 22  1  0
  6 23  1  0
  7 24  1  0
  8 25  1  0
  9 26  1  0
 10 27  1  0
 13 28  1  0
 13 29  1  0
M  CHG  1   3   1
M  END
>  <UniqueID>  (8) 
8

>  <SMILES>  (8) 
Cc1[nH+]n(-c2ccccc2)c(SCC#N)c1C#N

>  <Energy>  (8) 
58.84527211211233

>  <Genealogy>  (8) 
Cc1[nH+]n(-c2ccccc2)c(SCC#N)c1C#N (protonated)
Cc1[nH+]n(-c2ccccc2)c(SCC#N)c1C#N (3D coordinates assigned)
Cc1[nH+]n(-c2ccccc2)c(SCC#N)c1C#N (optimized conformer: 58.84527211211233 kcal/mol)

>  <smiles>  (8) 
Cc1nn(-c2ccccc2)c(SCC#N)c1C#N

>  <score_type>  (8) 
oracle

>  <origin>  (8) 
adg

>  <m_score__min__energy>  (8) 
-4.7000000000000002

>  <m_primary>  (8) 
energy

$$$$
8:0
     RDKit          3D

 58 63  0  0  0  0  0  0  0  0999 V2000
   56.0190   23.0450   48.0950 C   0  0  0  0  0  0  0  0  0  0  0  0
   55.6400   24.1390   47.2670 O   0  0  0  0  0  0  0  0  0  0  0  0
   56.5100   25.1560   46.8410 C   0  0  0  0  0  0  0  0  0  0  0  0
   57.8810   25.1420   47.1520 C   0  0  0  0  0  0  0  0  0  0  0  0
   58.7190   26.1740   46.7140 C   0  0  0  0  0  0  0  0  0  0  0  0
   58.2080   27.2020   45.9030 C   0  0  0  0  0  0  0  0  0  0  0  0
   56.8260   27.2440   45.6360 C   0  0  0  0  0  0  0  0  0  0  0  0
   55.9780   26.2170   46.0930 C   0  0  0  0  0  0  0  0  0  0  0  0
   54.5990   26.2130   45.8280 O   0  0  0  0  0  0  0  0  0  0  0  0
   53.8180   25.0410   45.6170 C   0  0  0  0  0  0  0  0  0  0  0  0
   59.2160   28.2600   45.4940 C   0  0  1  0  0  0  0  0  0  0  0  0
   58.6900   29.4280   44.6190 C   0  0  0  0  0  0  0  0  0  0  0  0
   58.4520   30.6730   45.4130 C   0  0  0  0  0  0  0  0  0  0  0  0
   57.4000   31.5380   45.0940 C   0  0  0  0  0  0  0  0  0  0  0  0
   57.3170   32.7870   45.7070 C   0  0  0  0  0  0  0  0  0  0  0  0
   58.3210   33.2070   46.5820 C   0  0  0  0  0  0  0  0  0  0  0  0
   59.4120   32.3640   46.8780 C   0  0  0  0  0  0  0  0  0  0  0  0
   59.4210   31.0510   46.3540 C   0  0  0  0  0  0  0  0  0  0  0  0
   60.4920   30.0410   46.7260 C   0  0  1  0  0  0  0  0  0  0  0  0
   61.1070   30.3920   48.1050 C   0  0  0  0  0  0  0  0  0  0  0  0
   61.4310   31.8590   48.2620 C   0  0  0  0  0  0  0  0  0  0  0  0
   62.5250   32.2660   49.0600 C   0  0  0  0  0  0  0  0  0  0  0  0
   63.3360   31.2890   49.6610 O   0  0  0  0  0  0  0  0  0  0  0  0
   63.1550   30.7850   50.9810 C   0  0  0  0  0  0  0  0  0  0  0  0
   62.7760   33.6390   49.2350 C   0  0  0  0  0  0  0  0  0  0  0  0
   61.9460   34.5880   48.6430 C   0  0  0  0  0  0  0  0  0  0  0  0
   60.8500   34.1880   47.8830 C   0  0  0  0  0  0  0  0  0  0  0  0
   60.5620   32.8210   47.7060 C   0  0  0  0  0  0  0  0  0  0  0  0
   59.8730   28.6860   46.7580 N   0  0  0  0  0  0  0  0  0  0  0  0
   60.7700   27.6110   47.2620 C   0  0  0  0  0  0  0  0  0  0  0  0
   60.1890   26.1780   47.0740 C   0  0  0  0  0  0  0  0  0  0  0  0
   55.9191   23.3332   49.1519 H   0  0  0  0  0  0  0  0  0  0  0  0
   55.3667   22.1842   47.8865 H   0  0  0  0  0  0  0  0  0  0  0  0
   57.0640   22.7722   47.8865 H   0  0  0  0  0  0  0  0  0  0  0  0
   58.2982   24.3140   47.7439 H   0  0  0  0  0  0  0  0  0  0  0  0
   56.4056   28.0857   45.0660 H   0  0  0  0  0  0  0  0  0  0  0  0
   53.5317   24.6114   46.5883 H   0  0  0  0  0  0  0  0  0  0  0  0
   52.9121   25.3012   45.0499 H   0  0  0  0  0  0  0  0  0  0  0  0
   54.4069   24.3051   45.0499 H   0  0  0  0  0  0  0  0  0  0  0  0
   59.9335   27.8227   44.7841 H   0  0  0  0  0  0  0  0  0  0  0  0
   59.4317   29.6447   43.8361 H   0  0  0  0  0  0  0  0  0  0  0  0
   57.7274   29.1165   44.1872 H   0  0  0  0  0  0  0  0  0  0  0  0
   56.6393   31.2329   44.3604 H   0  0  0  0  0  0  0  0  0  0  0  0
   56.4587   33.4434   45.5011 H   0  0  0  0  0  0  0  0  0  0  0  0
   58.2603   34.2034   47.0441 H   0  0  0  0  0  0  0  0  0  0  0  0
   61.3014   30.0609   45.9814 H   0  0  0  0  0  0  0  0  0  0  0  0
   60.3899   30.1075   48.8891 H   0  0  0  0  0  0  0  0  0  0  0  0
   62.0547   29.8397   48.1877 H   0  0  0  0  0  0  0  0  0  0  0  0
   63.4332   31.5597   51.7106 H   0  0  0  0  0  0  0  0  0  0  0  0
   62.1007   30.5066   51.1258 H   0  0  0  0  0  0  0  0  0  0  0  0
   63.7913   29.8995   51.1258 H   0  0  0  0  0  0  0  0  0  0  0  0
   63.6328   33.9651   49.8429 H   0  0  0  0  0  0  0  0  0  0  0  0
   62.1575   35.6592   48.7766 H   0  0  0  0  0  0  0  0  0  0  0  0
   60.2036   34.9463   47.4169 H   0  0  0  0  0  0  0  0  0  0  0  0
   61.7258   27.6729   46.7210 H   0  0  0  0  0  0  0  0  0  0  0  0
   60.8915   27.7716   48.3434 H   0  0  0  0  0  0  0  0  0  0  0  0
   60.7474   25.6769   46.2696 H   0  0  0  0  0  0  0  0  0  0  0  0
   60.2917   25.6544   48.0359 H   0  0  0  0  0  0  0  0  0  0  0  0
  1  2  1  0
  2  3  1  0
  3  4  2  0
  4  5  1  0
  5  6  2  0
  6  7  1  0
  7  8  2  0
  8  9  1  0
  9 10  1  0
  6 11  1  0
 11 12  1  0
 12 13  1  0
 13 14  2  0
 14 15  1  0
 15 16  2  0
 16 17  1  0
 17 18  2  0
 18 19  1  0
 19 20  1  0
 20 21  1  0
 21 22  2  0
 22 23  1  0
 23 24  1  0
 22 25  1  0
 25 26  2  0
 26 27  1  0
 27 28  2  0
 19 29  1  0
 29 30  1  0
 30 31  1  0
  8  3  1  0
 29 11  1  0
 31  5  1  0
 18 13  1  0
 28 21  1  0
 28 17  1  0
  1 32  1  0
  1 33  1  0
  1 34  1  0
  4 35  1  0
  7 36  1  0
 10 37  1  0
 10 38  1  0
 10 39  1  0
 11 40  1  6
 12 41  1  0
 12 42  1  0
 14 43  1  0
 15 44  1  0
 16 45  1  0
 19 46  1  6
 20 47  1  0
 20 48  1  0
 24 49  1  0
 24 50  1  0
 24 51  1  0
 25 52  1  0
 26 53  1  0
 27 54  1  0
 30 55  1  0
 30 56  1  0
 31 57  1  0
 31 58  1  0
M  END
>  <UniqueID>  (9) 
9

>  <SMILES>  (9) 
COc1cc2c(cc1OC)[C@H]1Cc3cccc4c3[C@@H](Cc3c(OC)cccc3-4)N1CC2

>  <Energy>  (9) 
100.8653727277726

>  <Genealogy>  (9) 
COc1cc2c(cc1OC)[C@H]1Cc3cccc4c3[C@@H](Cc3c(OC)cccc3-4)N1CC2 (chirality)
COc1cc2c(cc1OC)[C@H]1Cc3cccc4c3[C@@H](Cc3c(OC)cccc3-4)N1CC2 (3D coordinates assigned)
COc1cc2c(cc1OC)[C@H]1Cc3cccc4c3[C@@H](Cc3c(OC)cccc3-4)N1CC2 (nonaromatic ring conformer: 100.8653727277726 kcal/mol)

>  <smiles>  (9) 
COc1cc2c(cc1OC)C1Cc3cccc4c3C(Cc3c(OC)cccc3-4)N1CC2

>  <score_type>  (9) 
oracle

>  <origin>  (9) 
adg

>  <m_score__min__energy>  (9) 
-9.1400000000000006

>  <m_primary>  (9) 
energy

$$$$
9:0
     RDKit          3D

 45 48  0  0  1  0  0  0  0  0999 V2000
   59.2820   35.0030   45.4570 C   0  0  0  0  0  0  0  0  0  0  0  0
   59.4240   34.4460   46.7360 O   0  0  0  0  0  0  0  0  0  0  0  0
   60.6380   34.0250   47.1840 C   0  0  0  0  0  0  0  0  0  0  0  0
   61.7640   33.8720   46.3670 C   0  0  0  0  0  0  0  0  0  0  0  0
   62.9670   33.4420   46.8900 C   0  0  0  0  0  0  0  0  0  0  0  0
   63.1430   33.1380   48.2240 C   0  0  0  0  0  0  0  0  0  0  0  0
   62.0260   33.2890   49.0340 C   0  0  0  0  0  0  0  0  0  0  0  0
   60.8230   33.7190   48.5160 C   0  0  0  0  0  0  0  0  0  0  0  0
   59.6960   33.8390   49.5220 C   0  0  0  0  0  0  0  0  0  0  0  0
   58.8970   32.6800   49.5240 N   0  0  0  0  0  0  0  0  0  0  0  0
   58.9220   31.7510   48.6480 C   0  0  0  0  0  0  0  0  0  0  0  0
   58.4500   31.9280   47.4190 N   0  0  0  0  0  0  0  0  0  0  0  0
   58.5100   30.9260   46.5450 C   0  0  0  0  0  0  0  0  0  0  0  0
   57.9910   31.0480   45.1740 C   0  0  0  0  0  0  0  0  0  0  0  0
   58.2740   32.1570   44.3810 C   0  0  0  0  0  0  0  0  0  0  0  0
   57.7900   32.2530   43.0840 C   0  0  0  0  0  0  0  0  0  0  0  0
   57.0160   31.2220   42.5960 C   0  0  0  0  0  0  0  0  0  0  0  0
   56.7100   30.1060   43.3480 C   0  0  0  0  0  0  0  0  0  0  0  0
   57.2010   30.0240   44.6390 C   0  0  0  0  0  0  0  0  0  0  0  0
   59.0470   29.7140   46.8820 N   0  0  0  0  0  0  0  0  0  0  0  0
   59.5430   29.4980   48.1370 C   0  0  0  0  0  0  0  0  0  0  0  0
   60.0930   28.3000   48.5160 C   0  0  0  0  0  0  0  0  0  0  0  0
   60.5870   28.1180   49.8060 C   0  0  0  0  0  0  0  0  0  0  0  0
   60.5300   29.1480   50.7210 C   0  0  0  0  0  0  0  0  0  0  0  0
   59.9730   30.3330   50.3040 C   0  0  0  0  0  0  0  0  0  0  0  0
   59.4740   30.5410   49.0310 C   0  0  0  0  0  0  0  0  0  0  0  0
   59.0112   36.0653   45.5477 H   0  0  0  0  0  0  0  0  0  0  0  0
   60.2320   34.9122   44.9100 H   0  0  0  0  0  0  0  0  0  0  0  0
   58.4914   34.4685   44.9100 H   0  0  0  0  0  0  0  0  0  0  0  0
   61.6893   34.0976   45.2930 H   0  0  0  0  0  0  0  0  0  0  0  0
   63.8259   33.3368   46.2109 H   0  0  0  0  0  0  0  0  0  0  0  0
   64.1101   32.7966   48.6218 H   0  0  0  0  0  0  0  0  0  0  0  0
   62.1020   33.0617   50.1076 H   0  0  0  0  0  0  0  0  0  0  0  0
   60.1231   33.9834   50.5254 H   0  0  0  0  0  0  0  0  0  0  0  0
   59.0675   34.6979   49.2439 H   0  0  0  0  0  0  0  0  0  0  0  0
   58.0490   32.8250   47.1640 H   0  0  0  0  0  0  0  0  0  0  0  0
   58.8915   32.9706   44.7894 H   0  0  0  0  0  0  0  0  0  0  0  0
   58.0183   33.1301   42.4607 H   0  0  0  0  0  0  0  0  0  0  0  0
   56.6279   31.2914   41.5691 H   0  0  0  0  0  0  0  0  0  0  0  0
   56.0895   29.2995   42.9303 H   0  0  0  0  0  0  0  0  0  0  0  0
   56.9673   29.1419   45.2533 H   0  0  0  0  0  0  0  0  0  0  0  0
   60.1447   27.4729   47.7927 H   0  0  0  0  0  0  0  0  0  0  0  0
   61.0234   27.1506   50.0951 H   0  0  0  0  0  0  0  0  0  0  0  0
   60.9151   29.0259   51.7441 H   0  0  0  0  0  0  0  0  0  0  0  0
   59.9211   31.1633   51.0236 H   0  0  0  0  0  0  0  0  0  0  0  0
  1  2  1  0
  2  3  1  0
  3  4  2  0
  4  5  1  0
  5  6  2  0
  6  7  1  0
  7  8  2  0
  8  9  1  0
  9 10  1  0
 10 11  2  0
 11 12  1  0
 12 13  1  0
 13 14  1  0
 14 15  2  0
 15 16  1  0
 16 17  2  0
 17 18  1  0
 18 19  2  0
 13 20  2  0
 20 21  1  0
 21 22  2  0
 22 23  1  0
 23 24  2  0
 24 25  1  0
 25 26  2  0
  8  3  1  0
 26 11  1  0
 19 14  1  0
 26 21  1  0
  1 27  1  0
  1 28  1  0
  1 29  1  0
  4 30  1  0
  5 31  1  0
  6 32  1  0
  7 33  1  0
  9 34  1  0
  9 35  1  0
 12 36  1  0
 15 37  1  0
 16 38  1  0
 17 39  1  0
 18 40  1  0
 19 41  1  0
 22 42  1  0
 23 43  1  0
 24 44  1  0
 25 45  1  0
M  END
>  <smiles>  (10) 
COc1ccccc1CN=c1[nH]c(-c2ccccc2)nc2ccccc12

>  <score_type>  (10) 
oracle

>  <origin>  (10) 
adg

>  <m_score__min__energy>  (10) 
-7.1299999999999999

>  <m_primary>  (10) 
energy

$$$$
10:0
     RDKit          3D

 49 51  0  0  0  0  0  0  0  0999 V2000
   57.8440   28.1610   43.6460 C   0  0  0  0  0  0  0  0  0  0  0  0
   57.2390   29.3890   43.2610 O   0  0  0  0  0  0  0  0  0  0  0  0
   56.6830   30.2810   44.1860 C   0  0  0  0  0  0  0  0  0  0  0  0
   55.4660   30.1800   44.5050 O   0  0  0  0  0  0  0  0  0  0  0  0
   57.5230   31.3410   44.7850 C   0  0  0  0  0  0  0  0  0  0  0  0
   58.1240   31.1480   46.0400 C   0  0  0  0  0  0  0  0  0  0  0  0
   58.9260   32.1440   46.6040 C   0  0  0  0  0  0  0  0  0  0  0  0
   59.1370   33.3520   45.9250 C   0  0  0  0  0  0  0  0  0  0  0  0
   60.0640   34.4030   46.4940 C   0  0  0  0  0  0  0  0  0  0  0  0
   61.1520   33.7870   47.2870 N   0  0  0  0  0  0  0  0  0  0  0  0
   61.2880   34.4380   48.6150 C   0  0  0  0  0  0  0  0  0  0  0  0
   62.6690   34.2140   49.2800 C   0  0  0  0  0  0  0  0  0  0  0  0
   63.4080   33.0590   48.7350 N   0  0  0  0  0  0  0  0  0  0  0  0
   63.2370   31.7770   49.4550 C   0  0  0  0  0  0  0  0  0  0  0  0
   61.8430   31.2030   49.3560 C   0  0  0  0  0  0  0  0  0  0  0  0
   61.5070   30.3270   48.3080 C   0  0  0  0  0  0  0  0  0  0  0  0
   60.2310   29.7620   48.2410 C   0  0  0  0  0  0  0  0  0  0  0  0
   59.2710   30.0830   49.2030 C   0  0  0  0  0  0  0  0  0  0  0  0
   59.5840   30.9770   50.2300 C   0  0  0  0  0  0  0  0  0  0  0  0
   60.8610   31.5410   50.3040 C   0  0  0  0  0  0  0  0  0  0  0  0
   63.4840   32.9740   47.2590 C   0  0  0  0  0  0  0  0  0  0  0  0
   62.4280   33.8410   46.5530 C   0  0  0  0  0  0  0  0  0  0  0  0
   58.5380   33.5500   44.6720 C   0  0  0  0  0  0  0  0  0  0  0  0
   57.7370   32.5540   44.1070 C   0  0  0  0  0  0  0  0  0  0  0  0
   57.8759   28.0962   44.7436 H   0  0  0  0  0  0  0  0  0  0  0  0
   57.2564   27.3215   43.2461 H   0  0  0  0  0  0  0  0  0  0  0  0
   58.8677   28.1154   43.2461 H   0  0  0  0  0  0  0  0  0  0  0  0
   57.9621   30.2053   46.5832 H   0  0  0  0  0  0  0  0  0  0  0  0
   59.3940   31.9791   47.5857 H   0  0  0  0  0  0  0  0  0  0  0  0
   60.5049   34.9780   45.6664 H   0  0  0  0  0  0  0  0  0  0  0  0
   59.4803   35.0596   47.1559 H   0  0  0  0  0  0  0  0  0  0  0  0
   60.9040   32.7810   47.4240 H   0  0  0  0  0  0  0  0  0  0  0  0
   61.1348   35.5199   48.4887 H   0  0  0  0  0  0  0  0  0  0  0  0
   60.5356   33.9818   49.2751 H   0  0  0  0  0  0  0  0  0  0  0  0
   63.2776   35.1180   49.1302 H   0  0  0  0  0  0  0  0  0  0  0  0
   62.4840   34.0050   50.3440 H   0  0  0  0  0  0  0  0  0  0  0  0
   63.9436   31.0462   49.0346 H   0  0  0  0  0  0  0  0  0  0  0  0
   63.4249   31.9801   50.5196 H   0  0  0  0  0  0  0  0  0  0  0  0
   62.2532   30.0854   47.5367 H   0  0  0  0  0  0  0  0  0  0  0  0
   59.9821   29.0630   47.4290 H   0  0  0  0  0  0  0  0  0  0  0  0
   58.2689   29.6322   49.1522 H   0  0  0  0  0  0  0  0  0  0  0  0
   58.8243   31.2375   50.9817 H   0  0  0  0  0  0  0  0  0  0  0  0
   61.0989   32.2530   51.1081 H   0  0  0  0  0  0  0  0  0  0  0  0
   64.4823   33.3076   46.9394 H   0  0  0  0  0  0  0  0  0  0  0  0
   63.2921   31.9277   46.9789 H   0  0  0  0  0  0  0  0  0  0  0  0
   62.7804   34.8823   46.5131 H   0  0  0  0  0  0  0  0  0  0  0  0
   62.2722   33.4579   45.5337 H   0  0  0  0  0  0  0  0  0  0  0  0
   58.6997   34.4942   44.1314 H   0  0  0  0  0  0  0  0  0  0  0  0
   57.2706   32.7202   43.1247 H   0  0  0  0  0  0  0  0  0  0  0  0
  1  2  1  0
  2  3  1  0
  3  4  2  0
  3  5  1  0
  5  6  2  0
  6  7  1  0
  7  8  2  0
  8  9  1  0
  9 10  1  0
 10 11  1  0
 11 12  1  0
 12 13  1  0
 13 14  1  0
 14 15  1  0
 15 16  2  0
 16 17  1  0
 17 18  2  0
 18 19  1  0
 19 20  2  0
 13 21  1  0
 21 22  1  0
  8 23  1  0
 23 24  2  0
 24  5  1  0
 22 10  1  0
 20 15  1  0
  1 25  1  0
  1 26  1  0
  1 27  1  0
  6 28  1  0
  7 29  1  0
  9 30  1  0
  9 31  1  0
 10 32  1  0
 11 33  1  0
 11 34  1  0
 12 35  1  0
 12 36  1  0
 14 37  1  0
 14 38  1  0
 16 39  1  0
 17 40  1  0
 18 41  1  0
 19 42  1  0
 20 43  1  0
 21 44  1  0
 21 45  1  0
 22 46  1  0
 22 47  1  0
 23 48  1  0
 24 49  1  0
M  CHG  1  10   1
M  END
>  <UniqueID>  (11) 
10

>  <SMILES>  (11) 
COC(=O)c1ccc(C[NH+]2CCN(Cc3ccccc3)CC2)cc1

>  <Energy>  (11) 
62.342556817317906

>  <Genealogy>  (11) 
COC(=O)c1ccc(C[NH+]2CCN(Cc3ccccc3)CC2)cc1 (protonated)
COC(=O)c1ccc(C[NH+]2CCN(Cc3ccccc3)CC2)cc1 (3D coordinates assigned)
COC(=O)c1ccc(C[NH+]2CCN(Cc3ccccc3)CC2)cc1 (nonaromatic ring conformer: 62.342556817317906 kcal/mol)

>  <smiles>  (11) 
COC(=O)c1ccc(CN2CCN(Cc3ccccc3)CC2)cc1

>  <score_type>  (11) 
oracle

>  <origin>  (11) 
adg

>  <m_score__min__energy>  (11) 
-6.3300000000000001

>  <m_primary>  (11) 
energy

$$$$
11:0
     RDKit          3D

 34 36  0  0  0  0  0  0  0  0999 V2000
   56.1880   30.0920   43.4490 C   0  0  0  0  0  0  0  0  0  0  0  0
   56.2810   30.1730   44.8670 O   0  0  0  0  0  0  0  0  0  0  0  0
   57.4190   29.8260   45.6160 C   0  0  0  0  0  0  0  0  0  0  0  0
   57.6830   28.4930   45.9710 C   0  0  0  0  0  0  0  0  0  0  0  0
   58.8040   28.1760   46.7330 C   0  0  0  0  0  0  0  0  0  0  0  0
   59.6860   29.1760   47.1360 C   0  0  0  0  0  0  0  0  0  0  0  0
   59.4840   30.5200   46.7570 C   0  0  0  0  0  0  0  0  0  0  0  0
   58.3130   30.8420   46.0210 C   0  0  0  0  0  0  0  0  0  0  0  0
   58.0120   32.2500   45.6810 C   0  0  0  0  0  0  0  0  0  0  0  0
   58.8960   33.2190   45.8930 C   0  0  0  0  0  0  0  0  0  0  0  0
   60.2140   32.9260   46.4790 C   0  0  0  0  0  0  0  0  0  0  0  0
   61.1860   33.8450   46.3600 C   0  0  0  0  0  0  0  0  0  0  0  0
   62.5470   33.6010   46.8570 C   0  0  0  0  0  0  0  0  0  0  0  0
   63.4160   34.5070   46.7550 O   0  0  0  0  0  0  0  0  0  0  0  0
   62.9060   32.3030   47.5100 C   0  0  0  0  0  0  0  0  0  0  0  0
   61.9170   31.1910   47.1320 C   0  0  0  0  0  0  0  0  0  0  0  0
   60.4250   31.6280   47.2680 C   0  0  2  0  0  0  0  0  0  0  0  0
   60.0730   31.8960   48.7460 C   0  0  0  0  0  0  0  0  0  0  0  0
   55.3849   29.3925   43.1736 H   0  0  0  0  0  0  0  0  0  0  0  0
   55.9637   31.0877   43.0388 H   0  0  0  0  0  0  0  0  0  0  0  0
   57.1435   29.7332   43.0388 H   0  0  0  0  0  0  0  0  0  0  0  0
   56.9999   27.6948   45.6450 H   0  0  0  0  0  0  0  0  0  0  0  0
   58.9942   27.1308   47.0183 H   0  0  0  0  0  0  0  0  0  0  0  0
   60.5535   28.9138   47.7594 H   0  0  0  0  0  0  0  0  0  0  0  0
   57.0345   32.5003   45.2429 H   0  0  0  0  0  0  0  0  0  0  0  0
   58.6392   34.2549   45.6268 H   0  0  0  0  0  0  0  0  0  0  0  0
   60.9570   34.8066   45.8773 H   0  0  0  0  0  0  0  0  0  0  0  0
   63.9157   32.0081   47.1881 H   0  0  0  0  0  0  0  0  0  0  0  0
   62.8681   32.4429   48.6004 H   0  0  0  0  0  0  0  0  0  0  0  0
   62.1023   30.8974   46.0882 H   0  0  0  0  0  0  0  0  0  0  0  0
   62.0795   30.3559   47.8292 H   0  0  0  0  0  0  0  0  0  0  0  0
   60.7798   31.3578   49.3947 H   0  0  0  0  0  0  0  0  0  0  0  0
   60.1382   32.9752   48.9486 H   0  0  0  0  0  0  0  0  0  0  0  0
   59.0500   31.5460   48.9486 H   0  0  0  0  0  0  0  0  0  0  0  0
  1  2  1  0
  2  3  1  0
  3  4  2  0
  4  5  1  0
  5  6  2  0
  6  7  1  0
  7  8  2  0
  8  9  1  0
  9 10  2  0
 10 11  1  0
 11 12  2  0
 12 13  1  0
 13 14  2  0
 13 15  1  0
 15 16  1  0
 16 17  1  0
 17 18  1  1
  8  3  1  0
 17 11  1  0
 17  7  1  0
  1 19  1  0
  1 20  1  0
  1 21  1  0
  4 22  1  0
  5 23  1  0
  6 24  1  0
  9 25  1  0
 10 26  1  0
 12 27  1  0
 15 28  1  0
 15 29  1  0
 16 30  1  0
 16 31  1  0
 18 32  1  0
 18 33  1  0
 18 34  1  0
M  END
>  <UniqueID>  (12) 
11

>  <SMILES>  (12) 
COc1cccc2c1C=CC1=CC(=O)CC[C@@]12C

>  <Energy>  (12) 
40.067726515478256

>  <Genealogy>  (12) 
COc1cccc2c1C=CC1=CC(=O)CC[C@@]12C (chirality)
COc1cccc2c1C=CC1=CC(=O)CC[C@@]12C (3D coordinates assigned)
COc1cccc2c1C=CC1=CC(=O)CC[C@@]12C (nonaromatic ring conformer: 40.067726515478256 kcal/mol)

>  <smiles>  (12) 
COc1cccc2c1C=CC1=CC(=O)CCC12C

>  <score_type>  (12) 
oracle

>  <origin>  (12) 
adg

>  <m_score__min__energy>  (12) 
-7.2400000000000002

>  <m_primary>  (12) 
energy

$$$$
12:0
     RDKit          3D

 79 83  0  0  1  0  0  0  0  0999 V2000
   59.3580   34.6880   45.4260 C   0  0  0  0  0  0  0  0  0  0  0  0
   59.3760   34.7050   46.9600 C   0  0  0  0  0  0  0  0  0  0  0  0
   60.5880   34.0860   47.3860 N   0  0  0  0  0  0  0  0  0  0  0  0
   61.5920   33.8560   46.4110 C   0  0  0  0  0  0  0  0  0  0  0  0
   63.0100   33.8350   46.9620 C   0  0  0  0  0  0  0  0  0  0  0  0
   63.0900   34.0200   48.3650 N   0  0  0  0  0  0  0  0  0  0  0  0
   62.9210   33.1810   49.3030 C   0  0  0  0  0  0  0  0  0  0  0  0
   62.0110   32.1680   49.1210 C   0  0  0  0  0  0  0  0  0  0  0  0
   61.8040   31.2430   50.1110 C   0  0  0  0  0  0  0  0  0  0  0  0
   60.9010   30.1570   50.0230 N   0  0  0  0  0  0  0  0  0  0  0  0
   59.4680   30.2840   49.8990 C   0  0  0  0  0  0  0  0  0  0  0  0
   59.0950   29.7390   48.5380 C   0  0  0  0  0  0  0  0  0  0  0  0
   59.9740   28.5370   48.1560 C   0  0  0  0  0  0  0  0  0  0  0  0
   59.4560   27.8080   47.0110 C   0  0  0  0  0  0  0  0  0  0  0  0
   59.3710   26.4310   47.0130 N   0  0  0  0  0  0  0  0  0  0  0  0
   58.9310   26.0120   45.8190 C   0  0  0  0  0  0  0  0  0  0  0  0
   58.6720   24.6380   45.3610 C   0  0  0  0  0  0  0  0  0  0  0  0
   59.6210   23.6750   45.6220 C   0  0  0  0  0  0  0  0  0  0  0  0
   59.4320   22.3630   45.2320 C   0  0  0  0  0  0  0  0  0  0  0  0
   58.2570   22.0600   44.5730 C   0  0  0  0  0  0  0  0  0  0  0  0
   57.3150   23.0290   44.3150 C   0  0  0  0  0  0  0  0  0  0  0  0
   56.0790   22.6050   43.6020 C   0  0  0  0  0  0  0  0  0  0  0  0
   55.7370   23.6060   42.7150 F   0  0  0  0  0  0  0  0  0  0  0  0
   56.3470   21.4740   42.8520 F   0  0  0  0  0  0  0  0  0  0  0  0
   55.0330   22.3800   44.4770 F   0  0  0  0  0  0  0  0  0  0  0  0
   57.4950   24.3520   44.7040 C   0  0  0  0  0  0  0  0  0  0  0  0
   58.7430   27.1490   45.0760 C   0  0  0  0  0  0  0  0  0  0  0  0
   59.0730   28.2580   45.8320 N   0  0  0  0  0  0  0  0  0  0  0  0
   58.8580   29.5630   45.2720 C   0  0  0  0  0  0  0  0  0  0  0  0
   57.5530   30.1840   45.6800 C   0  0  0  0  0  0  0  0  0  0  0  0
   56.9250   31.1460   44.8730 N   0  0  0  0  0  0  0  0  0  0  0  0
   57.7070   31.8710   43.9350 C   0  0  0  0  0  0  0  0  0  0  0  0
   57.3910   31.3540   42.5370 C   0  0  0  0  0  0  0  0  0  0  0  0
   56.6740   30.0540   42.8380 C   0  0  0  0  0  0  0  0  0  0  0  0
   55.8930   30.4490   44.1020 C   0  0  0  0  0  0  0  0  0  0  0  0
   60.4070   27.8510   49.3700 C   0  0  0  0  0  0  0  0  0  0  0  0
   61.4250   28.7910   50.0630 C   0  0  0  0  0  0  0  0  0  0  0  0
   62.5300   31.3900   51.2410 N   0  0  0  0  0  0  0  0  0  0  0  0
   63.4150   32.3860   51.4010 C   0  0  0  0  0  0  0  0  0  0  0  0
   63.6250   33.2920   50.4420 N   0  0  0  0  0  0  0  0  0  0  0  0
   58.5999   33.9718   45.0761 H   0  0  0  0  0  0  0  0  0  0  0  0
   59.1138   35.6929   45.0510 H   0  0  0  0  0  0  0  0  0  0  0  0
   60.3474   34.3871   45.0510 H   0  0  0  0  0  0  0  0  0  0  0  0
   59.3371   35.7424   47.3237 H   0  0  0  0  0  0  0  0  0  0  0  0
   58.5057   34.1652   47.3616 H   0  0  0  0  0  0  0  0  0  0  0  0
   60.9690   34.6120   48.1980 H   0  0  0  0  0  0  0  0  0  0  0  0
   61.3934   32.8843   45.9352 H   0  0  0  0  0  0  0  0  0  0  0  0
   61.5422   34.6976   45.7044 H   0  0  0  0  0  0  0  0  0  0  0  0
   63.4616   32.8627   46.7158 H   0  0  0  0  0  0  0  0  0  0  0  0
   63.5415   34.6803   46.5005 H   0  0  0  0  0  0  0  0  0  0  0  0
   61.4474   32.0991   48.1789 H   0  0  0  0  0  0  0  0  0  0  0  0
   58.9671   29.7048   50.6887 H   0  0  0  0  0  0  0  0  0  0  0  0
   59.1552   31.3335   50.0022 H   0  0  0  0  0  0  0  0  0  0  0  0
   58.0420   29.4213   48.5558 H   0  0  0  0  0  0  0  0  0  0  0  0
   59.2502   30.5327   47.7924 H   0  0  0  0  0  0  0  0  0  0  0  0
   60.9374   28.8263   47.7109 H   0  0  0  0  0  0  0  0  0  0  0  0
   60.5447   23.9548   46.1497 H   0  0  0  0  0  0  0  0  0  0  0  0
   60.1875   21.5906   45.4383 H   0  0  0  0  0  0  0  0  0  0  0  0
   58.0708   21.0256   44.2486 H   0  0  0  0  0  0  0  0  0  0  0  0
   56.7408   25.1260   44.4989 H   0  0  0  0  0  0  0  0  0  0  0  0
   58.3842   27.1746   44.0365 H   0  0  0  0  0  0  0  0  0  0  0  0
   59.6749   30.2219   45.6015 H   0  0  0  0  0  0  0  0  0  0  0  0
   58.8315   29.4448   44.1787 H   0  0  0  0  0  0  0  0  0  0  0  0
   56.8364   29.3575   45.7960 H   0  0  0  0  0  0  0  0  0  0  0  0
   57.8300   30.7625   46.5737 H   0  0  0  0  0  0  0  0  0  0  0  0
   57.4632   32.9418   43.9981 H   0  0  0  0  0  0  0  0  0  0  0  0
   58.7767   31.7360   44.1530 H   0  0  0  0  0  0  0  0  0  0  0  0
   56.7403   32.0522   41.9900 H   0  0  0  0  0  0  0  0  0  0  0  0
   58.2776   31.2342   41.8970 H   0  0  0  0  0  0  0  0  0  0  0  0
   56.0000   29.7632   42.0188 H   0  0  0  0  0  0  0  0  0  0  0  0
   57.3359   29.1842   42.9620 H   0  0  0  0  0  0  0  0  0  0  0  0
   55.0508   31.1149   43.8629 H   0  0  0  0  0  0  0  0  0  0  0  0
   55.4331   29.6007   44.6300 H   0  0  0  0  0  0  0  0  0  0  0  0
   59.5470   27.6678   50.0310 H   0  0  0  0  0  0  0  0  0  0  0  0
   60.8587   26.8753   49.1376 H   0  0  0  0  0  0  0  0  0  0  0  0
   61.5660   28.4786   51.1082 H   0  0  0  0  0  0  0  0  0  0  0  0
   62.3936   28.7445   49.5437 H   0  0  0  0  0  0  0  0  0  0  0  0
   63.9798   32.4580   52.3422 H   0  0  0  0  0  0  0  0  0  0  0  0
   64.3190   34.0690   50.5740 H   0  0  0  0  0  0  0  0  0  0  0  0
  1  2  1  0
  2  3  1  0
  3  4  1  0
  4  5  1  0
  5  6  1  0
  6  7  2  0
  7  8  1  0
  8  9  2  0
  9 10  1  0
 10 11  1  0
 11 12  1  0
 12 13  1  0
 13 14  1  0
 14 15  2  0
 15 16  1  0
 16 17  1  0
 17 18  2  0
 18 19  1  0
 19 20  2  0
 20 21  1  0
 21 22  1  0
 22 23  1  0
 22 24  1  0
 22 25  1  0
 21 26  2  0
 16 27  2  0
 27 28  1  0
 28 29  1  0
 29 30  1  0
 30 31  1  0
 31 32  1  0
 32 33  1  0
 33 34  1  0
 34 35  1  0
 13 36  1  0
 36 37  1  0
  9 38  1  0
 38 39  2  0
 39 40  1  0
 40  7  1  0
 37 10  1  0
 28 14  1  0
 35 31  1  0
 26 17  1  0
  1 41  1  0
  1 42  1  0
  1 43  1  0
  2 44  1  0
  2 45  1  0
  3 46  1  0
  4 47  1  0
  4 48  1  0
  5 49  1  0
  5 50  1  0
  8 51  1  0
 11 52  1  0
 11 53  1  0
 12 54  1  0
 12 55  1  0
 13 56  1  0
 18 57  1  0
 19 58  1  0
 20 59  1  0
 26 60  1  0
 27 61  1  0
 29 62  1  0
 29 63  1  0
 30 64  1  0
 30 65  1  0
 32 66  1  0
 32 67  1  0
 33 68  1  0
 33 69  1  0
 34 70  1  0
 34 71  1  0
 35 72  1  0
 35 73  1  0
 36 74  1  0
 36 75  1  0
 37 76  1  0
 37 77  1  0
 39 78  1  0
 40 79  1  0
M  END
>  <smiles>  (13) 
CCNCCN=c1cc(N2CCC(c3nc(-c4cccc(C(F)(F)F)c4)cn3CCN3CCCC3)CC2)nc[nH]1

>  <score_type>  (13) 
oracle

>  <origin>  (13) 
adg

>  <m_score__min__energy>  (13) 
-9.3900000000000006

>  <m_primary>  (13) 
energy

$$$$
13:0
     RDKit          3D

 37 38  0  0  0  0  0  0  0  0999 V2000
   59.3540   34.6420   47.5060 C   0  0  0  0  0  0  0  0  0  0  0  0
   59.6660   34.4300   46.0290 C   0  0  0  0  0  0  0  0  0  0  0  0
   58.9080   33.2470   45.4900 C   0  0  0  0  0  0  0  0  0  0  0  0
   58.5500   32.1890   46.3400 C   0  0  0  0  0  0  0  0  0  0  0  0
   57.8170   31.1060   45.8460 C   0  0  0  0  0  0  0  0  0  0  0  0
   57.4200   31.0750   44.5030 C   0  0  0  0  0  0  0  0  0  0  0  0
   56.4930   29.7100   43.8900 S   0  0  0  0  0  0  0  0  0  0  0  0
   55.4020   29.3480   44.8600 O   0  0  0  0  0  0  0  0  0  0  0  0
   55.8750   30.0890   42.5740 O   0  0  0  0  0  0  0  0  0  0  0  0
   57.5390   28.3400   43.6610 N   0  0  0  0  0  0  0  0  0  0  0  0
   58.8550   28.6100   44.2540 C   0  0  0  0  0  0  0  0  0  0  0  0
   59.1320   27.6610   45.4300 C   0  0  1  0  0  0  0  0  0  0  0  0
   60.1420   28.2170   46.4290 C   0  0  0  0  0  0  0  0  0  0  0  0
   59.6370   27.6920   47.7350 C   0  0  0  0  0  0  0  0  0  0  0  0
   58.1530   27.5280   47.4820 C   0  0  0  0  0  0  0  0  0  0  0  0
   57.9310   27.3490   46.1030 O   0  0  0  0  0  0  0  0  0  0  0  0
   57.7700   32.1340   43.6540 C   0  0  0  0  0  0  0  0  0  0  0  0
   58.5030   33.2170   44.1460 C   0  0  0  0  0  0  0  0  0  0  0  0
   60.1101   34.1283   48.1179 H   0  0  0  0  0  0  0  0  0  0  0  0
   59.3682   35.7182   47.7330 H   0  0  0  0  0  0  0  0  0  0  0  0
   58.3586   34.2325   47.7330 H   0  0  0  0  0  0  0  0  0  0  0  0
   59.3781   35.3302   45.4662 H   0  0  0  0  0  0  0  0  0  0  0  0
   60.7438   34.2396   45.9189 H   0  0  0  0  0  0  0  0  0  0  0  0
   58.8473   32.2121   47.3988 H   0  0  0  0  0  0  0  0  0  0  0  0
   57.5508   30.2744   46.5150 H   0  0  0  0  0  0  0  0  0  0  0  0
   57.0990   27.5440   44.1750 H   0  0  0  0  0  0  0  0  0  0  0  0
   59.6311   28.4694   43.4873 H   0  0  0  0  0  0  0  0  0  0  0  0
   58.8665   29.6446   44.6273 H   0  0  0  0  0  0  0  0  0  0  0  0
   59.5724   26.7526   44.9930 H   0  0  0  0  0  0  0  0  0  0  0  0
   61.1552   27.8449   46.2172 H   0  0  0  0  0  0  0  0  0  0  0  0
   60.2238   29.3136   46.4020 H   0  0  0  0  0  0  0  0  0  0  0  0
   60.1054   26.7278   47.9818 H   0  0  0  0  0  0  0  0  0  0  0  0
   59.8625   28.3524   48.5853 H   0  0  0  0  0  0  0  0  0  0  0  0
   57.7820   26.6497   48.0306 H   0  0  0  0  0  0  0  0  0  0  0  0
   57.6199   28.4263   47.8266 H   0  0  0  0  0  0  0  0  0  0  0  0
   57.4666   32.1124   42.5969 H   0  0  0  0  0  0  0  0  0  0  0  0
   58.7641   34.0503   43.4770 H   0  0  0  0  0  0  0  0  0  0  0  0
  1  2  1  0
  2  3  1  0
  3  4  2  0
  4  5  1  0
  5  6  2  0
  6  7  1  0
  7  8  2  0
  7  9  2  0
  7 10  1  0
 10 11  1  0
 11 12  1  0
 12 13  1  0
 13 14  1  0
 14 15  1  0
 15 16  1  0
  6 17  1  0
 17 18  2  0
 18  3  1  0
 16 12  1  0
  1 19  1  0
  1 20  1  0
  1 21  1  0
  2 22  1  0
  2 23  1  0
  4 24  1  0
  5 25  1  0
 10 26  1  0
 11 27  1  0
 11 28  1  0
 12 29  1  6
 13 30  1  0
 13 31  1  0
 14 32  1  0
 14 33  1  0
 15 34  1  0
 15 35  1  0
 17 36  1  0
 18 37  1  0
M  END
>  <UniqueID>  (14) 
12

>  <SMILES>  (14) 
CCc1ccc(S(=O)(=O)NC[C@H]2CCCO2)cc1

>  <Energy>  (14) 
29.00253540227168

>  <Genealogy>  (14) 
CCc1ccc(S(=O)(=O)NC[C@H]2CCCO2)cc1 (chirality)
CCc1ccc(S(=O)(=O)NC[C@H]2CCCO2)cc1 (3D coordinates assigned)
CCc1ccc(S(=O)(=O)NC[C@H]2CCCO2)cc1 (nonaromatic ring conformer: 29.00253540227168 kcal/mol)

>  <smiles>  (14) 
CCc1ccc(S(=O)(=O)NCC2CCCO2)cc1

>  <score_type>  (14) 
oracle

>  <origin>  (14) 
adg

>  <m_score__min__energy>  (14) 
-7.1600000000000001

>  <m_primary>  (14) 
energy

$$$$
14:0
     RDKit          3D

 47 48  0  0  0  0  0  0  0  0999 V2000
   64.5480   35.1210   52.2930 C   0  0  0  0  0  0  0  0  0  0  0  0
   63.5280   34.0010   52.5230 C   0  0  0  0  0  0  0  0  0  0  0  0
   63.1690   33.3000   51.2500 N   0  0  0  0  0  0  0  0  0  0  0  0
   61.8570   32.6110   51.3670 C   0  0  0  0  0  0  0  0  0  0  0  0
   60.7010   33.4430   50.7970 C   0  0  0  0  0  0  0  0  0  0  0  0
   64.2400   32.3350   50.8850 C   0  0  0  0  0  0  0  0  0  0  0  0
   65.0830   32.7920   49.6760 C   0  0  0  0  0  0  0  0  0  0  0  0
   64.2540   33.5130   48.7080 N   0  0  0  0  0  0  0  0  0  0  0  0
   63.0860   32.9660   48.0640 C   0  0  0  0  0  0  0  0  0  0  0  0
   62.9360   31.5850   47.8370 C   0  0  0  0  0  0  0  0  0  0  0  0
   61.7890   31.0900   47.2090 C   0  0  0  0  0  0  0  0  0  0  0  0
   60.7680   31.9620   46.7920 C   0  0  0  0  0  0  0  0  0  0  0  0
   59.5510   31.4350   46.1250 C   0  0  0  0  0  0  0  0  0  0  0  0
   59.3440   30.0500   46.0030 C   0  0  0  0  0  0  0  0  0  0  0  0
   58.1980   29.5540   45.3760 C   0  0  0  0  0  0  0  0  0  0  0  0
   57.2310   30.4310   44.8560 C   0  0  0  0  0  0  0  0  0  0  0  0
   56.0520   29.9160   44.2110 N   0  0  0  0  0  0  0  0  0  0  0  0
   55.1460   29.3740   44.8790 O   0  0  0  0  0  0  0  0  0  0  0  0
   55.9020   30.0130   42.8470 O   0  0  0  0  0  0  0  0  0  0  0  0
   57.4370   31.8170   44.9780 C   0  0  0  0  0  0  0  0  0  0  0  0
   58.5830   32.3120   45.6050 C   0  0  0  0  0  0  0  0  0  0  0  0
   60.9220   33.3410   47.0150 C   0  0  0  0  0  0  0  0  0  0  0  0
   62.0680   33.8350   47.6430 C   0  0  0  0  0  0  0  0  0  0  0  0
   64.8969   35.5041   53.2633 H   0  0  0  0  0  0  0  0  0  0  0  0
   65.4037   34.7267   51.7253 H   0  0  0  0  0  0  0  0  0  0  0  0
   64.0756   35.9362   51.7253 H   0  0  0  0  0  0  0  0  0  0  0  0
   63.9564   33.2687   53.2232 H   0  0  0  0  0  0  0  0  0  0  0  0
   62.6125   34.4536   52.9317 H   0  0  0  0  0  0  0  0  0  0  0  0
   63.1040   33.9950   50.4690 H   0  0  0  0  0  0  0  0  0  0  0  0
   61.9091   31.6585   50.8192 H   0  0  0  0  0  0  0  0  0  0  0  0
   61.6578   32.4531   52.4372 H   0  0  0  0  0  0  0  0  0  0  0  0
   60.1120   33.8670   51.6236 H   0  0  0  0  0  0  0  0  0  0  0  0
   61.1057   34.2583   50.1793 H   0  0  0  0  0  0  0  0  0  0  0  0
   60.0564   32.8003   50.1793 H   0  0  0  0  0  0  0  0  0  0  0  0
   64.9080   32.2103   51.7500 H   0  0  0  0  0  0  0  0  0  0  0  0
   63.7486   31.3920   50.6034 H   0  0  0  0  0  0  0  0  0  0  0  0
   65.8873   33.4553   50.0270 H   0  0  0  0  0  0  0  0  0  0  0  0
   65.5069   31.9035   49.1852 H   0  0  0  0  0  0  0  0  0  0  0  0
   64.5620   34.4770   48.4450 H   0  0  0  0  0  0  0  0  0  0  0  0
   63.7269   30.8901   48.1560 H   0  0  0  0  0  0  0  0  0  0  0  0
   61.6845   30.0082   47.0396 H   0  0  0  0  0  0  0  0  0  0  0  0
   60.0913   29.3500   46.4049 H   0  0  0  0  0  0  0  0  0  0  0  0
   58.0515   28.4673   45.2887 H   0  0  0  0  0  0  0  0  0  0  0  0
   56.6895   32.5170   44.5764 H   0  0  0  0  0  0  0  0  0  0  0  0
   58.7295   33.3987   45.6927 H   0  0  0  0  0  0  0  0  0  0  0  0
   60.1337   34.0371   46.6924 H   0  0  0  0  0  0  0  0  0  0  0  0
   62.1734   34.9172   47.8093 H   0  0  0  0  0  0  0  0  0  0  0  0
  1  2  1  0
  2  3  1  0
  3  4  1  0
  4  5  1  0
  3  6  1  0
  6  7  1  0
  7  8  1  0
  8  9  1  0
  9 10  2  0
 10 11  1  0
 11 12  2  0
 12 13  1  0
 13 14  2  0
 14 15  1  0
 15 16  2  0
 16 17  1  0
 17 18  2  0
 17 19  1  0
 16 20  1  0
 20 21  2  0
 12 22  1  0
 22 23  2  0
 23  9  1  0
 21 13  1  0
  1 24  1  0
  1 25  1  0
  1 26  1  0
  2 27  1  0
  2 28  1  0
  3 29  1  0
  4 30  1  0
  4 31  1  0
  5 32  1  0
  5 33  1  0
  5 34  1  0
  6 35  1  0
  6 36  1  0
  7 37  1  0
  7 38  1  0
  8 39  1  0
 10 40  1  0
 11 41  1  0
 14 42  1  0
 15 43  1  0
 20 44  1  0
 21 45  1  0
 22 46  1  0
 23 47  1  0
M  CHG  3   3   1  17   1  19  -1
M  END
>  <UniqueID>  (15) 
13

>  <SMILES>  (15) 
CC[NH+](CC)CCNc1ccc(-c2ccc([N+](=O)[O-])cc2)cc1

>  <Energy>  (15) 
55.88606694970275

>  <Genealogy>  (15) 
CC[NH+](CC)CCNc1ccc(-c2ccc([N+](=O)[O-])cc2)cc1 (protonated)
CC[NH+](CC)CCNc1ccc(-c2ccc([N+](=O)[O-])cc2)cc1 (3D coordinates assigned)
CC[NH+](CC)CCNc1ccc(-c2ccc([N+](=O)[O-])cc2)cc1 (optimized conformer: 55.88606694970275 kcal/mol)

>  <smiles>  (15) 
CCN(CC)CCNc1ccc(-c2ccc([N+](=O)[O-])cc2)cc1

>  <score_type>  (15) 
oracle

>  <origin>  (15) 
adg

>  <m_score__min__energy>  (15) 
-5.6399999999999997

>  <m_primary>  (15) 
energy

$$$$
15:0
     RDKit          3D

 40 41  0  0  0  0  0  0  0  0999 V2000
   60.7740   29.3350   45.7670 C   0  0  0  0  0  0  0  0  0  0  0  0
   60.7900   29.9970   47.1400 C   0  0  0  0  0  0  0  0  0  0  0  0
   60.9260   31.4510   47.0040 N   0  0  0  0  0  0  0  0  0  0  0  0
   59.8220   32.1710   46.7840 N   0  0  0  0  0  0  0  0  0  0  0  0
   59.8470   33.5260   46.6760 C   0  0  0  0  0  0  0  0  0  0  0  0
   58.5760   34.2760   46.3890 C   0  0  0  0  0  0  0  0  0  0  0  0
   58.3230   34.4390   44.8820 C   0  0  0  0  0  0  0  0  0  0  0  0
   58.2900   33.1060   44.1260 C   0  0  0  0  0  0  0  0  0  0  0  0
   57.2290   32.3120   44.6000 O   0  0  0  0  0  0  0  0  0  0  0  0
   57.5720   31.0190   44.3400 N   0  0  0  0  0  0  0  0  0  0  0  0
   56.5960   30.4630   43.3830 C   0  0  0  0  0  0  0  0  0  0  0  0
   55.4560   29.7140   44.0980 C   0  0  0  0  0  0  0  0  0  0  0  0
   55.9040   28.6300   44.9010 O   0  0  0  0  0  0  0  0  0  0  0  0
   57.2100   28.8120   45.4320 C   0  0  0  0  0  0  0  0  0  0  0  0
   57.5980   30.2880   45.6230 C   0  0  0  0  0  0  0  0  0  0  0  0
   61.0670   34.1960   46.7950 C   0  0  0  0  0  0  0  0  0  0  0  0
   62.2230   33.4590   47.0330 C   0  0  0  0  0  0  0  0  0  0  0  0
   62.1400   32.0700   47.1420 C   0  0  0  0  0  0  0  0  0  0  0  0
   63.1870   31.4040   47.3690 O   0  0  0  0  0  0  0  0  0  0  0  0
   60.7476   28.2419   45.8873 H   0  0  0  0  0  0  0  0  0  0  0  0
   59.8836   29.6644   45.2115 H   0  0  0  0  0  0  0  0  0  0  0  0
   61.6793   29.6210   45.2115 H   0  0  0  0  0  0  0  0  0  0  0  0
   59.8502   29.7681   47.6639 H   0  0  0  0  0  0  0  0  0  0  0  0
   61.6456   29.6103   47.7131 H   0  0  0  0  0  0  0  0  0  0  0  0
   57.7328   33.7257   46.8318 H   0  0  0  0  0  0  0  0  0  0  0  0
   58.6726   35.2813   46.8248 H   0  0  0  0  0  0  0  0  0  0  0  0
   57.3555   34.9436   44.7428 H   0  0  0  0  0  0  0  0  0  0  0  0
   59.1586   35.0256   44.4725 H   0  0  0  0  0  0  0  0  0  0  0  0
   58.1494   33.2992   43.0523 H   0  0  0  0  0  0  0  0  0  0  0  0
   59.2396   32.5748   44.2873 H   0  0  0  0  0  0  0  0  0  0  0  0
   56.1663   31.2866   42.7939 H   0  0  0  0  0  0  0  0  0  0  0  0
   57.1225   29.7462   42.7357 H   0  0  0  0  0  0  0  0  0  0  0  0
   54.9219   30.4273   44.7430 H   0  0  0  0  0  0  0  0  0  0  0  0
   54.8078   29.2907   43.3166 H   0  0  0  0  0  0  0  0  0  0  0  0
   57.2608   28.3100   46.4094 H   0  0  0  0  0  0  0  0  0  0  0  0
   57.9159   28.3849   44.7045 H   0  0  0  0  0  0  0  0  0  0  0  0
   56.8871   30.7585   46.3182 H   0  0  0  0  0  0  0  0  0  0  0  0
   58.6207   30.3293   46.0259 H   0  0  0  0  0  0  0  0  0  0  0  0
   61.1132   35.2911   46.7018 H   0  0  0  0  0  0  0  0  0  0  0  0
   63.1936   33.9665   47.1343 H   0  0  0  0  0  0  0  0  0  0  0  0
  1  2  1  0
  2  3  1  0
  3  4  1  0
  4  5  2  0
  5  6  1  0
  6  7  1  0
  7  8  1  0
  8  9  1  0
  9 10  1  0
 10 11  1  0
 11 12  1  0
 12 13  1  0
 13 14  1  0
 14 15  1  0
  5 16  1  0
 16 17  2  0
 17 18  1  0
 18 19  2  0
 18  3  1  0
 15 10  1  0
  1 20  1  0
  1 21  1  0
  1 22  1  0
  2 23  1  0
  2 24  1  0
  6 25  1  0
  6 26  1  0
  7 27  1  0
  7 28  1  0
  8 29  1  0
  8 30  1  0
 11 31  1  0
 11 32  1  0
 12 33  1  0
 12 34  1  0
 14 35  1  0
 14 36  1  0
 15 37  1  0
 15 38  1  0
 16 39  1  0
 17 40  1  0
M  END
>  <UniqueID>  (16) 
14

>  <SMILES>  (16) 
CCn1nc(CCCON2CCOCC2)ccc1=O

>  <Energy>  (16) 
41.69463125143188

>  <Genealogy>  (16) 
CCn1nc(CCCON2CCOCC2)ccc1=O (3D coordinates assigned)
CCn1nc(CCCON2CCOCC2)ccc1=O (nonaromatic ring conformer: 41.69463125143188 kcal/mol)

>  <smiles>  (16) 
CCn1nc(CCCON2CCOCC2)ccc1=O

>  <score_type>  (16) 
oracle

>  <origin>  (16) 
adg

>  <m_score__min__energy>  (16) 
-6.5499999999999998

>  <m_primary>  (16) 
energy

$$$$
16:0
     RDKit          3D

 33 34  0  0  0  0  0  0  0  0999 V2000
   58.1310   27.3980   43.2530 C   0  0  0  0  0  0  0  0  0  0  0  0
   58.0620   28.0990   44.5570 N   0  0  0  0  0  0  0  0  0  0  0  0
   58.8210   29.3680   44.4790 C   0  0  0  0  0  0  0  0  0  0  0  0
   56.7610   28.3900   44.8640 O   0  0  0  0  0  0  0  0  0  0  0  0
   58.6320   27.2710   45.6560 C   0  0  0  0  0  0  0  0  0  0  0  0
   57.5920   26.5650   46.5670 C   0  0  0  0  0  0  0  0  0  0  0  0
   56.8560   25.4270   45.8760 C   0  0  0  0  0  0  0  0  0  0  0  0
   55.4710   25.5450   45.6370 C   0  0  0  0  0  0  0  0  0  0  0  0
   54.7730   26.6920   45.9990 O   0  0  0  0  0  0  0  0  0  0  0  0
   54.7740   24.5000   45.0310 C   0  0  0  0  0  0  0  0  0  0  0  0
   55.4210   23.3680   44.6600 N   0  0  0  0  0  0  0  0  0  0  0  0
   56.7550   23.2080   44.8530 C   0  0  0  0  0  0  0  0  0  0  0  0
   57.3680   22.0190   44.4390 C   0  0  0  0  0  0  0  0  0  0  0  0
   58.7390   21.8380   44.6160 C   0  0  0  0  0  0  0  0  0  0  0  0
   59.5060   22.8440   45.2010 C   0  0  0  0  0  0  0  0  0  0  0  0
   58.9090   24.0360   45.6200 C   0  0  0  0  0  0  0  0  0  0  0  0
   57.5190   24.2380   45.4620 C   0  0  0  0  0  0  0  0  0  0  0  0
   58.2375   26.3165   43.4233 H   0  0  0  0  0  0  0  0  0  0  0  0
   57.2096   27.5906   42.6839 H   0  0  0  0  0  0  0  0  0  0  0  0
   58.9972   27.7666   42.6839 H   0  0  0  0  0  0  0  0  0  0  0  0
   59.0370   29.7291   45.4953 H   0  0  0  0  0  0  0  0  0  0  0  0
   59.7657   29.1978   43.9419 H   0  0  0  0  0  0  0  0  0  0  0  0
   58.2241   30.1198   43.9419 H   0  0  0  0  0  0  0  0  0  0  0  0
   56.2050   27.5860   44.6700 H   0  0  0  0  0  0  0  0  0  0  0  0
   59.2671   26.4959   45.2023 H   0  0  0  0  0  0  0  0  0  0  0  0
   59.1808   27.9678   46.3066 H   0  0  0  0  0  0  0  0  0  0  0  0
   58.1163   26.1589   47.4446 H   0  0  0  0  0  0  0  0  0  0  0  0
   56.8390   27.3177   46.8434 H   0  0  0  0  0  0  0  0  0  0  0  0
   53.6927   24.5949   44.8530 H   0  0  0  0  0  0  0  0  0  0  0  0
   56.7659   21.2253   43.9726 H   0  0  0  0  0  0  0  0  0  0  0  0
   59.2157   20.9005   44.2937 H   0  0  0  0  0  0  0  0  0  0  0  0
   60.5883   22.6987   45.3337 H   0  0  0  0  0  0  0  0  0  0  0  0
   59.5261   24.8238   46.0767 H   0  0  0  0  0  0  0  0  0  0  0  0
  1  2  1  0
  2  3  1  0
  2  4  1  0
  2  5  1  0
  5  6  1  0
  6  7  1  0
  7  8  2  0
  8  9  1  0
  8 10  1  0
 10 11  2  0
 11 12  1  0
 12 13  2  0
 13 14  1  0
 14 15  2  0
 15 16  1  0
 16 17  2  0
 17  7  1  0
 17 12  1  0
  1 18  1  0
  1 19  1  0
  1 20  1  0
  3 21  1  0
  3 22  1  0
  3 23  1  0
  4 24  1  0
  5 25  1  0
  5 26  1  0
  6 27  1  0
  6 28  1  0
 10 29  1  0
 13 30  1  0
 14 31  1  0
 15 32  1  0
 16 33  1  0
M  CHG  2   2   1   9  -1
M  END
>  <UniqueID>  (17) 
15

>  <SMILES>  (17) 
C[N+](C)(O)CCc1c([O-])cnc2ccccc12

>  <Energy>  (17) 
46.37080489316752

>  <Genealogy>  (17) 
C[N+](C)(O)CCc1c([O-])cnc2ccccc12 (protonated)
C[N+](C)(O)CCc1c([O-])cnc2ccccc12 (3D coordinates assigned)
C[N+](C)(O)CCc1c([O-])cnc2ccccc12 (optimized conformer: 46.37080489316752 kcal/mol)

>  <smiles>  (17) 
C[N+](C)([O-])CCc1c(O)cnc2ccccc12

>  <score_type>  (17) 
oracle

>  <origin>  (17) 
adg

>  <m_score__min__energy>  (17) 
-8.0700000000000003

>  <m_primary>  (17) 
energy

$$$$
17:0
     RDKit          3D

 35 36  0  0  0  0  0  0  0  0999 V2000
   58.4770   32.6430   48.9390 C   0  0  0  0  0  0  0  0  0  0  0  0
   59.5950   33.0940   48.0410 C   0  0  0  0  0  0  0  0  0  0  0  0
   60.9240   32.7550   48.3480 C   0  0  0  0  0  0  0  0  0  0  0  0
   61.9690   33.1780   47.5220 C   0  0  0  0  0  0  0  0  0  0  0  0
   63.6250   32.7510   47.9130 Cl  0  0  0  0  0  0  0  0  0  0  0  0
   61.6950   33.9400   46.3850 C   0  0  0  0  0  0  0  0  0  0  0  0
   60.3780   34.2840   46.0710 C   0  0  0  0  0  0  0  0  0  0  0  0
   59.3150   33.8690   46.8980 C   0  0  0  0  0  0  0  0  0  0  0  0
   57.9770   34.2040   46.6200 O   0  0  0  0  0  0  0  0  0  0  0  0
   57.3050   33.9690   45.3820 C   0  0  0  0  0  0  0  0  0  0  0  0
   57.6830   32.6300   44.8230 C   0  0  0  0  0  0  0  0  0  0  0  0
   57.8540   32.5080   43.5790 O   0  0  0  0  0  0  0  0  0  0  0  0
   57.8490   31.5010   45.6940 N   0  0  0  0  0  0  0  0  0  0  0  0
   58.3180   30.2320   45.2180 C   0  0  0  0  0  0  0  0  0  0  0  0
   59.5980   29.8050   45.6020 C   0  0  0  0  0  0  0  0  0  0  0  0
   60.1240   28.6110   45.1080 C   0  0  0  0  0  0  0  0  0  0  0  0
   59.3750   27.8270   44.2310 C   0  0  0  0  0  0  0  0  0  0  0  0
   58.0900   28.2260   43.8590 C   0  0  0  0  0  0  0  0  0  0  0  0
   57.5350   29.4200   44.3600 C   0  0  0  0  0  0  0  0  0  0  0  0
   56.1770   29.7650   44.0310 N   0  0  0  0  0  0  0  0  0  0  0  0
   55.8960   30.2040   42.8970 O   0  0  0  0  0  0  0  0  0  0  0  0
   55.1520   29.4760   44.9030 O   0  0  0  0  0  0  0  0  0  0  0  0
   58.7789   32.7648   49.9897 H   0  0  0  0  0  0  0  0  0  0  0  0
   57.5810   33.2500   48.7422 H   0  0  0  0  0  0  0  0  0  0  0  0
   58.2530   31.5842   48.7422 H   0  0  0  0  0  0  0  0  0  0  0  0
   61.1427   32.1538   49.2428 H   0  0  0  0  0  0  0  0  0  0  0  0
   62.5183   34.2704   45.7346 H   0  0  0  0  0  0  0  0  0  0  0  0
   60.1692   34.8828   45.1722 H   0  0  0  0  0  0  0  0  0  0  0  0
   56.2182   33.9973   45.5494 H   0  0  0  0  0  0  0  0  0  0  0  0
   57.5996   34.7491   44.6646 H   0  0  0  0  0  0  0  0  0  0  0  0
   57.8460   31.6630   46.7250 H   0  0  0  0  0  0  0  0  0  0  0  0
   60.1914   30.4163   46.2979 H   0  0  0  0  0  0  0  0  0  0  0  0
   61.1309   28.2875   45.4107 H   0  0  0  0  0  0  0  0  0  0  0  0
   59.7973   26.8930   43.8318 H   0  0  0  0  0  0  0  0  0  0  0  0
   57.5049   27.6018   43.1677 H   0  0  0  0  0  0  0  0  0  0  0  0
  1  2  1  0
  2  3  2  0
  3  4  1  0
  4  5  1  0
  4  6  2  0
  6  7  1  0
  7  8  2  0
  8  9  1  0
  9 10  1  0
 10 11  1  0
 11 12  2  0
 11 13  1  0
 13 14  1  0
 14 15  2  0
 15 16  1  0
 16 17  2  0
 17 18  1  0
 18 19  2  0
 19 20  1  0
 20 21  2  0
 20 22  1  0
  8  2  1  0
 19 14  1  0
  1 23  1  0
  1 24  1  0
  1 25  1  0
  3 26  1  0
  6 27  1  0
  7 28  1  0
 10 29  1  0
 10 30  1  0
 13 31  1  0
 15 32  1  0
 16 33  1  0
 17 34  1  0
 18 35  1  0
M  CHG  2  20   1  22  -1
M  END
>  <UniqueID>  (18) 
16

>  <SMILES>  (18) 
Cc1cc(Cl)ccc1OCC(=O)Nc1ccccc1[N+](=O)[O-]

>  <Energy>  (18) 
43.19466198154411

>  <Genealogy>  (18) 
Cc1cc(Cl)ccc1OCC(=O)Nc1ccccc1[N+](=O)[O-] (3D coordinates assigned)
Cc1cc(Cl)ccc1OCC(=O)Nc1ccccc1[N+](=O)[O-] (optimized conformer: 43.19466198154411 kcal/mol)

>  <smiles>  (18) 
Cc1cc(Cl)ccc1OCC(=O)Nc1ccccc1[N+](=O)[O-]

>  <score_type>  (18) 
oracle

>  <origin>  (18) 
adg

>  <m_score__min__energy>  (18) 
-7.75

>  <m_primary>  (18) 
energy

$$$$
18:0
     RDKit          3D

 43 44  0  0  0  0  0  0  0  0999 V2000
   63.3900   33.8310   46.4510 C   0  0  0  0  0  0  0  0  0  0  0  0
   63.2940   32.9020   47.6550 C   0  0  0  0  0  0  0  0  0  0  0  0
   61.9500   32.7930   48.0880 O   0  0  0  0  0  0  0  0  0  0  0  0
   61.5550   33.9600   48.7790 C   0  0  0  0  0  0  0  0  0  0  0  0
   60.2340   34.5200   48.2170 C   0  0  0  0  0  0  0  0  0  0  0  0
   59.5860   33.7180   47.1460 N   0  0  0  0  0  0  0  0  0  0  0  0
   58.1160   33.6270   47.2910 C   0  0  0  0  0  0  0  0  0  0  0  0
   57.5220   32.8820   46.0900 C   0  0  0  0  0  0  0  0  0  0  0  0
   57.7430   33.6170   44.8200 N   0  0  0  0  0  0  0  0  0  0  0  0
   57.8330   32.6870   43.6760 C   0  0  0  0  0  0  0  0  0  0  0  0
   57.6620   31.2640   44.1390 C   0  0  0  0  0  0  0  0  0  0  0  0
   58.7700   30.5400   44.6060 C   0  0  0  0  0  0  0  0  0  0  0  0
   58.6180   29.2210   45.0440 C   0  0  0  0  0  0  0  0  0  0  0  0
   57.3570   28.6160   45.0240 C   0  0  0  0  0  0  0  0  0  0  0  0
   57.1510   26.8140   45.6180 Br  0  0  0  0  0  0  0  0  0  0  0  0
   56.2470   29.3330   44.5640 C   0  0  0  0  0  0  0  0  0  0  0  0
   56.3970   30.6520   44.1240 C   0  0  0  0  0  0  0  0  0  0  0  0
   58.8820   34.5700   44.8660 C   0  0  0  0  0  0  0  0  0  0  0  0
   60.0320   34.0830   45.7690 C   0  0  0  0  0  0  0  0  0  0  0  0
   63.4973   34.8697   46.7969 H   0  0  0  0  0  0  0  0  0  0  0  0
   64.2644   33.5547   45.8435 H   0  0  0  0  0  0  0  0  0  0  0  0
   62.4776   33.7393   45.8435 H   0  0  0  0  0  0  0  0  0  0  0  0
   63.6665   31.9057   47.3747 H   0  0  0  0  0  0  0  0  0  0  0  0
   63.9006   33.3154   48.4742 H   0  0  0  0  0  0  0  0  0  0  0  0
   61.4181   33.7179   49.8433 H   0  0  0  0  0  0  0  0  0  0  0  0
   62.3383   34.7219   48.6522 H   0  0  0  0  0  0  0  0  0  0  0  0
   59.5223   34.6032   49.0516 H   0  0  0  0  0  0  0  0  0  0  0  0
   60.4959   35.4804   47.7491 H   0  0  0  0  0  0  0  0  0  0  0  0
   59.9390   32.7430   47.3060 H   0  0  0  0  0  0  0  0  0  0  0  0
   57.8730   33.0825   48.2154 H   0  0  0  0  0  0  0  0  0  0  0  0
   57.6916   34.6408   47.3363 H   0  0  0  0  0  0  0  0  0  0  0  0
   57.9959   31.8921   46.0154 H   0  0  0  0  0  0  0  0  0  0  0  0
   56.4371   32.7907   46.2473 H   0  0  0  0  0  0  0  0  0  0  0  0
   57.0431   32.9289   42.9497 H   0  0  0  0  0  0  0  0  0  0  0  0
   58.8230   32.7927   43.2083 H   0  0  0  0  0  0  0  0  0  0  0  0
   59.7630   31.0127   44.6275 H   0  0  0  0  0  0  0  0  0  0  0  0
   59.4915   28.6581   45.4049 H   0  0  0  0  0  0  0  0  0  0  0  0
   55.2548   28.8584   44.5484 H   0  0  0  0  0  0  0  0  0  0  0  0
   55.5214   31.2126   43.7648 H   0  0  0  0  0  0  0  0  0  0  0  0
   59.2694   34.7043   43.8453 H   0  0  0  0  0  0  0  0  0  0  0  0
   58.5070   35.5142   45.2876 H   0  0  0  0  0  0  0  0  0  0  0  0
   60.4903   33.1977   45.3041 H   0  0  0  0  0  0  0  0  0  0  0  0
   60.7449   34.9150   45.8667 H   0  0  0  0  0  0  0  0  0  0  0  0
  1  2  1  0
  2  3  1  0
  3  4  1  0
  4  5  1  0
  5  6  1  0
  6  7  1  0
  7  8  1  0
  8  9  1  0
  9 10  1  0
 10 11  1  0
 11 12  2  0
 12 13  1  0
 13 14  2  0
 14 15  1  0
 14 16  1  0
 16 17  2  0
  9 18  1  0
 18 19  1  0
 19  6  1  0
 17 11  1  0
  1 20  1  0
  1 21  1  0
  1 22  1  0
  2 23  1  0
  2 24  1  0
  4 25  1  0
  4 26  1  0
  5 27  1  0
  5 28  1  0
  6 29  1  0
  7 30  1  0
  7 31  1  0
  8 32  1  0
  8 33  1  0
 10 34  1  0
 10 35  1  0
 12 36  1  0
 13 37  1  0
 16 38  1  0
 17 39  1  0
 18 40  1  0
 18 41  1  0
 19 42  1  0
 19 43  1  0
M  CHG  1   6   1
M  END
>  <UniqueID>  (19) 
17

>  <SMILES>  (19) 
CCOCC[NH+]1CCN(Cc2ccc(Br)cc2)CC1

>  <Energy>  (19) 
57.684942491804364

>  <Genealogy>  (19) 
CCOCC[NH+]1CCN(Cc2ccc(Br)cc2)CC1 (protonated)
CCOCC[NH+]1CCN(Cc2ccc(Br)cc2)CC1 (3D coordinates assigned)
CCOCC[NH+]1CCN(Cc2ccc(Br)cc2)CC1 (nonaromatic ring conformer: 57.684942491804364 kcal/mol)

>  <smiles>  (19) 
CCOCCN1CCN(Cc2ccc(Br)cc2)CC1

>  <score_type>  (19) 
oracle

>  <origin>  (19) 
adg

>  <m_score__min__energy>  (19) 
-4.96

>  <m_primary>  (19) 
energy

$$$$
19:0
     RDKit          3D

 31 33  0  0  0  0  0  0  0  0999 V2000
   56.9570   30.5550   43.9680 C   0  0  0  0  0  0  0  0  0  0  0  0
   57.0190   31.2230   45.2240 O   0  0  0  0  0  0  0  0  0  0  0  0
   57.7890   32.3680   45.4740 C   0  0  0  0  0  0  0  0  0  0  0  0
   57.8200   33.4650   44.5930 C   0  0  0  0  0  0  0  0  0  0  0  0
   58.5940   34.5880   44.8950 C   0  0  0  0  0  0  0  0  0  0  0  0
   59.3480   34.6260   46.0690 C   0  0  0  0  0  0  0  0  0  0  0  0
   59.3430   33.5340   46.9500 C   0  0  0  0  0  0  0  0  0  0  0  0
   60.1100   33.5840   48.1640 N   0  0  0  0  0  0  0  0  0  0  0  0
   59.6430   33.8880   49.4020 C   0  0  0  0  0  0  0  0  0  0  0  0
   60.6110   33.8370   50.3480 N   0  0  0  0  0  0  0  0  0  0  0  0
   61.7210   33.4980   49.6740 C   0  0  0  0  0  0  0  0  0  0  0  0
   63.0140   33.3430   50.1690 C   0  0  0  0  0  0  0  0  0  0  0  0
   64.0340   33.0260   49.2500 C   0  0  0  0  0  0  0  0  0  0  0  0
   65.3860   32.8560   49.7110 C   0  0  0  0  0  0  0  0  0  0  0  0
   66.4740   32.7210   50.0820 N   0  0  0  0  0  0  0  0  0  0  0  0
   63.7350   32.8890   47.8730 C   0  0  0  0  0  0  0  0  0  0  0  0
   62.4170   33.0560   47.4070 C   0  0  0  0  0  0  0  0  0  0  0  0
   61.4250   33.3450   48.3480 C   0  0  0  0  0  0  0  0  0  0  0  0
   58.5490   32.4140   46.6490 C   0  0  0  0  0  0  0  0  0  0  0  0
   56.8565   29.4721   44.1332 H   0  0  0  0  0  0  0  0  0  0  0  0
   56.0890   30.9214   43.4003 H   0  0  0  0  0  0  0  0  0  0  0  0
   57.8776   30.7554   43.4003 H   0  0  0  0  0  0  0  0  0  0  0  0
   57.2327   33.4381   43.6633 H   0  0  0  0  0  0  0  0  0  0  0  0
   58.6093   35.4450   44.2055 H   0  0  0  0  0  0  0  0  0  0  0  0
   59.9492   35.5165   46.3047 H   0  0  0  0  0  0  0  0  0  0  0  0
   58.5950   34.1469   49.6133 H   0  0  0  0  0  0  0  0  0  0  0  0
   60.5140   34.0310   51.3700 H   0  0  0  0  0  0  0  0  0  0  0  0
   63.2312   33.4639   51.2405 H   0  0  0  0  0  0  0  0  0  0  0  0
   64.5390   32.6501   47.1613 H   0  0  0  0  0  0  0  0  0  0  0  0
   62.1761   32.9621   46.3378 H   0  0  0  0  0  0  0  0  0  0  0  0
   58.5244   31.5628   47.3454 H   0  0  0  0  0  0  0  0  0  0  0  0
  1  2  1  0
  2  3  1  0
  3  4  2  0
  4  5  1  0
  5  6  2  0
  6  7  1  0
  7  8  1  0
  8  9  1  0
  9 10  2  0
 10 11  1  0
 11 12  2  0
 12 13  1  0
 13 14  1  0
 14 15  3  0
 13 16  2  0
 16 17  1  0
 17 18  2  0
  7 19  2  0
 19  3  1  0
 18  8  1  0
 18 11  1  0
  1 20  1  0
  1 21  1  0
  1 22  1  0
  4 23  1  0
  5 24  1  0
  6 25  1  0
  9 26  1  0
 10 27  1  0
 12 28  1  0
 16 29  1  0
 17 30  1  0
 19 31  1  0
M  CHG  1  10   1
M  END
>  <UniqueID>  (20) 
18

>  <SMILES>  (20) 
COc1cccc(-n2c[nH+]c3cc(C#N)ccc32)c1

>  <Energy>  (20) 
76.2716074173807

>  <Genealogy>  (20) 
COc1cccc(-n2c[nH+]c3cc(C#N)ccc32)c1 (protonated)
COc1cccc(-n2c[nH+]c3cc(C#N)ccc32)c1 (3D coordinates assigned)
COc1cccc(-n2c[nH+]c3cc(C#N)ccc32)c1 (optimized conformer: 76.2716074173807 kcal/mol)

>  <smiles>  (20) 
COc1cccc(-n2cnc3cc(C#N)ccc32)c1

>  <score_type>  (20) 
oracle

>  <origin>  (20) 
adg

>  <m_score__min__energy>  (20) 
-5.4299999999999997

>  <m_primary>  (20) 
energy

$$$$
20:0
     RDKit          3D

 45 47  0  0  0  0  0  0  0  0999 V2000
   57.7570   32.3320   41.4940 C   0  0  0  0  0  0  0  0  0  0  0  0
   57.7510   32.0560   42.9680 C   0  0  0  0  0  0  0  0  0  0  0  0
   57.7060   30.7320   43.4280 C   0  0  0  0  0  0  0  0  0  0  0  0
   57.6940   30.4580   44.8030 C   0  0  0  0  0  0  0  0  0  0  0  0
   57.6480   29.0410   45.2920 C   0  0  0  0  0  0  0  0  0  0  0  0
   57.7710   31.5150   45.7200 C   0  0  0  0  0  0  0  0  0  0  0  0
   57.8130   32.8450   45.2720 C   0  0  0  0  0  0  0  0  0  0  0  0
   57.7960   33.9780   46.2660 C   0  0  0  0  0  0  0  0  0  0  0  0
   59.0500   34.0390   47.0340 N   0  0  0  0  0  0  0  0  0  0  0  0
   60.3180   34.3790   46.3670 C   0  0  0  0  0  0  0  0  0  0  0  0
   61.3970   33.3990   46.7460 C   0  0  0  0  0  0  0  0  0  0  0  0
   62.6810   33.8430   47.0940 C   0  0  0  0  0  0  0  0  0  0  0  0
   63.6540   32.9250   47.4920 C   0  0  0  0  0  0  0  0  0  0  0  0
   63.3400   31.5650   47.5240 C   0  0  0  0  0  0  0  0  0  0  0  0
   62.0980   31.1460   47.1630 N   0  0  0  0  0  0  0  0  0  0  0  0
   61.1320   32.0210   46.7740 C   0  0  0  0  0  0  0  0  0  0  0  0
   59.0700   33.5460   48.3870 C   0  0  0  0  0  0  0  0  0  0  0  0
   58.5170   32.2930   48.6870 C   0  0  0  0  0  0  0  0  0  0  0  0
   58.5370   31.8300   50.0030 C   0  0  0  0  0  0  0  0  0  0  0  0
   59.1090   32.6120   51.0050 C   0  0  0  0  0  0  0  0  0  0  0  0
   59.6580   33.8530   50.6720 C   0  0  0  0  0  0  0  0  0  0  0  0
   59.6310   34.2910   49.3840 N   0  0  0  0  0  0  0  0  0  0  0  0
   57.8100   33.1090   43.8940 C   0  0  0  0  0  0  0  0  0  0  0  0
   57.7806   33.4186   41.3245 H   0  0  0  0  0  0  0  0  0  0  0  0
   58.6453   31.8704   41.0381 H   0  0  0  0  0  0  0  0  0  0  0  0
   56.8495   31.9094   41.0381 H   0  0  0  0  0  0  0  0  0  0  0  0
   57.6800   29.9031   42.7054 H   0  0  0  0  0  0  0  0  0  0  0  0
   57.6477   29.0325   46.3920 H   0  0  0  0  0  0  0  0  0  0  0  0
   56.7336   28.5547   44.9214 H   0  0  0  0  0  0  0  0  0  0  0  0
   58.5289   28.4964   44.9214 H   0  0  0  0  0  0  0  0  0  0  0  0
   57.7987   31.3011   46.7986 H   0  0  0  0  0  0  0  0  0  0  0  0
   57.6613   34.9263   45.7251 H   0  0  0  0  0  0  0  0  0  0  0  0
   56.9677   33.8082   46.9696 H   0  0  0  0  0  0  0  0  0  0  0  0
   60.1716   34.3516   45.2771 H   0  0  0  0  0  0  0  0  0  0  0  0
   60.6265   35.3859   46.6849 H   0  0  0  0  0  0  0  0  0  0  0  0
   62.9214   34.9156   47.0532 H   0  0  0  0  0  0  0  0  0  0  0  0
   64.6587   33.2697   47.7778 H   0  0  0  0  0  0  0  0  0  0  0  0
   64.0972   30.8328   47.8412 H   0  0  0  0  0  0  0  0  0  0  0  0
   60.1399   31.6474   46.4804 H   0  0  0  0  0  0  0  0  0  0  0  0
   58.0706   31.6794   47.8906 H   0  0  0  0  0  0  0  0  0  0  0  0
   58.1023   30.8500   50.2492 H   0  0  0  0  0  0  0  0  0  0  0  0
   59.1280   32.2563   52.0457 H   0  0  0  0  0  0  0  0  0  0  0  0
   60.1137   34.4782   51.4540 H   0  0  0  0  0  0  0  0  0  0  0  0
   60.0700   35.2120   49.1630 H   0  0  0  0  0  0  0  0  0  0  0  0
   57.8542   34.1485   43.5369 H   0  0  0  0  0  0  0  0  0  0  0  0
  1  2  1  0
  2  3  2  0
  3  4  1  0
  4  5  1  0
  4  6  2  0
  6  7  1  0
  7  8  1  0
  8  9  1  0
  9 10  1  0
 10 11  1  0
 11 12  2  0
 12 13  1  0
 13 14  2  0
 14 15  1  0
 15 16  2  0
  9 17  1  0
 17 18  2  0
 18 19  1  0
 19 20  2  0
 20 21  1  0
 21 22  2  0
  7 23  2  0
 23  2  1  0
 16 11  1  0
 22 17  1  0
  1 24  1  0
  1 25  1  0
  1 26  1  0
  3 27  1  0
  5 28  1  0
  5 29  1  0
  5 30  1  0
  6 31  1  0
  8 32  1  0
  8 33  1  0
 10 34  1  0
 10 35  1  0
 12 36  1  0
 13 37  1  0
 14 38  1  0
 16 39  1  0
 18 40  1  0
 19 41  1  0
 20 42  1  0
 21 43  1  0
 22 44  1  0
 23 45  1  0
M  CHG  1  22   1
M  END
>  <UniqueID>  (21) 
19

>  <SMILES>  (21) 
Cc1cc(C)cc(CN(Cc2cccnc2)c2cccc[nH+]2)c1

>  <Energy>  (21) 
46.64379950619469

>  <Genealogy>  (21) 
Cc1cc(C)cc(CN(Cc2cccnc2)c2cccc[nH+]2)c1 (protonated)
Cc1cc(C)cc(CN(Cc2cccnc2)c2cccc[nH+]2)c1 (3D coordinates assigned)
Cc1cc(C)cc(CN(Cc2cccnc2)c2cccc[nH+]2)c1 (optimized conformer: 46.64379950619469 kcal/mol)

>  <smiles>  (21) 
Cc1cc(C)cc(CN(Cc2cccnc2)c2ccccn2)c1

>  <score_type>  (21) 
oracle

>  <origin>  (21) 
adg

>  <m_score__min__energy>  (21) 
-6.0099999999999998

>  <m_primary>  (21) 
energy

$$$$
21:0
     RDKit          3D

 36 38  0  0  0  0  0  0  0  0999 V2000
   56.6710   31.5950   41.5400 O   0  0  0  0  0  0  0  0  0  0  0  0
   57.1360   31.2770   42.6680 C   0  0  0  0  0  0  0  0  0  0  0  0
   57.6790   32.2730   43.4840 C   0  0  0  0  0  0  0  0  0  0  0  0
   58.2050   31.9390   44.7380 C   0  0  0  0  0  0  0  0  0  0  0  0
   58.7870   32.9870   45.6160 C   0  0  0  0  0  0  0  0  0  0  0  0
   59.0740   34.2650   45.1070 C   0  0  0  0  0  0  0  0  0  0  0  0
   59.6370   35.2440   45.9270 C   0  0  0  0  0  0  0  0  0  0  0  0
   59.9130   34.9640   47.2670 C   0  0  0  0  0  0  0  0  0  0  0  0
   59.6080   33.7040   47.8070 C   0  0  0  0  0  0  0  0  0  0  0  0
   59.9450   33.3840   49.2430 C   0  0  0  0  0  0  0  0  0  0  0  0
   59.2730   34.2320   50.1060 F   0  0  0  0  0  0  0  0  0  0  0  0
   59.5860   32.0830   49.5490 F   0  0  0  0  0  0  0  0  0  0  0  0
   61.3060   33.5340   49.4340 F   0  0  0  0  0  0  0  0  0  0  0  0
   59.0660   32.7130   46.9680 C   0  0  0  0  0  0  0  0  0  0  0  0
   58.1680   30.6020   45.1490 C   0  0  0  0  0  0  0  0  0  0  0  0
   57.6090   29.6210   44.3140 C   0  0  0  0  0  0  0  0  0  0  0  0
   57.5680   28.2130   44.7800 C   0  0  0  0  0  0  0  0  0  0  0  0
   58.0930   27.1840   43.9790 C   0  0  0  0  0  0  0  0  0  0  0  0
   58.0630   25.8580   44.4240 C   0  0  0  0  0  0  0  0  0  0  0  0
   57.5150   25.5510   45.6720 C   0  0  0  0  0  0  0  0  0  0  0  0
   56.9970   26.5680   46.4780 C   0  0  0  0  0  0  0  0  0  0  0  0
   57.0240   27.8950   46.0370 C   0  0  0  0  0  0  0  0  0  0  0  0
   57.1100   29.9730   43.0860 N   0  0  0  0  0  0  0  0  0  0  0  0
   56.6140   28.9880   42.2520 O   0  0  0  0  0  0  0  0  0  0  0  0
   57.6932   33.3183   43.1416 H   0  0  0  0  0  0  0  0  0  0  0  0
   58.8533   34.4955   44.0543 H   0  0  0  0  0  0  0  0  0  0  0  0
   59.8640   36.2390   45.5166 H   0  0  0  0  0  0  0  0  0  0  0  0
   60.3720   35.7350   47.9033 H   0  0  0  0  0  0  0  0  0  0  0  0
   58.8578   31.7120   47.3737 H   0  0  0  0  0  0  0  0  0  0  0  0
   58.5782   30.3184   46.1295 H   0  0  0  0  0  0  0  0  0  0  0  0
   58.5294   27.4225   42.9978 H   0  0  0  0  0  0  0  0  0  0  0  0
   58.4712   25.0565   43.7908 H   0  0  0  0  0  0  0  0  0  0  0  0
   57.4913   24.5079   46.0203 H   0  0  0  0  0  0  0  0  0  0  0  0
   56.5673   26.3246   47.4609 H   0  0  0  0  0  0  0  0  0  0  0  0
   56.6181   28.6930   46.6760 H   0  0  0  0  0  0  0  0  0  0  0  0
   55.8750   29.1670   41.5820 H   0  0  0  0  0  0  0  0  0  0  0  0
  1  2  2  0
  2  3  1  0
  3  4  2  0
  4  5  1  0
  5  6  2  0
  6  7  1  0
  7  8  2  0
  8  9  1  0
  9 10  1  0
 10 11  1  0
 10 12  1  0
 10 13  1  0
  9 14  2  0
  4 15  1  0
 15 16  2  0
 16 17  1  0
 17 18  2  0
 18 19  1  0
 19 20  2  0
 20 21  1  0
 21 22  2  0
 16 23  1  0
 23 24  1  0
 23  2  1  0
 14  5  1  0
 22 17  1  0
  3 25  1  0
  6 26  1  0
  7 27  1  0
  8 28  1  0
 14 29  1  0
 15 30  1  0
 18 31  1  0
 19 32  1  0
 20 33  1  0
 21 34  1  0
 22 35  1  0
 24 36  1  0
M  END
>  <UniqueID>  (22) 
20

>  <SMILES>  (22) 
O=c1cc(-c2cccc(C(F)(F)F)c2)cc(-c2ccccc2)n1O

>  <Energy>  (22) 
52.89678028034331

>  <Genealogy>  (22) 
O=c1cc(-c2cccc(C(F)(F)F)c2)cc(-c2ccccc2)n1O (3D coordinates assigned)
O=c1cc(-c2cccc(C(F)(F)F)c2)cc(-c2ccccc2)n1O (optimized conformer: 52.89678028034331 kcal/mol)

>  <smiles>  (22) 
O=c1cc(-c2cccc(C(F)(F)F)c2)cc(-c2ccccc2)n1O

>  <score_type>  (22) 
oracle

>  <origin>  (22) 
adg

>  <m_score__min__energy>  (22) 
-7.3799999999999999

>  <m_primary>  (22) 
energy

$$$$
22:0
     RDKit          3D

 39 39  0  0  0  0  0  0  0  0999 V2000
   59.2070   30.0610   45.2950 C   0  0  0  0  0  0  0  0  0  0  0  0
   57.7570   29.7560   45.6620 C   0  0  0  0  0  0  0  0  0  0  0  0
   56.8100   30.5970   44.8870 N   0  0  0  0  0  0  0  0  0  0  0  0
   55.8630   29.7450   44.1290 C   0  0  0  0  0  0  0  0  0  0  0  0
   56.2760   29.6720   42.6610 C   0  0  0  0  0  0  0  0  0  0  0  0
   57.5180   31.5690   44.0110 C   0  0  0  0  0  0  0  0  0  0  0  0
   57.3790   32.9980   44.5680 C   0  0  0  0  0  0  0  0  0  0  0  0
   57.0230   33.0330   45.9990 N   0  0  0  0  0  0  0  0  0  0  0  0
   58.1610   33.3240   46.8430 C   0  0  0  0  0  0  0  0  0  0  0  0
   59.1800   34.1770   46.3930 C   0  0  0  0  0  0  0  0  0  0  0  0
   60.2780   34.4570   47.2070 C   0  0  0  0  0  0  0  0  0  0  0  0
   60.3730   33.9020   48.4880 C   0  0  0  0  0  0  0  0  0  0  0  0
   61.5300   34.2230   49.2900 C   0  0  0  0  0  0  0  0  0  0  0  0
   62.4570   34.4800   49.9340 N   0  0  0  0  0  0  0  0  0  0  0  0
   59.3470   33.0580   48.9730 C   0  0  0  0  0  0  0  0  0  0  0  0
   59.4240   32.4580   50.3620 C   0  0  0  0  0  0  0  0  0  0  0  0
   58.2930   31.7010   50.6050 F   0  0  0  0  0  0  0  0  0  0  0  0
   59.5120   33.4320   51.3430 F   0  0  0  0  0  0  0  0  0  0  0  0
   60.5410   31.6460   50.4550 F   0  0  0  0  0  0  0  0  0  0  0  0
   58.2430   32.7850   48.1400 C   0  0  0  0  0  0  0  0  0  0  0  0
   59.7993   30.1856   46.2135 H   0  0  0  0  0  0  0  0  0  0  0  0
   59.6182   29.2297   44.7035 H   0  0  0  0  0  0  0  0  0  0  0  0
   59.2484   30.9875   44.7035 H   0  0  0  0  0  0  0  0  0  0  0  0
   57.5500   28.6967   45.4498 H   0  0  0  0  0  0  0  0  0  0  0  0
   57.6183   29.9762   46.7308 H   0  0  0  0  0  0  0  0  0  0  0  0
   55.8636   28.7317   44.5572 H   0  0  0  0  0  0  0  0  0  0  0  0
   54.8555   30.1814   44.1965 H   0  0  0  0  0  0  0  0  0  0  0  0
   57.3572   29.4809   42.5933 H   0  0  0  0  0  0  0  0  0  0  0  0
   55.7279   28.8568   42.1660 H   0  0  0  0  0  0  0  0  0  0  0  0
   56.0405   30.6257   42.1660 H   0  0  0  0  0  0  0  0  0  0  0  0
   58.5839   31.3019   43.9614 H   0  0  0  0  0  0  0  0  0  0  0  0
   57.0710   31.5337   43.0065 H   0  0  0  0  0  0  0  0  0  0  0  0
   58.3378   33.5202   44.4336 H   0  0  0  0  0  0  0  0  0  0  0  0
   56.5616   33.4853   44.0163 H   0  0  0  0  0  0  0  0  0  0  0  0
   56.2520   33.7230   46.1550 H   0  0  0  0  0  0  0  0  0  0  0  0
   56.6500   32.0930   46.2700 H   0  0  0  0  0  0  0  0  0  0  0  0
   59.1128   34.6279   45.3919 H   0  0  0  0  0  0  0  0  0  0  0  0
   61.0753   35.1193   46.8388 H   0  0  0  0  0  0  0  0  0  0  0  0
   57.4324   32.1400   48.5101 H   0  0  0  0  0  0  0  0  0  0  0  0
  1  2  1  0
  2  3  1  0
  3  4  1  0
  4  5  1  0
  3  6  1  0
  6  7  1  0
  7  8  1  0
  8  9  1  0
  9 10  2  0
 10 11  1  0
 11 12  2  0
 12 13  1  0
 13 14  3  0
 12 15  1  0
 15 16  1  0
 16 17  1  0
 16 18  1  0
 16 19  1  0
 15 20  2  0
 20  9  1  0
  1 21  1  0
  1 22  1  0
  1 23  1  0
  2 24  1  0
  2 25  1  0
  4 26  1  0
  4 27  1  0
  5 28  1  0
  5 29  1  0
  5 30  1  0
  6 31  1  0
  6 32  1  0
  7 33  1  0
  7 34  1  0
  8 35  1  0
  8 36  1  0
 10 37  1  0
 11 38  1  0
 20 39  1  0
M  CHG  1   8   1
M  END
>  <UniqueID>  (23) 
21

>  <SMILES>  (23) 
CCN(CC)CC[NH2+]c1ccc(C#N)c(C(F)(F)F)c1

>  <Energy>  (23) 
39.43389186979027

>  <Genealogy>  (23) 
CCN(CC)CC[NH2+]c1ccc(C#N)c(C(F)(F)F)c1 (protonated)
CCN(CC)CC[NH2+]c1ccc(C#N)c(C(F)(F)F)c1 (3D coordinates assigned)
CCN(CC)CC[NH2+]c1ccc(C#N)c(C(F)(F)F)c1 (optimized conformer: 39.43389186979027 kcal/mol)

>  <smiles>  (23) 
CCN(CC)CCNc1ccc(C#N)c(C(F)(F)F)c1

>  <score_type>  (23) 
oracle

>  <origin>  (23) 
adg

>  <m_score__min__energy>  (23) 
-3.6499999999999999

>  <m_primary>  (23) 
energy

$$$$
23:0
     RDKit          3D

 34 35  0  0  0  0  0  0  0  0999 V2000
   58.9350   31.0350   48.4810 C   0  0  0  0  0  0  0  0  0  0  0  0
   58.5210   31.3520   47.1550 O   0  0  0  0  0  0  0  0  0  0  0  0
   58.7300   32.5920   46.5300 C   0  0  0  0  0  0  0  0  0  0  0  0
   59.1520   33.7260   47.2510 C   0  0  0  0  0  0  0  0  0  0  0  0
   59.3660   34.9420   46.5960 C   0  0  0  0  0  0  0  0  0  0  0  0
   59.1680   35.0390   45.2180 C   0  0  0  0  0  0  0  0  0  0  0  0
   58.7500   33.9240   44.4910 C   0  0  0  0  0  0  0  0  0  0  0  0
   58.5140   32.6990   45.1380 C   0  0  0  0  0  0  0  0  0  0  0  0
   58.0920   31.4990   44.3340 C   0  0  0  0  0  0  0  0  0  0  0  0
   56.9100   30.8830   44.9510 N   0  0  0  0  0  0  0  0  0  0  0  0
   56.7170   29.4950   44.5050 C   0  0  0  0  0  0  0  0  0  0  0  0
   57.7530   28.5650   45.0890 C   0  0  0  0  0  0  0  0  0  0  0  0
   57.7550   27.2030   44.7480 C   0  0  0  0  0  0  0  0  0  0  0  0
   58.7370   26.3650   45.2770 C   0  0  0  0  0  0  0  0  0  0  0  0
   59.7050   26.8860   46.1360 C   0  0  0  0  0  0  0  0  0  0  0  0
   59.6790   28.2450   46.4510 C   0  0  0  0  0  0  0  0  0  0  0  0
   58.7160   29.0520   45.9260 N   0  0  0  0  0  0  0  0  0  0  0  0
   58.2752   31.5402   49.2018 H   0  0  0  0  0  0  0  0  0  0  0  0
   58.8787   29.9469   48.6325 H   0  0  0  0  0  0  0  0  0  0  0  0
   59.9707   31.3732   48.6325 H   0  0  0  0  0  0  0  0  0  0  0  0
   59.3142   33.6541   48.3366 H   0  0  0  0  0  0  0  0  0  0  0  0
   59.6910   35.8239   47.1675 H   0  0  0  0  0  0  0  0  0  0  0  0
   59.3418   35.9960   44.7042 H   0  0  0  0  0  0  0  0  0  0  0  0
   58.6041   34.0043   43.4037 H   0  0  0  0  0  0  0  0  0  0  0  0
   57.8478   31.8130   43.3084 H   0  0  0  0  0  0  0  0  0  0  0  0
   58.9139   30.7683   44.3097 H   0  0  0  0  0  0  0  0  0  0  0  0
   57.0230   30.8990   45.9920 H   0  0  0  0  0  0  0  0  0  0  0  0
   55.7185   29.1566   44.8188 H   0  0  0  0  0  0  0  0  0  0  0  0
   56.8183   29.4724   43.4099 H   0  0  0  0  0  0  0  0  0  0  0  0
   56.9887   26.8000   44.0694 H   0  0  0  0  0  0  0  0  0  0  0  0
   58.7480   25.2961   45.0174 H   0  0  0  0  0  0  0  0  0  0  0  0
   60.4809   26.2320   46.5607 H   0  0  0  0  0  0  0  0  0  0  0  0
   60.4390   28.6659   47.1257 H   0  0  0  0  0  0  0  0  0  0  0  0
   58.7230   30.0670   46.1760 H   0  0  0  0  0  0  0  0  0  0  0  0
  1  2  1  0
  2  3  1  0
  3  4  2  0
  4  5  1  0
  5  6  2  0
  6  7  1  0
  7  8  2  0
  8  9  1  0
  9 10  1  0
 10 11  1  0
 11 12  1  0
 12 13  2  0
 13 14  1  0
 14 15  2  0
 15 16  1  0
 16 17  2  0
  8  3  1  0
 17 12  1  0
  1 18  1  0
  1 19  1  0
  1 20  1  0
  4 21  1  0
  5 22  1  0
  6 23  1  0
  7 24  1  0
  9 25  1  0
  9 26  1  0
 10 27  1  0
 11 28  1  0
 11 29  1  0
 13 30  1  0
 14 31  1  0
 15 32  1  0
 16 33  1  0
 17 34  1  0
M  CHG  1  17   1
M  END
>  <UniqueID>  (24) 
22

>  <SMILES>  (24) 
COc1ccccc1CNCc1cccc[nH+]1

>  <Energy>  (24) 
32.993568782651415

>  <Genealogy>  (24) 
COc1ccccc1CNCc1cccc[nH+]1 (protonated)
COc1ccccc1CNCc1cccc[nH+]1 (3D coordinates assigned)
COc1ccccc1CNCc1cccc[nH+]1 (optimized conformer: 32.993568782651415 kcal/mol)

>  <smiles>  (24) 
COc1ccccc1CNCc1ccccn1

>  <score_type>  (24) 
oracle

>  <origin>  (24) 
adg

>  <m_score__min__energy>  (24) 
-4.9800000000000004

>  <m_primary>  (24) 
energy

$$$$
24:0
     RDKit          3D

 52 56  0  0  0  0  0  0  0  0999 V2000
   51.7930   20.9810   46.4160 C   0  0  0  0  0  0  0  0  0  0  0  0
   52.5310   22.2660   46.1910 C   0  0  0  0  0  0  0  0  0  0  0  0
   51.9240   23.3310   45.4770 C   0  0  0  0  0  0  0  0  0  0  0  0
   52.6260   24.5300   45.2470 C   0  0  0  0  0  0  0  0  0  0  0  0
   53.9260   24.6220   45.7340 C   0  0  0  0  0  0  0  0  0  0  0  0
   54.7710   25.6580   45.6280 N   0  0  0  0  0  0  0  0  0  0  0  0
   55.8830   25.2040   46.2680 C   0  0  0  0  0  0  0  0  0  0  0  0
   57.1150   26.0110   46.4130 C   0  0  0  0  0  0  0  0  0  0  0  0
   58.3080   25.4150   46.8550 C   0  0  0  0  0  0  0  0  0  0  0  0
   59.4680   26.1770   46.9960 C   0  0  0  0  0  0  0  0  0  0  0  0
   59.4550   27.5410   46.6980 C   0  0  0  0  0  0  0  0  0  0  0  0
   58.2740   28.1610   46.2530 C   0  0  0  0  0  0  0  0  0  0  0  0
   58.2570   29.6110   45.9360 C   0  0  0  0  0  0  0  0  0  0  0  0
   57.9440   30.0560   44.6390 C   0  0  0  0  0  0  0  0  0  0  0  0
   57.9270   31.4230   44.3420 C   0  0  0  0  0  0  0  0  0  0  0  0
   58.2040   32.3690   45.3440 C   0  0  0  0  0  0  0  0  0  0  0  0
   58.2040   33.7780   45.0710 N   0  0  0  0  0  0  0  0  0  0  0  0
   59.2240   34.7120   45.4480 C   0  0  0  0  0  0  0  0  0  0  0  0
   59.2730   35.8240   44.8570 O   0  0  0  0  0  0  0  0  0  0  0  0
   60.2460   34.4000   46.4690 C   0  0  0  0  0  0  0  0  0  0  0  0
   60.0080   34.5970   47.8380 C   0  0  0  0  0  0  0  0  0  0  0  0
   60.9750   34.2860   48.7420 N   0  0  0  0  0  0  0  0  0  0  0  0
   62.1780   33.7830   48.3440 C   0  0  0  0  0  0  0  0  0  0  0  0
   63.2190   33.4080   49.3560 C   0  0  0  0  0  0  0  0  0  0  0  0
   62.4020   33.5510   46.9810 C   0  0  0  0  0  0  0  0  0  0  0  0
   61.4340   33.8640   46.0810 N   0  0  0  0  0  0  0  0  0  0  0  0
   58.5380   31.9280   46.6290 C   0  0  0  0  0  0  0  0  0  0  0  0
   58.5600   30.5630   46.9270 C   0  0  0  0  0  0  0  0  0  0  0  0
   57.1070   27.3860   46.1130 C   0  0  0  0  0  0  0  0  0  0  0  0
   55.7650   23.9410   46.7620 N   0  0  0  0  0  0  0  0  0  0  0  0
   54.5170   23.6010   46.4090 C   0  0  0  0  0  0  0  0  0  0  0  0
   53.8580   22.4000   46.6580 C   0  0  0  0  0  0  0  0  0  0  0  0
   51.6900   20.8017   47.4964 H   0  0  0  0  0  0  0  0  0  0  0  0
   50.7949   21.0464   45.9584 H   0  0  0  0  0  0  0  0  0  0  0  0
   52.3525   20.1518   45.9584 H   0  0  0  0  0  0  0  0  0  0  0  0
   50.8967   23.2194   45.1000 H   0  0  0  0  0  0  0  0  0  0  0  0
   52.1625   25.3650   44.7011 H   0  0  0  0  0  0  0  0  0  0  0  0
   58.3275   24.3409   47.0914 H   0  0  0  0  0  0  0  0  0  0  0  0
   60.3969   25.7012   47.3434 H   0  0  0  0  0  0  0  0  0  0  0  0
   60.3743   28.1342   46.8121 H   0  0  0  0  0  0  0  0  0  0  0  0
   57.7108   29.3236   43.8521 H   0  0  0  0  0  0  0  0  0  0  0  0
   57.6959   31.7588   43.3203 H   0  0  0  0  0  0  0  0  0  0  0  0
   59.0432   35.0013   48.1783 H   0  0  0  0  0  0  0  0  0  0  0  0
   60.7810   34.4340   49.7580 H   0  0  0  0  0  0  0  0  0  0  0  0
   62.8150   33.5535   50.3687 H   0  0  0  0  0  0  0  0  0  0  0  0
   63.4984   32.3527   49.2208 H   0  0  0  0  0  0  0  0  0  0  0  0
   64.1072   34.0427   49.2208 H   0  0  0  0  0  0  0  0  0  0  0  0
   63.3549   33.1185   46.6419 H   0  0  0  0  0  0  0  0  0  0  0  0
   58.7852   32.6614   47.4107 H   0  0  0  0  0  0  0  0  0  0  0  0
   58.8161   30.2302   47.9437 H   0  0  0  0  0  0  0  0  0  0  0  0
   56.1778   27.8609   45.7650 H   0  0  0  0  0  0  0  0  0  0  0  0
   54.3543   21.5819   47.2007 H   0  0  0  0  0  0  0  0  0  0  0  0
  1  2  1  0
  2  3  2  0
  3  4  1  0
  4  5  2  0
  5  6  1  0
  6  7  1  0
  7  8  1  0
  8  9  2  0
  9 10  1  0
 10 11  2  0
 11 12  1  0
 12 13  1  0
 13 14  2  0
 14 15  1  0
 15 16  2  0
 16 17  1  0
 17 18  1  0
 18 19  2  0
 18 20  1  0
 20 21  2  0
 21 22  1  0
 22 23  2  0
 23 24  1  0
 23 25  1  0
 25 26  2  0
 16 27  1  0
 27 28  2  0
 12 29  2  0
  7 30  2  0
 30 31  1  0
 31 32  2  0
 32  2  1  0
 31  5  1  0
 29  8  1  0
 28 13  1  0
 26 20  1  0
  1 33  1  0
  1 34  1  0
  1 35  1  0
  3 36  1  0
  4 37  1  0
  9 38  1  0
 10 39  1  0
 11 40  1  0
 14 41  1  0
 15 42  1  0
 21 43  1  0
 22 44  1  0
 24 45  1  0
 24 46  1  0
 24 47  1  0
 25 48  1  0
 27 49  1  0
 28 50  1  0
 29 51  1  0
 32 52  1  0
M  CHG  3   6  -1  17  -1  22   1
M  END
>  <UniqueID>  (25) 
23

>  <SMILES>  (25) 
Cc1ccc2[n-]c(-c3cccc(-c4ccc([N-]C(=O)c5c[nH+]c(C)cn5)cc4)c3)nc2c1

>  <Energy>  (25) 
104.97245897690583

>  <Genealogy>  (25) 
Cc1ccc2[n-]c(-c3cccc(-c4ccc([N-]C(=O)c5c[nH+]c(C)cn5)cc4)c3)nc2c1 (protonated)
Cc1ccc2[n-]c(-c3cccc(-c4ccc([N-]C(=O)c5c[nH+]c(C)cn5)cc4)c3)nc2c1 (3D coordinates assigned)
Cc1ccc2[n-]c(-c3cccc(-c4ccc([N-]C(=O)c5c[nH+]c(C)cn5)cc4)c3)nc2c1 (optimized conformer: 104.97245897690583 kcal/mol)

>  <smiles>  (25) 
Cc1ccc2[nH]c(-c3cccc(-c4ccc(NC(=O)c5cnc(C)cn5)cc4)c3)nc2c1

>  <score_type>  (25) 
oracle

>  <origin>  (25) 
adg

>  <m_score__min__energy>  (25) 
-10.140000000000001

>  <m_primary>  (25) 
energy

$$$$
25:0
     RDKit          3D

 42 44  0  0  0  0  0  0  0  0999 V2000
   57.0410   24.2620   43.8020 C   0  0  0  0  0  0  0  0  0  0  0  0
   57.7760   25.3340   44.5990 C   0  0  0  0  0  0  0  0  0  0  0  0
   57.6930   26.6310   43.9250 N   0  0  0  0  0  0  0  0  0  0  0  0
   58.2300   27.8630   44.4510 C   0  0  0  0  0  0  0  0  0  0  0  0
   59.2520   27.8780   45.4280 C   0  0  0  0  0  0  0  0  0  0  0  0
   59.7470   29.0950   45.9250 C   0  0  0  0  0  0  0  0  0  0  0  0
   59.2270   30.3090   45.4640 C   0  0  0  0  0  0  0  0  0  0  0  0
   58.2110   30.2880   44.5070 C   0  0  0  0  0  0  0  0  0  0  0  0
   57.7300   29.1010   44.0080 C   0  0  0  0  0  0  0  0  0  0  0  0
   56.6720   29.3310   42.9920 C   0  0  0  0  0  0  0  0  0  0  0  0
   56.6650   30.8560   42.7910 C   0  0  0  0  0  0  0  0  0  0  0  0
   57.5310   31.4720   43.9080 C   0  0  1  0  0  0  0  0  0  0  0  0
   56.6650   32.1600   44.8920 N   0  0  0  0  0  0  0  0  0  0  0  0
   57.0130   33.5760   45.0710 C   0  0  0  0  0  0  0  0  0  0  0  0
   58.1780   33.7500   46.0160 C   0  0  0  0  0  0  0  0  0  0  0  0
   58.1450   33.1600   47.2910 C   0  0  0  0  0  0  0  0  0  0  0  0
   59.2360   33.2910   48.1560 C   0  0  0  0  0  0  0  0  0  0  0  0
   60.3660   34.0090   47.7560 C   0  0  0  0  0  0  0  0  0  0  0  0
   60.4060   34.6000   46.4900 C   0  0  0  0  0  0  0  0  0  0  0  0
   59.3170   34.4730   45.6220 C   0  0  0  0  0  0  0  0  0  0  0  0
   56.5577   23.5571   44.4944 H   0  0  0  0  0  0  0  0  0  0  0  0
   56.2768   24.7356   43.1683 H   0  0  0  0  0  0  0  0  0  0  0  0
   57.7583   23.7199   43.1683 H   0  0  0  0  0  0  0  0  0  0  0  0
   57.3214   25.4165   45.5973 H   0  0  0  0  0  0  0  0  0  0  0  0
   58.8346   25.0473   44.6831 H   0  0  0  0  0  0  0  0  0  0  0  0
   57.2000   26.6490   43.0040 H   0  0  0  0  0  0  0  0  0  0  0  0
   59.6629   26.9287   45.8020 H   0  0  0  0  0  0  0  0  0  0  0  0
   60.5470   29.0934   46.6800 H   0  0  0  0  0  0  0  0  0  0  0  0
   59.6124   31.2645   45.8493 H   0  0  0  0  0  0  0  0  0  0  0  0
   56.9157   28.8149   42.0516 H   0  0  0  0  0  0  0  0  0  0  0  0
   55.6925   28.9439   43.3094 H   0  0  0  0  0  0  0  0  0  0  0  0
   57.0865   31.1075   41.8066 H   0  0  0  0  0  0  0  0  0  0  0  0
   55.6384   31.2488   42.8340 H   0  0  0  0  0  0  0  0  0  0  0  0
   58.2472   32.2279   43.5534 H   0  0  0  0  0  0  0  0  0  0  0  0
   56.6550   31.6770   45.8220 H   0  0  0  0  0  0  0  0  0  0  0  0
   57.2801   34.0037   44.0934 H   0  0  0  0  0  0  0  0  0  0  0  0
   56.1420   34.0912   45.5022 H   0  0  0  0  0  0  0  0  0  0  0  0
   57.2579   32.5931   47.6098 H   0  0  0  0  0  0  0  0  0  0  0  0
   59.2045   32.8279   49.1533 H   0  0  0  0  0  0  0  0  0  0  0  0
   61.2238   34.1091   48.4372 H   0  0  0  0  0  0  0  0  0  0  0  0
   61.2955   35.1659   46.1760 H   0  0  0  0  0  0  0  0  0  0  0  0
   59.3520   34.9408   44.6270 H   0  0  0  0  0  0  0  0  0  0  0  0
  1  2  1  0
  2  3  1  0
  3  4  1  0
  4  5  2  0
  5  6  1  0
  6  7  2  0
  7  8  1  0
  8  9  2  0
  9 10  1  0
 10 11  1  0
 11 12  1  0
 12 13  1  0
 13 14  1  0
 14 15  1  0
 15 16  2  0
 16 17  1  0
 17 18  2  0
 18 19  1  0
 19 20  2  0
  9  4  1  0
 20 15  1  0
 12  8  1  0
  1 21  1  0
  1 22  1  0
  1 23  1  0
  2 24  1  0
  2 25  1  0
  3 26  1  0
  5 27  1  0
  6 28  1  0
  7 29  1  0
 10 30  1  0
 10 31  1  0
 11 32  1  0
 11 33  1  0
 12 34  1  6
 13 35  1  0
 14 36  1  0
 14 37  1  0
 16 38  1  0
 17 39  1  0
 18 40  1  0
 19 41  1  0
 20 42  1  0
M  END
>  <UniqueID>  (26) 
24

>  <SMILES>  (26) 
CCNc1cccc2c1CC[C@H]2NCc1ccccc1

>  <Energy>  (26) 
50.29222239998415

>  <Genealogy>  (26) 
CCNc1cccc2c1CC[C@H]2NCc1ccccc1 (chirality)
CCNc1cccc2c1CC[C@H]2NCc1ccccc1 (3D coordinates assigned)
CCNc1cccc2c1CC[C@H]2NCc1ccccc1 (nonaromatic ring conformer: 50.29222239998415 kcal/mol)

>  <smiles>  (26) 
CCNc1cccc2c1CCC2NCc1ccccc1

>  <score_type>  (26) 
oracle

>  <origin>  (26) 
adg

>  <m_score__min__energy>  (26) 
-7.8399999999999999

>  <m_primary>  (26) 
energy

$$$$
26:0
     RDKit          3D

 66 69  0  0  0  0  0  0  0  0999 V2000
   58.9550   29.1250   47.9200 C   0  0  0  0  0  0  0  0  0  0  0  0
   59.5460   27.7180   48.0360 C   0  0  0  0  0  0  0  0  0  0  0  0
   59.1670   26.8130   46.9280 N   0  0  0  0  0  0  0  0  0  0  0  0
   57.7320   26.4470   46.8690 C   0  0  0  0  0  0  0  0  0  0  0  0
   57.0270   26.9900   45.6210 C   0  0  0  0  0  0  0  0  0  0  0  0
   57.6260   28.2800   45.2440 N   0  0  0  0  0  0  0  0  0  0  0  0
   56.8040   28.9900   44.2450 C   0  0  0  0  0  0  0  0  0  0  0  0
   57.3260   30.3870   44.0450 C   0  0  0  0  0  0  0  0  0  0  0  0
   57.2920   30.9880   42.7770 C   0  0  0  0  0  0  0  0  0  0  0  0
   57.7280   32.3040   42.6120 C   0  0  0  0  0  0  0  0  0  0  0  0
   58.1930   33.0340   43.7100 C   0  0  0  0  0  0  0  0  0  0  0  0
   58.2260   32.4510   44.9870 C   0  0  0  0  0  0  0  0  0  0  0  0
   58.7320   33.2180   46.1500 C   0  0  0  0  0  0  0  0  0  0  0  0
   58.7140   32.6330   47.4270 C   0  0  0  0  0  0  0  0  0  0  0  0
   59.1950   33.3290   48.5440 C   0  0  0  0  0  0  0  0  0  0  0  0
   59.1810   32.6700   49.8960 C   0  0  0  0  0  0  0  0  0  0  0  0
   59.9210   31.4020   49.8450 N   0  0  0  0  0  0  0  0  0  0  0  0
   60.9420   31.3270   50.9050 C   0  0  0  0  0  0  0  0  0  0  0  0
   61.9410   32.4810   50.7690 C   0  0  0  0  0  0  0  0  0  0  0  0
   62.4330   32.6250   49.3530 C   0  0  0  0  0  0  0  0  0  0  0  0
   63.1800   33.7490   48.9760 C   0  0  0  0  0  0  0  0  0  0  0  0
   63.6930   33.8300   47.6820 C   0  0  0  0  0  0  0  0  0  0  0  0
   63.4630   32.7920   46.7780 C   0  0  0  0  0  0  0  0  0  0  0  0
   62.7070   31.6910   47.1800 C   0  0  0  0  0  0  0  0  0  0  0  0
   62.2110   31.6260   48.4470 N   0  0  0  0  0  0  0  0  0  0  0  0
   59.6870   34.6310   48.3800 C   0  0  0  0  0  0  0  0  0  0  0  0
   59.7060   35.2240   47.1150 C   0  0  0  0  0  0  0  0  0  0  0  0
   59.2330   34.5250   46.0020 C   0  0  0  0  0  0  0  0  0  0  0  0
   59.2330   35.1370   44.7920 F   0  0  0  0  0  0  0  0  0  0  0  0
   57.7940   31.1230   45.1450 C   0  0  0  0  0  0  0  0  0  0  0  0
   58.9970   28.0680   44.7380 C   0  0  0  0  0  0  0  0  0  0  0  0
   59.8090   27.0990   45.6270 C   0  0  0  0  0  0  0  0  0  0  0  0
   58.7830   29.5346   48.9263 H   0  0  0  0  0  0  0  0  0  0  0  0
   59.6567   29.7737   47.3752 H   0  0  0  0  0  0  0  0  0  0  0  0
   58.0006   29.0780   47.3752 H   0  0  0  0  0  0  0  0  0  0  0  0
   60.6425   27.8037   48.0530 H   0  0  0  0  0  0  0  0  0  0  0  0
   59.1413   27.2778   48.9593 H   0  0  0  0  0  0  0  0  0  0  0  0
   57.6496   25.3501   46.8690 H   0  0  0  0  0  0  0  0  0  0  0  0
   57.2415   26.8952   47.7456 H   0  0  0  0  0  0  0  0  0  0  0  0
   57.1439   26.2751   44.7932 H   0  0  0  0  0  0  0  0  0  0  0  0
   55.9571   27.1301   45.8349 H   0  0  0  0  0  0  0  0  0  0  0  0
   56.8429   28.4467   43.2893 H   0  0  0  0  0  0  0  0  0  0  0  0
   55.7655   29.0415   44.6040 H   0  0  0  0  0  0  0  0  0  0  0  0
   56.9208   30.4205   41.9109 H   0  0  0  0  0  0  0  0  0  0  0  0
   57.7056   32.7680   41.6149 H   0  0  0  0  0  0  0  0  0  0  0  0
   58.5348   34.0705   43.5728 H   0  0  0  0  0  0  0  0  0  0  0  0
   58.3169   31.6148   47.5518 H   0  0  0  0  0  0  0  0  0  0  0  0
   59.6531   33.3379   50.6316 H   0  0  0  0  0  0  0  0  0  0  0  0
   58.1399   32.4688   50.1886 H   0  0  0  0  0  0  0  0  0  0  0  0
   59.2300   30.6280   49.9940 H   0  0  0  0  0  0  0  0  0  0  0  0
   60.4499   31.3878   51.8869 H   0  0  0  0  0  0  0  0  0  0  0  0
   61.4835   30.3741   50.8112 H   0  0  0  0  0  0  0  0  0  0  0  0
   61.4489   33.4167   51.0727 H   0  0  0  0  0  0  0  0  0  0  0  0
   62.8060   32.2647   51.4132 H   0  0  0  0  0  0  0  0  0  0  0  0
   63.3603   34.5613   49.6955 H   0  0  0  0  0  0  0  0  0  0  0  0
   64.2774   34.7097   47.3745 H   0  0  0  0  0  0  0  0  0  0  0  0
   63.8738   32.8416   45.7588 H   0  0  0  0  0  0  0  0  0  0  0  0
   62.5107   30.8726   46.4717 H   0  0  0  0  0  0  0  0  0  0  0  0
   61.6610   30.7870   48.7270 H   0  0  0  0  0  0  0  0  0  0  0  0
   60.0601   35.1889   49.2516 H   0  0  0  0  0  0  0  0  0  0  0  0
   60.0952   36.2458   46.9951 H   0  0  0  0  0  0  0  0  0  0  0  0
   57.8229   30.6557   46.1404 H   0  0  0  0  0  0  0  0  0  0  0  0
   58.9381   27.6503   43.7221 H   0  0  0  0  0  0  0  0  0  0  0  0
   59.5113   29.0403   44.7444 H   0  0  0  0  0  0  0  0  0  0  0  0
   59.9336   26.1503   45.0843 H   0  0  0  0  0  0  0  0  0  0  0  0
   60.7714   27.5867   45.8416 H   0  0  0  0  0  0  0  0  0  0  0  0
  1  2  1  0
  2  3  1  0
  3  4  1  0
  4  5  1  0
  5  6  1  0
  6  7  1  0
  7  8  1  0
  8  9  2  0
  9 10  1  0
 10 11  2  0
 11 12  1  0
 12 13  1  0
 13 14  2  0
 14 15  1  0
 15 16  1  0
 16 17  1  0
 17 18  1  0
 18 19  1  0
 19 20  1  0
 20 21  2  0
 21 22  1  0
 22 23  2  0
 23 24  1  0
 24 25  2  0
 15 26  2  0
 26 27  1  0
 27 28  2  0
 28 29  1  0
 12 30  2  0
  6 31  1  0
 31 32  1  0
 32  3  1  0
 30  8  1  0
 28 13  1  0
 25 20  1  0
  1 33  1  0
  1 34  1  0
  1 35  1  0
  2 36  1  0
  2 37  1  0
  4 38  1  0
  4 39  1  0
  5 40  1  0
  5 41  1  0
  7 42  1  0
  7 43  1  0
  9 44  1  0
 10 45  1  0
 11 46  1  0
 14 47  1  0
 16 48  1  0
 16 49  1  0
 17 50  1  0
 18 51  1  0
 18 52  1  0
 19 53  1  0
 19 54  1  0
 21 55  1  0
 22 56  1  0
 23 57  1  0
 24 58  1  0
 25 59  1  0
 26 60  1  0
 27 61  1  0
 30 62  1  0
 31 63  1  0
 31 64  1  0
 32 65  1  0
 32 66  1  0
M  CHG  1  25   1
M  END
>  <UniqueID>  (27) 
25

>  <SMILES>  (27) 
CCN1CCN(Cc2cccc(-c3cc(CNCCc4cccc[nH+]4)ccc3F)c2)CC1

>  <Energy>  (27) 
81.73892963441688

>  <Genealogy>  (27) 
CCN1CCN(Cc2cccc(-c3cc(CNCCc4cccc[nH+]4)ccc3F)c2)CC1 (protonated)
CCN1CCN(Cc2cccc(-c3cc(CNCCc4cccc[nH+]4)ccc3F)c2)CC1 (3D coordinates assigned)
CCN1CCN(Cc2cccc(-c3cc(CNCCc4cccc[nH+]4)ccc3F)c2)CC1 (nonaromatic ring conformer: 81.73892963441688 kcal/mol)

>  <smiles>  (27) 
CCN1CCN(Cc2cccc(-c3cc(CNCCc4ccccn4)ccc3F)c2)CC1

>  <score_type>  (27) 
oracle

>  <origin>  (27) 
adg

>  <m_score__min__energy>  (27) 
-7.6900000000000004

>  <m_primary>  (27) 
energy

$$$$
27:0
     RDKit          3D

 33 33  0  0  0  0  0  0  0  0999 V2000
   59.5040   33.5800   50.6770 C   0  0  0  0  0  0  0  0  0  0  0  0
   59.3640   33.3520   49.2010 C   0  0  0  0  0  0  0  0  0  0  0  0
   59.1520   32.0580   48.7090 C   0  0  0  0  0  0  0  0  0  0  0  0
   59.0670   31.8450   47.3280 C   0  0  0  0  0  0  0  0  0  0  0  0
   58.8560   30.4510   46.7840 C   0  0  0  0  0  0  0  0  0  0  0  0
   57.6910   30.3710   45.8850 N   0  0  0  0  0  0  0  0  0  0  0  0
   58.0410   30.5690   44.4700 C   0  0  0  0  0  0  0  0  0  0  0  0
   56.9490   29.9950   43.5590 C   0  0  0  0  0  0  0  0  0  0  0  0
   55.5450   30.2440   44.1200 C   0  0  0  0  0  0  0  0  0  0  0  0
   55.2580   29.3410   45.1550 O   0  0  0  0  0  0  0  0  0  0  0  0
   59.2040   32.9340   46.4590 C   0  0  0  0  0  0  0  0  0  0  0  0
   59.4170   34.2170   46.9800 C   0  0  0  0  0  0  0  0  0  0  0  0
   59.6160   35.3780   46.0520 C   0  0  0  0  0  0  0  0  0  0  0  0
   59.5120   34.3930   48.3310 N   0  0  0  0  0  0  0  0  0  0  0  0
   59.0042   32.7661   51.2228 H   0  0  0  0  0  0  0  0  0  0  0  0
   60.5706   33.6006   50.9453 H   0  0  0  0  0  0  0  0  0  0  0  0
   59.0398   34.5405   50.9453 H   0  0  0  0  0  0  0  0  0  0  0  0
   59.0526   31.2121   49.4052 H   0  0  0  0  0  0  0  0  0  0  0  0
   59.7547   30.1495   46.2259 H   0  0  0  0  0  0  0  0  0  0  0  0
   58.6690   29.7820   47.6369 H   0  0  0  0  0  0  0  0  0  0  0  0
   57.2380   29.4330   45.9930 H   0  0  0  0  0  0  0  0  0  0  0  0
   58.1487   31.6455   44.2714 H   0  0  0  0  0  0  0  0  0  0  0  0
   58.9869   30.0475   44.2621 H   0  0  0  0  0  0  0  0  0  0  0  0
   57.0257   30.4699   42.5698 H   0  0  0  0  0  0  0  0  0  0  0  0
   57.1000   28.9076   43.4907 H   0  0  0  0  0  0  0  0  0  0  0  0
   55.4889   31.2708   44.5105 H   0  0  0  0  0  0  0  0  0  0  0  0
   54.8110   30.1024   43.3130 H   0  0  0  0  0  0  0  0  0  0  0  0
   55.6170   29.7390   45.9910 H   0  0  0  0  0  0  0  0  0  0  0  0
   59.1446   32.7829   45.3710 H   0  0  0  0  0  0  0  0  0  0  0  0
   59.7731   36.2945   46.6397 H   0  0  0  0  0  0  0  0  0  0  0  0
   60.4957   35.1939   45.4178 H   0  0  0  0  0  0  0  0  0  0  0  0
   58.7252   35.4973   45.4178 H   0  0  0  0  0  0  0  0  0  0  0  0
   59.7050   35.3490   48.7070 H   0  0  0  0  0  0  0  0  0  0  0  0
  1  2  1  0
  2  3  2  0
  3  4  1  0
  4  5  1  0
  5  6  1  0
  6  7  1  0
  7  8  1  0
  8  9  1  0
  9 10  1  0
  4 11  2  0
 11 12  1  0
 12 13  1  0
 12 14  2  0
 14  2  1  0
  1 15  1  0
  1 16  1  0
  1 17  1  0
  3 18  1  0
  5 19  1  0
  5 20  1  0
  6 21  1  0
  7 22  1  0
  7 23  1  0
  8 24  1  0
  8 25  1  0
  9 26  1  0
  9 27  1  0
 10 28  1  0
 11 29  1  0
 13 30  1  0
 13 31  1  0
 13 32  1  0
 14 33  1  0
M  CHG  1  14   1
M  END
>  <UniqueID>  (28) 
26

>  <SMILES>  (28) 
Cc1cc(CNCCCO)cc(C)[nH+]1

>  <Energy>  (28) 
25.576436700992115

>  <Genealogy>  (28) 
Cc1cc(CNCCCO)cc(C)[nH+]1 (protonated)
Cc1cc(CNCCCO)cc(C)[nH+]1 (3D coordinates assigned)
Cc1cc(CNCCCO)cc(C)[nH+]1 (optimized conformer: 25.576436700992115 kcal/mol)

>  <smiles>  (28) 
Cc1cc(CNCCCO)cc(C)n1

>  <score_type>  (28) 
oracle

>  <origin>  (28) 
adg

>  <m_score__min__energy>  (28) 
-4.3899999999999997

>  <m_primary>  (28) 
energy

$$$$
28:0
     RDKit          3D

 37 39  0  0  0  0  0  0  0  0999 V2000
   58.5950   32.3460   49.6380 C   0  0  0  0  0  0  0  0  0  0  0  0
   58.0640   32.4280   48.3200 O   0  0  0  0  0  0  0  0  0  0  0  0
   58.5300   33.3020   47.3240 C   0  0  0  0  0  0  0  0  0  0  0  0
   59.2030   34.4990   47.6400 C   0  0  0  0  0  0  0  0  0  0  0  0
   59.6460   35.3480   46.6230 C   0  0  0  0  0  0  0  0  0  0  0  0
   59.4290   35.0120   45.2860 C   0  0  0  0  0  0  0  0  0  0  0  0
   58.7660   33.8280   44.9610 C   0  0  0  0  0  0  0  0  0  0  0  0
   58.3040   32.9730   45.9730 C   0  0  0  0  0  0  0  0  0  0  0  0
   57.6220   31.7580   45.6330 N   0  0  0  0  0  0  0  0  0  0  0  0
   56.6040   31.6800   44.7940 N   0  0  0  0  0  0  0  0  0  0  0  0
   56.2520   30.4100   44.6670 N   0  0  0  0  0  0  0  0  0  0  0  0
   57.0410   29.6440   45.4090 N   0  0  0  0  0  0  0  0  0  0  0  0
   57.8910   30.4940   46.0160 C   0  0  0  0  0  0  0  0  0  0  0  0
   59.0630   30.0430   46.8440 C   0  0  0  0  0  0  0  0  0  0  0  0
   60.4030   30.4510   46.2180 C   0  0  0  0  0  0  0  0  0  0  0  0
   61.2410   31.2730   47.1660 C   0  0  0  0  0  0  0  0  0  0  0  0
   61.4610   30.8320   48.4810 C   0  0  0  0  0  0  0  0  0  0  0  0
   62.2060   31.6130   49.3700 C   0  0  0  0  0  0  0  0  0  0  0  0
   62.7310   32.8390   48.9530 C   0  0  0  0  0  0  0  0  0  0  0  0
   62.5100   33.2870   47.6470 C   0  0  0  0  0  0  0  0  0  0  0  0
   61.7650   32.5100   46.7560 C   0  0  0  0  0  0  0  0  0  0  0  0
   57.7827   32.4714   50.3690 H   0  0  0  0  0  0  0  0  0  0  0  0
   59.0693   31.3640   49.7818 H   0  0  0  0  0  0  0  0  0  0  0  0
   59.3434   33.1392   49.7818 H   0  0  0  0  0  0  0  0  0  0  0  0
   59.3803   34.7661   48.6923 H   0  0  0  0  0  0  0  0  0  0  0  0
   60.1669   36.2831   46.8765 H   0  0  0  0  0  0  0  0  0  0  0  0
   59.7811   35.6814   44.4873 H   0  0  0  0  0  0  0  0  0  0  0  0
   58.6046   33.5635   43.9055 H   0  0  0  0  0  0  0  0  0  0  0  0
   58.9861   30.4955   47.8437 H   0  0  0  0  0  0  0  0  0  0  0  0
   59.0357   28.9448   46.8999 H   0  0  0  0  0  0  0  0  0  0  0  0
   60.9604   29.5420   45.9477 H   0  0  0  0  0  0  0  0  0  0  0  0
   60.1911   31.0655   45.3306 H   0  0  0  0  0  0  0  0  0  0  0  0
   61.0458   29.8689   48.8128 H   0  0  0  0  0  0  0  0  0  0  0  0
   62.3789   31.2621   50.3981 H   0  0  0  0  0  0  0  0  0  0  0  0
   63.3184   33.4520   49.6525 H   0  0  0  0  0  0  0  0  0  0  0  0
   62.9233   34.2527   47.3204 H   0  0  0  0  0  0  0  0  0  0  0  0
   61.5885   32.8680   45.7310 H   0  0  0  0  0  0  0  0  0  0  0  0
  1  2  1  0
  2  3  1  0
  3  4  2  0
  4  5  1  0
  5  6  2  0
  6  7  1  0
  7  8  2  0
  8  9  1  0
  9 10  1  0
 10 11  2  0
 11 12  1  0
 12 13  2  0
 13 14  1  0
 14 15  1  0
 15 16  1  0
 16 17  2  0
 17 18  1  0
 18 19  2  0
 19 20  1  0
 20 21  2  0
  8  3  1  0
 13  9  1  0
 21 16  1  0
  1 22  1  0
  1 23  1  0
  1 24  1  0
  4 25  1  0
  5 26  1  0
  6 27  1  0
  7 28  1  0
 14 29  1  0
 14 30  1  0
 15 31  1  0
 15 32  1  0
 17 33  1  0
 18 34  1  0
 19 35  1  0
 20 36  1  0
 21 37  1  0
M  END
>  <UniqueID>  (29) 
27

>  <SMILES>  (29) 
COc1ccccc1-n1nnnc1CCc1ccccc1

>  <Energy>  (29) 
80.0649676177794

>  <Genealogy>  (29) 
COc1ccccc1-n1nnnc1CCc1ccccc1 (3D coordinates assigned)
COc1ccccc1-n1nnnc1CCc1ccccc1 (optimized conformer: 80.0649676177794 kcal/mol)

>  <smiles>  (29) 
COc1ccccc1-n1nnnc1CCc1ccccc1

>  <score_type>  (29) 
oracle

>  <origin>  (29) 
adg

>  <m_score__min__energy>  (29) 
-7.7699999999999996

>  <m_primary>  (29) 
energy

$$$$
29:0
     RDKit          3D

 37 39  0  0  0  0  0  0  0  0999 V2000
   55.7060   21.5030   45.7590 C   0  0  0  0  0  0  0  0  0  0  0  0
   56.6480   22.6710   45.7490 C   0  0  0  0  0  0  0  0  0  0  0  0
   58.0260   22.4630   45.5930 C   0  0  0  0  0  0  0  0  0  0  0  0
   58.9030   23.5490   45.5450 C   0  0  0  0  0  0  0  0  0  0  0  0
   58.4120   24.8600   45.6410 C   0  0  0  0  0  0  0  0  0  0  0  0
   59.2630   25.9210   45.5850 N   0  0  0  0  0  0  0  0  0  0  0  0
   58.8020   27.2020   45.6590 C   0  0  0  0  0  0  0  0  0  0  0  0
   59.7870   28.3380   45.5540 C   0  0  0  0  0  0  0  0  0  0  0  0
   57.4630   27.4390   45.8410 N   0  0  0  0  0  0  0  0  0  0  0  0
   56.9720   28.7530   45.9520 N   0  0  0  0  0  0  0  0  0  0  0  0
   56.2820   29.4070   44.8800 C   0  0  0  0  0  0  0  0  0  0  0  0
   55.1420   28.9940   44.5320 O   0  0  0  0  0  0  0  0  0  0  0  0
   56.9100   30.5450   44.1720 C   0  0  0  0  0  0  0  0  0  0  0  0
   57.6050   31.5380   44.8900 C   0  0  0  0  0  0  0  0  0  0  0  0
   58.2000   32.6110   44.2200 C   0  0  0  0  0  0  0  0  0  0  0  0
   58.1100   32.7070   42.8300 C   0  0  0  0  0  0  0  0  0  0  0  0
   57.4230   31.7290   42.1060 C   0  0  0  0  0  0  0  0  0  0  0  0
   56.8260   30.6530   42.7700 C   0  0  0  0  0  0  0  0  0  0  0  0
   56.5730   26.4040   45.8760 C   0  0  0  0  0  0  0  0  0  0  0  0
   55.3390   26.6420   46.0060 O   0  0  0  0  0  0  0  0  0  0  0  0
   57.0280   25.0790   45.7810 C   0  0  0  0  0  0  0  0  0  0  0  0
   56.1500   23.9800   45.8270 C   0  0  0  0  0  0  0  0  0  0  0  0
   55.4802   21.2230   46.7985 H   0  0  0  0  0  0  0  0  0  0  0  0
   54.7745   21.7787   45.2429 H   0  0  0  0  0  0  0  0  0  0  0  0
   56.1728   20.6511   45.2429 H   0  0  0  0  0  0  0  0  0  0  0  0
   58.4184   21.4389   45.5080 H   0  0  0  0  0  0  0  0  0  0  0  0
   59.9833   23.3758   45.4314 H   0  0  0  0  0  0  0  0  0  0  0  0
   60.2890   25.7500   45.4710 H   0  0  0  0  0  0  0  0  0  0  0  0
   60.0739   28.6689   46.5630 H   0  0  0  0  0  0  0  0  0  0  0  0
   60.6815   27.9987   45.0112 H   0  0  0  0  0  0  0  0  0  0  0  0
   59.3244   29.1754   45.0112 H   0  0  0  0  0  0  0  0  0  0  0  0
   57.6800   31.4686   45.9852 H   0  0  0  0  0  0  0  0  0  0  0  0
   58.7404   33.3816   44.7893 H   0  0  0  0  0  0  0  0  0  0  0  0
   58.5796   33.5520   42.3052 H   0  0  0  0  0  0  0  0  0  0  0  0
   57.3517   31.8058   41.0110 H   0  0  0  0  0  0  0  0  0  0  0  0
   56.2874   29.8861   42.1940 H   0  0  0  0  0  0  0  0  0  0  0  0
   55.0674   24.1485   45.9247 H   0  0  0  0  0  0  0  0  0  0  0  0
  1  2  1  0
  2  3  2  0
  3  4  1  0
  4  5  2  0
  5  6  1  0
  6  7  2  0
  7  8  1  0
  7  9  1  0
  9 10  1  0
 10 11  1  0
 11 12  2  0
 11 13  1  0
 13 14  2  0
 14 15  1  0
 15 16  2  0
 16 17  1  0
 17 18  2  0
  9 19  1  0
 19 20  2  0
 19 21  1  0
 21 22  2  0
 22  2  1  0
 21  5  1  0
 18 13  1  0
  1 23  1  0
  1 24  1  0
  1 25  1  0
  3 26  1  0
  4 27  1  0
  6 28  1  0
  8 29  1  0
  8 30  1  0
  8 31  1  0
 14 32  1  0
 15 33  1  0
 16 34  1  0
 17 35  1  0
 18 36  1  0
 22 37  1  0
M  CHG  2   6   1  10  -1
M  END
>  <UniqueID>  (30) 
28

>  <SMILES>  (30) 
Cc1ccc2[nH+]c(C)n([N-]C(=O)c3ccccc3)c(=O)c2c1

>  <Energy>  (30) 
52.02215278873165

>  <Genealogy>  (30) 
Cc1ccc2[nH+]c(C)n([N-]C(=O)c3ccccc3)c(=O)c2c1 (protonated)
Cc1ccc2[nH+]c(C)n([N-]C(=O)c3ccccc3)c(=O)c2c1 (3D coordinates assigned)
Cc1ccc2[nH+]c(C)n([N-]C(=O)c3ccccc3)c(=O)c2c1 (optimized conformer: 52.02215278873165 kcal/mol)

>  <smiles>  (30) 
Cc1ccc2nc(C)n(NC(=O)c3ccccc3)c(=O)c2c1

>  <score_type>  (30) 
oracle

>  <origin>  (30) 
adg

>  <m_score__min__energy>  (30) 
-7.6900000000000004

>  <m_primary>  (30) 
energy

$$$$
30:0
     RDKit          3D

 40 43  0  0  1  0  0  0  0  0999 V2000
   61.2790   26.5440   51.3090 C   0  0  0  0  0  0  0  0  0  0  0  0
   61.1420   27.7140   50.5660 O   0  0  0  0  0  0  0  0  0  0  0  0
   60.4450   27.8680   49.3850 C   0  0  0  0  0  0  0  0  0  0  0  0
   60.5630   26.8410   48.4410 C   0  0  0  0  0  0  0  0  0  0  0  0
   59.8960   26.9120   47.2240 C   0  0  0  0  0  0  0  0  0  0  0  0
   59.1090   28.0250   46.9590 C   0  0  0  0  0  0  0  0  0  0  0  0
   58.4360   28.0390   45.6620 C   0  0  0  0  0  0  0  0  0  0  0  0
   58.3720   26.9170   44.8440 C   0  0  0  0  0  0  0  0  0  0  0  0
   57.6810   27.3120   43.7500 N   0  0  0  0  0  0  0  0  0  0  0  0
   57.3330   28.5920   43.8700 N   0  0  0  0  0  0  0  0  0  0  0  0
   56.6430   29.3650   43.0110 C   0  0  0  0  0  0  0  0  0  0  0  0
   56.4020   30.6860   43.3620 C   0  0  0  0  0  0  0  0  0  0  0  0
   56.8760   31.1480   44.5660 C   0  0  0  0  0  0  0  0  0  0  0  0
   56.6440   32.3830   44.8820 N   0  0  0  0  0  0  0  0  0  0  0  0
   57.6300   33.1940   45.5300 C   0  0  0  0  0  0  0  0  0  0  0  0
   57.9180   33.0610   46.8770 C   0  0  0  0  0  0  0  0  0  0  0  0
   58.8820   33.8580   47.4980 C   0  0  0  0  0  0  0  0  0  0  0  0
   59.5460   34.7910   46.7130 C   0  0  0  0  0  0  0  0  0  0  0  0
   59.2620   34.9250   45.3730 C   0  0  0  0  0  0  0  0  0  0  0  0
   58.3000   34.1260   44.7650 C   0  0  0  0  0  0  0  0  0  0  0  0
   57.5740   30.3540   45.4270 N   0  0  0  0  0  0  0  0  0  0  0  0
   57.7800   29.0810   45.0390 C   0  0  0  0  0  0  0  0  0  0  0  0
   58.9850   29.0440   47.8810 C   0  0  0  0  0  0  0  0  0  0  0  0
   59.6540   28.9760   49.1080 C   0  0  0  0  0  0  0  0  0  0  0  0
   61.2507   26.7855   52.3818 H   0  0  0  0  0  0  0  0  0  0  0  0
   60.4552   25.8568   51.0660 H   0  0  0  0  0  0  0  0  0  0  0  0
   62.2393   26.0657   51.0660 H   0  0  0  0  0  0  0  0  0  0  0  0
   61.1917   25.9667   48.6655 H   0  0  0  0  0  0  0  0  0  0  0  0
   59.9896   26.1025   46.4851 H   0  0  0  0  0  0  0  0  0  0  0  0
   58.7933   25.9206   45.0436 H   0  0  0  0  0  0  0  0  0  0  0  0
   57.4510   26.7060   42.9310 H   0  0  0  0  0  0  0  0  0  0  0  0
   56.2793   28.9601   42.0551 H   0  0  0  0  0  0  0  0  0  0  0  0
   55.8416   31.3511   42.6884 H   0  0  0  0  0  0  0  0  0  0  0  0
   57.3757   32.3111   47.4716 H   0  0  0  0  0  0  0  0  0  0  0  0
   59.1069   33.7506   48.5694 H   0  0  0  0  0  0  0  0  0  0  0  0
   60.3124   35.4343   47.1700 H   0  0  0  0  0  0  0  0  0  0  0  0
   59.8029   35.6736   44.7755 H   0  0  0  0  0  0  0  0  0  0  0  0
   58.0773   34.2352   43.6933 H   0  0  0  0  0  0  0  0  0  0  0  0
   58.3557   29.9161   47.6498 H   0  0  0  0  0  0  0  0  0  0  0  0
   59.5550   29.7884   49.8430 H   0  0  0  0  0  0  0  0  0  0  0  0
  1  2  1  0
  2  3  1  0
  3  4  2  0
  4  5  1  0
  5  6  2  0
  6  7  1  0
  7  8  2  0
  8  9  1  0
  9 10  1  0
 10 11  1  0
 11 12  2  0
 12 13  1  0
 13 14  2  0
 14 15  1  0
 15 16  2  0
 16 17  1  0
 17 18  2  0
 18 19  1  0
 19 20  2  0
 13 21  1  0
 21 22  2  0
  6 23  1  0
 23 24  2  0
 24  3  1  0
 22  7  1  0
 22 10  1  0
 20 15  1  0
  1 25  1  0
  1 26  1  0
  1 27  1  0
  4 28  1  0
  5 29  1  0
  8 30  1  0
  9 31  1  0
 11 32  1  0
 12 33  1  0
 16 34  1  0
 17 35  1  0
 18 36  1  0
 19 37  1  0
 20 38  1  0
 23 39  1  0
 24 40  1  0
M  END
>  <smiles>  (31) 
COc1ccc(-c2c[nH]n3ccc(=Nc4ccccc4)nc23)cc1

>  <score_type>  (31) 
oracle

>  <origin>  (31) 
adg

>  <m_score__min__energy>  (31) 
-7.7599999999999998

>  <m_primary>  (31) 
energy

$$$$
31:0
     RDKit          3D

 36 37  0  0  0  0  0  0  0  0999 V2000
   56.2860   29.7730   42.7460 C   0  0  0  0  0  0  0  0  0  0  0  0
   55.8860   30.3960   44.0930 C   0  0  0  0  0  0  0  0  0  0  0  0
   57.0110   30.9570   44.8850 N   0  0  0  0  0  0  0  0  0  0  0  0
   58.1030   30.0250   45.2390 C   0  0  0  0  0  0  0  0  0  0  0  0
   57.5500   28.6580   45.6390 C   0  0  0  0  0  0  0  0  0  0  0  0
   57.4820   32.2830   44.4250 C   0  0  0  0  0  0  0  0  0  0  0  0
   58.3450   32.9870   45.4320 C   0  0  0  0  0  0  0  0  0  0  0  0
   58.0840   34.1980   46.0370 C   0  0  0  0  0  0  0  0  0  0  0  0
   59.0720   34.4500   46.8620 O   0  0  0  0  0  0  0  0  0  0  0  0
   59.9220   33.4460   46.7880 C   0  0  0  0  0  0  0  0  0  0  0  0
   61.1680   33.3730   47.5880 C   0  0  0  0  0  0  0  0  0  0  0  0
   62.2400   32.5870   47.1300 C   0  0  0  0  0  0  0  0  0  0  0  0
   63.4270   32.5060   47.8670 C   0  0  0  0  0  0  0  0  0  0  0  0
   63.5560   33.2080   49.0670 C   0  0  0  0  0  0  0  0  0  0  0  0
   65.1770   33.0950   50.0710 Br  0  0  0  0  0  0  0  0  0  0  0  0
   62.4980   33.9940   49.5320 C   0  0  0  0  0  0  0  0  0  0  0  0
   61.3090   34.0780   48.7990 C   0  0  0  0  0  0  0  0  0  0  0  0
   59.5090   32.5110   45.9050 N   0  0  0  0  0  0  0  0  0  0  0  0
   56.8725   28.8596   42.9242 H   0  0  0  0  0  0  0  0  0  0  0  0
   55.3801   29.5215   42.1749 H   0  0  0  0  0  0  0  0  0  0  0  0
   56.8917   30.4920   42.1749 H   0  0  0  0  0  0  0  0  0  0  0  0
   55.1706   31.2077   43.8944 H   0  0  0  0  0  0  0  0  0  0  0  0
   55.4635   29.5787   44.6959 H   0  0  0  0  0  0  0  0  0  0  0  0
   58.7677   29.9039   44.3710 H   0  0  0  0  0  0  0  0  0  0  0  0
   58.6559   30.4424   46.0935 H   0  0  0  0  0  0  0  0  0  0  0  0
   57.5191   28.5816   46.7359 H   0  0  0  0  0  0  0  0  0  0  0  0
   56.5338   28.5409   45.2345 H   0  0  0  0  0  0  0  0  0  0  0  0
   58.1990   27.8673   45.2345 H   0  0  0  0  0  0  0  0  0  0  0  0
   58.0634   32.1462   43.5013 H   0  0  0  0  0  0  0  0  0  0  0  0
   56.5913   32.9082   44.2643 H   0  0  0  0  0  0  0  0  0  0  0  0
   57.2063   34.8370   45.8599 H   0  0  0  0  0  0  0  0  0  0  0  0
   62.1450   32.0315   46.1853 H   0  0  0  0  0  0  0  0  0  0  0  0
   64.2599   31.8881   47.5002 H   0  0  0  0  0  0  0  0  0  0  0  0
   62.6003   34.5481   50.4767 H   0  0  0  0  0  0  0  0  0  0  0  0
   60.4799   34.6981   49.1707 H   0  0  0  0  0  0  0  0  0  0  0  0
   59.9660   31.6110   45.6390 H   0  0  0  0  0  0  0  0  0  0  0  0
  1  2  1  0
  2  3  1  0
  3  4  1  0
  4  5  1  0
  3  6  1  0
  6  7  1  0
  7  8  2  0
  8  9  1  0
  9 10  1  0
 10 11  1  0
 11 12  2  0
 12 13  1  0
 13 14  2  0
 14 15  1  0
 14 16  1  0
 16 17  2  0
 10 18  2  0
 18  7  1  0
 17 11  1  0
  1 19  1  0
  1 20  1  0
  1 21  1  0
  2 22  1  0
  2 23  1  0
  4 24  1  0
  4 25  1  0
  5 26  1  0
  5 27  1  0
  5 28  1  0
  6 29  1  0
  6 30  1  0
  8 31  1  0
 12 32  1  0
 13 33  1  0
 16 34  1  0
 17 35  1  0
 18 36  1  0
M  CHG  1  18   1
M  END
>  <UniqueID>  (32) 
29

>  <SMILES>  (32) 
CCN(CC)Cc1coc(-c2ccc(Br)cc2)[nH+]1

>  <Energy>  (32) 
71.08858800560665

>  <Genealogy>  (32) 
CCN(CC)Cc1coc(-c2ccc(Br)cc2)[nH+]1 (protonated)
CCN(CC)Cc1coc(-c2ccc(Br)cc2)[nH+]1 (3D coordinates assigned)
CCN(CC)Cc1coc(-c2ccc(Br)cc2)[nH+]1 (optimized conformer: 71.08858800560665 kcal/mol)

>  <smiles>  (32) 
CCN(CC)Cc1coc(-c2ccc(Br)cc2)n1

>  <score_type>  (32) 
oracle

>  <origin>  (32) 
adg

>  <m_score__min__energy>  (32) 
-5.0599999999999996

>  <m_primary>  (32) 
energy

$$$$
32:0
     RDKit          3D

 48 51  0  0  0  0  0  0  0  0999 V2000
   61.1730   32.6220   52.1390 C   0  0  0  0  0  0  0  0  0  0  0  0
   60.8980   32.4120   50.7140 N   0  0  0  0  0  0  0  0  0  0  0  0
   60.6310   30.9910   50.3990 C   0  0  0  0  0  0  0  0  0  0  0  0
   61.0860   30.5980   48.9810 C   0  0  0  0  0  0  0  0  0  0  0  0
   60.2680   31.2300   47.9410 N   0  0  0  0  0  0  0  0  0  0  0  0
   60.2130   32.6290   47.6780 C   0  0  0  0  0  0  0  0  0  0  0  0
   60.7250   33.5080   48.4220 O   0  0  0  0  0  0  0  0  0  0  0  0
   59.4570   32.8740   46.4690 C   0  0  0  0  0  0  0  0  0  0  0  0
   59.1010   34.0780   45.8520 C   0  0  0  0  0  0  0  0  0  0  0  0
   59.6030   35.4000   46.3550 C   0  0  0  0  0  0  0  0  0  0  0  0
   58.2310   34.0110   44.7500 C   0  0  0  0  0  0  0  0  0  0  0  0
   57.6950   32.7800   44.3360 C   0  0  0  0  0  0  0  0  0  0  0  0
   58.0320   31.5700   44.9920 C   0  0  0  0  0  0  0  0  0  0  0  0
   59.0060   31.6480   46.0110 C   0  0  0  0  0  0  0  0  0  0  0  0
   59.5980   30.5330   46.8360 C   0  0  2  0  0  0  0  0  0  0  0  0
   58.5090   29.5590   47.2930 C   0  0  0  0  0  0  0  0  0  0  0  0
   58.2840   28.5820   46.1720 C   0  0  0  0  0  0  0  0  0  0  0  0
   58.6960   27.2470   46.3300 C   0  0  0  0  0  0  0  0  0  0  0  0
   58.6240   26.3510   45.2630 C   0  0  0  0  0  0  0  0  0  0  0  0
   58.1560   26.7800   44.0220 C   0  0  0  0  0  0  0  0  0  0  0  0
   57.7510   28.1050   43.8470 C   0  0  0  0  0  0  0  0  0  0  0  0
   57.8120   29.0220   44.9120 C   0  0  0  0  0  0  0  0  0  0  0  0
   57.2800   30.3530   44.7210 N   0  0  0  0  0  0  0  0  0  0  0  0
   55.9140   30.4550   44.1890 C   0  0  0  0  0  0  0  0  0  0  0  0
   60.4408   32.0629   52.7400 H   0  0  0  0  0  0  0  0  0  0  0  0
   62.1873   32.2665   52.3730 H   0  0  0  0  0  0  0  0  0  0  0  0
   61.0971   33.6942   52.3730 H   0  0  0  0  0  0  0  0  0  0  0  0
   61.7440   32.7220   50.1800 H   0  0  0  0  0  0  0  0  0  0  0  0
   60.1020   33.0250   50.4230 H   0  0  0  0  0  0  0  0  0  0  0  0
   61.1664   30.3632   51.1265 H   0  0  0  0  0  0  0  0  0  0  0  0
   59.5428   30.8391   50.4515 H   0  0  0  0  0  0  0  0  0  0  0  0
   62.1325   30.9088   48.8460 H   0  0  0  0  0  0  0  0  0  0  0  0
   60.9756   29.5081   48.8812 H   0  0  0  0  0  0  0  0  0  0  0  0
   59.6023   35.3980   47.4550 H   0  0  0  0  0  0  0  0  0  0  0  0
   60.6270   35.5666   45.9893 H   0  0  0  0  0  0  0  0  0  0  0  0
   58.9477   36.2043   45.9893 H   0  0  0  0  0  0  0  0  0  0  0  0
   57.9675   34.9306   44.2069 H   0  0  0  0  0  0  0  0  0  0  0  0
   56.9990   32.7550   43.4846 H   0  0  0  0  0  0  0  0  0  0  0  0
   60.3078   29.8997   46.2835 H   0  0  0  0  0  0  0  0  0  0  0  0
   58.8366   29.0254   48.1974 H   0  0  0  0  0  0  0  0  0  0  0  0
   57.5803   30.0976   47.5326 H   0  0  0  0  0  0  0  0  0  0  0  0
   59.0784   26.9060   47.3034 H   0  0  0  0  0  0  0  0  0  0  0  0
   58.9367   25.3055   45.4011 H   0  0  0  0  0  0  0  0  0  0  0  0
   58.1057   26.0742   43.1798 H   0  0  0  0  0  0  0  0  0  0  0  0
   57.3802   28.4353   42.8655 H   0  0  0  0  0  0  0  0  0  0  0  0
   55.1987   30.5084   45.0230 H   0  0  0  0  0  0  0  0  0  0  0  0
   55.8272   31.3621   43.5729 H   0  0  0  0  0  0  0  0  0  0  0  0
   55.6935   29.5708   43.5729 H   0  0  0  0  0  0  0  0  0  0  0  0
  1  2  1  0
  2  3  1  0
  3  4  1  0
  4  5  1  0
  5  6  1  0
  6  7  2  0
  6  8  1  0
  8  9  2  0
  9 10  1  0
  9 11  1  0
 11 12  2  0
 12 13  1  0
 13 14  2  0
 14 15  1  0
 15 16  1  0
 16 17  1  0
 17 18  2  0
 18 19  1  0
 19 20  2  0
 20 21  1  0
 21 22  2  0
 22 23  1  0
 23 24  1  0
 15  5  1  0
 22 17  1  0
 14  8  1  0
 23 13  1  0
  1 25  1  0
  1 26  1  0
  1 27  1  0
  2 28  1  0
  2 29  1  0
  3 30  1  0
  3 31  1  0
  4 32  1  0
  4 33  1  0
 10 34  1  0
 10 35  1  0
 10 36  1  0
 11 37  1  0
 12 38  1  0
 15 39  1  6
 16 40  1  0
 16 41  1  0
 18 42  1  0
 19 43  1  0
 20 44  1  0
 21 45  1  0
 24 46  1  0
 24 47  1  0
 24 48  1  0
M  CHG  1   2   1
M  END
>  <UniqueID>  (33) 
30

>  <SMILES>  (33) 
C[NH2+]CCN1C(=O)c2c(C)ccc3c2[C@@H]1Cc1ccccc1N3C

>  <Energy>  (33) 
87.89854988106879

>  <Genealogy>  (33) 
C[NH2+]CCN1C(=O)c2c(C)ccc3c2C1Cc1ccccc1N3C (protonated)
C[NH2+]CCN1C(=O)c2c(C)ccc3c2[C@@H]1Cc1ccccc1N3C (chirality)
C[NH2+]CCN1C(=O)c2c(C)ccc3c2[C@@H]1Cc1ccccc1N3C (3D coordinates assigned)
C[NH2+]CCN1C(=O)c2c(C)ccc3c2[C@@H]1Cc1ccccc1N3C (nonaromatic ring conformer: 87.89854988106879 kcal/mol)

>  <smiles>  (33) 
CNCCN1C(=O)c2c(C)ccc3c2C1Cc1ccccc1N3C

>  <score_type>  (33) 
oracle

>  <origin>  (33) 
adg

>  <m_score__min__energy>  (33) 
-4.9699999999999998

>  <m_primary>  (33) 
energy

$$$$
33:0
     RDKit          3D

 41 43  0  0  0  0  0  0  0  0999 V2000
   58.5490   25.7790   46.7150 F   0  0  0  0  0  0  0  0  0  0  0  0
   58.2970   27.0120   46.2150 C   0  0  0  0  0  0  0  0  0  0  0  0
   59.3210   27.9860   46.1940 C   0  0  0  0  0  0  0  0  0  0  0  0
   59.0750   29.2690   45.6760 C   0  0  0  0  0  0  0  0  0  0  0  0
   57.7950   29.5430   45.1920 C   0  0  0  0  0  0  0  0  0  0  0  0
   57.2550   30.6790   44.6220 C   0  0  0  0  0  0  0  0  0  0  0  0
   57.9490   31.9740   44.3160 C   0  0  0  0  0  0  0  0  0  0  0  0
   57.2870   33.1620   45.0310 C   0  0  0  0  0  0  0  0  0  0  0  0
   57.6920   33.2410   46.4460 N   0  0  0  0  0  0  0  0  0  0  0  0
   58.6080   34.3690   46.6990 C   0  0  0  0  0  0  0  0  0  0  0  0
   59.8810   34.2920   45.8390 C   0  0  0  0  0  0  0  0  0  0  0  0
   60.9290   33.4560   46.5240 C   0  0  0  0  0  0  0  0  0  0  0  0
   62.2770   33.8510   46.4990 C   0  0  0  0  0  0  0  0  0  0  0  0
   63.2550   33.0580   47.1070 C   0  0  0  0  0  0  0  0  0  0  0  0
   62.8960   31.8620   47.7350 C   0  0  0  0  0  0  0  0  0  0  0  0
   61.5580   31.4560   47.7530 C   0  0  0  0  0  0  0  0  0  0  0  0
   60.5780   32.2460   47.1460 C   0  0  0  0  0  0  0  0  0  0  0  0
   55.9400   30.3530   44.3040 C   0  0  0  0  0  0  0  0  0  0  0  0
   55.6670   29.0800   44.6720 N   0  0  0  0  0  0  0  0  0  0  0  0
   56.8010   28.5970   45.2080 C   0  0  0  0  0  0  0  0  0  0  0  0
   57.0170   27.3160   45.7150 C   0  0  0  0  0  0  0  0  0  0  0  0
   60.3183   27.7378   46.5862 H   0  0  0  0  0  0  0  0  0  0  0  0
   59.8661   30.0329   45.6528 H   0  0  0  0  0  0  0  0  0  0  0  0
   58.9969   31.9016   44.6424 H   0  0  0  0  0  0  0  0  0  0  0  0
   57.8824   32.1485   43.2320 H   0  0  0  0  0  0  0  0  0  0  0  0
   57.5813   34.0925   44.5235 H   0  0  0  0  0  0  0  0  0  0  0  0
   56.1968   33.0205   44.9937 H   0  0  0  0  0  0  0  0  0  0  0  0
   56.8470   33.3180   47.0600 H   0  0  0  0  0  0  0  0  0  0  0  0
   58.1980   32.3600   46.7000 H   0  0  0  0  0  0  0  0  0  0  0  0
   58.0834   35.3086   46.4709 H   0  0  0  0  0  0  0  0  0  0  0  0
   58.9124   34.3247   47.7551 H   0  0  0  0  0  0  0  0  0  0  0  0
   59.6347   33.8393   44.8672 H   0  0  0  0  0  0  0  0  0  0  0  0
   60.2750   35.3087   45.6941 H   0  0  0  0  0  0  0  0  0  0  0  0
   62.5642   34.7878   45.9991 H   0  0  0  0  0  0  0  0  0  0  0  0
   64.3080   33.3757   47.0911 H   0  0  0  0  0  0  0  0  0  0  0  0
   63.6660   31.2402   48.2151 H   0  0  0  0  0  0  0  0  0  0  0  0
   61.2765   30.5136   48.2456 H   0  0  0  0  0  0  0  0  0  0  0  0
   59.5277   31.9193   47.1552 H   0  0  0  0  0  0  0  0  0  0  0  0
   55.2236   31.0342   43.8215 H   0  0  0  0  0  0  0  0  0  0  0  0
   54.7620   28.5740   44.5490 H   0  0  0  0  0  0  0  0  0  0  0  0
   56.2120   26.5664   45.7239 H   0  0  0  0  0  0  0  0  0  0  0  0
  1  2  1  0
  2  3  2  0
  3  4  1  0
  4  5  2  0
  5  6  1  0
  6  7  1  0
  7  8  1  0
  8  9  1  0
  9 10  1  0
 10 11  1  0
 11 12  1  0
 12 13  2  0
 13 14  1  0
 14 15  2  0
 15 16  1  0
 16 17  2  0
  6 18  2  0
 18 19  1  0
 19 20  1  0
 20 21  2  0
 21  2  1  0
 20  5  1  0
 17 12  1  0
  3 22  1  0
  4 23  1  0
  7 24  1  0
  7 25  1  0
  8 26  1  0
  8 27  1  0
  9 28  1  0
  9 29  1  0
 10 30  1  0
 10 31  1  0
 11 32  1  0
 11 33  1  0
 13 34  1  0
 14 35  1  0
 15 36  1  0
 16 37  1  0
 17 38  1  0
 18 39  1  0
 19 40  1  0
 21 41  1  0
M  CHG  1   9   1
M  END
>  <UniqueID>  (34) 
31

>  <SMILES>  (34) 
Fc1ccc2c(CC[NH2+]CCc3ccccc3)c[nH]c2c1

>  <Energy>  (34) 
71.24960738697713

>  <Genealogy>  (34) 
Fc1ccc2c(CC[NH2+]CCc3ccccc3)c[nH]c2c1 (protonated)
Fc1ccc2c(CC[NH2+]CCc3ccccc3)c[nH]c2c1 (3D coordinates assigned)
Fc1ccc2c(CC[NH2+]CCc3ccccc3)c[nH]c2c1 (optimized conformer: 71.24960738697713 kcal/mol)

>  <smiles>  (34) 
Fc1ccc2c(CCNCCc3ccccc3)c[nH]c2c1

>  <score_type>  (34) 
oracle

>  <origin>  (34) 
adg

>  <m_score__min__energy>  (34) 
-5.9699999999999998

>  <m_primary>  (34) 
energy

$$$$
34:0
     RDKit          3D

 28 30  0  0  0  0  0  0  0  0999 V2000
   62.6330   34.2950   49.3570 Br  0  0  0  0  0  0  0  0  0  0  0  0
   61.4430   33.1170   48.4380 C   0  0  0  0  0  0  0  0  0  0  0  0
   60.1020   33.4700   48.2680 C   0  0  0  0  0  0  0  0  0  0  0  0
   59.2280   32.6090   47.5960 C   0  0  0  0  0  0  0  0  0  0  0  0
   59.6890   31.3810   47.0860 C   0  0  0  0  0  0  0  0  0  0  0  0
   58.7800   30.4550   46.3700 C   0  0  0  0  0  0  0  0  0  0  0  0
   58.9460   29.0980   46.1570 C   0  0  0  0  0  0  0  0  0  0  0  0
   57.8690   28.6860   45.4600 N   0  0  0  0  0  0  0  0  0  0  0  0
   57.5720   27.3550   44.9850 C   0  0  0  0  0  0  0  0  0  0  0  0
   58.0460   26.9350   43.7280 C   0  0  0  0  0  0  0  0  0  0  0  0
   57.7670   25.6500   43.2540 C   0  0  0  0  0  0  0  0  0  0  0  0
   57.0090   24.7680   44.0270 C   0  0  0  0  0  0  0  0  0  0  0  0
   56.6280   23.0120   43.3780 Br  0  0  0  0  0  0  0  0  0  0  0  0
   56.5300   25.1710   45.2760 C   0  0  0  0  0  0  0  0  0  0  0  0
   56.8070   26.4550   45.7550 C   0  0  0  0  0  0  0  0  0  0  0  0
   57.0880   29.7360   45.2570 N   0  0  0  0  0  0  0  0  0  0  0  0
   57.6150   30.8230   45.7990 N   0  0  0  0  0  0  0  0  0  0  0  0
   61.0430   31.0370   47.2630 C   0  0  0  0  0  0  0  0  0  0  0  0
   61.9120   31.9010   47.9350 C   0  0  0  0  0  0  0  0  0  0  0  0
   59.7324   34.4275   48.6636 H   0  0  0  0  0  0  0  0  0  0  0  0
   58.1735   32.8936   47.4653 H   0  0  0  0  0  0  0  0  0  0  0  0
   59.7908   28.4777   46.4909 H   0  0  0  0  0  0  0  0  0  0  0  0
   58.6420   27.6249   43.1125 H   0  0  0  0  0  0  0  0  0  0  0  0
   58.1450   25.3331   42.2708 H   0  0  0  0  0  0  0  0  0  0  0  0
   55.9330   24.4758   45.8845 H   0  0  0  0  0  0  0  0  0  0  0  0
   56.4256   26.7651   46.7391 H   0  0  0  0  0  0  0  0  0  0  0  0
   61.4195   30.0813   46.8695 H   0  0  0  0  0  0  0  0  0  0  0  0
   62.9679   31.6229   48.0682 H   0  0  0  0  0  0  0  0  0  0  0  0
  1  2  1  0
  2  3  2  0
  3  4  1  0
  4  5  2  0
  5  6  1  0
  6  7  2  0
  7  8  1  0
  8  9  1  0
  9 10  2  0
 10 11  1  0
 11 12  2  0
 12 13  1  0
 12 14  1  0
 14 15  2  0
  8 16  1  0
 16 17  2  0
  5 18  1  0
 18 19  2  0
 19  2  1  0
 17  6  1  0
 15  9  1  0
  3 20  1  0
  4 21  1  0
  7 22  1  0
 10 23  1  0
 11 24  1  0
 14 25  1  0
 15 26  1  0
 18 27  1  0
 19 28  1  0
M  END
>  <UniqueID>  (35) 
32

>  <SMILES>  (35) 
Brc1ccc(-c2cn(-c3ccc(Br)cc3)nn2)cc1

>  <Energy>  (35) 
69.25534046572578

>  <Genealogy>  (35) 
Brc1ccc(-c2cn(-c3ccc(Br)cc3)nn2)cc1 (3D coordinates assigned)
Brc1ccc(-c2cn(-c3ccc(Br)cc3)nn2)cc1 (optimized conformer: 69.25534046572578 kcal/mol)

>  <smiles>  (35) 
Brc1ccc(-c2cn(-c3ccc(Br)cc3)nn2)cc1

>  <score_type>  (35) 
oracle

>  <origin>  (35) 
adg

>  <m_score__min__energy>  (35) 
-6.9900000000000002

>  <m_primary>  (35) 
energy

$$$$
35:0
     RDKit          3D

 50 52  0  0  0  0  0  0  0  0999 V2000
   62.5320   33.8260   50.6190 C   0  0  0  0  0  0  0  0  0  0  0  0
   62.5680   33.7880   49.1210 C   0  0  0  0  0  0  0  0  0  0  0  0
   63.7460   33.4460   48.4450 C   0  0  0  0  0  0  0  0  0  0  0  0
   63.7470   33.3880   47.0890 N   0  0  0  0  0  0  0  0  0  0  0  0
   62.6240   33.6480   46.3710 C   0  0  0  0  0  0  0  0  0  0  0  0
   61.4360   33.9800   47.0360 C   0  0  0  0  0  0  0  0  0  0  0  0
   60.2310   34.2430   46.2840 N   0  0  0  0  0  0  0  0  0  0  0  0
   59.8910   35.6380   45.9870 C   0  0  0  0  0  0  0  0  0  0  0  0
   59.3820   33.1690   45.7290 C   0  0  0  0  0  0  0  0  0  0  0  0
   57.9220   33.6130   45.5170 C   0  0  0  0  0  0  0  0  0  0  0  0
   57.0960   32.4810   44.8720 C   0  0  0  0  0  0  0  0  0  0  0  0
   57.4100   31.1220   45.3930 N   0  0  0  0  0  0  0  0  0  0  0  0
   58.0740   30.2610   44.3890 C   0  0  0  0  0  0  0  0  0  0  0  0
   58.2100   28.8450   44.9110 C   0  0  0  0  0  0  0  0  0  0  0  0
   57.0320   28.1360   45.2080 C   0  0  0  0  0  0  0  0  0  0  0  0
   57.0900   26.8290   45.6940 C   0  0  0  0  0  0  0  0  0  0  0  0
   58.3240   26.2140   45.8970 C   0  0  0  0  0  0  0  0  0  0  0  0
   59.5040   26.9030   45.6180 C   0  0  0  0  0  0  0  0  0  0  0  0
   59.4670   28.2210   45.1280 C   0  0  0  0  0  0  0  0  0  0  0  0
   60.7680   28.9350   44.8650 C   0  0  0  0  0  0  0  0  0  0  0  0
   58.1400   31.1350   46.6800 C   0  0  0  0  0  0  0  0  0  0  0  0
   59.4810   31.8830   46.5830 C   0  0  0  0  0  0  0  0  0  0  0  0
   61.4350   34.0280   48.4010 N   0  0  0  0  0  0  0  0  0  0  0  0
   63.2360   33.0829   51.0217 H   0  0  0  0  0  0  0  0  0  0  0  0
   62.8188   34.8292   50.9673 H   0  0  0  0  0  0  0  0  0  0  0  0
   61.5148   33.5938   50.9673 H   0  0  0  0  0  0  0  0  0  0  0  0
   64.6642   33.2259   49.0093 H   0  0  0  0  0  0  0  0  0  0  0  0
   62.6468   33.5982   45.2724 H   0  0  0  0  0  0  0  0  0  0  0  0
   59.7562   36.1909   46.9283 H   0  0  0  0  0  0  0  0  0  0  0  0
   60.7034   36.0975   45.4049 H   0  0  0  0  0  0  0  0  0  0  0  0
   58.9582   35.6721   45.4049 H   0  0  0  0  0  0  0  0  0  0  0  0
   59.7735   32.9360   44.7278 H   0  0  0  0  0  0  0  0  0  0  0  0
   57.4792   33.8741   46.4895 H   0  0  0  0  0  0  0  0  0  0  0  0
   57.9113   34.4848   44.8463 H   0  0  0  0  0  0  0  0  0  0  0  0
   56.0306   32.6834   45.0566 H   0  0  0  0  0  0  0  0  0  0  0  0
   57.3501   32.4752   43.8018 H   0  0  0  0  0  0  0  0  0  0  0  0
   57.4739   30.2509   43.4672 H   0  0  0  0  0  0  0  0  0  0  0  0
   59.0774   30.6625   44.1839 H   0  0  0  0  0  0  0  0  0  0  0  0
   56.0545   28.6169   45.0556 H   0  0  0  0  0  0  0  0  0  0  0  0
   56.1610   26.2839   45.9170 H   0  0  0  0  0  0  0  0  0  0  0  0
   58.3674   25.1830   46.2781 H   0  0  0  0  0  0  0  0  0  0  0  0
   60.4737   26.4106   45.7828 H   0  0  0  0  0  0  0  0  0  0  0  0
   61.2432   29.1958   45.8222 H   0  0  0  0  0  0  0  0  0  0  0  0
   61.4373   28.2778   44.2904 H   0  0  0  0  0  0  0  0  0  0  0  0
   60.5731   29.8525   44.2904 H   0  0  0  0  0  0  0  0  0  0  0  0
   57.5134   31.6290   47.4372 H   0  0  0  0  0  0  0  0  0  0  0  0
   58.3555   30.0920   46.9552 H   0  0  0  0  0  0  0  0  0  0  0  0
   59.8060   32.1574   47.5974 H   0  0  0  0  0  0  0  0  0  0  0  0
   60.2031   31.2123   46.0944 H   0  0  0  0  0  0  0  0  0  0  0  0
   60.5520   34.2470   48.9130 H   0  0  0  0  0  0  0  0  0  0  0  0
  1  2  1  0
  2  3  2  0
  3  4  1  0
  4  5  2  0
  5  6  1  0
  6  7  1  0
  7  8  1  0
  7  9  1  0
  9 10  1  0
 10 11  1  0
 11 12  1  0
 12 13  1  0
 13 14  1  0
 14 15  2  0
 15 16  1  0
 16 17  2  0
 17 18  1  0
 18 19  2  0
 19 20  1  0
 12 21  1  0
 21 22  1  0
  6 23  2  0
 23  2  1  0
 22  9  1  0
 19 14  1  0
  1 24  1  0
  1 25  1  0
  1 26  1  0
  3 27  1  0
  5 28  1  0
  8 29  1  0
  8 30  1  0
  8 31  1  0
  9 32  1  0
 10 33  1  0
 10 34  1  0
 11 35  1  0
 11 36  1  0
 13 37  1  0
 13 38  1  0
 15 39  1  0
 16 40  1  0
 17 41  1  0
 18 42  1  0
 20 43  1  0
 20 44  1  0
 20 45  1  0
 21 46  1  0
 21 47  1  0
 22 48  1  0
 22 49  1  0
 23 50  1  0
M  CHG  1  23   1
M  END
>  <UniqueID>  (36) 
33

>  <SMILES>  (36) 
Cc1cncc(N(C)C2CCN(Cc3ccccc3C)CC2)[nH+]1

>  <Energy>  (36) 
66.44015118933902

>  <Genealogy>  (36) 
Cc1cncc(N(C)C2CCN(Cc3ccccc3C)CC2)[nH+]1 (protonated)
Cc1cncc(N(C)C2CCN(Cc3ccccc3C)CC2)[nH+]1 (3D coordinates assigned)
Cc1cncc(N(C)C2CCN(Cc3ccccc3C)CC2)[nH+]1 (nonaromatic ring conformer: 66.44015118933902 kcal/mol)

>  <smiles>  (36) 
Cc1cncc(N(C)C2CCN(Cc3ccccc3C)CC2)n1

>  <score_type>  (36) 
oracle

>  <origin>  (36) 
adg

>  <m_score__min__energy>  (36) 
-6.1600000000000001

>  <m_primary>  (36) 
energy

$$$$
36:0
     RDKit          3D

 42 43  0  0  0  0  0  0  0  0999 V2000
   57.7560   33.6370   46.7400 C   0  0  0  0  0  0  0  0  0  0  0  0
   58.5690   33.5930   45.5140 N   0  0  0  0  0  0  0  0  0  0  0  0
   59.2240   34.8880   45.2710 C   0  0  0  0  0  0  0  0  0  0  0  0
   57.8000   33.1210   44.3410 C   0  0  0  0  0  0  0  0  0  0  0  0
   57.4150   31.6690   44.4200 C   0  0  0  0  0  0  0  0  0  0  0  0
   58.2160   30.5850   44.1310 C   0  0  0  0  0  0  0  0  0  0  0  0
   57.4750   29.4980   44.4020 N   0  0  0  0  0  0  0  0  0  0  0  0
   57.9010   28.1060   44.3110 C   0  0  0  0  0  0  0  0  0  0  0  0
   59.3060   27.9080   44.9000 C   0  0  0  0  0  0  0  0  0  0  0  0
   59.3070   27.1200   46.2260 C   0  0  0  0  0  0  0  0  0  0  0  0
   57.8900   26.8450   46.7450 C   0  0  0  0  0  0  0  0  0  0  0  0
   57.3250   25.6730   46.0780 N   0  0  0  0  0  0  0  0  0  0  0  0
   58.1100   24.5800   45.5370 C   0  0  0  0  0  0  0  0  0  0  0  0
   57.0950   23.5790   44.9510 C   0  0  0  0  0  0  0  0  0  0  0  0
   55.7170   24.2620   44.9710 C   0  0  0  0  0  0  0  0  0  0  0  0
   55.9660   25.5060   45.7240 C   0  0  0  0  0  0  0  0  0  0  0  0
   55.0710   26.3480   46.0020 O   0  0  0  0  0  0  0  0  0  0  0  0
   56.2860   29.8910   44.8330 N   0  0  0  0  0  0  0  0  0  0  0  0
   56.2210   31.2150   44.8540 N   0  0  0  0  0  0  0  0  0  0  0  0
   58.4161   33.6013   47.6192 H   0  0  0  0  0  0  0  0  0  0  0  0
   57.1707   34.5681   46.7586 H   0  0  0  0  0  0  0  0  0  0  0  0
   57.0736   32.7745   46.7586 H   0  0  0  0  0  0  0  0  0  0  0  0
   59.4645   35.3635   46.2333 H   0  0  0  0  0  0  0  0  0  0  0  0
   60.1500   34.7289   44.6990 H   0  0  0  0  0  0  0  0  0  0  0  0
   58.5471   35.5397   44.6990 H   0  0  0  0  0  0  0  0  0  0  0  0
   56.8813   33.7209   44.2627 H   0  0  0  0  0  0  0  0  0  0  0  0
   58.4498   33.2358   43.4609 H   0  0  0  0  0  0  0  0  0  0  0  0
   59.2497   30.6059   43.7556 H   0  0  0  0  0  0  0  0  0  0  0  0
   57.1890   27.4772   44.8656 H   0  0  0  0  0  0  0  0  0  0  0  0
   57.9288   27.8221   43.2486 H   0  0  0  0  0  0  0  0  0  0  0  0
   59.9173   27.3600   44.1679 H   0  0  0  0  0  0  0  0  0  0  0  0
   59.7126   28.9072   45.1149 H   0  0  0  0  0  0  0  0  0  0  0  0
   59.8168   26.1587   46.0650 H   0  0  0  0  0  0  0  0  0  0  0  0
   59.8266   27.7313   46.9785 H   0  0  0  0  0  0  0  0  0  0  0  0
   57.9295   26.6620   47.8290 H   0  0  0  0  0  0  0  0  0  0  0  0
   57.2553   27.7182   46.5337 H   0  0  0  0  0  0  0  0  0  0  0  0
   58.7840   24.9467   44.7489 H   0  0  0  0  0  0  0  0  0  0  0  0
   58.7372   24.1124   46.3103 H   0  0  0  0  0  0  0  0  0  0  0  0
   57.3729   23.3219   43.9182 H   0  0  0  0  0  0  0  0  0  0  0  0
   57.0785   22.6504   45.5404 H   0  0  0  0  0  0  0  0  0  0  0  0
   55.3712   24.4818   43.9501 H   0  0  0  0  0  0  0  0  0  0  0  0
   54.9326   23.6359   45.4212 H   0  0  0  0  0  0  0  0  0  0  0  0
  1  2  1  0
  2  3  1  0
  2  4  1  0
  4  5  1  0
  5  6  2  0
  6  7  1  0
  7  8  1  0
  8  9  1  0
  9 10  1  0
 10 11  1  0
 11 12  1  0
 12 13  1  0
 13 14  1  0
 14 15  1  0
 15 16  1  0
 16 17  2  0
  7 18  1  0
 18 19  2  0
 19  5  1  0
 16 12  1  0
  1 20  1  0
  1 21  1  0
  1 22  1  0
  3 23  1  0
  3 24  1  0
  3 25  1  0
  4 26  1  0
  4 27  1  0
  6 28  1  0
  8 29  1  0
  8 30  1  0
  9 31  1  0
  9 32  1  0
 10 33  1  0
 10 34  1  0
 11 35  1  0
 11 36  1  0
 13 37  1  0
 13 38  1  0
 14 39  1  0
 14 40  1  0
 15 41  1  0
 15 42  1  0
M  END
>  <UniqueID>  (37) 
34

>  <SMILES>  (37) 
CN(C)Cc1cn(CCCCN2CCCC2=O)nn1

>  <Energy>  (37) 
73.65114313048413

>  <Genealogy>  (37) 
CN(C)Cc1cn(CCCCN2CCCC2=O)nn1 (3D coordinates assigned)
CN(C)Cc1cn(CCCCN2CCCC2=O)nn1 (nonaromatic ring conformer: 73.65114313048413 kcal/mol)

>  <smiles>  (37) 
CN(C)Cc1cn(CCCCN2CCCC2=O)nn1

>  <score_type>  (37) 
oracle

>  <origin>  (37) 
adg

>  <m_score__min__energy>  (37) 
-7.1299999999999999

>  <m_primary>  (37) 
energy

$$$$
37:0
     RDKit          3D

 44 47  0  0  0  0  0  0  0  0999 V2000
   60.3840   34.4000   46.3750 C   0  0  0  0  0  0  0  0  0  0  0  0
   59.2360   34.0730   47.2360 N   0  0  0  0  0  0  0  0  0  0  0  0
   59.4710   32.9740   48.1980 C   0  0  0  0  0  0  0  0  0  0  0  0
   59.4600   31.6040   47.5770 C   0  0  0  0  0  0  0  0  0  0  0  0
   60.3820   31.1770   46.6700 N   0  0  0  0  0  0  0  0  0  0  0  0
   59.9320   29.9370   46.4180 C   0  0  0  0  0  0  0  0  0  0  0  0
   60.4680   29.0630   45.5340 N   0  0  0  0  0  0  0  0  0  0  0  0
   59.8680   27.8490   45.3660 C   0  0  0  0  0  0  0  0  0  0  0  0
   58.6960   27.5120   46.0920 C   0  0  0  0  0  0  0  0  0  0  0  0
   58.0280   26.2040   45.8960 C   0  0  0  0  0  0  0  0  0  0  0  0
   58.7880   25.0200   45.8940 C   0  0  0  0  0  0  0  0  0  0  0  0
   58.1680   23.7800   45.7140 C   0  0  0  0  0  0  0  0  0  0  0  0
   56.7850   23.7090   45.5310 C   0  0  0  0  0  0  0  0  0  0  0  0
   56.0210   24.8780   45.5240 C   0  0  0  0  0  0  0  0  0  0  0  0
   56.6330   26.1230   45.7040 C   0  0  0  0  0  0  0  0  0  0  0  0
   55.8700   27.2440   45.6510 F   0  0  0  0  0  0  0  0  0  0  0  0
   58.1890   28.4580   47.0050 C   0  0  0  0  0  0  0  0  0  0  0  0
   58.8430   29.6350   47.1210 N   0  0  0  0  0  0  0  0  0  0  0  0
   58.5260   30.6660   47.8750 N   0  0  0  0  0  0  0  0  0  0  0  0
   57.9250   34.0760   46.5490 C   0  0  0  0  0  0  0  0  0  0  0  0
   57.8250   33.1030   45.3950 C   0  0  0  0  0  0  0  0  0  0  0  0
   58.2060   33.4880   44.1010 C   0  0  0  0  0  0  0  0  0  0  0  0
   58.1270   32.5670   43.0570 C   0  0  0  0  0  0  0  0  0  0  0  0
   57.6500   31.2800   43.3000 C   0  0  0  0  0  0  0  0  0  0  0  0
   57.2420   30.9370   44.5900 C   0  0  0  0  0  0  0  0  0  0  0  0
   57.3290   31.8460   45.6010 N   0  0  0  0  0  0  0  0  0  0  0  0
   61.2535   34.6477   47.0016 H   0  0  0  0  0  0  0  0  0  0  0  0
   60.6243   33.5346   45.7399 H   0  0  0  0  0  0  0  0  0  0  0  0
   60.1322   35.2622   45.7399 H   0  0  0  0  0  0  0  0  0  0  0  0
   60.4518   33.1317   48.6704 H   0  0  0  0  0  0  0  0  0  0  0  0
   58.6428   33.0020   48.9214 H   0  0  0  0  0  0  0  0  0  0  0  0
   60.2976   27.1233   44.6598 H   0  0  0  0  0  0  0  0  0  0  0  0
   59.8778   25.0703   46.0351 H   0  0  0  0  0  0  0  0  0  0  0  0
   58.7699   22.8593   45.7165 H   0  0  0  0  0  0  0  0  0  0  0  0
   56.2978   22.7326   45.3924 H   0  0  0  0  0  0  0  0  0  0  0  0
   54.9325   24.8195   45.3762 H   0  0  0  0  0  0  0  0  0  0  0  0
   57.2908   28.2456   47.6034 H   0  0  0  0  0  0  0  0  0  0  0  0
   57.1496   33.8181   47.2853 H   0  0  0  0  0  0  0  0  0  0  0  0
   57.7938   35.0824   46.1249 H   0  0  0  0  0  0  0  0  0  0  0  0
   58.5649   34.5103   43.9110 H   0  0  0  0  0  0  0  0  0  0  0  0
   58.4407   32.8557   42.0430 H   0  0  0  0  0  0  0  0  0  0  0  0
   57.5958   30.5434   42.4848 H   0  0  0  0  0  0  0  0  0  0  0  0
   56.8489   29.9295   44.7910 H   0  0  0  0  0  0  0  0  0  0  0  0
   57.0220   31.5560   46.5570 H   0  0  0  0  0  0  0  0  0  0  0  0
  1  2  1  0
  2  3  1  0
  3  4  1  0
  4  5  1  0
  5  6  2  0
  6  7  1  0
  7  8  2  0
  8  9  1  0
  9 10  1  0
 10 11  2  0
 11 12  1  0
 12 13  2  0
 13 14  1  0
 14 15  2  0
 15 16  1  0
  9 17  2  0
 17 18  1  0
 18 19  1  0
  2 20  1  0
 20 21  1  0
 21 22  2  0
 22 23  1  0
 23 24  2  0
 24 25  1  0
 25 26  2  0
 19  4  2  0
 26 21  1  0
 18  6  1  0
 15 10  1  0
  1 27  1  0
  1 28  1  0
  1 29  1  0
  3 30  1  0
  3 31  1  0
  8 32  1  0
 11 33  1  0
 12 34  1  0
 13 35  1  0
 14 36  1  0
 17 37  1  0
 20 38  1  0
 20 39  1  0
 22 40  1  0
 23 41  1  0
 24 42  1  0
 25 43  1  0
 26 44  1  0
M  CHG  1  26   1
M  END
>  <UniqueID>  (38) 
35

>  <SMILES>  (38) 
CN(Cc1nc2ncc(-c3ccccc3F)cn2n1)Cc1cccc[nH+]1

>  <Energy>  (38) 
98.89984131576799

>  <Genealogy>  (38) 
CN(Cc1nc2ncc(-c3ccccc3F)cn2n1)Cc1cccc[nH+]1 (protonated)
CN(Cc1nc2ncc(-c3ccccc3F)cn2n1)Cc1cccc[nH+]1 (3D coordinates assigned)
CN(Cc1nc2ncc(-c3ccccc3F)cn2n1)Cc1cccc[nH+]1 (optimized conformer: 98.89984131576799 kcal/mol)

>  <smiles>  (38) 
CN(Cc1ccccn1)Cc1nc2ncc(-c3ccccc3F)cn2n1

>  <score_type>  (38) 
oracle

>  <origin>  (38) 
adg

>  <m_score__min__energy>  (38) 
-6.8200000000000003

>  <m_primary>  (38) 
energy

$$$$
38:0
     RDKit          3D

 43 46  0  0  0  0  0  0  0  0999 V2000
   56.7680   28.1090   45.3210 C   0  0  0  0  0  0  0  0  0  0  0  0
   57.1770   29.5340   45.1400 C   0  0  0  0  0  0  0  0  0  0  0  0
   57.6970   30.2720   46.1030 O   0  0  0  0  0  0  0  0  0  0  0  0
   57.9530   31.4610   45.6050 C   0  0  0  0  0  0  0  0  0  0  0  0
   57.5940   31.5110   44.2820 C   0  0  0  0  0  0  0  0  0  0  0  0
   57.7820   32.6540   43.5080 C   0  0  0  0  0  0  0  0  0  0  0  0
   58.3490   33.7810   44.1250 C   0  0  0  0  0  0  0  0  0  0  0  0
   58.7180   33.7450   45.4920 C   0  0  0  0  0  0  0  0  0  0  0  0
   59.2830   34.8650   46.1040 C   0  0  0  0  0  0  0  0  0  0  0  0
   59.6430   34.8090   47.4500 C   0  0  0  0  0  0  0  0  0  0  0  0
   59.4540   33.6710   48.1880 N   0  0  0  0  0  0  0  0  0  0  0  0
   59.8740   33.6840   49.6020 C   0  0  0  0  0  0  0  0  0  0  0  0
   60.9020   32.5990   49.8690 C   0  0  0  0  0  0  0  0  0  0  0  0
   60.5180   31.5250   50.6940 C   0  0  0  0  0  0  0  0  0  0  0  0
   61.4030   30.4860   50.9780 C   0  0  0  0  0  0  0  0  0  0  0  0
   62.6910   30.5050   50.4540 C   0  0  0  0  0  0  0  0  0  0  0  0
   63.1050   31.5670   49.6520 C   0  0  0  0  0  0  0  0  0  0  0  0
   62.2320   32.6360   49.3530 C   0  0  0  0  0  0  0  0  0  0  0  0
   62.7360   33.7890   48.5030 C   0  0  0  0  0  0  0  0  0  0  0  0
   64.1160   33.7850   48.3930 F   0  0  0  0  0  0  0  0  0  0  0  0
   62.3620   34.9900   49.0780 F   0  0  0  0  0  0  0  0  0  0  0  0
   62.2070   33.7000   47.2290 F   0  0  0  0  0  0  0  0  0  0  0  0
   58.9000   32.5510   47.6140 C   0  0  0  0  0  0  0  0  0  0  0  0
   58.7310   31.5020   48.2980 O   0  0  0  0  0  0  0  0  0  0  0  0
   58.5210   32.5660   46.2580 C   0  0  0  0  0  0  0  0  0  0  0  0
   57.0730   30.2750   43.9640 C   0  0  0  0  0  0  0  0  0  0  0  0
   56.6140   29.7990   42.6210 C   0  0  0  0  0  0  0  0  0  0  0  0
   56.7023   27.8800   46.3949 H   0  0  0  0  0  0  0  0  0  0  0  0
   55.7870   27.9465   44.8507 H   0  0  0  0  0  0  0  0  0  0  0  0
   57.5135   27.4510   44.8507 H   0  0  0  0  0  0  0  0  0  0  0  0
   57.4952   32.6732   42.4462 H   0  0  0  0  0  0  0  0  0  0  0  0
   58.5079   34.6998   43.5415 H   0  0  0  0  0  0  0  0  0  0  0  0
   59.4436   35.7877   45.5271 H   0  0  0  0  0  0  0  0  0  0  0  0
   60.0868   35.6949   47.9276 H   0  0  0  0  0  0  0  0  0  0  0  0
   60.3142   34.6639   49.8385 H   0  0  0  0  0  0  0  0  0  0  0  0
   58.9927   33.4978   50.2334 H   0  0  0  0  0  0  0  0  0  0  0  0
   59.5044   31.5053   51.1210 H   0  0  0  0  0  0  0  0  0  0  0  0
   61.0822   29.6503   51.6172 H   0  0  0  0  0  0  0  0  0  0  0  0
   63.3847   29.6799   50.6730 H   0  0  0  0  0  0  0  0  0  0  0  0
   64.1272   31.5726   49.2458 H   0  0  0  0  0  0  0  0  0  0  0  0
   55.8557   29.0127   42.7502 H   0  0  0  0  0  0  0  0  0  0  0  0
   56.1780   30.6407   42.0630 H   0  0  0  0  0  0  0  0  0  0  0  0
   57.4710   29.3939   42.0630 H   0  0  0  0  0  0  0  0  0  0  0  0
  1  2  1  0
  2  3  1  0
  3  4  1  0
  4  5  2  0
  5  6  1  0
  6  7  2  0
  7  8  1  0
  8  9  1  0
  9 10  2  0
 10 11  1  0
 11 12  1  0
 12 13  1  0
 13 14  2  0
 14 15  1  0
 15 16  2  0
 16 17  1  0
 17 18  2  0
 18 19  1  0
 19 20  1  0
 19 21  1  0
 19 22  1  0
 11 23  1  0
 23 24  2  0
 23 25  1  0
  5 26  1  0
 26 27  1  0
 26  2  2  0
 25  4  1  0
 25  8  2  0
 18 13  1  0
  1 28  1  0
  1 29  1  0
  1 30  1  0
  6 31  1  0
  7 32  1  0
  9 33  1  0
 10 34  1  0
 12 35  1  0
 12 36  1  0
 14 37  1  0
 15 38  1  0
 16 39  1  0
 17 40  1  0
 27 41  1  0
 27 42  1  0
 27 43  1  0
M  END
>  <UniqueID>  (39) 
36

>  <SMILES>  (39) 
Cc1oc2c(ccc3ccn(Cc4ccccc4C(F)(F)F)c(=O)c32)c1C

>  <Energy>  (39) 
90.50304855251693

>  <Genealogy>  (39) 
Cc1oc2c(ccc3ccn(Cc4ccccc4C(F)(F)F)c(=O)c32)c1C (3D coordinates assigned)
Cc1oc2c(ccc3ccn(Cc4ccccc4C(F)(F)F)c(=O)c32)c1C (optimized conformer: 90.50304855251693 kcal/mol)

>  <smiles>  (39) 
Cc1oc2c(ccc3ccn(Cc4ccccc4C(F)(F)F)c(=O)c32)c1C

>  <score_type>  (39) 
oracle

>  <origin>  (39) 
adg

>  <m_score__min__energy>  (39) 
-8.2200000000000006

>  <m_primary>  (39) 
energy

$$$$
39:0
     RDKit          3D

 38 40  0  0  1  0  0  0  0  0999 V2000
   58.8970   31.7870   49.3760 C   0  0  0  0  0  0  0  0  0  0  0  0
   59.5680   30.9920   48.7690 C   0  0  0  0  0  0  0  0  0  0  0  0
   60.3780   30.0470   48.0440 C   0  0  0  0  0  0  0  0  0  0  0  0
   60.4730   30.4050   46.5780 C   0  0  0  0  0  0  0  0  0  0  0  0
   59.1460   30.6230   45.9920 C   0  0  0  0  0  0  0  0  0  0  0  0
   58.2430   29.6190   45.6940 C   0  0  0  0  0  0  0  0  0  0  0  0
   56.9930   29.8880   45.1360 C   0  0  0  0  0  0  0  0  0  0  0  0
   56.1840   28.9370   44.8720 O   0  0  0  0  0  0  0  0  0  0  0  0
   56.6570   31.1440   44.8820 O   0  0  0  0  0  0  0  0  0  0  0  0
   57.4590   32.1360   45.1380 C   0  0  0  0  0  0  0  0  0  0  0  0
   57.0270   33.3870   44.8450 N   0  0  0  0  0  0  0  0  0  0  0  0
   57.8050   34.4620   45.0850 C   0  0  0  0  0  0  0  0  0  0  0  0
   59.0030   34.2500   45.6160 N   0  0  0  0  0  0  0  0  0  0  0  0
   59.4810   33.0330   45.9270 C   0  0  0  0  0  0  0  0  0  0  0  0
   60.6360   32.8910   46.4400 N   0  0  0  0  0  0  0  0  0  0  0  0
   61.6710   33.8370   46.4360 C   0  0  0  0  0  0  0  0  0  0  0  0
   62.4210   33.6830   47.7400 C   0  0  0  0  0  0  0  0  0  0  0  0
   63.7150   33.1470   47.7540 C   0  0  0  0  0  0  0  0  0  0  0  0
   64.3660   33.0420   48.9560 C   0  0  0  0  0  0  0  0  0  0  0  0
   63.8130   33.4380   50.1520 C   0  0  0  0  0  0  0  0  0  0  0  0
   62.5350   33.9680   50.1490 C   0  0  0  0  0  0  0  0  0  0  0  0
   61.8680   34.0760   48.9300 C   0  0  0  0  0  0  0  0  0  0  0  0
   60.6190   34.5980   48.9860 F   0  0  0  0  0  0  0  0  0  0  0  0
   58.7050   31.9200   45.6900 C   0  0  0  0  0  0  0  0  0  0  0  0
   58.2842   32.5131   49.9304 H   0  0  0  0  0  0  0  0  0  0  0  0
   61.3897   30.0387   48.4758 H   0  0  0  0  0  0  0  0  0  0  0  0
   59.9077   29.0560   48.1265 H   0  0  0  0  0  0  0  0  0  0  0  0
   61.0663   31.3253   46.4723 H   0  0  0  0  0  0  0  0  0  0  0  0
   60.9516   29.5682   46.0481 H   0  0  0  0  0  0  0  0  0  0  0  0
   58.5191   28.5750   45.9036 H   0  0  0  0  0  0  0  0  0  0  0  0
   57.4589   35.4791   44.8490 H   0  0  0  0  0  0  0  0  0  0  0  0
   59.6060   35.0730   45.8010 H   0  0  0  0  0  0  0  0  0  0  0  0
   62.3471   33.6527   45.5881 H   0  0  0  0  0  0  0  0  0  0  0  0
   61.2690   34.8558   46.3342 H   0  0  0  0  0  0  0  0  0  0  0  0
   64.1978   32.8179   46.8220 H   0  0  0  0  0  0  0  0  0  0  0  0
   65.3817   32.6198   48.9647 H   0  0  0  0  0  0  0  0  0  0  0  0
   64.3756   33.3353   51.0916 H   0  0  0  0  0  0  0  0  0  0  0  0
   62.0578   34.2956   51.0844 H   0  0  0  0  0  0  0  0  0  0  0  0
  1  2  3  0
  2  3  1  0
  3  4  1  0
  4  5  1  0
  5  6  2  0
  6  7  1  0
  7  8  2  0
  7  9  1  0
  9 10  1  0
 10 11  1  0
 11 12  2  0
 12 13  1  0
 13 14  1  0
 14 15  2  0
 15 16  1  0
 16 17  1  0
 17 18  2  0
 18 19  1  0
 19 20  2  0
 20 21  1  0
 21 22  2  0
 22 23  1  0
 14 24  1  0
 24  5  1  0
 24 10  2  0
 22 17  1  0
  1 25  1  0
  3 26  1  0
  3 27  1  0
  4 28  1  0
  4 29  1  0
  6 30  1  0
 12 31  1  0
 13 32  1  0
 16 33  1  0
 16 34  1  0
 18 35  1  0
 19 36  1  0
 20 37  1  0
 21 38  1  0
M  END
>  <smiles>  (40) 
C#CCCc1cc(=O)oc2nc[nH]c(=NCc3ccccc3F)c12

>  <score_type>  (40) 
oracle

>  <origin>  (40) 
adg

>  <m_score__min__energy>  (40) 
-6.9299999999999997

>  <m_primary>  (40) 
energy

$$$$
40:0
     RDKit          3D

 43 45  0  0  0  0  0  0  0  0999 V2000
   64.7300   32.7800   49.5100 C   0  0  0  0  0  0  0  0  0  0  0  0
   63.4260   31.9860   49.3600 C   0  0  0  0  0  0  0  0  0  0  0  0
   62.3810   32.7090   48.5890 N   0  0  0  0  0  0  0  0  0  0  0  0
   62.6720   32.6010   47.1360 C   0  0  0  0  0  0  0  0  0  0  0  0
   63.3620   33.8440   46.5610 C   0  0  0  0  0  0  0  0  0  0  0  0
   62.1390   34.1060   49.0590 C   0  0  0  0  0  0  0  0  0  0  0  0
   60.6620   34.5490   49.1690 C   0  0  0  0  0  0  0  0  0  0  0  0
   59.8280   33.9590   48.1240 N   0  0  0  0  0  0  0  0  0  0  0  0
   59.3350   32.6170   48.0790 C   0  0  0  0  0  0  0  0  0  0  0  0
   59.3850   31.8090   49.0430 O   0  0  0  0  0  0  0  0  0  0  0  0
   58.8150   32.3190   46.7490 C   0  0  0  0  0  0  0  0  0  0  0  0
   58.2260   31.1630   46.2450 C   0  0  0  0  0  0  0  0  0  0  0  0
   57.8220   31.1580   44.8940 C   0  0  0  0  0  0  0  0  0  0  0  0
   57.2210   30.0200   44.3370 C   0  0  0  0  0  0  0  0  0  0  0  0
   56.8230   30.0190   42.9970 C   0  0  0  0  0  0  0  0  0  0  0  0
   57.0210   31.1510   42.2010 C   0  0  0  0  0  0  0  0  0  0  0  0
   57.6180   32.2950   42.7380 C   0  0  0  0  0  0  0  0  0  0  0  0
   58.0250   32.3160   44.0800 C   0  0  0  0  0  0  0  0  0  0  0  0
   58.6290   33.4670   44.6260 C   0  0  0  0  0  0  0  0  0  0  0  0
   59.0120   33.4350   45.9640 C   0  0  0  0  0  0  0  0  0  0  0  0
   59.6560   34.4500   46.7910 C   0  0  0  0  0  0  0  0  0  0  0  0
   60.0190   35.5910   46.4020 O   0  0  0  0  0  0  0  0  0  0  0  0
   64.9551   32.9170   50.5780 H   0  0  0  0  0  0  0  0  0  0  0  0
   65.5521   32.2290   49.0298 H   0  0  0  0  0  0  0  0  0  0  0  0
   64.6179   33.7633   49.0298 H   0  0  0  0  0  0  0  0  0  0  0  0
   63.6502   31.0414   48.8428 H   0  0  0  0  0  0  0  0  0  0  0  0
   63.0276   31.8210   50.3720 H   0  0  0  0  0  0  0  0  0  0  0  0
   61.4850   32.1860   48.7470 H   0  0  0  0  0  0  0  0  0  0  0  0
   63.3271   31.7322   46.9749 H   0  0  0  0  0  0  0  0  0  0  0  0
   61.7075   32.4950   46.6178 H   0  0  0  0  0  0  0  0  0  0  0  0
   63.7157   34.4812   47.3850 H   0  0  0  0  0  0  0  0  0  0  0  0
   64.2179   33.5353   45.9428 H   0  0  0  0  0  0  0  0  0  0  0  0
   62.6473   34.4071   45.9428 H   0  0  0  0  0  0  0  0  0  0  0  0
   62.5937   34.2071   50.0555 H   0  0  0  0  0  0  0  0  0  0  0  0
   62.5814   34.7540   48.2880 H   0  0  0  0  0  0  0  0  0  0  0  0
   60.2718   34.2399   50.1499 H   0  0  0  0  0  0  0  0  0  0  0  0
   60.6282   35.6420   49.0502 H   0  0  0  0  0  0  0  0  0  0  0  0
   58.0798   30.2785   46.8824 H   0  0  0  0  0  0  0  0  0  0  0  0
   57.0622   29.1251   44.9566 H   0  0  0  0  0  0  0  0  0  0  0  0
   56.3517   29.1230   42.5668 H   0  0  0  0  0  0  0  0  0  0  0  0
   56.7055   31.1413   41.1473 H   0  0  0  0  0  0  0  0  0  0  0  0
   57.7692   33.1823   42.1057 H   0  0  0  0  0  0  0  0  0  0  0  0
   58.7930   34.3649   44.0121 H   0  0  0  0  0  0  0  0  0  0  0  0
  1  2  1  0
  2  3  1  0
  3  4  1  0
  4  5  1  0
  3  6  1  0
  6  7  1  0
  7  8  1  0
  8  9  1  0
  9 10  2  0
  9 11  1  0
 11 12  2  0
 12 13  1  0
 13 14  2  0
 14 15  1  0
 15 16  2  0
 16 17  1  0
 17 18  2  0
 18 19  1  0
 19 20  2  0
 20 21  1  0
 21 22  2  0
 21  8  1  0
 20 11  1  0
 18 13  1  0
  1 23  1  0
  1 24  1  0
  1 25  1  0
  2 26  1  0
  2 27  1  0
  3 28  1  0
  4 29  1  0
  4 30  1  0
  5 31  1  0
  5 32  1  0
  5 33  1  0
  6 34  1  0
  6 35  1  0
  7 36  1  0
  7 37  1  0
 12 38  1  0
 14 39  1  0
 15 40  1  0
 16 41  1  0
 17 42  1  0
 19 43  1  0
M  CHG  1   3   1
M  END
>  <UniqueID>  (41) 
37

>  <SMILES>  (41) 
CC[NH+](CC)CCN1C(=O)c2cc3ccccc3cc2C1=O

>  <Energy>  (41) 
82.84230551209588

>  <Genealogy>  (41) 
CC[NH+](CC)CCN1C(=O)c2cc3ccccc3cc2C1=O (protonated)
CC[NH+](CC)CCN1C(=O)c2cc3ccccc3cc2C1=O (3D coordinates assigned)
CC[NH+](CC)CCN1C(=O)c2cc3ccccc3cc2C1=O (nonaromatic ring conformer: 82.84230551209588 kcal/mol)

>  <smiles>  (41) 
CCN(CC)CCN1C(=O)c2cc3ccccc3cc2C1=O

>  <score_type>  (41) 
oracle

>  <origin>  (41) 
adg

>  <m_score__min__energy>  (41) 
-5.6900000000000004

>  <m_primary>  (41) 
energy

$$$$
41:0
     RDKit          3D

 55 57  0  0  1  0  0  0  0  0999 V2000
   56.5630   20.7880   43.7320 C   0  0  0  0  0  0  0  0  0  0  0  0
   55.8610   21.9760   44.0340 O   0  0  0  0  0  0  0  0  0  0  0  0
   56.5940   23.1290   44.2640 C   0  0  0  0  0  0  0  0  0  0  0  0
   56.6670   24.0350   43.2180 C   0  0  0  0  0  0  0  0  0  0  0  0
   57.3880   25.1910   43.4170 C   0  0  0  0  0  0  0  0  0  0  0  0
   58.0370   25.4830   44.6070 C   0  0  0  0  0  0  0  0  0  0  0  0
   58.9130   26.9870   44.7110 S   0  0  0  0  0  0  0  0  0  0  0  0
   59.2200   27.4400   43.3110 O   0  0  0  0  0  0  0  0  0  0  0  0
   60.2250   26.8190   45.4410 O   0  0  0  0  0  0  0  0  0  0  0  0
   57.9370   28.2130   45.5830 C   0  0  0  0  0  0  0  0  0  0  0  0
   56.5580   27.7610   45.5980 C   0  0  0  0  0  0  0  0  0  0  0  0
   55.6070   28.5840   44.9440 O   0  0  0  0  0  0  0  0  0  0  0  0
   56.0910   26.7020   46.1330 N   0  0  0  0  0  0  0  0  0  0  0  0
   54.7750   26.4570   45.9850 O   0  0  0  0  0  0  0  0  0  0  0  0
   58.6390   28.5960   46.7930 C   0  0  0  0  0  0  0  0  0  0  0  0
   58.3820   30.0370   47.2560 C   0  0  0  0  0  0  0  0  0  0  0  0
   58.8430   30.8880   46.2240 N   0  0  0  0  0  0  0  0  0  0  0  0
   58.7390   32.2760   46.4050 C   0  0  0  0  0  0  0  0  0  0  0  0
   57.9780   33.0460   45.3720 C   0  0  0  0  0  0  0  0  0  0  0  0
   58.0440   34.5130   45.6890 C   0  0  0  0  0  0  0  0  0  0  0  0
   58.7700   34.8280   46.9750 C   0  0  0  0  0  0  0  0  0  0  0  0
   60.1680   34.2900   46.9190 C   0  0  0  0  0  0  0  0  0  0  0  0
   60.1590   32.8580   46.4410 C   0  0  0  0  0  0  0  0  0  0  0  0
   59.0980   30.3510   44.9570 C   0  0  0  0  0  0  0  0  0  0  0  0
   57.9510   29.4170   44.6280 C   0  0  0  0  0  0  0  0  0  0  0  0
   57.9630   24.5790   45.6450 C   0  0  0  0  0  0  0  0  0  0  0  0
   57.2340   23.4010   45.4570 C   0  0  0  0  0  0  0  0  0  0  0  0
   56.8580   20.2887   44.6667 H   0  0  0  0  0  0  0  0  0  0  0  0
   55.9156   20.1182   43.1471 H   0  0  0  0  0  0  0  0  0  0  0  0
   57.4621   21.0320   43.1471 H   0  0  0  0  0  0  0  0  0  0  0  0
   56.1650   23.8370   42.2594 H   0  0  0  0  0  0  0  0  0  0  0  0
   57.4522   25.9171   42.5932 H   0  0  0  0  0  0  0  0  0  0  0  0
   54.7700   28.1630   44.5400 H   0  0  0  0  0  0  0  0  0  0  0  0
   54.3520   26.7160   45.0820 H   0  0  0  0  0  0  0  0  0  0  0  0
   58.3270   27.9163   47.5997 H   0  0  0  0  0  0  0  0  0  0  0  0
   59.7126   28.5309   46.5626 H   0  0  0  0  0  0  0  0  0  0  0  0
   57.3063   30.1943   47.4240 H   0  0  0  0  0  0  0  0  0  0  0  0
   58.9038   30.2460   48.2016 H   0  0  0  0  0  0  0  0  0  0  0  0
   58.1648   32.3874   47.3366 H   0  0  0  0  0  0  0  0  0  0  0  0
   58.4198   32.8651   44.3810 H   0  0  0  0  0  0  0  0  0  0  0  0
   56.9279   32.7186   45.3715 H   0  0  0  0  0  0  0  0  0  0  0  0
   58.5633   35.0228   44.8641 H   0  0  0  0  0  0  0  0  0  0  0  0
   57.0077   34.8601   45.8136 H   0  0  0  0  0  0  0  0  0  0  0  0
   58.8046   35.9183   47.1162 H   0  0  0  0  0  0  0  0  0  0  0  0
   58.2362   34.3600   47.8152 H   0  0  0  0  0  0  0  0  0  0  0  0
   60.7644   34.9006   46.2250 H   0  0  0  0  0  0  0  0  0  0  0  0
   60.6070   34.3283   47.9269 H   0  0  0  0  0  0  0  0  0  0  0  0
   60.5854   32.8185   45.4278 H   0  0  0  0  0  0  0  0  0  0  0  0
   60.7552   32.2595   47.1455 H   0  0  0  0  0  0  0  0  0  0  0  0
   59.1541   31.1568   44.2103 H   0  0  0  0  0  0  0  0  0  0  0  0
   60.0566   29.8115   44.9469 H   0  0  0  0  0  0  0  0  0  0  0  0
   57.0015   29.9642   44.7235 H   0  0  0  0  0  0  0  0  0  0  0  0
   58.0792   29.0497   43.5991 H   0  0  0  0  0  0  0  0  0  0  0  0
   58.4672   24.7804   46.6017 H   0  0  0  0  0  0  0  0  0  0  0  0
   57.1686   22.6732   46.2792 H   0  0  0  0  0  0  0  0  0  0  0  0
  1  2  1  0
  2  3  1  0
  3  4  2  0
  4  5  1  0
  5  6  2  0
  6  7  1  0
  7  8  2  0
  7  9  2  0
  7 10  1  0
 10 11  1  0
 11 12  1  0
 11 13  2  0
 13 14  1  0
 10 15  1  0
 15 16  1  0
 16 17  1  0
 17 18  1  0
 18 19  1  0
 19 20  1  0
 20 21  1  0
 21 22  1  0
 22 23  1  0
 17 24  1  0
 24 25  1  0
  6 26  1  0
 26 27  2  0
 27  3  1  0
 25 10  1  0
 23 18  1  0
  1 28  1  0
  1 29  1  0
  1 30  1  0
  4 31  1  0
  5 32  1  0
 12 33  1  0
 14 34  1  0
 15 35  1  0
 15 36  1  0
 16 37  1  0
 16 38  1  0
 18 39  1  0
 19 40  1  0
 19 41  1  0
 20 42  1  0
 20 43  1  0
 21 44  1  0
 21 45  1  0
 22 46  1  0
 22 47  1  0
 23 48  1  0
 23 49  1  0
 24 50  1  0
 24 51  1  0
 25 52  1  0
 25 53  1  0
 26 54  1  0
 27 55  1  0
M  END
>  <smiles>  (42) 
COc1ccc(S(=O)(=O)C2(C(O)=NO)CCN(C3CCCCC3)CC2)cc1

>  <score_type>  (42) 
oracle

>  <origin>  (42) 
adg

>  <m_score__min__energy>  (42) 
-10.33

>  <m_primary>  (42) 
energy

$$$$
42:0
     RDKit          3D

 53 55  0  0  0  0  0  0  0  0999 V2000
   64.5710   33.7370   51.1270 C   0  0  0  0  0  0  0  0  0  0  0  0
   63.5590   34.6120   50.6420 O   0  0  0  0  0  0  0  0  0  0  0  0
   62.5910   34.2540   49.6920 C   0  0  0  0  0  0  0  0  0  0  0  0
   61.2180   34.2000   49.9950 C   0  0  0  0  0  0  0  0  0  0  0  0
   60.2920   33.8370   49.0130 C   0  0  0  0  0  0  0  0  0  0  0  0
   60.7150   33.5280   47.7090 C   0  0  0  0  0  0  0  0  0  0  0  0
   59.7250   33.1340   46.6710 C   0  0  0  0  0  0  0  0  0  0  0  0
   59.6290   33.8270   45.5220 C   0  0  0  0  0  0  0  0  0  0  0  0
   58.6010   33.5020   44.4720 C   0  0  0  0  0  0  0  0  0  0  0  0
   58.2230   32.0370   44.4780 C   0  0  0  0  0  0  0  0  0  0  0  0
   57.7110   31.4050   43.3260 C   0  0  0  0  0  0  0  0  0  0  0  0
   57.4810   32.3370   41.6640 Br  0  0  0  0  0  0  0  0  0  0  0  0
   57.3330   30.0600   43.3770 C   0  0  0  0  0  0  0  0  0  0  0  0
   57.4250   29.3300   44.5690 C   0  0  0  0  0  0  0  0  0  0  0  0
   57.0130   27.9480   44.5760 N   0  0  0  0  0  0  0  0  0  0  0  0
   57.0090   27.0840   45.7580 C   0  0  0  0  0  0  0  0  0  0  0  0
   58.1890   26.0980   45.7400 C   0  0  0  0  0  0  0  0  0  0  0  0
   59.2390   26.3970   46.8230 C   0  0  0  0  0  0  0  0  0  0  0  0
   59.6770   27.8100   46.7840 N   0  0  0  0  0  0  0  0  0  0  0  0
   60.3600   28.1880   48.0340 C   0  0  0  0  0  0  0  0  0  0  0  0
   60.5810   28.0320   45.6450 C   0  0  0  0  0  0  0  0  0  0  0  0
   57.9140   29.9670   45.7220 C   0  0  0  0  0  0  0  0  0  0  0  0
   58.3150   31.3100   45.6820 C   0  0  0  0  0  0  0  0  0  0  0  0
   58.7660   31.9970   46.9470 C   0  0  0  0  0  0  0  0  0  0  0  0
   62.0900   33.5790   47.4130 C   0  0  0  0  0  0  0  0  0  0  0  0
   63.0150   33.9410   48.3960 C   0  0  0  0  0  0  0  0  0  0  0  0
   64.5644   33.7427   52.2270 H   0  0  0  0  0  0  0  0  0  0  0  0
   64.3780   32.7165   50.7645 H   0  0  0  0  0  0  0  0  0  0  0  0
   65.5529   34.0754   50.7645 H   0  0  0  0  0  0  0  0  0  0  0  0
   60.8716   34.4447   51.0100 H   0  0  0  0  0  0  0  0  0  0  0  0
   59.2218   33.7928   49.2633 H   0  0  0  0  0  0  0  0  0  0  0  0
   60.3256   34.6595   45.3439 H   0  0  0  0  0  0  0  0  0  0  0  0
   57.6986   34.1017   44.6618 H   0  0  0  0  0  0  0  0  0  0  0  0
   59.0363   33.7349   43.4890 H   0  0  0  0  0  0  0  0  0  0  0  0
   56.9578   29.5677   42.4677 H   0  0  0  0  0  0  0  0  0  0  0  0
   56.6620   27.5310   43.6840 H   0  0  0  0  0  0  0  0  0  0  0  0
   57.0808   27.7108   46.6591 H   0  0  0  0  0  0  0  0  0  0  0  0
   56.0746   26.5036   45.7578 H   0  0  0  0  0  0  0  0  0  0  0  0
   57.7992   25.0820   45.9008 H   0  0  0  0  0  0  0  0  0  0  0  0
   58.6860   26.1977   44.7637 H   0  0  0  0  0  0  0  0  0  0  0  0
   58.8029   26.1859   47.8105 H   0  0  0  0  0  0  0  0  0  0  0  0
   60.1163   25.7603   46.6358 H   0  0  0  0  0  0  0  0  0  0  0  0
   59.7603   27.8561   48.8943 H   0  0  0  0  0  0  0  0  0  0  0  0
   61.3497   27.7092   48.0703 H   0  0  0  0  0  0  0  0  0  0  0  0
   60.4798   29.2808   48.0703 H   0  0  0  0  0  0  0  0  0  0  0  0
   61.5862   28.2788   46.0174 H   0  0  0  0  0  0  0  0  0  0  0  0
   60.6306   27.1194   45.0329 H   0  0  0  0  0  0  0  0  0  0  0  0
   60.2022   28.8638   45.0329 H   0  0  0  0  0  0  0  0  0  0  0  0
   57.9830   29.4063   46.6658 H   0  0  0  0  0  0  0  0  0  0  0  0
   57.8829   32.3971   47.4666 H   0  0  0  0  0  0  0  0  0  0  0  0
   59.2926   31.2544   47.5644 H   0  0  0  0  0  0  0  0  0  0  0  0
   62.4394   33.3319   46.3997 H   0  0  0  0  0  0  0  0  0  0  0  0
   64.0861   33.9802   48.1486 H   0  0  0  0  0  0  0  0  0  0  0  0
  1  2  1  0
  2  3  1  0
  3  4  2  0
  4  5  1  0
  5  6  2  0
  6  7  1  0
  7  8  2  0
  8  9  1  0
  9 10  1  0
 10 11  2  0
 11 12  1  0
 11 13  1  0
 13 14  2  0
 14 15  1  0
 15 16  1  0
 16 17  1  0
 17 18  1  0
 18 19  1  0
 19 20  1  0
 19 21  1  0
 14 22  1  0
 22 23  2  0
 23 24  1  0
  6 25  1  0
 25 26  2  0
 26  3  1  0
 24  7  1  0
 23 10  1  0
  1 27  1  0
  1 28  1  0
  1 29  1  0
  4 30  1  0
  5 31  1  0
  8 32  1  0
  9 33  1  0
  9 34  1  0
 13 35  1  0
 15 36  1  0
 16 37  1  0
 16 38  1  0
 17 39  1  0
 17 40  1  0
 18 41  1  0
 18 42  1  0
 20 43  1  0
 20 44  1  0
 20 45  1  0
 21 46  1  0
 21 47  1  0
 21 48  1  0
 22 49  1  0
 24 50  1  0
 24 51  1  0
 25 52  1  0
 26 53  1  0
M  END
>  <UniqueID>  (43) 
38

>  <SMILES>  (43) 
COc1ccc(C2=CCc3c(Br)cc(NCCCN(C)C)cc3C2)cc1

>  <Energy>  (43) 
59.06290398487451

>  <Genealogy>  (43) 
COc1ccc(C2=CCc3c(Br)cc(NCCCN(C)C)cc3C2)cc1 (3D coordinates assigned)
COc1ccc(C2=CCc3c(Br)cc(NCCCN(C)C)cc3C2)cc1 (nonaromatic ring conformer: 59.06290398487451 kcal/mol)

>  <smiles>  (43) 
COc1ccc(C2=CCc3c(Br)cc(NCCCN(C)C)cc3C2)cc1

>  <score_type>  (43) 
oracle

>  <origin>  (43) 
adg

>  <m_score__min__energy>  (43) 
-8.1600000000000001

>  <m_primary>  (43) 
energy

$$$$
43:0
     RDKit          3D

 29 31  0  0  0  0  0  0  0  0999 V2000
   57.0320   34.2200   45.2380 C   0  0  0  0  0  0  0  0  0  0  0  0
   57.9870   33.6240   46.2680 C   0  0  0  0  0  0  0  0  0  0  0  0
   59.0680   32.7740   45.5950 C   0  0  0  0  0  0  0  0  0  0  0  0
   58.7300   31.3580   45.6990 N   0  0  0  0  0  0  0  0  0  0  0  0
   59.3920   30.3980   46.3930 C   0  0  0  0  0  0  0  0  0  0  0  0
   58.7710   29.1860   46.3620 N   0  0  0  0  0  0  0  0  0  0  0  0
   57.6730   29.4300   45.6180 C   0  0  0  0  0  0  0  0  0  0  0  0
   56.6360   28.5740   45.2550 C   0  0  0  0  0  0  0  0  0  0  0  0
   56.6110   27.1550   45.6520 C   0  0  0  0  0  0  0  0  0  0  0  0
   57.7060   26.3150   45.7120 C   0  0  0  0  0  0  0  0  0  0  0  0
   57.2160   25.0950   46.1290 C   0  0  0  0  0  0  0  0  0  0  0  0
   55.8570   25.2650   46.2970 C   0  0  0  0  0  0  0  0  0  0  0  0
   55.5270   26.5020   46.0050 O   0  0  0  0  0  0  0  0  0  0  0  0
   55.6210   29.1040   44.5070 N   0  0  0  0  0  0  0  0  0  0  0  0
   55.6150   30.4230   44.1300 C   0  0  0  0  0  0  0  0  0  0  0  0
   56.6390   31.2520   44.4950 N   0  0  0  0  0  0  0  0  0  0  0  0
   57.6470   30.7270   45.2300 C   0  0  0  0  0  0  0  0  0  0  0  0
   56.2086   34.7339   45.7556 H   0  0  0  0  0  0  0  0  0  0  0  0
   57.5750   34.9398   44.6079 H   0  0  0  0  0  0  0  0  0  0  0  0
   56.6239   33.4160   44.6079 H   0  0  0  0  0  0  0  0  0  0  0  0
   58.4685   34.4409   46.8256 H   0  0  0  0  0  0  0  0  0  0  0  0
   57.4091   32.9790   46.9462 H   0  0  0  0  0  0  0  0  0  0  0  0
   59.1421   33.0533   44.5336 H   0  0  0  0  0  0  0  0  0  0  0  0
   60.0304   32.9521   46.0971 H   0  0  0  0  0  0  0  0  0  0  0  0
   60.3360   30.5804   46.9274 H   0  0  0  0  0  0  0  0  0  0  0  0
   58.7506   26.5666   45.4764 H   0  0  0  0  0  0  0  0  0  0  0  0
   57.7922   24.1727   46.2943 H   0  0  0  0  0  0  0  0  0  0  0  0
   55.1565   24.4831   46.6256 H   0  0  0  0  0  0  0  0  0  0  0  0
   54.7809   30.8161   43.5302 H   0  0  0  0  0  0  0  0  0  0  0  0
  1  2  1  0
  2  3  1  0
  3  4  1  0
  4  5  1  0
  5  6  2  0
  6  7  1  0
  7  8  2  0
  8  9  1  0
  9 10  2  0
 10 11  1  0
 11 12  2  0
 12 13  1  0
  8 14  1  0
 14 15  2  0
 15 16  1  0
 16 17  2  0
 17  4  1  0
 17  7  1  0
 13  9  1  0
  1 18  1  0
  1 19  1  0
  1 20  1  0
  2 21  1  0
  2 22  1  0
  3 23  1  0
  3 24  1  0
  5 25  1  0
 10 26  1  0
 11 27  1  0
 12 28  1  0
 15 29  1  0
M  END
>  <UniqueID>  (44) 
39

>  <SMILES>  (44) 
CCCn1cnc2c(-c3ccco3)ncnc21

>  <Energy>  (44) 
92.06188503287319

>  <Genealogy>  (44) 
CCCn1cnc2c(-c3ccco3)ncnc21 (3D coordinates assigned)
CCCn1cnc2c(-c3ccco3)ncnc21 (optimized conformer: 92.06188503287319 kcal/mol)

>  <smiles>  (44) 
CCCn1cnc2c(-c3ccco3)ncnc21

>  <score_type>  (44) 
oracle

>  <origin>  (44) 
adg

>  <m_score__min__energy>  (44) 
-6.0700000000000003

>  <m_primary>  (44) 
energy

$$$$
44:0
     RDKit          3D

 62 65  0  0  0  0  0  0  0  0999 V2000
   59.6070   33.8460   50.6760 C   0  0  0  0  0  0  0  0  0  0  0  0
   59.8840   34.3620   49.3800 O   0  0  0  0  0  0  0  0  0  0  0  0
   61.0320   34.0590   48.6310 C   0  0  0  0  0  0  0  0  0  0  0  0
   62.3040   33.9560   49.2280 C   0  0  0  0  0  0  0  0  0  0  0  0
   63.4300   33.6760   48.4510 C   0  0  0  0  0  0  0  0  0  0  0  0
   63.3030   33.4960   47.0730 C   0  0  0  0  0  0  0  0  0  0  0  0
   62.0470   33.5910   46.4690 C   0  0  0  0  0  0  0  0  0  0  0  0
   60.9070   33.8680   47.2390 C   0  0  0  0  0  0  0  0  0  0  0  0
   59.6210   33.9460   46.5990 N   0  0  0  0  0  0  0  0  0  0  0  0
   59.5340   34.3720   45.2010 C   0  0  0  0  0  0  0  0  0  0  0  0
   58.1070   34.1800   44.6640 C   0  0  0  0  0  0  0  0  0  0  0  0
   57.5200   32.9010   45.1260 N   0  0  0  0  0  0  0  0  0  0  0  0
   58.2720   31.7340   44.5880 C   0  0  0  0  0  0  0  0  0  0  0  0
   57.3510   30.5400   44.2270 C   0  0  2  0  0  0  0  0  0  0  0  0
   56.0910   30.7340   44.8160 O   0  0  0  0  0  0  0  0  0  0  0  0
   57.9410   29.2070   44.7210 C   0  0  0  0  0  0  0  0  0  0  0  0
   57.6880   29.0220   46.1150 O   0  0  0  0  0  0  0  0  0  0  0  0
   58.6090   29.2190   47.1570 C   0  0  0  0  0  0  0  0  0  0  0  0
   59.0200   28.1000   47.8890 C   0  0  0  0  0  0  0  0  0  0  0  0
   59.9340   28.2280   48.9390 C   0  0  0  0  0  0  0  0  0  0  0  0
   60.4610   29.4870   49.2750 C   0  0  0  0  0  0  0  0  0  0  0  0
   61.4320   29.6270   50.3910 C   0  0  0  0  0  0  0  0  0  0  0  0
   62.0030   30.8790   50.6890 C   0  0  0  0  0  0  0  0  0  0  0  0
   62.9190   31.0070   51.7390 C   0  0  0  0  0  0  0  0  0  0  0  0
   63.2730   29.8920   52.5010 C   0  0  0  0  0  0  0  0  0  0  0  0
   62.7140   28.6450   52.2140 C   0  0  0  0  0  0  0  0  0  0  0  0
   61.7990   28.5100   51.1660 C   0  0  0  0  0  0  0  0  0  0  0  0
   60.0560   30.6110   48.5350 C   0  0  0  0  0  0  0  0  0  0  0  0
   59.1410   30.4810   47.4860 C   0  0  0  0  0  0  0  0  0  0  0  0
   57.3980   32.8460   46.6140 C   0  0  0  0  0  0  0  0  0  0  0  0
   58.3920   33.7500   47.3720 C   0  0  0  0  0  0  0  0  0  0  0  0
   59.9826   34.5456   51.4372 H   0  0  0  0  0  0  0  0  0  0  0  0
   58.5207   33.7214   50.7966 H   0  0  0  0  0  0  0  0  0  0  0  0
   60.1034   32.8718   50.7966 H   0  0  0  0  0  0  0  0  0  0  0  0
   62.4109   34.0971   50.3137 H   0  0  0  0  0  0  0  0  0  0  0  0
   64.4190   33.5972   48.9261 H   0  0  0  0  0  0  0  0  0  0  0  0
   64.1919   33.2793   46.4624 H   0  0  0  0  0  0  0  0  0  0  0  0
   61.9509   33.4477   45.3826 H   0  0  0  0  0  0  0  0  0  0  0  0
   59.8070   35.4352   45.1296 H   0  0  0  0  0  0  0  0  0  0  0  0
   60.2237   33.7605   44.6007 H   0  0  0  0  0  0  0  0  0  0  0  0
   57.4776   35.0102   45.0171 H   0  0  0  0  0  0  0  0  0  0  0  0
   58.1516   34.1619   43.5651 H   0  0  0  0  0  0  0  0  0  0  0  0
   56.5500   32.8770   44.7330 H   0  0  0  0  0  0  0  0  0  0  0  0
   58.8094   32.0498   43.6817 H   0  0  0  0  0  0  0  0  0  0  0  0
   58.9621   31.3939   45.3742 H   0  0  0  0  0  0  0  0  0  0  0  0
   57.2609   30.4926   43.1317 H   0  0  0  0  0  0  0  0  0  0  0  0
   56.0550   30.1510   45.6180 H   0  0  0  0  0  0  0  0  0  0  0  0
   57.4823   28.3801   44.1590 H   0  0  0  0  0  0  0  0  0  0  0  0
   59.0292   29.2239   44.5609 H   0  0  0  0  0  0  0  0  0  0  0  0
   58.6192   27.1075   47.6354 H   0  0  0  0  0  0  0  0  0  0  0  0
   60.2428   27.3375   49.5061 H   0  0  0  0  0  0  0  0  0  0  0  0
   61.7274   31.7615   50.0930 H   0  0  0  0  0  0  0  0  0  0  0  0
   63.3613   31.9886   51.9646 H   0  0  0  0  0  0  0  0  0  0  0  0
   63.9919   29.9958   53.3271 H   0  0  0  0  0  0  0  0  0  0  0  0
   62.9944   27.7668   52.8141 H   0  0  0  0  0  0  0  0  0  0  0  0
   61.3627   27.5247   50.9452 H   0  0  0  0  0  0  0  0  0  0  0  0
   60.4627   31.6024   48.7835 H   0  0  0  0  0  0  0  0  0  0  0  0
   58.8348   31.3694   46.9143 H   0  0  0  0  0  0  0  0  0  0  0  0
   56.3776   33.1535   46.8865 H   0  0  0  0  0  0  0  0  0  0  0  0
   57.6291   31.8117   46.9085 H   0  0  0  0  0  0  0  0  0  0  0  0
   57.9219   34.7278   47.5537 H   0  0  0  0  0  0  0  0  0  0  0  0
   58.6515   33.2633   48.3237 H   0  0  0  0  0  0  0  0  0  0  0  0
  1  2  1  0
  2  3  1  0
  3  4  2  0
  4  5  1  0
  5  6  2  0
  6  7  1  0
  7  8  2  0
  8  9  1  0
  9 10  1  0
 10 11  1  0
 11 12  1  0
 12 13  1  0
 13 14  1  0
 14 15  1  0
 14 16  1  0
 16 17  1  0
 17 18  1  0
 18 19  2  0
 19 20  1  0
 20 21  2  0
 21 22  1  0
 22 23  2  0
 23 24  1  0
 24 25  2  0
 25 26  1  0
 26 27  2  0
 21 28  1  0
 28 29  2  0
 12 30  1  0
 30 31  1  0
  8  3  1  0
 31  9  1  0
 29 18  1  0
 27 22  1  0
  1 32  1  0
  1 33  1  0
  1 34  1  0
  4 35  1  0
  5 36  1  0
  6 37  1  0
  7 38  1  0
 10 39  1  0
 10 40  1  0
 11 41  1  0
 11 42  1  0
 12 43  1  0
 13 44  1  0
 13 45  1  0
 14 46  1  6
 15 47  1  0
 16 48  1  0
 16 49  1  0
 19 50  1  0
 20 51  1  0
 23 52  1  0
 24 53  1  0
 25 54  1  0
 26 55  1  0
 27 56  1  0
 28 57  1  0
 29 58  1  0
 30 59  1  0
 30 60  1  0
 31 61  1  0
 31 62  1  0
M  CHG  1  12   1
M  END
>  <UniqueID>  (45) 
40

>  <SMILES>  (45) 
COc1ccccc1N1CC[NH+](C[C@H](O)COc2ccc(-c3ccccc3)cc2)CC1

>  <Energy>  (45) 
84.56678523327578

>  <Genealogy>  (45) 
COc1ccccc1N1CC[NH+](CC(O)COc2ccc(-c3ccccc3)cc2)CC1 (protonated)
COc1ccccc1N1CC[NH+](C[C@H](O)COc2ccc(-c3ccccc3)cc2)CC1 (chirality)
COc1ccccc1N1CC[NH+](C[C@H](O)COc2ccc(-c3ccccc3)cc2)CC1 (3D coordinates assigned)
COc1ccccc1N1CC[NH+](C[C@H](O)COc2ccc(-c3ccccc3)cc2)CC1 (nonaromatic ring conformer: 84.56678523327578 kcal/mol)

>  <smiles>  (45) 
COc1ccccc1N1CCN(CC(O)COc2ccc(-c3ccccc3)cc2)CC1

>  <score_type>  (45) 
oracle

>  <origin>  (45) 
adg

>  <m_score__min__energy>  (45) 
-5.8399999999999999

>  <m_primary>  (45) 
energy

$$$$
45:0
     RDKit          3D

 41 42  0  0  0  0  0  0  0  0999 V2000
   59.7620   27.3200   47.8650 C   0  0  0  0  0  0  0  0  0  0  0  0
   59.1840   28.1760   46.8870 O   0  0  0  0  0  0  0  0  0  0  0  0
   59.0110   29.5640   47.0340 C   0  0  0  0  0  0  0  0  0  0  0  0
   58.9030   30.1520   48.3050 C   0  0  0  0  0  0  0  0  0  0  0  0
   58.7460   31.5260   48.4400 C   0  0  0  0  0  0  0  0  0  0  0  0
   58.7060   32.3500   47.3130 C   0  0  0  0  0  0  0  0  0  0  0  0
   58.5670   33.7380   47.4780 C   0  0  0  0  0  0  0  0  0  0  0  0
   58.5470   34.5800   46.3670 C   0  0  0  0  0  0  0  0  0  0  0  0
   58.6670   34.0480   45.0870 C   0  0  0  0  0  0  0  0  0  0  0  0
   58.8020   32.6700   44.9040 C   0  0  0  0  0  0  0  0  0  0  0  0
   58.8150   31.7870   46.0110 C   0  0  0  0  0  0  0  0  0  0  0  0
   58.9450   30.3710   45.8730 C   0  0  0  0  0  0  0  0  0  0  0  0
   59.0500   29.6700   44.5280 C   0  0  0  0  0  0  0  0  0  0  0  0
   57.8590   28.8310   44.2810 N   0  0  0  0  0  0  0  0  0  0  0  0
   58.1100   27.3750   44.1900 C   0  0  0  0  0  0  0  0  0  0  0  0
   57.3360   26.5370   45.2200 C   0  0  0  0  0  0  0  0  0  0  0  0
   56.6880   27.3800   46.1340 O   0  0  0  0  0  0  0  0  0  0  0  0
   56.8780   29.3710   43.3080 C   0  0  0  0  0  0  0  0  0  0  0  0
   55.5430   29.8290   43.9300 C   0  0  0  0  0  0  0  0  0  0  0  0
   55.4250   29.3330   45.2350 O   0  0  0  0  0  0  0  0  0  0  0  0
   59.5120   27.6903   48.8702 H   0  0  0  0  0  0  0  0  0  0  0  0
   59.3662   26.3013   47.7406 H   0  0  0  0  0  0  0  0  0  0  0  0
   60.8549   27.3065   47.7406 H   0  0  0  0  0  0  0  0  0  0  0  0
   58.9431   29.5180   49.2030 H   0  0  0  0  0  0  0  0  0  0  0  0
   58.6524   31.9684   49.4428 H   0  0  0  0  0  0  0  0  0  0  0  0
   58.4735   34.1626   48.4884 H   0  0  0  0  0  0  0  0  0  0  0  0
   58.4362   35.6660   46.5025 H   0  0  0  0  0  0  0  0  0  0  0  0
   58.6555   34.7168   44.2138 H   0  0  0  0  0  0  0  0  0  0  0  0
   58.8996   32.2650   43.8859 H   0  0  0  0  0  0  0  0  0  0  0  0
   59.1306   30.4255   43.7325 H   0  0  0  0  0  0  0  0  0  0  0  0
   59.9412   29.0253   44.5343 H   0  0  0  0  0  0  0  0  0  0  0  0
   57.8215   27.0374   43.1836 H   0  0  0  0  0  0  0  0  0  0  0  0
   59.1794   27.2248   44.3995 H   0  0  0  0  0  0  0  0  0  0  0  0
   56.5883   25.9201   44.6999 H   0  0  0  0  0  0  0  0  0  0  0  0
   58.0411   25.8900   45.7625 H   0  0  0  0  0  0  0  0  0  0  0  0
   57.1510   28.2570   46.0890 H   0  0  0  0  0  0  0  0  0  0  0  0
   57.3354   30.2345   42.8028 H   0  0  0  0  0  0  0  0  0  0  0  0
   56.6354   28.5477   42.6200 H   0  0  0  0  0  0  0  0  0  0  0  0
   55.5110   30.9283   43.9542 H   0  0  0  0  0  0  0  0  0  0  0  0
   54.7113   29.4439   43.3217 H   0  0  0  0  0  0  0  0  0  0  0  0
   56.3170   29.4370   45.6600 H   0  0  0  0  0  0  0  0  0  0  0  0
  1  2  1  0
  2  3  1  0
  3  4  2  0
  4  5  1  0
  5  6  2  0
  6  7  1  0
  7  8  2  0
  8  9  1  0
  9 10  2  0
 10 11  1  0
 11 12  2  0
 12 13  1  0
 13 14  1  0
 14 15  1  0
 15 16  1  0
 16 17  1  0
 14 18  1  0
 18 19  1  0
 19 20  1  0
 12  3  1  0
 11  6  1  0
  1 21  1  0
  1 22  1  0
  1 23  1  0
  4 24  1  0
  5 25  1  0
  7 26  1  0
  8 27  1  0
  9 28  1  0
 10 29  1  0
 13 30  1  0
 13 31  1  0
 15 32  1  0
 15 33  1  0
 16 34  1  0
 16 35  1  0
 17 36  1  0
 18 37  1  0
 18 38  1  0
 19 39  1  0
 19 40  1  0
 20 41  1  0
M  END
>  <UniqueID>  (46) 
41

>  <SMILES>  (46) 
COc1ccc2ccccc2c1CN(CCO)CCO

>  <Energy>  (46) 
54.27429172977355

>  <Genealogy>  (46) 
COc1ccc2ccccc2c1CN(CCO)CCO (3D coordinates assigned)
COc1ccc2ccccc2c1CN(CCO)CCO (optimized conformer: 54.27429172977355 kcal/mol)

>  <smiles>  (46) 
COc1ccc2ccccc2c1CN(CCO)CCO

>  <score_type>  (46) 
oracle

>  <origin>  (46) 
adg

>  <m_score__min__energy>  (46) 
-6.3499999999999996

>  <m_primary>  (46) 
energy

$$$$
