0:0
     RDKit          3D

 36 37  0  0  0  0  0  0  0  0999 V2000
   57.0050   30.8360   42.7610 C   0  0  0  0  0  0  0  0  0  0  0  0
   55.9890   30.0020   43.5340 C   0  0  0  0  0  0  0  0  0  0  0  0
   56.3240   29.9740   44.9080 O   0  0  0  0  0  0  0  0  0  0  0  0
   57.6850   29.6380   45.0830 C   0  0  0  0  0  0  0  0  0  0  0  0
   58.1250   29.9710   46.5150 C   0  0  0  0  0  0  0  0  0  0  0  0
   59.1710   31.0200   46.5230 N   0  0  0  0  0  0  0  0  0  0  0  0
   58.9060   32.3260   46.1470 C   0  0  0  0  0  0  0  0  0  0  0  0
   57.5920   32.7800   45.5470 C   0  0  0  0  0  0  0  0  0  0  0  0
   57.6880   34.1620   44.9080 C   0  0  0  0  0  0  0  0  0  0  0  0
   59.8690   33.2770   46.2780 N   0  0  0  0  0  0  0  0  0  0  0  0
   61.1060   32.9920   46.7470 C   0  0  0  0  0  0  0  0  0  0  0  0
   62.0370   33.9800   46.8620 N   0  0  0  0  0  0  0  0  0  0  0  0
   63.2940   33.7200   47.3160 C   0  0  0  0  0  0  0  0  0  0  0  0
   63.6570   32.4200   47.6720 C   0  0  0  0  0  0  0  0  0  0  0  0
   62.7200   31.3920   47.5620 C   0  0  0  0  0  0  0  0  0  0  0  0
   61.4250   31.6740   47.0950 C   0  0  0  0  0  0  0  0  0  0  0  0
   60.4330   30.6890   46.9670 C   0  0  0  0  0  0  0  0  0  0  0  0
   60.7120   29.4920   47.2610 O   0  0  0  0  0  0  0  0  0  0  0  0
   57.6556   31.3701   43.4691 H   0  0  0  0  0  0  0  0  0  0  0  0
   57.6160   30.1755   42.1281 H   0  0  0  0  0  0  0  0  0  0  0  0
   56.4763   31.5640   42.1281 H   0  0  0  0  0  0  0  0  0  0  0  0
   54.9889   30.4437   43.4128 H   0  0  0  0  0  0  0  0  0  0  0  0
   55.9957   28.9743   43.1420 H   0  0  0  0  0  0  0  0  0  0  0  0
   57.8215   28.5619   44.9004 H   0  0  0  0  0  0  0  0  0  0  0  0
   58.2950   30.2158   44.3730 H   0  0  0  0  0  0  0  0  0  0  0  0
   57.2541   30.3282   47.0842 H   0  0  0  0  0  0  0  0  0  0  0  0
   58.5403   29.0610   46.9726 H   0  0  0  0  0  0  0  0  0  0  0  0
   57.2868   32.0559   44.7773 H   0  0  0  0  0  0  0  0  0  0  0  0
   56.8552   32.8389   46.3617 H   0  0  0  0  0  0  0  0  0  0  0  0
   57.7412   34.9275   45.6962 H   0  0  0  0  0  0  0  0  0  0  0  0
   58.5920   34.2152   44.2836 H   0  0  0  0  0  0  0  0  0  0  0  0
   56.8000   34.3397   44.2836 H   0  0  0  0  0  0  0  0  0  0  0  0
   61.7890   34.9610   46.5960 H   0  0  0  0  0  0  0  0  0  0  0  0
   64.0257   34.5368   47.4025 H   0  0  0  0  0  0  0  0  0  0  0  0
   64.6731   32.2078   48.0361 H   0  0  0  0  0  0  0  0  0  0  0  0
   62.9943   30.3637   47.8401 H   0  0  0  0  0  0  0  0  0  0  0  0
  1  2  1  0
  2  3  1  0
  3  4  1  0
  4  5  1  0
  5  6  1  0
  6  7  1  0
  7  8  1  0
  8  9  1  0
  7 10  2  0
 10 11  1  0
 11 12  2  0
 12 13  1  0
 13 14  2  0
 14 15  1  0
 15 16  2  0
 16 17  1  0
 17 18  2  0
 17  6  1  0
 16 11  1  0
  1 19  1  0
  1 20  1  0
  1 21  1  0
  2 22  1  0
  2 23  1  0
  4 24  1  0
  4 25  1  0
  5 26  1  0
  5 27  1  0
  8 28  1  0
  8 29  1  0
  9 30  1  0
  9 31  1  0
  9 32  1  0
 12 33  1  0
 13 34  1  0
 14 35  1  0
 15 36  1  0
M  CHG  1  12   1
M  END
>  <UniqueID>  (1) 
1

>  <SMILES>  (1) 
CCOCCn1c(CC)nc2[nH+]cccc2c1=O

>  <Energy>  (1) 
42.678715927727694

>  <Genealogy>  (1) 
CCOCCn1c(CC)nc2[nH+]cccc2c1=O (protonated)
CCOCCn1c(CC)nc2[nH+]cccc2c1=O (3D coordinates assigned)
CCOCCn1c(CC)nc2[nH+]cccc2c1=O (optimized conformer: 42.678715927727694 kcal/mol)

>  <smiles>  (1) 
CCOCCn1c(CC)nc2ncccc2c1=O

>  <score_type>  (1) 
oracle

>  <origin>  (1) 
adg

>  <m_score__min__energy>  (1) 
-5.1200000000000001

>  <m_primary>  (1) 
energy

$$$$
1:0
     RDKit          3D

 37 39  0  0  0  0  0  0  0  0999 V2000
   53.2070   22.9580   46.4500 C   0  0  0  0  0  0  0  0  0  0  0  0
   53.7920   23.6970   45.3820 O   0  0  0  0  0  0  0  0  0  0  0  0
   55.1320   24.1140   45.3440 C   0  0  0  0  0  0  0  0  0  0  0  0
   56.1840   23.2290   45.0360 C   0  0  0  0  0  0  0  0  0  0  0  0
   57.5030   23.6840   45.0180 C   0  0  0  0  0  0  0  0  0  0  0  0
   57.7890   25.0210   45.3010 C   0  0  0  0  0  0  0  0  0  0  0  0
   56.7530   25.9210   45.5940 C   0  0  0  0  0  0  0  0  0  0  0  0
   57.0810   27.3520   45.9340 C   0  0  0  0  0  0  0  0  0  0  0  0
   56.1530   28.2520   45.2510 N   0  0  0  0  0  0  0  0  0  0  0  0
   56.6170   29.3730   44.4810 C   0  0  0  0  0  0  0  0  0  0  0  0
   56.2400   29.4800   43.1310 C   0  0  0  0  0  0  0  0  0  0  0  0
   56.6250   30.5810   42.3670 C   0  0  0  0  0  0  0  0  0  0  0  0
   57.3890   31.5990   42.9370 C   0  0  0  0  0  0  0  0  0  0  0  0
   57.7830   31.5180   44.2800 C   0  0  0  0  0  0  0  0  0  0  0  0
   58.5600   32.5420   44.8460 C   0  0  0  0  0  0  0  0  0  0  0  0
   58.9710   32.4580   46.1770 C   0  0  0  0  0  0  0  0  0  0  0  0
   58.6190   31.3530   46.9500 C   0  0  0  0  0  0  0  0  0  0  0  0
   57.8440   30.3260   46.4040 C   0  0  0  0  0  0  0  0  0  0  0  0
   57.4020   30.3980   45.0660 C   0  0  0  0  0  0  0  0  0  0  0  0
   55.4240   25.4570   45.6280 C   0  0  0  0  0  0  0  0  0  0  0  0
   54.3850   26.3260   45.9460 O   0  0  0  0  0  0  0  0  0  0  0  0
   53.5390   23.3775   47.4111 H   0  0  0  0  0  0  0  0  0  0  0  0
   52.1109   23.0204   46.3818 H   0  0  0  0  0  0  0  0  0  0  0  0
   53.5193   21.9055   46.3818 H   0  0  0  0  0  0  0  0  0  0  0  0
   55.9648   22.1753   44.8088 H   0  0  0  0  0  0  0  0  0  0  0  0
   58.3201   22.9871   44.7801 H   0  0  0  0  0  0  0  0  0  0  0  0
   58.8319   25.3707   45.2942 H   0  0  0  0  0  0  0  0  0  0  0  0
   56.9960   27.4971   47.0211 H   0  0  0  0  0  0  0  0  0  0  0  0
   58.1075   27.5752   45.6077 H   0  0  0  0  0  0  0  0  0  0  0  0
   55.1450   28.2110   45.5260 H   0  0  0  0  0  0  0  0  0  0  0  0
   55.6338   28.6853   42.6717 H   0  0  0  0  0  0  0  0  0  0  0  0
   56.3250   30.6469   41.3108 H   0  0  0  0  0  0  0  0  0  0  0  0
   57.6834   32.4684   42.3308 H   0  0  0  0  0  0  0  0  0  0  0  0
   58.8455   33.4132   44.2381 H   0  0  0  0  0  0  0  0  0  0  0  0
   59.5742   33.2658   46.6171 H   0  0  0  0  0  0  0  0  0  0  0  0
   58.9531   31.2888   47.9961 H   0  0  0  0  0  0  0  0  0  0  0  0
   57.5769   29.4558   47.0215 H   0  0  0  0  0  0  0  0  0  0  0  0
  1  2  1  0
  2  3  1  0
  3  4  2  0
  4  5  1  0
  5  6  2  0
  6  7  1  0
  7  8  1  0
  8  9  1  0
  9 10  1  0
 10 11  2  0
 11 12  1  0
 12 13  2  0
 13 14  1  0
 14 15  2  0
 15 16  1  0
 16 17  2  0
 17 18  1  0
 18 19  2  0
  7 20  2  0
 20 21  1  0
 20  3  1  0
 19 10  1  0
 19 14  1  0
  1 22  1  0
  1 23  1  0
  1 24  1  0
  4 25  1  0
  5 26  1  0
  6 27  1  0
  8 28  1  0
  8 29  1  0
  9 30  1  0
 11 31  1  0
 12 32  1  0
 13 33  1  0
 15 34  1  0
 16 35  1  0
 17 36  1  0
 18 37  1  0
M  CHG  1  21  -1
M  END
>  <UniqueID>  (2) 
2

>  <SMILES>  (2) 
COc1cccc(CNc2cccc3ccccc23)c1[O-]

>  <Energy>  (2) 
47.56526234041332

>  <Genealogy>  (2) 
COc1cccc(CNc2cccc3ccccc23)c1[O-] (protonated)
COc1cccc(CNc2cccc3ccccc23)c1[O-] (3D coordinates assigned)
COc1cccc(CNc2cccc3ccccc23)c1[O-] (optimized conformer: 47.56526234041332 kcal/mol)

>  <smiles>  (2) 
COc1cccc(CNc2cccc3ccccc23)c1O

>  <score_type>  (2) 
oracle

>  <origin>  (2) 
adg

>  <m_score__min__energy>  (2) 
-11.67

>  <m_primary>  (2) 
energy

$$$$
2:0
     RDKit          3D

 46 47  0  0  0  0  0  0  0  0999 V2000
   55.6650   28.9620   45.1390 N   0  0  0  0  0  0  0  0  0  0  0  0
   56.0000   29.9310   44.1450 C   0  0  0  0  0  0  0  0  0  0  0  0
   55.6110   29.6980   42.7830 N   0  0  0  0  0  0  0  0  0  0  0  0
   56.6470   31.0030   44.5040 N   0  0  0  0  0  0  0  0  0  0  0  0
   58.0960   31.1450   44.6330 C   0  0  0  0  0  0  0  0  0  0  0  0
   58.6060   30.3800   45.8630 C   0  0  0  0  0  0  0  0  0  0  0  0
   58.8570   31.2990   47.0690 C   0  0  0  0  0  0  0  0  0  0  0  0
   58.5850   32.7820   46.7470 C   0  0  0  0  0  0  0  0  0  0  0  0
   59.2610   33.6940   47.6830 N   0  0  0  0  0  0  0  0  0  0  0  0
   60.4570   34.3100   47.0970 C   0  0  0  0  0  0  0  0  0  0  0  0
   61.6770   33.8410   47.8390 C   0  0  0  0  0  0  0  0  0  0  0  0
   61.9100   34.2610   49.1570 C   0  0  0  0  0  0  0  0  0  0  0  0
   63.0250   33.7960   49.8600 C   0  0  0  0  0  0  0  0  0  0  0  0
   63.9220   32.8920   49.2620 C   0  0  0  0  0  0  0  0  0  0  0  0
   65.1050   32.3960   50.0100 C   0  0  0  0  0  0  0  0  0  0  0  0
   66.3140   33.1170   49.9970 C   0  0  0  0  0  0  0  0  0  0  0  0
   67.4260   32.6480   50.7040 C   0  0  0  0  0  0  0  0  0  0  0  0
   67.3440   31.4590   51.4310 C   0  0  0  0  0  0  0  0  0  0  0  0
   66.1510   30.7350   51.4520 C   0  0  0  0  0  0  0  0  0  0  0  0
   65.0360   31.1980   50.7470 C   0  0  0  0  0  0  0  0  0  0  0  0
   63.6730   32.4600   47.9470 C   0  0  0  0  0  0  0  0  0  0  0  0
   62.5580   32.9260   47.2440 C   0  0  0  0  0  0  0  0  0  0  0  0
   55.9400   29.1090   46.1360 H   0  0  0  0  0  0  0  0  0  0  0  0
   55.1440   28.0950   44.8810 H   0  0  0  0  0  0  0  0  0  0  0  0
   55.7780   30.3900   42.0230 H   0  0  0  0  0  0  0  0  0  0  0  0
   55.1170   28.8150   42.5300 H   0  0  0  0  0  0  0  0  0  0  0  0
   58.5805   30.7433   43.7308 H   0  0  0  0  0  0  0  0  0  0  0  0
   58.3389   32.2112   44.7523 H   0  0  0  0  0  0  0  0  0  0  0  0
   57.8562   29.6261   46.1447 H   0  0  0  0  0  0  0  0  0  0  0  0
   59.5660   29.9163   45.5922 H   0  0  0  0  0  0  0  0  0  0  0  0
   58.1960   30.9896   47.8920 H   0  0  0  0  0  0  0  0  0  0  0  0
   59.9176   31.2058   47.3456 H   0  0  0  0  0  0  0  0  0  0  0  0
   58.9423   32.9933   45.7283 H   0  0  0  0  0  0  0  0  0  0  0  0
   57.5019   32.9511   46.8384 H   0  0  0  0  0  0  0  0  0  0  0  0
   58.5950   34.4470   47.9760 H   0  0  0  0  0  0  0  0  0  0  0  0
   60.5375   34.0204   46.0389 H   0  0  0  0  0  0  0  0  0  0  0  0
   60.3801   35.4047   47.1728 H   0  0  0  0  0  0  0  0  0  0  0  0
   61.2114   34.9601   49.6399 H   0  0  0  0  0  0  0  0  0  0  0  0
   63.2027   34.1398   50.8897 H   0  0  0  0  0  0  0  0  0  0  0  0
   66.3846   34.0552   49.4272 H   0  0  0  0  0  0  0  0  0  0  0  0
   68.3671   33.2172   50.6871 H   0  0  0  0  0  0  0  0  0  0  0  0
   68.2195   31.0928   51.9872 H   0  0  0  0  0  0  0  0  0  0  0  0
   66.0879   29.7979   52.0246 H   0  0  0  0  0  0  0  0  0  0  0  0
   64.0987   30.6227   50.7681 H   0  0  0  0  0  0  0  0  0  0  0  0
   64.3617   31.7490   47.4672 H   0  0  0  0  0  0  0  0  0  0  0  0
   62.3707   32.5733   46.2191 H   0  0  0  0  0  0  0  0  0  0  0  0
  1  2  1  0
  2  3  1  0
  2  4  2  3
  4  5  1  0
  5  6  1  0
  6  7  1  0
  7  8  1  0
  8  9  1  0
  9 10  1  0
 10 11  1  0
 11 12  2  0
 12 13  1  0
 13 14  2  0
 14 15  1  0
 15 16  2  0
 16 17  1  0
 17 18  2  0
 18 19  1  0
 19 20  2  0
 14 21  1  0
 21 22  2  0
 22 11  1  0
 20 15  1  0
  1 23  1  0
  1 24  1  0
  3 25  1  0
  3 26  1  0
  5 27  1  0
  5 28  1  0
  6 29  1  0
  6 30  1  0
  7 31  1  0
  7 32  1  0
  8 33  1  0
  8 34  1  0
  9 35  1  0
 10 36  1  0
 10 37  1  0
 12 38  1  0
 13 39  1  0
 16 40  1  0
 17 41  1  0
 18 42  1  0
 19 43  1  0
 20 44  1  0
 21 45  1  0
 22 46  1  0
M  END
>  <UniqueID>  (3) 
3

>  <SMILES>  (3) 
NC(N)=NCCCCNCc1ccc(-c2ccccc2)cc1

>  <Energy>  (3) 
43.83518665458302

>  <Genealogy>  (3) 
NC(N)=NCCCCNCc1ccc(-c2ccccc2)cc1 (3D coordinates assigned)
NC(N)=NCCCCNCc1ccc(-c2ccccc2)cc1 (optimized conformer: 43.83518665458302 kcal/mol)

>  <smiles>  (3) 
NC(N)=NCCCCNCc1ccc(-c2ccccc2)cc1

>  <score_type>  (3) 
oracle

>  <origin>  (3) 
adg

>  <m_score__min__energy>  (3) 
-8.25

>  <m_primary>  (3) 
energy

$$$$
3:0
     RDKit          3D

 37 38  0  0  0  0  0  0  0  0999 V2000
   60.0220   29.4890   46.0190 C   0  0  0  0  0  0  0  0  0  0  0  0
   58.7870   28.7560   46.5430 C   0  0  0  0  0  0  0  0  0  0  0  0
   58.1500   27.8430   45.4870 C   0  0  0  0  0  0  0  0  0  0  0  0
   56.6670   28.0360   45.4090 C   0  0  0  0  0  0  0  0  0  0  0  0
   55.8980   27.1600   45.8890 O   0  0  0  0  0  0  0  0  0  0  0  0
   56.1330   29.2300   44.8270 N   0  0  0  0  0  0  0  0  0  0  0  0
   56.8320   30.0050   43.8090 C   0  0  0  0  0  0  0  0  0  0  0  0
   57.3800   31.2650   44.4130 C   0  0  0  0  0  0  0  0  0  0  0  0
   57.3960   31.4820   45.7530 N   0  0  0  0  0  0  0  0  0  0  0  0
   58.0740   32.6300   45.8990 C   0  0  0  0  0  0  0  0  0  0  0  0
   58.4090   33.2850   47.0820 C   0  0  0  0  0  0  0  0  0  0  0  0
   59.1690   34.4660   46.9800 C   0  0  0  0  0  0  0  0  0  0  0  0
   59.5740   34.9500   45.7160 C   0  0  0  0  0  0  0  0  0  0  0  0
   59.2240   34.2590   44.5410 C   0  0  0  0  0  0  0  0  0  0  0  0
   58.4610   33.0960   44.6750 C   0  0  0  0  0  0  0  0  0  0  0  0
   58.0240   32.2490   43.7200 N   0  0  0  0  0  0  0  0  0  0  0  0
   58.2770   32.3360   42.2770 C   0  0  0  0  0  0  0  0  0  0  0  0
   57.0210   31.9850   41.4910 C   0  0  0  0  0  0  0  0  0  0  0  0
   60.6239   29.8462   46.8676 H   0  0  0  0  0  0  0  0  0  0  0  0
   60.6238   28.8017   45.4062 H   0  0  0  0  0  0  0  0  0  0  0  0
   59.7070   30.3464   45.4062 H   0  0  0  0  0  0  0  0  0  0  0  0
   59.0817   28.1427   47.4073 H   0  0  0  0  0  0  0  0  0  0  0  0
   58.0413   29.5158   46.8198 H   0  0  0  0  0  0  0  0  0  0  0  0
   58.5912   28.0714   44.5056 H   0  0  0  0  0  0  0  0  0  0  0  0
   58.3451   26.7992   45.7740 H   0  0  0  0  0  0  0  0  0  0  0  0
   57.6594   29.4070   43.3995 H   0  0  0  0  0  0  0  0  0  0  0  0
   56.1279   30.2652   43.0050 H   0  0  0  0  0  0  0  0  0  0  0  0
   57.0000   30.8750   46.5060 H   0  0  0  0  0  0  0  0  0  0  0  0
   58.0915   32.8940   48.0599 H   0  0  0  0  0  0  0  0  0  0  0  0
   59.4493   35.0155   47.8907 H   0  0  0  0  0  0  0  0  0  0  0  0
   60.1674   35.8739   45.6497 H   0  0  0  0  0  0  0  0  0  0  0  0
   59.5400   34.6217   43.5518 H   0  0  0  0  0  0  0  0  0  0  0  0
   58.5864   33.3611   42.0253 H   0  0  0  0  0  0  0  0  0  0  0  0
   59.0719   31.6231   42.0125 H   0  0  0  0  0  0  0  0  0  0  0  0
   56.2030   31.7564   42.1900 H   0  0  0  0  0  0  0  0  0  0  0  0
   56.7346   32.8375   40.8576 H   0  0  0  0  0  0  0  0  0  0  0  0
   57.2181   31.1075   40.8576 H   0  0  0  0  0  0  0  0  0  0  0  0
  1  2  1  0
  2  3  1  0
  3  4  1  0
  4  5  2  0
  4  6  1  0
  6  7  1  0
  7  8  1  0
  8  9  2  0
  9 10  1  0
 10 11  2  0
 11 12  1  0
 12 13  2  0
 13 14  1  0
 14 15  2  0
 15 16  1  0
 16 17  1  0
 17 18  1  0
 16  8  1  0
 15 10  1  0
  1 19  1  0
  1 20  1  0
  1 21  1  0
  2 22  1  0
  2 23  1  0
  3 24  1  0
  3 25  1  0
  7 26  1  0
  7 27  1  0
  9 28  1  0
 11 29  1  0
 12 30  1  0
 13 31  1  0
 14 32  1  0
 17 33  1  0
 17 34  1  0
 18 35  1  0
 18 36  1  0
 18 37  1  0
M  CHG  2   6  -1   9   1
M  END
>  <UniqueID>  (4) 
4

>  <SMILES>  (4) 
CCCC(=O)[N-]Cc1[nH+]c2ccccc2n1CC

>  <Energy>  (4) 
62.67036491622163

>  <Genealogy>  (4) 
CCCC(=O)[N-]Cc1[nH+]c2ccccc2n1CC (protonated)
CCCC(=O)[N-]Cc1[nH+]c2ccccc2n1CC (3D coordinates assigned)
CCCC(=O)[N-]Cc1[nH+]c2ccccc2n1CC (optimized conformer: 62.67036491622163 kcal/mol)

>  <smiles>  (4) 
CCCC(=O)NCc1nc2ccccc2n1CC

>  <score_type>  (4) 
oracle

>  <origin>  (4) 
adg

>  <m_score__min__energy>  (4) 
-6.9100000000000001

>  <m_primary>  (4) 
energy

$$$$
4:0
     RDKit          3D

 42 45  0  0  0  0  0  0  0  0999 V2000
   56.6960   30.4710   43.3750 C   0  0  0  0  0  0  0  0  0  0  0  0
   56.6410   31.2160   44.5870 O   0  0  0  0  0  0  0  0  0  0  0  0
   57.7600   31.5400   45.3690 C   0  0  0  0  0  0  0  0  0  0  0  0
   58.6960   30.5740   45.7830 C   0  0  0  0  0  0  0  0  0  0  0  0
   59.7920   30.9470   46.5680 C   0  0  0  0  0  0  0  0  0  0  0  0
   59.9600   32.2820   46.9650 C   0  0  0  0  0  0  0  0  0  0  0  0
   61.1000   32.6810   47.8180 C   0  0  0  0  0  0  0  0  0  0  0  0
   62.3870   32.3500   47.5540 N   0  0  0  0  0  0  0  0  0  0  0  0
   63.0900   32.8300   48.5990 C   0  0  0  0  0  0  0  0  0  0  0  0
   64.4680   32.7280   48.7820 C   0  0  0  0  0  0  0  0  0  0  0  0
   65.0150   33.3050   49.9400 C   0  0  0  0  0  0  0  0  0  0  0  0
   64.1840   33.9600   50.8690 C   0  0  0  0  0  0  0  0  0  0  0  0
   62.8040   34.0310   50.6330 C   0  0  0  0  0  0  0  0  0  0  0  0
   62.3160   33.4520   49.5050 N   0  0  0  0  0  0  0  0  0  0  0  0
   61.0620   33.3820   49.0250 C   0  0  0  0  0  0  0  0  0  0  0  0
   59.9170   33.9690   49.6660 N   0  0  0  0  0  0  0  0  0  0  0  0
   59.1130   33.2900   50.6450 C   0  0  0  0  0  0  0  0  0  0  0  0
   58.5160   32.0630   50.3150 C   0  0  0  0  0  0  0  0  0  0  0  0
   57.7150   31.3950   51.2460 C   0  0  0  0  0  0  0  0  0  0  0  0
   57.5140   31.9390   52.5180 C   0  0  0  0  0  0  0  0  0  0  0  0
   56.7360   31.2900   53.4180 F   0  0  0  0  0  0  0  0  0  0  0  0
   58.1230   33.1480   52.8630 C   0  0  0  0  0  0  0  0  0  0  0  0
   58.9260   33.8190   51.9360 C   0  0  0  0  0  0  0  0  0  0  0  0
   59.0370   33.2470   46.5340 C   0  0  0  0  0  0  0  0  0  0  0  0
   57.9440   32.8750   45.7460 C   0  0  0  0  0  0  0  0  0  0  0  0
   56.7752   29.3987   43.6070 H   0  0  0  0  0  0  0  0  0  0  0  0
   55.7820   30.6532   42.7908 H   0  0  0  0  0  0  0  0  0  0  0  0
   57.5734   30.7855   42.7908 H   0  0  0  0  0  0  0  0  0  0  0  0
   58.5653   29.5223   45.4883 H   0  0  0  0  0  0  0  0  0  0  0  0
   60.5269   30.1887   46.8760 H   0  0  0  0  0  0  0  0  0  0  0  0
   62.7530   31.8120   46.7370 H   0  0  0  0  0  0  0  0  0  0  0  0
   65.1041   32.2142   48.0462 H   0  0  0  0  0  0  0  0  0  0  0  0
   66.0982   33.2448   50.1220 H   0  0  0  0  0  0  0  0  0  0  0  0
   64.6149   34.4130   51.7740 H   0  0  0  0  0  0  0  0  0  0  0  0
   62.1349   34.5413   51.3414 H   0  0  0  0  0  0  0  0  0  0  0  0
   59.6420   34.9340   49.3800 H   0  0  0  0  0  0  0  0  0  0  0  0
   58.6792   31.6251   49.3192 H   0  0  0  0  0  0  0  0  0  0  0  0
   57.2418   30.4391   50.9770 H   0  0  0  0  0  0  0  0  0  0  0  0
   57.9704   33.5729   53.8661 H   0  0  0  0  0  0  0  0  0  0  0  0
   59.4137   34.7642   52.2166 H   0  0  0  0  0  0  0  0  0  0  0  0
   59.1741   34.3010   46.8175 H   0  0  0  0  0  0  0  0  0  0  0  0
   57.2223   33.6382   45.4194 H   0  0  0  0  0  0  0  0  0  0  0  0
  1  2  1  0
  2  3  1  0
  3  4  2  0
  4  5  1  0
  5  6  2  0
  6  7  1  0
  7  8  1  0
  8  9  2  0
  9 10  1  0
 10 11  2  0
 11 12  1  0
 12 13  2  0
 13 14  1  0
 14 15  1  0
 15 16  1  0
 16 17  1  0
 17 18  2  0
 18 19  1  0
 19 20  2  0
 20 21  1  0
 20 22  1  0
 22 23  2  0
  6 24  1  0
 24 25  2  0
 25  3  1  0
 15  7  2  0
 23 17  1  0
 14  9  1  0
  1 26  1  0
  1 27  1  0
  1 28  1  0
  4 29  1  0
  5 30  1  0
  8 31  1  0
 10 32  1  0
 11 33  1  0
 12 34  1  0
 13 35  1  0
 16 36  1  0
 18 37  1  0
 19 38  1  0
 22 39  1  0
 23 40  1  0
 24 41  1  0
 25 42  1  0
M  CHG  1   8   1
M  END
>  <UniqueID>  (5) 
5

>  <SMILES>  (5) 
COc1ccc(-c2[nH+]c3ccccn3c2Nc2ccc(F)cc2)cc1

>  <Energy>  (5) 
91.03432151729385

>  <Genealogy>  (5) 
COc1ccc(-c2[nH+]c3ccccn3c2Nc2ccc(F)cc2)cc1 (protonated)
COc1ccc(-c2[nH+]c3ccccn3c2Nc2ccc(F)cc2)cc1 (3D coordinates assigned)
COc1ccc(-c2[nH+]c3ccccn3c2Nc2ccc(F)cc2)cc1 (optimized conformer: 91.03432151729385 kcal/mol)

>  <smiles>  (5) 
COc1ccc(-c2nc3ccccn3c2Nc2ccc(F)cc2)cc1

>  <score_type>  (5) 
oracle

>  <origin>  (5) 
adg

>  <m_score__min__energy>  (5) 
-5.5

>  <m_primary>  (5) 
energy

$$$$
5:0
     RDKit          3D

 48 50  0  0  0  0  0  0  0  0999 V2000
   64.1370   33.0760   48.4250 C   0  0  0  0  0  0  0  0  0  0  0  0
   62.9050   33.7460   47.8000 C   0  0  0  0  0  0  0  0  0  0  0  0
   61.9790   32.8020   47.1380 N   0  0  0  0  0  0  0  0  0  0  0  0
   61.8350   31.5200   47.8450 C   0  0  0  0  0  0  0  0  0  0  0  0
   61.1450   30.5200   46.9190 C   0  0  0  0  0  0  0  0  0  0  0  0
   59.9130   31.0870   46.3450 N   0  0  0  0  0  0  0  0  0  0  0  0
   59.0010   30.2470   45.5990 C   0  0  0  0  0  0  0  0  0  0  0  0
   58.2850   30.7360   44.4960 C   0  0  0  0  0  0  0  0  0  0  0  0
   57.4200   29.8750   43.8110 C   0  0  0  0  0  0  0  0  0  0  0  0
   56.6030   30.3890   42.6640 C   0  0  0  0  0  0  0  0  0  0  0  0
   57.2700   28.5890   44.2370 N   0  0  0  0  0  0  0  0  0  0  0  0
   57.9790   28.1150   45.3040 C   0  0  0  0  0  0  0  0  0  0  0  0
   57.8310   26.7130   45.7680 C   0  0  0  0  0  0  0  0  0  0  0  0
   56.6360   26.2600   46.3540 C   0  0  0  0  0  0  0  0  0  0  0  0
   56.5120   24.9330   46.7780 C   0  0  0  0  0  0  0  0  0  0  0  0
   57.5710   24.0330   46.6200 C   0  0  0  0  0  0  0  0  0  0  0  0
   57.3960   22.7140   47.0620 O   0  0  0  0  0  0  0  0  0  0  0  0
   57.2390   21.5920   46.1990 C   0  0  0  0  0  0  0  0  0  0  0  0
   58.7650   24.4770   46.0230 C   0  0  0  0  0  0  0  0  0  0  0  0
   58.8900   25.8030   45.5970 C   0  0  0  0  0  0  0  0  0  0  0  0
   58.8240   28.9490   45.9660 N   0  0  0  0  0  0  0  0  0  0  0  0
   59.5000   32.4460   46.7360 C   0  0  0  0  0  0  0  0  0  0  0  0
   60.6930   33.4230   46.7360 C   0  0  0  0  0  0  0  0  0  0  0  0
   64.0603   33.1177   49.5215 H   0  0  0  0  0  0  0  0  0  0  0  0
   64.1876   32.0261   48.1006 H   0  0  0  0  0  0  0  0  0  0  0  0
   65.0457   33.6042   48.1006 H   0  0  0  0  0  0  0  0  0  0  0  0
   62.3549   34.2698   48.5957 H   0  0  0  0  0  0  0  0  0  0  0  0
   63.2745   34.4290   47.0210 H   0  0  0  0  0  0  0  0  0  0  0  0
   62.8281   31.1393   48.1255 H   0  0  0  0  0  0  0  0  0  0  0  0
   61.2340   31.6615   48.7554 H   0  0  0  0  0  0  0  0  0  0  0  0
   61.8321   30.2544   46.1021 H   0  0  0  0  0  0  0  0  0  0  0  0
   60.8774   29.6292   47.5063 H   0  0  0  0  0  0  0  0  0  0  0  0
   58.4018   31.7813   44.1741 H   0  0  0  0  0  0  0  0  0  0  0  0
   55.7315   30.9373   43.0512 H   0  0  0  0  0  0  0  0  0  0  0  0
   57.2173   31.0637   42.0496 H   0  0  0  0  0  0  0  0  0  0  0  0
   56.2607   29.5432   42.0496 H   0  0  0  0  0  0  0  0  0  0  0  0
   56.5780   27.9760   43.7510 H   0  0  0  0  0  0  0  0  0  0  0  0
   55.7923   26.9544   46.4799 H   0  0  0  0  0  0  0  0  0  0  0  0
   55.5730   24.5940   47.2400 H   0  0  0  0  0  0  0  0  0  0  0  0
   57.1115   20.6808   46.8018 H   0  0  0  0  0  0  0  0  0  0  0  0
   56.3526   21.7388   45.5643 H   0  0  0  0  0  0  0  0  0  0  0  0
   58.1316   21.4899   45.5643 H   0  0  0  0  0  0  0  0  0  0  0  0
   59.6040   23.7780   45.8907 H   0  0  0  0  0  0  0  0  0  0  0  0
   59.8250   26.1376   45.1238 H   0  0  0  0  0  0  0  0  0  0  0  0
   58.7424   32.8074   46.0251 H   0  0  0  0  0  0  0  0  0  0  0  0
   59.0912   32.4016   47.7563 H   0  0  0  0  0  0  0  0  0  0  0  0
   60.8074   33.8298   45.7204 H   0  0  0  0  0  0  0  0  0  0  0  0
   60.4681   34.2013   47.4801 H   0  0  0  0  0  0  0  0  0  0  0  0
  1  2  1  0
  2  3  1  0
  3  4  1  0
  4  5  1  0
  5  6  1  0
  6  7  1  0
  7  8  2  0
  8  9  1  0
  9 10  1  0
  9 11  2  0
 11 12  1  0
 12 13  1  0
 13 14  2  0
 14 15  1  0
 15 16  2  0
 16 17  1  0
 17 18  1  0
 16 19  1  0
 19 20  2  0
 12 21  2  0
  6 22  1  0
 22 23  1  0
 23  3  1  0
 21  7  1  0
 20 13  1  0
  1 24  1  0
  1 25  1  0
  1 26  1  0
  2 27  1  0
  2 28  1  0
  4 29  1  0
  4 30  1  0
  5 31  1  0
  5 32  1  0
  8 33  1  0
 10 34  1  0
 10 35  1  0
 10 36  1  0
 11 37  1  0
 14 38  1  0
 15 39  1  0
 18 40  1  0
 18 41  1  0
 18 42  1  0
 19 43  1  0
 20 44  1  0
 22 45  1  0
 22 46  1  0
 23 47  1  0
 23 48  1  0
M  CHG  1  11   1
M  END
>  <UniqueID>  (6) 
6

>  <SMILES>  (6) 
CCN1CCN(c2cc(C)[nH+]c(-c3ccc(OC)cc3)n2)CC1

>  <Energy>  (6) 
59.7716556132005

>  <Genealogy>  (6) 
CCN1CCN(c2cc(C)[nH+]c(-c3ccc(OC)cc3)n2)CC1 (protonated)
CCN1CCN(c2cc(C)[nH+]c(-c3ccc(OC)cc3)n2)CC1 (3D coordinates assigned)
CCN1CCN(c2cc(C)[nH+]c(-c3ccc(OC)cc3)n2)CC1 (nonaromatic ring conformer: 59.7716556132005 kcal/mol)

>  <smiles>  (6) 
CCN1CCN(c2cc(C)nc(-c3ccc(OC)cc3)n2)CC1

>  <score_type>  (6) 
oracle

>  <origin>  (6) 
adg

>  <m_score__min__energy>  (6) 
-5.3600000000000003

>  <m_primary>  (6) 
energy

$$$$
6:0
     RDKit          3D

 49 49  0  0  0  0  0  0  0  0999 V2000
   59.2110   34.6040   45.2960 C   0  0  0  0  0  0  0  0  0  0  0  0
   58.9080   34.0380   46.6810 C   0  0  0  0  0  0  0  0  0  0  0  0
   60.1660   33.6730   47.3700 N   0  0  0  0  0  0  0  0  0  0  0  0
   61.3260   33.7620   46.4540 C   0  0  0  0  0  0  0  0  0  0  0  0
   62.6210   33.4780   47.2110 C   0  0  0  0  0  0  0  0  0  0  0  0
   60.3740   34.4840   48.5950 C   0  0  0  0  0  0  0  0  0  0  0  0
   59.6550   33.8370   49.7770 C   0  0  0  0  0  0  0  0  0  0  0  0
   58.6960   32.9090   49.3080 O   0  0  0  0  0  0  0  0  0  0  0  0
   58.7080   31.7360   50.0990 C   0  0  0  0  0  0  0  0  0  0  0  0
   59.8740   30.8340   49.6770 C   0  0  0  0  0  0  0  0  0  0  0  0
   60.4120   31.2440   48.3700 N   0  0  0  0  0  0  0  0  0  0  0  0
   61.0290   30.1140   47.6450 C   0  0  0  0  0  0  0  0  0  0  0  0
   60.6180   30.0630   46.1630 C   0  0  0  0  0  0  0  0  0  0  0  0
   59.5840   31.0010   45.8640 O   0  0  0  0  0  0  0  0  0  0  0  0
   58.4460   30.7440   45.0830 C   0  0  0  0  0  0  0  0  0  0  0  0
   58.1780   31.4200   43.8750 C   0  0  0  0  0  0  0  0  0  0  0  0
   57.0240   31.1210   43.1430 C   0  0  0  0  0  0  0  0  0  0  0  0
   56.1360   30.1450   43.5990 C   0  0  0  0  0  0  0  0  0  0  0  0
   56.3990   29.4650   44.7900 C   0  0  0  0  0  0  0  0  0  0  0  0
   55.5380   28.5140   45.2320 F   0  0  0  0  0  0  0  0  0  0  0  0
   57.5460   29.7680   45.5310 C   0  0  0  0  0  0  0  0  0  0  0  0
   59.7278   35.5695   45.3995 H   0  0  0  0  0  0  0  0  0  0  0  0
   59.8536   33.9013   44.7453 H   0  0  0  0  0  0  0  0  0  0  0  0
   58.2699   34.7491   44.7453 H   0  0  0  0  0  0  0  0  0  0  0  0
   58.3751   34.7955   47.2745 H   0  0  0  0  0  0  0  0  0  0  0  0
   58.2839   33.1387   46.5727 H   0  0  0  0  0  0  0  0  0  0  0  0
   61.2083   33.0244   45.6465 H   0  0  0  0  0  0  0  0  0  0  0  0
   61.3726   34.7771   46.0328 H   0  0  0  0  0  0  0  0  0  0  0  0
   62.4297   33.5200   48.2934 H   0  0  0  0  0  0  0  0  0  0  0  0
   62.9908   32.4774   46.9425 H   0  0  0  0  0  0  0  0  0  0  0  0
   63.3756   34.2320   46.9425 H   0  0  0  0  0  0  0  0  0  0  0  0
   61.4505   34.5458   48.8127 H   0  0  0  0  0  0  0  0  0  0  0  0
   59.9679   35.4935   48.4335 H   0  0  0  0  0  0  0  0  0  0  0  0
   60.3887   33.3152   50.4090 H   0  0  0  0  0  0  0  0  0  0  0  0
   59.1474   34.6172   50.3631 H   0  0  0  0  0  0  0  0  0  0  0  0
   58.8243   32.0111   51.1577 H   0  0  0  0  0  0  0  0  0  0  0  0
   57.7613   31.1941   49.9576 H   0  0  0  0  0  0  0  0  0  0  0  0
   60.6718   30.9009   50.4314 H   0  0  0  0  0  0  0  0  0  0  0  0
   59.5059   29.8006   49.5958 H   0  0  0  0  0  0  0  0  0  0  0  0
   61.0990   32.0240   48.4960 H   0  0  0  0  0  0  0  0  0  0  0  0
   59.6180   31.6080   47.7900 H   0  0  0  0  0  0  0  0  0  0  0  0
   62.1229   30.2138   47.7035 H   0  0  0  0  0  0  0  0  0  0  0  0
   60.6790   29.1849   48.1187 H   0  0  0  0  0  0  0  0  0  0  0  0
   61.4966   30.2926   45.5423 H   0  0  0  0  0  0  0  0  0  0  0  0
   60.2346   29.0541   45.9504 H   0  0  0  0  0  0  0  0  0  0  0  0
   58.8782   32.1845   43.5072 H   0  0  0  0  0  0  0  0  0  0  0  0
   56.8156   31.6566   42.2051 H   0  0  0  0  0  0  0  0  0  0  0  0
   55.2299   29.9118   43.0206 H   0  0  0  0  0  0  0  0  0  0  0  0
   57.7431   29.2357   46.4732 H   0  0  0  0  0  0  0  0  0  0  0  0
  1  2  1  0
  2  3  1  0
  3  4  1  0
  4  5  1  0
  3  6  1  0
  6  7  1  0
  7  8  1  0
  8  9  1  0
  9 10  1  0
 10 11  1  0
 11 12  1  0
 12 13  1  0
 13 14  1  0
 14 15  1  0
 15 16  2  0
 16 17  1  0
 17 18  2  0
 18 19  1  0
 19 20  1  0
 19 21  2  0
 21 15  1  0
  1 22  1  0
  1 23  1  0
  1 24  1  0
  2 25  1  0
  2 26  1  0
  4 27  1  0
  4 28  1  0
  5 29  1  0
  5 30  1  0
  5 31  1  0
  6 32  1  0
  6 33  1  0
  7 34  1  0
  7 35  1  0
  9 36  1  0
  9 37  1  0
 10 38  1  0
 10 39  1  0
 11 40  1  0
 11 41  1  0
 12 42  1  0
 12 43  1  0
 13 44  1  0
 13 45  1  0
 16 46  1  0
 17 47  1  0
 18 48  1  0
 21 49  1  0
M  CHG  1  11   1
M  END
>  <UniqueID>  (7) 
7

>  <SMILES>  (7) 
CCN(CC)CCOCC[NH2+]CCOc1cccc(F)c1

>  <Energy>  (7) 
41.379999216571115

>  <Genealogy>  (7) 
CCN(CC)CCOCC[NH2+]CCOc1cccc(F)c1 (protonated)
CCN(CC)CCOCC[NH2+]CCOc1cccc(F)c1 (3D coordinates assigned)
CCN(CC)CCOCC[NH2+]CCOc1cccc(F)c1 (optimized conformer: 41.379999216571115 kcal/mol)

>  <smiles>  (7) 
CCN(CC)CCOCCNCCOc1cccc(F)c1

>  <score_type>  (7) 
oracle

>  <origin>  (7) 
adg

>  <m_score__min__energy>  (7) 
-2.9500000000000002

>  <m_primary>  (7) 
energy

$$$$
7:0
     RDKit          3D

 36 37  0  0  0  0  0  0  0  0999 V2000
   58.1720   29.2430   46.6550 C   0  0  0  0  0  0  0  0  0  0  0  0
   57.7690   30.5450   46.2460 O   0  0  0  0  0  0  0  0  0  0  0  0
   57.6570   30.9650   44.9090 C   0  0  0  0  0  0  0  0  0  0  0  0
   57.1040   30.1300   43.9180 C   0  0  0  0  0  0  0  0  0  0  0  0
   56.9880   30.5750   42.6020 C   0  0  0  0  0  0  0  0  0  0  0  0
   57.4270   31.8560   42.2480 C   0  0  0  0  0  0  0  0  0  0  0  0
   57.2580   32.3510   40.8410 C   0  0  0  0  0  0  0  0  0  0  0  0
   57.9610   32.7000   43.2320 C   0  0  0  0  0  0  0  0  0  0  0  0
   58.0980   32.2560   44.5580 C   0  0  0  0  0  0  0  0  0  0  0  0
   58.7840   33.3230   45.8000 S   0  0  0  0  0  0  0  0  0  0  0  0
   59.8710   34.1390   45.1570 O   0  0  0  0  0  0  0  0  0  0  0  0
   57.7020   34.2460   46.2890 O   0  0  0  0  0  0  0  0  0  0  0  0
   59.4500   32.4300   47.1570 N   0  0  0  0  0  0  0  0  0  0  0  0
   58.9660   32.9610   48.4580 C   0  0  0  0  0  0  0  0  0  0  0  0
   59.9980   33.8690   49.1520 C   0  0  0  0  0  0  0  0  0  0  0  0
   60.7330   34.5930   48.1930 O   0  0  0  0  0  0  0  0  0  0  0  0
   61.5860   33.7230   47.4690 C   0  0  0  0  0  0  0  0  0  0  0  0
   60.9250   32.3750   47.0900 C   0  0  0  0  0  0  0  0  0  0  0  0
   58.1877   29.1923   47.7537 H   0  0  0  0  0  0  0  0  0  0  0  0
   57.4619   28.4996   46.2637 H   0  0  0  0  0  0  0  0  0  0  0  0
   59.1779   29.0307   46.2637 H   0  0  0  0  0  0  0  0  0  0  0  0
   56.7612   29.1194   44.1847 H   0  0  0  0  0  0  0  0  0  0  0  0
   56.5493   29.9162   41.8381 H   0  0  0  0  0  0  0  0  0  0  0  0
   56.9026   33.3919   40.8587 H   0  0  0  0  0  0  0  0  0  0  0  0
   58.2237   32.3021   40.3166 H   0  0  0  0  0  0  0  0  0  0  0  0
   56.5238   31.7217   40.3166 H   0  0  0  0  0  0  0  0  0  0  0  0
   58.2756   33.7192   42.9634 H   0  0  0  0  0  0  0  0  0  0  0  0
   59.1130   31.4450   47.0580 H   0  0  0  0  0  0  0  0  0  0  0  0
   58.0489   33.5421   48.2813 H   0  0  0  0  0  0  0  0  0  0  0  0
   58.7828   32.1014   49.1194 H   0  0  0  0  0  0  0  0  0  0  0  0
   59.4743   34.5729   49.8155 H   0  0  0  0  0  0  0  0  0  0  0  0
   60.6892   33.2444   49.7368 H   0  0  0  0  0  0  0  0  0  0  0  0
   61.8948   34.2306   46.5433 H   0  0  0  0  0  0  0  0  0  0  0  0
   62.4380   33.4898   48.1245 H   0  0  0  0  0  0  0  0  0  0  0  0
   61.2221   32.1125   46.0639 H   0  0  0  0  0  0  0  0  0  0  0  0
   61.2648   31.6205   47.8147 H   0  0  0  0  0  0  0  0  0  0  0  0
  1  2  1  0
  2  3  1  0
  3  4  2  0
  4  5  1  0
  5  6  2  0
  6  7  1  0
  6  8  1  0
  8  9  2  0
  9 10  1  0
 10 11  2  0
 10 12  2  0
 10 13  1  0
 13 14  1  0
 14 15  1  0
 15 16  1  0
 16 17  1  0
 17 18  1  0
  9  3  1  0
 18 13  1  0
  1 19  1  0
  1 20  1  0
  1 21  1  0
  4 22  1  0
  5 23  1  0
  7 24  1  0
  7 25  1  0
  7 26  1  0
  8 27  1  0
 13 28  1  0
 14 29  1  0
 14 30  1  0
 15 31  1  0
 15 32  1  0
 17 33  1  0
 17 34  1  0
 18 35  1  0
 18 36  1  0
M  CHG  1  13   1
M  END
>  <UniqueID>  (8) 
8

>  <SMILES>  (8) 
COc1ccc(C)cc1S(=O)(=O)[NH+]1CCOCC1

>  <Energy>  (8) 
46.15899809532853

>  <Genealogy>  (8) 
COc1ccc(C)cc1S(=O)(=O)[NH+]1CCOCC1 (protonated)
COc1ccc(C)cc1S(=O)(=O)[NH+]1CCOCC1 (3D coordinates assigned)
COc1ccc(C)cc1S(=O)(=O)[NH+]1CCOCC1 (nonaromatic ring conformer: 46.15899809532853 kcal/mol)

>  <smiles>  (8) 
COc1ccc(C)cc1S(=O)(=O)N1CCOCC1

>  <score_type>  (8) 
oracle

>  <origin>  (8) 
adg

>  <m_score__min__energy>  (8) 
-5.3799999999999999

>  <m_primary>  (8) 
energy

$$$$
8:0
     RDKit          3D

 63 65  0  0  0  0  0  0  0  0999 V2000
   61.4920   30.8480   47.1510 C   0  0  0  0  0  0  0  0  0  0  0  0
   62.4970   31.2590   48.2340 C   0  0  0  0  0  0  0  0  0  0  0  0
   62.5320   32.7320   48.4480 N   0  0  0  0  0  0  0  0  0  0  0  0
   63.6830   33.3530   47.7380 C   0  0  0  0  0  0  0  0  0  0  0  0
   63.3610   33.8500   46.3210 C   0  0  0  0  0  0  0  0  0  0  0  0
   62.4920   33.0600   49.9020 C   0  0  0  0  0  0  0  0  0  0  0  0
   61.0670   33.1800   50.4660 C   0  0  0  0  0  0  0  0  0  0  0  0
   60.1370   33.1010   49.4030 O   0  0  0  0  0  0  0  0  0  0  0  0
   59.7000   34.3850   49.0030 C   0  0  0  0  0  0  0  0  0  0  0  0
   59.9530   34.5530   47.5020 C   0  0  0  0  0  0  0  0  0  0  0  0
   58.6830   34.7410   46.8050 N   0  0  0  0  0  0  0  0  0  0  0  0
   58.4260   34.1650   45.5170 C   0  0  0  0  0  0  0  0  0  0  0  0
   58.3810   34.9050   44.5030 O   0  0  0  0  0  0  0  0  0  0  0  0
   58.1110   32.7270   45.3890 C   0  0  0  0  0  0  0  0  0  0  0  0
   58.3390   31.8490   46.4610 C   0  0  0  0  0  0  0  0  0  0  0  0
   58.1900   30.4700   46.2910 C   0  0  0  0  0  0  0  0  0  0  0  0
   57.8300   29.9400   45.0400 C   0  0  0  0  0  0  0  0  0  0  0  0
   57.7990   28.4720   44.8250 C   0  0  0  0  0  0  0  0  0  0  0  0
   58.1200   27.9200   43.5740 C   0  0  0  0  0  0  0  0  0  0  0  0
   58.0350   26.5400   43.3640 C   0  0  0  0  0  0  0  0  0  0  0  0
   57.6290   25.6810   44.4000 C   0  0  0  0  0  0  0  0  0  0  0  0
   57.5190   24.2160   44.1720 C   0  0  0  0  0  0  0  0  0  0  0  0
   58.3190   23.3120   44.8980 C   0  0  0  0  0  0  0  0  0  0  0  0
   58.2150   21.9340   44.6760 C   0  0  0  0  0  0  0  0  0  0  0  0
   57.3160   21.4430   43.7250 C   0  0  0  0  0  0  0  0  0  0  0  0
   56.5160   22.3290   43.0000 C   0  0  0  0  0  0  0  0  0  0  0  0
   56.6140   23.7060   43.2210 C   0  0  0  0  0  0  0  0  0  0  0  0
   57.3150   26.2360   45.6530 C   0  0  0  0  0  0  0  0  0  0  0  0
   57.3970   27.6140   45.8630 C   0  0  0  0  0  0  0  0  0  0  0  0
   57.5650   30.8220   43.9790 C   0  0  0  0  0  0  0  0  0  0  0  0
   57.6980   32.2010   44.1540 C   0  0  0  0  0  0  0  0  0  0  0  0
   60.5738   30.4725   47.6263 H   0  0  0  0  0  0  0  0  0  0  0  0
   61.2507   31.7197   46.5249 H   0  0  0  0  0  0  0  0  0  0  0  0
   61.9306   30.0570   46.5249 H   0  0  0  0  0  0  0  0  0  0  0  0
   62.2164   30.7715   49.1793 H   0  0  0  0  0  0  0  0  0  0  0  0
   63.4968   30.9454   47.8993 H   0  0  0  0  0  0  0  0  0  0  0  0
   61.6730   33.1310   48.0020 H   0  0  0  0  0  0  0  0  0  0  0  0
   64.0318   34.2104   48.3323 H   0  0  0  0  0  0  0  0  0  0  0  0
   64.4456   32.5677   47.6295 H   0  0  0  0  0  0  0  0  0  0  0  0
   62.7638   34.7717   46.3826 H   0  0  0  0  0  0  0  0  0  0  0  0
   64.2980   34.0555   45.7827 H   0  0  0  0  0  0  0  0  0  0  0  0
   62.7905   33.0788   45.7827 H   0  0  0  0  0  0  0  0  0  0  0  0
   63.0183   32.2662   50.4523 H   0  0  0  0  0  0  0  0  0  0  0  0
   62.9717   34.0423   50.0248 H   0  0  0  0  0  0  0  0  0  0  0  0
   60.8829   32.3614   51.1773 H   0  0  0  0  0  0  0  0  0  0  0  0
   60.9548   34.1440   50.9838 H   0  0  0  0  0  0  0  0  0  0  0  0
   58.6246   34.4895   49.2096 H   0  0  0  0  0  0  0  0  0  0  0  0
   60.2516   35.1558   49.5613 H   0  0  0  0  0  0  0  0  0  0  0  0
   60.5945   35.4310   47.3356 H   0  0  0  0  0  0  0  0  0  0  0  0
   60.4507   33.6520   47.1141 H   0  0  0  0  0  0  0  0  0  0  0  0
   58.6369   32.2495   47.4412 H   0  0  0  0  0  0  0  0  0  0  0  0
   58.3557   29.7941   47.1428 H   0  0  0  0  0  0  0  0  0  0  0  0
   58.4407   28.5782   42.7531 H   0  0  0  0  0  0  0  0  0  0  0  0
   58.2884   26.1226   42.3783 H   0  0  0  0  0  0  0  0  0  0  0  0
   59.0311   23.6921   45.6453 H   0  0  0  0  0  0  0  0  0  0  0  0
   58.8417   21.2363   45.2508 H   0  0  0  0  0  0  0  0  0  0  0  0
   57.2387   20.3601   43.5478 H   0  0  0  0  0  0  0  0  0  0  0  0
   55.8070   21.9424   42.2532 H   0  0  0  0  0  0  0  0  0  0  0  0
   55.9789   24.3970   42.6472 H   0  0  0  0  0  0  0  0  0  0  0  0
   57.0014   25.5777   46.4766 H   0  0  0  0  0  0  0  0  0  0  0  0
   57.1449   28.0315   46.8490 H   0  0  0  0  0  0  0  0  0  0  0  0
   57.2504   30.4233   43.0032 H   0  0  0  0  0  0  0  0  0  0  0  0
   57.4775   32.8808   43.3178 H   0  0  0  0  0  0  0  0  0  0  0  0
  1  2  1  0
  2  3  1  0
  3  4  1  0
  4  5  1  0
  3  6  1  0
  6  7  1  0
  7  8  1  0
  8  9  1  0
  9 10  1  0
 10 11  1  0
 11 12  1  0
 12 13  2  0
 12 14  1  0
 14 15  2  0
 15 16  1  0
 16 17  2  0
 17 18  1  0
 18 19  2  0
 19 20  1  0
 20 21  2  0
 21 22  1  0
 22 23  2  0
 23 24  1  0
 24 25  2  0
 25 26  1  0
 26 27  2  0
 21 28  1  0
 28 29  2  0
 17 30  1  0
 30 31  2  0
 31 14  1  0
 29 18  1  0
 27 22  1  0
  1 32  1  0
  1 33  1  0
  1 34  1  0
  2 35  1  0
  2 36  1  0
  3 37  1  0
  4 38  1  0
  4 39  1  0
  5 40  1  0
  5 41  1  0
  5 42  1  0
  6 43  1  0
  6 44  1  0
  7 45  1  0
  7 46  1  0
  9 47  1  0
  9 48  1  0
 10 49  1  0
 10 50  1  0
 15 51  1  0
 16 52  1  0
 19 53  1  0
 20 54  1  0
 23 55  1  0
 24 56  1  0
 25 57  1  0
 26 58  1  0
 27 59  1  0
 28 60  1  0
 29 61  1  0
 30 62  1  0
 31 63  1  0
M  CHG  2   3   1  11  -1
M  END
>  <UniqueID>  (9) 
9

>  <SMILES>  (9) 
CC[NH+](CC)CCOCC[N-]C(=O)c1ccc(-c2ccc(-c3ccccc3)cc2)cc1

>  <Energy>  (9) 
77.9296386737962

>  <Genealogy>  (9) 
CC[NH+](CC)CCOCC[N-]C(=O)c1ccc(-c2ccc(-c3ccccc3)cc2)cc1 (protonated)
CC[NH+](CC)CCOCC[N-]C(=O)c1ccc(-c2ccc(-c3ccccc3)cc2)cc1 (3D coordinates assigned)
CC[NH+](CC)CCOCC[N-]C(=O)c1ccc(-c2ccc(-c3ccccc3)cc2)cc1 (optimized conformer: 77.9296386737962 kcal/mol)

>  <smiles>  (9) 
CCN(CC)CCOCCNC(=O)c1ccc(-c2ccc(-c3ccccc3)cc2)cc1

>  <score_type>  (9) 
oracle

>  <origin>  (9) 
adg

>  <m_score__min__energy>  (9) 
-8.2799999999999994

>  <m_primary>  (9) 
energy

$$$$
9:0
     RDKit          3D

 41 43  0  0  0  0  0  0  0  0999 V2000
   59.2150   30.0900   49.7060 C   0  0  0  0  0  0  0  0  0  0  0  0
   58.5610   31.2940   49.0330 C   0  0  0  0  0  0  0  0  0  0  0  0
   58.9650   31.3860   47.6270 N   0  0  0  0  0  0  0  0  0  0  0  0
   59.5830   30.2270   46.9710 C   0  0  0  0  0  0  0  0  0  0  0  0
   61.0730   30.4610   46.7500 C   0  0  0  0  0  0  0  0  0  0  0  0
   58.4100   32.4240   46.8070 C   0  0  0  0  0  0  0  0  0  0  0  0
   58.4840   33.8140   46.7470 C   0  0  0  0  0  0  0  0  0  0  0  0
   59.2020   34.8630   47.4150 N   0  0  0  0  0  0  0  0  0  0  0  0
   60.1380   34.3340   48.3820 C   0  0  0  0  0  0  0  0  0  0  0  0
   59.7180   34.2100   49.7200 C   0  0  0  0  0  0  0  0  0  0  0  0
   60.5790   33.7260   50.7020 C   0  0  0  0  0  0  0  0  0  0  0  0
   61.8770   33.3480   50.3730 C   0  0  0  0  0  0  0  0  0  0  0  0
   62.3270   33.4400   49.0490 C   0  0  0  0  0  0  0  0  0  0  0  0
   63.6310   33.0330   48.7280 C   0  0  0  0  0  0  0  0  0  0  0  0
   64.0840   33.0930   47.4120 C   0  0  0  0  0  0  0  0  0  0  0  0
   63.2400   33.5540   46.4040 C   0  0  0  0  0  0  0  0  0  0  0  0
   61.9390   33.9660   46.7030 C   0  0  0  0  0  0  0  0  0  0  0  0
   61.4590   33.9280   48.0310 C   0  0  0  0  0  0  0  0  0  0  0  0
   57.6540   33.8000   45.6410 C   0  0  0  0  0  0  0  0  0  0  0  0
   57.1740   34.6810   44.8810 O   0  0  0  0  0  0  0  0  0  0  0  0
   57.5850   32.4250   45.6990 C   0  0  0  0  0  0  0  0  0  0  0  0
   57.0090   31.5360   45.0200 O   0  0  0  0  0  0  0  0  0  0  0  0
   59.1538   30.2026   50.7985 H   0  0  0  0  0  0  0  0  0  0  0  0
   58.6920   29.1712   49.4022 H   0  0  0  0  0  0  0  0  0  0  0  0
   60.2704   30.0286   49.4022 H   0  0  0  0  0  0  0  0  0  0  0  0
   57.4675   31.1883   49.0881 H   0  0  0  0  0  0  0  0  0  0  0  0
   58.8834   32.2078   49.5536 H   0  0  0  0  0  0  0  0  0  0  0  0
   59.4477   29.3388   47.6056 H   0  0  0  0  0  0  0  0  0  0  0  0
   59.1010   30.0764   45.9938 H   0  0  0  0  0  0  0  0  0  0  0  0
   61.5799   30.5406   47.7230 H   0  0  0  0  0  0  0  0  0  0  0  0
   61.4965   29.6184   46.1838 H   0  0  0  0  0  0  0  0  0  0  0  0
   61.2178   31.3929   46.1838 H   0  0  0  0  0  0  0  0  0  0  0  0
   59.6570   35.4850   46.7130 H   0  0  0  0  0  0  0  0  0  0  0  0
   58.5040   35.4650   47.9090 H   0  0  0  0  0  0  0  0  0  0  0  0
   58.6930   34.5001   49.9944 H   0  0  0  0  0  0  0  0  0  0  0  0
   60.2313   33.6422   51.7422 H   0  0  0  0  0  0  0  0  0  0  0  0
   62.5534   32.9750   51.1562 H   0  0  0  0  0  0  0  0  0  0  0  0
   64.2994   32.6644   49.5201 H   0  0  0  0  0  0  0  0  0  0  0  0
   65.1089   32.7761   47.1686 H   0  0  0  0  0  0  0  0  0  0  0  0
   63.6005   33.5939   45.3655 H   0  0  0  0  0  0  0  0  0  0  0  0
   61.2820   34.3235   45.8964 H   0  0  0  0  0  0  0  0  0  0  0  0
  1  2  1  0
  2  3  1  0
  3  4  1  0
  4  5  1  0
  3  6  1  0
  6  7  2  0
  7  8  1  0
  8  9  1  0
  9 10  2  0
 10 11  1  0
 11 12  2  0
 12 13  1  0
 13 14  2  0
 14 15  1  0
 15 16  2  0
 16 17  1  0
 17 18  2  0
  7 19  1  0
 19 20  2  0
 19 21  1  0
 21 22  2  0
 21  6  1  0
 18  9  1  0
 18 13  1  0
  1 23  1  0
  1 24  1  0
  1 25  1  0
  2 26  1  0
  2 27  1  0
  4 28  1  0
  4 29  1  0
  5 30  1  0
  5 31  1  0
  5 32  1  0
  8 33  1  0
  8 34  1  0
 10 35  1  0
 11 36  1  0
 12 37  1  0
 14 38  1  0
 15 39  1  0
 16 40  1  0
 17 41  1  0
M  CHG  1   8   1
M  END
>  <UniqueID>  (10) 
10

>  <SMILES>  (10) 
CCN(CC)c1c([NH2+]c2cccc3ccccc23)c(=O)c1=O

>  <Energy>  (10) 
37.166257888740326

>  <Genealogy>  (10) 
CCN(CC)c1c([NH2+]c2cccc3ccccc23)c(=O)c1=O (protonated)
CCN(CC)c1c([NH2+]c2cccc3ccccc23)c(=O)c1=O (3D coordinates assigned)
CCN(CC)c1c([NH2+]c2cccc3ccccc23)c(=O)c1=O (optimized conformer: 37.166257888740326 kcal/mol)

>  <smiles>  (10) 
CCN(CC)c1c(Nc2cccc3ccccc23)c(=O)c1=O

>  <score_type>  (10) 
oracle

>  <origin>  (10) 
adg

>  <m_score__min__energy>  (10) 
-5.8499999999999996

>  <m_primary>  (10) 
energy

$$$$
10:0
     RDKit          3D

 37 40  0  0  0  0  0  0  0  0999 V2000
   64.4280   33.3810   50.4390 C   0  0  0  0  0  0  0  0  0  0  0  0
   64.2910   32.3080   49.3660 C   0  0  0  0  0  0  0  0  0  0  0  0
   63.5350   32.8240   48.2300 N   0  0  0  0  0  0  0  0  0  0  0  0
   62.1950   32.8380   48.1130 C   0  0  0  0  0  0  0  0  0  0  0  0
   61.8760   33.4640   46.9260 C   0  0  0  0  0  0  0  0  0  0  0  0
   60.5190   33.7620   46.4300 C   0  0  0  0  0  0  0  0  0  0  0  0
   59.9840   35.0290   46.2580 C   0  0  0  0  0  0  0  0  0  0  0  0
   58.7310   34.9370   45.7530 N   0  0  0  0  0  0  0  0  0  0  0  0
   58.5360   33.6080   45.6400 C   0  0  0  0  0  0  0  0  0  0  0  0
   57.3760   32.9890   45.1930 C   0  0  0  0  0  0  0  0  0  0  0  0
   57.3370   31.6270   45.1870 N   0  0  0  0  0  0  0  0  0  0  0  0
   58.3930   30.8640   45.6090 C   0  0  0  0  0  0  0  0  0  0  0  0
   58.2770   29.3830   45.5960 C   0  0  0  0  0  0  0  0  0  0  0  0
   59.4400   28.5900   45.5890 C   0  0  0  0  0  0  0  0  0  0  0  0
   59.3470   27.1940   45.5840 C   0  0  0  0  0  0  0  0  0  0  0  0
   58.0960   26.5750   45.5930 C   0  0  0  0  0  0  0  0  0  0  0  0
   56.9340   27.3480   45.6120 C   0  0  0  0  0  0  0  0  0  0  0  0
   55.7190   26.7460   45.6330 F   0  0  0  0  0  0  0  0  0  0  0  0
   57.0200   28.7450   45.6160 C   0  0  0  0  0  0  0  0  0  0  0  0
   59.5590   31.5140   46.0720 C   0  0  0  0  0  0  0  0  0  0  0  0
   59.5850   32.8730   46.0420 N   0  0  0  0  0  0  0  0  0  0  0  0
   63.0910   33.8410   46.3800 C   0  0  0  0  0  0  0  0  0  0  0  0
   64.0880   33.4410   47.1970 N   0  0  0  0  0  0  0  0  0  0  0  0
   64.3685   32.9147   51.4335 H   0  0  0  0  0  0  0  0  0  0  0  0
   65.3981   33.8877   50.3291 H   0  0  0  0  0  0  0  0  0  0  0  0
   63.6163   34.1152   50.3291 H   0  0  0  0  0  0  0  0  0  0  0  0
   65.2922   32.0029   49.0276 H   0  0  0  0  0  0  0  0  0  0  0  0
   63.7576   31.4440   49.7890 H   0  0  0  0  0  0  0  0  0  0  0  0
   61.4788   32.4228   48.8373 H   0  0  0  0  0  0  0  0  0  0  0  0
   60.5009   35.9702   46.4965 H   0  0  0  0  0  0  0  0  0  0  0  0
   56.5134   33.5812   44.8535 H   0  0  0  0  0  0  0  0  0  0  0  0
   60.4291   29.0714   45.5875 H   0  0  0  0  0  0  0  0  0  0  0  0
   60.2616   26.5830   45.5730 H   0  0  0  0  0  0  0  0  0  0  0  0
   58.0258   25.4773   45.5851 H   0  0  0  0  0  0  0  0  0  0  0  0
   56.1009   29.3490   45.6349 H   0  0  0  0  0  0  0  0  0  0  0  0
   60.4189   30.9384   46.4451 H   0  0  0  0  0  0  0  0  0  0  0  0
   63.2229   34.3810   45.4308 H   0  0  0  0  0  0  0  0  0  0  0  0
  1  2  1  0
  2  3  1  0
  3  4  1  0
  4  5  2  0
  5  6  1  0
  6  7  2  0
  7  8  1  0
  8  9  2  0
  9 10  1  0
 10 11  2  0
 11 12  1  0
 12 13  1  0
 13 14  2  0
 14 15  1  0
 15 16  2  0
 16 17  1  0
 17 18  1  0
 17 19  2  0
 12 20  2  0
 20 21  1  0
  5 22  1  0
 22 23  2  0
 23  3  1  0
 21  6  1  0
 21  9  1  0
 19 13  1  0
  1 24  1  0
  1 25  1  0
  1 26  1  0
  2 27  1  0
  2 28  1  0
  4 29  1  0
  7 30  1  0
 10 31  1  0
 14 32  1  0
 15 33  1  0
 16 34  1  0
 19 35  1  0
 20 36  1  0
 22 37  1  0
M  END
>  <UniqueID>  (11) 
11

>  <SMILES>  (11) 
CCn1cc(-c2cnc3cnc(-c4cccc(F)c4)cn23)cn1

>  <Energy>  (11) 
111.36854066188098

>  <Genealogy>  (11) 
CCn1cc(-c2cnc3cnc(-c4cccc(F)c4)cn23)cn1 (3D coordinates assigned)
CCn1cc(-c2cnc3cnc(-c4cccc(F)c4)cn23)cn1 (optimized conformer: 111.36854066188098 kcal/mol)

>  <smiles>  (11) 
CCn1cc(-c2cnc3cnc(-c4cccc(F)c4)cn23)cn1

>  <score_type>  (11) 
oracle

>  <origin>  (11) 
adg

>  <m_score__min__energy>  (11) 
-7.4900000000000002

>  <m_primary>  (11) 
energy

$$$$
11:0
     RDKit          3D

 35 36  0  0  0  0  0  0  0  0999 V2000
   60.6000   29.4120   45.8980 C   0  0  0  0  0  0  0  0  0  0  0  0
   59.9690   28.2340   45.1570 C   0  0  0  0  0  0  0  0  0  0  0  0
   58.5760   28.0220   45.6130 N   0  0  0  0  0  0  0  0  0  0  0  0
   58.4960   26.8240   46.4820 C   0  0  0  0  0  0  0  0  0  0  0  0
   57.1260   26.1490   46.3990 C   0  0  0  0  0  0  0  0  0  0  0  0
   57.6400   27.9350   44.4640 C   0  0  0  0  0  0  0  0  0  0  0  0
   56.7110   29.1150   44.4750 C   0  0  0  0  0  0  0  0  0  0  0  0
   55.5210   28.9550   44.8630 O   0  0  0  0  0  0  0  0  0  0  0  0
   57.1330   30.4070   44.0140 N   0  0  0  0  0  0  0  0  0  0  0  0
   57.0200   30.8480   42.7380 C   0  0  0  0  0  0  0  0  0  0  0  0
   57.5480   32.1270   42.6110 C   0  0  0  0  0  0  0  0  0  0  0  0
   57.9830   32.4680   43.8730 C   0  0  0  0  0  0  0  0  0  0  0  0
   58.5630   33.6470   44.3330 C   0  0  0  0  0  0  0  0  0  0  0  0
   58.8660   33.7410   45.7030 C   0  0  0  0  0  0  0  0  0  0  0  0
   59.6600   35.3340   46.3930 Br  0  0  0  0  0  0  0  0  0  0  0  0
   58.5680   32.6680   46.5730 C   0  0  0  0  0  0  0  0  0  0  0  0
   57.9780   31.4910   46.0800 C   0  0  0  0  0  0  0  0  0  0  0  0
   57.7150   31.4110   44.7080 C   0  0  0  0  0  0  0  0  0  0  0  0
   60.5139   29.2513   46.9828 H   0  0  0  0  0  0  0  0  0  0  0  0
   61.6619   29.4923   45.6223 H   0  0  0  0  0  0  0  0  0  0  0  0
   60.0784   30.3404   45.6223 H   0  0  0  0  0  0  0  0  0  0  0  0
   59.9687   28.4436   44.0772 H   0  0  0  0  0  0  0  0  0  0  0  0
   60.5544   27.3266   45.3664 H   0  0  0  0  0  0  0  0  0  0  0  0
   59.2664   26.1046   46.1675 H   0  0  0  0  0  0  0  0  0  0  0  0
   58.6546   27.1461   47.5217 H   0  0  0  0  0  0  0  0  0  0  0  0
   56.7471   25.9623   47.4147 H   0  0  0  0  0  0  0  0  0  0  0  0
   56.4259   26.8053   45.8613 H   0  0  0  0  0  0  0  0  0  0  0  0
   57.2198   25.1940   45.8613 H   0  0  0  0  0  0  0  0  0  0  0  0
   58.2134   27.9302   43.5253 H   0  0  0  0  0  0  0  0  0  0  0  0
   57.0520   27.0087   44.5435 H   0  0  0  0  0  0  0  0  0  0  0  0
   56.5715   30.2722   41.9150 H   0  0  0  0  0  0  0  0  0  0  0  0
   57.6063   32.7372   41.6976 H   0  0  0  0  0  0  0  0  0  0  0  0
   58.7776   34.4791   43.6463 H   0  0  0  0  0  0  0  0  0  0  0  0
   58.7996   32.7544   47.6449 H   0  0  0  0  0  0  0  0  0  0  0  0
   57.7303   30.6571   46.7533 H   0  0  0  0  0  0  0  0  0  0  0  0
  1  2  1  0
  2  3  1  0
  3  4  1  0
  4  5  1  0
  3  6  1  0
  6  7  1  0
  7  8  2  0
  7  9  1  0
  9 10  1  0
 10 11  2  0
 11 12  1  0
 12 13  2  0
 13 14  1  0
 14 15  1  0
 14 16  2  0
 16 17  1  0
 17 18  2  0
 18  9  1  0
 18 12  1  0
  1 19  1  0
  1 20  1  0
  1 21  1  0
  2 22  1  0
  2 23  1  0
  4 24  1  0
  4 25  1  0
  5 26  1  0
  5 27  1  0
  5 28  1  0
  6 29  1  0
  6 30  1  0
 10 31  1  0
 11 32  1  0
 13 33  1  0
 16 34  1  0
 17 35  1  0
M  END
>  <UniqueID>  (12) 
12

>  <SMILES>  (12) 
CCN(CC)CC(=O)n1ccc2cc(Br)ccc21

>  <Energy>  (12) 
71.30104542538703

>  <Genealogy>  (12) 
CCN(CC)CC(=O)n1ccc2cc(Br)ccc21 (3D coordinates assigned)
CCN(CC)CC(=O)n1ccc2cc(Br)ccc21 (optimized conformer: 71.30104542538703 kcal/mol)

>  <smiles>  (12) 
CCN(CC)CC(=O)n1ccc2cc(Br)ccc21

>  <score_type>  (12) 
oracle

>  <origin>  (12) 
adg

>  <m_score__min__energy>  (12) 
-6.8600000000000003

>  <m_primary>  (12) 
energy

$$$$
12:0
     RDKit          3D

 50 53  0  0  0  0  0  0  0  0999 V2000
   57.1030   34.5750   44.8600 C   0  0  0  0  0  0  0  0  0  0  0  0
   58.0750   33.5920   45.4600 C   0  0  0  0  0  0  0  0  0  0  0  0
   57.7860   32.2200   45.3930 C   0  0  0  0  0  0  0  0  0  0  0  0
   58.6680   31.2710   45.9280 C   0  0  0  0  0  0  0  0  0  0  0  0
   58.3830   29.9410   45.8390 N   0  0  0  0  0  0  0  0  0  0  0  0
   59.2400   29.0030   46.3400 C   0  0  0  0  0  0  0  0  0  0  0  0
   58.9480   27.5530   46.2270 C   0  0  0  0  0  0  0  0  0  0  0  0
   59.9840   26.6070   46.1010 C   0  0  0  0  0  0  0  0  0  0  0  0
   59.6890   25.2430   46.0090 C   0  0  0  0  0  0  0  0  0  0  0  0
   58.3640   24.8070   46.0490 C   0  0  0  0  0  0  0  0  0  0  0  0
   57.3290   25.7330   46.1870 C   0  0  0  0  0  0  0  0  0  0  0  0
   57.6170   27.0990   46.2800 C   0  0  0  0  0  0  0  0  0  0  0  0
   60.3720   29.4050   46.9740 N   0  0  0  0  0  0  0  0  0  0  0  0
   60.7000   30.7150   47.1110 C   0  0  0  0  0  0  0  0  0  0  0  0
   61.8910   31.0580   47.8380 N   0  0  0  0  0  0  0  0  0  0  0  0
   63.0500   31.6130   47.1330 C   0  0  0  0  0  0  0  0  0  0  0  0
   63.4940   32.8950   47.8410 C   0  0  0  0  0  0  0  0  0  0  0  0
   63.8480   32.6630   49.2640 N   0  0  0  0  0  0  0  0  0  0  0  0
   63.6010   33.8730   50.0640 C   0  0  0  0  0  0  0  0  0  0  0  0
   63.2150   31.4690   49.8820 C   0  0  0  0  0  0  0  0  0  0  0  0
   61.8290   31.1560   49.2990 C   0  0  0  0  0  0  0  0  0  0  0  0
   59.8550   31.6980   46.5590 C   0  0  0  0  0  0  0  0  0  0  0  0
   60.1670   33.0680   46.5920 C   0  0  0  0  0  0  0  0  0  0  0  0
   59.2940   34.0180   46.0370 C   0  0  0  0  0  0  0  0  0  0  0  0
   59.6610   35.4780   46.1030 C   0  0  0  0  0  0  0  0  0  0  0  0
   56.5762   35.1078   45.6654 H   0  0  0  0  0  0  0  0  0  0  0  0
   57.6503   35.2989   44.2383 H   0  0  0  0  0  0  0  0  0  0  0  0
   56.3730   34.0359   44.2383 H   0  0  0  0  0  0  0  0  0  0  0  0
   56.8542   31.8849   44.9139 H   0  0  0  0  0  0  0  0  0  0  0  0
   57.4860   29.6420   45.3950 H   0  0  0  0  0  0  0  0  0  0  0  0
   61.0311   26.9430   46.0748 H   0  0  0  0  0  0  0  0  0  0  0  0
   60.5040   24.5116   45.9048 H   0  0  0  0  0  0  0  0  0  0  0  0
   58.1354   23.7338   45.9718 H   0  0  0  0  0  0  0  0  0  0  0  0
   56.2850   25.3883   46.2227 H   0  0  0  0  0  0  0  0  0  0  0  0
   56.7972   27.8233   46.3954 H   0  0  0  0  0  0  0  0  0  0  0  0
   63.8723   30.8824   47.1422 H   0  0  0  0  0  0  0  0  0  0  0  0
   62.7796   31.8375   46.0907 H   0  0  0  0  0  0  0  0  0  0  0  0
   64.3740   33.2997   47.3196 H   0  0  0  0  0  0  0  0  0  0  0  0
   62.6506   33.6007   47.8163 H   0  0  0  0  0  0  0  0  0  0  0  0
   63.6522   33.6221   51.1338 H   0  0  0  0  0  0  0  0  0  0  0  0
   64.3631   34.6304   49.8281 H   0  0  0  0  0  0  0  0  0  0  0  0
   62.6031   34.2711   49.8281 H   0  0  0  0  0  0  0  0  0  0  0  0
   63.8692   30.6003   49.7168 H   0  0  0  0  0  0  0  0  0  0  0  0
   63.0811   31.6842   50.9524 H   0  0  0  0  0  0  0  0  0  0  0  0
   61.4719   30.2002   49.7101 H   0  0  0  0  0  0  0  0  0  0  0  0
   61.1398   31.9695   49.5697 H   0  0  0  0  0  0  0  0  0  0  0  0
   61.1063   33.4002   47.0582 H   0  0  0  0  0  0  0  0  0  0  0  0
   59.7392   35.7892   47.1552 H   0  0  0  0  0  0  0  0  0  0  0  0
   60.6269   35.6363   45.6010 H   0  0  0  0  0  0  0  0  0  0  0  0
   58.8848   36.0742   45.6010 H   0  0  0  0  0  0  0  0  0  0  0  0
  1  2  1  0
  2  3  2  0
  3  4  1  0
  4  5  2  0
  5  6  1  0
  6  7  1  0
  7  8  2  0
  8  9  1  0
  9 10  2  0
 10 11  1  0
 11 12  2  0
  6 13  2  0
 13 14  1  0
 14 15  1  0
 15 16  1  0
 16 17  1  0
 17 18  1  0
 18 19  1  0
 18 20  1  0
 20 21  1  0
 14 22  2  0
 22 23  1  0
 23 24  2  0
 24 25  1  0
 24  2  1  0
 22  4  1  0
 12  7  1  0
 21 15  1  0
  1 26  1  0
  1 27  1  0
  1 28  1  0
  3 29  1  0
  5 30  1  0
  8 31  1  0
  9 32  1  0
 10 33  1  0
 11 34  1  0
 12 35  1  0
 16 36  1  0
 16 37  1  0
 17 38  1  0
 17 39  1  0
 19 40  1  0
 19 41  1  0
 19 42  1  0
 20 43  1  0
 20 44  1  0
 21 45  1  0
 21 46  1  0
 23 47  1  0
 25 48  1  0
 25 49  1  0
 25 50  1  0
M  CHG  1   5   1
M  END
>  <UniqueID>  (13) 
13

>  <SMILES>  (13) 
Cc1cc2[nH+]c(-c3ccccc3)nc(N3CCN(C)CC3)c2cc1C

>  <Energy>  (13) 
72.92113891187321

>  <Genealogy>  (13) 
Cc1cc2[nH+]c(-c3ccccc3)nc(N3CCN(C)CC3)c2cc1C (protonated)
Cc1cc2[nH+]c(-c3ccccc3)nc(N3CCN(C)CC3)c2cc1C (3D coordinates assigned)
Cc1cc2[nH+]c(-c3ccccc3)nc(N3CCN(C)CC3)c2cc1C (nonaromatic ring conformer: 72.92113891187321 kcal/mol)

>  <smiles>  (13) 
Cc1cc2nc(-c3ccccc3)nc(N3CCN(C)CC3)c2cc1C

>  <score_type>  (13) 
oracle

>  <origin>  (13) 
adg

>  <m_score__min__energy>  (13) 
-6.1699999999999999

>  <m_primary>  (13) 
energy

$$$$
13:0
     RDKit          3D

 48 50  0  0  0  0  0  0  0  0999 V2000
   55.8910   22.7930   47.9860 C   0  0  0  0  0  0  0  0  0  0  0  0
   56.6080   24.1330   47.8510 C   0  0  0  0  0  0  0  0  0  0  0  0
   55.9430   24.9670   46.9040 O   0  0  0  0  0  0  0  0  0  0  0  0
   56.5650   25.7350   45.9040 C   0  0  0  0  0  0  0  0  0  0  0  0
   56.6010   27.1430   45.9430 C   0  0  0  0  0  0  0  0  0  0  0  0
   57.2550   27.8720   44.9360 C   0  0  0  0  0  0  0  0  0  0  0  0
   57.2920   29.3550   44.9810 C   0  0  0  0  0  0  0  0  0  0  0  0
   58.4060   30.0120   45.5240 C   0  0  0  0  0  0  0  0  0  0  0  0
   58.4420   31.4090   45.5550 C   0  0  0  0  0  0  0  0  0  0  0  0
   59.5410   32.1030   46.0830 C   0  0  0  0  0  0  0  0  0  0  0  0
   59.5410   33.5020   46.0930 C   0  0  0  0  0  0  0  0  0  0  0  0
   58.4500   34.2100   45.5790 C   0  0  0  0  0  0  0  0  0  0  0  0
   57.3510   33.5220   45.0510 C   0  0  0  0  0  0  0  0  0  0  0  0
   57.3420   32.1220   45.0370 C   0  0  0  0  0  0  0  0  0  0  0  0
   56.2960   31.4710   44.5370 O   0  0  0  0  0  0  0  0  0  0  0  0
   56.2280   30.1440   44.4930 C   0  0  0  0  0  0  0  0  0  0  0  0
   55.1900   29.6030   44.0250 O   0  0  0  0  0  0  0  0  0  0  0  0
   57.8600   27.1830   43.8740 C   0  0  0  0  0  0  0  0  0  0  0  0
   57.8200   25.7890   43.8240 C   0  0  0  0  0  0  0  0  0  0  0  0
   57.1710   25.0630   44.8290 C   0  0  0  0  0  0  0  0  0  0  0  0
   57.1420   23.6300   44.7650 N   0  0  0  0  0  0  0  0  0  0  0  0
   58.3060   22.8500   45.1910 C   0  0  0  0  0  0  0  0  0  0  0  0
   58.6930   21.8350   44.1210 C   0  0  0  0  0  0  0  0  0  0  0  0
   55.7300   22.8160   44.1570 S   0  0  0  0  0  0  0  0  0  0  0  0
   54.2630   23.7790   44.4650 C   0  0  0  0  0  0  0  0  0  0  0  0
   55.8640   22.6220   42.6720 O   0  0  0  0  0  0  0  0  0  0  0  0
   55.5950   21.4790   44.8290 O   0  0  0  0  0  0  0  0  0  0  0  0
   55.7620   22.5519   49.0515 H   0  0  0  0  0  0  0  0  0  0  0  0
   54.9051   22.8542   47.5019 H   0  0  0  0  0  0  0  0  0  0  0  0
   56.4889   22.0068   47.5019 H   0  0  0  0  0  0  0  0  0  0  0  0
   56.6206   24.6360   48.8292 H   0  0  0  0  0  0  0  0  0  0  0  0
   57.6353   23.9511   47.5024 H   0  0  0  0  0  0  0  0  0  0  0  0
   56.1117   27.6771   46.7709 H   0  0  0  0  0  0  0  0  0  0  0  0
   59.2489   29.4295   45.9243 H   0  0  0  0  0  0  0  0  0  0  0  0
   60.4004   31.5486   46.4881 H   0  0  0  0  0  0  0  0  0  0  0  0
   60.4023   34.0471   46.5067 H   0  0  0  0  0  0  0  0  0  0  0  0
   58.4554   35.3099   45.5896 H   0  0  0  0  0  0  0  0  0  0  0  0
   56.4944   34.0815   44.6470 H   0  0  0  0  0  0  0  0  0  0  0  0
   58.3686   27.7447   43.0766 H   0  0  0  0  0  0  0  0  0  0  0  0
   58.3014   25.2577   42.9897 H   0  0  0  0  0  0  0  0  0  0  0  0
   59.1523   23.5303   45.3668 H   0  0  0  0  0  0  0  0  0  0  0  0
   58.0524   22.3110   46.1158 H   0  0  0  0  0  0  0  0  0  0  0  0
   59.0453   20.9109   44.6025 H   0  0  0  0  0  0  0  0  0  0  0  0
   57.8172   21.6110   43.4943 H   0  0  0  0  0  0  0  0  0  0  0  0
   59.4956   22.2509   43.4943 H   0  0  0  0  0  0  0  0  0  0  0  0
   54.1110   23.8788   45.5499 H   0  0  0  0  0  0  0  0  0  0  0  0
   54.3790   24.7772   44.0176 H   0  0  0  0  0  0  0  0  0  0  0  0
   53.3933   23.2756   44.0176 H   0  0  0  0  0  0  0  0  0  0  0  0
  1  2  1  0
  2  3  1  0
  3  4  1  0
  4  5  2  0
  5  6  1  0
  6  7  1  0
  7  8  2  0
  8  9  1  0
  9 10  2  0
 10 11  1  0
 11 12  2  0
 12 13  1  0
 13 14  2  0
 14 15  1  0
 15 16  1  0
 16 17  2  0
  6 18  2  0
 18 19  1  0
 19 20  2  0
 20 21  1  0
 21 22  1  0
 22 23  1  0
 21 24  1  0
 24 25  1  0
 24 26  2  0
 24 27  2  0
 20  4  1  0
 16  7  1  0
 14  9  1  0
  1 28  1  0
  1 29  1  0
  1 30  1  0
  2 31  1  0
  2 32  1  0
  5 33  1  0
  8 34  1  0
 10 35  1  0
 11 36  1  0
 12 37  1  0
 13 38  1  0
 18 39  1  0
 19 40  1  0
 22 41  1  0
 22 42  1  0
 23 43  1  0
 23 44  1  0
 23 45  1  0
 25 46  1  0
 25 47  1  0
 25 48  1  0
M  END
>  <UniqueID>  (14) 
14

>  <SMILES>  (14) 
CCOc1cc(-c2cc3ccccc3oc2=O)ccc1N(CC)S(C)(=O)=O

>  <Energy>  (14) 
56.04946277186875

>  <Genealogy>  (14) 
CCOc1cc(-c2cc3ccccc3oc2=O)ccc1N(CC)S(C)(=O)=O (3D coordinates assigned)
CCOc1cc(-c2cc3ccccc3oc2=O)ccc1N(CC)S(C)(=O)=O (optimized conformer: 56.04946277186875 kcal/mol)

>  <smiles>  (14) 
CCOc1cc(-c2cc3ccccc3oc2=O)ccc1N(CC)S(C)(=O)=O

>  <score_type>  (14) 
oracle

>  <origin>  (14) 
adg

>  <m_score__min__energy>  (14) 
-8.6799999999999997

>  <m_primary>  (14) 
energy

$$$$
14:0
     RDKit          3D

 46 49  0  0  0  0  0  0  0  0999 V2000
   57.1200   28.3720   45.3170 C   0  0  0  0  0  0  0  0  0  0  0  0
   56.6450   29.7150   45.2480 O   0  0  0  0  0  0  0  0  0  0  0  0
   57.1460   30.6900   44.3770 C   0  0  0  0  0  0  0  0  0  0  0  0
   56.9200   30.6300   42.9890 C   0  0  0  0  0  0  0  0  0  0  0  0
   57.4230   31.6230   42.1490 C   0  0  0  0  0  0  0  0  0  0  0  0
   58.1410   32.6940   42.6780 C   0  0  0  0  0  0  0  0  0  0  0  0
   58.3690   32.7710   44.0550 C   0  0  0  0  0  0  0  0  0  0  0  0
   57.8720   31.7760   44.9160 C   0  0  0  0  0  0  0  0  0  0  0  0
   58.1060   31.8610   46.3360 N   0  0  0  0  0  0  0  0  0  0  0  0
   57.6740   32.8550   47.1080 N   0  0  0  0  0  0  0  0  0  0  0  0
   58.1630   32.6870   48.3600 C   0  0  0  0  0  0  0  0  0  0  0  0
   58.9580   31.5610   48.3550 C   0  0  0  0  0  0  0  0  0  0  0  0
   59.7370   30.9140   49.3110 C   0  0  0  0  0  0  0  0  0  0  0  0
   59.7280   31.2720   50.6650 O   0  0  0  0  0  0  0  0  0  0  0  0
   60.8310   31.9340   51.2770 C   0  0  0  0  0  0  0  0  0  0  0  0
   60.7490   33.4540   51.0810 C   0  0  0  0  0  0  0  0  0  0  0  0
   60.5340   33.7850   49.7100 O   0  0  0  0  0  0  0  0  0  0  0  0
   61.4950   33.6870   48.6840 C   0  0  0  0  0  0  0  0  0  0  0  0
   62.8240   33.4270   49.0430 C   0  0  0  0  0  0  0  0  0  0  0  0
   63.8250   33.3610   48.0690 C   0  0  0  0  0  0  0  0  0  0  0  0
   63.5060   33.5530   46.7240 C   0  0  0  0  0  0  0  0  0  0  0  0
   62.1840   33.8180   46.3520 C   0  0  0  0  0  0  0  0  0  0  0  0
   61.1780   33.8710   47.3230 C   0  0  0  0  0  0  0  0  0  0  0  0
   60.4920   29.8530   48.8990 N   0  0  0  0  0  0  0  0  0  0  0  0
   60.4290   29.3910   47.6100 C   0  0  0  0  0  0  0  0  0  0  0  0
   59.6180   29.9950   46.6990 N   0  0  0  0  0  0  0  0  0  0  0  0
   58.8940   31.0750   47.0910 C   0  0  0  0  0  0  0  0  0  0  0  0
   57.2254   28.0740   46.3706 H   0  0  0  0  0  0  0  0  0  0  0  0
   56.4037   27.7036   44.8168 H   0  0  0  0  0  0  0  0  0  0  0  0
   58.0972   28.3025   44.8168 H   0  0  0  0  0  0  0  0  0  0  0  0
   56.3433   29.7950   42.5644 H   0  0  0  0  0  0  0  0  0  0  0  0
   57.2523   31.5607   41.0641 H   0  0  0  0  0  0  0  0  0  0  0  0
   58.5284   33.4789   42.0118 H   0  0  0  0  0  0  0  0  0  0  0  0
   58.9408   33.6152   44.4679 H   0  0  0  0  0  0  0  0  0  0  0  0
   57.9615   33.3340   49.2265 H   0  0  0  0  0  0  0  0  0  0  0  0
   60.8296   31.7112   52.3542 H   0  0  0  0  0  0  0  0  0  0  0  0
   61.7570   31.5730   50.8056 H   0  0  0  0  0  0  0  0  0  0  0  0
   59.9157   33.8490   51.6807 H   0  0  0  0  0  0  0  0  0  0  0  0
   61.7022   33.8993   51.4022 H   0  0  0  0  0  0  0  0  0  0  0  0
   63.0824   33.2733   50.1011 H   0  0  0  0  0  0  0  0  0  0  0  0
   64.8652   33.1575   48.3632 H   0  0  0  0  0  0  0  0  0  0  0  0
   64.2930   33.4960   45.9576 H   0  0  0  0  0  0  0  0  0  0  0  0
   61.9346   33.9851   45.2937 H   0  0  0  0  0  0  0  0  0  0  0  0
   60.1361   34.0569   47.0232 H   0  0  0  0  0  0  0  0  0  0  0  0
   61.0960   29.3520   49.5900 H   0  0  0  0  0  0  0  0  0  0  0  0
   61.0383   28.5258   47.3097 H   0  0  0  0  0  0  0  0  0  0  0  0
  1  2  1  0
  2  3  1  0
  3  4  2  0
  4  5  1  0
  5  6  2  0
  6  7  1  0
  7  8  2  0
  8  9  1  0
  9 10  1  0
 10 11  2  0
 11 12  1  0
 12 13  2  0
 13 14  1  0
 14 15  1  0
 15 16  1  0
 16 17  1  0
 17 18  1  0
 18 19  2  0
 19 20  1  0
 20 21  2  0
 21 22  1  0
 22 23  2  0
 13 24  1  0
 24 25  2  0
 25 26  1  0
 26 27  2  0
  8  3  1  0
 27  9  1  0
 27 12  1  0
 23 18  1  0
  1 28  1  0
  1 29  1  0
  1 30  1  0
  4 31  1  0
  5 32  1  0
  6 33  1  0
  7 34  1  0
 11 35  1  0
 15 36  1  0
 15 37  1  0
 16 38  1  0
 16 39  1  0
 19 40  1  0
 20 41  1  0
 21 42  1  0
 22 43  1  0
 23 44  1  0
 24 45  1  0
 25 46  1  0
M  CHG  1  24   1
M  END
>  <UniqueID>  (15) 
15

>  <SMILES>  (15) 
COc1ccccc1-n1ncc2c(OCCOc3ccccc3)[nH+]cnc21

>  <Energy>  (15) 
97.93613203920833

>  <Genealogy>  (15) 
COc1ccccc1-n1ncc2c(OCCOc3ccccc3)[nH+]cnc21 (protonated)
COc1ccccc1-n1ncc2c(OCCOc3ccccc3)[nH+]cnc21 (3D coordinates assigned)
COc1ccccc1-n1ncc2c(OCCOc3ccccc3)[nH+]cnc21 (optimized conformer: 97.93613203920833 kcal/mol)

>  <smiles>  (15) 
COc1ccccc1-n1ncc2c(OCCOc3ccccc3)ncnc21

>  <score_type>  (15) 
oracle

>  <origin>  (15) 
adg

>  <m_score__min__energy>  (15) 
-6.3099999999999996

>  <m_primary>  (15) 
energy

$$$$
15:0
     RDKit          3D

 41 43  0  0  0  0  0  0  0  0999 V2000
   59.5890   35.6790   47.1140 O   0  0  0  0  0  0  0  0  0  0  0  0
   59.4240   34.4310   46.0000 S   0  0  0  0  0  0  0  0  0  0  0  0
   60.0430   32.9040   46.6750 C   0  0  0  0  0  0  0  0  0  0  0  0
   58.8850   31.9300   46.8860 C   0  0  0  0  0  0  0  0  0  0  0  0
   58.1530   31.7180   45.6250 N   0  0  0  0  0  0  0  0  0  0  0  0
   58.1570   30.4140   45.0080 C   0  0  0  0  0  0  0  0  0  0  0  0
   59.1660   29.4840   45.3120 C   0  0  0  0  0  0  0  0  0  0  0  0
   59.1630   28.2170   44.7210 C   0  0  0  0  0  0  0  0  0  0  0  0
   58.1560   27.8610   43.8130 C   0  0  0  0  0  0  0  0  0  0  0  0
   58.1300   26.4820   43.2110 C   0  0  0  0  0  0  0  0  0  0  0  0
   57.2260   25.6080   43.9610 N   0  0  0  0  0  0  0  0  0  0  0  0
   57.2360   24.1730   43.8410 C   0  0  0  0  0  0  0  0  0  0  0  0
   58.1900   23.3750   44.5010 C   0  0  0  0  0  0  0  0  0  0  0  0
   58.1610   21.9880   44.3560 C   0  0  0  0  0  0  0  0  0  0  0  0
   57.1810   21.4030   43.5530 C   0  0  0  0  0  0  0  0  0  0  0  0
   56.2650   22.1830   42.9210 N   0  0  0  0  0  0  0  0  0  0  0  0
   56.2710   23.5370   43.0460 C   0  0  0  0  0  0  0  0  0  0  0  0
   57.1360   28.7790   43.5220 C   0  0  0  0  0  0  0  0  0  0  0  0
   57.1390   30.0470   44.1110 C   0  0  0  0  0  0  0  0  0  0  0  0
   57.5040   32.8360   44.9100 C   0  0  0  0  0  0  0  0  0  0  0  0
   57.7070   34.1970   45.5890 C   0  0  0  0  0  0  0  0  0  0  0  0
   59.5330   36.5090   46.5770 H   0  0  0  0  0  0  0  0  0  0  0  0
   60.7696   32.4630   45.9767 H   0  0  0  0  0  0  0  0  0  0  0  0
   60.5331   33.1031   47.6394 H   0  0  0  0  0  0  0  0  0  0  0  0
   59.2817   30.9673   47.2406 H   0  0  0  0  0  0  0  0  0  0  0  0
   58.1952   32.3533   47.6310 H   0  0  0  0  0  0  0  0  0  0  0  0
   59.9634   29.7548   46.0197 H   0  0  0  0  0  0  0  0  0  0  0  0
   59.9551   27.4955   44.9698 H   0  0  0  0  0  0  0  0  0  0  0  0
   57.7852   26.5493   42.1686 H   0  0  0  0  0  0  0  0  0  0  0  0
   59.1448   26.0593   43.2503 H   0  0  0  0  0  0  0  0  0  0  0  0
   56.5360   26.0410   44.6180 H   0  0  0  0  0  0  0  0  0  0  0  0
   58.9587   23.8457   45.1314 H   0  0  0  0  0  0  0  0  0  0  0  0
   58.9041   21.3608   44.8701 H   0  0  0  0  0  0  0  0  0  0  0  0
   57.1499   20.3102   43.4316 H   0  0  0  0  0  0  0  0  0  0  0  0
   55.5141   24.1376   42.5202 H   0  0  0  0  0  0  0  0  0  0  0  0
   56.3301   28.5000   42.8272 H   0  0  0  0  0  0  0  0  0  0  0  0
   56.3389   30.7626   43.8707 H   0  0  0  0  0  0  0  0  0  0  0  0
   57.9214   32.8883   43.8936 H   0  0  0  0  0  0  0  0  0  0  0  0
   56.4227   32.6340   44.9072 H   0  0  0  0  0  0  0  0  0  0  0  0
   57.3853   34.9958   44.9046 H   0  0  0  0  0  0  0  0  0  0  0  0
   57.1099   34.2295   46.5122 H   0  0  0  0  0  0  0  0  0  0  0  0
  1  2  1  0
  2  3  1  0
  3  4  1  0
  4  5  1  0
  5  6  1  0
  6  7  2  0
  7  8  1  0
  8  9  2  0
  9 10  1  0
 10 11  1  0
 11 12  1  0
 12 13  2  0
 13 14  1  0
 14 15  2  0
 15 16  1  0
 16 17  2  0
  9 18  1  0
 18 19  2  0
  5 20  1  0
 20 21  1  0
 21  2  1  0
 19  6  1  0
 17 12  1  0
  1 22  1  0
  3 23  1  0
  3 24  1  0
  4 25  1  0
  4 26  1  0
  7 27  1  0
  8 28  1  0
 10 29  1  0
 10 30  1  0
 11 31  1  0
 13 32  1  0
 14 33  1  0
 15 34  1  0
 17 35  1  0
 18 36  1  0
 19 37  1  0
 20 38  1  0
 20 39  1  0
 21 40  1  0
 21 41  1  0
M  CHG  1   2   1
M  END
>  <UniqueID>  (16) 
16

>  <SMILES>  (16) 
O[S+]1CCN(c2ccc(CNc3cccnc3)cc2)CC1

>  <Energy>  (16) 
43.110564146261524

>  <Genealogy>  (16) 
O[S+]1CCN(c2ccc(CNc3cccnc3)cc2)CC1 (protonated)
O[S+]1CCN(c2ccc(CNc3cccnc3)cc2)CC1 (3D coordinates assigned)
O[S+]1CCN(c2ccc(CNc3cccnc3)cc2)CC1 (nonaromatic ring conformer: 43.110564146261524 kcal/mol)

>  <smiles>  (16) 
[O-][S+]1CCN(c2ccc(CNc3cccnc3)cc2)CC1

>  <score_type>  (16) 
oracle

>  <origin>  (16) 
adg

>  <m_score__min__energy>  (16) 
-5.96

>  <m_primary>  (16) 
energy

$$$$
16:0
     RDKit          3D

 65 68  0  0  1  0  0  0  0  0999 V2000
   54.3840   24.8640   45.5800 C   0  0  0  0  0  0  0  0  0  0  0  0
   55.0230   26.0340   45.9780 O   0  0  0  0  0  0  0  0  0  0  0  0
   56.3620   25.8290   46.2740 C   0  0  0  0  0  0  0  0  0  0  0  0
   57.0110   27.2190   46.3170 C   0  0  0  0  0  0  0  0  0  0  0  0
   57.5390   27.5360   44.9350 C   0  0  0  0  0  0  0  0  0  0  0  0
   57.5930   28.9200   44.6140 N   0  0  0  0  0  0  0  0  0  0  0  0
   58.8850   29.4470   44.2970 C   0  0  0  0  0  0  0  0  0  0  0  0
   58.8740   30.8950   44.7400 C   0  0  0  0  0  0  0  0  0  0  0  0
   57.7870   31.6040   44.0120 C   0  0  0  0  0  0  0  0  0  0  0  0
   56.9690   32.4730   44.9540 C   0  0  0  0  0  0  0  0  0  0  0  0
   57.8640   33.5690   45.3550 N   0  0  0  0  0  0  0  0  0  0  0  0
   58.6600   33.4210   46.3760 C   0  0  0  0  0  0  0  0  0  0  0  0
   58.1520   33.1780   47.6130 N   0  0  0  0  0  0  0  0  0  0  0  0
   59.2040   33.0710   48.4710 C   0  0  0  0  0  0  0  0  0  0  0  0
   59.0590   32.8090   49.8970 C   0  0  0  0  0  0  0  0  0  0  0  0
   58.6310   31.5260   50.2460 C   0  0  0  0  0  0  0  0  0  0  0  0
   58.4860   31.2530   51.5970 C   0  0  0  0  0  0  0  0  0  0  0  0
   58.7550   32.2120   52.5510 C   0  0  0  0  0  0  0  0  0  0  0  0
   59.1780   33.4810   52.2060 C   0  0  0  0  0  0  0  0  0  0  0  0
   59.3260   33.7650   50.8590 C   0  0  0  0  0  0  0  0  0  0  0  0
   60.3150   33.2510   47.7350 N   0  0  0  0  0  0  0  0  0  0  0  0
   61.6200   33.2080   48.3020 C   0  0  0  0  0  0  0  0  0  0  0  0
   62.5330   32.2110   48.0060 C   0  0  0  0  0  0  0  0  0  0  0  0
   63.7830   32.2610   48.6160 C   0  0  0  0  0  0  0  0  0  0  0  0
   64.1280   33.2670   49.4960 C   0  0  0  0  0  0  0  0  0  0  0  0
   65.3730   33.3300   50.1120 O   0  0  0  0  0  0  0  0  0  0  0  0
   66.0390   32.1220   50.4150 C   0  0  0  0  0  0  0  0  0  0  0  0
   63.1940   34.2460   49.7700 C   0  0  0  0  0  0  0  0  0  0  0  0
   61.9440   34.2250   49.1810 C   0  0  0  0  0  0  0  0  0  0  0  0
   59.9820   33.4650   46.4540 N   0  0  0  0  0  0  0  0  0  0  0  0
   56.8980   30.7720   43.1620 C   0  0  0  0  0  0  0  0  0  0  0  0
   56.6180   29.3850   43.6720 C   0  0  0  0  0  0  0  0  0  0  0  0
   54.0734   24.2953   46.4689 H   0  0  0  0  0  0  0  0  0  0  0  0
   53.4984   25.1163   44.9782 H   0  0  0  0  0  0  0  0  0  0  0  0
   55.0749   24.2553   44.9782 H   0  0  0  0  0  0  0  0  0  0  0  0
   56.4646   25.3304   47.2491 H   0  0  0  0  0  0  0  0  0  0  0  0
   56.8437   25.1858   45.5229 H   0  0  0  0  0  0  0  0  0  0  0  0
   56.2634   27.9703   46.6116 H   0  0  0  0  0  0  0  0  0  0  0  0
   57.8310   27.2334   47.0501 H   0  0  0  0  0  0  0  0  0  0  0  0
   58.5575   27.1279   44.8572 H   0  0  0  0  0  0  0  0  0  0  0  0
   56.8311   27.0837   44.2249 H   0  0  0  0  0  0  0  0  0  0  0  0
   59.6660   28.8900   44.8352 H   0  0  0  0  0  0  0  0  0  0  0  0
   59.0995   29.3596   43.2217 H   0  0  0  0  0  0  0  0  0  0  0  0
   58.6920   30.9500   45.8235 H   0  0  0  0  0  0  0  0  0  0  0  0
   59.8440   31.3640   44.5182 H   0  0  0  0  0  0  0  0  0  0  0  0
   58.3332   32.2296   43.2907 H   0  0  0  0  0  0  0  0  0  0  0  0
   56.0823   32.8701   44.4381 H   0  0  0  0  0  0  0  0  0  0  0  0
   56.6065   31.9038   45.8227 H   0  0  0  0  0  0  0  0  0  0  0  0
   58.4181   30.7647   49.4811 H   0  0  0  0  0  0  0  0  0  0  0  0
   58.1506   30.2544   51.9138 H   0  0  0  0  0  0  0  0  0  0  0  0
   58.6294   31.9598   53.6143 H   0  0  0  0  0  0  0  0  0  0  0  0
   59.3898   34.2391   52.9744 H   0  0  0  0  0  0  0  0  0  0  0  0
   59.6610   34.7661   50.5498 H   0  0  0  0  0  0  0  0  0  0  0  0
   62.2776   31.4007   47.3073 H   0  0  0  0  0  0  0  0  0  0  0  0
   64.5185   31.4749   48.3900 H   0  0  0  0  0  0  0  0  0  0  0  0
   66.1045   32.0032   51.5066 H   0  0  0  0  0  0  0  0  0  0  0  0
   65.4791   31.2773   49.9872 H   0  0  0  0  0  0  0  0  0  0  0  0
   67.0522   32.1446   49.9872 H   0  0  0  0  0  0  0  0  0  0  0  0
   63.4490   35.0563   50.4688 H   0  0  0  0  0  0  0  0  0  0  0  0
   61.2111   35.0127   49.4101 H   0  0  0  0  0  0  0  0  0  0  0  0
   60.6320   33.6350   45.6620 H   0  0  0  0  0  0  0  0  0  0  0  0
   55.9361   31.2966   43.0643 H   0  0  0  0  0  0  0  0  0  0  0  0
   57.4326   30.6388   42.2099 H   0  0  0  0  0  0  0  0  0  0  0  0
   55.6325   29.3850   44.1607 H   0  0  0  0  0  0  0  0  0  0  0  0
   56.6514   28.7067   42.8067 H   0  0  0  0  0  0  0  0  0  0  0  0
  1  2  1  0
  2  3  1  0
  3  4  1  0
  4  5  1  0
  5  6  1  0
  6  7  1  0
  7  8  1  0
  8  9  1  0
  9 10  1  0
 10 11  1  0
 11 12  2  0
 12 13  1  0
 13 14  2  0
 14 15  1  0
 15 16  2  0
 16 17  1  0
 17 18  2  0
 18 19  1  0
 19 20  2  0
 14 21  1  0
 21 22  1  0
 22 23  2  0
 23 24  1  0
 24 25  2  0
 25 26  1  0
 26 27  1  0
 25 28  1  0
 28 29  2  0
 21 30  1  0
  9 31  1  0
 31 32  1  0
 32  6  1  0
 30 12  1  0
 20 15  1  0
 29 22  1  0
  1 33  1  0
  1 34  1  0
  1 35  1  0
  3 36  1  0
  3 37  1  0
  4 38  1  0
  4 39  1  0
  5 40  1  0
  5 41  1  0
  7 42  1  0
  7 43  1  0
  8 44  1  0
  8 45  1  0
  9 46  1  0
 10 47  1  0
 10 48  1  0
 16 49  1  0
 17 50  1  0
 18 51  1  0
 19 52  1  0
 20 53  1  0
 23 54  1  0
 24 55  1  0
 27 56  1  0
 27 57  1  0
 27 58  1  0
 28 59  1  0
 29 60  1  0
 30 61  1  0
 31 62  1  0
 31 63  1  0
 32 64  1  0
 32 65  1  0
M  END
>  <smiles>  (17) 
COCCCN1CCC(CN=c2nc(-c3ccccc3)n(-c3ccc(OC)cc3)[nH]2)CC1

>  <score_type>  (17) 
oracle

>  <origin>  (17) 
adg

>  <m_score__min__energy>  (17) 
-9.1099999999999994

>  <m_primary>  (17) 
energy

$$$$
17:0
     RDKit          3D

 57 61  0  0  0  0  0  0  0  0999 V2000
   59.2930   33.3120   46.8240 C   0  0  0  0  0  0  0  0  0  0  0  0
   60.7750   32.9480   46.6370 C   0  0  1  0  0  0  0  0  0  0  0  0
   61.6820   34.2100   46.8070 C   0  0  0  0  0  0  0  0  0  0  0  0
   62.8860   33.9750   47.5250 O   0  0  0  0  0  0  0  0  0  0  0  0
   63.4710   32.7530   47.1210 C   0  0  0  0  0  0  0  0  0  0  0  0
   62.6480   31.5860   47.6830 C   0  0  0  0  0  0  0  0  0  0  0  0
   61.2180   31.8650   47.5410 N   0  0  0  0  0  0  0  0  0  0  0  0
   60.2920   30.9570   48.1570 C   0  0  0  0  0  0  0  0  0  0  0  0
   59.8030   31.2540   49.3880 N   0  0  0  0  0  0  0  0  0  0  0  0
   58.9370   30.4280   50.0370 C   0  0  0  0  0  0  0  0  0  0  0  0
   58.4390   30.7820   51.3410 N   0  0  0  0  0  0  0  0  0  0  0  0
   57.8460   32.1140   51.5540 C   0  0  0  0  0  0  0  0  0  0  0  0
   56.7900   32.0550   52.6620 C   0  0  0  0  0  0  0  0  0  0  0  0
   55.6420   31.0960   52.3080 C   0  0  0  0  0  0  0  0  0  0  0  0
   56.1070   29.7820   52.0460 O   0  0  0  0  0  0  0  0  0  0  0  0
   57.1230   29.4010   52.9620 C   0  0  0  0  0  0  0  0  0  0  0  0
   58.5070   29.7980   52.4330 C   0  0  0  0  0  0  0  0  0  0  0  0
   58.5480   29.2650   49.4460 N   0  0  0  0  0  0  0  0  0  0  0  0
   58.9960   28.9210   48.2120 C   0  0  0  0  0  0  0  0  0  0  0  0
   58.5830   27.7580   47.6410 N   0  0  0  0  0  0  0  0  0  0  0  0
   59.0020   27.3680   46.4050 C   0  0  0  0  0  0  0  0  0  0  0  0
   58.5160   26.0870   45.8530 C   0  0  0  0  0  0  0  0  0  0  0  0
   57.2990   25.8090   45.2550 C   0  0  0  0  0  0  0  0  0  0  0  0
   57.2650   24.5110   44.8930 N   0  0  0  0  0  0  0  0  0  0  0  0
   58.4210   23.9730   45.2340 N   0  0  0  0  0  0  0  0  0  0  0  0
   58.7450   22.5650   45.0520 C   0  0  0  0  0  0  0  0  0  0  0  0
   59.2020   24.8910   45.8280 C   0  0  0  0  0  0  0  0  0  0  0  0
   59.8860   28.1900   45.6870 C   0  0  0  0  0  0  0  0  0  0  0  0
   60.3270   29.3910   46.2460 C   0  0  0  0  0  0  0  0  0  0  0  0
   59.8860   29.7680   47.5240 C   0  0  0  0  0  0  0  0  0  0  0  0
   59.0621   33.3687   47.8980 H   0  0  0  0  0  0  0  0  0  0  0  0
   59.0925   34.2861   46.3539 H   0  0  0  0  0  0  0  0  0  0  0  0
   58.6641   32.5416   46.3539 H   0  0  0  0  0  0  0  0  0  0  0  0
   60.8777   32.5679   45.6099 H   0  0  0  0  0  0  0  0  0  0  0  0
   61.9454   34.5818   45.8058 H   0  0  0  0  0  0  0  0  0  0  0  0
   61.1022   34.9365   47.3952 H   0  0  0  0  0  0  0  0  0  0  0  0
   63.4845   32.6976   46.0225 H   0  0  0  0  0  0  0  0  0  0  0  0
   64.5013   32.6942   47.5018 H   0  0  0  0  0  0  0  0  0  0  0  0
   62.8960   30.6671   47.1316 H   0  0  0  0  0  0  0  0  0  0  0  0
   62.8859   31.4582   48.7493 H   0  0  0  0  0  0  0  0  0  0  0  0
   58.6371   32.8212   51.8440 H   0  0  0  0  0  0  0  0  0  0  0  0
   57.3673   32.4458   50.6209 H   0  0  0  0  0  0  0  0  0  0  0  0
   57.2678   31.7104   53.5909 H   0  0  0  0  0  0  0  0  0  0  0  0
   56.3671   33.0631   52.7845 H   0  0  0  0  0  0  0  0  0  0  0  0
   54.9361   31.0611   53.1509 H   0  0  0  0  0  0  0  0  0  0  0  0
   55.1555   31.4717   51.3958 H   0  0  0  0  0  0  0  0  0  0  0  0
   56.9472   29.9023   53.9252 H   0  0  0  0  0  0  0  0  0  0  0  0
   57.0930   28.3088   53.0890 H   0  0  0  0  0  0  0  0  0  0  0  0
   59.0887   30.2306   53.2603 H   0  0  0  0  0  0  0  0  0  0  0  0
   58.9813   28.8902   52.0319 H   0  0  0  0  0  0  0  0  0  0  0  0
   56.4865   26.5340   45.0995 H   0  0  0  0  0  0  0  0  0  0  0  0
   58.8556   22.0842   46.0351 H   0  0  0  0  0  0  0  0  0  0  0  0
   57.9368   22.0722   44.4917 H   0  0  0  0  0  0  0  0  0  0  0  0
   59.6873   22.4750   44.4917 H   0  0  0  0  0  0  0  0  0  0  0  0
   60.2131   24.7184   46.2254 H   0  0  0  0  0  0  0  0  0  0  0  0
   60.2301   27.8883   44.6867 H   0  0  0  0  0  0  0  0  0  0  0  0
   61.0176   30.0394   45.6868 H   0  0  0  0  0  0  0  0  0  0  0  0
  1  2  1  0
  2  3  1  0
  3  4  1  0
  4  5  1  0
  5  6  1  0
  6  7  1  0
  7  8  1  0
  8  9  2  0
  9 10  1  0
 10 11  1  0
 11 12  1  0
 12 13  1  0
 13 14  1  0
 14 15  1  0
 15 16  1  0
 16 17  1  0
 10 18  2  0
 18 19  1  0
 19 20  2  0
 20 21  1  0
 21 22  1  0
 22 23  1  0
 23 24  2  0
 24 25  1  0
 25 26  1  0
 25 27  1  0
 21 28  2  0
 28 29  1  0
 29 30  2  0
  7  2  1  0
 30  8  1  0
 17 11  1  0
 30 19  1  0
 27 22  2  0
  1 31  1  0
  1 32  1  0
  1 33  1  0
  2 34  1  6
  3 35  1  0
  3 36  1  0
  5 37  1  0
  5 38  1  0
  6 39  1  0
  6 40  1  0
 12 41  1  0
 12 42  1  0
 13 43  1  0
 13 44  1  0
 14 45  1  0
 14 46  1  0
 16 47  1  0
 16 48  1  0
 17 49  1  0
 17 50  1  0
 23 51  1  0
 26 52  1  0
 26 53  1  0
 26 54  1  0
 27 55  1  0
 28 56  1  0
 29 57  1  0
M  END
>  <UniqueID>  (18) 
17

>  <SMILES>  (18) 
C[C@H]1COCCN1c1nc(N2CCCOCC2)nc2nc(-c3cnn(C)c3)ccc12

>  <Energy>  (18) 
112.40738967854168

>  <Genealogy>  (18) 
C[C@H]1COCCN1c1nc(N2CCCOCC2)nc2nc(-c3cnn(C)c3)ccc12 (chirality)
C[C@H]1COCCN1c1nc(N2CCCOCC2)nc2nc(-c3cnn(C)c3)ccc12 (3D coordinates assigned)
C[C@H]1COCCN1c1nc(N2CCCOCC2)nc2nc(-c3cnn(C)c3)ccc12 (nonaromatic ring conformer: 112.40738967854168 kcal/mol)

>  <smiles>  (18) 
CC1COCCN1c1nc(N2CCCOCC2)nc2nc(-c3cnn(C)c3)ccc12

>  <score_type>  (18) 
oracle

>  <origin>  (18) 
adg

>  <m_score__min__energy>  (18) 
-5.4900000000000002

>  <m_primary>  (18) 
energy

$$$$
18:0
     RDKit          3D

 74 76  0  0  0  0  0  0  0  0999 V2000
   57.6890   31.9050   51.1460 C   0  0  0  0  0  0  0  0  0  0  0  0
   58.8020   31.3260   50.3420 C   0  0  0  0  0  0  0  0  0  0  0  0
   58.6180   30.2580   49.6980 O   0  0  0  0  0  0  0  0  0  0  0  0
   60.0250   31.9990   50.2820 O   0  0  0  0  0  0  0  0  0  0  0  0
   60.1290   33.3940   50.0200 C   0  0  0  0  0  0  0  0  0  0  0  0
   61.4810   33.7380   49.3710 C   0  0  0  0  0  0  0  0  0  0  0  0
   62.3510   32.5440   49.1650 N   0  0  1  0  0  0  0  0  0  0  0  0
   62.6380   32.2070   47.7370 C   0  0  0  0  0  0  0  0  0  0  0  0
   61.8940   30.9970   47.1190 C   0  0  0  0  0  0  0  0  0  0  0  0
   60.5020   30.8620   47.5710 N   0  0  0  0  0  0  0  0  0  0  0  0
   59.4310   30.9070   46.6050 C   0  0  0  0  0  0  0  0  0  0  0  0
   59.0170   32.1320   46.0450 C   0  0  0  0  0  0  0  0  0  0  0  0
   59.4180   33.3610   46.6090 C   0  0  0  0  0  0  0  0  0  0  0  0
   59.0210   34.5700   46.0420 C   0  0  0  0  0  0  0  0  0  0  0  0
   58.1860   34.5780   44.9330 C   0  0  0  0  0  0  0  0  0  0  0  0
   57.7400   33.3770   44.3810 C   0  0  0  0  0  0  0  0  0  0  0  0
   58.1480   32.1280   44.9190 C   0  0  0  0  0  0  0  0  0  0  0  0
   57.7110   30.9300   44.3900 N   0  0  0  0  0  0  0  0  0  0  0  0
   57.0420   30.9050   43.0700 C   0  0  0  0  0  0  0  0  0  0  0  0
   57.8850   29.7590   45.1000 C   0  0  0  0  0  0  0  0  0  0  0  0
   57.1760   28.5740   44.7750 C   0  0  0  0  0  0  0  0  0  0  0  0
   57.3900   27.3910   45.4840 C   0  0  0  0  0  0  0  0  0  0  0  0
   58.3000   27.3580   46.5340 C   0  0  0  0  0  0  0  0  0  0  0  0
   58.9970   28.5110   46.8890 C   0  0  0  0  0  0  0  0  0  0  0  0
   58.7850   29.7240   46.2010 C   0  0  0  0  0  0  0  0  0  0  0  0
   63.5980   32.6420   49.9690 C   0  0  0  0  0  0  0  0  0  0  0  0
   63.7860   31.4620   50.9550 C   0  0  0  0  0  0  0  0  0  0  0  0
   62.5290   30.8980   51.2940 O   0  0  0  0  0  0  0  0  0  0  0  0
   61.9510   31.5240   52.4230 C   0  0  0  0  0  0  0  0  0  0  0  0
   60.9090   30.6270   53.0910 C   0  0  0  0  0  0  0  0  0  0  0  0
   60.4570   29.6660   52.1590 O   0  0  0  0  0  0  0  0  0  0  0  0
   61.0310   28.4110   52.4510 C   0  0  0  0  0  0  0  0  0  0  0  0
   61.4730   27.7310   51.1530 C   0  0  0  0  0  0  0  0  0  0  0  0
   60.7770   28.3090   49.9130 C   0  0  0  0  0  0  0  0  0  0  0  0
   61.2230   29.6160   49.6700 O   0  0  0  0  0  0  0  0  0  0  0  0
   57.9115   31.7892   52.2170 H   0  0  0  0  0  0  0  0  0  0  0  0
   57.5814   32.9734   50.9073 H   0  0  0  0  0  0  0  0  0  0  0  0
   56.7524   31.3798   50.9073 H   0  0  0  0  0  0  0  0  0  0  0  0
   59.3179   33.6930   49.3398 H   0  0  0  0  0  0  0  0  0  0  0  0
   60.0529   33.9348   50.9749 H   0  0  0  0  0  0  0  0  0  0  0  0
   61.2914   34.2060   48.3937 H   0  0  0  0  0  0  0  0  0  0  0  0
   62.0110   34.4161   50.0561 H   0  0  0  0  0  0  0  0  0  0  0  0
   61.8200   31.7350   49.5670 H   0  0  0  0  0  0  0  0  0  0  0  0
   62.3851   33.0913   47.1336 H   0  0  0  0  0  0  0  0  0  0  0  0
   63.6986   31.9153   47.7280 H   0  0  0  0  0  0  0  0  0  0  0  0
   61.8937   31.1121   46.0250 H   0  0  0  0  0  0  0  0  0  0  0  0
   62.4264   30.0921   47.4473 H   0  0  0  0  0  0  0  0  0  0  0  0
   60.2630   31.0970   48.5610 H   0  0  0  0  0  0  0  0  0  0  0  0
   60.0521   33.3649   47.5078 H   0  0  0  0  0  0  0  0  0  0  0  0
   59.3697   35.5198   46.4737 H   0  0  0  0  0  0  0  0  0  0  0  0
   57.8750   35.5347   44.4880 H   0  0  0  0  0  0  0  0  0  0  0  0
   57.0616   33.3980   43.5154 H   0  0  0  0  0  0  0  0  0  0  0  0
   55.9520   30.8643   43.2121 H   0  0  0  0  0  0  0  0  0  0  0  0
   57.3049   31.8136   42.5084 H   0  0  0  0  0  0  0  0  0  0  0  0
   57.3719   30.0186   42.5084 H   0  0  0  0  0  0  0  0  0  0  0  0
   56.4466   28.5877   43.9518 H   0  0  0  0  0  0  0  0  0  0  0  0
   56.8361   26.4808   45.2106 H   0  0  0  0  0  0  0  0  0  0  0  0
   58.4700   26.4212   47.0850 H   0  0  0  0  0  0  0  0  0  0  0  0
   59.7215   28.4749   47.7159 H   0  0  0  0  0  0  0  0  0  0  0  0
   64.4562   32.6623   49.2811 H   0  0  0  0  0  0  0  0  0  0  0  0
   63.5266   33.5605   50.5701 H   0  0  0  0  0  0  0  0  0  0  0  0
   64.4139   30.6917   50.4835 H   0  0  0  0  0  0  0  0  0  0  0  0
   64.2695   31.8343   51.8702 H   0  0  0  0  0  0  0  0  0  0  0  0
   62.7444   31.7523   53.1500 H   0  0  0  0  0  0  0  0  0  0  0  0
   61.4494   32.4437   52.0876 H   0  0  0  0  0  0  0  0  0  0  0  0
   61.3615   30.1176   53.9546 H   0  0  0  0  0  0  0  0  0  0  0  0
   60.0604   31.2377   53.4330 H   0  0  0  0  0  0  0  0  0  0  0  0
   61.9037   28.5516   53.1056 H   0  0  0  0  0  0  0  0  0  0  0  0
   60.2867   27.7792   52.9579 H   0  0  0  0  0  0  0  0  0  0  0  0
   62.5593   27.8620   51.0396 H   0  0  0  0  0  0  0  0  0  0  0  0
   61.1958   26.6689   51.2240 H   0  0  0  0  0  0  0  0  0  0  0  0
   61.0069   27.6790   49.0410 H   0  0  0  0  0  0  0  0  0  0  0  0
   59.6912   28.3280   50.0881 H   0  0  0  0  0  0  0  0  0  0  0  0
   60.7090   30.1980   50.2880 H   0  0  0  0  0  0  0  0  0  0  0  0
  1  2  1  0
  2  3  2  0
  2  4  1  0
  4  5  1  0
  5  6  1  0
  6  7  1  0
  7  8  1  0
  8  9  1  0
  9 10  1  0
 10 11  1  0
 11 12  2  0
 12 13  1  0
 13 14  2  0
 14 15  1  0
 15 16  2  0
 16 17  1  0
 17 18  2  0
 18 19  1  0
 18 20  1  0
 20 21  2  0
 21 22  1  0
 22 23  2  0
 23 24  1  0
 24 25  2  0
  7 26  1  0
 26 27  1  0
 27 28  1  0
 28 29  1  0
 29 30  1  0
 30 31  1  0
 31 32  1  0
 32 33  1  0
 33 34  1  0
 34 35  1  0
 25 11  1  0
 17 12  1  0
 25 20  1  0
  1 36  1  0
  1 37  1  0
  1 38  1  0
  5 39  1  0
  5 40  1  0
  6 41  1  0
  6 42  1  0
  7 43  1  1
  8 44  1  0
  8 45  1  0
  9 46  1  0
  9 47  1  0
 10 48  1  0
 13 49  1  0
 14 50  1  0
 15 51  1  0
 16 52  1  0
 19 53  1  0
 19 54  1  0
 19 55  1  0
 21 56  1  0
 22 57  1  0
 23 58  1  0
 24 59  1  0
 26 60  1  0
 26 61  1  0
 27 62  1  0
 27 63  1  0
 29 64  1  0
 29 65  1  0
 30 66  1  0
 30 67  1  0
 32 68  1  0
 32 69  1  0
 33 70  1  0
 33 71  1  0
 34 72  1  0
 34 73  1  0
 35 74  1  0
M  CHG  2   7   1  18   1
M  END
>  <UniqueID>  (19) 
18

>  <SMILES>  (19) 
CC(=O)OCC[N@@H+](CCNc1c2ccccc2[n+](C)c2ccccc12)CCOCCOCCCO

>  <Energy>  (19) 
105.37137950896629

>  <Genealogy>  (19) 
CC(=O)OCC[NH+](CCNc1c2ccccc2[n+](C)c2ccccc12)CCOCCOCCCO (protonated)
CC(=O)OCC[N@@H+](CCNc1c2ccccc2[n+](C)c2ccccc12)CCOCCOCCCO (chirality)
CC(=O)OCC[N@@H+](CCNc1c2ccccc2[n+](C)c2ccccc12)CCOCCOCCCO (3D coordinates assigned)
CC(=O)OCC[N@@H+](CCNc1c2ccccc2[n+](C)c2ccccc12)CCOCCOCCCO (optimized conformer: 105.37137950896629 kcal/mol)

>  <smiles>  (19) 
CC(=O)OCCN(CCNc1c2ccccc2[n+](C)c2ccccc12)CCOCCOCCCO

>  <score_type>  (19) 
oracle

>  <origin>  (19) 
adg

>  <m_score__min__energy>  (19) 
-4.75

>  <m_primary>  (19) 
energy

$$$$
19:0
     RDKit          3D

 32 35  0  0  0  0  0  0  0  0999 V2000
   57.7690   27.3090   43.1650 N   0  0  0  0  0  0  0  0  0  0  0  0
   57.7610   28.6160   43.7460 C   0  0  0  0  0  0  0  0  0  0  0  0
   56.6720   29.4720   43.5350 C   0  0  0  0  0  0  0  0  0  0  0  0
   56.6600   30.7490   44.1020 C   0  0  0  0  0  0  0  0  0  0  0  0
   57.7400   31.1830   44.8850 C   0  0  0  0  0  0  0  0  0  0  0  0
   57.7430   32.4550   45.4570 C   0  0  0  0  0  0  0  0  0  0  0  0
   58.8290   32.8720   46.2350 C   0  0  0  0  0  0  0  0  0  0  0  0
   58.8190   34.1500   46.8030 C   0  0  0  0  0  0  0  0  0  0  0  0
   59.8850   34.5840   47.5800 C   0  0  0  0  0  0  0  0  0  0  0  0
   60.9850   33.7520   47.8070 C   0  0  0  0  0  0  0  0  0  0  0  0
   62.0470   34.2200   48.5970 C   0  0  0  0  0  0  0  0  0  0  0  0
   63.1560   33.4120   48.8390 C   0  0  0  0  0  0  0  0  0  0  0  0
   63.2150   32.1310   48.2990 C   0  0  0  0  0  0  0  0  0  0  0  0
   62.1690   31.6450   47.5090 C   0  0  0  0  0  0  0  0  0  0  0  0
   61.0270   32.4430   47.2440 C   0  0  0  0  0  0  0  0  0  0  0  0
   59.9280   31.9960   46.4430 C   0  0  0  0  0  0  0  0  0  0  0  0
   59.8930   30.7480   45.8660 N   0  0  0  0  0  0  0  0  0  0  0  0
   58.8400   30.3290   45.1030 C   0  0  0  0  0  0  0  0  0  0  0  0
   58.8420   29.0460   44.5290 C   0  0  0  0  0  0  0  0  0  0  0  0
   58.6250   26.7110   43.2060 H   0  0  0  0  0  0  0  0  0  0  0  0
   56.9210   26.9290   42.6890 H   0  0  0  0  0  0  0  0  0  0  0  0
   55.8232   29.1374   42.9206 H   0  0  0  0  0  0  0  0  0  0  0  0
   55.8014   31.4158   43.9339 H   0  0  0  0  0  0  0  0  0  0  0  0
   56.8906   33.1314   45.2964 H   0  0  0  0  0  0  0  0  0  0  0  0
   57.9604   34.8163   46.6330 H   0  0  0  0  0  0  0  0  0  0  0  0
   59.8635   35.5916   48.0208 H   0  0  0  0  0  0  0  0  0  0  0  0
   62.0033   35.2312   49.0277 H   0  0  0  0  0  0  0  0  0  0  0  0
   63.9851   33.7869   49.4571 H   0  0  0  0  0  0  0  0  0  0  0  0
   64.0914   31.4958   48.4952 H   0  0  0  0  0  0  0  0  0  0  0  0
   62.2326   30.6309   47.0877 H   0  0  0  0  0  0  0  0  0  0  0  0
   60.6750   30.0740   45.9900 H   0  0  0  0  0  0  0  0  0  0  0  0
   59.6974   28.3746   44.6951 H   0  0  0  0  0  0  0  0  0  0  0  0
  1  2  1  0
  2  3  2  0
  3  4  1  0
  4  5  2  0
  5  6  1  0
  6  7  2  0
  7  8  1  0
  8  9  2  0
  9 10  1  0
 10 11  2  0
 11 12  1  0
 12 13  2  0
 13 14  1  0
 14 15  2  0
 15 16  1  0
 16 17  2  0
 17 18  1  0
 18 19  2  0
 19  2  1  0
 18  5  1  0
 16  7  1  0
 15 10  1  0
  1 20  1  0
  1 21  1  0
  3 22  1  0
  4 23  1  0
  6 24  1  0
  8 25  1  0
  9 26  1  0
 11 27  1  0
 12 28  1  0
 13 29  1  0
 14 30  1  0
 17 31  1  0
 19 32  1  0
M  CHG  1  17   1
M  END
>  <UniqueID>  (20) 
19

>  <SMILES>  (20) 
Nc1ccc2cc3ccc4ccccc4c3[nH+]c2c1

>  <Energy>  (20) 
50.29751328821098

>  <Genealogy>  (20) 
Nc1ccc2cc3ccc4ccccc4c3[nH+]c2c1 (protonated)
Nc1ccc2cc3ccc4ccccc4c3[nH+]c2c1 (3D coordinates assigned)
Nc1ccc2cc3ccc4ccccc4c3[nH+]c2c1 (optimized conformer: 50.29751328821098 kcal/mol)

>  <smiles>  (20) 
Nc1ccc2cc3ccc4ccccc4c3nc2c1

>  <score_type>  (20) 
oracle

>  <origin>  (20) 
adg

>  <m_score__min__energy>  (20) 
-6.1399999999999997

>  <m_primary>  (20) 
energy

$$$$
20:0
     RDKit          3D

 37 38  0  0  0  0  0  0  0  0999 V2000
   60.4110   29.5030   48.2980 C   0  0  0  0  0  0  0  0  0  0  0  0
   58.8980   29.6430   48.3220 C   0  0  0  0  0  0  0  0  0  0  0  0
   58.4170   29.7930   46.9890 O   0  0  0  0  0  0  0  0  0  0  0  0
   58.3200   28.7510   46.0530 C   0  0  0  0  0  0  0  0  0  0  0  0
   58.3990   27.3980   46.4390 C   0  0  0  0  0  0  0  0  0  0  0  0
   58.2850   26.3840   45.4870 C   0  0  0  0  0  0  0  0  0  0  0  0
   58.0970   26.7040   44.1410 C   0  0  0  0  0  0  0  0  0  0  0  0
   58.0190   28.0400   43.7440 C   0  0  0  0  0  0  0  0  0  0  0  0
   58.1220   29.0720   44.6940 C   0  0  0  0  0  0  0  0  0  0  0  0
   57.9950   30.5110   44.2490 C   0  0  0  0  0  0  0  0  0  0  0  0
   56.9270   31.2140   44.9780 N   0  0  0  0  0  0  0  0  0  0  0  0
   57.0210   32.6780   44.8520 C   0  0  0  0  0  0  0  0  0  0  0  0
   58.2040   33.1930   45.6280 C   0  0  0  0  0  0  0  0  0  0  0  0
   58.5820   34.5430   45.5380 C   0  0  0  0  0  0  0  0  0  0  0  0
   59.6470   35.0090   46.3090 C   0  0  0  0  0  0  0  0  0  0  0  0
   60.3310   34.1330   47.1510 C   0  0  0  0  0  0  0  0  0  0  0  0
   59.9420   32.7940   47.2060 C   0  0  0  0  0  0  0  0  0  0  0  0
   58.9000   32.3520   46.4490 N   0  0  0  0  0  0  0  0  0  0  0  0
   60.7924   29.4677   49.3292 H   0  0  0  0  0  0  0  0  0  0  0  0
   60.6852   28.5757   47.7737 H   0  0  0  0  0  0  0  0  0  0  0  0
   60.8507   30.3643   47.7737 H   0  0  0  0  0  0  0  0  0  0  0  0
   58.4531   28.7443   48.7741 H   0  0  0  0  0  0  0  0  0  0  0  0
   58.6193   30.5262   48.9155 H   0  0  0  0  0  0  0  0  0  0  0  0
   58.5515   27.1395   47.4973 H   0  0  0  0  0  0  0  0  0  0  0  0
   58.3434   25.3304   45.7977 H   0  0  0  0  0  0  0  0  0  0  0  0
   58.0103   25.9025   43.3926 H   0  0  0  0  0  0  0  0  0  0  0  0
   57.8761   28.2872   42.6817 H   0  0  0  0  0  0  0  0  0  0  0  0
   58.9497   31.0261   44.4312 H   0  0  0  0  0  0  0  0  0  0  0  0
   57.7414   30.5178   43.1786 H   0  0  0  0  0  0  0  0  0  0  0  0
   57.0400   30.9770   45.9910 H   0  0  0  0  0  0  0  0  0  0  0  0
   57.1387   32.9444   43.7912 H   0  0  0  0  0  0  0  0  0  0  0  0
   56.1034   33.1320   45.2543 H   0  0  0  0  0  0  0  0  0  0  0  0
   58.0430   35.2265   44.8655 H   0  0  0  0  0  0  0  0  0  0  0  0
   59.9467   36.0659   46.2528 H   0  0  0  0  0  0  0  0  0  0  0  0
   61.1688   34.4938   47.7657 H   0  0  0  0  0  0  0  0  0  0  0  0
   60.4787   32.0935   47.8628 H   0  0  0  0  0  0  0  0  0  0  0  0
   58.6230   31.3470   46.5190 H   0  0  0  0  0  0  0  0  0  0  0  0
  1  2  1  0
  2  3  1  0
  3  4  1  0
  4  5  2  0
  5  6  1  0
  6  7  2  0
  7  8  1  0
  8  9  2  0
  9 10  1  0
 10 11  1  0
 11 12  1  0
 12 13  1  0
 13 14  2  0
 14 15  1  0
 15 16  2  0
 16 17  1  0
 17 18  2  0
  9  4  1  0
 18 13  1  0
  1 19  1  0
  1 20  1  0
  1 21  1  0
  2 22  1  0
  2 23  1  0
  5 24  1  0
  6 25  1  0
  7 26  1  0
  8 27  1  0
 10 28  1  0
 10 29  1  0
 11 30  1  0
 12 31  1  0
 12 32  1  0
 14 33  1  0
 15 34  1  0
 16 35  1  0
 17 36  1  0
 18 37  1  0
M  CHG  1  18   1
M  END
>  <UniqueID>  (21) 
20

>  <SMILES>  (21) 
CCOc1ccccc1CNCc1cccc[nH+]1

>  <Energy>  (21) 
29.93500920062692

>  <Genealogy>  (21) 
CCOc1ccccc1CNCc1cccc[nH+]1 (protonated)
CCOc1ccccc1CNCc1cccc[nH+]1 (3D coordinates assigned)
CCOc1ccccc1CNCc1cccc[nH+]1 (optimized conformer: 29.93500920062692 kcal/mol)

>  <smiles>  (21) 
CCOc1ccccc1CNCc1ccccn1

>  <score_type>  (21) 
oracle

>  <origin>  (21) 
adg

>  <m_score__min__energy>  (21) 
-3.9700000000000002

>  <m_primary>  (21) 
energy

$$$$
21:0
     RDKit          3D

 46 48  0  0  0  0  0  0  0  0999 V2000
   57.7080   30.4220   44.4560 C   0  0  0  0  0  0  0  0  0  0  0  0
   57.3810   31.3860   45.4520 O   0  0  0  0  0  0  0  0  0  0  0  0
   58.0760   32.5890   45.6620 C   0  0  0  0  0  0  0  0  0  0  0  0
   58.1870   33.5560   44.6420 C   0  0  0  0  0  0  0  0  0  0  0  0
   58.8980   34.7360   44.8570 C   0  0  0  0  0  0  0  0  0  0  0  0
   59.5150   34.9640   46.0840 C   0  0  0  0  0  0  0  0  0  0  0  0
   59.4150   34.0200   47.1050 C   0  0  0  0  0  0  0  0  0  0  0  0
   58.6770   32.8310   46.9230 C   0  0  0  0  0  0  0  0  0  0  0  0
   58.5810   31.7820   48.0320 C   0  0  2  0  0  0  0  0  0  0  0  0
   58.2760   32.3400   49.4540 C   0  0  0  0  0  0  0  0  0  0  0  0
   59.4250   32.2330   50.3990 N   0  0  0  0  0  0  0  0  0  0  0  0
   59.8030   33.5610   50.9380 C   0  0  0  0  0  0  0  0  0  0  0  0
   58.8220   34.0380   52.0240 C   0  0  0  0  0  0  0  0  0  0  0  0
   58.7280   33.0960   53.0720 O   0  0  0  0  0  0  0  0  0  0  0  0
   58.2340   31.8710   52.5680 C   0  0  0  0  0  0  0  0  0  0  0  0
   59.1930   31.2880   51.5160 C   0  0  0  0  0  0  0  0  0  0  0  0
   59.7650   30.9150   48.0190 N   0  0  0  0  0  0  0  0  0  0  0  0
   61.0160   31.1330   47.3500 C   0  0  0  0  0  0  0  0  0  0  0  0
   61.3140   30.3900   46.3790 O   0  0  0  0  0  0  0  0  0  0  0  0
   61.9860   32.1510   47.7870 C   0  0  0  0  0  0  0  0  0  0  0  0
   63.1500   32.4850   47.1230 C   0  0  0  0  0  0  0  0  0  0  0  0
   63.7510   33.4600   47.8900 C   0  0  0  0  0  0  0  0  0  0  0  0
   62.9240   33.6540   48.9770 C   0  0  0  0  0  0  0  0  0  0  0  0
   61.8850   32.8570   48.8880 O   0  0  0  0  0  0  0  0  0  0  0  0
   58.0252   29.4870   44.9409 H   0  0  0  0  0  0  0  0  0  0  0  0
   56.8252   30.2287   43.8289 H   0  0  0  0  0  0  0  0  0  0  0  0
   58.5262   30.8057   43.8289 H   0  0  0  0  0  0  0  0  0  0  0  0
   57.7083   33.3779   43.6677 H   0  0  0  0  0  0  0  0  0  0  0  0
   58.9714   35.4871   44.0567 H   0  0  0  0  0  0  0  0  0  0  0  0
   60.0830   35.8916   46.2483 H   0  0  0  0  0  0  0  0  0  0  0  0
   59.9182   34.2045   48.0656 H   0  0  0  0  0  0  0  0  0  0  0  0
   57.6897   31.1824   47.7953 H   0  0  0  0  0  0  0  0  0  0  0  0
   58.0018   33.4011   49.3593 H   0  0  0  0  0  0  0  0  0  0  0  0
   57.4597   31.7312   49.8700 H   0  0  0  0  0  0  0  0  0  0  0  0
   60.2520   31.8860   49.8570 H   0  0  0  0  0  0  0  0  0  0  0  0
   60.8111   33.4947   51.3732 H   0  0  0  0  0  0  0  0  0  0  0  0
   59.7760   34.2858   50.1110 H   0  0  0  0  0  0  0  0  0  0  0  0
   59.1760   34.9960   52.4325 H   0  0  0  0  0  0  0  0  0  0  0  0
   57.8273   34.1561   51.5695 H   0  0  0  0  0  0  0  0  0  0  0  0
   58.1297   31.1556   53.3970 H   0  0  0  0  0  0  0  0  0  0  0  0
   57.2580   32.0521   52.0941 H   0  0  0  0  0  0  0  0  0  0  0  0
   60.1559   31.0631   51.9979 H   0  0  0  0  0  0  0  0  0  0  0  0
   58.7349   30.3770   51.1034 H   0  0  0  0  0  0  0  0  0  0  0  0
   63.5206   32.0610   46.1781 H   0  0  0  0  0  0  0  0  0  0  0  0
   64.6979   33.9782   47.6783 H   0  0  0  0  0  0  0  0  0  0  0  0
   63.1074   34.3677   49.7937 H   0  0  0  0  0  0  0  0  0  0  0  0
  1  2  1  0
  2  3  1  0
  3  4  2  0
  4  5  1  0
  5  6  2  0
  6  7  1  0
  7  8  2  0
  8  9  1  0
  9 10  1  0
 10 11  1  0
 11 12  1  0
 12 13  1  0
 13 14  1  0
 14 15  1  0
 15 16  1  0
  9 17  1  0
 17 18  1  0
 18 19  2  0
 18 20  1  0
 20 21  2  0
 21 22  1  0
 22 23  2  0
 23 24  1  0
  8  3  1  0
 16 11  1  0
 24 20  1  0
  1 25  1  0
  1 26  1  0
  1 27  1  0
  4 28  1  0
  5 29  1  0
  6 30  1  0
  7 31  1  0
  9 32  1  6
 10 33  1  0
 10 34  1  0
 11 35  1  0
 12 36  1  0
 12 37  1  0
 13 38  1  0
 13 39  1  0
 15 40  1  0
 15 41  1  0
 16 42  1  0
 16 43  1  0
 21 44  1  0
 22 45  1  0
 23 46  1  0
M  CHG  2  11   1  17  -1
M  END
>  <UniqueID>  (22) 
21

>  <SMILES>  (22) 
COc1ccccc1[C@H](C[NH+]1CCOCC1)[N-]C(=O)c1ccco1

>  <Energy>  (22) 
88.41205084740017

>  <Genealogy>  (22) 
COc1ccccc1C(C[NH+]1CCOCC1)[N-]C(=O)c1ccco1 (protonated)
COc1ccccc1[C@H](C[NH+]1CCOCC1)[N-]C(=O)c1ccco1 (chirality)
COc1ccccc1[C@H](C[NH+]1CCOCC1)[N-]C(=O)c1ccco1 (3D coordinates assigned)
COc1ccccc1[C@H](C[NH+]1CCOCC1)[N-]C(=O)c1ccco1 (nonaromatic ring conformer: 88.41205084740017 kcal/mol)

>  <smiles>  (22) 
COc1ccccc1C(CN1CCOCC1)NC(=O)c1ccco1

>  <score_type>  (22) 
oracle

>  <origin>  (22) 
adg

>  <m_score__min__energy>  (22) 
-6.4000000000000004

>  <m_primary>  (22) 
energy

$$$$
22:0
     RDKit          3D

 62 65  0  0  0  0  0  0  0  0999 V2000
   54.4240   30.8390   51.9680 C   0  0  0  0  0  0  0  0  0  0  0  0
   55.7080   30.6930   52.7910 C   0  0  0  0  0  0  0  0  0  0  0  0
   56.8960   30.4210   51.9490 N   0  0  0  0  0  0  0  0  0  0  0  0
   57.9890   29.8800   52.7820 C   0  0  0  0  0  0  0  0  0  0  0  0
   59.1930   29.4530   51.9130 C   0  0  0  0  0  0  0  0  0  0  0  0
   59.1840   30.1060   50.5830 N   0  0  0  0  0  0  0  0  0  0  0  0
   60.4980   30.0030   49.9130 C   0  0  0  0  0  0  0  0  0  0  0  0
   60.3520   29.6610   48.4200 C   0  0  0  0  0  0  0  0  0  0  0  0
   58.8830   29.5140   47.9930 C   0  0  0  0  0  0  0  0  0  0  0  0
   58.4950   30.5740   47.0600 N   0  0  0  0  0  0  0  0  0  0  0  0
   58.7900   31.8880   47.2070 C   0  0  0  0  0  0  0  0  0  0  0  0
   58.4270   32.5970   46.0680 C   0  0  0  0  0  0  0  0  0  0  0  0
   58.7240   34.0460   45.7920 C   0  0  0  0  0  0  0  0  0  0  0  0
   59.3060   34.7650   47.0200 C   0  0  0  0  0  0  0  0  0  0  0  0
   60.6660   34.2350   47.4090 C   0  0  0  0  0  0  0  0  0  0  0  0
   61.0400   34.1610   48.7600 C   0  0  0  0  0  0  0  0  0  0  0  0
   62.3140   33.7050   49.1130 C   0  0  0  0  0  0  0  0  0  0  0  0
   63.2210   33.3200   48.1220 C   0  0  0  0  0  0  0  0  0  0  0  0
   62.8550   33.3920   46.7750 C   0  0  0  0  0  0  0  0  0  0  0  0
   61.5870   33.8540   46.4170 C   0  0  0  0  0  0  0  0  0  0  0  0
   57.8880   31.6640   45.2000 C   0  0  0  0  0  0  0  0  0  0  0  0
   57.4100   31.7920   43.8930 C   0  0  0  0  0  0  0  0  0  0  0  0
   56.9610   30.6340   43.2390 C   0  0  0  0  0  0  0  0  0  0  0  0
   57.0060   29.3830   43.8890 C   0  0  0  0  0  0  0  0  0  0  0  0
   57.5030   29.2780   45.2000 C   0  0  0  0  0  0  0  0  0  0  0  0
   57.9370   30.4460   45.8360 C   0  0  0  0  0  0  0  0  0  0  0  0
   58.7970   31.5230   50.7170 C   0  0  0  0  0  0  0  0  0  0  0  0
   57.3480   31.6410   51.2330 C   0  0  0  0  0  0  0  0  0  0  0  0
   53.5632   30.9369   52.6458 H   0  0  0  0  0  0  0  0  0  0  0  0
   54.4949   31.7349   51.3337 H   0  0  0  0  0  0  0  0  0  0  0  0
   54.2920   29.9501   51.3337 H   0  0  0  0  0  0  0  0  0  0  0  0
   55.8773   31.6261   53.3484 H   0  0  0  0  0  0  0  0  0  0  0  0
   55.5750   29.8354   53.4669 H   0  0  0  0  0  0  0  0  0  0  0  0
   56.6340   29.6890   51.2440 H   0  0  0  0  0  0  0  0  0  0  0  0
   58.3155   30.6536   53.4926 H   0  0  0  0  0  0  0  0  0  0  0  0
   57.6143   28.9954   53.3178 H   0  0  0  0  0  0  0  0  0  0  0  0
   60.1215   29.7266   52.4355 H   0  0  0  0  0  0  0  0  0  0  0  0
   59.1269   28.3663   51.7557 H   0  0  0  0  0  0  0  0  0  0  0  0
   61.0228   30.9650   50.0084 H   0  0  0  0  0  0  0  0  0  0  0  0
   61.0657   29.1938   50.3955 H   0  0  0  0  0  0  0  0  0  0  0  0
   60.8135   30.4643   47.8269 H   0  0  0  0  0  0  0  0  0  0  0  0
   60.8495   28.6953   48.2472 H   0  0  0  0  0  0  0  0  0  0  0  0
   58.7472   28.5380   47.5041 H   0  0  0  0  0  0  0  0  0  0  0  0
   58.2500   29.5896   48.8895 H   0  0  0  0  0  0  0  0  0  0  0  0
   59.2517   32.3313   48.1016 H   0  0  0  0  0  0  0  0  0  0  0  0
   59.4504   34.1078   44.9683 H   0  0  0  0  0  0  0  0  0  0  0  0
   57.7770   34.5402   45.5294 H   0  0  0  0  0  0  0  0  0  0  0  0
   59.3973   35.8370   46.7909 H   0  0  0  0  0  0  0  0  0  0  0  0
   58.6241   34.5891   47.8650 H   0  0  0  0  0  0  0  0  0  0  0  0
   60.3289   34.4626   49.5432 H   0  0  0  0  0  0  0  0  0  0  0  0
   62.6028   33.6492   50.1729 H   0  0  0  0  0  0  0  0  0  0  0  0
   64.2222   32.9606   48.4019 H   0  0  0  0  0  0  0  0  0  0  0  0
   63.5673   33.0841   45.9954 H   0  0  0  0  0  0  0  0  0  0  0  0
   61.3075   33.9202   45.3552 H   0  0  0  0  0  0  0  0  0  0  0  0
   57.3863   32.7709   43.3918 H   0  0  0  0  0  0  0  0  0  0  0  0
   56.5714   30.7026   42.2126 H   0  0  0  0  0  0  0  0  0  0  0  0
   56.6497   28.4830   43.3664 H   0  0  0  0  0  0  0  0  0  0  0  0
   57.5493   28.3051   45.7111 H   0  0  0  0  0  0  0  0  0  0  0  0
   59.4756   32.0179   51.4273 H   0  0  0  0  0  0  0  0  0  0  0  0
   58.8636   32.0047   49.7303 H   0  0  0  0  0  0  0  0  0  0  0  0
   57.2878   32.4965   51.9219 H   0  0  0  0  0  0  0  0  0  0  0  0
   56.6932   31.7768   50.3596 H   0  0  0  0  0  0  0  0  0  0  0  0
  1  2  1  0
  2  3  1  0
  3  4  1  0
  4  5  1  0
  5  6  1  0
  6  7  1  0
  7  8  1  0
  8  9  1  0
  9 10  1  0
 10 11  1  0
 11 12  2  0
 12 13  1  0
 13 14  1  0
 14 15  1  0
 15 16  2  0
 16 17  1  0
 17 18  2  0
 18 19  1  0
 19 20  2  0
 12 21  1  0
 21 22  2  0
 22 23  1  0
 23 24  2  0
 24 25  1  0
 25 26  2  0
  6 27  1  0
 27 28  1  0
 28  3  1  0
 26 10  1  0
 20 15  1  0
 26 21  1  0
  1 29  1  0
  1 30  1  0
  1 31  1  0
  2 32  1  0
  2 33  1  0
  3 34  1  0
  4 35  1  0
  4 36  1  0
  5 37  1  0
  5 38  1  0
  7 39  1  0
  7 40  1  0
  8 41  1  0
  8 42  1  0
  9 43  1  0
  9 44  1  0
 11 45  1  0
 13 46  1  0
 13 47  1  0
 14 48  1  0
 14 49  1  0
 16 50  1  0
 17 51  1  0
 18 52  1  0
 19 53  1  0
 20 54  1  0
 22 55  1  0
 23 56  1  0
 24 57  1  0
 25 58  1  0
 27 59  1  0
 27 60  1  0
 28 61  1  0
 28 62  1  0
M  CHG  1   3   1
M  END
>  <UniqueID>  (23) 
22

>  <SMILES>  (23) 
CC[NH+]1CCN(CCCn2cc(CCc3ccccc3)c3ccccc32)CC1

>  <Energy>  (23) 
95.33323357992649

>  <Genealogy>  (23) 
CC[NH+]1CCN(CCCn2cc(CCc3ccccc3)c3ccccc32)CC1 (protonated)
CC[NH+]1CCN(CCCn2cc(CCc3ccccc3)c3ccccc32)CC1 (3D coordinates assigned)
CC[NH+]1CCN(CCCn2cc(CCc3ccccc3)c3ccccc32)CC1 (nonaromatic ring conformer: 95.33323357992649 kcal/mol)

>  <smiles>  (23) 
CCN1CCN(CCCn2cc(CCc3ccccc3)c3ccccc32)CC1

>  <score_type>  (23) 
oracle

>  <origin>  (23) 
adg

>  <m_score__min__energy>  (23) 
-7.3300000000000001

>  <m_primary>  (23) 
energy

$$$$
23:0
     RDKit          3D

 43 45  0  0  0  0  0  0  0  0999 V2000
   66.7370   32.6950   50.1250 C   0  0  0  0  0  0  0  0  0  0  0  0
   65.4900   32.9650   49.5230 O   0  0  0  0  0  0  0  0  0  0  0  0
   64.6530   33.6790   50.4150 C   0  0  0  0  0  0  0  0  0  0  0  0
   63.6350   32.7440   51.0750 C   0  0  0  0  0  0  0  0  0  0  0  0
   63.3960   31.2100   50.1100 S   0  0  0  0  0  0  0  0  0  0  0  0
   62.7240   32.0360   48.6630 C   0  0  0  0  0  0  0  0  0  0  0  0
   63.4790   32.5590   47.6840 N   0  0  0  0  0  0  0  0  0  0  0  0
   62.6690   33.0380   46.7530 N   0  0  0  0  0  0  0  0  0  0  0  0
   61.4100   32.8000   47.1810 C   0  0  0  0  0  0  0  0  0  0  0  0
   60.2080   33.2360   46.4360 C   0  0  0  0  0  0  0  0  0  0  0  0
   60.0840   34.5640   45.9980 C   0  0  0  0  0  0  0  0  0  0  0  0
   58.9320   34.9570   45.3120 C   0  0  0  0  0  0  0  0  0  0  0  0
   57.9170   34.0310   45.0720 C   0  0  0  0  0  0  0  0  0  0  0  0
   58.0670   32.7210   45.5280 C   0  0  0  0  0  0  0  0  0  0  0  0
   59.1960   32.3580   46.1950 N   0  0  0  0  0  0  0  0  0  0  0  0
   61.4130   32.1730   48.3840 N   0  0  0  0  0  0  0  0  0  0  0  0
   60.3090   31.6470   49.1350 C   0  0  0  0  0  0  0  0  0  0  0  0
   60.0670   30.2660   49.1630 C   0  0  0  0  0  0  0  0  0  0  0  0
   59.0020   29.7510   49.9070 C   0  0  0  0  0  0  0  0  0  0  0  0
   58.1680   30.6140   50.6420 C   0  0  0  0  0  0  0  0  0  0  0  0
   57.0870   30.1470   51.4040 O   0  0  0  0  0  0  0  0  0  0  0  0
   56.1560   30.9880   52.0780 C   0  0  0  0  0  0  0  0  0  0  0  0
   58.4190   31.9910   50.6190 C   0  0  0  0  0  0  0  0  0  0  0  0
   59.4840   32.5060   49.8730 C   0  0  0  0  0  0  0  0  0  0  0  0
   66.6286   32.7185   51.2194 H   0  0  0  0  0  0  0  0  0  0  0  0
   67.0873   31.7002   49.8125 H   0  0  0  0  0  0  0  0  0  0  0  0
   67.4674   33.4558   49.8125 H   0  0  0  0  0  0  0  0  0  0  0  0
   65.2726   34.1453   51.1952 H   0  0  0  0  0  0  0  0  0  0  0  0
   64.1082   34.4475   49.8471 H   0  0  0  0  0  0  0  0  0  0  0  0
   63.9941   32.4797   52.0806 H   0  0  0  0  0  0  0  0  0  0  0  0
   62.6702   33.2700   51.1251 H   0  0  0  0  0  0  0  0  0  0  0  0
   64.5220   32.5830   47.6370 H   0  0  0  0  0  0  0  0  0  0  0  0
   60.8875   35.2894   46.1933 H   0  0  0  0  0  0  0  0  0  0  0  0
   58.8258   35.9944   44.9620 H   0  0  0  0  0  0  0  0  0  0  0  0
   57.0083   34.3302   44.5292 H   0  0  0  0  0  0  0  0  0  0  0  0
   57.2726   31.9817   45.3483 H   0  0  0  0  0  0  0  0  0  0  0  0
   60.7188   29.5846   48.5965 H   0  0  0  0  0  0  0  0  0  0  0  0
   58.8149   28.6671   49.9182 H   0  0  0  0  0  0  0  0  0  0  0  0
   56.2805   30.8755   53.1651 H   0  0  0  0  0  0  0  0  0  0  0  0
   56.3363   32.0355   51.7947 H   0  0  0  0  0  0  0  0  0  0  0  0
   55.1321   30.7025   51.7947 H   0  0  0  0  0  0  0  0  0  0  0  0
   57.7737   32.6731   51.1920 H   0  0  0  0  0  0  0  0  0  0  0  0
   59.6746   33.5893   49.8656 H   0  0  0  0  0  0  0  0  0  0  0  0
  1  2  1  0
  2  3  1  0
  3  4  1  0
  4  5  1  0
  5  6  1  0
  6  7  2  0
  7  8  1  0
  8  9  2  0
  9 10  1  0
 10 11  2  0
 11 12  1  0
 12 13  2  0
 13 14  1  0
 14 15  2  0
  9 16  1  0
 16 17  1  0
 17 18  2  0
 18 19  1  0
 19 20  2  0
 20 21  1  0
 21 22  1  0
 20 23  1  0
 23 24  2  0
 16  6  1  0
 24 17  1  0
 15 10  1  0
  1 25  1  0
  1 26  1  0
  1 27  1  0
  3 28  1  0
  3 29  1  0
  4 30  1  0
  4 31  1  0
  7 32  1  0
 11 33  1  0
 12 34  1  0
 13 35  1  0
 14 36  1  0
 18 37  1  0
 19 38  1  0
 22 39  1  0
 22 40  1  0
 22 41  1  0
 23 42  1  0
 24 43  1  0
M  CHG  1   7   1
M  END
>  <UniqueID>  (24) 
23

>  <SMILES>  (24) 
COCCSc1[nH+]nc(-c2ccccn2)n1-c1ccc(OC)cc1

>  <Energy>  (24) 
84.43924793860782

>  <Genealogy>  (24) 
COCCSc1[nH+]nc(-c2ccccn2)n1-c1ccc(OC)cc1 (protonated)
COCCSc1[nH+]nc(-c2ccccn2)n1-c1ccc(OC)cc1 (3D coordinates assigned)
COCCSc1[nH+]nc(-c2ccccn2)n1-c1ccc(OC)cc1 (optimized conformer: 84.43924793860782 kcal/mol)

>  <smiles>  (24) 
COCCSc1nnc(-c2ccccn2)n1-c1ccc(OC)cc1

>  <score_type>  (24) 
oracle

>  <origin>  (24) 
adg

>  <m_score__min__energy>  (24) 
-5.8600000000000003

>  <m_primary>  (24) 
energy

$$$$
24:0
     RDKit          3D

 28 29  0  0  0  0  0  0  0  0999 V2000
   57.8190   33.4550   46.6860 C   0  0  0  0  0  0  0  0  0  0  0  0
   57.2180   33.6580   45.2950 C   0  0  0  0  0  0  0  0  0  0  0  0
   57.7990   32.6870   44.2600 C   0  0  0  0  0  0  0  0  0  0  0  0
   57.3680   31.2770   44.5200 C   0  0  0  0  0  0  0  0  0  0  0  0
   56.0810   30.9070   44.6780 N   0  0  0  0  0  0  0  0  0  0  0  0
   56.1260   29.6200   44.8460 O   0  0  0  0  0  0  0  0  0  0  0  0
   57.3680   29.2110   44.7850 C   0  0  0  0  0  0  0  0  0  0  0  0
   57.7960   27.7880   44.9670 C   0  0  0  0  0  0  0  0  0  0  0  0
   57.2300   27.1950   46.2610 C   0  0  0  0  0  0  0  0  0  0  0  0
   56.2170   26.1250   45.9800 C   0  0  0  0  0  0  0  0  0  0  0  0
   56.4880   24.8330   45.5980 C   0  0  0  0  0  0  0  0  0  0  0  0
   55.3270   24.1940   45.3750 N   0  0  0  0  0  0  0  0  0  0  0  0
   54.3840   25.1280   45.6240 C   0  0  0  0  0  0  0  0  0  0  0  0
   54.8880   26.3250   45.9900 N   0  0  0  0  0  0  0  0  0  0  0  0
   58.2210   30.2320   44.5760 N   0  0  0  0  0  0  0  0  0  0  0  0
   57.0692   33.7083   47.4499 H   0  0  0  0  0  0  0  0  0  0  0  0
   58.1227   32.4044   46.8045 H   0  0  0  0  0  0  0  0  0  0  0  0
   58.6975   34.1063   46.8045 H   0  0  0  0  0  0  0  0  0  0  0  0
   56.1306   33.5026   45.3538 H   0  0  0  0  0  0  0  0  0  0  0  0
   57.4620   34.6802   44.9700 H   0  0  0  0  0  0  0  0  0  0  0  0
   57.4554   32.9858   43.2587 H   0  0  0  0  0  0  0  0  0  0  0  0
   58.8960   32.7284   44.3291 H   0  0  0  0  0  0  0  0  0  0  0  0
   57.4361   27.1942   44.1138 H   0  0  0  0  0  0  0  0  0  0  0  0
   58.8941   27.7617   45.0256 H   0  0  0  0  0  0  0  0  0  0  0  0
   58.0546   26.7614   46.8458 H   0  0  0  0  0  0  0  0  0  0  0  0
   56.7334   28.0011   46.8210 H   0  0  0  0  0  0  0  0  0  0  0  0
   57.4910   24.3938   45.4921 H   0  0  0  0  0  0  0  0  0  0  0  0
   53.3053   24.9313   45.5366 H   0  0  0  0  0  0  0  0  0  0  0  0
  1  2  1  0
  2  3  1  0
  3  4  1  0
  4  5  2  0
  5  6  1  0
  6  7  1  0
  7  8  1  0
  8  9  1  0
  9 10  1  0
 10 11  2  0
 11 12  1  0
 12 13  1  0
 13 14  2  0
  7 15  2  0
 15  4  1  0
 14 10  1  0
  1 16  1  0
  1 17  1  0
  1 18  1  0
  2 19  1  0
  2 20  1  0
  3 21  1  0
  3 22  1  0
  8 23  1  0
  8 24  1  0
  9 25  1  0
  9 26  1  0
 11 27  1  0
 13 28  1  0
M  CHG  1  12  -1
M  END
>  <UniqueID>  (25) 
24

>  <SMILES>  (25) 
CCCc1noc(CCc2c[n-]cn2)n1

>  <Energy>  (25) 
77.88363047052228

>  <Genealogy>  (25) 
CCCc1noc(CCc2c[n-]cn2)n1 (protonated)
CCCc1noc(CCc2c[n-]cn2)n1 (3D coordinates assigned)
CCCc1noc(CCc2c[n-]cn2)n1 (optimized conformer: 77.88363047052228 kcal/mol)

>  <smiles>  (25) 
CCCc1noc(CCc2c[nH]cn2)n1

>  <score_type>  (25) 
oracle

>  <origin>  (25) 
adg

>  <m_score__min__energy>  (25) 
-8.4199999999999999

>  <m_primary>  (25) 
energy

$$$$
25:0
     RDKit          3D

 32 34  0  0  0  0  0  0  0  0999 V2000
   60.8490   28.5340   44.9200 O   0  0  0  0  0  0  0  0  0  0  0  0
   59.5940   28.6480   44.9280 C   0  0  0  0  0  0  0  0  0  0  0  0
   58.9750   29.8500   44.3430 C   0  0  0  0  0  0  0  0  0  0  0  0
   57.6420   30.0270   44.3480 C   0  0  0  0  0  0  0  0  0  0  0  0
   57.0350   31.2330   43.7340 C   0  0  0  0  0  0  0  0  0  0  0  0
   57.4200   32.4990   43.9640 C   0  0  0  0  0  0  0  0  0  0  0  0
   58.0900   32.9770   45.1950 C   0  0  0  0  0  0  0  0  0  0  0  0
   57.8110   32.4120   46.4540 C   0  0  0  0  0  0  0  0  0  0  0  0
   58.4420   32.9010   47.6010 C   0  0  0  0  0  0  0  0  0  0  0  0
   59.3400   33.9690   47.5070 C   0  0  0  0  0  0  0  0  0  0  0  0
   60.1300   34.5820   48.9480 Cl  0  0  0  0  0  0  0  0  0  0  0  0
   59.5990   34.5550   46.2640 C   0  0  0  0  0  0  0  0  0  0  0  0
   58.9700   34.0680   45.1140 C   0  0  0  0  0  0  0  0  0  0  0  0
   56.7560   28.9720   44.8970 C   0  0  0  0  0  0  0  0  0  0  0  0
   55.5040   29.1260   44.8650 O   0  0  0  0  0  0  0  0  0  0  0  0
   57.3410   27.7480   45.4940 C   0  0  0  0  0  0  0  0  0  0  0  0
   56.5220   26.7450   46.0430 C   0  0  0  0  0  0  0  0  0  0  0  0
   57.0920   25.6000   46.6050 C   0  0  0  0  0  0  0  0  0  0  0  0
   58.4800   25.4450   46.6230 C   0  0  0  0  0  0  0  0  0  0  0  0
   59.3040   26.4340   46.0800 C   0  0  0  0  0  0  0  0  0  0  0  0
   58.7410   27.5890   45.5120 C   0  0  0  0  0  0  0  0  0  0  0  0
   59.6178   30.6202   43.8918 H   0  0  0  0  0  0  0  0  0  0  0  0
   56.2015   31.0779   43.0331 H   0  0  0  0  0  0  0  0  0  0  0  0
   57.2219   33.2397   43.1752 H   0  0  0  0  0  0  0  0  0  0  0  0
   57.0934   31.5823   46.5351 H   0  0  0  0  0  0  0  0  0  0  0  0
   58.2320   32.4450   48.5797 H   0  0  0  0  0  0  0  0  0  0  0  0
   60.2988   35.4005   46.1908 H   0  0  0  0  0  0  0  0  0  0  0  0
   59.1657   34.5421   44.1409 H   0  0  0  0  0  0  0  0  0  0  0  0
   55.4284   26.8626   46.0298 H   0  0  0  0  0  0  0  0  0  0  0  0
   56.4467   24.8193   47.0340 H   0  0  0  0  0  0  0  0  0  0  0  0
   58.9255   24.5420   47.0658 H   0  0  0  0  0  0  0  0  0  0  0  0
   60.3966   26.3080   46.0973 H   0  0  0  0  0  0  0  0  0  0  0  0
  1  2  2  0
  2  3  1  0
  3  4  2  0
  4  5  1  0
  5  6  2  3
  6  7  1  0
  7  8  2  0
  8  9  1  0
  9 10  2  0
 10 11  1  0
 10 12  1  0
 12 13  2  0
  4 14  1  0
 14 15  2  0
 14 16  1  0
 16 17  2  0
 17 18  1  0
 18 19  2  0
 19 20  1  0
 20 21  2  0
 21  2  1  0
 13  7  1  0
 21 16  1  0
  3 22  1  0
  5 23  1  0
  6 24  1  0
  8 25  1  0
  9 26  1  0
 12 27  1  0
 13 28  1  0
 17 29  1  0
 18 30  1  0
 19 31  1  0
 20 32  1  0
M  END
>  <UniqueID>  (26) 
25

>  <SMILES>  (26) 
O=C1C=C(C=Cc2ccc(Cl)cc2)C(=O)c2ccccc21

>  <Energy>  (26) 
46.04571894671888

>  <Genealogy>  (26) 
O=C1C=C(C=Cc2ccc(Cl)cc2)C(=O)c2ccccc21 (3D coordinates assigned)
O=C1C=C(C=Cc2ccc(Cl)cc2)C(=O)c2ccccc21 (nonaromatic ring conformer: 46.04571894671888 kcal/mol)

>  <smiles>  (26) 
O=C1C=C(C=Cc2ccc(Cl)cc2)C(=O)c2ccccc21

>  <score_type>  (26) 
oracle

>  <origin>  (26) 
adg

>  <m_score__min__energy>  (26) 
-8.6199999999999992

>  <m_primary>  (26) 
energy

$$$$
26:0
     RDKit          3D

 41 42  0  0  0  0  0  0  0  0999 V2000
   57.0670   21.9130   43.5620 C   0  0  0  0  0  0  0  0  0  0  0  0
   55.7640   22.4510   43.5480 O   0  0  0  0  0  0  0  0  0  0  0  0
   55.8000   23.7780   44.0270 C   0  0  0  0  0  0  0  0  0  0  0  0
   56.7530   23.8720   45.2180 C   0  0  0  0  0  0  0  0  0  0  0  0
   56.2320   24.7860   46.2290 N   0  0  0  0  0  0  0  0  0  0  0  0
   55.7020   26.0830   45.9370 C   0  0  0  0  0  0  0  0  0  0  0  0
   54.4600   26.2900   45.9690 O   0  0  0  0  0  0  0  0  0  0  0  0
   56.6350   27.2090   45.6140 C   0  0  0  0  0  0  0  0  0  0  0  0
   55.8860   28.4090   45.2450 N   0  0  0  0  0  0  0  0  0  0  0  0
   56.4500   29.6220   44.7290 C   0  0  0  0  0  0  0  0  0  0  0  0
   55.9080   30.1660   43.7320 O   0  0  0  0  0  0  0  0  0  0  0  0
   57.6660   30.2300   45.3020 C   0  0  0  0  0  0  0  0  0  0  0  0
   58.7750   29.4260   45.6000 C   0  0  0  0  0  0  0  0  0  0  0  0
   59.9290   29.9910   46.1490 C   0  0  0  0  0  0  0  0  0  0  0  0
   59.9990   31.3730   46.3990 C   0  0  0  0  0  0  0  0  0  0  0  0
   61.2230   31.9730   46.9900 C   0  0  0  0  0  0  0  0  0  0  0  0
   61.9980   31.2510   47.9180 C   0  0  0  0  0  0  0  0  0  0  0  0
   63.1490   31.8190   48.4730 C   0  0  0  0  0  0  0  0  0  0  0  0
   63.5380   33.1110   48.1100 C   0  0  0  0  0  0  0  0  0  0  0  0
   62.7780   33.8370   47.1910 C   0  0  0  0  0  0  0  0  0  0  0  0
   61.6260   33.2730   46.6340 C   0  0  0  0  0  0  0  0  0  0  0  0
   58.8920   32.1780   46.0780 C   0  0  0  0  0  0  0  0  0  0  0  0
   57.7390   31.6120   45.5280 C   0  0  0  0  0  0  0  0  0  0  0  0
   57.3964   21.7770   44.6027 H   0  0  0  0  0  0  0  0  0  0  0  0
   57.0679   20.9409   43.0471 H   0  0  0  0  0  0  0  0  0  0  0  0
   57.7534   22.6013   43.0471 H   0  0  0  0  0  0  0  0  0  0  0  0
   56.1493   24.4462   43.2260 H   0  0  0  0  0  0  0  0  0  0  0  0
   54.7903   24.0772   44.3449 H   0  0  0  0  0  0  0  0  0  0  0  0
   56.8735   22.8732   45.6629 H   0  0  0  0  0  0  0  0  0  0  0  0
   57.7221   24.2537   44.8642 H   0  0  0  0  0  0  0  0  0  0  0  0
   57.2564   27.4275   46.4950 H   0  0  0  0  0  0  0  0  0  0  0  0
   57.2686   26.9118   44.7653 H   0  0  0  0  0  0  0  0  0  0  0  0
   58.7365   28.3449   45.4006 H   0  0  0  0  0  0  0  0  0  0  0  0
   60.7900   29.3493   46.3876 H   0  0  0  0  0  0  0  0  0  0  0  0
   61.6961   30.2338   48.2081 H   0  0  0  0  0  0  0  0  0  0  0  0
   63.7491   31.2477   49.1965 H   0  0  0  0  0  0  0  0  0  0  0  0
   64.4433   33.5563   48.5484 H   0  0  0  0  0  0  0  0  0  0  0  0
   63.0857   34.8536   46.9048 H   0  0  0  0  0  0  0  0  0  0  0  0
   61.0302   33.8504   45.9118 H   0  0  0  0  0  0  0  0  0  0  0  0
   58.9339   33.2618   46.2613 H   0  0  0  0  0  0  0  0  0  0  0  0
   56.8837   32.2541   45.2708 H   0  0  0  0  0  0  0  0  0  0  0  0
  1  2  1  0
  2  3  1  0
  3  4  1  0
  4  5  1  0
  5  6  1  0
  6  7  2  0
  6  8  1  0
  8  9  1  0
  9 10  1  0
 10 11  2  0
 10 12  1  0
 12 13  2  0
 13 14  1  0
 14 15  2  0
 15 16  1  0
 16 17  2  0
 17 18  1  0
 18 19  2  0
 19 20  1  0
 20 21  2  0
 15 22  1  0
 22 23  2  0
 23 12  1  0
 21 16  1  0
  1 24  1  0
  1 25  1  0
  1 26  1  0
  3 27  1  0
  3 28  1  0
  4 29  1  0
  4 30  1  0
  8 31  1  0
  8 32  1  0
 13 33  1  0
 14 34  1  0
 17 35  1  0
 18 36  1  0
 19 37  1  0
 20 38  1  0
 21 39  1  0
 22 40  1  0
 23 41  1  0
M  CHG  2   5  -1   9  -1
M  END
>  <UniqueID>  (27) 
26

>  <SMILES>  (27) 
COCC[N-]C(=O)C[N-]C(=O)c1ccc(-c2ccccc2)cc1

>  <Energy>  (27) 
45.900189159239375

>  <Genealogy>  (27) 
COCC[N-]C(=O)C[N-]C(=O)c1ccc(-c2ccccc2)cc1 (protonated)
COCC[N-]C(=O)C[N-]C(=O)c1ccc(-c2ccccc2)cc1 (3D coordinates assigned)
COCC[N-]C(=O)C[N-]C(=O)c1ccc(-c2ccccc2)cc1 (optimized conformer: 45.900189159239375 kcal/mol)

>  <smiles>  (27) 
COCCNC(=O)CNC(=O)c1ccc(-c2ccccc2)cc1

>  <score_type>  (27) 
oracle

>  <origin>  (27) 
adg

>  <m_score__min__energy>  (27) 
-11.68

>  <m_primary>  (27) 
energy

$$$$
27:0
     RDKit          3D

 57 59  0  0  0  0  0  0  0  0999 V2000
   56.5630   30.2420   43.6820 C   0  0  0  0  0  0  0  0  0  0  0  0
   56.7050   30.8300   44.9710 O   0  0  0  0  0  0  0  0  0  0  0  0
   57.5430   31.9190   45.2580 C   0  0  0  0  0  0  0  0  0  0  0  0
   57.7510   32.8780   44.2600 C   0  0  0  0  0  0  0  0  0  0  0  0
   58.5770   33.9780   44.4960 C   0  0  0  0  0  0  0  0  0  0  0  0
   59.1960   34.1360   45.7380 C   0  0  0  0  0  0  0  0  0  0  0  0
   58.9940   33.1910   46.7550 C   0  0  0  0  0  0  0  0  0  0  0  0
   59.6420   33.3680   48.1110 C   0  0  0  0  0  0  0  0  0  0  0  0
   61.0170   32.8040   48.1460 N   0  0  2  0  0  0  0  0  0  0  0  0
   62.0060   33.8350   47.7240 C   0  0  0  0  0  0  0  0  0  0  0  0
   63.3990   33.2360   47.4270 C   0  0  0  0  0  0  0  0  0  0  0  0
   64.1690   32.8910   48.7090 C   0  0  0  0  0  0  0  0  0  0  0  0
   63.3050   32.1580   49.6290 N   0  0  0  0  0  0  0  0  0  0  0  0
   61.1060   31.6040   47.2670 C   0  0  0  0  0  0  0  0  0  0  0  0
   60.9660   30.3090   48.0400 C   0  0  0  0  0  0  0  0  0  0  0  0
   61.1990   30.2910   49.2790 O   0  0  0  0  0  0  0  0  0  0  0  0
   60.5590   29.0950   47.3800 N   0  0  0  0  0  0  0  0  0  0  0  0
   60.5410   27.8100   48.0880 C   0  0  0  0  0  0  0  0  0  0  0  0
   59.2020   27.1230   47.8400 C   0  0  0  0  0  0  0  0  0  0  0  0
   58.8710   27.0840   46.3690 C   0  0  0  0  0  0  0  0  0  0  0  0
   57.9510   26.1330   45.8990 C   0  0  0  0  0  0  0  0  0  0  0  0
   57.5940   26.1020   44.5500 C   0  0  0  0  0  0  0  0  0  0  0  0
   58.1420   27.0260   43.6590 C   0  0  0  0  0  0  0  0  0  0  0  0
   59.0450   27.9890   44.1160 C   0  0  0  0  0  0  0  0  0  0  0  0
   59.4080   28.0370   45.4700 C   0  0  0  0  0  0  0  0  0  0  0  0
   60.4080   29.0780   45.9220 C   0  0  0  0  0  0  0  0  0  0  0  0
   58.1720   32.0780   46.5080 C   0  0  0  0  0  0  0  0  0  0  0  0
   56.3060   29.1780   43.7907 H   0  0  0  0  0  0  0  0  0  0  0  0
   55.7636   30.7577   43.1298 H   0  0  0  0  0  0  0  0  0  0  0  0
   57.5097   30.3360   43.1298 H   0  0  0  0  0  0  0  0  0  0  0  0
   57.2598   32.7639   43.2824 H   0  0  0  0  0  0  0  0  0  0  0  0
   58.7408   34.7219   43.7024 H   0  0  0  0  0  0  0  0  0  0  0  0
   59.8449   35.0054   45.9196 H   0  0  0  0  0  0  0  0  0  0  0  0
   59.6921   34.4419   48.3438 H   0  0  0  0  0  0  0  0  0  0  0  0
   59.0336   32.8295   48.8525 H   0  0  0  0  0  0  0  0  0  0  0  0
   61.2340   32.5130   49.1290 H   0  0  0  0  0  0  0  0  0  0  0  0
   61.6337   34.3288   46.8143 H   0  0  0  0  0  0  0  0  0  0  0  0
   62.1198   34.5471   48.5547 H   0  0  0  0  0  0  0  0  0  0  0  0
   63.2706   32.3187   46.8336 H   0  0  0  0  0  0  0  0  0  0  0  0
   63.9803   33.9912   46.8777 H   0  0  0  0  0  0  0  0  0  0  0  0
   65.0403   32.2696   48.4544 H   0  0  0  0  0  0  0  0  0  0  0  0
   64.5023   33.8218   49.1912 H   0  0  0  0  0  0  0  0  0  0  0  0
   63.8400   32.0070   50.5160 H   0  0  0  0  0  0  0  0  0  0  0  0
   63.1310   31.2070   49.2260 H   0  0  0  0  0  0  0  0  0  0  0  0
   60.3034   31.6558   46.5166 H   0  0  0  0  0  0  0  0  0  0  0  0
   62.1000   31.6070   46.7958 H   0  0  0  0  0  0  0  0  0  0  0  0
   61.3566   27.1727   47.7157 H   0  0  0  0  0  0  0  0  0  0  0  0
   60.6771   27.9788   49.1664 H   0  0  0  0  0  0  0  0  0  0  0  0
   59.2509   26.0933   48.2238 H   0  0  0  0  0  0  0  0  0  0  0  0
   58.4173   27.6941   48.3577 H   0  0  0  0  0  0  0  0  0  0  0  0
   57.5089   25.4080   46.5982 H   0  0  0  0  0  0  0  0  0  0  0  0
   56.8794   25.3479   44.1884 H   0  0  0  0  0  0  0  0  0  0  0  0
   57.8625   26.9959   42.5955 H   0  0  0  0  0  0  0  0  0  0  0  0
   59.4742   28.7145   43.4093 H   0  0  0  0  0  0  0  0  0  0  0  0
   61.3839   28.8550   45.4661 H   0  0  0  0  0  0  0  0  0  0  0  0
   60.0386   30.0649   45.6063 H   0  0  0  0  0  0  0  0  0  0  0  0
   58.0190   31.3261   47.2962 H   0  0  0  0  0  0  0  0  0  0  0  0
  1  2  1  0
  2  3  1  0
  3  4  2  0
  4  5  1  0
  5  6  2  0
  6  7  1  0
  7  8  1  0
  8  9  1  0
  9 10  1  0
 10 11  1  0
 11 12  1  0
 12 13  1  0
  9 14  1  0
 14 15  1  0
 15 16  2  0
 15 17  1  0
 17 18  1  0
 18 19  1  0
 19 20  1  0
 20 21  2  0
 21 22  1  0
 22 23  2  0
 23 24  1  0
 24 25  2  0
 25 26  1  0
  7 27  2  0
 27  3  1  0
 26 17  1  0
 25 20  1  0
  1 28  1  0
  1 29  1  0
  1 30  1  0
  4 31  1  0
  5 32  1  0
  6 33  1  0
  8 34  1  0
  8 35  1  0
  9 36  1  1
 10 37  1  0
 10 38  1  0
 11 39  1  0
 11 40  1  0
 12 41  1  0
 12 42  1  0
 13 43  1  0
 13 44  1  0
 14 45  1  0
 14 46  1  0
 18 47  1  0
 18 48  1  0
 19 49  1  0
 19 50  1  0
 21 51  1  0
 22 52  1  0
 23 53  1  0
 24 54  1  0
 26 55  1  0
 26 56  1  0
 27 57  1  0
M  CHG  1   9   1
M  END
>  <UniqueID>  (28) 
27

>  <SMILES>  (28) 
COc1cccc(C[N@H+](CCCN)CC(=O)N2CCc3ccccc3C2)c1

>  <Energy>  (28) 
62.504441088857085

>  <Genealogy>  (28) 
COc1cccc(C[NH+](CCCN)CC(=O)N2CCc3ccccc3C2)c1 (protonated)
COc1cccc(C[N@H+](CCCN)CC(=O)N2CCc3ccccc3C2)c1 (chirality)
COc1cccc(C[N@H+](CCCN)CC(=O)N2CCc3ccccc3C2)c1 (3D coordinates assigned)
COc1cccc(C[N@H+](CCCN)CC(=O)N2CCc3ccccc3C2)c1 (nonaromatic ring conformer: 62.504441088857085 kcal/mol)

>  <smiles>  (28) 
COc1cccc(CN(CCCN)CC(=O)N2CCc3ccccc3C2)c1

>  <score_type>  (28) 
oracle

>  <origin>  (28) 
adg

>  <m_score__min__energy>  (28) 
-7.0499999999999998

>  <m_primary>  (28) 
energy

$$$$
28:0
     RDKit          3D

 54 57  0  0  1  0  0  0  0  0999 V2000
   55.9170   30.0870   43.9530 C   0  0  0  0  0  0  0  0  0  0  0  0
   57.2860   29.5190   43.6520 C   0  0  0  0  0  0  0  0  0  0  0  0
   58.2360   29.8550   44.6910 N   0  0  0  0  0  0  0  0  0  0  0  0
   57.5850   29.6860   45.9650 C   0  0  0  0  0  0  0  0  0  0  0  0
   58.2830   28.5580   46.7400 C   0  0  0  0  0  0  0  0  0  0  0  0
   59.6220   29.0560   46.9870 N   0  0  0  0  0  0  0  0  0  0  0  0
   60.3170   28.3630   48.0100 C   0  0  0  0  0  0  0  0  0  0  0  0
   60.1210   28.8940   49.4090 C   0  0  0  0  0  0  0  0  0  0  0  0
   61.1580   29.8370   49.6930 N   0  0  0  0  0  0  0  0  0  0  0  0
   61.2550   30.9430   49.0360 C   0  0  0  0  0  0  0  0  0  0  0  0
   60.2770   31.4250   48.2480 N   0  0  0  0  0  0  0  0  0  0  0  0
   60.3990   32.5740   47.5760 C   0  0  0  0  0  0  0  0  0  0  0  0
   59.3650   33.1340   46.7150 C   0  0  0  0  0  0  0  0  0  0  0  0
   59.6850   34.0180   45.6990 C   0  0  0  0  0  0  0  0  0  0  0  0
   58.7410   34.5750   44.8630 C   0  0  0  0  0  0  0  0  0  0  0  0
   57.4070   34.2600   45.0160 C   0  0  0  0  0  0  0  0  0  0  0  0
   57.0640   33.3800   46.0230 C   0  0  0  0  0  0  0  0  0  0  0  0
   58.0300   32.8210   46.8650 C   0  0  0  0  0  0  0  0  0  0  0  0
   61.5560   33.2470   47.7140 N   0  0  0  0  0  0  0  0  0  0  0  0
   62.5690   32.8290   48.4780 C   0  0  0  0  0  0  0  0  0  0  0  0
   63.7090   33.6020   48.5450 C   0  0  0  0  0  0  0  0  0  0  0  0
   64.7350   33.1400   49.3420 C   0  0  0  0  0  0  0  0  0  0  0  0
   64.6630   31.9600   50.0600 C   0  0  0  0  0  0  0  0  0  0  0  0
   63.4870   31.2350   49.9450 C   0  0  0  0  0  0  0  0  0  0  0  0
   62.4310   31.6490   49.1630 C   0  0  0  0  0  0  0  0  0  0  0  0
   60.3570   29.2560   45.7620 C   0  0  0  0  0  0  0  0  0  0  0  0
   59.4540   29.0870   44.5460 C   0  0  0  0  0  0  0  0  0  0  0  0
   55.7757   30.1456   45.0423 H   0  0  0  0  0  0  0  0  0  0  0  0
   55.8340   31.0938   43.5178 H   0  0  0  0  0  0  0  0  0  0  0  0
   55.1456   29.4347   43.5178 H   0  0  0  0  0  0  0  0  0  0  0  0
   57.2107   28.4242   43.5760 H   0  0  0  0  0  0  0  0  0  0  0  0
   57.6404   29.9519   42.7049 H   0  0  0  0  0  0  0  0  0  0  0  0
   57.6498   30.6222   46.5389 H   0  0  0  0  0  0  0  0  0  0  0  0
   56.5268   29.4293   45.8094 H   0  0  0  0  0  0  0  0  0  0  0  0
   57.7621   28.3586   47.6881 H   0  0  0  0  0  0  0  0  0  0  0  0
   58.2875   27.6101   46.1819 H   0  0  0  0  0  0  0  0  0  0  0  0
   59.9823   27.3152   47.9961 H   0  0  0  0  0  0  0  0  0  0  0  0
   61.3864   28.4924   47.7870 H   0  0  0  0  0  0  0  0  0  0  0  0
   59.1412   29.3884   49.4830 H   0  0  0  0  0  0  0  0  0  0  0  0
   60.1601   28.0660   50.1321 H   0  0  0  0  0  0  0  0  0  0  0  0
   59.4160   30.8810   48.1710 H   0  0  0  0  0  0  0  0  0  0  0  0
   60.7411   34.2884   45.5520 H   0  0  0  0  0  0  0  0  0  0  0  0
   59.0525   35.2727   44.0717 H   0  0  0  0  0  0  0  0  0  0  0  0
   56.6414   34.6957   44.3572 H   0  0  0  0  0  0  0  0  0  0  0  0
   56.0066   33.1126   46.1661 H   0  0  0  0  0  0  0  0  0  0  0  0
   57.7216   32.1228   47.6571 H   0  0  0  0  0  0  0  0  0  0  0  0
   63.7961   34.5460   47.9870 H   0  0  0  0  0  0  0  0  0  0  0  0
   65.6552   33.7388   49.4101 H   0  0  0  0  0  0  0  0  0  0  0  0
   65.4960   31.6146   50.6899 H   0  0  0  0  0  0  0  0  0  0  0  0
   63.3932   30.2905   50.5009 H   0  0  0  0  0  0  0  0  0  0  0  0
   60.7786   30.2720   45.7579 H   0  0  0  0  0  0  0  0  0  0  0  0
   61.1584   28.5044   45.7090 H   0  0  0  0  0  0  0  0  0  0  0  0
   59.9907   29.4305   43.6494 H   0  0  0  0  0  0  0  0  0  0  0  0
   59.1878   28.0237   44.4535 H   0  0  0  0  0  0  0  0  0  0  0  0
  1  2  1  0
  2  3  1  0
  3  4  1  0
  4  5  1  0
  5  6  1  0
  6  7  1  0
  7  8  1  0
  8  9  1  0
  9 10  2  0
 10 11  1  0
 11 12  1  0
 12 13  1  0
 13 14  2  0
 14 15  1  0
 15 16  2  0
 16 17  1  0
 17 18  2  0
 12 19  2  0
 19 20  1  0
 20 21  2  0
 21 22  1  0
 22 23  2  0
 23 24  1  0
 24 25  2  0
  6 26  1  0
 26 27  1  0
 27  3  1  0
 25 10  1  0
 18 13  1  0
 25 20  1  0
  1 28  1  0
  1 29  1  0
  1 30  1  0
  2 31  1  0
  2 32  1  0
  4 33  1  0
  4 34  1  0
  5 35  1  0
  5 36  1  0
  7 37  1  0
  7 38  1  0
  8 39  1  0
  8 40  1  0
 11 41  1  0
 14 42  1  0
 15 43  1  0
 16 44  1  0
 17 45  1  0
 18 46  1  0
 21 47  1  0
 22 48  1  0
 23 49  1  0
 24 50  1  0
 26 51  1  0
 26 52  1  0
 27 53  1  0
 27 54  1  0
M  END
>  <smiles>  (29) 
CCN1CCN(CCN=c2[nH]c(-c3ccccc3)nc3ccccc23)CC1

>  <score_type>  (29) 
oracle

>  <origin>  (29) 
adg

>  <m_score__min__energy>  (29) 
-8.7200000000000006

>  <m_primary>  (29) 
energy

$$$$
29:0
     RDKit          3D

 35 37  0  0  0  0  0  0  0  0999 V2000
   57.2980   28.8970   43.7130 C   0  0  0  0  0  0  0  0  0  0  0  0
   57.5720   30.3250   44.0790 C   0  0  0  0  0  0  0  0  0  0  0  0
   57.7630   30.6880   45.4200 C   0  0  0  0  0  0  0  0  0  0  0  0
   57.9830   32.0240   45.7650 C   0  0  0  0  0  0  0  0  0  0  0  0
   58.0110   33.0170   44.7740 C   0  0  0  0  0  0  0  0  0  0  0  0
   58.2410   34.4600   45.1400 C   0  0  0  0  0  0  0  0  0  0  0  0
   58.5280   34.5920   46.5700 N   0  0  0  0  0  0  0  0  0  0  0  0
   59.7960   34.2800   47.1780 C   0  0  0  0  0  0  0  0  0  0  0  0
   59.9520   34.2040   48.5940 C   0  0  0  0  0  0  0  0  0  0  0  0
   61.2010   33.8920   49.1670 C   0  0  0  0  0  0  0  0  0  0  0  0
   62.2620   33.6680   48.2980 C   0  0  0  0  0  0  0  0  0  0  0  0
   62.1280   33.7430   46.9490 C   0  0  0  0  0  0  0  0  0  0  0  0
   60.9160   34.0480   46.3430 C   0  0  0  0  0  0  0  0  0  0  0  0
   63.3180   33.4830   46.3750 N   0  0  0  0  0  0  0  0  0  0  0  0
   64.1620   33.2530   47.3810 N   0  0  0  0  0  0  0  0  0  0  0  0
   63.5430   33.3600   48.5530 N   0  0  0  0  0  0  0  0  0  0  0  0
   64.1760   33.1730   49.8510 C   0  0  0  0  0  0  0  0  0  0  0  0
   57.7880   32.6570   43.4350 C   0  0  0  0  0  0  0  0  0  0  0  0
   57.5680   31.3210   43.0900 C   0  0  0  0  0  0  0  0  0  0  0  0
   57.1833   28.2992   44.6292 H   0  0  0  0  0  0  0  0  0  0  0  0
   56.3728   28.8413   43.1206 H   0  0  0  0  0  0  0  0  0  0  0  0
   58.1369   28.5029   43.1206 H   0  0  0  0  0  0  0  0  0  0  0  0
   57.7395   29.9170   46.2043 H   0  0  0  0  0  0  0  0  0  0  0  0
   58.1351   32.2988   46.8192 H   0  0  0  0  0  0  0  0  0  0  0  0
   59.0939   34.8473   44.5633 H   0  0  0  0  0  0  0  0  0  0  0  0
   57.3313   35.0331   44.9075 H   0  0  0  0  0  0  0  0  0  0  0  0
   57.7690   34.9820   47.1740 H   0  0  0  0  0  0  0  0  0  0  0  0
   59.0866   34.3913   49.2466 H   0  0  0  0  0  0  0  0  0  0  0  0
   61.3308   33.8284   50.2575 H   0  0  0  0  0  0  0  0  0  0  0  0
   60.8288   34.1075   45.2481 H   0  0  0  0  0  0  0  0  0  0  0  0
   63.4488   33.3878   50.6479 H   0  0  0  0  0  0  0  0  0  0  0  0
   64.5242   32.1336   49.9428 H   0  0  0  0  0  0  0  0  0  0  0  0
   65.0331   33.8563   49.9428 H   0  0  0  0  0  0  0  0  0  0  0  0
   57.7865   33.4311   42.6535 H   0  0  0  0  0  0  0  0  0  0  0  0
   57.3910   31.0487   42.0391 H   0  0  0  0  0  0  0  0  0  0  0  0
  1  2  1  0
  2  3  2  0
  3  4  1  0
  4  5  2  0
  5  6  1  0
  6  7  1  0
  7  8  1  0
  8  9  2  0
  9 10  1  0
 10 11  2  0
 11 12  1  0
 12 13  2  0
 12 14  1  0
 14 15  2  0
 15 16  1  0
 16 17  1  0
  5 18  1  0
 18 19  2  0
 19  2  1  0
 13  8  1  0
 16 11  1  0
  1 20  1  0
  1 21  1  0
  1 22  1  0
  3 23  1  0
  4 24  1  0
  6 25  1  0
  6 26  1  0
  7 27  1  0
  9 28  1  0
 10 29  1  0
 13 30  1  0
 17 31  1  0
 17 32  1  0
 17 33  1  0
 18 34  1  0
 19 35  1  0
M  END
>  <UniqueID>  (30) 
28

>  <SMILES>  (30) 
Cc1ccc(CNc2ccc3c(c2)nnn3C)cc1

>  <Energy>  (30) 
79.23039769328084

>  <Genealogy>  (30) 
Cc1ccc(CNc2ccc3c(c2)nnn3C)cc1 (3D coordinates assigned)
Cc1ccc(CNc2ccc3c(c2)nnn3C)cc1 (optimized conformer: 79.23039769328084 kcal/mol)

>  <smiles>  (30) 
Cc1ccc(CNc2ccc3c(c2)nnn3C)cc1

>  <score_type>  (30) 
oracle

>  <origin>  (30) 
adg

>  <m_score__min__energy>  (30) 
-7.29

>  <m_primary>  (30) 
energy

$$$$
30:0
     RDKit          3D

 52 54  0  0  0  0  0  0  0  0999 V2000
   60.0050   28.5950   44.5520 C   0  0  0  0  0  0  0  0  0  0  0  0
   58.5810   28.2450   44.1400 C   0  0  0  0  0  0  0  0  0  0  0  0
   57.6310   28.7950   45.1360 N   0  0  0  0  0  0  0  0  0  0  0  0
   57.4110   27.8910   46.2870 C   0  0  0  0  0  0  0  0  0  0  0  0
   56.6530   26.6040   45.9260 C   0  0  0  0  0  0  0  0  0  0  0  0
   56.3670   29.2820   44.5400 C   0  0  0  0  0  0  0  0  0  0  0  0
   56.6500   30.1170   43.2820 C   0  0  0  0  0  0  0  0  0  0  0  0
   57.5220   31.3400   43.5940 C   0  0  0  0  0  0  0  0  0  0  0  0
   57.0130   32.0700   44.7120 O   0  0  0  0  0  0  0  0  0  0  0  0
   57.7310   32.3900   45.8760 C   0  0  0  0  0  0  0  0  0  0  0  0
   58.2790   31.3420   46.6210 C   0  0  0  0  0  0  0  0  0  0  0  0
   59.0070   31.6000   47.7850 C   0  0  0  0  0  0  0  0  0  0  0  0
   59.2070   32.9190   48.2280 C   0  0  0  0  0  0  0  0  0  0  0  0
   59.9780   33.1730   49.4720 C   0  0  0  0  0  0  0  0  0  0  0  0
   59.3500   33.5200   50.6760 C   0  0  0  0  0  0  0  0  0  0  0  0
   60.1390   33.7490   51.8020 C   0  0  0  0  0  0  0  0  0  0  0  0
   61.4920   33.6420   51.7240 N   0  0  0  0  0  0  0  0  0  0  0  0
   62.0980   33.3150   50.5460 C   0  0  0  0  0  0  0  0  0  0  0  0
   63.5680   33.2000   50.4350 C   0  0  0  0  0  0  0  0  0  0  0  0
   64.2900   32.3080   49.6380 C   0  0  0  0  0  0  0  0  0  0  0  0
   65.6770   32.4540   49.7590 C   0  0  0  0  0  0  0  0  0  0  0  0
   66.0480   33.4530   50.6460 C   0  0  0  0  0  0  0  0  0  0  0  0
   67.6890   33.9130   51.0440 Cl  0  0  0  0  0  0  0  0  0  0  0  0
   64.6650   34.1600   51.2820 S   0  0  0  0  0  0  0  0  0  0  0  0
   61.3370   33.0880   49.4430 N   0  0  0  0  0  0  0  0  0  0  0  0
   58.6400   33.9730   47.4870 C   0  0  0  0  0  0  0  0  0  0  0  0
   57.9110   33.7130   46.3220 C   0  0  0  0  0  0  0  0  0  0  0  0
   60.0754   28.6123   45.6496 H   0  0  0  0  0  0  0  0  0  0  0  0
   60.6984   27.8405   44.1520 H   0  0  0  0  0  0  0  0  0  0  0  0
   60.2696   29.5849   44.1520 H   0  0  0  0  0  0  0  0  0  0  0  0
   58.3680   28.6781   43.1515 H   0  0  0  0  0  0  0  0  0  0  0  0
   58.4707   27.1516   44.0918 H   0  0  0  0  0  0  0  0  0  0  0  0
   58.3909   27.6121   46.7017 H   0  0  0  0  0  0  0  0  0  0  0  0
   56.7890   28.4379   47.0108 H   0  0  0  0  0  0  0  0  0  0  0  0
   56.3485   26.0870   46.8479 H   0  0  0  0  0  0  0  0  0  0  0  0
   55.7601   26.8577   45.3358 H   0  0  0  0  0  0  0  0  0  0  0  0
   57.3078   25.9461   45.3358 H   0  0  0  0  0  0  0  0  0  0  0  0
   55.7395   28.4203   44.2685 H   0  0  0  0  0  0  0  0  0  0  0  0
   55.8476   29.9135   45.2759 H   0  0  0  0  0  0  0  0  0  0  0  0
   57.1709   29.4868   42.5461 H   0  0  0  0  0  0  0  0  0  0  0  0
   55.6883   30.4750   42.8859 H   0  0  0  0  0  0  0  0  0  0  0  0
   58.5439   31.0026   43.8218 H   0  0  0  0  0  0  0  0  0  0  0  0
   57.5171   32.0025   42.7159 H   0  0  0  0  0  0  0  0  0  0  0  0
   58.1356   30.3037   46.2874 H   0  0  0  0  0  0  0  0  0  0  0  0
   59.4280   30.7626   48.3607 H   0  0  0  0  0  0  0  0  0  0  0  0
   58.2551   33.6099   50.7313 H   0  0  0  0  0  0  0  0  0  0  0  0
   59.6650   34.0174   52.7576 H   0  0  0  0  0  0  0  0  0  0  0  0
   62.0490   33.8220   52.5870 H   0  0  0  0  0  0  0  0  0  0  0  0
   63.8155   31.5646   48.9805 H   0  0  0  0  0  0  0  0  0  0  0  0
   66.4005   31.8375   49.2054 H   0  0  0  0  0  0  0  0  0  0  0  0
   58.7715   35.0107   47.8273 H   0  0  0  0  0  0  0  0  0  0  0  0
   57.4760   34.5467   45.7513 H   0  0  0  0  0  0  0  0  0  0  0  0
  1  2  1  0
  2  3  1  0
  3  4  1  0
  4  5  1  0
  3  6  1  0
  6  7  1  0
  7  8  1  0
  8  9  1  0
  9 10  1  0
 10 11  2  0
 11 12  1  0
 12 13  2  0
 13 14  1  0
 14 15  2  0
 15 16  1  0
 16 17  2  0
 17 18  1  0
 18 19  1  0
 19 20  2  0
 20 21  1  0
 21 22  2  0
 22 23  1  0
 22 24  1  0
 18 25  2  0
 13 26  1  0
 26 27  2  0
 27 10  1  0
 25 14  1  0
 24 19  1  0
  1 28  1  0
  1 29  1  0
  1 30  1  0
  2 31  1  0
  2 32  1  0
  4 33  1  0
  4 34  1  0
  5 35  1  0
  5 36  1  0
  5 37  1  0
  6 38  1  0
  6 39  1  0
  7 40  1  0
  7 41  1  0
  8 42  1  0
  8 43  1  0
 11 44  1  0
 12 45  1  0
 15 46  1  0
 16 47  1  0
 17 48  1  0
 20 49  1  0
 21 50  1  0
 26 51  1  0
 27 52  1  0
M  CHG  1  17   1
M  END
>  <UniqueID>  (31) 
29

>  <SMILES>  (31) 
CCN(CC)CCCOc1ccc(-c2cc[nH+]c(-c3ccc(Cl)s3)n2)cc1

>  <Energy>  (31) 
83.31878907486944

>  <Genealogy>  (31) 
CCN(CC)CCCOc1ccc(-c2cc[nH+]c(-c3ccc(Cl)s3)n2)cc1 (protonated)
CCN(CC)CCCOc1ccc(-c2cc[nH+]c(-c3ccc(Cl)s3)n2)cc1 (3D coordinates assigned)
CCN(CC)CCCOc1ccc(-c2cc[nH+]c(-c3ccc(Cl)s3)n2)cc1 (optimized conformer: 83.31878907486944 kcal/mol)

>  <smiles>  (31) 
CCN(CC)CCCOc1ccc(-c2ccnc(-c3ccc(Cl)s3)n2)cc1

>  <score_type>  (31) 
oracle

>  <origin>  (31) 
adg

>  <m_score__min__energy>  (31) 
-6.1600000000000001

>  <m_primary>  (31) 
energy

$$$$
31:0
     RDKit          3D

 48 50  0  0  0  0  0  0  0  0999 V2000
   62.4480   33.5030   47.7350 C   0  0  0  0  0  0  0  0  0  0  0  0
   61.2510   34.2390   47.9570 O   0  0  0  0  0  0  0  0  0  0  0  0
   60.1260   34.2030   47.1170 C   0  0  0  0  0  0  0  0  0  0  0  0
   60.0280   35.0130   45.9670 C   0  0  0  0  0  0  0  0  0  0  0  0
   58.8830   34.9690   45.1690 C   0  0  0  0  0  0  0  0  0  0  0  0
   57.8250   34.1240   45.5050 C   0  0  0  0  0  0  0  0  0  0  0  0
   57.9120   33.3140   46.6390 C   0  0  0  0  0  0  0  0  0  0  0  0
   59.0600   33.3430   47.4450 C   0  0  0  0  0  0  0  0  0  0  0  0
   59.1340   32.4950   48.6010 N   0  0  0  0  0  0  0  0  0  0  0  0
   59.4190   33.0740   49.9170 C   0  0  0  0  0  0  0  0  0  0  0  0
   58.3650   32.6130   50.9280 C   0  0  0  0  0  0  0  0  0  0  0  0
   58.1070   31.1650   50.8290 N   0  0  0  0  0  0  0  0  0  0  0  0
   57.2390   30.5130   51.7810 C   0  0  0  0  0  0  0  0  0  0  0  0
   57.3600   29.2760   51.9930 O   0  0  0  0  0  0  0  0  0  0  0  0
   56.1670   31.2650   52.5250 C   0  0  0  0  0  0  0  0  0  0  0  0
   54.8390   30.7150   52.2480 N   0  0  0  0  0  0  0  0  0  0  0  0
   54.0560   31.1730   51.2830 N   0  0  0  0  0  0  0  0  0  0  0  0
   52.9150   30.4580   51.3080 C   0  0  0  0  0  0  0  0  0  0  0  0
   51.7790   30.6670   50.3630 C   0  0  0  0  0  0  0  0  0  0  0  0
   52.9790   29.5060   52.3080 C   0  0  0  0  0  0  0  0  0  0  0  0
   51.6350   28.2350   52.7910 Br  0  0  0  0  0  0  0  0  0  0  0  0
   54.2250   29.6880   52.8790 C   0  0  0  0  0  0  0  0  0  0  0  0
   54.7760   28.9300   54.0500 C   0  0  0  0  0  0  0  0  0  0  0  0
   58.8320   30.3620   49.8320 C   0  0  0  0  0  0  0  0  0  0  0  0
   58.8170   31.0670   48.4700 C   0  0  0  0  0  0  0  0  0  0  0  0
   62.8944   33.2285   48.7022 H   0  0  0  0  0  0  0  0  0  0  0  0
   62.2172   32.5906   47.1656 H   0  0  0  0  0  0  0  0  0  0  0  0
   63.1580   34.1208   47.1656 H   0  0  0  0  0  0  0  0  0  0  0  0
   60.8577   35.6829   45.6972 H   0  0  0  0  0  0  0  0  0  0  0  0
   58.8150   35.6027   44.2725 H   0  0  0  0  0  0  0  0  0  0  0  0
   56.9225   34.0959   44.8767 H   0  0  0  0  0  0  0  0  0  0  0  0
   57.0758   32.6494   46.9019 H   0  0  0  0  0  0  0  0  0  0  0  0
   60.4140   32.7460   50.2521 H   0  0  0  0  0  0  0  0  0  0  0  0
   59.3948   34.1712   49.8431 H   0  0  0  0  0  0  0  0  0  0  0  0
   58.7211   32.8425   51.9431 H   0  0  0  0  0  0  0  0  0  0  0  0
   57.4264   33.1430   50.7087 H   0  0  0  0  0  0  0  0  0  0  0  0
   56.3650   31.1958   53.6048 H   0  0  0  0  0  0  0  0  0  0  0  0
   56.1842   32.3131   52.1915 H   0  0  0  0  0  0  0  0  0  0  0  0
   50.8540   30.8372   50.9335 H   0  0  0  0  0  0  0  0  0  0  0  0
   51.9853   31.5423   49.7295 H   0  0  0  0  0  0  0  0  0  0  0  0
   51.6603   29.7756   49.7295 H   0  0  0  0  0  0  0  0  0  0  0  0
   54.4346   29.3997   54.9843 H   0  0  0  0  0  0  0  0  0  0  0  0
   54.4223   27.8891   54.0123 H   0  0  0  0  0  0  0  0  0  0  0  0
   55.8752   28.9453   54.0123 H   0  0  0  0  0  0  0  0  0  0  0  0
   59.8733   30.2289   50.1606 H   0  0  0  0  0  0  0  0  0  0  0  0
   58.3404   29.3828   49.7342 H   0  0  0  0  0  0  0  0  0  0  0  0
   59.5626   30.5938   47.8141 H   0  0  0  0  0  0  0  0  0  0  0  0
   57.8070   30.9748   48.0441 H   0  0  0  0  0  0  0  0  0  0  0  0
  1  2  1  0
  2  3  1  0
  3  4  2  0
  4  5  1  0
  5  6  2  0
  6  7  1  0
  7  8  2  0
  8  9  1  0
  9 10  1  0
 10 11  1  0
 11 12  1  0
 12 13  1  0
 13 14  2  0
 13 15  1  0
 15 16  1  0
 16 17  1  0
 17 18  2  0
 18 19  1  0
 18 20  1  0
 20 21  1  0
 20 22  2  0
 22 23  1  0
 12 24  1  0
 24 25  1  0
  8  3  1  0
 25  9  1  0
 22 16  1  0
  1 26  1  0
  1 27  1  0
  1 28  1  0
  4 29  1  0
  5 30  1  0
  6 31  1  0
  7 32  1  0
 10 33  1  0
 10 34  1  0
 11 35  1  0
 11 36  1  0
 15 37  1  0
 15 38  1  0
 19 39  1  0
 19 40  1  0
 19 41  1  0
 23 42  1  0
 23 43  1  0
 23 44  1  0
 24 45  1  0
 24 46  1  0
 25 47  1  0
 25 48  1  0
M  END
>  <UniqueID>  (32) 
30

>  <SMILES>  (32) 
COc1ccccc1N1CCN(C(=O)Cn2nc(C)c(Br)c2C)CC1

>  <Energy>  (32) 
81.21714176232318

>  <Genealogy>  (32) 
COc1ccccc1N1CCN(C(=O)Cn2nc(C)c(Br)c2C)CC1 (3D coordinates assigned)
COc1ccccc1N1CCN(C(=O)Cn2nc(C)c(Br)c2C)CC1 (nonaromatic ring conformer: 81.21714176232318 kcal/mol)

>  <smiles>  (32) 
COc1ccccc1N1CCN(C(=O)Cn2nc(C)c(Br)c2C)CC1

>  <score_type>  (32) 
oracle

>  <origin>  (32) 
adg

>  <m_score__min__energy>  (32) 
-7.6699999999999999

>  <m_primary>  (32) 
energy

$$$$
32:0
     RDKit          3D

 39 41  0  0  0  0  0  0  0  0999 V2000
   59.4460   34.9210   45.4790 C   0  0  0  0  0  0  0  0  0  0  0  0
   58.8000   34.0960   44.5170 O   0  0  0  0  0  0  0  0  0  0  0  0
   57.7060   33.2840   44.8350 C   0  0  0  0  0  0  0  0  0  0  0  0
   56.6540   33.7870   45.3190 O   0  0  0  0  0  0  0  0  0  0  0  0
   57.7950   31.8000   44.6000 C   0  0  2  0  0  0  0  0  0  0  0  0
   56.3760   31.2090   44.4600 C   0  0  0  0  0  0  0  0  0  0  0  0
   56.3850   29.6730   44.3440 C   0  0  1  0  0  0  0  0  0  0  0  0
   56.9380   29.1970   42.9950 C   0  0  0  0  0  0  0  0  0  0  0  0
   57.1670   29.0610   45.4750 C   0  0  0  0  0  0  0  0  0  0  0  0
   56.8770   27.8970   45.8620 O   0  0  0  0  0  0  0  0  0  0  0  0
   58.2940   29.7970   46.0930 C   0  0  0  0  0  0  0  0  0  0  0  0
   59.0940   29.1970   47.0780 C   0  0  0  0  0  0  0  0  0  0  0  0
   60.1640   29.8950   47.6370 C   0  0  0  0  0  0  0  0  0  0  0  0
   60.4400   31.2030   47.2100 C   0  0  0  0  0  0  0  0  0  0  0  0
   61.5780   31.9850   47.7590 C   0  0  0  0  0  0  0  0  0  0  0  0
   61.3560   32.9310   48.7740 C   0  0  0  0  0  0  0  0  0  0  0  0
   62.4210   33.6630   49.2990 C   0  0  0  0  0  0  0  0  0  0  0  0
   63.7090   33.4410   48.8140 C   0  0  0  0  0  0  0  0  0  0  0  0
   63.9210   32.5150   47.8410 N   0  0  0  0  0  0  0  0  0  0  0  0
   62.8980   31.7900   47.3110 C   0  0  0  0  0  0  0  0  0  0  0  0
   59.6520   31.7620   46.2500 N   0  0  0  0  0  0  0  0  0  0  0  0
   58.5840   31.1190   45.6990 C   0  0  0  0  0  0  0  0  0  0  0  0
   59.1801   34.5814   46.4909 H   0  0  0  0  0  0  0  0  0  0  0  0
   60.5359   34.8561   45.3450 H   0  0  0  0  0  0  0  0  0  0  0  0
   59.1216   35.9635   45.3450 H   0  0  0  0  0  0  0  0  0  0  0  0
   58.3381   31.6178   43.6610 H   0  0  0  0  0  0  0  0  0  0  0  0
   55.7871   31.4924   45.3448 H   0  0  0  0  0  0  0  0  0  0  0  0
   55.9364   31.6112   43.5354 H   0  0  0  0  0  0  0  0  0  0  0  0
   55.3392   29.3379   44.4072 H   0  0  0  0  0  0  0  0  0  0  0  0
   57.7616   28.4881   43.1659 H   0  0  0  0  0  0  0  0  0  0  0  0
   56.1386   28.7000   42.4258 H   0  0  0  0  0  0  0  0  0  0  0  0
   57.3105   30.0615   42.4258 H   0  0  0  0  0  0  0  0  0  0  0  0
   58.8759   28.1714   47.4105 H   0  0  0  0  0  0  0  0  0  0  0  0
   60.7889   29.4225   48.4092 H   0  0  0  0  0  0  0  0  0  0  0  0
   60.3377   33.0951   49.1563 H   0  0  0  0  0  0  0  0  0  0  0  0
   62.2461   34.4087   50.0886 H   0  0  0  0  0  0  0  0  0  0  0  0
   64.5550   34.0157   49.2190 H   0  0  0  0  0  0  0  0  0  0  0  0
   64.8940   32.3540   47.4960 H   0  0  0  0  0  0  0  0  0  0  0  0
   63.1044   31.0465   46.5270 H   0  0  0  0  0  0  0  0  0  0  0  0
  1  2  1  0
  2  3  1  0
  3  4  2  0
  3  5  1  0
  5  6  1  0
  6  7  1  0
  7  8  1  0
  7  9  1  0
  9 10  2  0
  9 11  1  0
 11 12  2  0
 12 13  1  0
 13 14  2  0
 14 15  1  0
 15 16  2  0
 16 17  1  0
 17 18  2  0
 18 19  1  0
 19 20  2  0
 14 21  1  0
 21 22  2  0
 22  5  1  0
 22 11  1  0
 20 15  1  0
  1 23  1  0
  1 24  1  0
  1 25  1  0
  5 26  1  6
  6 27  1  0
  6 28  1  0
  7 29  1  1
  8 30  1  0
  8 31  1  0
  8 32  1  0
 12 33  1  0
 13 34  1  0
 16 35  1  0
 17 36  1  0
 18 37  1  0
 19 38  1  0
 20 39  1  0
M  CHG  1  19   1
M  END
>  <UniqueID>  (33) 
31

>  <SMILES>  (33) 
COC(=O)[C@@H]1C[C@@H](C)C(=O)c2ccc(-c3ccc[nH+]c3)nc21

>  <Energy>  (33) 
41.92596093695939

>  <Genealogy>  (33) 
COC(=O)C1CC(C)C(=O)c2ccc(-c3ccc[nH+]c3)nc21 (protonated)
COC(=O)[C@@H]1C[C@@H](C)C(=O)c2ccc(-c3ccc[nH+]c3)nc21 (chirality)
COC(=O)[C@@H]1C[C@@H](C)C(=O)c2ccc(-c3ccc[nH+]c3)nc21 (3D coordinates assigned)
COC(=O)[C@@H]1C[C@@H](C)C(=O)c2ccc(-c3ccc[nH+]c3)nc21 (nonaromatic ring conformer: 41.92596093695939 kcal/mol)

>  <smiles>  (33) 
COC(=O)C1CC(C)C(=O)c2ccc(-c3cccnc3)nc21

>  <score_type>  (33) 
oracle

>  <origin>  (33) 
adg

>  <m_score__min__energy>  (33) 
-6.1799999999999997

>  <m_primary>  (33) 
energy

$$$$
33:0
     RDKit          3D

 56 58  0  0  0  0  0  0  0  0999 V2000
   63.3890   33.8310   46.3890 C   0  0  0  0  0  0  0  0  0  0  0  0
   63.4570   34.0550   47.8980 C   0  0  0  0  0  0  0  0  0  0  0  0
   62.5400   33.1280   48.6020 N   0  0  0  0  0  0  0  0  0  0  0  0
   62.3660   33.5310   50.0180 C   0  0  0  0  0  0  0  0  0  0  0  0
   60.8980   33.8400   50.3050 C   0  0  0  0  0  0  0  0  0  0  0  0
   63.0240   31.7310   48.5080 C   0  0  0  0  0  0  0  0  0  0  0  0
   61.9540   30.8390   47.8580 C   0  0  0  0  0  0  0  0  0  0  0  0
   60.5810   31.2570   48.2040 N   0  0  0  0  0  0  0  0  0  0  0  0
   59.7070   31.3020   47.0360 C   0  0  0  0  0  0  0  0  0  0  0  0
   59.4280   32.5290   46.3630 C   0  0  0  0  0  0  0  0  0  0  0  0
   59.9860   33.7690   46.7780 C   0  0  0  0  0  0  0  0  0  0  0  0
   59.6320   34.9650   46.1610 C   0  0  0  0  0  0  0  0  0  0  0  0
   58.7160   34.9680   45.1220 C   0  0  0  0  0  0  0  0  0  0  0  0
   58.1830   33.7680   44.6620 C   0  0  0  0  0  0  0  0  0  0  0  0
   58.5610   32.5250   45.2330 C   0  0  0  0  0  0  0  0  0  0  0  0
   58.0940   31.3360   44.7130 N   0  0  0  0  0  0  0  0  0  0  0  0
   57.4840   31.3080   43.3620 C   0  0  0  0  0  0  0  0  0  0  0  0
   58.2280   30.1640   45.4280 C   0  0  0  0  0  0  0  0  0  0  0  0
   57.5190   28.9930   45.0560 C   0  0  0  0  0  0  0  0  0  0  0  0
   57.7130   27.7780   45.7120 C   0  0  0  0  0  0  0  0  0  0  0  0
   56.9520   26.6340   45.2970 N   0  0  0  0  0  0  0  0  0  0  0  0
   55.9600   25.9420   46.0660 C   0  0  0  0  0  0  0  0  0  0  0  0
   56.2940   24.7500   46.9090 C   0  0  0  0  0  0  0  0  0  0  0  0
   54.7620   26.3280   46.0040 O   0  0  0  0  0  0  0  0  0  0  0  0
   58.5800   27.7240   46.8010 C   0  0  0  0  0  0  0  0  0  0  0  0
   59.2550   28.8680   47.2220 C   0  0  0  0  0  0  0  0  0  0  0  0
   59.0750   30.1140   46.5700 C   0  0  0  0  0  0  0  0  0  0  0  0
   63.0750   32.7966   46.1857 H   0  0  0  0  0  0  0  0  0  0  0  0
   62.6621   34.5284   45.9472 H   0  0  0  0  0  0  0  0  0  0  0  0
   64.3809   34.0066   45.9472 H   0  0  0  0  0  0  0  0  0  0  0  0
   64.4861   33.8786   48.2442 H   0  0  0  0  0  0  0  0  0  0  0  0
   63.1551   35.0896   48.1181 H   0  0  0  0  0  0  0  0  0  0  0  0
   62.6988   32.7115   50.6720 H   0  0  0  0  0  0  0  0  0  0  0  0
   62.9655   34.4332   50.2093 H   0  0  0  0  0  0  0  0  0  0  0  0
   60.7363   33.8740   51.3925 H   0  0  0  0  0  0  0  0  0  0  0  0
   60.6352   34.8131   49.8646 H   0  0  0  0  0  0  0  0  0  0  0  0
   60.2652   33.0554   49.8646 H   0  0  0  0  0  0  0  0  0  0  0  0
   63.9387   31.7040   47.8977 H   0  0  0  0  0  0  0  0  0  0  0  0
   63.2357   31.3565   49.5204 H   0  0  0  0  0  0  0  0  0  0  0  0
   62.0720   30.8862   46.7654 H   0  0  0  0  0  0  0  0  0  0  0  0
   62.0969   29.8164   48.2372 H   0  0  0  0  0  0  0  0  0  0  0  0
   60.6050   32.1460   48.7410 H   0  0  0  0  0  0  0  0  0  0  0  0
   60.1920   30.5990   48.9130 H   0  0  0  0  0  0  0  0  0  0  0  0
   60.7125   33.7833   47.6038 H   0  0  0  0  0  0  0  0  0  0  0  0
   60.0808   35.9106   46.4993 H   0  0  0  0  0  0  0  0  0  0  0  0
   58.4101   35.9187   44.6608 H   0  0  0  0  0  0  0  0  0  0  0  0
   57.4536   33.7830   43.8388 H   0  0  0  0  0  0  0  0  0  0  0  0
   56.3891   31.2577   43.4550 H   0  0  0  0  0  0  0  0  0  0  0  0
   57.7640   32.2199   42.8143 H   0  0  0  0  0  0  0  0  0  0  0  0
   57.8463   30.4255   42.8143 H   0  0  0  0  0  0  0  0  0  0  0  0
   56.7969   29.0449   44.2279 H   0  0  0  0  0  0  0  0  0  0  0  0
   56.2183   25.0203   47.9726 H   0  0  0  0  0  0  0  0  0  0  0  0
   55.5897   23.9348   46.6868 H   0  0  0  0  0  0  0  0  0  0  0  0
   57.3194   24.4195   46.6868 H   0  0  0  0  0  0  0  0  0  0  0  0
   58.7327   26.7727   47.3317 H   0  0  0  0  0  0  0  0  0  0  0  0
   59.9422   28.8030   48.0785 H   0  0  0  0  0  0  0  0  0  0  0  0
  1  2  1  0
  2  3  1  0
  3  4  1  0
  4  5  1  0
  3  6  1  0
  6  7  1  0
  7  8  1  0
  8  9  1  0
  9 10  2  0
 10 11  1  0
 11 12  2  0
 12 13  1  0
 13 14  2  0
 14 15  1  0
 15 16  2  0
 16 17  1  0
 16 18  1  0
 18 19  2  0
 19 20  1  0
 20 21  1  0
 21 22  1  0
 22 23  1  0
 22 24  2  0
 20 25  2  0
 25 26  1  0
 26 27  2  0
 27  9  1  0
 15 10  1  0
 27 18  1  0
  1 28  1  0
  1 29  1  0
  1 30  1  0
  2 31  1  0
  2 32  1  0
  4 33  1  0
  4 34  1  0
  5 35  1  0
  5 36  1  0
  5 37  1  0
  6 38  1  0
  6 39  1  0
  7 40  1  0
  7 41  1  0
  8 42  1  0
  8 43  1  0
 11 44  1  0
 12 45  1  0
 13 46  1  0
 14 47  1  0
 17 48  1  0
 17 49  1  0
 17 50  1  0
 19 51  1  0
 23 52  1  0
 23 53  1  0
 23 54  1  0
 25 55  1  0
 26 56  1  0
M  CHG  3   8   1  16   1  21  -1
M  END
>  <UniqueID>  (34) 
32

>  <SMILES>  (34) 
CCN(CC)CC[NH2+]c1c2ccccc2[n+](C)c2cc([N-]C(C)=O)ccc12

>  <Energy>  (34) 
88.22045093998045

>  <Genealogy>  (34) 
CCN(CC)CC[NH2+]c1c2ccccc2[n+](C)c2cc([N-]C(C)=O)ccc12 (protonated)
CCN(CC)CC[NH2+]c1c2ccccc2[n+](C)c2cc([N-]C(C)=O)ccc12 (3D coordinates assigned)
CCN(CC)CC[NH2+]c1c2ccccc2[n+](C)c2cc([N-]C(C)=O)ccc12 (optimized conformer: 88.22045093998045 kcal/mol)

>  <smiles>  (34) 
CCN(CC)CCNc1c2ccccc2[n+](C)c2cc(NC(C)=O)ccc12

>  <score_type>  (34) 
oracle

>  <origin>  (34) 
adg

>  <m_score__min__energy>  (34) 
-6.79

>  <m_primary>  (34) 
energy

$$$$
34:0
     RDKit          3D

 55 57  0  0  0  0  0  0  0  0999 V2000
   51.1300   24.0930   44.1390 C   0  0  0  0  0  0  0  0  0  0  0  0
   51.7410   22.8790   44.5620 O   0  0  0  0  0  0  0  0  0  0  0  0
   52.5860   22.7630   45.6760 C   0  0  0  0  0  0  0  0  0  0  0  0
   52.3230   21.7530   46.6120 C   0  0  0  0  0  0  0  0  0  0  0  0
   53.1510   21.5830   47.7240 C   0  0  0  0  0  0  0  0  0  0  0  0
   54.2500   22.4240   47.9140 C   0  0  0  0  0  0  0  0  0  0  0  0
   54.5300   23.4380   46.9850 C   0  0  0  0  0  0  0  0  0  0  0  0
   55.6280   24.2860   47.1510 O   0  0  0  0  0  0  0  0  0  0  0  0
   56.5340   24.6140   46.0970 C   0  0  0  0  0  0  0  0  0  0  0  0
   56.6340   26.1470   45.9080 C   0  0  1  0  0  0  0  0  0  0  0  0
   55.3510   26.7190   45.9620 O   0  0  0  0  0  0  0  0  0  0  0  0
   57.5740   26.8050   46.9600 C   0  0  0  0  0  0  0  0  0  0  0  0
   58.6560   27.6270   46.3750 N   0  0  0  0  0  0  0  0  0  0  0  0
   58.2770   28.2910   45.1040 C   0  0  0  0  0  0  0  0  0  0  0  0
   59.1470   29.5120   44.8110 C   0  0  0  0  0  0  0  0  0  0  0  0
   59.0420   30.4480   45.9340 N   0  0  0  0  0  0  0  0  0  0  0  0
   58.7350   31.8310   45.6990 C   0  0  0  0  0  0  0  0  0  0  0  0
   59.6540   32.8230   46.0810 C   0  0  0  0  0  0  0  0  0  0  0  0
   59.3710   34.1730   45.8660 C   0  0  0  0  0  0  0  0  0  0  0  0
   58.1660   34.5470   45.2710 C   0  0  0  0  0  0  0  0  0  0  0  0
   57.2400   33.5710   44.8880 C   0  0  0  0  0  0  0  0  0  0  0  0
   57.5130   32.2060   45.1030 C   0  0  0  0  0  0  0  0  0  0  0  0
   56.5980   31.2000   44.7420 O   0  0  0  0  0  0  0  0  0  0  0  0
   56.4970   30.6300   43.4410 C   0  0  0  0  0  0  0  0  0  0  0  0
   59.0620   29.9320   47.3100 C   0  0  0  0  0  0  0  0  0  0  0  0
   59.4310   28.4380   47.3430 C   0  0  0  0  0  0  0  0  0  0  0  0
   53.6830   23.6230   45.8840 C   0  0  0  0  0  0  0  0  0  0  0  0
   50.8341   24.6810   45.0203 H   0  0  0  0  0  0  0  0  0  0  0  0
   51.8441   24.6719   43.5349 H   0  0  0  0  0  0  0  0  0  0  0  0
   50.2396   23.8643   43.5349 H   0  0  0  0  0  0  0  0  0  0  0  0
   51.4576   21.0891   46.4696 H   0  0  0  0  0  0  0  0  0  0  0  0
   52.9373   20.7857   48.4511 H   0  0  0  0  0  0  0  0  0  0  0  0
   54.8972   22.2913   48.7935 H   0  0  0  0  0  0  0  0  0  0  0  0
   57.5298   24.2161   46.3419 H   0  0  0  0  0  0  0  0  0  0  0  0
   56.1603   24.1695   45.1628 H   0  0  0  0  0  0  0  0  0  0  0  0
   57.0757   26.3372   44.9187 H   0  0  0  0  0  0  0  0  0  0  0  0
   54.8780   26.3270   46.7430 H   0  0  0  0  0  0  0  0  0  0  0  0
   56.9653   27.4489   47.6119 H   0  0  0  0  0  0  0  0  0  0  0  0
   58.0606   25.9841   47.5070 H   0  0  0  0  0  0  0  0  0  0  0  0
   58.3885   27.5703   44.2805 H   0  0  0  0  0  0  0  0  0  0  0  0
   57.2355   28.6322   45.1979 H   0  0  0  0  0  0  0  0  0  0  0  0
   60.1942   29.1987   44.6877 H   0  0  0  0  0  0  0  0  0  0  0  0
   58.8069   29.9995   43.8854 H   0  0  0  0  0  0  0  0  0  0  0  0
   60.6043   32.5334   46.5534 H   0  0  0  0  0  0  0  0  0  0  0  0
   60.0983   34.9419   46.1658 H   0  0  0  0  0  0  0  0  0  0  0  0
   57.9436   35.6111   45.1027 H   0  0  0  0  0  0  0  0  0  0  0  0
   56.2929   33.8713   44.4160 H   0  0  0  0  0  0  0  0  0  0  0  0
   56.3057   29.5502   43.5276 H   0  0  0  0  0  0  0  0  0  0  0  0
   55.6693   31.1064   42.8952 H   0  0  0  0  0  0  0  0  0  0  0  0
   57.4380   30.7930   42.8952 H   0  0  0  0  0  0  0  0  0  0  0  0
   59.8037   30.4970   47.8936 H   0  0  0  0  0  0  0  0  0  0  0  0
   58.0561   30.0502   47.7393 H   0  0  0  0  0  0  0  0  0  0  0  0
   60.5007   28.3362   47.1079 H   0  0  0  0  0  0  0  0  0  0  0  0
   59.1934   28.0633   48.3496 H   0  0  0  0  0  0  0  0  0  0  0  0
   53.8755   24.4443   45.1780 H   0  0  0  0  0  0  0  0  0  0  0  0
  1  2  1  0
  2  3  1  0
  3  4  2  0
  4  5  1  0
  5  6  2  0
  6  7  1  0
  7  8  1  0
  8  9  1  0
  9 10  1  0
 10 11  1  0
 10 12  1  0
 12 13  1  0
 13 14  1  0
 14 15  1  0
 15 16  1  0
 16 17  1  0
 17 18  2  0
 18 19  1  0
 19 20  2  0
 20 21  1  0
 21 22  2  0
 22 23  1  0
 23 24  1  0
 16 25  1  0
 25 26  1  0
  7 27  2  0
 27  3  1  0
 26 13  1  0
 22 17  1  0
  1 28  1  0
  1 29  1  0
  1 30  1  0
  4 31  1  0
  5 32  1  0
  6 33  1  0
  9 34  1  0
  9 35  1  0
 10 36  1  6
 11 37  1  0
 12 38  1  0
 12 39  1  0
 14 40  1  0
 14 41  1  0
 15 42  1  0
 15 43  1  0
 18 44  1  0
 19 45  1  0
 20 46  1  0
 21 47  1  0
 24 48  1  0
 24 49  1  0
 24 50  1  0
 25 51  1  0
 25 52  1  0
 26 53  1  0
 26 54  1  0
 27 55  1  0
M  END
>  <UniqueID>  (35) 
33

>  <SMILES>  (35) 
COc1cccc(OC[C@@H](O)CN2CCN(c3ccccc3OC)CC2)c1

>  <Energy>  (35) 
73.30430473536725

>  <Genealogy>  (35) 
COc1cccc(OC[C@@H](O)CN2CCN(c3ccccc3OC)CC2)c1 (chirality)
COc1cccc(OC[C@@H](O)CN2CCN(c3ccccc3OC)CC2)c1 (3D coordinates assigned)
COc1cccc(OC[C@@H](O)CN2CCN(c3ccccc3OC)CC2)c1 (nonaromatic ring conformer: 73.30430473536725 kcal/mol)

>  <smiles>  (35) 
COc1cccc(OCC(O)CN2CCN(c3ccccc3OC)CC2)c1

>  <score_type>  (35) 
oracle

>  <origin>  (35) 
adg

>  <m_score__min__energy>  (35) 
-8.1099999999999994

>  <m_primary>  (35) 
energy

$$$$
35:0
     RDKit          3D

 51 54  0  0  0  0  0  0  0  0999 V2000
   63.0200   34.3780   48.9270 C   0  0  0  0  0  0  0  0  0  0  0  0
   63.6250   33.2850   48.1460 N   0  0  0  0  0  0  0  0  0  0  0  0
   64.3040   32.2990   49.0150 C   0  0  0  0  0  0  0  0  0  0  0  0
   63.3010   31.4930   49.8580 C   0  0  0  0  0  0  0  0  0  0  0  0
   62.1140   31.1550   49.0680 N   0  0  0  0  0  0  0  0  0  0  0  0
   60.8330   31.0520   49.7090 C   0  0  0  0  0  0  0  0  0  0  0  0
   60.3880   32.0910   50.4680 N   0  0  0  0  0  0  0  0  0  0  0  0
   59.1690   32.0610   51.0670 C   0  0  0  0  0  0  0  0  0  0  0  0
   58.7360   33.1300   51.8580 C   0  0  0  0  0  0  0  0  0  0  0  0
   57.4760   33.0800   52.4650 C   0  0  0  0  0  0  0  0  0  0  0  0
   56.6480   31.9670   52.2790 C   0  0  0  0  0  0  0  0  0  0  0  0
   57.0760   30.8970   51.4840 C   0  0  0  0  0  0  0  0  0  0  0  0
   58.3370   30.9410   50.8800 C   0  0  0  0  0  0  0  0  0  0  0  0
   58.7730   29.9110   50.1120 N   0  0  0  0  0  0  0  0  0  0  0  0
   60.0050   29.9260   49.5340 C   0  0  0  0  0  0  0  0  0  0  0  0
   60.4960   28.5320   48.5110 S   0  0  0  0  0  0  0  0  0  0  0  0
   59.0020   28.5570   47.4600 C   0  0  0  0  0  0  0  0  0  0  0  0
   58.8920   29.8600   46.7300 C   0  0  0  0  0  0  0  0  0  0  0  0
   59.1170   29.8960   45.4910 O   0  0  0  0  0  0  0  0  0  0  0  0
   58.5280   31.0540   47.4400 N   0  0  0  0  0  0  0  0  0  0  0  0
   58.7140   32.3820   46.9230 C   0  0  0  0  0  0  0  0  0  0  0  0
   59.5130   33.2870   47.6380 C   0  0  0  0  0  0  0  0  0  0  0  0
   59.7350   34.5770   47.1450 C   0  0  0  0  0  0  0  0  0  0  0  0
   59.1780   34.9660   45.9260 C   0  0  0  0  0  0  0  0  0  0  0  0
   58.4040   34.0650   45.1920 C   0  0  0  0  0  0  0  0  0  0  0  0
   58.1750   32.7730   45.6800 C   0  0  0  0  0  0  0  0  0  0  0  0
   57.4750   31.8990   44.9140 F   0  0  0  0  0  0  0  0  0  0  0  0
   62.1830   31.2640   47.6110 C   0  0  0  0  0  0  0  0  0  0  0  0
   62.6500   32.6750   47.2040 C   0  0  0  0  0  0  0  0  0  0  0  0
   63.1357   34.1690   50.0008 H   0  0  0  0  0  0  0  0  0  0  0  0
   63.5221   35.3255   48.6817 H   0  0  0  0  0  0  0  0  0  0  0  0
   61.9505   34.4556   48.6817 H   0  0  0  0  0  0  0  0  0  0  0  0
   64.8779   31.6043   48.3842 H   0  0  0  0  0  0  0  0  0  0  0  0
   64.9649   32.8474   49.7024 H   0  0  0  0  0  0  0  0  0  0  0  0
   63.7818   30.5654   50.2021 H   0  0  0  0  0  0  0  0  0  0  0  0
   62.9908   32.1041   50.7184 H   0  0  0  0  0  0  0  0  0  0  0  0
   59.3837   34.0073   52.0026 H   0  0  0  0  0  0  0  0  0  0  0  0
   57.1352   33.9183   53.0904 H   0  0  0  0  0  0  0  0  0  0  0  0
   55.6586   31.9329   52.7586 H   0  0  0  0  0  0  0  0  0  0  0  0
   56.4228   30.0246   51.3348 H   0  0  0  0  0  0  0  0  0  0  0  0
   59.0606   27.7371   46.7290 H   0  0  0  0  0  0  0  0  0  0  0  0
   58.1162   28.4337   48.1004 H   0  0  0  0  0  0  0  0  0  0  0  0
   58.0250   30.9480   48.3500 H   0  0  0  0  0  0  0  0  0  0  0  0
   59.9674   32.9803   48.5917 H   0  0  0  0  0  0  0  0  0  0  0  0
   60.3496   35.2860   47.7191 H   0  0  0  0  0  0  0  0  0  0  0  0
   59.3488   35.9830   45.5432 H   0  0  0  0  0  0  0  0  0  0  0  0
   57.9729   34.3713   44.2275 H   0  0  0  0  0  0  0  0  0  0  0  0
   62.8951   30.5201   47.2244 H   0  0  0  0  0  0  0  0  0  0  0  0
   61.1833   31.0816   47.1899 H   0  0  0  0  0  0  0  0  0  0  0  0
   63.1213   32.6106   46.2122 H   0  0  0  0  0  0  0  0  0  0  0  0
   61.7581   33.3188   47.2084 H   0  0  0  0  0  0  0  0  0  0  0  0
  1  2  1  0
  2  3  1  0
  3  4  1  0
  4  5  1  0
  5  6  1  0
  6  7  2  0
  7  8  1  0
  8  9  2  0
  9 10  1  0
 10 11  2  0
 11 12  1  0
 12 13  2  0
 13 14  1  0
 14 15  2  0
 15 16  1  0
 16 17  1  0
 17 18  1  0
 18 19  2  0
 18 20  1  0
 20 21  1  0
 21 22  2  0
 22 23  1  0
 23 24  2  0
 24 25  1  0
 25 26  2  0
 26 27  1  0
  5 28  1  0
 28 29  1  0
 29  2  1  0
 15  6  1  0
 26 21  1  0
 13  8  1  0
  1 30  1  0
  1 31  1  0
  1 32  1  0
  3 33  1  0
  3 34  1  0
  4 35  1  0
  4 36  1  0
  9 37  1  0
 10 38  1  0
 11 39  1  0
 12 40  1  0
 17 41  1  0
 17 42  1  0
 20 43  1  0
 22 44  1  0
 23 45  1  0
 24 46  1  0
 25 47  1  0
 28 48  1  0
 28 49  1  0
 29 50  1  0
 29 51  1  0
M  END
>  <UniqueID>  (36) 
34

>  <SMILES>  (36) 
CN1CCN(c2nc3ccccc3nc2SCC(=O)Nc2ccccc2F)CC1

>  <Energy>  (36) 
68.37827575099969

>  <Genealogy>  (36) 
CN1CCN(c2nc3ccccc3nc2SCC(=O)Nc2ccccc2F)CC1 (3D coordinates assigned)
CN1CCN(c2nc3ccccc3nc2SCC(=O)Nc2ccccc2F)CC1 (nonaromatic ring conformer: 68.37827575099969 kcal/mol)

>  <smiles>  (36) 
CN1CCN(c2nc3ccccc3nc2SCC(=O)Nc2ccccc2F)CC1

>  <score_type>  (36) 
oracle

>  <origin>  (36) 
adg

>  <m_score__min__energy>  (36) 
-8.1699999999999999

>  <m_primary>  (36) 
energy

$$$$
36:0
     RDKit          3D

 43 44  0  0  0  0  0  0  0  0999 V2000
   56.9550   26.4050   46.5370 C   0  0  0  0  0  0  0  0  0  0  0  0
   58.2680   27.0700   46.9320 C   0  0  0  0  0  0  0  0  0  0  0  0
   58.9440   27.6540   45.7620 N   0  0  0  0  0  0  0  0  0  0  0  0
   60.4070   27.8180   45.8310 C   0  0  0  0  0  0  0  0  0  0  0  0
   60.9410   28.8630   44.8470 C   0  0  0  0  0  0  0  0  0  0  0  0
   58.1680   28.5200   44.9140 C   0  0  0  0  0  0  0  0  0  0  0  0
   57.8390   29.7990   45.3790 C   0  0  0  0  0  0  0  0  0  0  0  0
   57.0820   30.6710   44.5890 C   0  0  0  0  0  0  0  0  0  0  0  0
   56.7340   31.9590   45.0210 O   0  0  0  0  0  0  0  0  0  0  0  0
   57.6400   32.9500   45.4270 C   0  0  0  0  0  0  0  0  0  0  0  0
   57.8160   33.1790   46.7970 C   0  0  0  0  0  0  0  0  0  0  0  0
   58.7010   34.1670   47.2420 C   0  0  0  0  0  0  0  0  0  0  0  0
   59.4070   34.9410   46.3160 C   0  0  0  0  0  0  0  0  0  0  0  0
   59.2220   34.7340   44.9460 C   0  0  0  0  0  0  0  0  0  0  0  0
   58.3380   33.7470   44.5000 C   0  0  0  0  0  0  0  0  0  0  0  0
   56.6220   30.2230   43.3520 C   0  0  0  0  0  0  0  0  0  0  0  0
   56.9430   28.9810   42.9020 N   0  0  0  0  0  0  0  0  0  0  0  0
   57.7140   28.1170   43.6330 C   0  0  0  0  0  0  0  0  0  0  0  0
   58.0440   26.7910   43.0500 C   0  0  0  0  0  0  0  0  0  0  0  0
   58.4810   26.6920   41.8720 O   0  0  0  0  0  0  0  0  0  0  0  0
   57.8500   25.6360   43.8160 O   0  0  0  0  0  0  0  0  0  0  0  0
   57.0340   24.5540   43.3810 C   0  0  0  0  0  0  0  0  0  0  0  0
   56.3993   26.1235   47.4436 H   0  0  0  0  0  0  0  0  0  0  0  0
   56.3532   27.1070   45.9411 H   0  0  0  0  0  0  0  0  0  0  0  0
   57.1648   25.5045   45.9411 H   0  0  0  0  0  0  0  0  0  0  0  0
   58.0610   27.8671   47.6613 H   0  0  0  0  0  0  0  0  0  0  0  0
   58.9273   26.3053   47.3686 H   0  0  0  0  0  0  0  0  0  0  0  0
   60.6769   28.1277   46.8514 H   0  0  0  0  0  0  0  0  0  0  0  0
   60.8586   26.8520   45.5610 H   0  0  0  0  0  0  0  0  0  0  0  0
   61.3721   29.7066   45.4061 H   0  0  0  0  0  0  0  0  0  0  0  0
   61.7170   28.4078   44.2141 H   0  0  0  0  0  0  0  0  0  0  0  0
   60.1175   29.2252   44.2141 H   0  0  0  0  0  0  0  0  0  0  0  0
   58.1787   30.1212   46.3744 H   0  0  0  0  0  0  0  0  0  0  0  0
   57.2549   32.5783   47.5280 H   0  0  0  0  0  0  0  0  0  0  0  0
   58.8413   34.3348   48.3200 H   0  0  0  0  0  0  0  0  0  0  0  0
   60.1082   35.7130   46.6657 H   0  0  0  0  0  0  0  0  0  0  0  0
   59.7724   35.3482   44.2182 H   0  0  0  0  0  0  0  0  0  0  0  0
   58.1874   33.5927   43.4213 H   0  0  0  0  0  0  0  0  0  0  0  0
   55.9932   30.8807   42.7339 H   0  0  0  0  0  0  0  0  0  0  0  0
   56.5910   28.7030   41.9590 H   0  0  0  0  0  0  0  0  0  0  0  0
   56.6329   24.0222   44.2564 H   0  0  0  0  0  0  0  0  0  0  0  0
   56.2021   24.9426   42.7752 H   0  0  0  0  0  0  0  0  0  0  0  0
   57.6363   23.8610   42.7752 H   0  0  0  0  0  0  0  0  0  0  0  0
  1  2  1  0
  2  3  1  0
  3  4  1  0
  4  5  1  0
  3  6  1  0
  6  7  2  0
  7  8  1  0
  8  9  1  0
  9 10  1  0
 10 11  2  0
 11 12  1  0
 12 13  2  0
 13 14  1  0
 14 15  2  0
  8 16  2  0
 16 17  1  0
 17 18  2  0
 18 19  1  0
 19 20  2  0
 19 21  1  0
 21 22  1  0
 18  6  1  0
 15 10  1  0
  1 23  1  0
  1 24  1  0
  1 25  1  0
  2 26  1  0
  2 27  1  0
  4 28  1  0
  4 29  1  0
  5 30  1  0
  5 31  1  0
  5 32  1  0
  7 33  1  0
 11 34  1  0
 12 35  1  0
 13 36  1  0
 14 37  1  0
 15 38  1  0
 16 39  1  0
 17 40  1  0
 22 41  1  0
 22 42  1  0
 22 43  1  0
M  CHG  1  17   1
M  END
>  <UniqueID>  (37) 
35

>  <SMILES>  (37) 
CCN(CC)c1cc(Oc2ccccc2)c[nH+]c1C(=O)OC

>  <Energy>  (37) 
50.587436114216246

>  <Genealogy>  (37) 
CCN(CC)c1cc(Oc2ccccc2)c[nH+]c1C(=O)OC (protonated)
CCN(CC)c1cc(Oc2ccccc2)c[nH+]c1C(=O)OC (3D coordinates assigned)
CCN(CC)c1cc(Oc2ccccc2)c[nH+]c1C(=O)OC (optimized conformer: 50.587436114216246 kcal/mol)

>  <smiles>  (37) 
CCN(CC)c1cc(Oc2ccccc2)cnc1C(=O)OC

>  <score_type>  (37) 
oracle

>  <origin>  (37) 
adg

>  <m_score__min__energy>  (37) 
-5.1200000000000001

>  <m_primary>  (37) 
energy

$$$$
37:0
     RDKit          3D

 58 61  0  0  0  0  0  0  0  0999 V2000
   57.3980   21.4610   43.1850 C   0  0  0  0  0  0  0  0  0  0  0  0
   57.7350   21.0420   44.5500 N   0  0  0  0  0  0  0  0  0  0  0  0
   58.0880   22.1810   45.4160 C   0  0  0  0  0  0  0  0  0  0  0  0
   57.2230   23.4200   45.1340 C   0  0  0  0  0  0  0  0  0  0  0  0
   57.8340   24.6430   45.7630 C   0  0  0  0  0  0  0  0  0  0  0  0
   58.5120   25.5840   44.9710 C   0  0  0  0  0  0  0  0  0  0  0  0
   59.1100   26.7020   45.5600 C   0  0  0  0  0  0  0  0  0  0  0  0
   59.0610   26.8820   46.9500 C   0  0  0  0  0  0  0  0  0  0  0  0
   59.6660   28.0730   47.5820 C   0  0  0  0  0  0  0  0  0  0  0  0
   59.8500   28.2090   48.9460 C   0  0  0  0  0  0  0  0  0  0  0  0
   60.4560   29.4310   49.1450 C   0  0  0  0  0  0  0  0  0  0  0  0
   60.6460   29.9810   47.8920 C   0  0  0  0  0  0  0  0  0  0  0  0
   61.2850   31.2870   47.6510 C   0  0  0  0  0  0  0  0  0  0  0  0
   60.5020   32.4500   47.5950 C   0  0  0  0  0  0  0  0  0  0  0  0
   61.0960   33.6850   47.3150 C   0  0  0  0  0  0  0  0  0  0  0  0
   62.4750   33.7670   47.1020 C   0  0  0  0  0  0  0  0  0  0  0  0
   63.2630   32.6140   47.1770 C   0  0  0  0  0  0  0  0  0  0  0  0
   62.6710   31.3780   47.4540 C   0  0  0  0  0  0  0  0  0  0  0  0
   60.1460   29.1630   46.9310 N   0  0  0  0  0  0  0  0  0  0  0  0
   60.2010   29.3850   45.4770 C   0  0  0  0  0  0  0  0  0  0  0  0
   58.9280   30.0230   44.9760 C   0  0  0  0  0  0  0  0  0  0  0  0
   58.0170   29.2800   44.2070 C   0  0  0  0  0  0  0  0  0  0  0  0
   56.8200   29.8580   43.7800 C   0  0  0  0  0  0  0  0  0  0  0  0
   56.5170   31.1780   44.1220 C   0  0  0  0  0  0  0  0  0  0  0  0
   57.4120   31.9310   44.8970 C   0  0  0  0  0  0  0  0  0  0  0  0
   57.0960   33.3530   45.2500 C   0  0  0  0  0  0  0  0  0  0  0  0
   58.6290   31.3580   45.2960 C   0  0  0  0  0  0  0  0  0  0  0  0
   58.3780   25.9460   47.7400 C   0  0  0  0  0  0  0  0  0  0  0  0
   57.7790   24.8280   47.1530 C   0  0  0  0  0  0  0  0  0  0  0  0
   56.7090   22.3176   43.2240 H   0  0  0  0  0  0  0  0  0  0  0  0
   58.3160   21.7527   42.6538 H   0  0  0  0  0  0  0  0  0  0  0  0
   56.9163   20.6269   42.6538 H   0  0  0  0  0  0  0  0  0  0  0  0
   56.9340   20.5070   44.9590 H   0  0  0  0  0  0  0  0  0  0  0  0
   58.5610   20.4010   44.4960 H   0  0  0  0  0  0  0  0  0  0  0  0
   57.9480   21.8836   46.4657 H   0  0  0  0  0  0  0  0  0  0  0  0
   59.1349   22.4481   45.2096 H   0  0  0  0  0  0  0  0  0  0  0  0
   57.1494   23.5704   44.0468 H   0  0  0  0  0  0  0  0  0  0  0  0
   56.2227   23.2610   45.5632 H   0  0  0  0  0  0  0  0  0  0  0  0
   58.5728   25.4407   43.8821 H   0  0  0  0  0  0  0  0  0  0  0  0
   59.6217   27.4444   44.9299 H   0  0  0  0  0  0  0  0  0  0  0  0
   59.5674   27.4824   49.7220 H   0  0  0  0  0  0  0  0  0  0  0  0
   60.7334   29.8795   50.1104 H   0  0  0  0  0  0  0  0  0  0  0  0
   59.4179   32.3903   47.7718 H   0  0  0  0  0  0  0  0  0  0  0  0
   60.4771   34.5929   47.2624 H   0  0  0  0  0  0  0  0  0  0  0  0
   62.9401   34.7377   46.8755 H   0  0  0  0  0  0  0  0  0  0  0  0
   64.3495   32.6796   47.0179 H   0  0  0  0  0  0  0  0  0  0  0  0
   63.2942   30.4738   47.5177 H   0  0  0  0  0  0  0  0  0  0  0  0
   61.0492   30.0464   45.2464 H   0  0  0  0  0  0  0  0  0  0  0  0
   60.3232   28.4116   44.9794 H   0  0  0  0  0  0  0  0  0  0  0  0
   58.2478   28.2381   43.9401 H   0  0  0  0  0  0  0  0  0  0  0  0
   56.1139   29.2726   43.1728 H   0  0  0  0  0  0  0  0  0  0  0  0
   55.5729   31.6290   43.7824 H   0  0  0  0  0  0  0  0  0  0  0  0
   57.0717   33.4624   46.3443 H   0  0  0  0  0  0  0  0  0  0  0  0
   57.8690   34.0149   44.8324 H   0  0  0  0  0  0  0  0  0  0  0  0
   56.1154   33.6253   44.8324 H   0  0  0  0  0  0  0  0  0  0  0  0
   59.3548   31.9587   45.8638 H   0  0  0  0  0  0  0  0  0  0  0  0
   58.3133   26.0926   48.8283 H   0  0  0  0  0  0  0  0  0  0  0  0
   57.2620   24.0896   47.7835 H   0  0  0  0  0  0  0  0  0  0  0  0
  1  2  1  0
  2  3  1  0
  3  4  1  0
  4  5  1  0
  5  6  2  0
  6  7  1  0
  7  8  2  0
  8  9  1  0
  9 10  2  0
 10 11  1  0
 11 12  2  0
 12 13  1  0
 13 14  2  0
 14 15  1  0
 15 16  2  0
 16 17  1  0
 17 18  2  0
 12 19  1  0
 19 20  1  0
 20 21  1  0
 21 22  2  0
 22 23  1  0
 23 24  2  0
 24 25  1  0
 25 26  1  0
 25 27  2  0
  8 28  1  0
 28 29  2  0
 29  5  1  0
 19  9  1  0
 27 21  1  0
 18 13  1  0
  1 30  1  0
  1 31  1  0
  1 32  1  0
  2 33  1  0
  2 34  1  0
  3 35  1  0
  3 36  1  0
  4 37  1  0
  4 38  1  0
  6 39  1  0
  7 40  1  0
 10 41  1  0
 11 42  1  0
 14 43  1  0
 15 44  1  0
 16 45  1  0
 17 46  1  0
 18 47  1  0
 20 48  1  0
 20 49  1  0
 22 50  1  0
 23 51  1  0
 24 52  1  0
 26 53  1  0
 26 54  1  0
 26 55  1  0
 27 56  1  0
 28 57  1  0
 29 58  1  0
M  CHG  1   2   1
M  END
>  <UniqueID>  (38) 
36

>  <SMILES>  (38) 
C[NH2+]CCc1ccc(-c2ccc(-c3ccccc3)n2Cc2cccc(C)c2)cc1

>  <Energy>  (38) 
93.94494835965689

>  <Genealogy>  (38) 
C[NH2+]CCc1ccc(-c2ccc(-c3ccccc3)n2Cc2cccc(C)c2)cc1 (protonated)
C[NH2+]CCc1ccc(-c2ccc(-c3ccccc3)n2Cc2cccc(C)c2)cc1 (3D coordinates assigned)
C[NH2+]CCc1ccc(-c2ccc(-c3ccccc3)n2Cc2cccc(C)c2)cc1 (optimized conformer: 93.94494835965689 kcal/mol)

>  <smiles>  (38) 
CNCCc1ccc(-c2ccc(-c3ccccc3)n2Cc2cccc(C)c2)cc1

>  <score_type>  (38) 
oracle

>  <origin>  (38) 
adg

>  <m_score__min__energy>  (38) 
-7.9699999999999998

>  <m_primary>  (38) 
energy

$$$$
38:0
     RDKit          3D

 44 46  0  0  0  0  0  0  0  0999 V2000
   55.4680   25.1310   45.6510 C   0  0  0  0  0  0  0  0  0  0  0  0
   55.5090   26.5130   45.9890 O   0  0  0  0  0  0  0  0  0  0  0  0
   56.6750   27.2950   46.0010 C   0  0  0  0  0  0  0  0  0  0  0  0
   57.8670   26.8500   46.6020 C   0  0  0  0  0  0  0  0  0  0  0  0
   59.0060   27.6580   46.6000 C   0  0  0  0  0  0  0  0  0  0  0  0
   58.9710   28.9270   46.0090 C   0  0  0  0  0  0  0  0  0  0  0  0
   60.1840   29.7710   46.0050 C   0  0  0  0  0  0  0  0  0  0  0  0
   61.2420   29.3130   45.4960 O   0  0  0  0  0  0  0  0  0  0  0  0
   60.1870   31.0890   46.5830 N   0  0  0  0  0  0  0  0  0  0  0  0
   61.3570   31.6660   47.3240 C   0  0  0  0  0  0  0  0  0  0  0  0
   61.3320   33.2700   47.4250 C   0  0  0  0  0  0  0  0  0  0  0  0
   59.9620   33.9350   47.4170 N   0  0  1  0  0  0  0  0  0  0  0  0
   59.6550   34.7600   46.1750 C   0  0  0  0  0  0  0  0  0  0  0  0
   58.4690   34.2210   45.2360 C   0  0  0  0  0  0  0  0  0  0  0  0
   58.3270   32.6360   45.1570 C   0  0  0  0  0  0  0  0  0  0  0  0
   59.1080   32.0300   46.3390 C   0  0  2  0  0  0  0  0  0  0  0  0
   58.9400   32.9090   47.5730 C   0  0  0  0  0  0  0  0  0  0  0  0
   57.7930   29.3640   45.3860 C   0  0  0  0  0  0  0  0  0  0  0  0
   56.6390   28.5570   45.3870 C   0  0  0  0  0  0  0  0  0  0  0  0
   55.4400   28.9710   44.7860 O   0  0  0  0  0  0  0  0  0  0  0  0
   55.3600   29.7480   43.5950 C   0  0  0  0  0  0  0  0  0  0  0  0
   55.4501   24.5288   46.5714 H   0  0  0  0  0  0  0  0  0  0  0  0
   54.5633   24.9247   45.0602 H   0  0  0  0  0  0  0  0  0  0  0  0
   56.3588   24.8714   45.0602 H   0  0  0  0  0  0  0  0  0  0  0  0
   57.9019   25.8584   47.0769 H   0  0  0  0  0  0  0  0  0  0  0  0
   59.9349   27.2959   47.0648 H   0  0  0  0  0  0  0  0  0  0  0  0
   61.3593   31.2540   48.3439 H   0  0  0  0  0  0  0  0  0  0  0  0
   62.2607   31.3940   46.7588 H   0  0  0  0  0  0  0  0  0  0  0  0
   61.8342   33.5528   48.3619 H   0  0  0  0  0  0  0  0  0  0  0  0
   61.8306   33.6248   46.5110 H   0  0  0  0  0  0  0  0  0  0  0  0
   59.9030   34.5670   48.2500 H   0  0  0  0  0  0  0  0  0  0  0  0
   59.3862   35.7744   46.5048 H   0  0  0  0  0  0  0  0  0  0  0  0
   60.5637   34.7081   45.5573 H   0  0  0  0  0  0  0  0  0  0  0  0
   57.5214   34.6280   45.6187 H   0  0  0  0  0  0  0  0  0  0  0  0
   58.7137   34.5547   44.2168 H   0  0  0  0  0  0  0  0  0  0  0  0
   57.2665   32.3521   45.2252 H   0  0  0  0  0  0  0  0  0  0  0  0
   58.7269   32.2630   44.2026 H   0  0  0  0  0  0  0  0  0  0  0  0
   58.7659   31.1549   45.7671 H   0  0  0  0  0  0  0  0  0  0  0  0
   57.9361   33.3580   47.5994 H   0  0  0  0  0  0  0  0  0  0  0  0
   59.0459   32.3454   48.5117 H   0  0  0  0  0  0  0  0  0  0  0  0
   57.7703   30.3465   44.8919 H   0  0  0  0  0  0  0  0  0  0  0  0
   55.2506   30.8107   43.8572 H   0  0  0  0  0  0  0  0  0  0  0  0
   56.2772   29.6087   43.0040 H   0  0  0  0  0  0  0  0  0  0  0  0
   54.4904   29.4247   43.0040 H   0  0  0  0  0  0  0  0  0  0  0  0
  1  2  1  0
  2  3  1  0
  3  4  2  0
  4  5  1  0
  5  6  2  0
  6  7  1  0
  7  8  2  0
  7  9  1  0
  9 10  1  0
 10 11  1  0
 11 12  1  0
 12 13  1  0
 13 14  1  0
 14 15  1  0
 15 16  1  0
 16 17  1  0
  6 18  1  0
 18 19  2  0
 19 20  1  0
 20 21  1  0
 19  3  1  0
 16  9  1  0
 17 12  1  0
  1 22  1  0
  1 23  1  0
  1 24  1  0
  4 25  1  0
  5 26  1  0
 10 27  1  0
 10 28  1  0
 11 29  1  0
 11 30  1  0
 12 31  1  1
 13 32  1  0
 13 33  1  0
 14 34  1  0
 14 35  1  0
 15 36  1  0
 15 37  1  0
 16 38  1  1
 17 39  1  0
 17 40  1  0
 18 41  1  0
 21 42  1  0
 21 43  1  0
 21 44  1  0
M  CHG  1  12   1
M  END
>  <UniqueID>  (39) 
37

>  <SMILES>  (39) 
COc1ccc(C(=O)N2CC[N@H+]3CCC[C@H]2C3)cc1OC

>  <Energy>  (39) 
183.51553276351382

>  <Genealogy>  (39) 
COc1ccc(C(=O)N2CC[NH+]3CCCC2C3)cc1OC (protonated)
COc1ccc(C(=O)N2CC[N@H+]3CCC[C@H]2C3)cc1OC (chirality)
COc1ccc(C(=O)N2CC[N@H+]3CCC[C@H]2C3)cc1OC (3D coordinates assigned)
COc1ccc(C(=O)N2CC[N@H+]3CCC[C@H]2C3)cc1OC (nonaromatic ring conformer: 183.51553276351382 kcal/mol)

>  <smiles>  (39) 
COc1ccc(C(=O)N2CCN3CCCC2C3)cc1OC

>  <score_type>  (39) 
oracle

>  <origin>  (39) 
adg

>  <m_score__min__energy>  (39) 
-6.0199999999999996

>  <m_primary>  (39) 
energy

$$$$
39:0
     RDKit          3D

 51 53  0  0  0  0  0  0  0  0999 V2000
   56.1056   25.6656   46.8096 H   0  0  0  0  0  0  0  0  0  0  0  0
   56.5790   26.6070   46.4940 C   0  0  0  0  0  0  0  0  0  0  0  0
   55.9260   27.4400   45.6450 N   0  0  0  0  0  0  0  0  0  0  0  0
   56.4710   28.6120   45.2290 C   0  0  0  0  0  0  0  0  0  0  0  0
   55.7580   29.4320   44.3490 C   0  0  0  0  0  0  0  0  0  0  0  0
   54.7600   29.1260   44.0019 H   0  0  0  0  0  0  0  0  0  0  0  0
   56.3080   30.6380   43.9090 C   0  0  0  0  0  0  0  0  0  0  0  0
   55.7451   31.2718   43.2080 H   0  0  0  0  0  0  0  0  0  0  0  0
   57.5730   31.0460   44.3550 C   0  0  0  0  0  0  0  0  0  0  0  0
   58.1780   32.3260   43.8480 C   0  0  0  0  0  0  0  0  0  0  0  0
   59.1075   32.0987   43.3054 H   0  0  0  0  0  0  0  0  0  0  0  0
   57.4617   32.8199   43.1750 H   0  0  0  0  0  0  0  0  0  0  0  0
   58.4860   33.2460   44.9980 C   0  0  0  0  0  0  0  0  0  0  0  0
   59.4490   34.2600   44.8550 C   0  0  0  0  0  0  0  0  0  0  0  0
   59.9581   34.4002   43.8900 H   0  0  0  0  0  0  0  0  0  0  0  0
   59.7620   35.0910   45.9350 C   0  0  0  0  0  0  0  0  0  0  0  0
   60.5109   35.8879   45.8162 H   0  0  0  0  0  0  0  0  0  0  0  0
   59.1240   34.9100   47.1660 C   0  0  0  0  0  0  0  0  0  0  0  0
   59.3702   35.5655   48.0144 H   0  0  0  0  0  0  0  0  0  0  0  0
   58.1740   33.8970   47.3190 C   0  0  0  0  0  0  0  0  0  0  0  0
   57.6735   33.7547   48.2882 H   0  0  0  0  0  0  0  0  0  0  0  0
   57.8590   33.0640   46.2410 C   0  0  0  0  0  0  0  0  0  0  0  0
   57.1165   32.2623   46.3674 H   0  0  0  0  0  0  0  0  0  0  0  0
   58.2970   30.2220   45.2330 C   0  0  0  0  0  0  0  0  0  0  0  0
   59.2956   30.5334   45.5734 H   0  0  0  0  0  0  0  0  0  0  0  0
   57.7560   29.0000   45.6820 C   0  0  0  0  0  0  0  0  0  0  0  0
   58.4590   28.1450   46.5650 C   0  0  0  0  0  0  0  0  0  0  0  0
   59.6470   28.4940   46.9860 N   0  0  0  0  0  0  0  0  0  0  0  0
   60.0730   28.7350   48.3660 C   0  0  0  0  0  0  0  0  0  0  0  0
   60.5261   27.8173   48.7691 H   0  0  0  0  0  0  0  0  0  0  0  0
   59.1937   29.0213   48.9617 H   0  0  0  0  0  0  0  0  0  0  0  0
   61.1020   29.8740   48.4280 C   0  0  0  0  0  0  0  0  0  0  0  0
   61.9327   29.6432   47.7449 H   0  0  0  0  0  0  0  0  0  0  0  0
   61.4608   29.9600   49.4643 H   0  0  0  0  0  0  0  0  0  0  0  0
   60.5010   31.1670   48.0350 N   0  0  0  0  0  0  0  0  0  0  0  0
   60.0180   32.0060   49.1580 C   0  0  0  0  0  0  0  0  0  0  0  0
   59.7425   32.9921   48.7558 H   0  0  0  0  0  0  0  0  0  0  0  0
   60.8393   32.0520   49.8884 H   0  0  0  0  0  0  0  0  0  0  0  0
   58.8010   31.4360   49.9060 C   0  0  0  0  0  0  0  0  0  0  0  0
   58.9676   31.5140   50.9905 H   0  0  0  0  0  0  0  0  0  0  0  0
   57.9015   32.0065   49.6312 H   0  0  0  0  0  0  0  0  0  0  0  0
   58.6634   30.3798   49.6312 H   0  0  0  0  0  0  0  0  0  0  0  0
   61.2070   31.9110   46.9640 C   0  0  0  0  0  0  0  0  0  0  0  0
   61.8142   31.1952   46.3905 H   0  0  0  0  0  0  0  0  0  0  0  0
   60.4307   32.3983   46.3557 H   0  0  0  0  0  0  0  0  0  0  0  0
   62.1290   33.0240   47.4700 C   0  0  0  0  0  0  0  0  0  0  0  0
   62.1312   33.0266   48.5700 H   0  0  0  0  0  0  0  0  0  0  0  0
   63.1507   32.8495   47.1017 H   0  0  0  0  0  0  0  0  0  0  0  0
   61.7674   33.9954   47.1017 H   0  0  0  0  0  0  0  0  0  0  0  0
   57.8470   26.9390   46.9680 C   0  0  0  0  0  0  0  0  0  0  0  0
   58.3712   26.2603   47.6569 H   0  0  0  0  0  0  0  0  0  0  0  0
  1  2  1  0
  2  3  1  0
  3  4  1  0
  4  5  2  0
  5  6  1  0
  5  7  1  0
  7  8  1  0
  7  9  2  0
  9 10  1  0
 10 11  1  0
 10 12  1  0
 10 13  1  0
 13 14  2  0
 14 15  1  0
 14 16  1  0
 16 17  1  0
 16 18  2  0
 18 19  1  0
 18 20  1  0
 20 21  1  0
 20 22  2  0
 22 23  1  0
  9 24  1  0
 24 25  1  0
 24 26  2  0
 26 27  1  0
 27 28  2  0
 28 29  1  0
 29 30  1  0
 29 31  1  0
 29 32  1  0
 32 33  1  0
 32 34  1  0
 32 35  1  0
 35 36  1  0
 36 37  1  0
 36 38  1  0
 36 39  1  0
 39 40  1  0
 39 41  1  0
 39 42  1  0
 35 43  1  0
 43 44  1  0
 43 45  1  0
 43 46  1  0
 46 47  1  0
 46 48  1  0
 46 49  1  0
 27 50  1  0
 50 51  1  0
 50  2  2  0
 26  4  1  0
 22 13  1  0
M  CHG  1   3  -1
M  END
>  <UniqueID>  (40) 
38

>  <SMILES>  (40) 
CCN(CC)CC/N=c1\cc[n-]c2ccc(Cc3ccccc3)cc12

>  <Energy>  (40) 
63.71952771426759

>  <Genealogy>  (40) 
CCN(CC)CCN=c1cc[n-]c2ccc(Cc3ccccc3)cc12 (protonated)
CCN(CC)CC/N=c1\cc[n-]c2ccc(Cc3ccccc3)cc12 (cis-trans isomerization)
CCN(CC)CC/N=c1\cc[n-]c2ccc(Cc3ccccc3)cc12 (3D coordinates assigned)
CCN(CC)CC/N=c1\cc[n-]c2ccc(Cc3ccccc3)cc12 (optimized conformer: 63.71952771426759 kcal/mol)

>  <smiles>  (40) 
CCN(CC)CCN=c1cc[nH]c2ccc(Cc3ccccc3)cc12

>  <score_type>  (40) 
oracle

>  <origin>  (40) 
adg

>  <m_score__min__energy>  (40) 
-9.7100000000000009

>  <m_primary>  (40) 
energy

$$$$
40:0
     RDKit          3D

 45 48  0  0  0  0  0  0  0  0999 V2000
   66.9810   32.7460   50.4960 C   0  0  0  0  0  0  0  0  0  0  0  0
   65.7630   33.3550   50.9090 O   0  0  0  0  0  0  0  0  0  0  0  0
   64.5990   33.4070   50.1280 C   0  0  0  0  0  0  0  0  0  0  0  0
   64.4900   32.7470   48.8890 C   0  0  0  0  0  0  0  0  0  0  0  0
   63.3100   32.8340   48.1450 C   0  0  0  0  0  0  0  0  0  0  0  0
   62.2280   33.5910   48.6190 C   0  0  0  0  0  0  0  0  0  0  0  0
   60.9820   33.6970   47.8420 C   0  0  0  0  0  0  0  0  0  0  0  0
   60.8630   34.4860   46.7470 N   0  0  0  0  0  0  0  0  0  0  0  0
   59.6080   34.2440   46.3150 C   0  0  0  0  0  0  0  0  0  0  0  0
   59.0160   34.8200   45.1920 C   0  0  0  0  0  0  0  0  0  0  0  0
   57.7080   34.4290   44.8710 C   0  0  0  0  0  0  0  0  0  0  0  0
   57.0330   33.4850   45.6660 C   0  0  0  0  0  0  0  0  0  0  0  0
   57.6770   32.9350   46.7850 C   0  0  0  0  0  0  0  0  0  0  0  0
   58.9440   33.3440   47.0650 N   0  0  0  0  0  0  0  0  0  0  0  0
   59.7980   32.9880   48.0440 C   0  0  0  0  0  0  0  0  0  0  0  0
   59.6010   31.8810   48.9470 N   0  0  0  0  0  0  0  0  0  0  0  0
   59.7330   30.6350   48.2310 C   0  0  0  0  0  0  0  0  0  0  0  0
   60.3010   30.6060   46.9450 C   0  0  0  0  0  0  0  0  0  0  0  0
   60.3940   29.4050   46.2380 C   0  0  0  0  0  0  0  0  0  0  0  0
   59.9140   28.2130   46.8000 C   0  0  0  0  0  0  0  0  0  0  0  0
   60.0500   26.9180   46.0570 C   0  0  0  0  0  0  0  0  0  0  0  0
   59.3690   28.2330   48.0920 C   0  0  0  0  0  0  0  0  0  0  0  0
   59.2720   29.4340   48.8000 C   0  0  0  0  0  0  0  0  0  0  0  0
   62.3280   34.2280   49.8650 C   0  0  0  0  0  0  0  0  0  0  0  0
   63.5090   34.1420   50.6070 C   0  0  0  0  0  0  0  0  0  0  0  0
   67.5641   32.4545   51.3820 H   0  0  0  0  0  0  0  0  0  0  0  0
   66.7586   31.8531   49.8934 H   0  0  0  0  0  0  0  0  0  0  0  0
   67.5619   33.4597   49.8934 H   0  0  0  0  0  0  0  0  0  0  0  0
   65.3374   32.1602   48.5048 H   0  0  0  0  0  0  0  0  0  0  0  0
   63.2292   32.3064   47.1832 H   0  0  0  0  0  0  0  0  0  0  0  0
   59.5564   35.5560   44.5786 H   0  0  0  0  0  0  0  0  0  0  0  0
   57.2072   34.8628   43.9929 H   0  0  0  0  0  0  0  0  0  0  0  0
   56.0071   33.1799   45.4122 H   0  0  0  0  0  0  0  0  0  0  0  0
   57.1706   32.1925   47.4192 H   0  0  0  0  0  0  0  0  0  0  0  0
   60.2950   31.9330   49.7260 H   0  0  0  0  0  0  0  0  0  0  0  0
   58.6570   31.9340   49.3900 H   0  0  0  0  0  0  0  0  0  0  0  0
   60.6749   31.5362   46.4924 H   0  0  0  0  0  0  0  0  0  0  0  0
   60.8460   29.3940   45.2352 H   0  0  0  0  0  0  0  0  0  0  0  0
   60.1369   26.0901   46.7760 H   0  0  0  0  0  0  0  0  0  0  0  0
   59.1632   26.7631   45.4249 H   0  0  0  0  0  0  0  0  0  0  0  0
   60.9497   26.9507   45.4249 H   0  0  0  0  0  0  0  0  0  0  0  0
   59.0157   27.2978   48.5509 H   0  0  0  0  0  0  0  0  0  0  0  0
   58.8325   29.4402   49.8084 H   0  0  0  0  0  0  0  0  0  0  0  0
   61.4734   34.7974   50.2594 H   0  0  0  0  0  0  0  0  0  0  0  0
   63.5824   34.6567   51.5764 H   0  0  0  0  0  0  0  0  0  0  0  0
  1  2  1  0
  2  3  1  0
  3  4  2  0
  4  5  1  0
  5  6  2  0
  6  7  1  0
  7  8  1  0
  8  9  2  0
  9 10  1  0
 10 11  2  0
 11 12  1  0
 12 13  2  0
 13 14  1  0
 14 15  1  0
 15 16  1  0
 16 17  1  0
 17 18  2  0
 18 19  1  0
 19 20  2  0
 20 21  1  0
 20 22  1  0
 22 23  2  0
  6 24  1  0
 24 25  2  0
 25  3  1  0
 15  7  2  0
 23 17  1  0
 14  9  1  0
  1 26  1  0
  1 27  1  0
  1 28  1  0
  4 29  1  0
  5 30  1  0
 10 31  1  0
 11 32  1  0
 12 33  1  0
 13 34  1  0
 16 35  1  0
 16 36  1  0
 18 37  1  0
 19 38  1  0
 21 39  1  0
 21 40  1  0
 21 41  1  0
 22 42  1  0
 23 43  1  0
 24 44  1  0
 25 45  1  0
M  CHG  1  16   1
M  END
>  <UniqueID>  (41) 
39

>  <SMILES>  (41) 
COc1ccc(-c2nc3ccccn3c2[NH2+]c2ccc(C)cc2)cc1

>  <Energy>  (41) 
89.62195973604757

>  <Genealogy>  (41) 
COc1ccc(-c2nc3ccccn3c2[NH2+]c2ccc(C)cc2)cc1 (protonated)
COc1ccc(-c2nc3ccccn3c2[NH2+]c2ccc(C)cc2)cc1 (3D coordinates assigned)
COc1ccc(-c2nc3ccccn3c2[NH2+]c2ccc(C)cc2)cc1 (optimized conformer: 89.62195973604757 kcal/mol)

>  <smiles>  (41) 
COc1ccc(-c2nc3ccccn3c2Nc2ccc(C)cc2)cc1

>  <score_type>  (41) 
oracle

>  <origin>  (41) 
adg

>  <m_score__min__energy>  (41) 
-5.6100000000000003

>  <m_primary>  (41) 
energy

$$$$
41:0
     RDKit          3D

 41 42  0  0  0  0  0  0  0  0999 V2000
   58.1490   32.7290   48.4390 C   0  0  0  0  0  0  0  0  0  0  0  0
   58.5130   33.8100   47.4270 C   0  0  0  0  0  0  0  0  0  0  0  0
   59.1660   33.2080   46.2410 N   0  0  0  0  0  0  0  0  0  0  0  0
   58.5350   33.6810   44.9870 C   0  0  0  0  0  0  0  0  0  0  0  0
   57.1270   34.1970   45.2640 C   0  0  0  0  0  0  0  0  0  0  0  0
   60.6220   33.4790   46.2340 C   0  0  0  0  0  0  0  0  0  0  0  0
   61.3230   32.6110   47.2890 C   0  0  0  0  0  0  0  0  0  0  0  0
   60.7000   31.2100   47.3640 C   0  0  0  0  0  0  0  0  0  0  0  0
   60.3210   30.7360   46.0270 N   0  0  0  0  0  0  0  0  0  0  0  0
   59.3580   29.6680   46.1360 C   0  0  0  0  0  0  0  0  0  0  0  0
   59.7060   28.4180   46.6950 C   0  0  0  0  0  0  0  0  0  0  0  0
   58.7560   27.3730   46.7730 C   0  0  0  0  0  0  0  0  0  0  0  0
   57.4370   27.5520   46.2940 C   0  0  0  0  0  0  0  0  0  0  0  0
   56.4630   26.4950   46.3800 N   0  0  0  0  0  0  0  0  0  0  0  0
   56.7690   25.3820   46.8550 O   0  0  0  0  0  0  0  0  0  0  0  0
   55.1600   26.7160   45.9930 O   0  0  0  0  0  0  0  0  0  0  0  0
   57.1340   28.8030   45.7440 C   0  0  0  0  0  0  0  0  0  0  0  0
   55.9790   29.2460   45.2200 N   0  0  0  0  0  0  0  0  0  0  0  0
   56.2370   30.4740   44.8470 O   0  0  0  0  0  0  0  0  0  0  0  0
   57.4660   30.8640   45.0850 N   0  0  0  0  0  0  0  0  0  0  0  0
   58.0500   29.8020   45.6600 C   0  0  0  0  0  0  0  0  0  0  0  0
   58.2811   33.1214   49.4581 H   0  0  0  0  0  0  0  0  0  0  0  0
   57.1005   32.4295   48.2945 H   0  0  0  0  0  0  0  0  0  0  0  0
   58.8028   31.8563   48.2945 H   0  0  0  0  0  0  0  0  0  0  0  0
   57.5985   34.3332   47.1108 H   0  0  0  0  0  0  0  0  0  0  0  0
   59.2105   34.5188   47.8972 H   0  0  0  0  0  0  0  0  0  0  0  0
   59.1414   34.4932   44.5597 H   0  0  0  0  0  0  0  0  0  0  0  0
   58.4752   32.8419   44.2783 H   0  0  0  0  0  0  0  0  0  0  0  0
   56.9653   34.2562   46.3504 H   0  0  0  0  0  0  0  0  0  0  0  0
   57.0091   35.1968   44.8207 H   0  0  0  0  0  0  0  0  0  0  0  0
   56.3910   33.5102   44.8207 H   0  0  0  0  0  0  0  0  0  0  0  0
   61.0312   33.2456   45.2400 H   0  0  0  0  0  0  0  0  0  0  0  0
   60.7928   34.5401   46.4681 H   0  0  0  0  0  0  0  0  0  0  0  0
   62.3867   32.5162   47.0254 H   0  0  0  0  0  0  0  0  0  0  0  0
   61.2061   33.0953   48.2697 H   0  0  0  0  0  0  0  0  0  0  0  0
   61.4309   30.5131   47.8000 H   0  0  0  0  0  0  0  0  0  0  0  0
   59.7969   31.2586   47.9901 H   0  0  0  0  0  0  0  0  0  0  0  0
   59.9010   31.5240   45.4830 H   0  0  0  0  0  0  0  0  0  0  0  0
   61.1660   30.4020   45.5110 H   0  0  0  0  0  0  0  0  0  0  0  0
   60.7261   28.2558   47.0734 H   0  0  0  0  0  0  0  0  0  0  0  0
   59.0469   26.4074   47.2123 H   0  0  0  0  0  0  0  0  0  0  0  0
  1  2  1  0
  2  3  1  0
  3  4  1  0
  4  5  1  0
  3  6  1  0
  6  7  1  0
  7  8  1  0
  8  9  1  0
  9 10  1  0
 10 11  2  0
 11 12  1  0
 12 13  2  0
 13 14  1  0
 14 15  2  0
 14 16  1  0
 13 17  1  0
 17 18  2  0
 18 19  1  0
 19 20  1  0
 20 21  2  0
 21 10  1  0
 21 17  1  0
  1 22  1  0
  1 23  1  0
  1 24  1  0
  2 25  1  0
  2 26  1  0
  4 27  1  0
  4 28  1  0
  5 29  1  0
  5 30  1  0
  5 31  1  0
  6 32  1  0
  6 33  1  0
  7 34  1  0
  7 35  1  0
  8 36  1  0
  8 37  1  0
  9 38  1  0
  9 39  1  0
 11 40  1  0
 12 41  1  0
M  CHG  3   9   1  14   1  16  -1
M  END
>  <UniqueID>  (42) 
40

>  <SMILES>  (42) 
CCN(CC)CCC[NH2+]c1ccc([N+](=O)[O-])c2nonc12

>  <Energy>  (42) 
80.7387167902824

>  <Genealogy>  (42) 
CCN(CC)CCC[NH2+]c1ccc([N+](=O)[O-])c2nonc12 (protonated)
CCN(CC)CCC[NH2+]c1ccc([N+](=O)[O-])c2nonc12 (3D coordinates assigned)
CCN(CC)CCC[NH2+]c1ccc([N+](=O)[O-])c2nonc12 (optimized conformer: 80.7387167902824 kcal/mol)

>  <smiles>  (42) 
CCN(CC)CCCNc1ccc([N+](=O)[O-])c2nonc12

>  <score_type>  (42) 
oracle

>  <origin>  (42) 
adg

>  <m_score__min__energy>  (42) 
-5.9800000000000004

>  <m_primary>  (42) 
energy

$$$$
42:0
     RDKit          3D

 39 40  0  0  0  0  0  0  0  0999 V2000
   57.7910   28.5160   44.1220 C   0  0  0  0  0  0  0  0  0  0  0  0
   57.6580   29.5970   45.1890 C   0  0  0  0  0  0  0  0  0  0  0  0
   56.6180   30.4940   44.8500 O   0  0  0  0  0  0  0  0  0  0  0  0
   57.0100   31.3230   43.7740 C   0  0  0  0  0  0  0  0  0  0  0  0
   58.1710   32.2080   44.2230 C   0  0  0  0  0  0  0  0  0  0  0  0
   57.6760   33.3360   45.0450 N   0  0  0  0  0  0  0  0  0  0  0  0
   57.5110   32.9570   46.4640 C   0  0  0  0  0  0  0  0  0  0  0  0
   58.8680   32.7120   47.1370 C   0  0  0  0  0  0  0  0  0  0  0  0
   59.8250   33.7580   46.7680 N   0  0  0  0  0  0  0  0  0  0  0  0
   61.1590   33.7150   47.2970 C   0  0  0  0  0  0  0  0  0  0  0  0
   62.2440   33.5260   46.4280 C   0  0  0  0  0  0  0  0  0  0  0  0
   63.5470   33.4730   46.9270 C   0  0  0  0  0  0  0  0  0  0  0  0
   63.7770   33.6100   48.2960 C   0  0  0  0  0  0  0  0  0  0  0  0
   62.7060   33.8030   49.1760 C   0  0  0  0  0  0  0  0  0  0  0  0
   63.0440   33.9780   50.8940 Cl  0  0  0  0  0  0  0  0  0  0  0  0
   61.3900   33.8570   48.6810 C   0  0  0  0  0  0  0  0  0  0  0  0
   60.0410   34.1330   49.7800 Cl  0  0  0  0  0  0  0  0  0  0  0  0
   59.3560   34.9570   46.0700 C   0  0  0  0  0  0  0  0  0  0  0  0
   58.4780   34.5770   44.8600 C   0  0  0  0  0  0  0  0  0  0  0  0
   57.9116   27.5357   44.6062 H   0  0  0  0  0  0  0  0  0  0  0  0
   56.8872   28.5065   43.4950 H   0  0  0  0  0  0  0  0  0  0  0  0
   58.6701   28.7259   43.4950 H   0  0  0  0  0  0  0  0  0  0  0  0
   57.4304   29.1261   46.1567 H   0  0  0  0  0  0  0  0  0  0  0  0
   58.6043   30.1538   45.2551 H   0  0  0  0  0  0  0  0  0  0  0  0
   57.3286   30.6995   42.9256 H   0  0  0  0  0  0  0  0  0  0  0  0
   56.1630   31.9521   43.4628 H   0  0  0  0  0  0  0  0  0  0  0  0
   58.8745   31.6076   44.8185 H   0  0  0  0  0  0  0  0  0  0  0  0
   58.6757   32.6114   43.3327 H   0  0  0  0  0  0  0  0  0  0  0  0
   56.9898   33.7683   46.9933 H   0  0  0  0  0  0  0  0  0  0  0  0
   56.9279   32.0254   46.5090 H   0  0  0  0  0  0  0  0  0  0  0  0
   58.7350   32.7131   48.2289 H   0  0  0  0  0  0  0  0  0  0  0  0
   59.2591   31.7402   46.8013 H   0  0  0  0  0  0  0  0  0  0  0  0
   62.0673   33.4190   45.3476 H   0  0  0  0  0  0  0  0  0  0  0  0
   64.3929   33.3231   46.2400 H   0  0  0  0  0  0  0  0  0  0  0  0
   64.8047   33.5661   48.6856 H   0  0  0  0  0  0  0  0  0  0  0  0
   58.7655   35.5716   46.7654 H   0  0  0  0  0  0  0  0  0  0  0  0
   60.2295   35.5199   45.7094 H   0  0  0  0  0  0  0  0  0  0  0  0
   57.7847   35.4082   44.6640 H   0  0  0  0  0  0  0  0  0  0  0  0
   59.1651   34.3838   44.0230 H   0  0  0  0  0  0  0  0  0  0  0  0
  1  2  1  0
  2  3  1  0
  3  4  1  0
  4  5  1  0
  5  6  1  0
  6  7  1  0
  7  8  1  0
  8  9  1  0
  9 10  1  0
 10 11  2  0
 11 12  1  0
 12 13  2  0
 13 14  1  0
 14 15  1  0
 14 16  2  0
 16 17  1  0
  9 18  1  0
 18 19  1  0
 19  6  1  0
 16 10  1  0
  1 20  1  0
  1 21  1  0
  1 22  1  0
  2 23  1  0
  2 24  1  0
  4 25  1  0
  4 26  1  0
  5 27  1  0
  5 28  1  0
  7 29  1  0
  7 30  1  0
  8 31  1  0
  8 32  1  0
 11 33  1  0
 12 34  1  0
 13 35  1  0
 18 36  1  0
 18 37  1  0
 19 38  1  0
 19 39  1  0
M  END
>  <UniqueID>  (43) 
41

>  <SMILES>  (43) 
CCOCCN1CCN(c2cccc(Cl)c2Cl)CC1

>  <Energy>  (43) 
50.1379480419652

>  <Genealogy>  (43) 
CCOCCN1CCN(c2cccc(Cl)c2Cl)CC1 (3D coordinates assigned)
CCOCCN1CCN(c2cccc(Cl)c2Cl)CC1 (nonaromatic ring conformer: 50.1379480419652 kcal/mol)

>  <smiles>  (43) 
CCOCCN1CCN(c2cccc(Cl)c2Cl)CC1

>  <score_type>  (43) 
oracle

>  <origin>  (43) 
adg

>  <m_score__min__energy>  (43) 
-7.2699999999999996

>  <m_primary>  (43) 
energy

$$$$
43:0
     RDKit          3D

 48 50  0  0  0  0  0  0  0  0999 V2000
   55.1410   29.3820   44.8060 O   0  0  0  0  0  0  0  0  0  0  0  0
   56.3760   29.2840   45.0400 C   0  0  0  0  0  0  0  0  0  0  0  0
   57.0350   27.9410   44.9940 C   0  0  0  0  0  0  0  0  0  0  0  0
   58.1230   27.8780   45.9150 O   0  0  0  0  0  0  0  0  0  0  0  0
   59.4330   27.5610   45.5380 C   0  0  0  0  0  0  0  0  0  0  0  0
   59.9010   27.9560   44.4350 O   0  0  0  0  0  0  0  0  0  0  0  0
   60.2670   26.7070   46.4360 C   0  0  0  0  0  0  0  0  0  0  0  0
   59.8660   26.9210   47.9020 C   0  0  0  0  0  0  0  0  0  0  0  0
   60.3840   28.2660   48.4780 C   0  0  0  0  0  0  0  0  0  0  0  0
   59.7520   29.4830   47.9150 N   0  0  0  0  0  0  0  0  0  0  0  0
   60.6620   30.2590   47.1070 C   0  0  0  0  0  0  0  0  0  0  0  0
   61.1790   29.8350   46.0410 O   0  0  0  0  0  0  0  0  0  0  0  0
   60.8680   31.5970   47.6440 C   0  0  0  0  0  0  0  0  0  0  0  0
   61.6790   32.6420   47.2100 C   0  0  0  0  0  0  0  0  0  0  0  0
   61.6730   33.8350   47.9540 C   0  0  0  0  0  0  0  0  0  0  0  0
   60.8590   33.9550   49.1020 C   0  0  0  0  0  0  0  0  0  0  0  0
   60.0520   32.8810   49.5160 C   0  0  0  0  0  0  0  0  0  0  0  0
   60.0860   31.7090   48.7610 C   0  0  0  0  0  0  0  0  0  0  0  0
   59.3820   30.4450   48.9220 C   0  0  0  0  0  0  0  0  0  0  0  0
   58.5020   30.2290   49.7980 O   0  0  0  0  0  0  0  0  0  0  0  0
   57.1380   30.4410   45.3890 N   0  0  0  0  0  0  0  0  0  0  0  0
   57.5710   31.4310   44.4130 C   0  0  0  0  0  0  0  0  0  0  0  0
   58.0740   32.6510   45.1290 C   0  0  0  0  0  0  0  0  0  0  0  0
   58.8120   33.6280   44.4380 C   0  0  0  0  0  0  0  0  0  0  0  0
   59.2490   34.7800   45.1000 C   0  0  0  0  0  0  0  0  0  0  0  0
   58.9400   34.9730   46.4500 C   0  0  0  0  0  0  0  0  0  0  0  0
   58.1910   34.0130   47.1390 C   0  0  0  0  0  0  0  0  0  0  0  0
   57.7540   32.8580   46.4820 C   0  0  0  0  0  0  0  0  0  0  0  0
   56.2969   27.1681   45.2545 H   0  0  0  0  0  0  0  0  0  0  0  0
   57.4230   27.7735   43.9784 H   0  0  0  0  0  0  0  0  0  0  0  0
   60.1194   25.6498   46.1705 H   0  0  0  0  0  0  0  0  0  0  0  0
   61.3242   26.9841   46.3112 H   0  0  0  0  0  0  0  0  0  0  0  0
   58.7683   26.9087   47.9713 H   0  0  0  0  0  0  0  0  0  0  0  0
   60.3216   26.1115   48.4911 H   0  0  0  0  0  0  0  0  0  0  0  0
   60.2055   28.2618   49.5634 H   0  0  0  0  0  0  0  0  0  0  0  0
   61.4483   28.3230   48.2059 H   0  0  0  0  0  0  0  0  0  0  0  0
   58.9090   29.2320   47.3460 H   0  0  0  0  0  0  0  0  0  0  0  0
   62.3057   32.5375   46.3120 H   0  0  0  0  0  0  0  0  0  0  0  0
   62.3052   34.6788   47.6405 H   0  0  0  0  0  0  0  0  0  0  0  0
   60.8565   34.8939   49.6752 H   0  0  0  0  0  0  0  0  0  0  0  0
   59.4134   32.9625   50.4079 H   0  0  0  0  0  0  0  0  0  0  0  0
   58.3778   31.0092   43.7956 H   0  0  0  0  0  0  0  0  0  0  0  0
   56.7231   31.7068   43.7687 H   0  0  0  0  0  0  0  0  0  0  0  0
   59.0466   33.4859   43.3727 H   0  0  0  0  0  0  0  0  0  0  0  0
   59.8367   35.5354   44.5578 H   0  0  0  0  0  0  0  0  0  0  0  0
   59.2855   35.8788   46.9698 H   0  0  0  0  0  0  0  0  0  0  0  0
   57.9451   34.1669   48.2001 H   0  0  0  0  0  0  0  0  0  0  0  0
   57.1584   32.1098   47.0255 H   0  0  0  0  0  0  0  0  0  0  0  0
  1  2  2  0
  2  3  1  0
  3  4  1  0
  4  5  1  0
  5  6  2  0
  5  7  1  0
  7  8  1  0
  8  9  1  0
  9 10  1  0
 10 11  1  0
 11 12  2  0
 11 13  1  0
 13 14  2  0
 14 15  1  0
 15 16  2  0
 16 17  1  0
 17 18  2  0
 18 19  1  0
 19 20  2  0
  2 21  1  0
 21 22  1  0
 22 23  1  0
 23 24  2  0
 24 25  1  0
 25 26  2  0
 26 27  1  0
 27 28  2  0
 19 10  1  0
 28 23  1  0
 18 13  1  0
  3 29  1  0
  3 30  1  0
  7 31  1  0
  7 32  1  0
  8 33  1  0
  8 34  1  0
  9 35  1  0
  9 36  1  0
 10 37  1  0
 14 38  1  0
 15 39  1  0
 16 40  1  0
 17 41  1  0
 22 42  1  0
 22 43  1  0
 24 44  1  0
 25 45  1  0
 26 46  1  0
 27 47  1  0
 28 48  1  0
M  CHG  2  10   1  21  -1
M  END
>  <UniqueID>  (44) 
42

>  <SMILES>  (44) 
O=C(COC(=O)CCC[NH+]1C(=O)c2ccccc2C1=O)[N-]Cc1ccccc1

>  <Energy>  (44) 
69.53636066514717

>  <Genealogy>  (44) 
O=C(COC(=O)CCC[NH+]1C(=O)c2ccccc2C1=O)[N-]Cc1ccccc1 (protonated)
O=C(COC(=O)CCC[NH+]1C(=O)c2ccccc2C1=O)[N-]Cc1ccccc1 (3D coordinates assigned)
O=C(COC(=O)CCC[NH+]1C(=O)c2ccccc2C1=O)[N-]Cc1ccccc1 (nonaromatic ring conformer: 69.53636066514717 kcal/mol)

>  <smiles>  (44) 
O=C(COC(=O)CCCN1C(=O)c2ccccc2C1=O)NCc1ccccc1

>  <score_type>  (44) 
oracle

>  <origin>  (44) 
adg

>  <m_score__min__energy>  (44) 
-8.6799999999999997

>  <m_primary>  (44) 
energy

$$$$
44:0
     RDKit          3D

 36 38  0  0  0  0  0  0  0  0999 V2000
   65.2890   33.1100   50.1110 C   0  0  0  0  0  0  0  0  0  0  0  0
   63.8480   32.6640   49.9060 C   0  0  0  0  0  0  0  0  0  0  0  0
   63.3700   33.0840   48.5890 N   0  0  0  0  0  0  0  0  0  0  0  0
   64.1180   33.0980   47.4900 N   0  0  0  0  0  0  0  0  0  0  0  0
   63.3580   33.4730   46.4350 C   0  0  0  0  0  0  0  0  0  0  0  0
   62.0770   33.6910   46.9000 C   0  0  0  0  0  0  0  0  0  0  0  0
   60.9070   34.0680   46.2490 C   0  0  0  0  0  0  0  0  0  0  0  0
   59.7260   34.1820   47.0170 C   0  0  0  0  0  0  0  0  0  0  0  0
   58.5030   34.5660   46.3590 N   0  0  0  0  0  0  0  0  0  0  0  0
   58.2800   34.4930   44.9150 C   0  0  0  0  0  0  0  0  0  0  0  0
   57.8290   33.1120   44.5160 C   0  0  0  0  0  0  0  0  0  0  0  0
   57.8500   32.7080   43.1730 C   0  0  0  0  0  0  0  0  0  0  0  0
   57.4350   31.4210   42.8240 C   0  0  0  0  0  0  0  0  0  0  0  0
   57.0080   30.5460   43.8240 C   0  0  0  0  0  0  0  0  0  0  0  0
   57.0040   30.9460   45.1240 N   0  0  0  0  0  0  0  0  0  0  0  0
   57.4030   32.1940   45.4880 C   0  0  0  0  0  0  0  0  0  0  0  0
   59.7730   33.9180   48.4160 C   0  0  0  0  0  0  0  0  0  0  0  0
   60.9760   33.5360   49.0390 C   0  0  0  0  0  0  0  0  0  0  0  0
   62.1150   33.4360   48.2430 C   0  0  0  0  0  0  0  0  0  0  0  0
   65.5027   33.1761   51.1880 H   0  0  0  0  0  0  0  0  0  0  0  0
   65.9683   32.3801   49.6466 H   0  0  0  0  0  0  0  0  0  0  0  0
   65.4372   34.0961   49.6466 H   0  0  0  0  0  0  0  0  0  0  0  0
   63.7933   31.5678   49.9795 H   0  0  0  0  0  0  0  0  0  0  0  0
   63.2168   33.1251   50.6799 H   0  0  0  0  0  0  0  0  0  0  0  0
   65.1310   32.8450   47.4550 H   0  0  0  0  0  0  0  0  0  0  0  0
   63.6994   33.5840   45.3952 H   0  0  0  0  0  0  0  0  0  0  0  0
   60.9011   34.2715   45.1680 H   0  0  0  0  0  0  0  0  0  0  0  0
   57.7310   34.9670   46.9400 H   0  0  0  0  0  0  0  0  0  0  0  0
   57.5062   35.2217   44.6316 H   0  0  0  0  0  0  0  0  0  0  0  0
   59.2245   34.7199   44.3989 H   0  0  0  0  0  0  0  0  0  0  0  0
   58.1934   33.4050   42.3944 H   0  0  0  0  0  0  0  0  0  0  0  0
   57.4446   31.1002   41.7719 H   0  0  0  0  0  0  0  0  0  0  0  0
   56.6743   29.5315   43.5604 H   0  0  0  0  0  0  0  0  0  0  0  0
   57.3918   32.4851   46.5487 H   0  0  0  0  0  0  0  0  0  0  0  0
   58.8570   34.0139   49.0175 H   0  0  0  0  0  0  0  0  0  0  0  0
   61.0155   33.3237   50.1176 H   0  0  0  0  0  0  0  0  0  0  0  0
  1  2  1  0
  2  3  1  0
  3  4  1  0
  4  5  2  0
  5  6  1  0
  6  7  2  0
  7  8  1  0
  8  9  1  0
  9 10  1  0
 10 11  1  0
 11 12  2  0
 12 13  1  0
 13 14  2  0
 14 15  1  0
 15 16  2  0
  8 17  2  0
 17 18  1  0
 18 19  2  0
 19  3  1  0
 19  6  1  0
 16 11  1  0
  1 20  1  0
  1 21  1  0
  1 22  1  0
  2 23  1  0
  2 24  1  0
  4 25  1  0
  5 26  1  0
  7 27  1  0
  9 28  1  0
 10 29  1  0
 10 30  1  0
 12 31  1  0
 13 32  1  0
 14 33  1  0
 16 34  1  0
 17 35  1  0
 18 36  1  0
M  CHG  1   4   1
M  END
>  <UniqueID>  (45) 
43

>  <SMILES>  (45) 
CCn1[nH+]cc2cc(NCc3cccnc3)ccc21

>  <Energy>  (45) 
73.80228145331198

>  <Genealogy>  (45) 
CCn1[nH+]cc2cc(NCc3cccnc3)ccc21 (protonated)
CCn1[nH+]cc2cc(NCc3cccnc3)ccc21 (3D coordinates assigned)
CCn1[nH+]cc2cc(NCc3cccnc3)ccc21 (optimized conformer: 73.80228145331198 kcal/mol)

>  <smiles>  (45) 
CCn1ncc2cc(NCc3cccnc3)ccc21

>  <score_type>  (45) 
oracle

>  <origin>  (45) 
adg

>  <m_score__min__energy>  (45) 
-6.3499999999999996

>  <m_primary>  (45) 
energy

$$$$
45:0
     RDKit          3D

 33 34  0  0  0  0  0  0  0  0999 V2000
   63.1470   32.7080   47.1660 C   0  0  0  0  0  0  0  0  0  0  0  0
   62.5910   31.9540   48.3700 C   0  0  0  0  0  0  0  0  0  0  0  0
   61.2680   31.5190   48.1240 O   0  0  0  0  0  0  0  0  0  0  0  0
   61.1950   30.7220   46.9560 C   0  0  0  0  0  0  0  0  0  0  0  0
   59.8850   30.8870   46.2890 N   0  0  0  0  0  0  0  0  0  0  0  0
   59.2450   29.7250   45.9530 C   0  0  0  0  0  0  0  0  0  0  0  0
   57.9800   29.7180   45.3540 C   0  0  0  0  0  0  0  0  0  0  0  0
   57.3430   28.4090   45.0360 C   0  0  0  0  0  0  0  0  0  0  0  0
   58.1180   27.2510   44.4820 C   0  0  0  0  0  0  0  0  0  0  0  0
   56.1070   28.2580   45.2370 O   0  0  0  0  0  0  0  0  0  0  0  0
   57.3670   30.9490   45.0670 C   0  0  0  0  0  0  0  0  0  0  0  0
   56.2440   30.9800   44.4930 O   0  0  0  0  0  0  0  0  0  0  0  0
   58.0170   32.1510   45.3970 C   0  0  0  0  0  0  0  0  0  0  0  0
   57.4080   33.3910   45.1160 C   0  0  0  0  0  0  0  0  0  0  0  0
   58.0550   34.5840   45.4230 C   0  0  0  0  0  0  0  0  0  0  0  0
   59.3170   34.5620   46.0040 C   0  0  0  0  0  0  0  0  0  0  0  0
   59.9400   33.3470   46.2930 C   0  0  0  0  0  0  0  0  0  0  0  0
   59.3030   32.1110   46.0090 C   0  0  0  0  0  0  0  0  0  0  0  0
   63.7664   33.5480   47.5135 H   0  0  0  0  0  0  0  0  0  0  0  0
   63.7606   32.0268   46.5582 H   0  0  0  0  0  0  0  0  0  0  0  0
   62.3149   33.0929   46.5582 H   0  0  0  0  0  0  0  0  0  0  0  0
   63.2264   31.0791   48.5723 H   0  0  0  0  0  0  0  0  0  0  0  0
   62.5837   32.6311   49.2369 H   0  0  0  0  0  0  0  0  0  0  0  0
   61.9935   31.0244   46.2625 H   0  0  0  0  0  0  0  0  0  0  0  0
   61.3152   29.6664   47.2411 H   0  0  0  0  0  0  0  0  0  0  0  0
   59.7409   28.7653   46.1604 H   0  0  0  0  0  0  0  0  0  0  0  0
   58.5206   26.6494   45.3102 H   0  0  0  0  0  0  0  0  0  0  0  0
   57.4545   26.6275   43.8647 H   0  0  0  0  0  0  0  0  0  0  0  0
   58.9474   27.6266   43.8647 H   0  0  0  0  0  0  0  0  0  0  0  0
   56.4120   33.4156   44.6497 H   0  0  0  0  0  0  0  0  0  0  0  0
   57.5669   35.5455   45.2055 H   0  0  0  0  0  0  0  0  0  0  0  0
   59.8280   35.5077   46.2375 H   0  0  0  0  0  0  0  0  0  0  0  0
   60.9413   33.3474   46.7484 H   0  0  0  0  0  0  0  0  0  0  0  0
  1  2  1  0
  2  3  1  0
  3  4  1  0
  4  5  1  0
  5  6  1  0
  6  7  2  0
  7  8  1  0
  8  9  1  0
  8 10  2  0
  7 11  1  0
 11 12  2  0
 11 13  1  0
 13 14  2  0
 14 15  1  0
 15 16  2  0
 16 17  1  0
 17 18  2  0
 18  5  1  0
 18 13  1  0
  1 19  1  0
  1 20  1  0
  1 21  1  0
  2 22  1  0
  2 23  1  0
  4 24  1  0
  4 25  1  0
  6 26  1  0
  9 27  1  0
  9 28  1  0
  9 29  1  0
 14 30  1  0
 15 31  1  0
 16 32  1  0
 17 33  1  0
M  END
>  <UniqueID>  (46) 
44

>  <SMILES>  (46) 
CCOCn1cc(C(C)=O)c(=O)c2ccccc21

>  <Energy>  (46) 
49.21167476779302

>  <Genealogy>  (46) 
CCOCn1cc(C(C)=O)c(=O)c2ccccc21 (3D coordinates assigned)
CCOCn1cc(C(C)=O)c(=O)c2ccccc21 (optimized conformer: 49.21167476779302 kcal/mol)

>  <smiles>  (46) 
CCOCn1cc(C(C)=O)c(=O)c2ccccc21

>  <score_type>  (46) 
oracle

>  <origin>  (46) 
adg

>  <m_score__min__energy>  (46) 
-6.6100000000000003

>  <m_primary>  (46) 
energy

$$$$
46:0
     RDKit          3D

 39 42  0  0  0  0  0  0  0  0999 V2000
   58.1430   26.3240   43.7240 C   0  0  0  0  0  0  0  0  0  0  0  0
   57.4990   27.4930   43.1330 N   0  0  0  0  0  0  0  0  0  0  0  0
   57.4970   28.7950   43.7470 C   0  0  0  0  0  0  0  0  0  0  0  0
   56.4200   29.6910   43.5780 C   0  0  0  0  0  0  0  0  0  0  0  0
   56.4430   30.9520   44.1850 C   0  0  0  0  0  0  0  0  0  0  0  0
   57.5390   31.3310   44.9640 C   0  0  0  0  0  0  0  0  0  0  0  0
   57.5730   32.5500   45.5630 N   0  0  0  0  0  0  0  0  0  0  0  0
   58.6390   32.9360   46.3150 C   0  0  0  0  0  0  0  0  0  0  0  0
   59.7140   32.0470   46.5000 C   0  0  0  0  0  0  0  0  0  0  0  0
   59.6750   30.8240   45.9040 N   0  0  0  0  0  0  0  0  0  0  0  0
   58.6180   30.4440   45.1400 C   0  0  0  0  0  0  0  0  0  0  0  0
   58.5940   29.1850   44.5330 C   0  0  0  0  0  0  0  0  0  0  0  0
   60.8760   32.4590   47.3220 C   0  0  0  0  0  0  0  0  0  0  0  0
   61.8400   31.5270   47.7360 C   0  0  0  0  0  0  0  0  0  0  0  0
   62.9230   31.9330   48.5200 C   0  0  0  0  0  0  0  0  0  0  0  0
   63.0650   33.2820   48.8950 C   0  0  0  0  0  0  0  0  0  0  0  0
   64.1380   33.7380   49.6740 O   0  0  0  0  0  0  0  0  0  0  0  0
   65.3010   32.9690   49.9690 C   0  0  0  0  0  0  0  0  0  0  0  0
   62.1060   34.2120   48.4770 C   0  0  0  0  0  0  0  0  0  0  0  0
   61.0050   33.8100   47.7060 C   0  0  0  0  0  0  0  0  0  0  0  0
   60.0260   34.8400   47.1890 C   0  0  0  0  0  0  0  0  0  0  0  0
   58.6140   34.2570   47.0350 C   0  0  0  0  0  0  0  0  0  0  0  0
   58.1022   26.3981   44.8207 H   0  0  0  0  0  0  0  0  0  0  0  0
   57.6194   25.4131   43.3983 H   0  0  0  0  0  0  0  0  0  0  0  0
   59.1928   26.2798   43.3983 H   0  0  0  0  0  0  0  0  0  0  0  0
   57.0160   27.3660   42.2150 H   0  0  0  0  0  0  0  0  0  0  0  0
   55.5558   29.3962   42.9646 H   0  0  0  0  0  0  0  0  0  0  0  0
   55.5988   31.6440   44.0488 H   0  0  0  0  0  0  0  0  0  0  0  0
   59.4396   28.4952   44.6717 H   0  0  0  0  0  0  0  0  0  0  0  0
   61.7426   30.4715   47.4418 H   0  0  0  0  0  0  0  0  0  0  0  0
   63.6693   31.1936   48.8461 H   0  0  0  0  0  0  0  0  0  0  0  0
   65.4212   32.8896   51.0595 H   0  0  0  0  0  0  0  0  0  0  0  0
   65.1944   31.9628   49.5376 H   0  0  0  0  0  0  0  0  0  0  0  0
   66.1851   33.4611   49.5376 H   0  0  0  0  0  0  0  0  0  0  0  0
   62.2169   35.2702   48.7562 H   0  0  0  0  0  0  0  0  0  0  0  0
   59.9885   35.6820   47.8958 H   0  0  0  0  0  0  0  0  0  0  0  0
   60.3694   35.1711   46.1978 H   0  0  0  0  0  0  0  0  0  0  0  0
   58.1763   34.1117   48.0336 H   0  0  0  0  0  0  0  0  0  0  0  0
   58.0120   34.9618   46.4427 H   0  0  0  0  0  0  0  0  0  0  0  0
  1  2  1  0
  2  3  1  0
  3  4  2  0
  4  5  1  0
  5  6  2  0
  6  7  1  0
  7  8  2  0
  8  9  1  0
  9 10  2  0
 10 11  1  0
 11 12  2  0
  9 13  1  0
 13 14  2  0
 14 15  1  0
 15 16  2  0
 16 17  1  0
 17 18  1  0
 16 19  1  0
 19 20  2  0
 20 21  1  0
 21 22  1  0
 12  3  1  0
 20 13  1  0
 11  6  1  0
 22  8  1  0
  1 23  1  0
  1 24  1  0
  1 25  1  0
  2 26  1  0
  4 27  1  0
  5 28  1  0
 12 29  1  0
 14 30  1  0
 15 31  1  0
 18 32  1  0
 18 33  1  0
 18 34  1  0
 19 35  1  0
 21 36  1  0
 21 37  1  0
 22 38  1  0
 22 39  1  0
M  END
>  <UniqueID>  (47) 
45

>  <SMILES>  (47) 
CNc1ccc2nc3c(nc2c1)-c1ccc(OC)cc1CC3

>  <Energy>  (47) 
47.62502968628576

>  <Genealogy>  (47) 
CNc1ccc2nc3c(nc2c1)-c1ccc(OC)cc1CC3 (3D coordinates assigned)
CNc1ccc2nc3c(nc2c1)-c1ccc(OC)cc1CC3 (nonaromatic ring conformer: 47.62502968628576 kcal/mol)

>  <smiles>  (47) 
CNc1ccc2nc3c(nc2c1)-c1ccc(OC)cc1CC3

>  <score_type>  (47) 
oracle

>  <origin>  (47) 
adg

>  <m_score__min__energy>  (47) 
-7.1100000000000003

>  <m_primary>  (47) 
energy

$$$$
47:0
     RDKit          3D

 38 39  0  0  0  0  0  0  0  0999 V2000
   60.5140   30.2240   46.8920 C   0  0  0  0  0  0  0  0  0  0  0  0
   59.4370   31.0150   46.4000 O   0  0  0  0  0  0  0  0  0  0  0  0
   58.5460   30.6140   45.3920 C   0  0  0  0  0  0  0  0  0  0  0  0
   58.2850   29.2530   45.1350 C   0  0  0  0  0  0  0  0  0  0  0  0
   57.3990   28.8800   44.1210 C   0  0  0  0  0  0  0  0  0  0  0  0
   56.7660   29.8550   43.3510 C   0  0  0  0  0  0  0  0  0  0  0  0
   57.0140   31.2070   43.5940 C   0  0  0  0  0  0  0  0  0  0  0  0
   57.8980   31.5990   44.6130 C   0  0  0  0  0  0  0  0  0  0  0  0
   58.1300   33.0760   44.8610 C   0  0  0  0  0  0  0  0  0  0  0  0
   58.0530   33.4250   46.2900 N   0  0  0  0  0  0  0  0  0  0  0  0
   58.9080   34.5650   46.6550 C   0  0  0  0  0  0  0  0  0  0  0  0
   60.2500   34.1080   47.1570 C   0  0  0  0  0  0  0  0  0  0  0  0
   61.3700   33.9010   46.3710 C   0  0  0  0  0  0  0  0  0  0  0  0
   62.3420   33.4880   47.2640 C   0  0  0  0  0  0  0  0  0  0  0  0
   63.7350   33.0780   46.9150 C   0  0  0  0  0  0  0  0  0  0  0  0
   61.8170   33.4220   48.5010 N   0  0  0  0  0  0  0  0  0  0  0  0
   60.5470   33.7900   48.4370 N   0  0  0  0  0  0  0  0  0  0  0  0
   59.6620   33.8760   49.5950 C   0  0  0  0  0  0  0  0  0  0  0  0
   60.5025   30.2324   47.9919 H   0  0  0  0  0  0  0  0  0  0  0  0
   60.4041   29.1904   46.5321 H   0  0  0  0  0  0  0  0  0  0  0  0
   61.4674   30.6381   46.5321 H   0  0  0  0  0  0  0  0  0  0  0  0
   58.7826   28.4786   45.7373 H   0  0  0  0  0  0  0  0  0  0  0  0
   57.2005   27.8151   43.9298 H   0  0  0  0  0  0  0  0  0  0  0  0
   56.0709   29.5586   42.5517 H   0  0  0  0  0  0  0  0  0  0  0  0
   56.5130   31.9719   42.9825 H   0  0  0  0  0  0  0  0  0  0  0  0
   59.1283   33.3446   44.4852 H   0  0  0  0  0  0  0  0  0  0  0  0
   57.3386   33.6321   44.3371 H   0  0  0  0  0  0  0  0  0  0  0  0
   58.3400   32.5990   46.8650 H   0  0  0  0  0  0  0  0  0  0  0  0
   59.0550   35.1999   45.7688 H   0  0  0  0  0  0  0  0  0  0  0  0
   58.4107   35.1260   47.4600 H   0  0  0  0  0  0  0  0  0  0  0  0
   61.4655   34.0346   45.2833 H   0  0  0  0  0  0  0  0  0  0  0  0
   64.3095   32.9089   47.8377 H   0  0  0  0  0  0  0  0  0  0  0  0
   63.7072   32.1500   46.3251 H   0  0  0  0  0  0  0  0  0  0  0  0
   64.2144   33.8732   46.3251 H   0  0  0  0  0  0  0  0  0  0  0  0
   62.3130   33.1260   49.3720 H   0  0  0  0  0  0  0  0  0  0  0  0
   60.2585   33.8180   50.5174 H   0  0  0  0  0  0  0  0  0  0  0  0
   59.1172   34.8313   49.5700 H   0  0  0  0  0  0  0  0  0  0  0  0
   58.9435   33.0434   49.5700 H   0  0  0  0  0  0  0  0  0  0  0  0
  1  2  1  0
  2  3  1  0
  3  4  2  0
  4  5  1  0
  5  6  2  0
  6  7  1  0
  7  8  2  0
  8  9  1  0
  9 10  1  0
 10 11  1  0
 11 12  1  0
 12 13  2  0
 13 14  1  0
 14 15  1  0
 14 16  2  0
 16 17  1  0
 17 18  1  0
  8  3  1  0
 17 12  1  0
  1 19  1  0
  1 20  1  0
  1 21  1  0
  4 22  1  0
  5 23  1  0
  6 24  1  0
  7 25  1  0
  9 26  1  0
  9 27  1  0
 10 28  1  0
 11 29  1  0
 11 30  1  0
 13 31  1  0
 15 32  1  0
 15 33  1  0
 15 34  1  0
 16 35  1  0
 18 36  1  0
 18 37  1  0
 18 38  1  0
M  CHG  1  16   1
M  END
>  <UniqueID>  (48) 
46

>  <SMILES>  (48) 
COc1ccccc1CNCc1cc(C)[nH+]n1C

>  <Energy>  (48) 
64.64701908078922

>  <Genealogy>  (48) 
COc1ccccc1CNCc1cc(C)[nH+]n1C (protonated)
COc1ccccc1CNCc1cc(C)[nH+]n1C (3D coordinates assigned)
COc1ccccc1CNCc1cc(C)[nH+]n1C (optimized conformer: 64.64701908078922 kcal/mol)

>  <smiles>  (48) 
COc1ccccc1CNCc1cc(C)nn1C

>  <score_type>  (48) 
oracle

>  <origin>  (48) 
adg

>  <m_score__min__energy>  (48) 
-4.8499999999999996

>  <m_primary>  (48) 
energy

$$$$
48:0
     RDKit          3D

 44 46  0  0  0  0  0  0  0  0999 V2000
   59.4850   29.0950   49.7420 C   0  0  0  0  0  0  0  0  0  0  0  0
   58.6760   29.3750   48.6040 O   0  0  0  0  0  0  0  0  0  0  0  0
   59.0780   29.1680   47.2760 C   0  0  0  0  0  0  0  0  0  0  0  0
   60.3750   29.5440   46.9090 C   0  0  0  0  0  0  0  0  0  0  0  0
   60.8220   29.3600   45.5990 C   0  0  0  0  0  0  0  0  0  0  0  0
   59.9750   28.8020   44.6400 C   0  0  0  0  0  0  0  0  0  0  0  0
   58.6700   28.4190   44.9870 C   0  0  0  0  0  0  0  0  0  0  0  0
   57.7690   27.7670   43.9740 C   0  0  0  0  0  0  0  0  0  0  0  0
   57.0290   28.8000   43.2360 N   0  0  0  0  0  0  0  0  0  0  0  0
   56.3130   29.7150   44.1370 C   0  0  0  0  0  0  0  0  0  0  0  0
   56.8950   31.1240   44.0290 C   0  0  0  0  0  0  0  0  0  0  0  0
   57.3830   31.5620   45.2980 O   0  0  0  0  0  0  0  0  0  0  0  0
   58.1300   32.7290   45.5410 C   0  0  0  0  0  0  0  0  0  0  0  0
   58.3820   33.6770   44.5300 C   0  0  0  0  0  0  0  0  0  0  0  0
   59.1080   34.8360   44.8080 C   0  0  0  0  0  0  0  0  0  0  0  0
   59.5910   35.0740   46.0950 C   0  0  0  0  0  0  0  0  0  0  0  0
   59.3600   34.1420   47.1140 C   0  0  0  0  0  0  0  0  0  0  0  0
   59.8590   34.3550   48.4040 C   0  0  0  0  0  0  0  0  0  0  0  0
   59.6340   33.4060   49.4000 C   0  0  0  0  0  0  0  0  0  0  0  0
   58.9080   32.2530   49.0990 C   0  0  0  0  0  0  0  0  0  0  0  0
   58.4220   32.0530   47.8440 N   0  0  0  0  0  0  0  0  0  0  0  0
   58.6250   32.9620   46.8420 C   0  0  0  0  0  0  0  0  0  0  0  0
   58.2290   28.5940   46.3100 C   0  0  0  0  0  0  0  0  0  0  0  0
   58.9101   29.2940   50.6585 H   0  0  0  0  0  0  0  0  0  0  0  0
   59.7911   28.0386   49.7233 H   0  0  0  0  0  0  0  0  0  0  0  0
   60.3787   29.7361   49.7233 H   0  0  0  0  0  0  0  0  0  0  0  0
   61.0473   29.9878   47.6580 H   0  0  0  0  0  0  0  0  0  0  0  0
   61.8446   29.6557   45.3219 H   0  0  0  0  0  0  0  0  0  0  0  0
   60.3315   28.6620   43.6088 H   0  0  0  0  0  0  0  0  0  0  0  0
   58.3752   27.1777   43.2703 H   0  0  0  0  0  0  0  0  0  0  0  0
   57.0573   27.1057   44.4899 H   0  0  0  0  0  0  0  0  0  0  0  0
   56.3230   28.3300   42.6220 H   0  0  0  0  0  0  0  0  0  0  0  0
   55.2488   29.7391   43.8598 H   0  0  0  0  0  0  0  0  0  0  0  0
   56.4233   29.3592   45.1720 H   0  0  0  0  0  0  0  0  0  0  0  0
   57.7229   31.1192   43.3047 H   0  0  0  0  0  0  0  0  0  0  0  0
   56.1036   31.8114   43.6955 H   0  0  0  0  0  0  0  0  0  0  0  0
   58.0031   33.5022   43.5122 H   0  0  0  0  0  0  0  0  0  0  0  0
   59.3005   35.5659   44.0079 H   0  0  0  0  0  0  0  0  0  0  0  0
   60.1537   35.9945   46.3094 H   0  0  0  0  0  0  0  0  0  0  0  0
   60.4273   35.2689   48.6314 H   0  0  0  0  0  0  0  0  0  0  0  0
   60.0258   33.5649   50.4155 H   0  0  0  0  0  0  0  0  0  0  0  0
   58.7275   31.5010   49.8813 H   0  0  0  0  0  0  0  0  0  0  0  0
   57.8900   31.1710   47.6650 H   0  0  0  0  0  0  0  0  0  0  0  0
   57.2134   28.2804   46.5930 H   0  0  0  0  0  0  0  0  0  0  0  0
  1  2  1  0
  2  3  1  0
  3  4  2  0
  4  5  1  0
  5  6  2  0
  6  7  1  0
  7  8  1  0
  8  9  1  0
  9 10  1  0
 10 11  1  0
 11 12  1  0
 12 13  1  0
 13 14  2  0
 14 15  1  0
 15 16  2  0
 16 17  1  0
 17 18  2  0
 18 19  1  0
 19 20  2  0
 20 21  1  0
 21 22  2  0
  7 23  2  0
 23  3  1  0
 22 13  1  0
 22 17  1  0
  1 24  1  0
  1 25  1  0
  1 26  1  0
  4 27  1  0
  5 28  1  0
  6 29  1  0
  8 30  1  0
  8 31  1  0
  9 32  1  0
 10 33  1  0
 10 34  1  0
 11 35  1  0
 11 36  1  0
 14 37  1  0
 15 38  1  0
 16 39  1  0
 18 40  1  0
 19 41  1  0
 20 42  1  0
 21 43  1  0
 23 44  1  0
M  CHG  1  21   1
M  END
>  <UniqueID>  (49) 
47

>  <SMILES>  (49) 
COc1cccc(CNCCOc2cccc3ccc[nH+]c23)c1

>  <Energy>  (49) 
41.75341553926486

>  <Genealogy>  (49) 
COc1cccc(CNCCOc2cccc3ccc[nH+]c23)c1 (protonated)
COc1cccc(CNCCOc2cccc3ccc[nH+]c23)c1 (3D coordinates assigned)
COc1cccc(CNCCOc2cccc3ccc[nH+]c23)c1 (optimized conformer: 41.75341553926486 kcal/mol)

>  <smiles>  (49) 
COc1cccc(CNCCOc2cccc3cccnc23)c1

>  <score_type>  (49) 
oracle

>  <origin>  (49) 
adg

>  <m_score__min__energy>  (49) 
-5.8899999999999997

>  <m_primary>  (49) 
energy

$$$$
