0:0
     RDKit          3D

 46 48  0  0  0  0  0  0  0  0999 V2000
   59.2870   29.1600   48.9700 C   0  0  0  0  0  0  0  0  0  0  0  0
   60.6500   29.7850   48.6890 C   0  0  0  0  0  0  0  0  0  0  0  0
   60.4930   31.0710   47.9740 N   0  0  0  0  0  0  0  0  0  0  0  0
   61.4640   32.0940   48.4190 C   0  0  0  0  0  0  0  0  0  0  0  0
   62.4600   32.4110   47.3050 C   0  0  0  0  0  0  0  0  0  0  0  0
   59.0940   31.5690   47.9450 C   0  0  0  0  0  0  0  0  0  0  0  0
   58.7430   32.4030   46.7160 C   0  0  0  0  0  0  0  0  0  0  0  0
   58.8640   33.8040   46.7760 C   0  0  0  0  0  0  0  0  0  0  0  0
   58.5340   34.5990   45.6770 C   0  0  0  0  0  0  0  0  0  0  0  0
   58.0920   34.0090   44.4950 C   0  0  0  0  0  0  0  0  0  0  0  0
   57.9960   32.6210   44.4010 C   0  0  0  0  0  0  0  0  0  0  0  0
   58.3230   31.8070   45.4960 C   0  0  0  0  0  0  0  0  0  0  0  0
   58.2720   30.3800   45.3390 N   0  0  0  0  0  0  0  0  0  0  0  0
   59.5340   29.6290   45.3040 C   0  0  0  0  0  0  0  0  0  0  0  0
   59.3270   28.1690   45.6310 C   0  0  0  0  0  0  0  0  0  0  0  0
   60.3940   27.4040   46.1280 C   0  0  0  0  0  0  0  0  0  0  0  0
   60.2310   26.0330   46.3550 C   0  0  0  0  0  0  0  0  0  0  0  0
   59.0110   25.4160   46.0700 C   0  0  0  0  0  0  0  0  0  0  0  0
   57.9480   26.1660   45.5610 C   0  0  0  0  0  0  0  0  0  0  0  0
   58.0990   27.5420   45.3380 C   0  0  0  0  0  0  0  0  0  0  0  0
   57.0030   28.3160   44.8410 N   0  0  0  0  0  0  0  0  0  0  0  0
   57.0710   29.7420   44.8700 C   0  0  0  0  0  0  0  0  0  0  0  0
   56.0710   30.4240   44.5190 O   0  0  0  0  0  0  0  0  0  0  0  0
   59.1330   29.0894   50.0569 H   0  0  0  0  0  0  0  0  0  0  0  0
   58.4982   29.7864   48.5279 H   0  0  0  0  0  0  0  0  0  0  0  0
   59.2469   28.1536   48.5279 H   0  0  0  0  0  0  0  0  0  0  0  0
   61.1705   29.9618   49.6418 H   0  0  0  0  0  0  0  0  0  0  0  0
   61.2339   29.0971   48.0598 H   0  0  0  0  0  0  0  0  0  0  0  0
   60.9225   33.0119   48.6917 H   0  0  0  0  0  0  0  0  0  0  0  0
   62.0156   31.7051   49.2876 H   0  0  0  0  0  0  0  0  0  0  0  0
   63.4198   32.7165   47.7472 H   0  0  0  0  0  0  0  0  0  0  0  0
   62.6111   31.5166   46.6828 H   0  0  0  0  0  0  0  0  0  0  0  0
   62.0663   33.2282   46.6828 H   0  0  0  0  0  0  0  0  0  0  0  0
   58.4197   30.7004   47.9745 H   0  0  0  0  0  0  0  0  0  0  0  0
   58.9806   32.2322   48.8152 H   0  0  0  0  0  0  0  0  0  0  0  0
   59.2233   34.2787   47.7010 H   0  0  0  0  0  0  0  0  0  0  0  0
   58.6231   35.6933   45.7445 H   0  0  0  0  0  0  0  0  0  0  0  0
   57.8185   34.6384   43.6353 H   0  0  0  0  0  0  0  0  0  0  0  0
   57.6609   32.1602   43.4600 H   0  0  0  0  0  0  0  0  0  0  0  0
   59.9688   29.7102   44.2969 H   0  0  0  0  0  0  0  0  0  0  0  0
   60.2076   30.0568   46.0611 H   0  0  0  0  0  0  0  0  0  0  0  0
   61.3610   27.8838   46.3396 H   0  0  0  0  0  0  0  0  0  0  0  0
   61.0651   25.4402   46.7586 H   0  0  0  0  0  0  0  0  0  0  0  0
   58.8868   24.3374   46.2466 H   0  0  0  0  0  0  0  0  0  0  0  0
   56.9898   25.6756   45.3345 H   0  0  0  0  0  0  0  0  0  0  0  0
   56.1180   27.8480   44.5400 H   0  0  0  0  0  0  0  0  0  0  0  0
  1  2  1  0
  2  3  1  0
  3  4  1  0
  4  5  1  0
  3  6  1  0
  6  7  1  0
  7  8  2  0
  8  9  1  0
  9 10  2  0
 10 11  1  0
 11 12  2  0
 12 13  1  0
 13 14  1  0
 14 15  1  0
 15 16  2  0
 16 17  1  0
 17 18  2  0
 18 19  1  0
 19 20  2  0
 20 21  1  0
 21 22  1  0
 22 23  2  0
 12  7  1  0
 22 13  1  0
 20 15  1  0
  1 24  1  0
  1 25  1  0
  1 26  1  0
  2 27  1  0
  2 28  1  0
  4 29  1  0
  4 30  1  0
  5 31  1  0
  5 32  1  0
  5 33  1  0
  6 34  1  0
  6 35  1  0
  8 36  1  0
  9 37  1  0
 10 38  1  0
 11 39  1  0
 14 40  1  0
 14 41  1  0
 16 42  1  0
 17 43  1  0
 18 44  1  0
 19 45  1  0
 21 46  1  0
M  END
>  <UniqueID>  (1) 
1

>  <SMILES>  (1) 
CCN(CC)Cc1ccccc1N1Cc2ccccc2NC1=O

>  <Energy>  (1) 
56.65981380243848

>  <Genealogy>  (1) 
CCN(CC)Cc1ccccc1N1Cc2ccccc2NC1=O (3D coordinates assigned)
CCN(CC)Cc1ccccc1N1Cc2ccccc2NC1=O (nonaromatic ring conformer: 56.65981380243848 kcal/mol)

>  <smiles>  (1) 
CCN(CC)Cc1ccccc1N1Cc2ccccc2NC1=O

>  <score_type>  (1) 
oracle

>  <origin>  (1) 
adg

>  <m_score__min__energy>  (1) 
-7.5599999999999996

>  <m_primary>  (1) 
energy

$$$$
1:0
     RDKit          3D

 55 58  0  0  0  0  0  0  0  0999 V2000
   58.3960   31.2900   50.1650 C   0  0  0  0  0  0  0  0  0  0  0  0
   58.6710   32.2520   49.0040 C   0  0  0  0  0  0  0  0  0  0  0  0
   59.2540   33.5320   49.4920 N   0  0  0  0  0  0  0  0  0  0  0  0
   60.1930   33.3070   50.6110 C   0  0  0  0  0  0  0  0  0  0  0  0
   61.4190   32.4860   50.1750 C   0  0  0  0  0  0  0  0  0  0  0  0
   61.9660   32.9110   48.8350 C   0  0  0  0  0  0  0  0  0  0  0  0
   63.2070   32.4000   48.4240 C   0  0  0  0  0  0  0  0  0  0  0  0
   63.7510   32.7660   47.1930 C   0  0  0  0  0  0  0  0  0  0  0  0
   63.0660   33.6510   46.3630 C   0  0  0  0  0  0  0  0  0  0  0  0
   61.8260   34.1610   46.7540 C   0  0  0  0  0  0  0  0  0  0  0  0
   61.2360   33.7620   47.9700 C   0  0  0  0  0  0  0  0  0  0  0  0
   59.9160   34.3660   48.4470 C   0  0  1  0  0  0  0  0  0  0  0  0
   58.9350   34.8230   47.3330 C   0  0  0  0  0  0  0  0  0  0  0  0
   58.2500   33.7140   46.6620 N   0  0  0  0  0  0  0  0  0  0  0  0
   58.6760   33.2340   45.3770 C   0  0  0  0  0  0  0  0  0  0  0  0
   59.4980   33.9100   44.6990 O   0  0  0  0  0  0  0  0  0  0  0  0
   58.1370   31.9710   44.8190 C   0  0  0  0  0  0  0  0  0  0  0  0
   57.4070   31.9670   43.6180 C   0  0  0  0  0  0  0  0  0  0  0  0
   56.9050   30.7720   43.1020 C   0  0  0  0  0  0  0  0  0  0  0  0
   57.1240   29.5680   43.7740 C   0  0  0  0  0  0  0  0  0  0  0  0
   57.8530   29.5460   44.9750 C   0  0  0  0  0  0  0  0  0  0  0  0
   58.0740   28.3060   45.6770 N   0  0  0  0  0  0  0  0  0  0  0  0
   59.3740   27.8230   46.1200 C   0  0  0  0  0  0  0  0  0  0  0  0
   59.0960   26.5800   46.9870 C   0  0  0  0  0  0  0  0  0  0  0  0
   57.6260   26.1990   46.7700 C   0  0  0  0  0  0  0  0  0  0  0  0
   57.0860   27.3410   46.0050 C   0  0  0  0  0  0  0  0  0  0  0  0
   55.8900   27.4130   45.6190 O   0  0  0  0  0  0  0  0  0  0  0  0
   58.3400   30.7570   45.4990 C   0  0  0  0  0  0  0  0  0  0  0  0
   58.5461   31.8152   51.1198 H   0  0  0  0  0  0  0  0  0  0  0  0
   57.3587   30.9290   50.1042 H   0  0  0  0  0  0  0  0  0  0  0  0
   59.0858   30.4353   50.1042 H   0  0  0  0  0  0  0  0  0  0  0  0
   59.3774   31.7791   48.3058 H   0  0  0  0  0  0  0  0  0  0  0  0
   57.7178   32.4727   48.5013 H   0  0  0  0  0  0  0  0  0  0  0  0
   60.5342   34.2815   50.9903 H   0  0  0  0  0  0  0  0  0  0  0  0
   59.6637   32.7408   51.3916 H   0  0  0  0  0  0  0  0  0  0  0  0
   62.2090   32.6073   50.9307 H   0  0  0  0  0  0  0  0  0  0  0  0
   61.0975   31.4381   50.0821 H   0  0  0  0  0  0  0  0  0  0  0  0
   63.7548   31.7055   49.0779 H   0  0  0  0  0  0  0  0  0  0  0  0
   64.7215   32.3557   46.8772 H   0  0  0  0  0  0  0  0  0  0  0  0
   63.5026   33.9485   45.3982 H   0  0  0  0  0  0  0  0  0  0  0  0
   61.3047   34.8813   46.1064 H   0  0  0  0  0  0  0  0  0  0  0  0
   60.2192   35.3124   48.9187 H   0  0  0  0  0  0  0  0  0  0  0  0
   58.1757   35.4777   47.7856 H   0  0  0  0  0  0  0  0  0  0  0  0
   59.5335   35.3414   46.5694 H   0  0  0  0  0  0  0  0  0  0  0  0
   57.4570   33.2320   47.1360 H   0  0  0  0  0  0  0  0  0  0  0  0
   57.2305   32.9112   43.0820 H   0  0  0  0  0  0  0  0  0  0  0  0
   56.3342   30.7784   42.1617 H   0  0  0  0  0  0  0  0  0  0  0  0
   56.7233   28.6307   43.3606 H   0  0  0  0  0  0  0  0  0  0  0  0
   59.9962   27.5529   45.2540 H   0  0  0  0  0  0  0  0  0  0  0  0
   59.9174   28.5940   46.6859 H   0  0  0  0  0  0  0  0  0  0  0  0
   59.7502   25.7510   46.6790 H   0  0  0  0  0  0  0  0  0  0  0  0
   59.2935   26.7906   48.0484 H   0  0  0  0  0  0  0  0  0  0  0  0
   57.5422   25.2651   46.1949 H   0  0  0  0  0  0  0  0  0  0  0  0
   57.0857   26.0184   47.7110 H   0  0  0  0  0  0  0  0  0  0  0  0
   58.8869   30.7544   46.4534 H   0  0  0  0  0  0  0  0  0  0  0  0
  1  2  1  0
  2  3  1  0
  3  4  1  0
  4  5  1  0
  5  6  1  0
  6  7  2  0
  7  8  1  0
  8  9  2  0
  9 10  1  0
 10 11  2  0
 11 12  1  0
 12 13  1  0
 13 14  1  0
 14 15  1  0
 15 16  2  0
 15 17  1  0
 17 18  2  0
 18 19  1  0
 19 20  2  0
 20 21  1  0
 21 22  1  0
 22 23  1  0
 23 24  1  0
 24 25  1  0
 25 26  1  0
 26 27  2  0
 21 28  2  0
 12  3  1  0
 28 17  1  0
 11  6  1  0
 26 22  1  0
  1 29  1  0
  1 30  1  0
  1 31  1  0
  2 32  1  0
  2 33  1  0
  4 34  1  0
  4 35  1  0
  5 36  1  0
  5 37  1  0
  7 38  1  0
  8 39  1  0
  9 40  1  0
 10 41  1  0
 12 42  1  1
 13 43  1  0
 13 44  1  0
 14 45  1  0
 18 46  1  0
 19 47  1  0
 20 48  1  0
 23 49  1  0
 23 50  1  0
 24 51  1  0
 24 52  1  0
 25 53  1  0
 25 54  1  0
 28 55  1  0
M  END
>  <UniqueID>  (2) 
2

>  <SMILES>  (2) 
CCN1CCc2ccccc2[C@H]1CNC(=O)c1cccc(N2CCCC2=O)c1

>  <Energy>  (2) 
83.02200611386314

>  <Genealogy>  (2) 
CCN1CCc2ccccc2[C@H]1CNC(=O)c1cccc(N2CCCC2=O)c1 (chirality)
CCN1CCc2ccccc2[C@H]1CNC(=O)c1cccc(N2CCCC2=O)c1 (3D coordinates assigned)
CCN1CCc2ccccc2[C@H]1CNC(=O)c1cccc(N2CCCC2=O)c1 (nonaromatic ring conformer: 83.02200611386314 kcal/mol)

>  <smiles>  (2) 
CCN1CCc2ccccc2C1CNC(=O)c1cccc(N2CCCC2=O)c1

>  <score_type>  (2) 
oracle

>  <origin>  (2) 
adg

>  <m_score__min__energy>  (2) 
-9.3599999999999994

>  <m_primary>  (2) 
energy

$$$$
2:0
     RDKit          3D

 49 51  0  0  0  0  0  0  0  0999 V2000
   53.6580   23.7150   43.9610 C   0  0  0  0  0  0  0  0  0  0  0  0
   55.0440   23.5260   44.3810 N   0  0  0  0  0  0  0  0  0  0  0  0
   55.8140   22.5420   43.9450 N   0  0  0  0  0  0  0  0  0  0  0  0
   57.0370   22.6800   44.4910 C   0  0  0  0  0  0  0  0  0  0  0  0
   58.2100   21.8030   44.1750 C   0  0  0  0  0  0  0  0  0  0  0  0
   58.3540   20.8330   45.1500 F   0  0  0  0  0  0  0  0  0  0  0  0
   59.3570   22.5730   44.1230 F   0  0  0  0  0  0  0  0  0  0  0  0
   58.0180   21.1830   42.9520 F   0  0  0  0  0  0  0  0  0  0  0  0
   57.0590   23.8170   45.2800 C   0  0  0  0  0  0  0  0  0  0  0  0
   55.7720   24.3220   45.1970 C   0  0  0  0  0  0  0  0  0  0  0  0
   55.2760   25.5520   45.8460 C   0  0  0  0  0  0  0  0  0  0  0  0
   54.1030   25.9400   45.6020 O   0  0  0  0  0  0  0  0  0  0  0  0
   56.0800   26.3260   46.7500 N   0  0  0  0  0  0  0  0  0  0  0  0
   57.2970   27.0680   46.4240 C   0  0  0  0  0  0  0  0  0  0  0  0
   56.9840   28.3160   45.5940 C   0  0  0  0  0  0  0  0  0  0  0  0
   57.5960   28.2150   44.2490 N   0  0  0  0  0  0  0  0  0  0  0  0
   57.0160   29.1580   43.2700 C   0  0  0  0  0  0  0  0  0  0  0  0
   57.5200   30.6080   43.4490 C   0  0  0  0  0  0  0  0  0  0  0  0
   58.5120   30.7110   44.5250 N   0  0  0  0  0  0  0  0  0  0  0  0
   58.6140   31.9270   45.2890 C   0  0  0  0  0  0  0  0  0  0  0  0
   59.5960   32.0530   46.2880 C   0  0  0  0  0  0  0  0  0  0  0  0
   59.6940   33.2300   47.0370 C   0  0  0  0  0  0  0  0  0  0  0  0
   58.8160   34.2870   46.7960 C   0  0  0  0  0  0  0  0  0  0  0  0
   58.9190   35.4300   47.5220 F   0  0  0  0  0  0  0  0  0  0  0  0
   57.8330   34.1690   45.8080 C   0  0  0  0  0  0  0  0  0  0  0  0
   57.7280   32.9920   45.0590 C   0  0  0  0  0  0  0  0  0  0  0  0
   59.5790   29.7080   44.6230 C   0  0  0  0  0  0  0  0  0  0  0  0
   59.0680   28.2990   44.2640 C   0  0  0  0  0  0  0  0  0  0  0  0
   53.0145   23.8027   44.8488 H   0  0  0  0  0  0  0  0  0  0  0  0
   53.5791   24.6322   43.3589 H   0  0  0  0  0  0  0  0  0  0  0  0
   53.3364   22.8524   43.3589 H   0  0  0  0  0  0  0  0  0  0  0  0
   55.5140   21.7990   43.2750 H   0  0  0  0  0  0  0  0  0  0  0  0
   57.9082   24.2275   45.8460 H   0  0  0  0  0  0  0  0  0  0  0  0
   57.7909   27.3738   47.3581 H   0  0  0  0  0  0  0  0  0  0  0  0
   57.9536   26.4137   45.8318 H   0  0  0  0  0  0  0  0  0  0  0  0
   55.8936   28.4157   45.4884 H   0  0  0  0  0  0  0  0  0  0  0  0
   57.3989   29.1961   46.1070 H   0  0  0  0  0  0  0  0  0  0  0  0
   57.2810   28.8182   42.2579 H   0  0  0  0  0  0  0  0  0  0  0  0
   55.9279   29.1680   43.4308 H   0  0  0  0  0  0  0  0  0  0  0  0
   57.9795   30.9440   42.5077 H   0  0  0  0  0  0  0  0  0  0  0  0
   56.6592   31.2387   43.7160 H   0  0  0  0  0  0  0  0  0  0  0  0
   60.2902   31.2219   46.4811 H   0  0  0  0  0  0  0  0  0  0  0  0
   60.4642   33.3224   47.8169 H   0  0  0  0  0  0  0  0  0  0  0  0
   57.1412   35.0032   45.6195 H   0  0  0  0  0  0  0  0  0  0  0  0
   56.9491   32.9005   44.2876 H   0  0  0  0  0  0  0  0  0  0  0  0
   60.3898   29.9806   43.9314 H   0  0  0  0  0  0  0  0  0  0  0  0
   59.9389   29.6890   45.6623 H   0  0  0  0  0  0  0  0  0  0  0  0
   59.4461   28.0310   43.2664 H   0  0  0  0  0  0  0  0  0  0  0  0
   59.4328   27.6061   45.0365 H   0  0  0  0  0  0  0  0  0  0  0  0
  1  2  1  0
  2  3  1  0
  3  4  2  0
  4  5  1  0
  5  6  1  0
  5  7  1  0
  5  8  1  0
  4  9  1  0
  9 10  2  0
 10 11  1  0
 11 12  2  0
 11 13  1  0
 13 14  1  0
 14 15  1  0
 15 16  1  0
 16 17  1  0
 17 18  1  0
 18 19  1  0
 19 20  1  0
 20 21  2  0
 21 22  1  0
 22 23  2  0
 23 24  1  0
 23 25  1  0
 25 26  2  0
 19 27  1  0
 27 28  1  0
 10  2  1  0
 28 16  1  0
 26 20  1  0
  1 29  1  0
  1 30  1  0
  1 31  1  0
  3 32  1  0
  9 33  1  0
 14 34  1  0
 14 35  1  0
 15 36  1  0
 15 37  1  0
 17 38  1  0
 17 39  1  0
 18 40  1  0
 18 41  1  0
 21 42  1  0
 22 43  1  0
 25 44  1  0
 26 45  1  0
 27 46  1  0
 27 47  1  0
 28 48  1  0
 28 49  1  0
M  CHG  2   3   1  13  -1
M  END
>  <UniqueID>  (3) 
3

>  <SMILES>  (3) 
Cn1[nH+]c(C(F)(F)F)cc1C(=O)[N-]CCN1CCN(c2ccc(F)cc2)CC1

>  <Energy>  (3) 
92.30072303638391

>  <Genealogy>  (3) 
Cn1[nH+]c(C(F)(F)F)cc1C(=O)[N-]CCN1CCN(c2ccc(F)cc2)CC1 (protonated)
Cn1[nH+]c(C(F)(F)F)cc1C(=O)[N-]CCN1CCN(c2ccc(F)cc2)CC1 (3D coordinates assigned)
Cn1[nH+]c(C(F)(F)F)cc1C(=O)[N-]CCN1CCN(c2ccc(F)cc2)CC1 (nonaromatic ring conformer: 92.30072303638391 kcal/mol)

>  <smiles>  (3) 
Cn1nc(C(F)(F)F)cc1C(=O)NCCN1CCN(c2ccc(F)cc2)CC1

>  <score_type>  (3) 
oracle

>  <origin>  (3) 
adg

>  <m_score__min__energy>  (3) 
-7.6799999999999997

>  <m_primary>  (3) 
energy

$$$$
3:0
     RDKit          3D

 68 71  0  0  0  0  0  0  0  0999 V2000
   57.6500   32.3030   41.1800 C   0  0  0  0  0  0  0  0  0  0  0  0
   57.6830   32.0120   42.6520 C   0  0  0  0  0  0  0  0  0  0  0  0
   58.2050   32.9530   43.5510 C   0  0  0  0  0  0  0  0  0  0  0  0
   58.2030   32.6890   44.9220 C   0  0  0  0  0  0  0  0  0  0  0  0
   57.6580   31.4960   45.4080 C   0  0  0  0  0  0  0  0  0  0  0  0
   57.0950   30.5580   44.5270 C   0  0  0  0  0  0  0  0  0  0  0  0
   56.4930   29.3110   45.0650 C   0  0  0  0  0  0  0  0  0  0  0  0
   55.3250   28.9940   44.7160 O   0  0  0  0  0  0  0  0  0  0  0  0
   57.1730   28.4670   46.0070 N   0  0  0  0  0  0  0  0  0  0  0  0
   57.5750   27.1070   45.7970 C   0  0  0  0  0  0  0  0  0  0  0  0
   56.6380   26.2210   45.2500 C   0  0  0  0  0  0  0  0  0  0  0  0
   56.9450   24.8630   45.0870 C   0  0  0  0  0  0  0  0  0  0  0  0
   55.9310   23.9310   44.5560 C   0  0  0  0  0  0  0  0  0  0  0  0
   55.9790   23.5920   43.3440 O   0  0  0  0  0  0  0  0  0  0  0  0
   54.8720   23.4210   45.3740 N   0  0  0  0  0  0  0  0  0  0  0  0
   55.0210   23.0630   46.7800 C   0  0  0  0  0  0  0  0  0  0  0  0
   56.0120   21.9060   46.9400 C   0  0  0  0  0  0  0  0  0  0  0  0
   57.0390   22.2310   47.9580 N   0  0  0  0  0  0  0  0  0  0  0  0
   56.8400   21.4120   49.1650 C   0  0  0  0  0  0  0  0  0  0  0  0
   56.9990   23.6560   48.3260 C   0  0  0  0  0  0  0  0  0  0  0  0
   58.2010   24.3890   45.4960 C   0  0  0  0  0  0  0  0  0  0  0  0
   59.1540   25.2710   46.0060 C   0  0  0  0  0  0  0  0  0  0  0  0
   58.8630   26.6360   46.1480 C   0  0  0  0  0  0  0  0  0  0  0  0
   59.9050   27.5370   46.5640 N   0  0  0  0  0  0  0  0  0  0  0  0
   60.7520   28.1990   45.5640 C   0  0  0  0  0  0  0  0  0  0  0  0
   60.5640   29.7180   45.6420 C   0  0  0  0  0  0  0  0  0  0  0  0
   60.5500   30.1970   47.0390 N   0  0  0  0  0  0  0  0  0  0  0  0
   60.2240   31.5760   47.3410 C   0  0  0  0  0  0  0  0  0  0  0  0
   59.2070   31.9090   48.2600 C   0  0  0  0  0  0  0  0  0  0  0  0
   58.9300   33.2520   48.5260 C   0  0  0  0  0  0  0  0  0  0  0  0
   59.6580   34.2550   47.8880 C   0  0  0  0  0  0  0  0  0  0  0  0
   60.6600   33.8980   46.9850 C   0  0  0  0  0  0  0  0  0  0  0  0
   60.9150   32.5860   46.7360 N   0  0  0  0  0  0  0  0  0  0  0  0
   60.8210   29.2340   48.1210 C   0  0  0  0  0  0  0  0  0  0  0  0
   59.9230   28.0050   47.9580 C   0  0  0  0  0  0  0  0  0  0  0  0
   57.1350   30.8160   43.1430 C   0  0  0  0  0  0  0  0  0  0  0  0
   57.5273   33.3848   41.0228 H   0  0  0  0  0  0  0  0  0  0  0  0
   58.5917   31.9699   40.7192 H   0  0  0  0  0  0  0  0  0  0  0  0
   56.8068   31.7676   40.7192 H   0  0  0  0  0  0  0  0  0  0  0  0
   58.6170   33.9012   43.1753 H   0  0  0  0  0  0  0  0  0  0  0  0
   58.6313   33.4214   45.6221 H   0  0  0  0  0  0  0  0  0  0  0  0
   57.6704   31.2908   46.4886 H   0  0  0  0  0  0  0  0  0  0  0  0
   55.6497   26.5953   44.9448 H   0  0  0  0  0  0  0  0  0  0  0  0
   55.3912   23.9357   47.3379 H   0  0  0  0  0  0  0  0  0  0  0  0
   54.0423   22.7482   47.1713 H   0  0  0  0  0  0  0  0  0  0  0  0
   55.4660   21.0040   47.2535 H   0  0  0  0  0  0  0  0  0  0  0  0
   56.5127   21.7341   45.9758 H   0  0  0  0  0  0  0  0  0  0  0  0
   56.9912   22.0343   50.0594 H   0  0  0  0  0  0  0  0  0  0  0  0
   55.8173   21.0069   49.1688 H   0  0  0  0  0  0  0  0  0  0  0  0
   57.5628   20.5828   49.1688 H   0  0  0  0  0  0  0  0  0  0  0  0
   56.9963   23.7518   49.4218 H   0  0  0  0  0  0  0  0  0  0  0  0
   57.8832   24.1657   47.9156 H   0  0  0  0  0  0  0  0  0  0  0  0
   56.0876   24.1152   47.9156 H   0  0  0  0  0  0  0  0  0  0  0  0
   58.4351   23.3173   45.4141 H   0  0  0  0  0  0  0  0  0  0  0  0
   60.1440   24.8922   46.2999 H   0  0  0  0  0  0  0  0  0  0  0  0
   61.8061   27.9518   45.7582 H   0  0  0  0  0  0  0  0  0  0  0  0
   60.4662   27.8505   44.5606 H   0  0  0  0  0  0  0  0  0  0  0  0
   61.3906   30.2072   45.1059 H   0  0  0  0  0  0  0  0  0  0  0  0
   59.5948   29.9669   45.1851 H   0  0  0  0  0  0  0  0  0  0  0  0
   58.6355   31.1158   48.7642 H   0  0  0  0  0  0  0  0  0  0  0  0
   58.1365   33.5184   49.2397 H   0  0  0  0  0  0  0  0  0  0  0  0
   59.4453   35.3144   48.0938 H   0  0  0  0  0  0  0  0  0  0  0  0
   61.2437   34.6782   46.4745 H   0  0  0  0  0  0  0  0  0  0  0  0
   61.8756   28.9240   48.0784 H   0  0  0  0  0  0  0  0  0  0  0  0
   60.6135   29.7095   49.0910 H   0  0  0  0  0  0  0  0  0  0  0  0
   60.3007   27.1973   48.6022 H   0  0  0  0  0  0  0  0  0  0  0  0
   58.8980   28.2838   48.2437 H   0  0  0  0  0  0  0  0  0  0  0  0
   56.7326   30.0726   42.4391 H   0  0  0  0  0  0  0  0  0  0  0  0
  1  2  1  0
  2  3  2  0
  3  4  1  0
  4  5  2  0
  5  6  1  0
  6  7  1  0
  7  8  2  0
  7  9  1  0
  9 10  1  0
 10 11  2  0
 11 12  1  0
 12 13  1  0
 13 14  2  0
 13 15  1  0
 15 16  1  0
 16 17  1  0
 17 18  1  0
 18 19  1  0
 18 20  1  0
 12 21  2  0
 21 22  1  0
 22 23  2  0
 23 24  1  0
 24 25  1  0
 25 26  1  0
 26 27  1  0
 27 28  1  0
 28 29  2  0
 29 30  1  0
 30 31  2  0
 31 32  1  0
 32 33  2  0
 27 34  1  0
 34 35  1  0
  6 36  2  0
 36  2  1  0
 23 10  1  0
 35 24  1  0
 33 28  1  0
  1 37  1  0
  1 38  1  0
  1 39  1  0
  3 40  1  0
  4 41  1  0
  5 42  1  0
 11 43  1  0
 16 44  1  0
 16 45  1  0
 17 46  1  0
 17 47  1  0
 19 48  1  0
 19 49  1  0
 19 50  1  0
 20 51  1  0
 20 52  1  0
 20 53  1  0
 21 54  1  0
 22 55  1  0
 25 56  1  0
 25 57  1  0
 26 58  1  0
 26 59  1  0
 29 60  1  0
 30 61  1  0
 31 62  1  0
 32 63  1  0
 34 64  1  0
 34 65  1  0
 35 66  1  0
 35 67  1  0
 36 68  1  0
M  CHG  2   9  -1  15  -1
M  END
>  <UniqueID>  (4) 
4

>  <SMILES>  (4) 
Cc1cccc(C(=O)[N-]c2cc(C(=O)[N-]CCN(C)C)ccc2N2CCN(c3ccccn3)CC2)c1

>  <Energy>  (4) 
90.49831105166561

>  <Genealogy>  (4) 
Cc1cccc(C(=O)[N-]c2cc(C(=O)[N-]CCN(C)C)ccc2N2CCN(c3ccccn3)CC2)c1 (protonated)
Cc1cccc(C(=O)[N-]c2cc(C(=O)[N-]CCN(C)C)ccc2N2CCN(c3ccccn3)CC2)c1 (3D coordinates assigned)
Cc1cccc(C(=O)[N-]c2cc(C(=O)[N-]CCN(C)C)ccc2N2CCN(c3ccccn3)CC2)c1 (nonaromatic ring conformer: 90.49831105166561 kcal/mol)

>  <smiles>  (4) 
Cc1cccc(C(=O)Nc2cc(C(=O)NCCN(C)C)ccc2N2CCN(c3ccccn3)CC2)c1

>  <score_type>  (4) 
oracle

>  <origin>  (4) 
adg

>  <m_score__min__energy>  (4) 
-13.08

>  <m_primary>  (4) 
energy

$$$$
4:0
     RDKit          3D

 41 43  0  0  0  0  0  0  0  0999 V2000
   63.6900   31.1970   50.8940 C   0  0  0  0  0  0  0  0  0  0  0  0
   62.8550   31.3260   49.6440 C   0  0  0  0  0  0  0  0  0  0  0  0
   61.7470   30.5280   49.5120 N   0  0  0  0  0  0  0  0  0  0  0  0
   60.9870   30.6260   48.3930 C   0  0  0  0  0  0  0  0  0  0  0  0
   61.3100   31.4860   47.3940 C   0  0  0  0  0  0  0  0  0  0  0  0
   60.3880   31.3250   46.3840 C   0  0  0  0  0  0  0  0  0  0  0  0
   59.5200   30.3320   46.8360 C   0  0  0  0  0  0  0  0  0  0  0  0
   58.3910   29.8120   46.0350 C   0  0  0  0  0  0  0  0  0  0  0  0
   58.3260   28.5770   45.7860 O   0  0  0  0  0  0  0  0  0  0  0  0
   57.3610   30.6870   45.5670 N   0  0  0  0  0  0  0  0  0  0  0  0
   57.5330   31.6400   44.4750 C   0  0  0  0  0  0  0  0  0  0  0  0
   57.0610   33.0400   44.8810 C   0  0  0  0  0  0  0  0  0  0  0  0
   58.0630   33.7220   45.7620 C   0  0  0  0  0  0  0  0  0  0  0  0
   59.1090   34.5280   45.3320 C   0  0  0  0  0  0  0  0  0  0  0  0
   59.9330   34.9630   46.3760 C   0  0  0  0  0  0  0  0  0  0  0  0
   59.5470   34.4940   47.6240 C   0  0  0  0  0  0  0  0  0  0  0  0
   58.1800   33.5330   47.4290 S   0  0  0  0  0  0  0  0  0  0  0  0
   59.8790   29.9140   48.0860 N   0  0  0  0  0  0  0  0  0  0  0  0
   59.2200   28.8960   48.9080 C   0  0  0  0  0  0  0  0  0  0  0  0
   62.4210   32.3080   47.5040 C   0  0  0  0  0  0  0  0  0  0  0  0
   62.7170   33.0920   46.5600 O   0  0  0  0  0  0  0  0  0  0  0  0
   63.1820   32.2420   48.6520 N   0  0  0  0  0  0  0  0  0  0  0  0
   64.3700   33.1030   48.7950 C   0  0  0  0  0  0  0  0  0  0  0  0
   63.0438   31.2968   51.7785 H   0  0  0  0  0  0  0  0  0  0  0  0
   64.1804   30.2124   50.9074 H   0  0  0  0  0  0  0  0  0  0  0  0
   64.4546   31.9877   50.9074 H   0  0  0  0  0  0  0  0  0  0  0  0
   61.5060   29.8450   50.2630 H   0  0  0  0  0  0  0  0  0  0  0  0
   60.3454   31.8641   45.4261 H   0  0  0  0  0  0  0  0  0  0  0  0
   58.5979   31.6854   44.2029 H   0  0  0  0  0  0  0  0  0  0  0  0
   56.9280   31.3030   43.6204 H   0  0  0  0  0  0  0  0  0  0  0  0
   56.9123   33.6443   43.9740 H   0  0  0  0  0  0  0  0  0  0  0  0
   56.1201   32.9385   45.4418 H   0  0  0  0  0  0  0  0  0  0  0  0
   59.2731   34.7970   44.2781 H   0  0  0  0  0  0  0  0  0  0  0  0
   60.8050   35.6156   46.2220 H   0  0  0  0  0  0  0  0  0  0  0  0
   60.0492   34.7132   48.5778 H   0  0  0  0  0  0  0  0  0  0  0  0
   59.3713   29.1297   49.9722 H   0  0  0  0  0  0  0  0  0  0  0  0
   58.1430   28.8850   48.6845 H   0  0  0  0  0  0  0  0  0  0  0  0
   59.6509   27.9089   48.6845 H   0  0  0  0  0  0  0  0  0  0  0  0
   64.5840   33.2581   49.8628 H   0  0  0  0  0  0  0  0  0  0  0  0
   65.2333   32.6194   48.3145 H   0  0  0  0  0  0  0  0  0  0  0  0
   64.1792   34.0739   48.3145 H   0  0  0  0  0  0  0  0  0  0  0  0
  1  2  1  0
  2  3  2  0
  3  4  1  0
  4  5  2  0
  5  6  1  0
  6  7  2  0
  7  8  1  0
  8  9  2  0
  8 10  1  0
 10 11  1  0
 11 12  1  0
 12 13  1  0
 13 14  2  0
 14 15  1  0
 15 16  2  0
 16 17  1  0
  7 18  1  0
 18 19  1  0
  5 20  1  0
 20 21  2  0
 20 22  1  0
 22 23  1  0
 22  2  1  0
 18  4  1  0
 17 13  1  0
  1 24  1  0
  1 25  1  0
  1 26  1  0
  3 27  1  0
  6 28  1  0
 11 29  1  0
 11 30  1  0
 12 31  1  0
 12 32  1  0
 14 33  1  0
 15 34  1  0
 16 35  1  0
 19 36  1  0
 19 37  1  0
 19 38  1  0
 23 39  1  0
 23 40  1  0
 23 41  1  0
M  CHG  2   3   1  10  -1
M  END
>  <UniqueID>  (5) 
5

>  <SMILES>  (5) 
Cc1[nH+]c2c(cc(C(=O)[N-]CCc3cccs3)n2C)c(=O)n1C

>  <Energy>  (5) 
103.79172970252675

>  <Genealogy>  (5) 
Cc1[nH+]c2c(cc(C(=O)[N-]CCc3cccs3)n2C)c(=O)n1C (protonated)
Cc1[nH+]c2c(cc(C(=O)[N-]CCc3cccs3)n2C)c(=O)n1C (3D coordinates assigned)
Cc1[nH+]c2c(cc(C(=O)[N-]CCc3cccs3)n2C)c(=O)n1C (optimized conformer: 103.79172970252675 kcal/mol)

>  <smiles>  (5) 
Cc1nc2c(cc(C(=O)NCCc3cccs3)n2C)c(=O)n1C

>  <score_type>  (5) 
oracle

>  <origin>  (5) 
adg

>  <m_score__min__energy>  (5) 
-7.0499999999999998

>  <m_primary>  (5) 
energy

$$$$
5:0
     RDKit          3D

 35 38  0  0  0  0  0  0  0  0999 V2000
   59.9550   36.0120   45.9850 C   0  0  0  0  0  0  0  0  0  0  0  0
   59.3650   34.6910   45.7250 N   0  0  0  0  0  0  0  0  0  0  0  0
   58.2570   34.6160   44.9050 C   0  0  0  0  0  0  0  0  0  0  0  0
   57.6730   33.4160   44.6170 N   0  0  0  0  0  0  0  0  0  0  0  0
   58.2030   32.2980   45.1600 C   0  0  0  0  0  0  0  0  0  0  0  0
   59.2870   32.3290   45.9910 C   0  0  0  0  0  0  0  0  0  0  0  0
   59.6020   31.0880   46.4310 N   0  0  0  0  0  0  0  0  0  0  0  0
   58.6900   30.2770   45.8490 C   0  0  0  0  0  0  0  0  0  0  0  0
   58.5810   28.8940   45.9900 C   0  0  0  0  0  0  0  0  0  0  0  0
   57.5430   28.2400   45.2980 C   0  0  0  0  0  0  0  0  0  0  0  0
   56.6440   28.9730   44.4900 C   0  0  0  0  0  0  0  0  0  0  0  0
   56.7710   30.3690   44.3640 C   0  0  0  0  0  0  0  0  0  0  0  0
   57.8090   30.9860   45.0570 C   0  0  0  0  0  0  0  0  0  0  0  0
   59.8880   33.5480   46.3000 C   0  0  0  0  0  0  0  0  0  0  0  0
   61.0460   33.5880   47.2210 C   0  0  0  0  0  0  0  0  0  0  0  0
   62.3520   33.4460   46.7260 C   0  0  0  0  0  0  0  0  0  0  0  0
   63.4440   33.4900   47.5990 C   0  0  0  0  0  0  0  0  0  0  0  0
   63.2380   33.6800   48.9680 C   0  0  0  0  0  0  0  0  0  0  0  0
   61.9410   33.8290   49.4670 C   0  0  0  0  0  0  0  0  0  0  0  0
   60.8470   33.7850   48.5970 C   0  0  0  0  0  0  0  0  0  0  0  0
   60.0274   36.1740   47.0706 H   0  0  0  0  0  0  0  0  0  0  0  0
   60.9596   36.0590   45.5395 H   0  0  0  0  0  0  0  0  0  0  0  0
   59.3195   36.7915   45.5395 H   0  0  0  0  0  0  0  0  0  0  0  0
   57.8377   35.5383   44.4766 H   0  0  0  0  0  0  0  0  0  0  0  0
   56.8350   33.3690   43.9950 H   0  0  0  0  0  0  0  0  0  0  0  0
   60.3690   30.8140   47.0850 H   0  0  0  0  0  0  0  0  0  0  0  0
   59.2838   28.3313   46.6220 H   0  0  0  0  0  0  0  0  0  0  0  0
   57.4309   27.1494   45.3871 H   0  0  0  0  0  0  0  0  0  0  0  0
   55.8386   28.4480   43.9554 H   0  0  0  0  0  0  0  0  0  0  0  0
   56.0759   30.9510   43.7411 H   0  0  0  0  0  0  0  0  0  0  0  0
   62.5171   33.2997   45.6483 H   0  0  0  0  0  0  0  0  0  0  0  0
   64.4656   33.3750   47.2076 H   0  0  0  0  0  0  0  0  0  0  0  0
   64.0976   33.7123   49.6537 H   0  0  0  0  0  0  0  0  0  0  0  0
   61.7807   33.9809   50.5446 H   0  0  0  0  0  0  0  0  0  0  0  0
   59.8274   33.9051   48.9918 H   0  0  0  0  0  0  0  0  0  0  0  0
  1  2  1  0
  2  3  2  0
  3  4  1  0
  4  5  2  0
  5  6  1  0
  6  7  1  0
  7  8  1  0
  8  9  2  0
  9 10  1  0
 10 11  2  0
 11 12  1  0
 12 13  2  0
  6 14  2  0
 14 15  1  0
 15 16  2  0
 16 17  1  0
 17 18  2  0
 18 19  1  0
 19 20  2  0
 14  2  1  0
 20 15  1  0
 13  5  1  0
 13  8  1  0
  1 21  1  0
  1 22  1  0
  1 23  1  0
  3 24  1  0
  4 25  1  0
  7 26  1  0
  9 27  1  0
 10 28  1  0
 11 29  1  0
 12 30  1  0
 16 31  1  0
 17 32  1  0
 18 33  1  0
 19 34  1  0
 20 35  1  0
M  CHG  2   2   1   4   1
M  END
>  <UniqueID>  (6) 
6

>  <SMILES>  (6) 
C[n+]1c[nH+]c2c([nH]c3ccccc32)c1-c1ccccc1

>  <Energy>  (6) 
91.17457160676457

>  <Genealogy>  (6) 
C[n+]1c[nH+]c2c([nH]c3ccccc32)c1-c1ccccc1 (protonated)
C[n+]1c[nH+]c2c([nH]c3ccccc32)c1-c1ccccc1 (3D coordinates assigned)
C[n+]1c[nH+]c2c([nH]c3ccccc32)c1-c1ccccc1 (optimized conformer: 91.17457160676457 kcal/mol)

>  <smiles>  (6) 
C[n+]1cnc2c([nH]c3ccccc32)c1-c1ccccc1

>  <score_type>  (6) 
oracle

>  <origin>  (6) 
adg

>  <m_score__min__energy>  (6) 
-3.98

>  <m_primary>  (6) 
energy

$$$$
6:0
     RDKit          3D

 71 73  0  0  0  0  0  0  0  0999 V2000
   59.7810   28.4040   44.5390 C   0  0  0  0  0  0  0  0  0  0  0  0
   58.3870   27.9780   44.0880 C   0  0  0  0  0  0  0  0  0  0  0  0
   57.4280   28.0950   45.2100 N   0  0  0  0  0  0  0  0  0  0  0  0
   56.2780   28.9570   44.8610 C   0  0  0  0  0  0  0  0  0  0  0  0
   56.5830   29.7630   43.5990 C   0  0  0  0  0  0  0  0  0  0  0  0
   56.9790   26.7620   45.6790 C   0  0  0  0  0  0  0  0  0  0  0  0
   58.1840   25.9530   46.1760 C   0  0  0  0  0  0  0  0  0  0  0  0
   58.8090   26.5460   47.4500 C   0  0  0  0  0  0  0  0  0  0  0  0
   58.4780   27.9640   47.6150 N   0  0  0  0  0  0  0  0  0  0  0  0
   59.3970   28.9150   48.1890 C   0  0  0  0  0  0  0  0  0  0  0  0
   60.1740   28.5470   49.2830 C   0  0  0  0  0  0  0  0  0  0  0  0
   60.9100   29.4980   49.9700 C   0  0  0  0  0  0  0  0  0  0  0  0
   60.9270   30.8500   49.5720 C   0  0  0  0  0  0  0  0  0  0  0  0
   61.3500   31.8100   50.5800 N   0  0  0  0  0  0  0  0  0  0  0  0
   62.4800   31.2480   51.3400 C   0  0  0  0  0  0  0  0  0  0  0  0
   63.7810   31.2870   50.5250 C   0  0  0  0  0  0  0  0  0  0  0  0
   63.7270   32.3910   49.5380 N   0  0  0  0  0  0  0  0  0  0  0  0
   64.8050   33.3780   49.7770 C   0  0  0  0  0  0  0  0  0  0  0  0
   66.0970   32.6610   50.1480 C   0  0  0  0  0  0  0  0  0  0  0  0
   63.7630   31.8820   48.1460 C   0  0  0  0  0  0  0  0  0  0  0  0
   63.8900   33.0500   47.1740 C   0  0  0  0  0  0  0  0  0  0  0  0
   60.2690   31.2300   48.3450 C   0  0  0  0  0  0  0  0  0  0  0  0
   60.4030   32.5540   47.7780 C   0  0  0  0  0  0  0  0  0  0  0  0
   61.3460   33.2910   48.1720 O   0  0  0  0  0  0  0  0  0  0  0  0
   59.5830   33.0940   46.7420 C   0  0  0  0  0  0  0  0  0  0  0  0
   59.7150   34.4590   46.3820 C   0  0  0  0  0  0  0  0  0  0  0  0
   58.9390   35.0150   45.3600 C   0  0  0  0  0  0  0  0  0  0  0  0
   58.0150   34.2280   44.6760 C   0  0  0  0  0  0  0  0  0  0  0  0
   57.8690   32.8800   45.0040 C   0  0  0  0  0  0  0  0  0  0  0  0
   58.6470   32.3220   46.0260 C   0  0  0  0  0  0  0  0  0  0  0  0
   58.5010   30.7010   46.4020 S   0  0  0  0  0  0  0  0  0  0  0  0
   59.4660   30.2370   47.7070 C   0  0  0  0  0  0  0  0  0  0  0  0
   59.8228   28.4168   45.6381 H   0  0  0  0  0  0  0  0  0  0  0  0
   60.5251   27.6922   44.1520 H   0  0  0  0  0  0  0  0  0  0  0  0
   60.0001   29.4101   44.1520 H   0  0  0  0  0  0  0  0  0  0  0  0
   58.0592   28.6250   43.2610 H   0  0  0  0  0  0  0  0  0  0  0  0
   58.4225   26.9305   43.7542 H   0  0  0  0  0  0  0  0  0  0  0  0
   55.3932   28.3277   44.6847 H   0  0  0  0  0  0  0  0  0  0  0  0
   56.0866   29.6520   45.6919 H   0  0  0  0  0  0  0  0  0  0  0  0
   56.9593   30.7574   43.8810 H   0  0  0  0  0  0  0  0  0  0  0  0
   57.3446   29.2380   43.0038 H   0  0  0  0  0  0  0  0  0  0  0  0
   55.6646   29.8738   43.0038 H   0  0  0  0  0  0  0  0  0  0  0  0
   56.2592   26.8876   46.5013 H   0  0  0  0  0  0  0  0  0  0  0  0
   56.5004   26.2262   44.8461 H   0  0  0  0  0  0  0  0  0  0  0  0
   57.8545   24.9257   46.3904 H   0  0  0  0  0  0  0  0  0  0  0  0
   58.9499   25.9767   45.3868 H   0  0  0  0  0  0  0  0  0  0  0  0
   58.4336   25.9899   48.3217 H   0  0  0  0  0  0  0  0  0  0  0  0
   59.9022   26.4601   47.3639 H   0  0  0  0  0  0  0  0  0  0  0  0
   57.4900   28.2520   47.4340 H   0  0  0  0  0  0  0  0  0  0  0  0
   60.2039   27.4953   49.6039 H   0  0  0  0  0  0  0  0  0  0  0  0
   61.4962   29.1904   50.8485 H   0  0  0  0  0  0  0  0  0  0  0  0
   61.6710   32.6950   50.1150 H   0  0  0  0  0  0  0  0  0  0  0  0
   60.5890   32.1200   51.2200 H   0  0  0  0  0  0  0  0  0  0  0  0
   62.6176   31.8332   52.2612 H   0  0  0  0  0  0  0  0  0  0  0  0
   62.2505   30.1979   51.5739 H   0  0  0  0  0  0  0  0  0  0  0  0
   64.6317   31.4465   51.2039 H   0  0  0  0  0  0  0  0  0  0  0  0
   63.9028   30.3321   49.9928 H   0  0  0  0  0  0  0  0  0  0  0  0
   64.9662   33.9693   48.8636 H   0  0  0  0  0  0  0  0  0  0  0  0
   64.5102   34.0406   50.6040 H   0  0  0  0  0  0  0  0  0  0  0  0
   66.1871   32.6110   51.2432 H   0  0  0  0  0  0  0  0  0  0  0  0
   66.0826   31.6418   49.7344 H   0  0  0  0  0  0  0  0  0  0  0  0
   66.9542   33.2125   49.7344 H   0  0  0  0  0  0  0  0  0  0  0  0
   64.6255   31.2101   48.0247 H   0  0  0  0  0  0  0  0  0  0  0  0
   62.8337   31.3325   47.9353 H   0  0  0  0  0  0  0  0  0  0  0  0
   63.9920   33.9881   47.7393 H   0  0  0  0  0  0  0  0  0  0  0  0
   64.7777   32.9052   46.5407 H   0  0  0  0  0  0  0  0  0  0  0  0
   62.9919   33.0993   46.5407 H   0  0  0  0  0  0  0  0  0  0  0  0
   60.4400   35.0913   46.9155 H   0  0  0  0  0  0  0  0  0  0  0  0
   59.0584   36.0761   45.0956 H   0  0  0  0  0  0  0  0  0  0  0  0
   57.4007   34.6695   43.8774 H   0  0  0  0  0  0  0  0  0  0  0  0
   57.1439   32.2563   44.4607 H   0  0  0  0  0  0  0  0  0  0  0  0
  1  2  1  0
  2  3  1  0
  3  4  1  0
  4  5  1  0
  3  6  1  0
  6  7  1  0
  7  8  1  0
  8  9  1  0
  9 10  1  0
 10 11  2  0
 11 12  1  0
 12 13  2  0
 13 14  1  0
 14 15  1  0
 15 16  1  0
 16 17  1  0
 17 18  1  0
 18 19  1  0
 17 20  1  0
 20 21  1  0
 13 22  1  0
 22 23  1  0
 23 24  2  0
 23 25  1  0
 25 26  2  0
 26 27  1  0
 27 28  2  0
 28 29  1  0
 29 30  2  0
 30 31  1  0
 31 32  1  0
 32 10  1  0
 32 22  2  0
 30 25  1  0
  1 33  1  0
  1 34  1  0
  1 35  1  0
  2 36  1  0
  2 37  1  0
  4 38  1  0
  4 39  1  0
  5 40  1  0
  5 41  1  0
  5 42  1  0
  6 43  1  0
  6 44  1  0
  7 45  1  0
  7 46  1  0
  8 47  1  0
  8 48  1  0
  9 49  1  0
 11 50  1  0
 12 51  1  0
 14 52  1  0
 14 53  1  0
 15 54  1  0
 15 55  1  0
 16 56  1  0
 16 57  1  0
 18 58  1  0
 18 59  1  0
 19 60  1  0
 19 61  1  0
 19 62  1  0
 20 63  1  0
 20 64  1  0
 21 65  1  0
 21 66  1  0
 21 67  1  0
 26 68  1  0
 27 69  1  0
 28 70  1  0
 29 71  1  0
M  CHG  1  14   1
M  END
>  <UniqueID>  (7) 
7

>  <SMILES>  (7) 
CCN(CC)CCCNc1ccc([NH2+]CCN(CC)CC)c2c(=O)c3ccccc3sc12

>  <Energy>  (7) 
90.87267978007556

>  <Genealogy>  (7) 
CCN(CC)CCCNc1ccc([NH2+]CCN(CC)CC)c2c(=O)c3ccccc3sc12 (protonated)
CCN(CC)CCCNc1ccc([NH2+]CCN(CC)CC)c2c(=O)c3ccccc3sc12 (3D coordinates assigned)
CCN(CC)CCCNc1ccc([NH2+]CCN(CC)CC)c2c(=O)c3ccccc3sc12 (optimized conformer: 90.87267978007556 kcal/mol)

>  <smiles>  (7) 
CCN(CC)CCCNc1ccc(NCCN(CC)CC)c2c(=O)c3ccccc3sc12

>  <score_type>  (7) 
oracle

>  <origin>  (7) 
adg

>  <m_score__min__energy>  (7) 
-6.1399999999999997

>  <m_primary>  (7) 
energy

$$$$
7:0
     RDKit          3D

 84 88  0  0  0  0  0  0  0  0999 V2000
   63.3830   31.6430   47.2040 C   0  0  0  0  0  0  0  0  0  0  0  0
   63.7500   32.6980   48.2490 C   0  0  0  0  0  0  0  0  0  0  0  0
   62.8430   32.6690   49.4210 N   0  0  0  0  0  0  0  0  0  0  0  0
   63.6180   32.7310   50.6810 C   0  0  0  0  0  0  0  0  0  0  0  0
   65.1220   32.5660   50.4510 C   0  0  0  0  0  0  0  0  0  0  0  0
   61.7040   33.6240   49.3470 C   0  0  0  0  0  0  0  0  0  0  0  0
   61.1840   33.9490   47.9350 C   0  0  0  0  0  0  0  0  0  0  0  0
   59.8480   34.4030   47.9860 O   0  0  0  0  0  0  0  0  0  0  0  0
   59.0540   33.6350   47.1050 C   0  0  0  0  0  0  0  0  0  0  0  0
   59.9400   32.6830   46.3010 C   0  0  0  0  0  0  0  0  0  0  0  0
   59.5110   31.2900   46.4830 N   0  0  0  0  0  0  0  0  0  0  0  0
   59.8680   30.4570   47.4950 C   0  0  0  0  0  0  0  0  0  0  0  0
   60.6330   30.7650   48.6280 C   0  0  0  0  0  0  0  0  0  0  0  0
   60.8500   29.7600   49.5860 C   0  0  0  0  0  0  0  0  0  0  0  0
   61.6090   30.0490   50.7180 O   0  0  0  0  0  0  0  0  0  0  0  0
   60.2980   28.4730   49.4030 C   0  0  0  0  0  0  0  0  0  0  0  0
   59.5350   28.1800   48.2630 C   0  0  0  0  0  0  0  0  0  0  0  0
   59.3510   29.1880   47.3110 C   0  0  0  0  0  0  0  0  0  0  0  0
   58.6550   29.2150   46.1120 C   0  0  0  0  0  0  0  0  0  0  0  0
   57.9410   28.2220   45.3980 C   0  0  0  0  0  0  0  0  0  0  0  0
   57.9220   26.8070   45.8040 C   0  0  0  0  0  0  0  0  0  0  0  0
   59.0700   26.0170   45.6560 C   0  0  0  0  0  0  0  0  0  0  0  0
   59.0430   24.6620   45.9980 C   0  0  0  0  0  0  0  0  0  0  0  0
   57.8510   24.0720   46.4630 C   0  0  0  0  0  0  0  0  0  0  0  0
   57.7560   22.7100   46.7900 O   0  0  0  0  0  0  0  0  0  0  0  0
   58.0300   21.6170   45.9100 C   0  0  0  0  0  0  0  0  0  0  0  0
   57.7780   22.0160   44.4510 C   0  0  0  0  0  0  0  0  0  0  0  0
   56.3660   21.7720   44.0750 N   0  0  0  0  0  0  0  0  0  0  0  0
   55.7080   22.9860   43.5320 C   0  0  0  0  0  0  0  0  0  0  0  0
   56.6630   24.1680   43.3130 C   0  0  0  0  0  0  0  0  0  0  0  0
   55.6170   21.1130   45.1710 C   0  0  0  0  0  0  0  0  0  0  0  0
   55.5690   19.5940   45.0030 C   0  0  0  0  0  0  0  0  0  0  0  0
   56.7100   24.8670   46.6140 C   0  0  0  0  0  0  0  0  0  0  0  0
   56.7400   26.2240   46.2780 C   0  0  0  0  0  0  0  0  0  0  0  0
   57.2820   28.6020   44.2070 C   0  0  0  0  0  0  0  0  0  0  0  0
   57.3710   29.9270   43.7520 C   0  0  0  0  0  0  0  0  0  0  0  0
   56.7690   30.4270   42.5920 C   0  0  0  0  0  0  0  0  0  0  0  0
   57.0240   31.7800   42.3890 C   0  0  0  0  0  0  0  0  0  0  0  0
   57.9940   32.3470   43.6470 S   0  0  0  0  0  0  0  0  0  0  0  0
   58.1070   30.8780   44.4580 C   0  0  0  0  0  0  0  0  0  0  0  0
   58.7600   30.5230   45.6460 C   0  0  0  0  0  0  0  0  0  0  0  0
   63.0622   30.7209   47.7108 H   0  0  0  0  0  0  0  0  0  0  0  0
   62.5631   32.0198   46.5748 H   0  0  0  0  0  0  0  0  0  0  0  0
   64.2597   31.4296   46.5748 H   0  0  0  0  0  0  0  0  0  0  0  0
   64.7782   32.5124   48.5929 H   0  0  0  0  0  0  0  0  0  0  0  0
   63.6566   33.6867   47.7759 H   0  0  0  0  0  0  0  0  0  0  0  0
   63.4387   33.7058   51.1582 H   0  0  0  0  0  0  0  0  0  0  0  0
   63.2840   31.9008   51.3207 H   0  0  0  0  0  0  0  0  0  0  0  0
   65.6373   32.5095   51.4212 H   0  0  0  0  0  0  0  0  0  0  0  0
   65.3069   31.6422   49.8832 H   0  0  0  0  0  0  0  0  0  0  0  0
   65.5028   33.4278   49.8832 H   0  0  0  0  0  0  0  0  0  0  0  0
   60.8694   33.1971   49.9226 H   0  0  0  0  0  0  0  0  0  0  0  0
   62.0883   34.5741   49.7465 H   0  0  0  0  0  0  0  0  0  0  0  0
   61.8146   34.7326   47.4897 H   0  0  0  0  0  0  0  0  0  0  0  0
   61.2230   33.0343   47.3252 H   0  0  0  0  0  0  0  0  0  0  0  0
   58.3249   33.0513   47.6861 H   0  0  0  0  0  0  0  0  0  0  0  0
   58.5256   34.3082   46.4139 H   0  0  0  0  0  0  0  0  0  0  0  0
   59.8743   32.9439   45.2344 H   0  0  0  0  0  0  0  0  0  0  0  0
   60.9762   32.7815   46.6569 H   0  0  0  0  0  0  0  0  0  0  0  0
   61.0546   31.7718   48.7645 H   0  0  0  0  0  0  0  0  0  0  0  0
   62.2060   30.8680   50.7590 H   0  0  0  0  0  0  0  0  0  0  0  0
   60.4678   27.6939   50.1607 H   0  0  0  0  0  0  0  0  0  0  0  0
   59.0926   27.1829   48.1214 H   0  0  0  0  0  0  0  0  0  0  0  0
   59.9968   26.4654   45.2688 H   0  0  0  0  0  0  0  0  0  0  0  0
   59.9551   24.0544   45.9038 H   0  0  0  0  0  0  0  0  0  0  0  0
   59.0818   21.3163   46.0251 H   0  0  0  0  0  0  0  0  0  0  0  0
   57.3625   20.7814   46.1673 H   0  0  0  0  0  0  0  0  0  0  0  0
   58.0051   23.0849   44.3251 H   0  0  0  0  0  0  0  0  0  0  0  0
   58.4256   21.4078   43.8024 H   0  0  0  0  0  0  0  0  0  0  0  0
   55.2492   22.7282   42.5660 H   0  0  0  0  0  0  0  0  0  0  0  0
   54.9680   23.3085   44.2793 H   0  0  0  0  0  0  0  0  0  0  0  0
   56.9840   24.5654   44.2872 H   0  0  0  0  0  0  0  0  0  0  0  0
   57.5432   23.8283   42.7475 H   0  0  0  0  0  0  0  0  0  0  0  0
   56.1460   24.9572   42.7475 H   0  0  0  0  0  0  0  0  0  0  0  0
   56.1070   21.3487   46.1272 H   0  0  0  0  0  0  0  0  0  0  0  0
   54.5835   21.4890   45.1487 H   0  0  0  0  0  0  0  0  0  0  0  0
   55.5539   19.1158   45.9935 H   0  0  0  0  0  0  0  0  0  0  0  0
   54.6616   19.3150   44.4473 H   0  0  0  0  0  0  0  0  0  0  0  0
   56.4570   19.2583   44.4473 H   0  0  0  0  0  0  0  0  0  0  0  0
   55.7816   24.4210   47.0002 H   0  0  0  0  0  0  0  0  0  0  0  0
   55.8322   26.8357   46.3863 H   0  0  0  0  0  0  0  0  0  0  0  0
   56.7008   27.8614   43.6380 H   0  0  0  0  0  0  0  0  0  0  0  0
   56.1583   29.8149   41.9120 H   0  0  0  0  0  0  0  0  0  0  0  0
   56.6535   32.3814   41.5458 H   0  0  0  0  0  0  0  0  0  0  0  0
  1  2  1  0
  2  3  1  0
  3  4  1  0
  4  5  1  0
  3  6  1  0
  6  7  1  0
  7  8  1  0
  8  9  1  0
  9 10  1  0
 10 11  1  0
 11 12  1  0
 12 13  2  0
 13 14  1  0
 14 15  1  0
 14 16  2  0
 16 17  1  0
 17 18  2  0
 18 19  1  0
 19 20  2  0
 20 21  1  0
 21 22  2  0
 22 23  1  0
 23 24  2  0
 24 25  1  0
 25 26  1  0
 26 27  1  0
 27 28  1  0
 28 29  1  0
 29 30  1  0
 28 31  1  0
 31 32  1  0
 24 33  1  0
 33 34  2  0
 20 35  1  0
 35 36  2  0
 36 37  1  0
 37 38  2  0
 38 39  1  0
 39 40  1  0
 40 41  2  0
 41 11  1  0
 18 12  1  0
 41 19  1  0
 34 21  1  0
 40 36  1  0
  1 42  1  0
  1 43  1  0
  1 44  1  0
  2 45  1  0
  2 46  1  0
  4 47  1  0
  4 48  1  0
  5 49  1  0
  5 50  1  0
  5 51  1  0
  6 52  1  0
  6 53  1  0
  7 54  1  0
  7 55  1  0
  9 56  1  0
  9 57  1  0
 10 58  1  0
 10 59  1  0
 13 60  1  0
 15 61  1  0
 16 62  1  0
 17 63  1  0
 22 64  1  0
 23 65  1  0
 26 66  1  0
 26 67  1  0
 27 68  1  0
 27 69  1  0
 29 70  1  0
 29 71  1  0
 30 72  1  0
 30 73  1  0
 30 74  1  0
 31 75  1  0
 31 76  1  0
 32 77  1  0
 32 78  1  0
 32 79  1  0
 33 80  1  0
 34 81  1  0
 35 82  1  0
 37 83  1  0
 38 84  1  0
M  END
>  <UniqueID>  (8) 
8

>  <SMILES>  (8) 
CCN(CC)CCOCCn1c2cc(O)ccc2c2c(-c3ccc(OCCN(CC)CC)cc3)cc3ccsc3c21

>  <Energy>  (8) 
169.68464957498537

>  <Genealogy>  (8) 
CCN(CC)CCOCCn1c2cc(O)ccc2c2c(-c3ccc(OCCN(CC)CC)cc3)cc3ccsc3c21 (3D coordinates assigned)
CCN(CC)CCOCCn1c2cc(O)ccc2c2c(-c3ccc(OCCN(CC)CC)cc3)cc3ccsc3c21 (optimized conformer: 169.68464957498537 kcal/mol)

>  <smiles>  (8) 
CCN(CC)CCOCCn1c2cc(O)ccc2c2c(-c3ccc(OCCN(CC)CC)cc3)cc3ccsc3c21

>  <score_type>  (8) 
oracle

>  <origin>  (8) 
adg

>  <m_score__min__energy>  (8) 
-8.5600000000000005

>  <m_primary>  (8) 
energy

$$$$
8:0
     RDKit          3D

 51 54  0  0  1  0  0  0  0  0999 V2000
   56.6550   20.5720   42.9800 C   0  0  0  0  0  0  0  0  0  0  0  0
   56.0250   21.8320   42.9950 O   0  0  0  0  0  0  0  0  0  0  0  0
   56.3990   22.7460   43.9700 C   0  0  0  0  0  0  0  0  0  0  0  0
   56.6770   24.0300   43.5380 C   0  0  0  0  0  0  0  0  0  0  0  0
   57.0550   24.9900   44.4530 C   0  0  0  0  0  0  0  0  0  0  0  0
   57.1710   24.7250   45.8130 C   0  0  0  0  0  0  0  0  0  0  0  0
   57.5840   25.7850   46.7910 C   0  0  0  0  0  0  0  0  0  0  0  0
   56.9370   27.0330   46.5370 N   0  0  0  0  0  0  0  0  0  0  0  0
   57.4930   28.1070   46.0950 C   0  0  0  0  0  0  0  0  0  0  0  0
   57.0120   28.6800   44.9800 N   0  0  0  0  0  0  0  0  0  0  0  0
   57.5650   29.7950   44.4920 C   0  0  0  0  0  0  0  0  0  0  0  0
   57.0460   30.4480   43.2540 C   0  0  0  0  0  0  0  0  0  0  0  0
   58.6230   30.4060   45.0800 N   0  0  0  0  0  0  0  0  0  0  0  0
   59.1370   29.8510   46.2150 C   0  0  0  0  0  0  0  0  0  0  0  0
   58.5690   28.6970   46.7240 C   0  0  0  0  0  0  0  0  0  0  0  0
   59.2640   28.3510   47.8550 C   0  0  0  0  0  0  0  0  0  0  0  0
   60.2240   29.2830   48.0110 N   0  0  0  0  0  0  0  0  0  0  0  0
   60.1500   30.1750   47.0360 N   0  0  0  0  0  0  0  0  0  0  0  0
   61.0060   31.3480   46.8370 C   0  0  0  0  0  0  0  0  0  0  0  0
   60.4600   32.5230   47.5840 C   0  0  1  0  0  0  0  0  0  0  0  0
   61.7950   33.6720   47.8050 Cl  0  0  0  0  0  0  0  0  0  0  0  0
   59.3510   33.1080   46.7760 C   0  0  0  0  0  0  0  0  0  0  0  0
   58.0370   32.9140   47.1690 C   0  0  0  0  0  0  0  0  0  0  0  0
   57.0350   33.4720   46.3950 C   0  0  0  0  0  0  0  0  0  0  0  0
   57.3360   34.1890   45.2810 C   0  0  0  0  0  0  0  0  0  0  0  0
   58.6450   34.3960   44.8670 C   0  0  0  0  0  0  0  0  0  0  0  0
   59.6750   33.8420   45.6340 C   0  0  0  0  0  0  0  0  0  0  0  0
   56.8850   23.4340   46.2040 C   0  0  0  0  0  0  0  0  0  0  0  0
   56.5030   22.4490   45.3020 C   0  0  0  0  0  0  0  0  0  0  0  0
   56.8239   20.2342   44.0131 H   0  0  0  0  0  0  0  0  0  0  0  0
   56.0132   19.8473   42.4576 H   0  0  0  0  0  0  0  0  0  0  0  0
   57.6198   20.6507   42.4576 H   0  0  0  0  0  0  0  0  0  0  0  0
   56.5971   24.2841   42.4707 H   0  0  0  0  0  0  0  0  0  0  0  0
   57.2735   26.0060   44.0925 H   0  0  0  0  0  0  0  0  0  0  0  0
   57.3242   25.4512   47.8064 H   0  0  0  0  0  0  0  0  0  0  0  0
   58.6682   25.9384   46.6860 H   0  0  0  0  0  0  0  0  0  0  0  0
   56.2010   28.2550   44.4850 H   0  0  0  0  0  0  0  0  0  0  0  0
   56.3834   31.2817   43.5294 H   0  0  0  0  0  0  0  0  0  0  0  0
   57.8892   30.8306   42.6602 H   0  0  0  0  0  0  0  0  0  0  0  0
   56.4830   29.7129   42.6602 H   0  0  0  0  0  0  0  0  0  0  0  0
   59.0749   27.4844   48.5055 H   0  0  0  0  0  0  0  0  0  0  0  0
   62.0188   31.1242   47.2032 H   0  0  0  0  0  0  0  0  0  0  0  0
   61.0374   31.5897   45.7643 H   0  0  0  0  0  0  0  0  0  0  0  0
   60.0578   32.2498   48.5707 H   0  0  0  0  0  0  0  0  0  0  0  0
   57.7968   32.3325   48.0713 H   0  0  0  0  0  0  0  0  0  0  0  0
   55.9830   33.3335   46.6849 H   0  0  0  0  0  0  0  0  0  0  0  0
   56.5159   34.6196   44.6877 H   0  0  0  0  0  0  0  0  0  0  0  0
   58.8658   34.9795   43.9610 H   0  0  0  0  0  0  0  0  0  0  0  0
   60.7259   33.9828   45.3412 H   0  0  0  0  0  0  0  0  0  0  0  0
   56.9622   23.1744   47.2701 H   0  0  0  0  0  0  0  0  0  0  0  0
   56.2843   21.4314   45.6579 H   0  0  0  0  0  0  0  0  0  0  0  0
  1  2  1  0
  2  3  1  0
  3  4  2  0
  4  5  1  0
  5  6  2  0
  6  7  1  0
  7  8  1  0
  8  9  2  0
  9 10  1  0
 10 11  1  0
 11 12  1  0
 11 13  2  0
 13 14  1  0
 14 15  2  0
 15 16  1  0
 16 17  2  0
 17 18  1  0
 18 19  1  0
 19 20  1  0
 20 21  1  0
 20 22  1  0
 22 23  2  0
 23 24  1  0
 24 25  2  0
 25 26  1  0
 26 27  2  0
  6 28  1  0
 28 29  2  0
 29  3  1  0
 15  9  1  0
 27 22  1  0
 18 14  1  0
  1 30  1  0
  1 31  1  0
  1 32  1  0
  4 33  1  0
  5 34  1  0
  7 35  1  0
  7 36  1  0
 10 37  1  0
 12 38  1  0
 12 39  1  0
 12 40  1  0
 16 41  1  0
 19 42  1  0
 19 43  1  0
 20 44  1  1
 23 45  1  0
 24 46  1  0
 25 47  1  0
 26 48  1  0
 27 49  1  0
 28 50  1  0
 29 51  1  0
M  END
>  <smiles>  (9) 
COc1ccc(CN=c2[nH]c(C)nc3c2cnn3CC(Cl)c2ccccc2)cc1

>  <score_type>  (9) 
oracle

>  <origin>  (9) 
adg

>  <m_score__min__energy>  (9) 
-9.4399999999999995

>  <m_primary>  (9) 
energy

$$$$
9:0
     RDKit          3D

 41 44  0  0  1  0  0  0  0  0999 V2000
   55.0270   25.1320   45.6220 C   0  0  0  0  0  0  0  0  0  0  0  0
   55.1440   26.5320   45.7640 O   0  0  0  0  0  0  0  0  0  0  0  0
   56.3390   27.1990   45.9870 C   0  0  0  0  0  0  0  0  0  0  0  0
   57.3650   26.7030   46.7510 C   0  0  0  0  0  0  0  0  0  0  0  0
   58.5510   27.3790   46.9660 C   0  0  0  0  0  0  0  0  0  0  0  0
   59.5530   26.8860   47.7160 N   0  0  0  0  0  0  0  0  0  0  0  0
   60.7020   27.5720   47.9070 C   0  0  0  0  0  0  0  0  0  0  0  0
   60.8260   28.7790   47.3220 N   0  0  0  0  0  0  0  0  0  0  0  0
   59.8360   29.3150   46.5550 C   0  0  0  0  0  0  0  0  0  0  0  0
   59.9950   30.4880   46.0050 N   0  0  0  0  0  0  0  0  0  0  0  0
   59.7680   31.6910   46.7380 C   0  0  0  0  0  0  0  0  0  0  0  0
   60.4410   31.9950   47.9020 C   0  0  0  0  0  0  0  0  0  0  0  0
   60.1840   33.1730   48.5720 C   0  0  0  0  0  0  0  0  0  0  0  0
   59.2280   34.0350   48.0340 C   0  0  0  0  0  0  0  0  0  0  0  0
   58.5540   33.7410   46.8810 C   0  0  0  0  0  0  0  0  0  0  0  0
   58.8220   32.5570   46.2170 C   0  0  0  0  0  0  0  0  0  0  0  0
   57.9560   32.4840   44.9950 C   0  0  0  0  0  0  0  0  0  0  0  0
   57.4110   33.8970   44.8920 C   0  0  0  0  0  0  0  0  0  0  0  0
   57.5840   34.4520   46.1940 O   0  0  0  0  0  0  0  0  0  0  0  0
   58.6730   28.6190   46.3620 C   0  0  0  0  0  0  0  0  0  0  0  0
   57.6470   29.1260   45.5920 C   0  0  0  0  0  0  0  0  0  0  0  0
   56.4810   28.4370   45.3950 C   0  0  0  0  0  0  0  0  0  0  0  0
   55.4810   28.9670   44.6260 O   0  0  0  0  0  0  0  0  0  0  0  0
   55.8270   29.8120   43.5490 C   0  0  0  0  0  0  0  0  0  0  0  0
   54.9879   24.6645   46.6170 H   0  0  0  0  0  0  0  0  0  0  0  0
   54.1059   24.8952   45.0692 H   0  0  0  0  0  0  0  0  0  0  0  0
   55.8960   24.7456   45.0692 H   0  0  0  0  0  0  0  0  0  0  0  0
   57.2368   25.7149   47.2171 H   0  0  0  0  0  0  0  0  0  0  0  0
   59.3990   25.9310   48.1520 H   0  0  0  0  0  0  0  0  0  0  0  0
   61.5130   27.1562   48.5229 H   0  0  0  0  0  0  0  0  0  0  0  0
   61.1886   31.2929   48.2995 H   0  0  0  0  0  0  0  0  0  0  0  0
   60.7161   33.4248   49.5012 H   0  0  0  0  0  0  0  0  0  0  0  0
   59.0097   34.9799   48.5531 H   0  0  0  0  0  0  0  0  0  0  0  0
   58.5461   32.2199   44.1050 H   0  0  0  0  0  0  0  0  0  0  0  0
   57.1715   31.7156   45.0594 H   0  0  0  0  0  0  0  0  0  0  0  0
   57.9752   34.4762   44.1462 H   0  0  0  0  0  0  0  0  0  0  0  0
   56.3590   33.9130   44.5711 H   0  0  0  0  0  0  0  0  0  0  0  0
   57.7696   30.1132   45.1224 H   0  0  0  0  0  0  0  0  0  0  0  0
   56.2166   30.7635   43.9400 H   0  0  0  0  0  0  0  0  0  0  0  0
   56.5981   29.3251   42.9340 H   0  0  0  0  0  0  0  0  0  0  0  0
   54.9358   30.0057   42.9340 H   0  0  0  0  0  0  0  0  0  0  0  0
  1  2  1  0
  2  3  1  0
  3  4  2  0
  4  5  1  0
  5  6  1  0
  6  7  1  0
  7  8  2  0
  8  9  1  0
  9 10  2  0
 10 11  1  0
 11 12  2  0
 12 13  1  0
 13 14  2  0
 14 15  1  0
 15 16  2  0
 16 17  1  0
 17 18  1  0
 18 19  1  0
  9 20  1  0
 20 21  1  0
 21 22  2  0
 22 23  1  0
 23 24  1  0
 22  3  1  0
 20  5  2  0
 16 11  1  0
 19 15  1  0
  1 25  1  0
  1 26  1  0
  1 27  1  0
  4 28  1  0
  6 29  1  0
  7 30  1  0
 12 31  1  0
 13 32  1  0
 14 33  1  0
 17 34  1  0
 17 35  1  0
 18 36  1  0
 18 37  1  0
 21 38  1  0
 24 39  1  0
 24 40  1  0
 24 41  1  0
M  END
>  <smiles>  (10) 
COc1cc2[nH]cnc(=Nc3cccc4c3CCO4)c2cc1OC

>  <score_type>  (10) 
oracle

>  <origin>  (10) 
adg

>  <m_score__min__energy>  (10) 
-7.1500000000000004

>  <m_primary>  (10) 
energy

$$$$
10:0
     RDKit          3D

 43 46  0  0  0  0  0  0  0  0999 V2000
   64.8530   33.0850   49.3600 C   0  0  0  0  0  0  0  0  0  0  0  0
   63.5950   32.3830   48.9410 C   0  0  0  0  0  0  0  0  0  0  0  0
   63.1490   32.4640   47.6130 C   0  0  0  0  0  0  0  0  0  0  0  0
   61.9960   31.7810   47.2150 C   0  0  0  0  0  0  0  0  0  0  0  0
   61.2850   31.0000   48.1350 C   0  0  0  0  0  0  0  0  0  0  0  0
   59.8280   30.1570   47.6180 S   0  0  0  0  0  0  0  0  0  0  0  0
   60.1820   29.1590   46.5520 O   0  0  0  0  0  0  0  0  0  0  0  0
   59.2120   29.4150   48.7720 O   0  0  0  0  0  0  0  0  0  0  0  0
   58.6800   31.3110   47.0040 N   0  0  0  0  0  0  0  0  0  0  0  0
   58.2470   32.4440   47.8260 C   0  0  0  0  0  0  0  0  0  0  0  0
   58.3490   33.7830   47.0550 C   0  0  1  0  0  0  0  0  0  0  0  0
   59.6690   34.5090   47.2710 C   0  0  0  0  0  0  0  0  0  0  0  0
   59.8430   35.3520   46.0110 C   0  0  0  0  0  0  0  0  0  0  0  0
   59.0870   34.6030   44.9160 C   0  0  0  0  0  0  0  0  0  0  0  0
   58.2370   33.6410   45.6030 N   0  0  0  0  0  0  0  0  0  0  0  0
   57.8930   32.3920   44.9790 C   0  0  0  0  0  0  0  0  0  0  0  0
   57.3960   32.3450   43.6690 C   0  0  0  0  0  0  0  0  0  0  0  0
   57.1310   31.1110   43.0680 C   0  0  0  0  0  0  0  0  0  0  0  0
   57.3730   29.9240   43.7680 C   0  0  0  0  0  0  0  0  0  0  0  0
   57.8830   29.9690   45.0690 C   0  0  0  0  0  0  0  0  0  0  0  0
   58.1480   31.2060   45.6760 C   0  0  0  0  0  0  0  0  0  0  0  0
   61.7390   30.9030   49.4570 C   0  0  0  0  0  0  0  0  0  0  0  0
   62.8920   31.5860   49.8570 C   0  0  0  0  0  0  0  0  0  0  0  0
   64.9075   33.1154   50.4582 H   0  0  0  0  0  0  0  0  0  0  0  0
   65.7246   32.5428   48.9645 H   0  0  0  0  0  0  0  0  0  0  0  0
   64.8492   34.1114   48.9645 H   0  0  0  0  0  0  0  0  0  0  0  0
   63.7085   33.0670   46.8827 H   0  0  0  0  0  0  0  0  0  0  0  0
   61.6457   31.8572   46.1751 H   0  0  0  0  0  0  0  0  0  0  0  0
   57.2014   32.2857   48.1288 H   0  0  0  0  0  0  0  0  0  0  0  0
   58.9071   32.5027   48.7040 H   0  0  0  0  0  0  0  0  0  0  0  0
   57.5012   34.3499   47.4672 H   0  0  0  0  0  0  0  0  0  0  0  0
   59.6208   35.1485   48.1647 H   0  0  0  0  0  0  0  0  0  0  0  0
   60.5085   33.8173   47.4344 H   0  0  0  0  0  0  0  0  0  0  0  0
   59.4158   36.3551   46.1568 H   0  0  0  0  0  0  0  0  0  0  0  0
   60.9036   35.4913   45.7546 H   0  0  0  0  0  0  0  0  0  0  0  0
   58.4750   35.3020   44.3271 H   0  0  0  0  0  0  0  0  0  0  0  0
   59.7763   34.1058   44.2176 H   0  0  0  0  0  0  0  0  0  0  0  0
   57.2148   33.2778   43.1148 H   0  0  0  0  0  0  0  0  0  0  0  0
   56.7318   31.0732   42.0437 H   0  0  0  0  0  0  0  0  0  0  0  0
   57.1617   28.9541   43.2941 H   0  0  0  0  0  0  0  0  0  0  0  0
   58.0765   29.0348   45.6166 H   0  0  0  0  0  0  0  0  0  0  0  0
   61.1868   30.2877   50.1826 H   0  0  0  0  0  0  0  0  0  0  0  0
   63.2491   31.4980   50.8937 H   0  0  0  0  0  0  0  0  0  0  0  0
  1  2  1  0
  2  3  2  0
  3  4  1  0
  4  5  2  0
  5  6  1  0
  6  7  2  0
  6  8  2  0
  6  9  1  0
  9 10  1  0
 10 11  1  0
 11 12  1  0
 12 13  1  0
 13 14  1  0
 14 15  1  0
 15 16  1  0
 16 17  2  0
 17 18  1  0
 18 19  2  0
 19 20  1  0
 20 21  2  0
  5 22  1  0
 22 23  2  0
 23  2  1  0
 21  9  1  0
 15 11  1  0
 21 16  1  0
  1 24  1  0
  1 25  1  0
  1 26  1  0
  3 27  1  0
  4 28  1  0
 10 29  1  0
 10 30  1  0
 11 31  1  1
 12 32  1  0
 12 33  1  0
 13 34  1  0
 13 35  1  0
 14 36  1  0
 14 37  1  0
 17 38  1  0
 18 39  1  0
 19 40  1  0
 20 41  1  0
 22 42  1  0
 23 43  1  0
M  END
>  <UniqueID>  (11) 
9

>  <SMILES>  (11) 
Cc1ccc(S(=O)(=O)N2C[C@H]3CCCN3c3ccccc32)cc1

>  <Energy>  (11) 
58.31601946993061

>  <Genealogy>  (11) 
Cc1ccc(S(=O)(=O)N2C[C@H]3CCCN3c3ccccc32)cc1 (chirality)
Cc1ccc(S(=O)(=O)N2C[C@H]3CCCN3c3ccccc32)cc1 (3D coordinates assigned)
Cc1ccc(S(=O)(=O)N2C[C@H]3CCCN3c3ccccc32)cc1 (nonaromatic ring conformer: 58.31601946993061 kcal/mol)

>  <smiles>  (11) 
Cc1ccc(S(=O)(=O)N2CC3CCCN3c3ccccc32)cc1

>  <score_type>  (11) 
oracle

>  <origin>  (11) 
adg

>  <m_score__min__energy>  (11) 
-8.0999999999999996

>  <m_primary>  (11) 
energy

$$$$
11:0
     RDKit          3D

 50 52  0  0  0  0  0  0  0  0999 V2000
   62.6110   34.8650   49.6600 C   0  0  0  0  0  0  0  0  0  0  0  0
   62.5590   33.3590   50.0160 C   0  0  0  0  0  0  0  0  0  0  0  0
   63.9220   32.9950   50.6550 C   0  0  0  0  0  0  0  0  0  0  0  0
   61.4470   33.1450   51.0700 C   0  0  0  0  0  0  0  0  0  0  0  0
   62.3250   32.4950   48.7140 C   0  0  0  0  0  0  0  0  0  0  0  0
   61.0270   32.8610   47.9460 C   0  0  0  0  0  0  0  0  0  0  0  0
   60.6480   31.7480   46.9630 C   0  0  0  0  0  0  0  0  0  0  0  0
   60.2670   30.4950   47.6650 N   0  0  0  0  0  0  0  0  0  0  0  0
   60.2620   29.2670   46.8050 C   0  0  2  0  0  0  0  0  0  0  0  0
   59.9830   29.5470   45.2880 C   0  0  0  0  0  0  0  0  0  0  0  0
   58.5090   29.5930   44.9930 C   0  0  0  0  0  0  0  0  0  0  0  0
   57.9410   30.6100   44.2140 C   0  0  0  0  0  0  0  0  0  0  0  0
   56.5750   30.5810   43.9210 C   0  0  0  0  0  0  0  0  0  0  0  0
   55.7780   29.5330   44.3930 C   0  0  0  0  0  0  0  0  0  0  0  0
   56.3400   28.5120   45.1670 C   0  0  0  0  0  0  0  0  0  0  0  0
   55.5320   27.4770   45.6260 O   0  0  0  0  0  0  0  0  0  0  0  0
   57.7130   28.5440   45.4740 C   0  0  0  0  0  0  0  0  0  0  0  0
   58.3850   27.4960   46.3210 C   0  0  0  0  0  0  0  0  0  0  0  0
   59.2600   28.1880   47.3900 C   0  0  2  0  0  0  0  0  0  0  0  0
   58.4030   28.7780   48.3400 O   0  0  0  0  0  0  0  0  0  0  0  0
   61.0290   30.2840   48.9320 C   0  0  0  0  0  0  0  0  0  0  0  0
   62.4150   30.9550   48.9300 C   0  0  0  0  0  0  0  0  0  0  0  0
   62.6315   35.4599   50.5850 H   0  0  0  0  0  0  0  0  0  0  0  0
   63.5168   35.0715   49.0710 H   0  0  0  0  0  0  0  0  0  0  0  0
   61.7216   35.1335   49.0710 H   0  0  0  0  0  0  0  0  0  0  0  0
   63.8313   33.0192   51.7510 H   0  0  0  0  0  0  0  0  0  0  0  0
   64.2197   31.9859   50.3339 H   0  0  0  0  0  0  0  0  0  0  0  0
   64.6831   33.7214   50.3339 H   0  0  0  0  0  0  0  0  0  0  0  0
   61.8773   33.2278   52.0790 H   0  0  0  0  0  0  0  0  0  0  0  0
   60.6668   33.9095   50.9402 H   0  0  0  0  0  0  0  0  0  0  0  0
   61.0062   32.1456   50.9402 H   0  0  0  0  0  0  0  0  0  0  0  0
   63.1794   32.7742   48.0800 H   0  0  0  0  0  0  0  0  0  0  0  0
   60.2079   33.0006   48.6669 H   0  0  0  0  0  0  0  0  0  0  0  0
   61.1998   33.7887   47.3808 H   0  0  0  0  0  0  0  0  0  0  0  0
   59.7976   32.0866   46.3530 H   0  0  0  0  0  0  0  0  0  0  0  0
   61.5257   31.5339   46.3354 H   0  0  0  0  0  0  0  0  0  0  0  0
   61.2856   28.8653   46.8365 H   0  0  0  0  0  0  0  0  0  0  0  0
   60.4315   30.5138   45.0155 H   0  0  0  0  0  0  0  0  0  0  0  0
   60.4249   28.7282   44.7012 H   0  0  0  0  0  0  0  0  0  0  0  0
   58.5690   31.4293   43.8340 H   0  0  0  0  0  0  0  0  0  0  0  0
   56.1257   31.3838   43.3180 H   0  0  0  0  0  0  0  0  0  0  0  0
   54.7044   29.5115   44.1546 H   0  0  0  0  0  0  0  0  0  0  0  0
   57.6212   26.8776   46.8152 H   0  0  0  0  0  0  0  0  0  0  0  0
   59.0158   26.8571   45.6854 H   0  0  0  0  0  0  0  0  0  0  0  0
   59.8999   27.4186   47.8466 H   0  0  0  0  0  0  0  0  0  0  0  0
   58.4070   29.7560   48.1690 H   0  0  0  0  0  0  0  0  0  0  0  0
   60.4421   30.6981   49.7651 H   0  0  0  0  0  0  0  0  0  0  0  0
   61.1921   29.2012   49.0368 H   0  0  0  0  0  0  0  0  0  0  0  0
   62.9034   30.7611   49.8964 H   0  0  0  0  0  0  0  0  0  0  0  0
   62.9933   30.5311   48.0958 H   0  0  0  0  0  0  0  0  0  0  0  0
  1  2  1  0
  2  3  1  0
  2  4  1  0
  2  5  1  0
  5  6  1  0
  6  7  1  0
  7  8  1  0
  8  9  1  0
  9 10  1  0
 10 11  1  0
 11 12  2  0
 12 13  1  0
 13 14  2  0
 14 15  1  0
 15 16  1  0
 15 17  2  0
 17 18  1  0
 18 19  1  0
 19 20  1  0
  8 21  1  0
 21 22  1  0
 22  5  1  0
 19  9  1  0
 17 11  1  0
  1 23  1  0
  1 24  1  0
  1 25  1  0
  3 26  1  0
  3 27  1  0
  3 28  1  0
  4 29  1  0
  4 30  1  0
  4 31  1  0
  5 32  1  0
  6 33  1  0
  6 34  1  0
  7 35  1  0
  7 36  1  0
  9 37  1  6
 10 38  1  0
 10 39  1  0
 12 40  1  0
 13 41  1  0
 14 42  1  0
 18 43  1  0
 18 44  1  0
 19 45  1  1
 20 46  1  0
 21 47  1  0
 21 48  1  0
 22 49  1  0
 22 50  1  0
M  CHG  1  16  -1
M  END
>  <UniqueID>  (12) 
10

>  <SMILES>  (12) 
CC(C)(C)C1CCN([C@@H]2Cc3cccc([O-])c3C[C@@H]2O)CC1

>  <Energy>  (12) 
76.93368993228444

>  <Genealogy>  (12) 
CC(C)(C)C1CCN(C2Cc3cccc([O-])c3CC2O)CC1 (protonated)
CC(C)(C)C1CCN([C@@H]2Cc3cccc([O-])c3C[C@@H]2O)CC1 (chirality)
CC(C)(C)C1CCN([C@@H]2Cc3cccc([O-])c3C[C@@H]2O)CC1 (3D coordinates assigned)
CC(C)(C)C1CCN([C@@H]2Cc3cccc([O-])c3C[C@@H]2O)CC1 (nonaromatic ring conformer: 76.93368993228444 kcal/mol)

>  <smiles>  (12) 
CC(C)(C)C1CCN(C2Cc3cccc(O)c3CC2O)CC1

>  <score_type>  (12) 
oracle

>  <origin>  (12) 
adg

>  <m_score__min__energy>  (12) 
-9.9900000000000002

>  <m_primary>  (12) 
energy

$$$$
12:0
     RDKit          3D

 53 55  0  0  1  0  0  0  0  0999 V2000
   56.1480   30.0500   43.7410 C   0  0  0  0  0  0  0  0  0  0  0  0
   57.0610   31.2190   43.6430 C   0  0  0  0  0  0  0  0  0  0  0  0
   57.6130   31.7200   44.8110 N   0  0  0  0  0  0  0  0  0  0  0  0
   58.6220   30.9330   45.4370 C   0  0  0  0  0  0  0  0  0  0  0  0
   58.6080   31.0960   46.9220 C   0  0  0  0  0  0  0  0  0  0  0  0
   57.1770   32.8010   45.5480 C   0  0  0  0  0  0  0  0  0  0  0  0
   57.5270   34.1360   44.9590 C   0  0  0  0  0  0  0  0  0  0  0  0
   58.9990   34.2900   44.8930 N   0  0  0  0  0  0  0  0  0  0  0  0
   59.7660   34.2000   45.9140 C   0  0  0  0  0  0  0  0  0  0  0  0
   59.2520   34.4750   47.1870 C   0  0  0  0  0  0  0  0  0  0  0  0
   60.1000   34.3840   48.2700 C   0  0  0  0  0  0  0  0  0  0  0  0
   59.5660   34.6640   49.5640 N   0  0  0  0  0  0  0  0  0  0  0  0
   59.2710   33.6920   50.5350 C   0  0  0  0  0  0  0  0  0  0  0  0
   59.0800   33.9390   51.8740 C   0  0  0  0  0  0  0  0  0  0  0  0
   58.7760   32.9160   52.7540 C   0  0  0  0  0  0  0  0  0  0  0  0
   58.6520   31.6030   52.3260 C   0  0  0  0  0  0  0  0  0  0  0  0
   58.8450   31.3360   50.9720 C   0  0  0  0  0  0  0  0  0  0  0  0
   58.7270   29.9350   50.4340 C   0  0  0  0  0  0  0  0  0  0  0  0
   59.1460   32.3800   50.1180 C   0  0  0  0  0  0  0  0  0  0  0  0
   61.4010   34.0330   48.0910 N   0  0  0  0  0  0  0  0  0  0  0  0
   62.1750   33.9630   49.1920 C   0  0  0  0  0  0  0  0  0  0  0  0
   63.5020   33.6090   49.0400 C   0  0  0  0  0  0  0  0  0  0  0  0
   64.0650   33.3260   47.8120 C   0  0  0  0  0  0  0  0  0  0  0  0
   63.2290   33.4100   46.6900 C   0  0  0  0  0  0  0  0  0  0  0  0
   61.8840   33.7680   46.8450 C   0  0  0  0  0  0  0  0  0  0  0  0
   61.0690   33.8500   45.7530 N   0  0  0  0  0  0  0  0  0  0  0  0
   55.9649   29.8155   44.8000 H   0  0  0  0  0  0  0  0  0  0  0  0
   55.1939   30.2875   43.2478 H   0  0  0  0  0  0  0  0  0  0  0  0
   56.6096   29.1819   43.2478 H   0  0  0  0  0  0  0  0  0  0  0  0
   57.8948   30.9272   42.9875 H   0  0  0  0  0  0  0  0  0  0  0  0
   56.4209   32.0337   43.2735 H   0  0  0  0  0  0  0  0  0  0  0  0
   58.4508   29.8742   45.1930 H   0  0  0  0  0  0  0  0  0  0  0  0
   59.6004   31.2703   45.0642 H   0  0  0  0  0  0  0  0  0  0  0  0
   58.6928   30.1089   47.4000 H   0  0  0  0  0  0  0  0  0  0  0  0
   59.4553   31.7264   47.2297 H   0  0  0  0  0  0  0  0  0  0  0  0
   57.6656   31.5727   47.2297 H   0  0  0  0  0  0  0  0  0  0  0  0
   56.0821   32.7395   45.6338 H   0  0  0  0  0  0  0  0  0  0  0  0
   57.6879   32.7439   46.5205 H   0  0  0  0  0  0  0  0  0  0  0  0
   57.1073   34.2081   43.9448 H   0  0  0  0  0  0  0  0  0  0  0  0
   57.1086   34.9315   45.5931 H   0  0  0  0  0  0  0  0  0  0  0  0
   58.1970   34.7568   47.3197 H   0  0  0  0  0  0  0  0  0  0  0  0
   59.3970   35.6830   49.7610 H   0  0  0  0  0  0  0  0  0  0  0  0
   59.1705   34.9680   52.2520 H   0  0  0  0  0  0  0  0  0  0  0  0
   58.6291   33.1497   53.8188 H   0  0  0  0  0  0  0  0  0  0  0  0
   58.4087   30.7967   53.0336 H   0  0  0  0  0  0  0  0  0  0  0  0
   58.6672   29.2244   51.2716 H   0  0  0  0  0  0  0  0  0  0  0  0
   57.8188   29.8538   49.8187 H   0  0  0  0  0  0  0  0  0  0  0  0
   59.6088   29.7030   49.8187 H   0  0  0  0  0  0  0  0  0  0  0  0
   59.2937   32.1554   49.0514 H   0  0  0  0  0  0  0  0  0  0  0  0
   61.7606   34.1823   50.1871 H   0  0  0  0  0  0  0  0  0  0  0  0
   64.1370   33.5502   49.9363 H   0  0  0  0  0  0  0  0  0  0  0  0
   65.1247   33.0464   47.7178 H   0  0  0  0  0  0  0  0  0  0  0  0
   63.6292   33.1948   45.6882 H   0  0  0  0  0  0  0  0  0  0  0  0
  1  2  1  0
  2  3  1  0
  3  4  1  0
  4  5  1  0
  3  6  1  0
  6  7  1  0
  7  8  1  0
  8  9  2  0
  9 10  1  0
 10 11  2  0
 11 12  1  0
 12 13  1  0
 13 14  2  0
 14 15  1  0
 15 16  2  0
 16 17  1  0
 17 18  1  0
 17 19  2  0
 11 20  1  0
 20 21  1  0
 21 22  2  0
 22 23  1  0
 23 24  2  0
 24 25  1  0
 25 26  2  0
 26  9  1  0
 19 13  1  0
 25 20  1  0
  1 27  1  0
  1 28  1  0
  1 29  1  0
  2 30  1  0
  2 31  1  0
  4 32  1  0
  4 33  1  0
  5 34  1  0
  5 35  1  0
  5 36  1  0
  6 37  1  0
  6 38  1  0
  7 39  1  0
  7 40  1  0
 10 41  1  0
 12 42  1  0
 14 43  1  0
 15 44  1  0
 16 45  1  0
 18 46  1  0
 18 47  1  0
 18 48  1  0
 19 49  1  0
 21 50  1  0
 22 51  1  0
 23 52  1  0
 24 53  1  0
M  END
>  <smiles>  (13) 
CCN(CC)CCN=c1cc(Nc2cccc(C)c2)n2ccccc2n1

>  <score_type>  (13) 
oracle

>  <origin>  (13) 
adg

>  <m_score__min__energy>  (13) 
-7.3499999999999996

>  <m_primary>  (13) 
energy

$$$$
13:0
     RDKit          3D

 53 55  0  0  0  0  0  0  0  0999 V2000
   61.8720   30.8950   47.1760 C   0  0  0  0  0  0  0  0  0  0  0  0
   63.2200   31.5690   47.4620 C   0  0  0  0  0  0  0  0  0  0  0  0
   63.1590   32.6270   48.4990 N   0  0  0  0  0  0  0  0  0  0  0  0
   63.0600   34.0050   47.9620 C   0  0  0  0  0  0  0  0  0  0  0  0
   63.2770   34.0400   46.4510 C   0  0  0  0  0  0  0  0  0  0  0  0
   62.1270   32.3610   49.5280 C   0  0  0  0  0  0  0  0  0  0  0  0
   61.4670   33.6710   49.9820 C   0  0  0  0  0  0  0  0  0  0  0  0
   60.0210   33.6410   49.7490 N   0  0  0  0  0  0  0  0  0  0  0  0
   59.4400   32.9760   48.6150 C   0  0  0  0  0  0  0  0  0  0  0  0
   59.0360   31.6450   48.7390 C   0  0  0  0  0  0  0  0  0  0  0  0
   58.5460   30.9440   47.6420 C   0  0  0  0  0  0  0  0  0  0  0  0
   58.4390   31.5530   46.3830 C   0  0  0  0  0  0  0  0  0  0  0  0
   58.0110   30.6890   45.2130 C   0  0  0  0  0  0  0  0  0  0  0  0
   58.3960   29.2480   45.4410 C   0  0  0  0  0  0  0  0  0  0  0  0
   59.7510   28.8690   45.4490 C   0  0  0  0  0  0  0  0  0  0  0  0
   60.1110   27.5320   45.6380 C   0  0  0  0  0  0  0  0  0  0  0  0
   59.1240   26.5640   45.8370 C   0  0  0  0  0  0  0  0  0  0  0  0
   57.7760   26.9320   45.8510 C   0  0  0  0  0  0  0  0  0  0  0  0
   57.4120   28.2680   45.6590 C   0  0  0  0  0  0  0  0  0  0  0  0
   58.8180   32.9170   46.2390 C   0  0  0  0  0  0  0  0  0  0  0  0
   58.7270   33.5870   44.9990 C   0  0  0  0  0  0  0  0  0  0  0  0
   59.1390   34.9120   44.8690 C   0  0  0  0  0  0  0  0  0  0  0  0
   59.6510   35.5970   45.9670 C   0  0  0  0  0  0  0  0  0  0  0  0
   59.7470   34.9660   47.2050 C   0  0  0  0  0  0  0  0  0  0  0  0
   59.3220   33.6300   47.3670 C   0  0  0  0  0  0  0  0  0  0  0  0
   61.3769   30.6474   48.1265 H   0  0  0  0  0  0  0  0  0  0  0  0
   61.2346   31.5805   46.5982 H   0  0  0  0  0  0  0  0  0  0  0  0
   62.0379   29.9738   46.5982 H   0  0  0  0  0  0  0  0  0  0  0  0
   63.9282   30.7969   47.7972 H   0  0  0  0  0  0  0  0  0  0  0  0
   63.5353   32.0574   46.5282 H   0  0  0  0  0  0  0  0  0  0  0  0
   62.0603   34.4045   48.1878 H   0  0  0  0  0  0  0  0  0  0  0  0
   63.8444   34.6142   48.4350 H   0  0  0  0  0  0  0  0  0  0  0  0
   64.3423   34.2118   46.2374 H   0  0  0  0  0  0  0  0  0  0  0  0
   62.9655   33.0800   46.0135 H   0  0  0  0  0  0  0  0  0  0  0  0
   62.6795   34.8534   46.0135 H   0  0  0  0  0  0  0  0  0  0  0  0
   61.3587   31.6962   49.1063 H   0  0  0  0  0  0  0  0  0  0  0  0
   62.6061   31.8855   50.3965 H   0  0  0  0  0  0  0  0  0  0  0  0
   61.6550   33.8146   51.0563 H   0  0  0  0  0  0  0  0  0  0  0  0
   61.8977   34.4993   49.4002 H   0  0  0  0  0  0  0  0  0  0  0  0
   59.4040   34.1850   50.3920 H   0  0  0  0  0  0  0  0  0  0  0  0
   59.1061   31.1448   49.7162 H   0  0  0  0  0  0  0  0  0  0  0  0
   58.2375   29.8952   47.7638 H   0  0  0  0  0  0  0  0  0  0  0  0
   56.9194   30.7562   45.0956 H   0  0  0  0  0  0  0  0  0  0  0  0
   58.5171   31.0494   44.3053 H   0  0  0  0  0  0  0  0  0  0  0  0
   60.5321   29.6301   45.3055 H   0  0  0  0  0  0  0  0  0  0  0  0
   61.1720   27.2419   45.6300 H   0  0  0  0  0  0  0  0  0  0  0  0
   59.4080   25.5113   45.9828 H   0  0  0  0  0  0  0  0  0  0  0  0
   57.0002   26.1693   46.0133 H   0  0  0  0  0  0  0  0  0  0  0  0
   56.3500   28.5539   45.6786 H   0  0  0  0  0  0  0  0  0  0  0  0
   58.3253   33.0556   44.1236 H   0  0  0  0  0  0  0  0  0  0  0  0
   59.0593   35.4180   43.8955 H   0  0  0  0  0  0  0  0  0  0  0  0
   59.9810   36.6405   45.8567 H   0  0  0  0  0  0  0  0  0  0  0  0
   60.1583   35.5146   48.0652 H   0  0  0  0  0  0  0  0  0  0  0  0
  1  2  1  0
  2  3  1  0
  3  4  1  0
  4  5  1  0
  3  6  1  0
  6  7  1  0
  7  8  1  0
  8  9  1  0
  9 10  2  0
 10 11  1  0
 11 12  2  0
 12 13  1  0
 13 14  1  0
 14 15  2  0
 15 16  1  0
 16 17  2  0
 17 18  1  0
 18 19  2  0
 12 20  1  0
 20 21  2  0
 21 22  1  0
 22 23  2  0
 23 24  1  0
 24 25  2  0
 25  9  1  0
 19 14  1  0
 25 20  1  0
  1 26  1  0
  1 27  1  0
  1 28  1  0
  2 29  1  0
  2 30  1  0
  4 31  1  0
  4 32  1  0
  5 33  1  0
  5 34  1  0
  5 35  1  0
  6 36  1  0
  6 37  1  0
  7 38  1  0
  7 39  1  0
  8 40  1  0
 10 41  1  0
 11 42  1  0
 13 43  1  0
 13 44  1  0
 15 45  1  0
 16 46  1  0
 17 47  1  0
 18 48  1  0
 19 49  1  0
 21 50  1  0
 22 51  1  0
 23 52  1  0
 24 53  1  0
M  END
>  <UniqueID>  (14) 
11

>  <SMILES>  (14) 
CCN(CC)CCNc1ccc(Cc2ccccc2)c2ccccc12

>  <Energy>  (14) 
59.7208784588655

>  <Genealogy>  (14) 
CCN(CC)CCNc1ccc(Cc2ccccc2)c2ccccc12 (3D coordinates assigned)
CCN(CC)CCNc1ccc(Cc2ccccc2)c2ccccc12 (optimized conformer: 59.7208784588655 kcal/mol)

>  <smiles>  (14) 
CCN(CC)CCNc1ccc(Cc2ccccc2)c2ccccc12

>  <score_type>  (14) 
oracle

>  <origin>  (14) 
adg

>  <m_score__min__energy>  (14) 
-7.7199999999999998

>  <m_primary>  (14) 
energy

$$$$
14:0
     RDKit          3D

 56 57  0  0  0  0  0  0  0  0999 V2000
   57.4810   32.2910   41.2640 C   0  0  0  0  0  0  0  0  0  0  0  0
   57.6300   31.6580   42.6500 C   0  0  0  0  0  0  0  0  0  0  0  0
   56.7160   30.4390   42.8430 C   0  0  0  0  0  0  0  0  0  0  0  0
   56.7790   29.8860   44.2510 C   0  0  0  0  0  0  0  0  0  0  0  0
   55.7320   29.7070   44.8560 O   0  0  0  0  0  0  0  0  0  0  0  0
   58.0530   29.5820   44.8830 N   0  0  1  0  0  0  0  0  0  0  0  0
   57.9030   29.4570   46.3590 C   0  0  0  0  0  0  0  0  0  0  0  0
   58.7830   30.3770   47.1700 C   0  0  0  0  0  0  0  0  0  0  0  0
   58.9620   30.1430   48.3970 O   0  0  0  0  0  0  0  0  0  0  0  0
   59.4470   31.4800   46.5490 N   0  0  0  0  0  0  0  0  0  0  0  0
   58.8760   32.8220   46.4720 C   0  0  0  0  0  0  0  0  0  0  0  0
   57.5330   32.8210   45.7520 C   0  0  0  0  0  0  0  0  0  0  0  0
   57.4170   34.1930   45.0990 C   0  0  0  0  0  0  0  0  0  0  0  0
   58.8280   34.7810   45.0460 C   0  0  0  0  0  0  0  0  0  0  0  0
   59.7610   33.7330   45.6400 C   0  0  0  0  0  0  0  0  0  0  0  0
   58.6970   28.4230   44.2160 C   0  0  0  0  0  0  0  0  0  0  0  0
   58.4770   27.1230   44.9600 C   0  0  0  0  0  0  0  0  0  0  0  0
   59.2790   26.7870   46.0580 C   0  0  0  0  0  0  0  0  0  0  0  0
   59.0620   25.5960   46.7530 C   0  0  0  0  0  0  0  0  0  0  0  0
   58.0490   24.7070   46.3480 C   0  0  0  0  0  0  0  0  0  0  0  0
   57.7950   23.5050   47.0280 O   0  0  0  0  0  0  0  0  0  0  0  0
   56.6030   23.2290   47.7560 C   0  0  0  0  0  0  0  0  0  0  0  0
   57.2630   25.0190   45.2290 C   0  0  0  0  0  0  0  0  0  0  0  0
   56.2710   24.1060   44.8330 O   0  0  0  0  0  0  0  0  0  0  0  0
   56.2510   23.4290   43.5810 C   0  0  0  0  0  0  0  0  0  0  0  0
   57.4830   26.2250   44.5360 C   0  0  0  0  0  0  0  0  0  0  0  0
   57.2302   33.3565   41.3726 H   0  0  0  0  0  0  0  0  0  0  0  0
   58.4271   32.1914   40.7118 H   0  0  0  0  0  0  0  0  0  0  0  0
   56.6786   31.7799   40.7118 H   0  0  0  0  0  0  0  0  0  0  0  0
   58.6747   31.3396   42.7816 H   0  0  0  0  0  0  0  0  0  0  0  0
   57.3398   32.4137   43.3947 H   0  0  0  0  0  0  0  0  0  0  0  0
   55.6795   30.7372   42.6269 H   0  0  0  0  0  0  0  0  0  0  0  0
   57.0604   29.6504   42.1578 H   0  0  0  0  0  0  0  0  0  0  0  0
   58.6800   30.4050   44.7260 H   0  0  0  0  0  0  0  0  0  0  0  0
   56.8554   29.6736   46.6150 H   0  0  0  0  0  0  0  0  0  0  0  0
   58.2122   28.4325   46.6137 H   0  0  0  0  0  0  0  0  0  0  0  0
   58.7766   33.1655   47.5123 H   0  0  0  0  0  0  0  0  0  0  0  0
   57.5070   32.0291   44.9889 H   0  0  0  0  0  0  0  0  0  0  0  0
   56.7002   32.6280   46.4443 H   0  0  0  0  0  0  0  0  0  0  0  0
   57.0099   34.0946   44.0819 H   0  0  0  0  0  0  0  0  0  0  0  0
   56.7401   34.8450   45.6706 H   0  0  0  0  0  0  0  0  0  0  0  0
   59.1111   34.9942   44.0047 H   0  0  0  0  0  0  0  0  0  0  0  0
   58.8847   35.7253   45.6073 H   0  0  0  0  0  0  0  0  0  0  0  0
   60.2556   33.1620   44.8404 H   0  0  0  0  0  0  0  0  0  0  0  0
   60.5556   34.1926   46.2462 H   0  0  0  0  0  0  0  0  0  0  0  0
   58.2796   28.3236   43.2032 H   0  0  0  0  0  0  0  0  0  0  0  0
   59.7802   28.6131   44.1933 H   0  0  0  0  0  0  0  0  0  0  0  0
   60.0847   27.4657   46.3746 H   0  0  0  0  0  0  0  0  0  0  0  0
   59.6876   25.3505   47.6239 H   0  0  0  0  0  0  0  0  0  0  0  0
   56.8126   23.2775   48.8347 H   0  0  0  0  0  0  0  0  0  0  0  0
   55.8351   23.9731   47.4979 H   0  0  0  0  0  0  0  0  0  0  0  0
   56.2403   22.2231   47.4979 H   0  0  0  0  0  0  0  0  0  0  0  0
   56.2189   22.3428   43.7520 H   0  0  0  0  0  0  0  0  0  0  0  0
   55.3616   23.7370   43.0118 H   0  0  0  0  0  0  0  0  0  0  0  0
   57.1571   23.6840   43.0118 H   0  0  0  0  0  0  0  0  0  0  0  0
   56.8709   26.4663   43.6544 H   0  0  0  0  0  0  0  0  0  0  0  0
  1  2  1  0
  2  3  1  0
  3  4  1  0
  4  5  2  0
  4  6  1  0
  6  7  1  0
  7  8  1  0
  8  9  2  0
  8 10  1  0
 10 11  1  0
 11 12  1  0
 12 13  1  0
 13 14  1  0
 14 15  1  0
  6 16  1  0
 16 17  1  0
 17 18  2  0
 18 19  1  0
 19 20  2  0
 20 21  1  0
 21 22  1  0
 20 23  1  0
 23 24  1  0
 24 25  1  0
 23 26  2  0
 15 11  1  0
 26 17  1  0
  1 27  1  0
  1 28  1  0
  1 29  1  0
  2 30  1  0
  2 31  1  0
  3 32  1  0
  3 33  1  0
  6 34  1  1
  7 35  1  0
  7 36  1  0
 11 37  1  0
 12 38  1  0
 12 39  1  0
 13 40  1  0
 13 41  1  0
 14 42  1  0
 14 43  1  0
 15 44  1  0
 15 45  1  0
 16 46  1  0
 16 47  1  0
 18 48  1  0
 19 49  1  0
 22 50  1  0
 22 51  1  0
 22 52  1  0
 25 53  1  0
 25 54  1  0
 25 55  1  0
 26 56  1  0
M  CHG  2   6   1  10  -1
M  END
>  <UniqueID>  (15) 
12

>  <SMILES>  (15) 
CCCC(=O)[N@@H+](CC(=O)[N-]C1CCCC1)Cc1ccc(OC)c(OC)c1

>  <Energy>  (15) 
49.65818840535904

>  <Genealogy>  (15) 
CCCC(=O)[NH+](CC(=O)[N-]C1CCCC1)Cc1ccc(OC)c(OC)c1 (protonated)
CCCC(=O)[N@@H+](CC(=O)[N-]C1CCCC1)Cc1ccc(OC)c(OC)c1 (chirality)
CCCC(=O)[N@@H+](CC(=O)[N-]C1CCCC1)Cc1ccc(OC)c(OC)c1 (3D coordinates assigned)
CCCC(=O)[N@@H+](CC(=O)[N-]C1CCCC1)Cc1ccc(OC)c(OC)c1 (nonaromatic ring conformer: 49.65818840535904 kcal/mol)

>  <smiles>  (15) 
CCCC(=O)N(CC(=O)NC1CCCC1)Cc1ccc(OC)c(OC)c1

>  <score_type>  (15) 
oracle

>  <origin>  (15) 
adg

>  <m_score__min__energy>  (15) 
-7.5599999999999996

>  <m_primary>  (15) 
energy

$$$$
15:0
     RDKit          3D

 65 67  0  0  0  0  0  0  0  0999 V2000
   60.4420   27.6960   45.6110 C   0  0  0  0  0  0  0  0  0  0  0  0
   60.0150   26.3980   46.1580 N   0  0  0  0  0  0  0  0  0  0  0  0
   60.0000   26.4140   47.6290 C   0  0  0  0  0  0  0  0  0  0  0  0
   58.7580   25.8940   45.5580 C   0  0  0  0  0  0  0  0  0  0  0  0
   57.4680   26.5730   46.0640 C   0  0  0  0  0  0  0  0  0  0  0  0
   57.0360   27.6410   45.1560 N   0  0  0  0  0  0  0  0  0  0  0  0
   57.4400   29.0160   45.2900 C   0  0  0  0  0  0  0  0  0  0  0  0
   57.4540   29.8820   44.1980 C   0  0  0  0  0  0  0  0  0  0  0  0
   57.8860   31.1970   44.3420 C   0  0  0  0  0  0  0  0  0  0  0  0
   58.3240   31.6960   45.5940 C   0  0  0  0  0  0  0  0  0  0  0  0
   58.7820   33.0340   45.7570 C   0  0  0  0  0  0  0  0  0  0  0  0
   58.7790   33.9890   44.7050 C   0  0  0  0  0  0  0  0  0  0  0  0
   59.2570   35.2830   44.9060 C   0  0  0  0  0  0  0  0  0  0  0  0
   59.7460   35.6640   46.1480 C   0  0  0  0  0  0  0  0  0  0  0  0
   59.7540   34.7540   47.2010 C   0  0  0  0  0  0  0  0  0  0  0  0
   59.2700   33.4400   47.0220 C   0  0  0  0  0  0  0  0  0  0  0  0
   59.2650   32.5370   48.0980 C   0  0  0  0  0  0  0  0  0  0  0  0
   59.7340   32.9100   49.2120 O   0  0  0  0  0  0  0  0  0  0  0  0
   58.7600   31.2670   47.9570 N   0  0  0  0  0  0  0  0  0  0  0  0
   58.7330   30.3920   49.1560 C   0  0  0  0  0  0  0  0  0  0  0  0
   59.7060   29.2170   48.9880 C   0  0  0  0  0  0  0  0  0  0  0  0
   61.0900   29.7010   48.5320 C   0  0  0  0  0  0  0  0  0  0  0  0
   61.8390   30.4690   49.6300 C   0  0  0  0  0  0  0  0  0  0  0  0
   62.4390   31.7020   49.0990 N   0  0  0  0  0  0  0  0  0  0  0  0
   62.5640   31.6180   47.6380 C   0  0  0  0  0  0  0  0  0  0  0  0
   63.6060   32.6180   47.1110 C   0  0  0  0  0  0  0  0  0  0  0  0
   63.2850   34.0900   47.4150 C   0  0  0  0  0  0  0  0  0  0  0  0
   62.5520   34.2210   48.6730 N   0  0  0  0  0  0  0  0  0  0  0  0
   58.3270   30.8180   46.7200 C   0  0  0  0  0  0  0  0  0  0  0  0
   57.8910   29.4790   46.5290 C   0  0  0  0  0  0  0  0  0  0  0  0
   60.6688   28.3855   46.4375 H   0  0  0  0  0  0  0  0  0  0  0  0
   61.3413   27.5556   44.9933 H   0  0  0  0  0  0  0  0  0  0  0  0
   59.6350   28.1170   44.9933 H   0  0  0  0  0  0  0  0  0  0  0  0
   60.7055   25.6615   48.0111 H   0  0  0  0  0  0  0  0  0  0  0  0
   60.2969   27.4105   47.9879 H   0  0  0  0  0  0  0  0  0  0  0  0
   58.9864   26.1819   47.9879 H   0  0  0  0  0  0  0  0  0  0  0  0
   58.8167   26.0438   44.4698 H   0  0  0  0  0  0  0  0  0  0  0  0
   58.6819   24.8372   45.8535 H   0  0  0  0  0  0  0  0  0  0  0  0
   56.6704   25.8188   46.1352 H   0  0  0  0  0  0  0  0  0  0  0  0
   57.6731   27.0170   47.0493 H   0  0  0  0  0  0  0  0  0  0  0  0
   56.6480   27.3370   44.2340 H   0  0  0  0  0  0  0  0  0  0  0  0
   57.1205   29.5227   43.2133 H   0  0  0  0  0  0  0  0  0  0  0  0
   57.8875   31.8626   43.4662 H   0  0  0  0  0  0  0  0  0  0  0  0
   58.3931   33.7025   43.7155 H   0  0  0  0  0  0  0  0  0  0  0  0
   59.2466   36.0055   44.0766 H   0  0  0  0  0  0  0  0  0  0  0  0
   60.1270   36.6847   46.2999 H   0  0  0  0  0  0  0  0  0  0  0  0
   60.1416   35.0619   48.1833 H   0  0  0  0  0  0  0  0  0  0  0  0
   59.0244   30.9795   50.0391 H   0  0  0  0  0  0  0  0  0  0  0  0
   57.7151   29.9948   49.2828 H   0  0  0  0  0  0  0  0  0  0  0  0
   59.8080   28.6954   49.9511 H   0  0  0  0  0  0  0  0  0  0  0  0
   59.3040   28.5398   48.2200 H   0  0  0  0  0  0  0  0  0  0  0  0
   61.6908   28.8265   48.2415 H   0  0  0  0  0  0  0  0  0  0  0  0
   60.9401   30.3895   47.6873 H   0  0  0  0  0  0  0  0  0  0  0  0
   61.1324   30.7298   50.4317 H   0  0  0  0  0  0  0  0  0  0  0  0
   62.6443   29.8276   50.0175 H   0  0  0  0  0  0  0  0  0  0  0  0
   61.7730   32.4820   49.3070 H   0  0  0  0  0  0  0  0  0  0  0  0
   62.8731   30.5990   47.3623 H   0  0  0  0  0  0  0  0  0  0  0  0
   61.5893   31.8620   47.1903 H   0  0  0  0  0  0  0  0  0  0  0  0
   64.5767   32.3762   47.5684 H   0  0  0  0  0  0  0  0  0  0  0  0
   63.6107   32.5179   46.0156 H   0  0  0  0  0  0  0  0  0  0  0  0
   64.2259   34.6552   47.4872 H   0  0  0  0  0  0  0  0  0  0  0  0
   62.6573   34.4852   46.6027 H   0  0  0  0  0  0  0  0  0  0  0  0
   63.1050   33.7380   49.4170 H   0  0  0  0  0  0  0  0  0  0  0  0
   61.6570   33.6870   48.5880 H   0  0  0  0  0  0  0  0  0  0  0  0
   57.9091   28.7856   47.3827 H   0  0  0  0  0  0  0  0  0  0  0  0
  1  2  1  0
  2  3  1  0
  2  4  1  0
  4  5  1  0
  5  6  1  0
  6  7  1  0
  7  8  2  0
  8  9  1  0
  9 10  2  0
 10 11  1  0
 11 12  2  0
 12 13  1  0
 13 14  2  0
 14 15  1  0
 15 16  2  0
 16 17  1  0
 17 18  2  0
 17 19  1  0
 19 20  1  0
 20 21  1  0
 21 22  1  0
 22 23  1  0
 23 24  1  0
 24 25  1  0
 25 26  1  0
 26 27  1  0
 27 28  1  0
 19 29  1  0
 29 30  2  0
 30  7  1  0
 29 10  1  0
 16 11  1  0
  1 31  1  0
  1 32  1  0
  1 33  1  0
  3 34  1  0
  3 35  1  0
  3 36  1  0
  4 37  1  0
  4 38  1  0
  5 39  1  0
  5 40  1  0
  6 41  1  0
  8 42  1  0
  9 43  1  0
 12 44  1  0
 13 45  1  0
 14 46  1  0
 15 47  1  0
 20 48  1  0
 20 49  1  0
 21 50  1  0
 21 51  1  0
 22 52  1  0
 22 53  1  0
 23 54  1  0
 23 55  1  0
 24 56  1  0
 25 57  1  0
 25 58  1  0
 26 59  1  0
 26 60  1  0
 27 61  1  0
 27 62  1  0
 28 63  1  0
 28 64  1  0
 30 65  1  0
M  END
>  <UniqueID>  (16) 
13

>  <SMILES>  (16) 
CN(C)CCNc1ccc2c3ccccc3c(=O)n(CCCCNCCCN)c2c1

>  <Energy>  (16) 
81.19803973583954

>  <Genealogy>  (16) 
CN(C)CCNc1ccc2c3ccccc3c(=O)n(CCCCNCCCN)c2c1 (3D coordinates assigned)
CN(C)CCNc1ccc2c3ccccc3c(=O)n(CCCCNCCCN)c2c1 (optimized conformer: 81.19803973583954 kcal/mol)

>  <smiles>  (16) 
CN(C)CCNc1ccc2c3ccccc3c(=O)n(CCCCNCCCN)c2c1

>  <score_type>  (16) 
oracle

>  <origin>  (16) 
adg

>  <m_score__min__energy>  (16) 
-8.2599999999999998

>  <m_primary>  (16) 
energy

$$$$
16:0
     RDKit          3D

 50 51  0  0  0  0  0  0  0  0999 V2000
   56.2630   29.7690   43.4140 C   0  0  0  0  0  0  0  0  0  0  0  0
   56.3770   31.0160   44.2860 C   0  0  0  0  0  0  0  0  0  0  0  0
   57.6280   31.7500   43.9940 N   0  0  0  0  0  0  0  0  0  0  0  0
   58.1990   31.6040   42.6300 C   0  0  0  0  0  0  0  0  0  0  0  0
   57.3990   32.3000   41.5190 C   0  0  0  0  0  0  0  0  0  0  0  0
   57.7040   33.1120   44.5700 C   0  0  0  0  0  0  0  0  0  0  0  0
   58.4460   33.1910   45.9100 C   0  0  0  0  0  0  0  0  0  0  0  0
   58.4120   31.9330   46.5740 O   0  0  0  0  0  0  0  0  0  0  0  0
   59.3940   30.9530   46.3960 C   0  0  0  0  0  0  0  0  0  0  0  0
   60.6140   31.2750   46.3940 O   0  0  0  0  0  0  0  0  0  0  0  0
   58.9960   29.5400   46.2160 C   0  0  0  0  0  0  0  0  0  0  0  0
   59.0950   28.9300   44.9540 C   0  0  0  0  0  0  0  0  0  0  0  0
   58.7140   27.5970   44.7780 C   0  0  0  0  0  0  0  0  0  0  0  0
   58.2150   26.8510   45.8590 C   0  0  0  0  0  0  0  0  0  0  0  0
   57.8390   25.4720   45.7100 N   0  0  0  0  0  0  0  0  0  0  0  0
   56.4800   25.0070   45.6620 C   0  0  0  0  0  0  0  0  0  0  0  0
   55.5320   25.7680   45.9980 O   0  0  0  0  0  0  0  0  0  0  0  0
   56.1760   23.5980   45.2340 C   0  0  1  0  0  0  0  0  0  0  0  0
   55.5740   23.5590   43.8300 C   0  0  0  0  0  0  0  0  0  0  0  0
   56.6420   22.9120   43.0020 C   0  0  0  0  0  0  0  0  0  0  0  0
   57.4600   22.1630   44.0280 C   0  0  0  0  0  0  0  0  0  0  0  0
   57.3630   22.8350   45.2610 O   0  0  0  0  0  0  0  0  0  0  0  0
   58.1400   27.4510   47.1240 C   0  0  0  0  0  0  0  0  0  0  0  0
   58.5190   28.7850   47.3020 C   0  0  0  0  0  0  0  0  0  0  0  0
   56.1817   28.8792   44.0555 H   0  0  0  0  0  0  0  0  0  0  0  0
   55.3682   29.8462   42.7789 H   0  0  0  0  0  0  0  0  0  0  0  0
   57.1570   29.6827   42.7789 H   0  0  0  0  0  0  0  0  0  0  0  0
   55.5183   31.6742   44.0877 H   0  0  0  0  0  0  0  0  0  0  0  0
   56.3880   30.7076   45.3418 H   0  0  0  0  0  0  0  0  0  0  0  0
   59.2143   32.0271   42.6370 H   0  0  0  0  0  0  0  0  0  0  0  0
   58.1785   30.5287   42.3992 H   0  0  0  0  0  0  0  0  0  0  0  0
   56.6420   32.9586   41.9698 H   0  0  0  0  0  0  0  0  0  0  0  0
   58.0805   32.8976   40.8957 H   0  0  0  0  0  0  0  0  0  0  0  0
   56.9015   31.5424   40.8957 H   0  0  0  0  0  0  0  0  0  0  0  0
   58.2231   33.7618   43.8501 H   0  0  0  0  0  0  0  0  0  0  0  0
   56.6689   33.4296   44.7643 H   0  0  0  0  0  0  0  0  0  0  0  0
   59.4927   33.4759   45.7278 H   0  0  0  0  0  0  0  0  0  0  0  0
   57.9535   33.9418   46.5454 H   0  0  0  0  0  0  0  0  0  0  0  0
   59.4754   29.5063   44.0978 H   0  0  0  0  0  0  0  0  0  0  0  0
   58.8054   27.1288   43.7868 H   0  0  0  0  0  0  0  0  0  0  0  0
   58.6010   24.7550   45.7100 H   0  0  0  0  0  0  0  0  0  0  0  0
   55.4383   23.1766   45.9327 H   0  0  0  0  0  0  0  0  0  0  0  0
   54.6508   22.9611   43.8158 H   0  0  0  0  0  0  0  0  0  0  0  0
   55.2933   24.5559   43.4593 H   0  0  0  0  0  0  0  0  0  0  0  0
   56.2066   22.2227   42.2636 H   0  0  0  0  0  0  0  0  0  0  0  0
   57.2335   23.6321   42.4176 H   0  0  0  0  0  0  0  0  0  0  0  0
   57.0734   21.1386   44.1334 H   0  0  0  0  0  0  0  0  0  0  0  0
   58.5114   22.1172   43.7080 H   0  0  0  0  0  0  0  0  0  0  0  0
   57.7799   26.8671   47.9839 H   0  0  0  0  0  0  0  0  0  0  0  0
   58.4436   29.2466   48.2976 H   0  0  0  0  0  0  0  0  0  0  0  0
  1  2  1  0
  2  3  1  0
  3  4  1  0
  4  5  1  0
  3  6  1  0
  6  7  1  0
  7  8  1  0
  8  9  1  0
  9 10  2  0
  9 11  1  0
 11 12  2  0
 12 13  1  0
 13 14  2  0
 14 15  1  0
 15 16  1  0
 16 17  2  0
 16 18  1  0
 18 19  1  0
 19 20  1  0
 20 21  1  0
 21 22  1  0
 14 23  1  0
 23 24  2  0
 24 11  1  0
 22 18  1  0
  1 25  1  0
  1 26  1  0
  1 27  1  0
  2 28  1  0
  2 29  1  0
  4 30  1  0
  4 31  1  0
  5 32  1  0
  5 33  1  0
  5 34  1  0
  6 35  1  0
  6 36  1  0
  7 37  1  0
  7 38  1  0
 12 39  1  0
 13 40  1  0
 15 41  1  0
 18 42  1  1
 19 43  1  0
 19 44  1  0
 20 45  1  0
 20 46  1  0
 21 47  1  0
 21 48  1  0
 23 49  1  0
 24 50  1  0
M  END
>  <UniqueID>  (17) 
14

>  <SMILES>  (17) 
CCN(CC)CCOC(=O)c1ccc(NC(=O)[C@H]2CCCO2)cc1

>  <Energy>  (17) 
53.339617976303614

>  <Genealogy>  (17) 
CCN(CC)CCOC(=O)c1ccc(NC(=O)[C@H]2CCCO2)cc1 (chirality)
CCN(CC)CCOC(=O)c1ccc(NC(=O)[C@H]2CCCO2)cc1 (3D coordinates assigned)
CCN(CC)CCOC(=O)c1ccc(NC(=O)[C@H]2CCCO2)cc1 (nonaromatic ring conformer: 53.339617976303614 kcal/mol)

>  <smiles>  (17) 
CCN(CC)CCOC(=O)c1ccc(NC(=O)C2CCCO2)cc1

>  <score_type>  (17) 
oracle

>  <origin>  (17) 
adg

>  <m_score__min__energy>  (17) 
-6.6699999999999999

>  <m_primary>  (17) 
energy

$$$$
17:0
     RDKit          3D

 42 43  0  0  0  0  0  0  0  0999 V2000
   59.9120   34.3840   45.9620 C   0  0  0  0  0  0  0  0  0  0  0  0
   59.8380   34.6890   47.4570 C   0  0  0  0  0  0  0  0  0  0  0  0
   60.3670   33.5830   48.2680 N   0  0  0  0  0  0  0  0  0  0  0  0
   59.5090   32.8850   49.2350 C   0  0  0  0  0  0  0  0  0  0  0  0
   59.6550   33.4770   50.6340 C   0  0  0  0  0  0  0  0  0  0  0  0
   61.7850   33.3510   48.3020 C   0  0  0  0  0  0  0  0  0  0  0  0
   62.6050   34.1150   49.0770 N   0  0  0  0  0  0  0  0  0  0  0  0
   64.0860   33.4740   48.7210 S   0  0  0  0  0  0  0  0  0  0  0  0
   63.7640   32.2730   47.6410 N   0  0  0  0  0  0  0  0  0  0  0  0
   62.4120   32.3310   47.5310 C   0  0  0  0  0  0  0  0  0  0  0  0
   61.6700   31.4410   46.7470 O   0  0  0  0  0  0  0  0  0  0  0  0
   60.8660   30.3840   47.2640 C   0  0  0  0  0  0  0  0  0  0  0  0
   59.9830   29.7420   46.1790 C   0  0  0  0  0  0  0  0  0  0  0  0
   58.5450   30.0710   46.2790 N   0  0  0  0  0  0  0  0  0  0  0  0
   57.5970   29.0820   45.7320 C   0  0  0  0  0  0  0  0  0  0  0  0
   56.9890   29.5500   44.4060 C   0  0  0  0  0  0  0  0  0  0  0  0
   56.4240   30.8360   44.5510 O   0  0  0  0  0  0  0  0  0  0  0  0
   57.4550   31.7690   44.7880 C   0  0  0  0  0  0  0  0  0  0  0  0
   58.1670   31.4900   46.1200 C   0  0  0  0  0  0  0  0  0  0  0  0
   60.1691   33.3244   45.8162 H   0  0  0  0  0  0  0  0  0  0  0  0
   58.9373   34.5922   45.4966 H   0  0  0  0  0  0  0  0  0  0  0  0
   60.6829   35.0157   45.4966 H   0  0  0  0  0  0  0  0  0  0  0  0
   60.4257   35.5953   47.6647 H   0  0  0  0  0  0  0  0  0  0  0  0
   58.7806   34.8327   47.7241 H   0  0  0  0  0  0  0  0  0  0  0  0
   58.4605   32.9761   48.9149 H   0  0  0  0  0  0  0  0  0  0  0  0
   59.8144   31.8289   49.2712 H   0  0  0  0  0  0  0  0  0  0  0  0
   59.4624   32.6962   51.3845 H   0  0  0  0  0  0  0  0  0  0  0  0
   60.6759   33.8657   50.7629 H   0  0  0  0  0  0  0  0  0  0  0  0
   58.9319   34.2958   50.7629 H   0  0  0  0  0  0  0  0  0  0  0  0
   64.4420   31.6310   47.1750 H   0  0  0  0  0  0  0  0  0  0  0  0
   61.5252   29.6118   47.6872 H   0  0  0  0  0  0  0  0  0  0  0  0
   60.2028   30.8085   48.0321 H   0  0  0  0  0  0  0  0  0  0  0  0
   60.3449   30.0816   45.1973 H   0  0  0  0  0  0  0  0  0  0  0  0
   60.0633   28.6536   46.3166 H   0  0  0  0  0  0  0  0  0  0  0  0
   58.1287   28.1336   45.5649 H   0  0  0  0  0  0  0  0  0  0  0  0
   56.7796   28.9544   46.4569 H   0  0  0  0  0  0  0  0  0  0  0  0
   57.7761   29.5842   43.6383 H   0  0  0  0  0  0  0  0  0  0  0  0
   56.1997   28.8448   44.1064 H   0  0  0  0  0  0  0  0  0  0  0  0
   58.1883   31.7077   43.9704 H   0  0  0  0  0  0  0  0  0  0  0  0
   57.0089   32.7733   44.8373 H   0  0  0  0  0  0  0  0  0  0  0  0
   59.0784   32.1042   46.1671 H   0  0  0  0  0  0  0  0  0  0  0  0
   57.4656   31.7393   46.9298 H   0  0  0  0  0  0  0  0  0  0  0  0
  1  2  1  0
  2  3  1  0
  3  4  1  0
  4  5  1  0
  3  6  1  0
  6  7  2  0
  7  8  1  0
  8  9  1  0
  9 10  2  0
 10 11  1  0
 11 12  1  0
 12 13  1  0
 13 14  1  0
 14 15  1  0
 15 16  1  0
 16 17  1  0
 17 18  1  0
 18 19  1  0
 10  6  1  0
 19 14  1  0
  1 20  1  0
  1 21  1  0
  1 22  1  0
  2 23  1  0
  2 24  1  0
  4 25  1  0
  4 26  1  0
  5 27  1  0
  5 28  1  0
  5 29  1  0
  9 30  1  0
 12 31  1  0
 12 32  1  0
 13 33  1  0
 13 34  1  0
 15 35  1  0
 15 36  1  0
 16 37  1  0
 16 38  1  0
 18 39  1  0
 18 40  1  0
 19 41  1  0
 19 42  1  0
M  CHG  1   9   1
M  END
>  <UniqueID>  (18) 
15

>  <SMILES>  (18) 
CCN(CC)c1ns[nH+]c1OCCN1CCOCC1

>  <Energy>  (18) 
84.4928353275574

>  <Genealogy>  (18) 
CCN(CC)c1ns[nH+]c1OCCN1CCOCC1 (protonated)
CCN(CC)c1ns[nH+]c1OCCN1CCOCC1 (3D coordinates assigned)
CCN(CC)c1ns[nH+]c1OCCN1CCOCC1 (nonaromatic ring conformer: 84.4928353275574 kcal/mol)

>  <smiles>  (18) 
CCN(CC)c1nsnc1OCCN1CCOCC1

>  <score_type>  (18) 
oracle

>  <origin>  (18) 
adg

>  <m_score__min__energy>  (18) 
-4.3499999999999996

>  <m_primary>  (18) 
energy

$$$$
18:0
     RDKit          3D

 49 51  0  0  0  0  0  0  0  0999 V2000
   57.3920   21.1200   42.9790 C   0  0  0  0  0  0  0  0  0  0  0  0
   56.2680   21.9900   43.0670 O   0  0  0  0  0  0  0  0  0  0  0  0
   55.9580   22.7750   44.1880 C   0  0  0  0  0  0  0  0  0  0  0  0
   55.0880   22.3320   45.2020 C   0  0  0  0  0  0  0  0  0  0  0  0
   54.8040   23.1590   46.2920 C   0  0  0  0  0  0  0  0  0  0  0  0
   55.3900   24.4220   46.3890 C   0  0  0  0  0  0  0  0  0  0  0  0
   56.2810   24.8660   45.3980 C   0  0  0  0  0  0  0  0  0  0  0  0
   56.8800   26.1710   45.4560 N   0  0  0  0  0  0  0  0  0  0  0  0
   57.8100   26.5890   46.4740 C   0  0  0  0  0  0  0  0  0  0  0  0
   58.1070   25.8080   47.4190 O   0  0  0  0  0  0  0  0  0  0  0  0
   58.4440   27.9280   46.4230 C   0  0  0  0  0  0  0  0  0  0  0  0
   59.6680   28.1480   47.0690 C   0  0  0  0  0  0  0  0  0  0  0  0
   60.2730   29.4050   47.0270 C   0  0  0  0  0  0  0  0  0  0  0  0
   59.6660   30.4690   46.3330 C   0  0  0  0  0  0  0  0  0  0  0  0
   60.2590   31.7400   46.2710 O   0  0  0  0  0  0  0  0  0  0  0  0
   61.3730   32.1540   47.0560 C   0  0  0  0  0  0  0  0  0  0  0  0
   58.4370   30.2560   45.6750 C   0  0  0  0  0  0  0  0  0  0  0  0
   57.6810   31.6010   44.7880 S   0  0  0  0  0  0  0  0  0  0  0  0
   56.2510   31.2310   44.5100 O   0  0  0  0  0  0  0  0  0  0  0  0
   58.3990   31.7560   43.4760 O   0  0  0  0  0  0  0  0  0  0  0  0
   57.7020   33.1610   45.5840 N   0  0  0  0  0  0  0  0  0  0  0  0
   58.7770   34.0300   45.1050 C   0  0  0  0  0  0  0  0  0  0  0  0
   59.2100   34.8840   46.2830 C   0  0  0  0  0  0  0  0  0  0  0  0
   58.8190   34.0950   47.5160 C   0  0  0  0  0  0  0  0  0  0  0  0
   57.7950   33.0670   47.0450 C   0  0  0  0  0  0  0  0  0  0  0  0
   57.8500   28.9820   45.7120 C   0  0  0  0  0  0  0  0  0  0  0  0
   56.5420   24.0430   44.2920 C   0  0  0  0  0  0  0  0  0  0  0  0
   57.7321   20.8568   43.9915 H   0  0  0  0  0  0  0  0  0  0  0  0
   57.1063   20.2054   42.4388 H   0  0  0  0  0  0  0  0  0  0  0  0
   58.2058   21.6259   42.4388 H   0  0  0  0  0  0  0  0  0  0  0  0
   54.6311   21.3335   45.1363 H   0  0  0  0  0  0  0  0  0  0  0  0
   54.1155   22.8130   47.0771 H   0  0  0  0  0  0  0  0  0  0  0  0
   55.1533   25.0719   47.2444 H   0  0  0  0  0  0  0  0  0  0  0  0
   56.6710   26.8190   44.6640 H   0  0  0  0  0  0  0  0  0  0  0  0
   60.1549   27.3249   47.6125 H   0  0  0  0  0  0  0  0  0  0  0  0
   61.2324   29.5658   47.5406 H   0  0  0  0  0  0  0  0  0  0  0  0
   61.1240   32.0615   48.1234 H   0  0  0  0  0  0  0  0  0  0  0  0
   62.2406   31.5182   46.8254 H   0  0  0  0  0  0  0  0  0  0  0  0
   61.6148   33.2020   46.8254 H   0  0  0  0  0  0  0  0  0  0  0  0
   59.6219   33.4240   44.7460 H   0  0  0  0  0  0  0  0  0  0  0  0
   58.4341   34.6568   44.2686 H   0  0  0  0  0  0  0  0  0  0  0  0
   60.2974   35.0487   46.2601 H   0  0  0  0  0  0  0  0  0  0  0  0
   58.7366   35.8767   46.2650 H   0  0  0  0  0  0  0  0  0  0  0  0
   59.6987   33.5913   47.9432 H   0  0  0  0  0  0  0  0  0  0  0  0
   58.4064   34.7473   48.2997 H   0  0  0  0  0  0  0  0  0  0  0  0
   58.1191   32.0566   47.3348 H   0  0  0  0  0  0  0  0  0  0  0  0
   56.8152   33.2631   47.5050 H   0  0  0  0  0  0  0  0  0  0  0  0
   56.9069   28.8063   45.1738 H   0  0  0  0  0  0  0  0  0  0  0  0
   57.2138   24.3985   43.4968 H   0  0  0  0  0  0  0  0  0  0  0  0
  1  2  1  0
  2  3  1  0
  3  4  2  0
  4  5  1  0
  5  6  2  0
  6  7  1  0
  7  8  1  0
  8  9  1  0
  9 10  2  0
  9 11  1  0
 11 12  2  0
 12 13  1  0
 13 14  2  0
 14 15  1  0
 15 16  1  0
 14 17  1  0
 17 18  1  0
 18 19  2  0
 18 20  2  0
 18 21  1  0
 21 22  1  0
 22 23  1  0
 23 24  1  0
 24 25  1  0
 17 26  2  0
  7 27  2  0
 27  3  1  0
 26 11  1  0
 25 21  1  0
  1 28  1  0
  1 29  1  0
  1 30  1  0
  4 31  1  0
  5 32  1  0
  6 33  1  0
  8 34  1  0
 12 35  1  0
 13 36  1  0
 16 37  1  0
 16 38  1  0
 16 39  1  0
 22 40  1  0
 22 41  1  0
 23 42  1  0
 23 43  1  0
 24 44  1  0
 24 45  1  0
 25 46  1  0
 25 47  1  0
 26 48  1  0
 27 49  1  0
M  END
>  <UniqueID>  (19) 
16

>  <SMILES>  (19) 
COc1cccc(NC(=O)c2ccc(OC)c(S(=O)(=O)N3CCCC3)c2)c1

>  <Energy>  (19) 
59.94260505500103

>  <Genealogy>  (19) 
COc1cccc(NC(=O)c2ccc(OC)c(S(=O)(=O)N3CCCC3)c2)c1 (3D coordinates assigned)
COc1cccc(NC(=O)c2ccc(OC)c(S(=O)(=O)N3CCCC3)c2)c1 (nonaromatic ring conformer: 59.94260505500103 kcal/mol)

>  <smiles>  (19) 
COc1cccc(NC(=O)c2ccc(OC)c(S(=O)(=O)N3CCCC3)c2)c1

>  <score_type>  (19) 
oracle

>  <origin>  (19) 
adg

>  <m_score__min__energy>  (19) 
-8.3800000000000008

>  <m_primary>  (19) 
energy

$$$$
19:0
     RDKit          3D

 56 59  0  0  0  0  0  0  0  0999 V2000
   58.1330   27.0480   42.6110 C   0  0  0  0  0  0  0  0  0  0  0  0
   57.7350   27.7220   43.8000 O   0  0  0  0  0  0  0  0  0  0  0  0
   58.3250   27.5390   45.0620 C   0  0  0  0  0  0  0  0  0  0  0  0
   58.8650   26.2950   45.4420 C   0  0  0  0  0  0  0  0  0  0  0  0
   59.4880   26.1430   46.6780 C   0  0  0  0  0  0  0  0  0  0  0  0
   59.5850   27.2210   47.5540 C   0  0  0  0  0  0  0  0  0  0  0  0
   59.0440   28.4730   47.2070 C   0  0  0  0  0  0  0  0  0  0  0  0
   59.1140   29.5690   48.0850 O   0  0  0  0  0  0  0  0  0  0  0  0
   59.7740   29.5570   49.3470 C   0  0  0  0  0  0  0  0  0  0  0  0
   58.4020   28.6320   45.9580 C   0  0  0  0  0  0  0  0  0  0  0  0
   57.8290   29.9530   45.5980 C   0  0  0  0  0  0  0  0  0  0  0  0
   58.4230   31.1940   45.7430 C   0  0  0  0  0  0  0  0  0  0  0  0
   57.4790   32.0680   45.2440 C   0  0  0  0  0  0  0  0  0  0  0  0
   57.6140   33.5350   45.1650 C   0  0  0  0  0  0  0  0  0  0  0  0
   57.0250   34.1520   44.2320 O   0  0  0  0  0  0  0  0  0  0  0  0
   58.4610   34.2590   46.0920 N   0  0  0  0  0  0  0  0  0  0  0  0
   59.8860   34.2270   45.6690 C   0  0  0  0  0  0  0  0  0  0  0  0
   60.6960   33.1450   46.4090 C   0  0  0  0  0  0  0  0  0  0  0  0
   60.6700   33.3140   47.8910 N   0  0  0  0  0  0  0  0  0  0  0  0
   61.9480   33.8960   48.3980 C   0  0  0  0  0  0  0  0  0  0  0  0
   63.0290   33.8220   47.3080 C   0  0  0  0  0  0  0  0  0  0  0  0
   63.7650   32.4980   47.5090 C   0  0  0  0  0  0  0  0  0  0  0  0
   63.3580   31.9720   48.8790 C   0  0  0  0  0  0  0  0  0  0  0  0
   62.5980   33.1030   49.5440 C   0  0  0  0  0  0  0  0  0  0  0  0
   59.4590   34.0370   48.3590 C   0  0  0  0  0  0  0  0  0  0  0  0
   58.2470   33.7440   47.4650 C   0  0  0  0  0  0  0  0  0  0  0  0
   56.3990   31.3790   44.8310 N   0  0  0  0  0  0  0  0  0  0  0  0
   56.6440   30.1210   45.0550 O   0  0  0  0  0  0  0  0  0  0  0  0
   58.6760   26.1285   42.8750 H   0  0  0  0  0  0  0  0  0  0  0  0
   57.2419   26.7907   42.0196 H   0  0  0  0  0  0  0  0  0  0  0  0
   58.7887   27.7040   42.0196 H   0  0  0  0  0  0  0  0  0  0  0  0
   58.7941   25.4370   44.7573 H   0  0  0  0  0  0  0  0  0  0  0  0
   59.9057   25.1663   46.9638 H   0  0  0  0  0  0  0  0  0  0  0  0
   60.0879   27.0931   48.5239 H   0  0  0  0  0  0  0  0  0  0  0  0
   59.0251   29.5706   50.1526 H   0  0  0  0  0  0  0  0  0  0  0  0
   60.3870   28.6476   49.4316 H   0  0  0  0  0  0  0  0  0  0  0  0
   60.4197   30.4436   49.4316 H   0  0  0  0  0  0  0  0  0  0  0  0
   59.4142   31.4287   46.1582 H   0  0  0  0  0  0  0  0  0  0  0  0
   58.1720   35.2670   46.0850 H   0  0  0  0  0  0  0  0  0  0  0  0
   59.9291   34.0232   44.5889 H   0  0  0  0  0  0  0  0  0  0  0  0
   60.3298   35.2033   45.9138 H   0  0  0  0  0  0  0  0  0  0  0  0
   60.2750   32.1596   46.1604 H   0  0  0  0  0  0  0  0  0  0  0  0
   61.7430   33.2358   46.0842 H   0  0  0  0  0  0  0  0  0  0  0  0
   61.6614   34.9080   48.7201 H   0  0  0  0  0  0  0  0  0  0  0  0
   62.5648   33.8502   46.3111 H   0  0  0  0  0  0  0  0  0  0  0  0
   63.7210   34.6741   47.3784 H   0  0  0  0  0  0  0  0  0  0  0  0
   63.4752   31.7811   46.7267 H   0  0  0  0  0  0  0  0  0  0  0  0
   64.8543   32.6386   47.4478 H   0  0  0  0  0  0  0  0  0  0  0  0
   62.7136   31.0867   48.7739 H   0  0  0  0  0  0  0  0  0  0  0  0
   64.2323   31.6665   49.4725 H   0  0  0  0  0  0  0  0  0  0  0  0
   61.8273   32.7027   50.2191 H   0  0  0  0  0  0  0  0  0  0  0  0
   63.2611   33.7363   50.1517 H   0  0  0  0  0  0  0  0  0  0  0  0
   59.2292   33.7207   49.3872 H   0  0  0  0  0  0  0  0  0  0  0  0
   59.6648   35.1168   48.3175 H   0  0  0  0  0  0  0  0  0  0  0  0
   58.0879   32.6565   47.4202 H   0  0  0  0  0  0  0  0  0  0  0  0
   57.3669   34.2457   47.8935 H   0  0  0  0  0  0  0  0  0  0  0  0
  1  2  1  0
  2  3  1  0
  3  4  2  0
  4  5  1  0
  5  6  2  0
  6  7  1  0
  7  8  1  0
  8  9  1  0
  7 10  2  0
 10 11  1  0
 11 12  2  0
 12 13  1  0
 13 14  1  0
 14 15  2  0
 14 16  1  0
 16 17  1  0
 17 18  1  0
 18 19  1  0
 19 20  1  0
 20 21  1  0
 21 22  1  0
 22 23  1  0
 23 24  1  0
 19 25  1  0
 25 26  1  0
 13 27  2  0
 27 28  1  0
 10  3  1  0
 28 11  1  0
 26 16  1  0
 24 20  1  0
  1 29  1  0
  1 30  1  0
  1 31  1  0
  4 32  1  0
  5 33  1  0
  6 34  1  0
  9 35  1  0
  9 36  1  0
  9 37  1  0
 12 38  1  0
 16 39  1  0
 17 40  1  0
 17 41  1  0
 18 42  1  0
 18 43  1  0
 20 44  1  0
 21 45  1  0
 21 46  1  0
 22 47  1  0
 22 48  1  0
 23 49  1  0
 23 50  1  0
 24 51  1  0
 24 52  1  0
 25 53  1  0
 25 54  1  0
 26 55  1  0
 26 56  1  0
M  CHG  1  16   1
M  END
>  <UniqueID>  (20) 
17

>  <SMILES>  (20) 
COc1cccc(OC)c1-c1cc(C(=O)[NH+]2CCN(C3CCCC3)CC2)no1

>  <Energy>  (20) 
112.9664113851199

>  <Genealogy>  (20) 
COc1cccc(OC)c1-c1cc(C(=O)[NH+]2CCN(C3CCCC3)CC2)no1 (protonated)
COc1cccc(OC)c1-c1cc(C(=O)[NH+]2CCN(C3CCCC3)CC2)no1 (3D coordinates assigned)
COc1cccc(OC)c1-c1cc(C(=O)[NH+]2CCN(C3CCCC3)CC2)no1 (nonaromatic ring conformer: 112.9664113851199 kcal/mol)

>  <smiles>  (20) 
COc1cccc(OC)c1-c1cc(C(=O)N2CCN(C3CCCC3)CC2)no1

>  <score_type>  (20) 
oracle

>  <origin>  (20) 
adg

>  <m_score__min__energy>  (20) 
-7.9699999999999998

>  <m_primary>  (20) 
energy

$$$$
20:0
     RDKit          3D

 48 49  0  0  0  0  0  0  0  0999 V2000
   54.9240   24.4140   45.8640 C   0  0  0  0  0  0  0  0  0  0  0  0
   55.5790   25.4310   46.6140 O   0  0  0  0  0  0  0  0  0  0  0  0
   56.7710   26.0610   46.2250 C   0  0  0  0  0  0  0  0  0  0  0  0
   57.9770   25.3850   46.4360 C   0  0  0  0  0  0  0  0  0  0  0  0
   59.1870   25.9550   46.0370 C   0  0  0  0  0  0  0  0  0  0  0  0
   59.2020   27.2140   45.4330 C   0  0  0  0  0  0  0  0  0  0  0  0
   58.0100   27.9190   45.2340 C   0  0  0  0  0  0  0  0  0  0  0  0
   58.0660   29.1680   44.5330 N   0  0  0  0  0  0  0  0  0  0  0  0
   56.9570   29.9590   44.0910 C   0  0  0  0  0  0  0  0  0  0  0  0
   56.0000   30.2200   44.8680 O   0  0  0  0  0  0  0  0  0  0  0  0
   56.9850   30.5450   42.7110 C   0  0  0  0  0  0  0  0  0  0  0  0
   57.7910   31.7850   42.6430 N   0  0  0  0  0  0  0  0  0  0  0  0
   57.7190   32.3680   41.2930 C   0  0  0  0  0  0  0  0  0  0  0  0
   57.4770   32.7910   43.6910 C   0  0  0  0  0  0  0  0  0  0  0  0
   58.4920   32.8600   44.8050 C   0  0  0  0  0  0  0  0  0  0  0  0
   59.4200   33.7110   44.7590 O   0  0  0  0  0  0  0  0  0  0  0  0
   58.4210   31.9180   45.8870 N   0  0  0  0  0  0  0  0  0  0  0  0
   58.8790   32.1680   47.2300 C   0  0  0  0  0  0  0  0  0  0  0  0
   59.2100   33.4700   47.6550 C   0  0  0  0  0  0  0  0  0  0  0  0
   59.5980   33.7100   48.9740 C   0  0  0  0  0  0  0  0  0  0  0  0
   59.9160   34.9680   49.3690 F   0  0  0  0  0  0  0  0  0  0  0  0
   59.6500   32.6600   49.8900 C   0  0  0  0  0  0  0  0  0  0  0  0
   59.3020   31.3690   49.4940 C   0  0  0  0  0  0  0  0  0  0  0  0
   58.9060   31.1110   48.1660 C   0  0  0  0  0  0  0  0  0  0  0  0
   58.5310   29.8250   47.7440 O   0  0  0  0  0  0  0  0  0  0  0  0
   58.9750   28.6140   48.3480 C   0  0  0  0  0  0  0  0  0  0  0  0
   56.7900   27.3340   45.6230 C   0  0  0  0  0  0  0  0  0  0  0  0
   54.4594   23.6926   46.5522 H   0  0  0  0  0  0  0  0  0  0  0  0
   54.1481   24.8680   45.2301 H   0  0  0  0  0  0  0  0  0  0  0  0
   55.6583   23.8954   45.2301 H   0  0  0  0  0  0  0  0  0  0  0  0
   57.9719   24.3971   46.9198 H   0  0  0  0  0  0  0  0  0  0  0  0
   60.1298   25.4119   46.1985 H   0  0  0  0  0  0  0  0  0  0  0  0
   60.1574   27.6544   45.1115 H   0  0  0  0  0  0  0  0  0  0  0  0
   57.4161   29.8047   42.0211 H   0  0  0  0  0  0  0  0  0  0  0  0
   55.9517   30.7998   42.4327 H   0  0  0  0  0  0  0  0  0  0  0  0
   57.5845   33.4570   41.3706 H   0  0  0  0  0  0  0  0  0  0  0  0
   58.6507   32.1514   40.7499 H   0  0  0  0  0  0  0  0  0  0  0  0
   56.8680   31.9312   40.7499 H   0  0  0  0  0  0  0  0  0  0  0  0
   57.4207   33.7805   43.2137 H   0  0  0  0  0  0  0  0  0  0  0  0
   56.5250   32.4842   44.1489 H   0  0  0  0  0  0  0  0  0  0  0  0
   57.9640   31.0000   45.6840 H   0  0  0  0  0  0  0  0  0  0  0  0
   59.1622   34.3050   46.9406 H   0  0  0  0  0  0  0  0  0  0  0  0
   59.9659   32.8503   50.9263 H   0  0  0  0  0  0  0  0  0  0  0  0
   59.3368   30.5461   50.2231 H   0  0  0  0  0  0  0  0  0  0  0  0
   58.9379   28.7152   49.4427 H   0  0  0  0  0  0  0  0  0  0  0  0
   58.3217   27.7866   48.0339 H   0  0  0  0  0  0  0  0  0  0  0  0
   60.0083   28.4049   48.0339 H   0  0  0  0  0  0  0  0  0  0  0  0
   55.8465   27.8742   45.4558 H   0  0  0  0  0  0  0  0  0  0  0  0
  1  2  1  0
  2  3  1  0
  3  4  2  0
  4  5  1  0
  5  6  2  0
  6  7  1  0
  7  8  1  0
  8  9  1  0
  9 10  2  0
  9 11  1  0
 11 12  1  0
 12 13  1  0
 12 14  1  0
 14 15  1  0
 15 16  2  0
 15 17  1  0
 17 18  1  0
 18 19  2  0
 19 20  1  0
 20 21  1  0
 20 22  2  0
 22 23  1  0
 23 24  2  0
 24 25  1  0
 25 26  1  0
  7 27  2  0
 27  3  1  0
 24 18  1  0
  1 28  1  0
  1 29  1  0
  1 30  1  0
  4 31  1  0
  5 32  1  0
  6 33  1  0
 11 34  1  0
 11 35  1  0
 13 36  1  0
 13 37  1  0
 13 38  1  0
 14 39  1  0
 14 40  1  0
 17 41  1  0
 19 42  1  0
 22 43  1  0
 23 44  1  0
 26 45  1  0
 26 46  1  0
 26 47  1  0
 27 48  1  0
M  CHG  1   8  -1
M  END
>  <UniqueID>  (21) 
18

>  <SMILES>  (21) 
COc1cccc([N-]C(=O)CN(C)CC(=O)Nc2cc(F)ccc2OC)c1

>  <Energy>  (21) 
51.69233864044114

>  <Genealogy>  (21) 
COc1cccc([N-]C(=O)CN(C)CC(=O)Nc2cc(F)ccc2OC)c1 (protonated)
COc1cccc([N-]C(=O)CN(C)CC(=O)Nc2cc(F)ccc2OC)c1 (3D coordinates assigned)
COc1cccc([N-]C(=O)CN(C)CC(=O)Nc2cc(F)ccc2OC)c1 (optimized conformer: 51.69233864044114 kcal/mol)

>  <smiles>  (21) 
COc1cccc(NC(=O)CN(C)CC(=O)Nc2cc(F)ccc2OC)c1

>  <score_type>  (21) 
oracle

>  <origin>  (21) 
adg

>  <m_score__min__energy>  (21) 
-9.4600000000000009

>  <m_primary>  (21) 
energy

$$$$
21:0
     RDKit          3D

 42 44  0  0  0  0  0  0  0  0999 V2000
   59.7060   33.1140   46.7440 C   0  0  0  0  0  0  0  0  0  0  0  0
   61.1560   33.0610   47.1530 C   0  0  0  0  0  0  0  0  0  0  0  0
   62.0860   33.8550   46.4570 C   0  0  0  0  0  0  0  0  0  0  0  0
   63.4410   33.8200   46.7870 C   0  0  0  0  0  0  0  0  0  0  0  0
   63.8890   32.9890   47.8120 C   0  0  0  0  0  0  0  0  0  0  0  0
   62.9830   32.1900   48.5110 C   0  0  0  0  0  0  0  0  0  0  0  0
   61.6120   32.2100   48.1950 C   0  0  0  0  0  0  0  0  0  0  0  0
   60.6780   31.3370   49.0080 C   0  0  0  0  0  0  0  0  0  0  0  0
   60.1110   30.1820   48.1730 C   0  0  0  0  0  0  0  0  0  0  0  0
   60.6160   28.8890   48.6640 N   0  0  0  0  0  0  0  0  0  0  0  0
   60.4540   27.8010   47.6830 C   0  0  0  0  0  0  0  0  0  0  0  0
   60.4250   28.2990   46.2240 C   0  0  0  0  0  0  0  0  0  0  0  0
   59.0310   28.6510   45.7670 C   0  0  0  0  0  0  0  0  0  0  0  0
   58.7760   29.8760   45.1160 C   0  0  0  0  0  0  0  0  0  0  0  0
   57.4800   30.1970   44.6700 C   0  0  0  0  0  0  0  0  0  0  0  0
   56.4130   29.3020   44.8670 C   0  0  0  0  0  0  0  0  0  0  0  0
   55.1280   29.6110   44.4290 O   0  0  0  0  0  0  0  0  0  0  0  0
   56.6670   28.0890   45.5120 C   0  0  0  0  0  0  0  0  0  0  0  0
   55.7220   27.1450   45.7600 N   0  0  0  0  0  0  0  0  0  0  0  0
   56.2660   26.0840   46.3980 C   0  0  0  0  0  0  0  0  0  0  0  0
   55.5950   25.0760   46.7390 O   0  0  0  0  0  0  0  0  0  0  0  0
   57.9200   26.2590   46.6820 S   0  0  0  0  0  0  0  0  0  0  0  0
   57.9500   27.7770   45.9490 C   0  0  0  0  0  0  0  0  0  0  0  0
   59.0721   33.1372   47.6427 H   0  0  0  0  0  0  0  0  0  0  0  0
   59.5267   34.0193   46.1454 H   0  0  0  0  0  0  0  0  0  0  0  0
   59.4611   32.2242   46.1454 H   0  0  0  0  0  0  0  0  0  0  0  0
   61.7409   34.5105   45.6438 H   0  0  0  0  0  0  0  0  0  0  0  0
   64.1567   34.4491   46.2374 H   0  0  0  0  0  0  0  0  0  0  0  0
   64.9579   32.9627   48.0705 H   0  0  0  0  0  0  0  0  0  0  0  0
   63.3450   31.5368   49.3186 H   0  0  0  0  0  0  0  0  0  0  0  0
   61.2322   30.9209   49.8622 H   0  0  0  0  0  0  0  0  0  0  0  0
   59.8371   31.9588   49.3490 H   0  0  0  0  0  0  0  0  0  0  0  0
   59.0132   30.1910   48.2424 H   0  0  0  0  0  0  0  0  0  0  0  0
   60.4280   30.3120   47.1277 H   0  0  0  0  0  0  0  0  0  0  0  0
   61.6200   28.9850   48.9370 H   0  0  0  0  0  0  0  0  0  0  0  0
   61.2938   27.0997   47.7966 H   0  0  0  0  0  0  0  0  0  0  0  0
   59.4851   27.3207   47.8841 H   0  0  0  0  0  0  0  0  0  0  0  0
   61.0603   29.1933   46.1427 H   0  0  0  0  0  0  0  0  0  0  0  0
   60.7938   27.4847   45.5830 H   0  0  0  0  0  0  0  0  0  0  0  0
   59.5987   30.5882   44.9551 H   0  0  0  0  0  0  0  0  0  0  0  0
   57.3001   31.1564   44.1629 H   0  0  0  0  0  0  0  0  0  0  0  0
   54.3580   28.9630   44.5500 H   0  0  0  0  0  0  0  0  0  0  0  0
  1  2  1  0
  2  3  2  0
  3  4  1  0
  4  5  2  0
  5  6  1  0
  6  7  2  0
  7  8  1  0
  8  9  1  0
  9 10  1  0
 10 11  1  0
 11 12  1  0
 12 13  1  0
 13 14  2  0
 14 15  1  0
 15 16  2  0
 16 17  1  0
 16 18  1  0
 18 19  1  0
 19 20  1  0
 20 21  2  0
 20 22  1  0
 22 23  1  0
  7  2  1  0
 23 13  1  0
 23 18  2  0
  1 24  1  0
  1 25  1  0
  1 26  1  0
  3 27  1  0
  4 28  1  0
  5 29  1  0
  6 30  1  0
  8 31  1  0
  8 32  1  0
  9 33  1  0
  9 34  1  0
 10 35  1  0
 11 36  1  0
 11 37  1  0
 12 38  1  0
 12 39  1  0
 14 40  1  0
 15 41  1  0
 17 42  1  0
M  CHG  1  19  -1
M  END
>  <UniqueID>  (22) 
19

>  <SMILES>  (22) 
Cc1ccccc1CCNCCc1ccc(O)c2[n-]c(=O)sc12

>  <Energy>  (22) 
77.88613472744761

>  <Genealogy>  (22) 
Cc1ccccc1CCNCCc1ccc(O)c2[n-]c(=O)sc12 (protonated)
Cc1ccccc1CCNCCc1ccc(O)c2[n-]c(=O)sc12 (3D coordinates assigned)
Cc1ccccc1CCNCCc1ccc(O)c2[n-]c(=O)sc12 (optimized conformer: 77.88613472744761 kcal/mol)

>  <smiles>  (22) 
Cc1ccccc1CCNCCc1ccc(O)c2[nH]c(=O)sc12

>  <score_type>  (22) 
oracle

>  <origin>  (22) 
adg

>  <m_score__min__energy>  (22) 
-11.31

>  <m_primary>  (22) 
energy

$$$$
22:0
     RDKit          3D

 61 66  0  0  0  0  0  0  0  0999 V2000
   65.1850   35.1410   52.5910 C   0  0  0  0  0  0  0  0  0  0  0  0
   64.4580   33.9380   52.3660 O   0  0  0  0  0  0  0  0  0  0  0  0
   63.6450   33.6930   51.2470 C   0  0  0  0  0  0  0  0  0  0  0  0
   62.2430   33.6790   51.3400 C   0  0  0  0  0  0  0  0  0  0  0  0
   61.4450   33.4390   50.2070 C   0  0  0  0  0  0  0  0  0  0  0  0
   59.9190   33.4390   50.2490 C   0  0  1  0  0  0  0  0  0  0  0  0
   59.2860   33.1080   48.9090 C   0  0  0  0  0  0  0  0  0  0  0  0
   59.0710   34.1360   47.9640 C   0  0  0  0  0  0  0  0  0  0  0  0
   58.5630   33.7860   46.7200 C   0  0  0  0  0  0  0  0  0  0  0  0
   58.2850   32.5010   46.3930 C   0  0  0  0  0  0  0  0  0  0  0  0
   58.4900   31.4510   47.2810 C   0  0  0  0  0  0  0  0  0  0  0  0
   58.9900   31.7560   48.5710 C   0  0  0  0  0  0  0  0  0  0  0  0
   59.3260   30.6770   49.5770 C   0  0  2  0  0  0  0  0  0  0  0  0
   58.6880   29.4020   49.2330 N   0  0  0  0  0  0  0  0  0  0  0  0
   59.2560   28.4060   48.3730 C   0  0  0  0  0  0  0  0  0  0  0  0
   59.9230   27.4680   48.8930 O   0  0  0  0  0  0  0  0  0  0  0  0
   59.0980   28.4440   46.9050 C   0  0  0  0  0  0  0  0  0  0  0  0
   60.1330   28.6070   45.9880 C   0  0  0  0  0  0  0  0  0  0  0  0
   59.7120   28.5230   44.6530 C   0  0  0  0  0  0  0  0  0  0  0  0
   58.3530   28.2760   44.5100 C   0  0  0  0  0  0  0  0  0  0  0  0
   57.6770   28.1550   46.0450 S   0  0  0  0  0  0  0  0  0  0  0  0
   58.9020   31.1120   50.9970 C   0  0  2  0  0  0  0  0  0  0  0  0
   57.3620   31.1090   51.1900 C   0  0  0  0  0  0  0  0  0  0  0  0
   57.0580   32.2960   51.8950 O   0  0  0  0  0  0  0  0  0  0  0  0
   58.1590   33.1100   52.0130 C   0  0  0  0  0  0  0  0  0  0  0  0
   58.1210   34.2170   52.6120 O   0  0  0  0  0  0  0  0  0  0  0  0
   59.3890   32.5340   51.4060 C   0  0  2  0  0  0  0  0  0  0  0  0
   57.8090   32.4490   45.0970 O   0  0  0  0  0  0  0  0  0  0  0  0
   57.7880   33.7860   44.5780 C   0  0  0  0  0  0  0  0  0  0  0  0
   58.2790   34.6070   45.6460 O   0  0  0  0  0  0  0  0  0  0  0  0
   62.0790   33.2090   48.9770 C   0  0  0  0  0  0  0  0  0  0  0  0
   63.4820   33.2060   48.8620 C   0  0  0  0  0  0  0  0  0  0  0  0
   64.1010   32.9520   47.6280 O   0  0  0  0  0  0  0  0  0  0  0  0
   63.6490   33.4450   46.3700 C   0  0  0  0  0  0  0  0  0  0  0  0
   64.2710   33.4560   50.0130 C   0  0  0  0  0  0  0  0  0  0  0  0
   65.6800   33.4880   50.0040 O   0  0  0  0  0  0  0  0  0  0  0  0
   66.5560   32.4390   50.4040 C   0  0  0  0  0  0  0  0  0  0  0  0
   65.2875   35.3106   53.6730 H   0  0  0  0  0  0  0  0  0  0  0  0
   66.1833   35.0565   52.1369 H   0  0  0  0  0  0  0  0  0  0  0  0
   64.6460   35.9855   52.1369 H   0  0  0  0  0  0  0  0  0  0  0  0
   61.7626   33.8584   52.3131 H   0  0  0  0  0  0  0  0  0  0  0  0
   59.6043   34.4701   50.4676 H   0  0  0  0  0  0  0  0  0  0  0  0
   59.2996   35.1842   48.2069 H   0  0  0  0  0  0  0  0  0  0  0  0
   58.2703   30.4131   46.9903 H   0  0  0  0  0  0  0  0  0  0  0  0
   60.4159   30.5302   49.5537 H   0  0  0  0  0  0  0  0  0  0  0  0
   61.1781   28.7842   46.2818 H   0  0  0  0  0  0  0  0  0  0  0  0
   60.3947   28.6417   43.7987 H   0  0  0  0  0  0  0  0  0  0  0  0
   57.8122   28.1767   43.5573 H   0  0  0  0  0  0  0  0  0  0  0  0
   59.3871   30.3584   51.6347 H   0  0  0  0  0  0  0  0  0  0  0  0
   56.8540   31.1026   50.2143 H   0  0  0  0  0  0  0  0  0  0  0  0
   57.0251   30.2164   51.7375 H   0  0  0  0  0  0  0  0  0  0  0  0
   60.2701   32.4747   52.0618 H   0  0  0  0  0  0  0  0  0  0  0  0
   58.4400   33.8685   43.6959 H   0  0  0  0  0  0  0  0  0  0  0  0
   56.7808   34.0877   44.2548 H   0  0  0  0  0  0  0  0  0  0  0  0
   61.4659   33.0269   48.0820 H   0  0  0  0  0  0  0  0  0  0  0  0
   62.9138   34.2468   46.5331 H   0  0  0  0  0  0  0  0  0  0  0  0
   64.5041   33.8414   45.8028 H   0  0  0  0  0  0  0  0  0  0  0  0
   63.1801   32.6274   45.8028 H   0  0  0  0  0  0  0  0  0  0  0  0
   66.5948   32.3925   51.5023 H   0  0  0  0  0  0  0  0  0  0  0  0
   66.1855   31.4814   50.0093 H   0  0  0  0  0  0  0  0  0  0  0  0
   67.5643   32.6328   50.0093 H   0  0  0  0  0  0  0  0  0  0  0  0
  1  2  1  0
  2  3  1  0
  3  4  2  0
  4  5  1  0
  5  6  1  0
  6  7  1  0
  7  8  2  0
  8  9  1  0
  9 10  2  0
 10 11  1  0
 11 12  2  0
 12 13  1  0
 13 14  1  0
 14 15  1  0
 15 16  2  0
 15 17  1  0
 17 18  2  0
 18 19  1  0
 19 20  2  0
 20 21  1  0
 13 22  1  0
 22 23  1  0
 23 24  1  0
 24 25  1  0
 25 26  2  0
 25 27  1  0
 10 28  1  0
 28 29  1  0
 29 30  1  0
  5 31  2  0
 31 32  1  0
 32 33  1  0
 33 34  1  0
 32 35  2  0
 35 36  1  0
 36 37  1  0
 35  3  1  0
 27  6  1  0
 12  7  1  0
 21 17  1  0
 27 22  1  0
 30  9  1  0
  1 38  1  0
  1 39  1  0
  1 40  1  0
  4 41  1  0
  6 42  1  1
  8 43  1  0
 11 44  1  0
 13 45  1  1
 18 46  1  0
 19 47  1  0
 20 48  1  0
 22 49  1  1
 23 50  1  0
 23 51  1  0
 27 52  1  1
 29 53  1  0
 29 54  1  0
 31 55  1  0
 34 56  1  0
 34 57  1  0
 34 58  1  0
 37 59  1  0
 37 60  1  0
 37 61  1  0
M  CHG  1  14  -1
M  END
>  <UniqueID>  (23) 
20

>  <SMILES>  (23) 
COc1cc([C@H]2c3cc4c(cc3[C@H]([N-]C(=O)c3cccs3)C3COC(=O)C32)OCO4)cc(OC)c1OC

>  <Energy>  (23) 
144.13265489504604

>  <Genealogy>  (23) 
COc1cc(C2c3cc4c(cc3C([N-]C(=O)c3cccs3)C3COC(=O)C23)OCO4)cc(OC)c1OC (protonated)
COc1cc([C@H]2c3cc4c(cc3[C@H]([N-]C(=O)c3cccs3)C3COC(=O)C32)OCO4)cc(OC)c1OC (chirality)
COc1cc([C@H]2c3cc4c(cc3[C@H]([N-]C(=O)c3cccs3)C3COC(=O)C32)OCO4)cc(OC)c1OC (3D coordinates assigned)
COc1cc([C@H]2c3cc4c(cc3[C@H]([N-]C(=O)c3cccs3)C3COC(=O)C32)OCO4)cc(OC)c1OC (nonaromatic ring conformer: 144.13265489504604 kcal/mol)

>  <smiles>  (23) 
COc1cc(C2c3cc4c(cc3C(NC(=O)c3cccs3)C3COC(=O)C23)OCO4)cc(OC)c1OC

>  <score_type>  (23) 
oracle

>  <origin>  (23) 
adg

>  <m_score__min__energy>  (23) 
-9.0299999999999994

>  <m_primary>  (23) 
energy

$$$$
23:0
     RDKit          3D

 42 43  0  0  0  0  0  0  0  0999 V2000
   57.9740   25.7950   47.4960 C   0  0  0  0  0  0  0  0  0  0  0  0
   58.5090   27.2070   47.2200 C   0  0  0  0  0  0  0  0  0  0  0  0
   58.8970   27.4060   45.7980 N   0  0  0  0  0  0  0  0  0  0  0  0
   60.3530   27.6960   45.6750 C   0  0  0  0  0  0  0  0  0  0  0  0
   60.6890   28.9780   44.8940 C   0  0  0  0  0  0  0  0  0  0  0  0
   58.4600   26.2590   44.9550 C   0  0  0  0  0  0  0  0  0  0  0  0
   58.0370   26.6760   43.5250 C   0  0  0  0  0  0  0  0  0  0  0  0
   57.7600   28.1770   43.4160 C   0  0  0  0  0  0  0  0  0  0  0  0
   57.0150   28.6220   44.5900 N   0  0  0  0  0  0  0  0  0  0  0  0
   56.5210   29.9520   44.7540 C   0  0  0  0  0  0  0  0  0  0  0  0
   55.3090   30.1810   44.5150 O   0  0  0  0  0  0  0  0  0  0  0  0
   57.4030   31.0610   45.1560 C   0  0  0  0  0  0  0  0  0  0  0  0
   57.4260   32.3380   44.5880 C   0  0  0  0  0  0  0  0  0  0  0  0
   58.3360   33.1890   45.2250 C   0  0  0  0  0  0  0  0  0  0  0  0
   58.5930   34.5210   44.8850 C   0  0  0  0  0  0  0  0  0  0  0  0
   59.5380   35.2400   45.6370 C   0  0  0  0  0  0  0  0  0  0  0  0
   60.2090   34.6270   46.7140 C   0  0  0  0  0  0  0  0  0  0  0  0
   59.9440   33.2890   47.0480 C   0  0  0  0  0  0  0  0  0  0  0  0
   59.0040   32.5970   46.2870 C   0  0  0  0  0  0  0  0  0  0  0  0
   58.4850   31.0090   46.4610 S   0  0  0  0  0  0  0  0  0  0  0  0
   57.9123   25.6321   48.5821 H   0  0  0  0  0  0  0  0  0  0  0  0
   56.9733   25.6887   47.0518 H   0  0  0  0  0  0  0  0  0  0  0  0
   58.6530   25.0523   47.0518 H   0  0  0  0  0  0  0  0  0  0  0  0
   57.7265   27.9362   47.4766 H   0  0  0  0  0  0  0  0  0  0  0  0
   59.4115   27.3461   47.8333 H   0  0  0  0  0  0  0  0  0  0  0  0
   58.4030   28.2630   45.4500 H   0  0  0  0  0  0  0  0  0  0  0  0
   60.7699   27.7928   46.6883 H   0  0  0  0  0  0  0  0  0  0  0  0
   60.7891   26.8619   45.1057 H   0  0  0  0  0  0  0  0  0  0  0  0
   60.9026   29.7929   45.6013 H   0  0  0  0  0  0  0  0  0  0  0  0
   61.5711   28.8012   44.2611 H   0  0  0  0  0  0  0  0  0  0  0  0
   59.8335   29.2566   44.2611 H   0  0  0  0  0  0  0  0  0  0  0  0
   59.2930   25.5447   44.8784 H   0  0  0  0  0  0  0  0  0  0  0  0
   57.5774   25.8161   45.4397 H   0  0  0  0  0  0  0  0  0  0  0  0
   58.8452   26.4137   42.8264 H   0  0  0  0  0  0  0  0  0  0  0  0
   57.1062   26.1433   43.2805 H   0  0  0  0  0  0  0  0  0  0  0  0
   58.7135   28.7224   43.3587 H   0  0  0  0  0  0  0  0  0  0  0  0
   57.1684   28.3754   42.5101 H   0  0  0  0  0  0  0  0  0  0  0  0
   56.7992   32.6400   43.7360 H   0  0  0  0  0  0  0  0  0  0  0  0
   58.0656   34.9969   44.0451 H   0  0  0  0  0  0  0  0  0  0  0  0
   59.7552   36.2880   45.3832 H   0  0  0  0  0  0  0  0  0  0  0  0
   60.9450   35.2003   47.2968 H   0  0  0  0  0  0  0  0  0  0  0  0
   60.4634   32.8014   47.8861 H   0  0  0  0  0  0  0  0  0  0  0  0
  1  2  1  0
  2  3  1  0
  3  4  1  0
  4  5  1  0
  3  6  1  0
  6  7  1  0
  7  8  1  0
  8  9  1  0
  9 10  1  0
 10 11  2  0
 10 12  1  0
 12 13  2  0
 13 14  1  0
 14 15  2  0
 15 16  1  0
 16 17  2  0
 17 18  1  0
 18 19  2  0
 19 20  1  0
 20 12  1  0
 19 14  1  0
  1 21  1  0
  1 22  1  0
  1 23  1  0
  2 24  1  0
  2 25  1  0
  3 26  1  0
  4 27  1  0
  4 28  1  0
  5 29  1  0
  5 30  1  0
  5 31  1  0
  6 32  1  0
  6 33  1  0
  7 34  1  0
  7 35  1  0
  8 36  1  0
  8 37  1  0
 13 38  1  0
 15 39  1  0
 16 40  1  0
 17 41  1  0
 18 42  1  0
M  CHG  2   3   1   9  -1
M  END
>  <UniqueID>  (24) 
21

>  <SMILES>  (24) 
CC[NH+](CC)CCC[N-]C(=O)c1cc2ccccc2s1

>  <Energy>  (24) 
78.7209098835473

>  <Genealogy>  (24) 
CC[NH+](CC)CCC[N-]C(=O)c1cc2ccccc2s1 (protonated)
CC[NH+](CC)CCC[N-]C(=O)c1cc2ccccc2s1 (3D coordinates assigned)
CC[NH+](CC)CCC[N-]C(=O)c1cc2ccccc2s1 (optimized conformer: 78.7209098835473 kcal/mol)

>  <smiles>  (24) 
CCN(CC)CCCNC(=O)c1cc2ccccc2s1

>  <score_type>  (24) 
oracle

>  <origin>  (24) 
adg

>  <m_score__min__energy>  (24) 
-6.1799999999999997

>  <m_primary>  (24) 
energy

$$$$
24:0
     RDKit          3D

 50 51  0  0  0  0  0  0  0  0999 V2000
   59.0720   32.2130   50.6560 C   0  0  0  0  0  0  0  0  0  0  0  0
   60.5050   32.4000   50.1740 C   0  0  0  0  0  0  0  0  0  0  0  0
   60.5000   32.9950   48.8110 N   0  0  0  0  0  0  0  0  0  0  0  0
   61.6990   33.8270   48.5700 C   0  0  0  0  0  0  0  0  0  0  0  0
   62.4640   33.3280   47.3460 C   0  0  0  0  0  0  0  0  0  0  0  0
   59.2680   33.7750   48.5580 C   0  0  0  0  0  0  0  0  0  0  0  0
   58.9390   33.7940   47.0860 C   0  0  0  0  0  0  0  0  0  0  0  0
   59.4030   34.8310   46.2630 C   0  0  0  0  0  0  0  0  0  0  0  0
   59.0830   34.8450   44.9050 C   0  0  0  0  0  0  0  0  0  0  0  0
   58.3030   33.8250   44.3550 C   0  0  0  0  0  0  0  0  0  0  0  0
   57.8340   32.7740   45.1650 C   0  0  0  0  0  0  0  0  0  0  0  0
   57.0360   31.7030   44.6270 N   0  0  0  0  0  0  0  0  0  0  0  0
   57.2550   31.0860   43.3170 C   0  0  0  0  0  0  0  0  0  0  0  0
   56.9120   29.5910   43.3340 C   0  0  0  0  0  0  0  0  0  0  0  0
   56.3300   29.1800   44.6520 C   0  0  0  0  0  0  0  0  0  0  0  0
   55.1430   29.4900   44.9310 O   0  0  0  0  0  0  0  0  0  0  0  0
   57.1700   28.5310   45.6150 N   0  0  0  0  0  0  0  0  0  0  0  0
   58.3420   29.0630   46.2470 C   0  0  0  0  0  0  0  0  0  0  0  0
   58.4960   29.0860   47.6460 C   0  0  0  0  0  0  0  0  0  0  0  0
   59.6650   29.6040   48.2160 C   0  0  0  0  0  0  0  0  0  0  0  0
   60.6900   30.0870   47.3970 C   0  0  0  0  0  0  0  0  0  0  0  0
   60.5510   30.0430   46.0070 C   0  0  0  0  0  0  0  0  0  0  0  0
   59.3850   29.5270   45.4360 C   0  0  0  0  0  0  0  0  0  0  0  0
   58.1500   32.7740   46.5330 C   0  0  0  0  0  0  0  0  0  0  0  0
   59.0525   32.2105   51.7558 H   0  0  0  0  0  0  0  0  0  0  0  0
   58.4482   33.0374   50.2801 H   0  0  0  0  0  0  0  0  0  0  0  0
   58.6806   31.2562   50.2801 H   0  0  0  0  0  0  0  0  0  0  0  0
   61.0386   33.0702   50.8639 H   0  0  0  0  0  0  0  0  0  0  0  0
   61.0104   31.4234   50.1441 H   0  0  0  0  0  0  0  0  0  0  0  0
   61.3881   34.8686   48.4018 H   0  0  0  0  0  0  0  0  0  0  0  0
   62.3570   33.7629   49.4492 H   0  0  0  0  0  0  0  0  0  0  0  0
   63.3438   32.7541   47.6724 H   0  0  0  0  0  0  0  0  0  0  0  0
   61.8089   32.6830   46.7420 H   0  0  0  0  0  0  0  0  0  0  0  0
   62.7903   34.1875   46.7420 H   0  0  0  0  0  0  0  0  0  0  0  0
   58.4324   33.3180   49.1084 H   0  0  0  0  0  0  0  0  0  0  0  0
   59.4295   34.8090   48.8966 H   0  0  0  0  0  0  0  0  0  0  0  0
   60.0207   35.6351   46.6894 H   0  0  0  0  0  0  0  0  0  0  0  0
   59.4464   35.6625   44.2649 H   0  0  0  0  0  0  0  0  0  0  0  0
   58.0542   33.8433   43.2837 H   0  0  0  0  0  0  0  0  0  0  0  0
   56.3140   31.2660   45.2450 H   0  0  0  0  0  0  0  0  0  0  0  0
   56.6193   31.5899   42.5740 H   0  0  0  0  0  0  0  0  0  0  0  0
   58.3191   31.1925   43.0595 H   0  0  0  0  0  0  0  0  0  0  0  0
   56.1810   29.3822   42.5390 H   0  0  0  0  0  0  0  0  0  0  0  0
   57.8384   29.0208   43.1711 H   0  0  0  0  0  0  0  0  0  0  0  0
   57.6961   28.6961   48.2927 H   0  0  0  0  0  0  0  0  0  0  0  0
   59.7773   29.6310   49.3099 H   0  0  0  0  0  0  0  0  0  0  0  0
   61.6048   30.5012   47.8461 H   0  0  0  0  0  0  0  0  0  0  0  0
   61.3606   30.4151   45.3619 H   0  0  0  0  0  0  0  0  0  0  0  0
   59.2855   29.4849   44.3413 H   0  0  0  0  0  0  0  0  0  0  0  0
   57.7750   31.9658   47.1781 H   0  0  0  0  0  0  0  0  0  0  0  0
  1  2  1  0
  2  3  1  0
  3  4  1  0
  4  5  1  0
  3  6  1  0
  6  7  1  0
  7  8  2  0
  8  9  1  0
  9 10  2  0
 10 11  1  0
 11 12  1  0
 12 13  1  0
 13 14  1  0
 14 15  1  0
 15 16  2  0
 15 17  1  0
 17 18  1  0
 18 19  2  0
 19 20  1  0
 20 21  2  0
 21 22  1  0
 22 23  2  0
 11 24  2  0
 24  7  1  0
 23 18  1  0
  1 25  1  0
  1 26  1  0
  1 27  1  0
  2 28  1  0
  2 29  1  0
  4 30  1  0
  4 31  1  0
  5 32  1  0
  5 33  1  0
  5 34  1  0
  6 35  1  0
  6 36  1  0
  8 37  1  0
  9 38  1  0
 10 39  1  0
 12 40  1  0
 13 41  1  0
 13 42  1  0
 14 43  1  0
 14 44  1  0
 19 45  1  0
 20 46  1  0
 21 47  1  0
 22 48  1  0
 23 49  1  0
 24 50  1  0
M  CHG  1  17  -1
M  END
>  <UniqueID>  (25) 
22

>  <SMILES>  (25) 
CCN(CC)Cc1cccc(NCCC(=O)[N-]c2ccccc2)c1

>  <Energy>  (25) 
46.93188528652482

>  <Genealogy>  (25) 
CCN(CC)Cc1cccc(NCCC(=O)[N-]c2ccccc2)c1 (protonated)
CCN(CC)Cc1cccc(NCCC(=O)[N-]c2ccccc2)c1 (3D coordinates assigned)
CCN(CC)Cc1cccc(NCCC(=O)[N-]c2ccccc2)c1 (optimized conformer: 46.93188528652482 kcal/mol)

>  <smiles>  (25) 
CCN(CC)Cc1cccc(NCCC(=O)Nc2ccccc2)c1

>  <score_type>  (25) 
oracle

>  <origin>  (25) 
adg

>  <m_score__min__energy>  (25) 
-9.5800000000000001

>  <m_primary>  (25) 
energy

$$$$
25:0
     RDKit          3D

 48 50  0  0  0  0  0  0  0  0999 V2000
   59.3160   33.0780   49.5660 C   0  0  0  0  0  0  0  0  0  0  0  0
   58.6220   31.9860   48.7600 C   0  0  0  0  0  0  0  0  0  0  0  0
   59.2530   30.6150   49.0250 C   0  0  0  0  0  0  0  0  0  0  0  0
   60.0660   30.1880   47.8790 N   0  0  0  0  0  0  0  0  0  0  0  0
   61.2780   30.6440   47.4710 C   0  0  0  0  0  0  0  0  0  0  0  0
   62.1050   31.6440   48.1750 C   0  0  0  0  0  0  0  0  0  0  0  0
   62.4650   31.4660   49.5210 C   0  0  0  0  0  0  0  0  0  0  0  0
   63.2420   32.4290   50.1740 C   0  0  0  0  0  0  0  0  0  0  0  0
   63.6780   33.5650   49.4860 C   0  0  0  0  0  0  0  0  0  0  0  0
   63.3480   33.7350   48.1400 C   0  0  0  0  0  0  0  0  0  0  0  0
   62.5690   32.7760   47.4830 C   0  0  0  0  0  0  0  0  0  0  0  0
   61.6330   30.1140   46.2800 N   0  0  0  0  0  0  0  0  0  0  0  0
   60.6490   29.3030   45.9280 N   0  0  0  0  0  0  0  0  0  0  0  0
   59.7040   29.3520   46.8810 C   0  0  0  0  0  0  0  0  0  0  0  0
   58.1790   28.4060   46.8110 S   0  0  0  0  0  0  0  0  0  0  0  0
   57.8710   28.7830   45.0550 C   0  0  0  0  0  0  0  0  0  0  0  0
   56.5980   29.5590   44.9310 C   0  0  0  0  0  0  0  0  0  0  0  0
   55.5020   29.0110   45.2280 O   0  0  0  0  0  0  0  0  0  0  0  0
   56.6420   30.9120   44.4520 N   0  0  0  0  0  0  0  0  0  0  0  0
   57.4000   31.9950   45.0100 C   0  0  0  0  0  0  0  0  0  0  0  0
   56.7930   33.1840   45.4540 C   0  0  0  0  0  0  0  0  0  0  0  0
   57.5690   34.2080   46.0050 C   0  0  0  0  0  0  0  0  0  0  0  0
   58.9570   34.0560   46.1290 C   0  0  0  0  0  0  0  0  0  0  0  0
   59.7950   35.1400   46.7390 C   0  0  0  0  0  0  0  0  0  0  0  0
   59.5560   32.8560   45.7200 C   0  0  0  0  0  0  0  0  0  0  0  0
   58.7810   31.8330   45.1690 C   0  0  0  0  0  0  0  0  0  0  0  0
   59.1888   32.8779   50.6401 H   0  0  0  0  0  0  0  0  0  0  0  0
   60.3880   33.0903   49.3197 H   0  0  0  0  0  0  0  0  0  0  0  0
   58.8720   34.0538   49.3197 H   0  0  0  0  0  0  0  0  0  0  0  0
   57.5593   31.9524   49.0422 H   0  0  0  0  0  0  0  0  0  0  0  0
   58.7325   32.2192   47.6907 H   0  0  0  0  0  0  0  0  0  0  0  0
   59.8924   30.6782   49.9179 H   0  0  0  0  0  0  0  0  0  0  0  0
   58.4497   29.8802   49.1823 H   0  0  0  0  0  0  0  0  0  0  0  0
   62.1353   30.5674   50.0630 H   0  0  0  0  0  0  0  0  0  0  0  0
   63.5106   32.2918   51.2318 H   0  0  0  0  0  0  0  0  0  0  0  0
   64.2809   34.3248   50.0048 H   0  0  0  0  0  0  0  0  0  0  0  0
   63.7006   34.6234   47.5956 H   0  0  0  0  0  0  0  0  0  0  0  0
   62.3186   32.9087   46.4201 H   0  0  0  0  0  0  0  0  0  0  0  0
   60.6240   28.7400   45.0480 H   0  0  0  0  0  0  0  0  0  0  0  0
   58.7048   29.3789   44.6555 H   0  0  0  0  0  0  0  0  0  0  0  0
   57.7873   27.8451   44.4863 H   0  0  0  0  0  0  0  0  0  0  0  0
   55.7035   33.3084   45.3673 H   0  0  0  0  0  0  0  0  0  0  0  0
   57.0880   35.1377   46.3430 H   0  0  0  0  0  0  0  0  0  0  0  0
   59.7419   35.0713   47.8356 H   0  0  0  0  0  0  0  0  0  0  0  0
   60.8394   35.0226   46.4144 H   0  0  0  0  0  0  0  0  0  0  0  0
   59.4183   36.1212   46.4144 H   0  0  0  0  0  0  0  0  0  0  0  0
   60.6416   32.7196   45.8337 H   0  0  0  0  0  0  0  0  0  0  0  0
   59.2597   30.8928   44.8576 H   0  0  0  0  0  0  0  0  0  0  0  0
  1  2  1  0
  2  3  1  0
  3  4  1  0
  4  5  1  0
  5  6  1  0
  6  7  2  0
  7  8  1  0
  8  9  2  0
  9 10  1  0
 10 11  2  0
  5 12  2  0
 12 13  1  0
 13 14  2  0
 14 15  1  0
 15 16  1  0
 16 17  1  0
 17 18  2  0
 17 19  1  0
 19 20  1  0
 20 21  2  0
 21 22  1  0
 22 23  2  0
 23 24  1  0
 23 25  1  0
 25 26  2  0
 14  4  1  0
 26 20  1  0
 11  6  1  0
  1 27  1  0
  1 28  1  0
  1 29  1  0
  2 30  1  0
  2 31  1  0
  3 32  1  0
  3 33  1  0
  7 34  1  0
  8 35  1  0
  9 36  1  0
 10 37  1  0
 11 38  1  0
 13 39  1  0
 16 40  1  0
 16 41  1  0
 21 42  1  0
 22 43  1  0
 24 44  1  0
 24 45  1  0
 24 46  1  0
 25 47  1  0
 26 48  1  0
M  CHG  2  13   1  19  -1
M  END
>  <UniqueID>  (26) 
23

>  <SMILES>  (26) 
CCCn1c(-c2ccccc2)n[nH+]c1SCC(=O)[N-]c1ccc(C)cc1

>  <Energy>  (26) 
82.75574263495021

>  <Genealogy>  (26) 
CCCn1c(-c2ccccc2)n[nH+]c1SCC(=O)[N-]c1ccc(C)cc1 (protonated)
CCCn1c(-c2ccccc2)n[nH+]c1SCC(=O)[N-]c1ccc(C)cc1 (3D coordinates assigned)
CCCn1c(-c2ccccc2)n[nH+]c1SCC(=O)[N-]c1ccc(C)cc1 (optimized conformer: 82.75574263495021 kcal/mol)

>  <smiles>  (26) 
CCCn1c(SCC(=O)Nc2ccc(C)cc2)nnc1-c1ccccc1

>  <score_type>  (26) 
oracle

>  <origin>  (26) 
adg

>  <m_score__min__energy>  (26) 
-9.0999999999999996

>  <m_primary>  (26) 
energy

$$$$
26:0
     RDKit          3D

 45 48  0  0  0  0  0  0  0  0999 V2000
   58.7300   33.8620   47.1550 C   0  0  0  0  0  0  0  0  0  0  0  0
   59.3050   33.0340   46.1490 O   0  0  0  0  0  0  0  0  0  0  0  0
   58.5690   32.2260   45.2640 C   0  0  0  0  0  0  0  0  0  0  0  0
   58.1500   32.6940   44.0040 C   0  0  0  0  0  0  0  0  0  0  0  0
   57.4100   31.8690   43.1520 C   0  0  0  0  0  0  0  0  0  0  0  0
   57.0730   30.5690   43.5450 C   0  0  0  0  0  0  0  0  0  0  0  0
   56.3230   29.6650   42.6110 C   0  0  0  0  0  0  0  0  0  0  0  0
   57.5050   30.0900   44.7900 C   0  0  0  0  0  0  0  0  0  0  0  0
   58.2350   30.9170   45.6610 C   0  0  0  0  0  0  0  0  0  0  0  0
   58.6910   30.4220   46.9310 N   0  0  0  0  0  0  0  0  0  0  0  0
   58.5430   29.0570   47.3540 C   0  0  0  0  0  0  0  0  0  0  0  0
   58.0140   28.2010   46.5940 O   0  0  0  0  0  0  0  0  0  0  0  0
   58.9220   28.6620   48.7470 C   0  0  0  0  0  0  0  0  0  0  0  0
   59.2130   29.8570   49.5380 N   0  0  0  0  0  0  0  0  0  0  0  0
   58.5140   30.3480   50.5870 C   0  0  0  0  0  0  0  0  0  0  0  0
   57.4140   29.7210   51.1610 O   0  0  0  0  0  0  0  0  0  0  0  0
   59.0430   31.5660   50.9860 C   0  0  0  0  0  0  0  0  0  0  0  0
   60.0700   31.8330   50.1560 N   0  0  0  0  0  0  0  0  0  0  0  0
   60.8960   32.9080   50.0830 C   0  0  0  0  0  0  0  0  0  0  0  0
   60.7850   33.8590   50.9060 O   0  0  0  0  0  0  0  0  0  0  0  0
   61.8690   32.9260   49.0630 C   0  0  0  0  0  0  0  0  0  0  0  0
   62.7680   33.9940   48.8990 C   0  0  0  0  0  0  0  0  0  0  0  0
   63.7090   33.9650   47.8670 C   0  0  0  0  0  0  0  0  0  0  0  0
   63.7630   32.8770   46.9890 C   0  0  0  0  0  0  0  0  0  0  0  0
   62.8770   31.8070   47.1390 C   0  0  0  0  0  0  0  0  0  0  0  0
   61.9280   31.8190   48.1670 C   0  0  0  0  0  0  0  0  0  0  0  0
   61.0610   30.7730   48.3020 N   0  0  0  0  0  0  0  0  0  0  0  0
   60.1460   30.8000   49.3020 C   0  0  0  0  0  0  0  0  0  0  0  0
   58.9998   33.4735   48.1481 H   0  0  0  0  0  0  0  0  0  0  0  0
   59.1107   34.8883   47.0470 H   0  0  0  0  0  0  0  0  0  0  0  0
   57.6353   33.8637   47.0470 H   0  0  0  0  0  0  0  0  0  0  0  0
   58.4067   33.7158   43.6878 H   0  0  0  0  0  0  0  0  0  0  0  0
   57.0911   32.2435   42.1681 H   0  0  0  0  0  0  0  0  0  0  0  0
   55.7276   28.9474   43.1945 H   0  0  0  0  0  0  0  0  0  0  0  0
   55.6546   30.2660   41.9769 H   0  0  0  0  0  0  0  0  0  0  0  0
   57.0370   29.1190   41.9769 H   0  0  0  0  0  0  0  0  0  0  0  0
   57.2704   29.0574   45.0878 H   0  0  0  0  0  0  0  0  0  0  0  0
   59.0310   31.1180   47.6320 H   0  0  0  0  0  0  0  0  0  0  0  0
   58.0898   28.1113   49.2098 H   0  0  0  0  0  0  0  0  0  0  0  0
   59.8160   28.0220   48.7129 H   0  0  0  0  0  0  0  0  0  0  0  0
   58.6921   32.1929   51.8190 H   0  0  0  0  0  0  0  0  0  0  0  0
   62.7305   34.8537   49.5842 H   0  0  0  0  0  0  0  0  0  0  0  0
   64.4116   34.8024   47.7439 H   0  0  0  0  0  0  0  0  0  0  0  0
   64.5057   32.8639   46.1777 H   0  0  0  0  0  0  0  0  0  0  0  0
   62.9257   30.9532   46.4472 H   0  0  0  0  0  0  0  0  0  0  0  0
  1  2  1  0
  2  3  1  0
  3  4  2  0
  4  5  1  0
  5  6  2  0
  6  7  1  0
  6  8  1  0
  8  9  2  0
  9 10  1  0
 10 11  1  0
 11 12  2  0
 11 13  1  0
 13 14  1  0
 14 15  1  0
 15 16  1  0
 15 17  2  0
 17 18  1  0
 18 19  1  0
 19 20  2  0
 19 21  1  0
 21 22  2  0
 22 23  1  0
 23 24  2  0
 24 25  1  0
 25 26  2  0
 26 27  1  0
 27 28  2  0
  9  3  1  0
 28 14  1  0
 28 18  1  0
 26 21  1  0
  1 29  1  0
  1 30  1  0
  1 31  1  0
  4 32  1  0
  5 33  1  0
  7 34  1  0
  7 35  1  0
  7 36  1  0
  8 37  1  0
 10 38  1  0
 13 39  1  0
 13 40  1  0
 17 41  1  0
 22 42  1  0
 23 43  1  0
 24 44  1  0
 25 45  1  0
M  CHG  1  16  -1
M  END
>  <UniqueID>  (27) 
24

>  <SMILES>  (27) 
COc1ccc(C)cc1NC(=O)Cn1c([O-])cn2c(=O)c3ccccc3nc12

>  <Energy>  (27) 
91.48944908731073

>  <Genealogy>  (27) 
COc1ccc(C)cc1NC(=O)Cn1c([O-])cn2c(=O)c3ccccc3nc12 (protonated)
COc1ccc(C)cc1NC(=O)Cn1c([O-])cn2c(=O)c3ccccc3nc12 (3D coordinates assigned)
COc1ccc(C)cc1NC(=O)Cn1c([O-])cn2c(=O)c3ccccc3nc12 (optimized conformer: 91.48944908731073 kcal/mol)

>  <smiles>  (27) 
COc1ccc(C)cc1NC(=O)Cn1c(O)cn2c(=O)c3ccccc3nc12

>  <score_type>  (27) 
oracle

>  <origin>  (27) 
adg

>  <m_score__min__energy>  (27) 
-9.7300000000000004

>  <m_primary>  (27) 
energy

$$$$
27:0
     RDKit          3D

 41 43  0  0  0  0  0  0  0  0999 V2000
   58.6535   31.0559   43.0554 H   0  0  0  0  0  0  0  0  0  0  0  0
   58.3560   30.9840   44.1120 C   0  0  0  0  0  0  0  0  0  0  0  0
   57.9130   29.7960   44.5560 C   0  0  0  0  0  0  0  0  0  0  0  0
   58.8700   28.8160   44.8540 O   0  0  0  0  0  0  0  0  0  0  0  0
   58.5270   27.5540   45.3540 C   0  0  0  0  0  0  0  0  0  0  0  0
   59.5360   26.6270   45.6420 C   0  0  0  0  0  0  0  0  0  0  0  0
   60.5900   26.8923   45.4729 H   0  0  0  0  0  0  0  0  0  0  0  0
   59.2060   25.3650   46.1440 C   0  0  0  0  0  0  0  0  0  0  0  0
   60.0007   24.6389   46.3704 H   0  0  0  0  0  0  0  0  0  0  0  0
   57.8660   25.0240   46.3590 C   0  0  0  0  0  0  0  0  0  0  0  0
   57.6089   24.0300   46.7538 H   0  0  0  0  0  0  0  0  0  0  0  0
   56.8540   25.9440   46.0730 C   0  0  0  0  0  0  0  0  0  0  0  0
   55.8014   25.6736   46.2433 H   0  0  0  0  0  0  0  0  0  0  0  0
   57.1790   27.2120   45.5690 C   0  0  0  0  0  0  0  0  0  0  0  0
   56.1480   28.1620   45.2690 N   0  0  0  0  0  0  0  0  0  0  0  0
   55.1450   27.9120   45.4200 H   0  0  0  0  0  0  0  0  0  0  0  0
   56.4810   29.4530   44.7500 C   0  0  0  0  0  0  0  0  0  0  0  0
   55.5570   30.2590   44.4600 O   0  0  0  0  0  0  0  0  0  0  0  0
   58.4720   32.2010   44.9420 C   0  0  0  0  0  0  0  0  0  0  0  0
   57.7570   33.3340   44.5300 C   0  0  0  0  0  0  0  0  0  0  0  0
   57.1414   33.2965   43.6192 H   0  0  0  0  0  0  0  0  0  0  0  0
   57.8280   34.5060   45.2760 C   0  0  0  0  0  0  0  0  0  0  0  0
   57.2627   35.3958   44.9619 H   0  0  0  0  0  0  0  0  0  0  0  0
   58.6170   34.5480   46.4210 C   0  0  0  0  0  0  0  0  0  0  0  0
   58.6751   35.4678   47.0214 H   0  0  0  0  0  0  0  0  0  0  0  0
   59.3340   33.4130   46.8010 C   0  0  0  0  0  0  0  0  0  0  0  0
   59.9599   33.4457   47.7050 H   0  0  0  0  0  0  0  0  0  0  0  0
   59.2710   32.2580   46.0660 N   0  0  0  0  0  0  0  0  0  0  0  0
   60.1020   31.1190   46.5090 C   0  0  0  0  0  0  0  0  0  0  0  0
   61.1612   31.3633   46.3402 H   0  0  0  0  0  0  0  0  0  0  0  0
   59.8055   30.2320   45.9300 H   0  0  0  0  0  0  0  0  0  0  0  0
   59.8930   30.8100   48.0020 C   0  0  0  0  0  0  0  0  0  0  0  0
   59.5154   31.7183   48.4944 H   0  0  0  0  0  0  0  0  0  0  0  0
   60.8660   30.4875   48.4012 H   0  0  0  0  0  0  0  0  0  0  0  0
   58.9000   29.6670   48.2670 C   0  0  0  0  0  0  0  0  0  0  0  0
   58.2749   29.5290   47.3725 H   0  0  0  0  0  0  0  0  0  0  0  0
   58.2976   29.9459   49.1441 H   0  0  0  0  0  0  0  0  0  0  0  0
   59.5970   28.3440   48.5860 C   0  0  0  0  0  0  0  0  0  0  0  0
   59.6633   28.2182   49.6768 H   0  0  0  0  0  0  0  0  0  0  0  0
   59.0200   27.5124   48.1554 H   0  0  0  0  0  0  0  0  0  0  0  0
   60.6092   28.3497   48.1554 H   0  0  0  0  0  0  0  0  0  0  0  0
  1  2  1  0
  2  3  2  0
  3  4  1  0
  4  5  1  0
  5  6  2  0
  6  7  1  0
  6  8  1  0
  8  9  1  0
  8 10  2  0
 10 11  1  0
 10 12  1  0
 12 13  1  0
 12 14  2  0
 14 15  1  0
 15 16  1  0
 15 17  1  0
 17 18  2  0
  2 19  1  0
 19 20  2  0
 20 21  1  0
 20 22  1  0
 22 23  1  0
 22 24  2  0
 24 25  1  0
 24 26  1  0
 26 27  1  0
 26 28  2  0
 28 29  1  0
 29 30  1  0
 29 31  1  0
 29 32  1  0
 32 33  1  0
 32 34  1  0
 32 35  1  0
 35 36  1  0
 35 37  1  0
 35 38  1  0
 38 39  1  0
 38 40  1  0
 38 41  1  0
 17  3  1  0
 28 19  1  0
 14  5  1  0
M  CHG  1  28   1
M  END
>  <UniqueID>  (28) 
25

>  <SMILES>  (28) 
CCCC[n+]1ccccc1/C=C1/Oc2ccccc2NC1=O

>  <Energy>  (28) 
48.91038334967259

>  <Genealogy>  (28) 
CCCC[n+]1ccccc1/C=C1/Oc2ccccc2NC1=O (cis-trans isomerization)
CCCC[n+]1ccccc1/C=C1/Oc2ccccc2NC1=O (3D coordinates assigned)
CCCC[n+]1ccccc1/C=C1/Oc2ccccc2NC1=O (nonaromatic ring conformer: 48.91038334967259 kcal/mol)

>  <smiles>  (28) 
CCCC[n+]1ccccc1C=C1Oc2ccccc2NC1=O

>  <score_type>  (28) 
oracle

>  <origin>  (28) 
adg

>  <m_score__min__energy>  (28) 
-6.1799999999999997

>  <m_primary>  (28) 
energy

$$$$
28:0
     RDKit          3D

 46 49  0  0  0  0  0  0  0  0999 V2000
   68.3300   28.1960   51.4560 C   0  0  0  0  0  0  0  0  0  0  0  0
   67.8590   29.3980   52.0580 O   0  0  0  0  0  0  0  0  0  0  0  0
   66.8220   30.1890   51.5420 C   0  0  0  0  0  0  0  0  0  0  0  0
   67.0630   31.3210   50.7430 C   0  0  0  0  0  0  0  0  0  0  0  0
   65.9950   32.0770   50.2520 C   0  0  0  0  0  0  0  0  0  0  0  0
   64.6670   31.7200   50.5470 C   0  0  0  0  0  0  0  0  0  0  0  0
   63.5470   32.5360   50.0160 C   0  0  0  0  0  0  0  0  0  0  0  0
   63.3860   33.8490   50.2880 N   0  0  0  0  0  0  0  0  0  0  0  0
   62.3100   34.2050   49.6500 O   0  0  0  0  0  0  0  0  0  0  0  0
   61.8110   33.1740   49.0100 C   0  0  0  0  0  0  0  0  0  0  0  0
   60.5820   33.2160   48.1460 C   0  0  0  0  0  0  0  0  0  0  0  0
   59.9080   34.5960   48.2330 C   0  0  0  0  0  0  0  0  0  0  0  0
   58.5980   34.5930   47.4300 C   0  0  0  0  0  0  0  0  0  0  0  0
   58.7490   33.8790   46.1540 N   0  0  0  0  0  0  0  0  0  0  0  0
   57.5780   33.6080   45.3640 C   0  0  0  0  0  0  0  0  0  0  0  0
   56.6450   34.4550   45.3230 O   0  0  0  0  0  0  0  0  0  0  0  0
   57.4240   32.3330   44.6410 C   0  0  0  0  0  0  0  0  0  0  0  0
   57.6450   32.1380   43.2910 C   0  0  0  0  0  0  0  0  0  0  0  0
   57.3630   30.8100   43.0560 C   0  0  0  0  0  0  0  0  0  0  0  0
   56.9850   30.2770   44.2710 C   0  0  0  0  0  0  0  0  0  0  0  0
   57.0290   31.2100   45.1960 O   0  0  0  0  0  0  0  0  0  0  0  0
   60.0950   33.5920   45.6400 C   0  0  0  0  0  0  0  0  0  0  0  0
   60.9260   32.8280   46.6840 C   0  0  0  0  0  0  0  0  0  0  0  0
   62.5670   32.0800   49.2080 N   0  0  0  0  0  0  0  0  0  0  0  0
   64.4340   30.5870   51.3470 C   0  0  0  0  0  0  0  0  0  0  0  0
   65.5030   29.8320   51.8380 C   0  0  0  0  0  0  0  0  0  0  0  0
   68.6111   27.4785   52.2410 H   0  0  0  0  0  0  0  0  0  0  0  0
   67.5351   27.7630   50.8311 H   0  0  0  0  0  0  0  0  0  0  0  0
   69.2075   28.4183   50.8311 H   0  0  0  0  0  0  0  0  0  0  0  0
   68.0963   31.6125   50.5035 H   0  0  0  0  0  0  0  0  0  0  0  0
   66.1952   32.9606   49.6282 H   0  0  0  0  0  0  0  0  0  0  0  0
   59.8609   32.4737   48.5189 H   0  0  0  0  0  0  0  0  0  0  0  0
   59.6894   34.8289   49.2856 H   0  0  0  0  0  0  0  0  0  0  0  0
   60.5855   35.3555   47.8156 H   0  0  0  0  0  0  0  0  0  0  0  0
   57.8153   34.0997   48.0250 H   0  0  0  0  0  0  0  0  0  0  0  0
   58.3253   35.6360   47.2113 H   0  0  0  0  0  0  0  0  0  0  0  0
   57.9769   32.8870   42.5569 H   0  0  0  0  0  0  0  0  0  0  0  0
   57.4265   30.2813   42.0935 H   0  0  0  0  0  0  0  0  0  0  0  0
   56.6914   29.2305   44.4400 H   0  0  0  0  0  0  0  0  0  0  0  0
   60.0106   32.9813   44.7290 H   0  0  0  0  0  0  0  0  0  0  0  0
   60.5980   34.5445   45.4169 H   0  0  0  0  0  0  0  0  0  0  0  0
   60.7423   31.7510   46.5562 H   0  0  0  0  0  0  0  0  0  0  0  0
   61.9808   33.0914   46.5168 H   0  0  0  0  0  0  0  0  0  0  0  0
   62.4160   31.1250   48.8160 H   0  0  0  0  0  0  0  0  0  0  0  0
   63.4020   30.2925   51.5883 H   0  0  0  0  0  0  0  0  0  0  0  0
   65.3047   28.9488   52.4630 H   0  0  0  0  0  0  0  0  0  0  0  0
  1  2  1  0
  2  3  1  0
  3  4  2  0
  4  5  1  0
  5  6  2  0
  6  7  1  0
  7  8  2  0
  8  9  1  0
  9 10  1  0
 10 11  1  0
 11 12  1  0
 12 13  1  0
 13 14  1  0
 14 15  1  0
 15 16  2  0
 15 17  1  0
 17 18  2  0
 18 19  1  0
 19 20  2  0
 20 21  1  0
 14 22  1  0
 22 23  1  0
 10 24  2  0
  6 25  1  0
 25 26  2  0
 26  3  1  0
 24  7  1  0
 23 11  1  0
 21 17  1  0
  1 27  1  0
  1 28  1  0
  1 29  1  0
  4 30  1  0
  5 31  1  0
 11 32  1  0
 12 33  1  0
 12 34  1  0
 13 35  1  0
 13 36  1  0
 18 37  1  0
 19 38  1  0
 20 39  1  0
 22 40  1  0
 22 41  1  0
 23 42  1  0
 23 43  1  0
 24 44  1  0
 25 45  1  0
 26 46  1  0
M  CHG  1  24   1
M  END
>  <UniqueID>  (29) 
26

>  <SMILES>  (29) 
COc1ccc(-c2noc(C3CCN(C(=O)c4ccco4)CC3)[nH+]2)cc1

>  <Energy>  (29) 
114.12111408708338

>  <Genealogy>  (29) 
COc1ccc(-c2noc(C3CCN(C(=O)c4ccco4)CC3)[nH+]2)cc1 (protonated)
COc1ccc(-c2noc(C3CCN(C(=O)c4ccco4)CC3)[nH+]2)cc1 (3D coordinates assigned)
COc1ccc(-c2noc(C3CCN(C(=O)c4ccco4)CC3)[nH+]2)cc1 (nonaromatic ring conformer: 114.12111408708338 kcal/mol)

>  <smiles>  (29) 
COc1ccc(-c2noc(C3CCN(C(=O)c4ccco4)CC3)n2)cc1

>  <score_type>  (29) 
oracle

>  <origin>  (29) 
adg

>  <m_score__min__energy>  (29) 
-6.29

>  <m_primary>  (29) 
energy

$$$$
29:0
     RDKit          3D

 31 32  0  0  0  0  0  0  0  0999 V2000
   56.6840   26.4080   46.0220 C   0  0  0  0  0  0  0  0  0  0  0  0
   57.4490   27.7300   46.1590 C   0  0  0  0  0  0  0  0  0  0  0  0
   57.5840   28.5300   44.8440 C   0  0  2  0  0  0  0  0  0  0  0  0
   59.0000   29.1080   44.6160 C   0  0  0  0  0  0  0  0  0  0  0  0
   58.8930   30.6380   44.7790 C   0  0  0  0  0  0  0  0  0  0  0  0
   57.4730   30.9390   44.7780 N   0  0  0  0  0  0  0  0  0  0  0  0
   56.9130   32.2860   44.8750 C   0  0  0  0  0  0  0  0  0  0  0  0
   57.8640   33.1870   45.6110 C   0  0  0  0  0  0  0  0  0  0  0  0
   58.6570   34.1160   44.9210 C   0  0  0  0  0  0  0  0  0  0  0  0
   59.5550   34.9240   45.6200 C   0  0  0  0  0  0  0  0  0  0  0  0
   59.6560   34.7910   47.0080 C   0  0  0  0  0  0  0  0  0  0  0  0
   58.8890   33.8810   47.6620 N   0  0  0  0  0  0  0  0  0  0  0  0
   58.0070   33.0830   47.0030 C   0  0  0  0  0  0  0  0  0  0  0  0
   56.7260   29.7380   44.8280 C   0  0  0  0  0  0  0  0  0  0  0  0
   55.4670   29.7100   44.8650 O   0  0  0  0  0  0  0  0  0  0  0  0
   56.4547   26.0117   47.0222 H   0  0  0  0  0  0  0  0  0  0  0  0
   55.7469   26.5818   45.4728 H   0  0  0  0  0  0  0  0  0  0  0  0
   57.3017   25.6822   45.4728 H   0  0  0  0  0  0  0  0  0  0  0  0
   56.9209   28.3585   46.8911 H   0  0  0  0  0  0  0  0  0  0  0  0
   58.4704   27.4699   46.4738 H   0  0  0  0  0  0  0  0  0  0  0  0
   57.3087   27.7889   44.0791 H   0  0  0  0  0  0  0  0  0  0  0  0
   59.7001   28.6969   45.3582 H   0  0  0  0  0  0  0  0  0  0  0  0
   59.3757   28.8446   43.6163 H   0  0  0  0  0  0  0  0  0  0  0  0
   59.3508   30.9548   45.7277 H   0  0  0  0  0  0  0  0  0  0  0  0
   59.4192   31.1683   43.9716 H   0  0  0  0  0  0  0  0  0  0  0  0
   56.7437   32.6837   43.8635 H   0  0  0  0  0  0  0  0  0  0  0  0
   55.9604   32.2420   45.4232 H   0  0  0  0  0  0  0  0  0  0  0  0
   58.5710   34.2077   43.8282 H   0  0  0  0  0  0  0  0  0  0  0  0
   60.1763   35.6572   45.0848 H   0  0  0  0  0  0  0  0  0  0  0  0
   60.3575   35.4242   47.5710 H   0  0  0  0  0  0  0  0  0  0  0  0
   57.4036   32.3535   47.5630 H   0  0  0  0  0  0  0  0  0  0  0  0
  1  2  1  0
  2  3  1  0
  3  4  1  0
  4  5  1  0
  5  6  1  0
  6  7  1  0
  7  8  1  0
  8  9  2  0
  9 10  1  0
 10 11  2  0
 11 12  1  0
 12 13  2  0
  6 14  1  0
 14 15  2  0
 14  3  1  0
 13  8  1  0
  1 16  1  0
  1 17  1  0
  1 18  1  0
  2 19  1  0
  2 20  1  0
  3 21  1  6
  4 22  1  0
  4 23  1  0
  5 24  1  0
  5 25  1  0
  7 26  1  0
  7 27  1  0
  9 28  1  0
 10 29  1  0
 11 30  1  0
 13 31  1  0
M  END
>  <UniqueID>  (30) 
27

>  <SMILES>  (30) 
CC[C@@H]1CCN(Cc2cccnc2)C1=O

>  <Energy>  (30) 
32.801149942895535

>  <Genealogy>  (30) 
CC[C@@H]1CCN(Cc2cccnc2)C1=O (chirality)
CC[C@@H]1CCN(Cc2cccnc2)C1=O (3D coordinates assigned)
CC[C@@H]1CCN(Cc2cccnc2)C1=O (nonaromatic ring conformer: 32.801149942895535 kcal/mol)

>  <smiles>  (30) 
CCC1CCN(Cc2cccnc2)C1=O

>  <score_type>  (30) 
oracle

>  <origin>  (30) 
adg

>  <m_score__min__energy>  (30) 
-6.0599999999999996

>  <m_primary>  (30) 
energy

$$$$
30:0
     RDKit          3D

 51 54  0  0  0  0  0  0  0  0999 V2000
   62.6170   33.8090   46.4990 C   0  0  0  0  0  0  0  0  0  0  0  0
   61.3490   33.6600   47.3300 C   0  0  0  0  0  0  0  0  0  0  0  0
   60.6100   32.4720   46.9170 N   0  0  0  0  0  0  0  0  0  0  0  0
   60.9710   31.2270   47.2070 N   0  0  0  0  0  0  0  0  0  0  0  0
   60.0140   30.3860   46.7400 C   0  0  0  0  0  0  0  0  0  0  0  0
   59.0180   31.1420   46.1460 C   0  0  0  0  0  0  0  0  0  0  0  0
   57.7850   30.8600   45.5500 C   0  0  0  0  0  0  0  0  0  0  0  0
   57.2980   29.5170   45.3590 N   0  0  0  0  0  0  0  0  0  0  0  0
   56.7850   29.1070   44.0500 C   0  0  0  0  0  0  0  0  0  0  0  0
   57.7640   28.1370   43.3750 C   0  0  0  0  0  0  0  0  0  0  0  0
   58.5380   27.2560   44.3810 C   0  0  0  0  0  0  0  0  0  0  0  0
   57.8340   27.0960   45.7490 C   0  0  2  0  0  0  0  0  0  0  0  0
   56.5890   26.2220   45.6880 C   0  0  0  0  0  0  0  0  0  0  0  0
   55.4680   26.7150   45.9910 O   0  0  0  0  0  0  0  0  0  0  0  0
   56.6690   24.8290   45.3100 N   0  0  0  0  0  0  0  0  0  0  0  0
   57.8090   24.3320   44.5160 C   0  0  0  0  0  0  0  0  0  0  0  0
   57.6480   22.8510   44.1510 C   0  0  0  0  0  0  0  0  0  0  0  0
   56.2480   22.5850   43.5870 C   0  0  0  0  0  0  0  0  0  0  0  0
   55.1150   23.0810   44.5150 C   0  0  0  0  0  0  0  0  0  0  0  0
   55.6180   23.8860   45.7210 C   0  0  0  0  0  0  0  0  0  0  0  0
   57.5280   28.4800   46.3780 C   0  0  0  0  0  0  0  0  0  0  0  0
   57.0330   31.9300   45.1440 N   0  0  0  0  0  0  0  0  0  0  0  0
   57.4640   33.2210   45.3030 C   0  0  0  0  0  0  0  0  0  0  0  0
   58.6720   33.4820   45.8850 N   0  0  0  0  0  0  0  0  0  0  0  0
   59.4240   32.4300   46.2880 C   0  0  0  0  0  0  0  0  0  0  0  0
   63.4841   33.9109   47.1682 H   0  0  0  0  0  0  0  0  0  0  0  0
   62.7461   32.9198   45.8644 H   0  0  0  0  0  0  0  0  0  0  0  0
   62.5365   34.7039   45.8644 H   0  0  0  0  0  0  0  0  0  0  0  0
   61.6199   33.5679   48.3921 H   0  0  0  0  0  0  0  0  0  0  0  0
   60.7154   34.5463   47.1783 H   0  0  0  0  0  0  0  0  0  0  0  0
   60.0274   29.2890   46.8199 H   0  0  0  0  0  0  0  0  0  0  0  0
   55.8129   28.6091   44.1808 H   0  0  0  0  0  0  0  0  0  0  0  0
   56.6693   29.9982   43.4156 H   0  0  0  0  0  0  0  0  0  0  0  0
   57.1959   27.4802   42.6998 H   0  0  0  0  0  0  0  0  0  0  0  0
   58.5050   28.7438   42.8340 H   0  0  0  0  0  0  0  0  0  0  0  0
   58.6659   26.2569   43.9389 H   0  0  0  0  0  0  0  0  0  0  0  0
   59.4966   27.7600   44.5735 H   0  0  0  0  0  0  0  0  0  0  0  0
   58.5403   26.5640   46.4034 H   0  0  0  0  0  0  0  0  0  0  0  0
   57.8812   24.9209   43.5897 H   0  0  0  0  0  0  0  0  0  0  0  0
   58.7198   24.4367   45.1238 H   0  0  0  0  0  0  0  0  0  0  0  0
   58.3999   22.5809   43.3949 H   0  0  0  0  0  0  0  0  0  0  0  0
   57.7867   22.2445   45.0581 H   0  0  0  0  0  0  0  0  0  0  0  0
   56.1574   23.0989   42.6187 H   0  0  0  0  0  0  0  0  0  0  0  0
   56.1365   21.4952   43.4874 H   0  0  0  0  0  0  0  0  0  0  0  0
   54.4389   23.7198   43.9278 H   0  0  0  0  0  0  0  0  0  0  0  0
   54.6079   22.1888   44.9110 H   0  0  0  0  0  0  0  0  0  0  0  0
   54.7784   24.4474   46.1568 H   0  0  0  0  0  0  0  0  0  0  0  0
   56.0356   23.1901   46.4635 H   0  0  0  0  0  0  0  0  0  0  0  0
   56.6277   28.3930   47.0040 H   0  0  0  0  0  0  0  0  0  0  0  0
   58.4029   28.7805   46.9732 H   0  0  0  0  0  0  0  0  0  0  0  0
   56.8325   34.0535   44.9594 H   0  0  0  0  0  0  0  0  0  0  0  0
  1  2  1  0
  2  3  1  0
  3  4  1  0
  4  5  2  0
  5  6  1  0
  6  7  2  0
  7  8  1  0
  8  9  1  0
  9 10  1  0
 10 11  1  0
 11 12  1  0
 12 13  1  0
 13 14  2  0
 13 15  1  0
 15 16  1  0
 16 17  1  0
 17 18  1  0
 18 19  1  0
 19 20  1  0
 12 21  1  0
  7 22  1  0
 22 23  2  0
 23 24  1  0
 24 25  2  0
 25  3  1  0
 25  6  1  0
 21  8  1  0
 20 15  1  0
  1 26  1  0
  1 27  1  0
  1 28  1  0
  2 29  1  0
  2 30  1  0
  5 31  1  0
  9 32  1  0
  9 33  1  0
 10 34  1  0
 10 35  1  0
 11 36  1  0
 11 37  1  0
 12 38  1  1
 16 39  1  0
 16 40  1  0
 17 41  1  0
 17 42  1  0
 18 43  1  0
 18 44  1  0
 19 45  1  0
 19 46  1  0
 20 47  1  0
 20 48  1  0
 21 49  1  0
 21 50  1  0
 23 51  1  0
M  END
>  <UniqueID>  (31) 
28

>  <SMILES>  (31) 
CCn1ncc2c(N3CCC[C@H](C(=O)N4CCCCC4)C3)ncnc21

>  <Energy>  (31) 
102.4848081077649

>  <Genealogy>  (31) 
CCn1ncc2c(N3CCC[C@H](C(=O)N4CCCCC4)C3)ncnc21 (chirality)
CCn1ncc2c(N3CCC[C@H](C(=O)N4CCCCC4)C3)ncnc21 (3D coordinates assigned)
CCn1ncc2c(N3CCC[C@H](C(=O)N4CCCCC4)C3)ncnc21 (nonaromatic ring conformer: 102.4848081077649 kcal/mol)

>  <smiles>  (31) 
CCn1ncc2c(N3CCCC(C(=O)N4CCCCC4)C3)ncnc21

>  <score_type>  (31) 
oracle

>  <origin>  (31) 
adg

>  <m_score__min__energy>  (31) 
-8.1600000000000001

>  <m_primary>  (31) 
energy

$$$$
31:0
     RDKit          3D

 37 39  0  0  0  0  0  0  0  0999 V2000
   57.7780   32.4820   42.4590 C   0  0  0  0  0  0  0  0  0  0  0  0
   57.6610   31.3080   43.3900 C   0  0  0  0  0  0  0  0  0  0  0  0
   56.9500   30.1500   42.9770 C   0  0  0  0  0  0  0  0  0  0  0  0
   56.8360   29.0660   43.8030 N   0  0  0  0  0  0  0  0  0  0  0  0
   57.4110   29.1110   45.0300 C   0  0  0  0  0  0  0  0  0  0  0  0
   57.3900   28.1400   45.9590 N   0  0  0  0  0  0  0  0  0  0  0  0
   58.0600   28.6010   47.0120 N   0  0  0  0  0  0  0  0  0  0  0  0
   58.5030   29.8530   46.7430 C   0  0  0  0  0  0  0  0  0  0  0  0
   59.2670   30.6980   47.7090 C   0  0  0  0  0  0  0  0  0  0  0  0
   58.0900   30.2010   45.4760 C   0  0  0  0  0  0  0  0  0  0  0  0
   58.2230   31.3440   44.6920 C   0  0  0  0  0  0  0  0  0  0  0  0
   58.9050   32.4630   45.1720 O   0  0  0  0  0  0  0  0  0  0  0  0
   58.2780   33.4060   46.0350 C   0  0  0  0  0  0  0  0  0  0  0  0
   59.1940   34.6110   46.2380 C   0  0  0  0  0  0  0  0  0  0  0  0
   60.4200   34.2210   47.0220 C   0  0  0  0  0  0  0  0  0  0  0  0
   60.4190   34.3070   48.4240 C   0  0  0  0  0  0  0  0  0  0  0  0
   61.5740   34.0000   49.1500 C   0  0  0  0  0  0  0  0  0  0  0  0
   62.7400   33.6160   48.4810 C   0  0  0  0  0  0  0  0  0  0  0  0
   63.8600   33.3230   49.1890 F   0  0  0  0  0  0  0  0  0  0  0  0
   62.7530   33.5380   47.0850 C   0  0  0  0  0  0  0  0  0  0  0  0
   63.8850   33.1740   46.4350 F   0  0  0  0  0  0  0  0  0  0  0  0
   61.5980   33.8440   46.3560 C   0  0  0  0  0  0  0  0  0  0  0  0
   57.8703   33.4077   43.0460 H   0  0  0  0  0  0  0  0  0  0  0  0
   58.6684   32.3597   41.8248 H   0  0  0  0  0  0  0  0  0  0  0  0
   56.8810   32.5379   41.8248 H   0  0  0  0  0  0  0  0  0  0  0  0
   56.4852   30.1247   41.9803 H   0  0  0  0  0  0  0  0  0  0  0  0
   56.3140   28.2170   43.4910 H   0  0  0  0  0  0  0  0  0  0  0  0
   59.0047   30.4079   48.7371 H   0  0  0  0  0  0  0  0  0  0  0  0
   60.3457   30.5519   47.5507 H   0  0  0  0  0  0  0  0  0  0  0  0
   59.0133   31.7566   47.5507 H   0  0  0  0  0  0  0  0  0  0  0  0
   57.3309   33.7390   45.5854 H   0  0  0  0  0  0  0  0  0  0  0  0
   58.0803   32.9323   47.0079 H   0  0  0  0  0  0  0  0  0  0  0  0
   59.5017   35.0003   45.2563 H   0  0  0  0  0  0  0  0  0  0  0  0
   58.6455   35.3820   46.7990 H   0  0  0  0  0  0  0  0  0  0  0  0
   59.5058   34.6171   48.9530 H   0  0  0  0  0  0  0  0  0  0  0  0
   61.5652   34.0607   50.2483 H   0  0  0  0  0  0  0  0  0  0  0  0
   61.6128   33.7891   45.2575 H   0  0  0  0  0  0  0  0  0  0  0  0
  1  2  1  0
  2  3  1  0
  3  4  2  0
  4  5  1  0
  5  6  2  0
  6  7  1  0
  7  8  1  0
  8  9  1  0
  8 10  2  0
 10 11  1  0
 11 12  1  0
 12 13  1  0
 13 14  1  0
 14 15  1  0
 15 16  2  0
 16 17  1  0
 17 18  2  0
 18 19  1  0
 18 20  1  0
 20 21  1  0
 20 22  2  0
 11  2  2  0
 22 15  1  0
 10  5  1  0
  1 23  1  0
  1 24  1  0
  1 25  1  0
  3 26  1  0
  4 27  1  0
  9 28  1  0
  9 29  1  0
  9 30  1  0
 13 31  1  0
 13 32  1  0
 14 33  1  0
 14 34  1  0
 16 35  1  0
 17 36  1  0
 22 37  1  0
M  CHG  2   4   1   7  -1
M  END
>  <UniqueID>  (32) 
29

>  <SMILES>  (32) 
Cc1c[nH+]c2n[n-]c(C)c2c1OCCc1ccc(F)c(F)c1

>  <Energy>  (32) 
78.7439732090187

>  <Genealogy>  (32) 
Cc1c[nH+]c2n[n-]c(C)c2c1OCCc1ccc(F)c(F)c1 (protonated)
Cc1c[nH+]c2n[n-]c(C)c2c1OCCc1ccc(F)c(F)c1 (3D coordinates assigned)
Cc1c[nH+]c2n[n-]c(C)c2c1OCCc1ccc(F)c(F)c1 (optimized conformer: 78.7439732090187 kcal/mol)

>  <smiles>  (32) 
Cc1cnc2n[nH]c(C)c2c1OCCc1ccc(F)c(F)c1

>  <score_type>  (32) 
oracle

>  <origin>  (32) 
adg

>  <m_score__min__energy>  (32) 
-6.6100000000000003

>  <m_primary>  (32) 
energy

$$$$
32:0
     RDKit          3D

 53 55  0  0  0  0  0  0  0  0999 V2000
   63.2060   33.8410   46.4470 C   0  0  0  0  0  0  0  0  0  0  0  0
   63.7680   33.1020   47.6690 C   0  0  0  0  0  0  0  0  0  0  0  0
   62.7410   32.8770   48.7230 N   0  0  0  0  0  0  0  0  0  0  0  0
   62.1310   34.1660   49.1540 C   0  0  0  0  0  0  0  0  0  0  0  0
   60.6000   34.2140   49.0440 C   0  0  0  0  0  0  0  0  0  0  0  0
   63.3010   32.0810   49.8470 C   0  0  0  0  0  0  0  0  0  0  0  0
   62.4410   30.8600   50.2080 C   0  0  0  0  0  0  0  0  0  0  0  0
   61.1050   31.0000   49.6420 N   0  0  0  0  0  0  0  0  0  0  0  0
   60.7470   30.5700   48.3250 C   0  0  0  0  0  0  0  0  0  0  0  0
   61.6110   30.5270   47.4070 O   0  0  0  0  0  0  0  0  0  0  0  0
   59.3280   30.2000   48.0310 C   0  0  0  0  0  0  0  0  0  0  0  0
   58.9950   30.4940   46.5930 C   0  0  0  0  0  0  0  0  0  0  0  0
   58.8130   29.5770   45.5480 C   0  0  0  0  0  0  0  0  0  0  0  0
   58.9650   28.1110   45.6300 C   0  0  0  0  0  0  0  0  0  0  0  0
   60.0890   27.5360   46.2450 C   0  0  0  0  0  0  0  0  0  0  0  0
   60.2000   26.1450   46.3500 C   0  0  0  0  0  0  0  0  0  0  0  0
   59.1960   25.3220   45.8330 C   0  0  0  0  0  0  0  0  0  0  0  0
   59.3000   23.9740   45.9430 F   0  0  0  0  0  0  0  0  0  0  0  0
   58.0850   25.8880   45.1980 C   0  0  0  0  0  0  0  0  0  0  0  0
   57.9740   27.2780   45.0890 C   0  0  0  0  0  0  0  0  0  0  0  0
   58.3670   30.2070   44.4350 N   0  0  0  0  0  0  0  0  0  0  0  0
   58.2650   31.5070   44.7600 C   0  0  0  0  0  0  0  0  0  0  0  0
   57.8230   32.5460   43.9400 C   0  0  0  0  0  0  0  0  0  0  0  0
   57.7550   33.8370   44.4930 C   0  0  0  0  0  0  0  0  0  0  0  0
   58.1150   34.0570   45.8400 C   0  0  0  0  0  0  0  0  0  0  0  0
   58.5540   32.9900   46.6460 C   0  0  0  0  0  0  0  0  0  0  0  0
   58.6280   31.7200   46.0660 C   0  0  0  0  0  0  0  0  0  0  0  0
   62.5719   34.6749   46.7824 H   0  0  0  0  0  0  0  0  0  0  0  0
   64.0366   34.2326   45.8413 H   0  0  0  0  0  0  0  0  0  0  0  0
   62.6068   33.1452   45.8413 H   0  0  0  0  0  0  0  0  0  0  0  0
   64.1576   32.1265   47.3426 H   0  0  0  0  0  0  0  0  0  0  0  0
   64.5599   33.7298   48.1034 H   0  0  0  0  0  0  0  0  0  0  0  0
   61.9620   32.3180   48.2980 H   0  0  0  0  0  0  0  0  0  0  0  0
   62.4057   34.3419   50.2045 H   0  0  0  0  0  0  0  0  0  0  0  0
   62.5180   34.9385   48.4732 H   0  0  0  0  0  0  0  0  0  0  0  0
   60.1602   34.2278   50.0522 H   0  0  0  0  0  0  0  0  0  0  0  0
   60.2997   35.1220   48.5005 H   0  0  0  0  0  0  0  0  0  0  0  0
   60.2434   33.3266   48.5005 H   0  0  0  0  0  0  0  0  0  0  0  0
   64.3042   31.7308   49.5623 H   0  0  0  0  0  0  0  0  0  0  0  0
   63.3287   32.7355   50.7306 H   0  0  0  0  0  0  0  0  0  0  0  0
   62.9128   29.9515   49.8054 H   0  0  0  0  0  0  0  0  0  0  0  0
   62.3612   30.7883   51.3028 H   0  0  0  0  0  0  0  0  0  0  0  0
   59.1863   29.1263   48.2234 H   0  0  0  0  0  0  0  0  0  0  0  0
   58.6641   30.7915   48.6786 H   0  0  0  0  0  0  0  0  0  0  0  0
   60.8848   28.1812   46.6455 H   0  0  0  0  0  0  0  0  0  0  0  0
   61.0782   25.6991   46.8399 H   0  0  0  0  0  0  0  0  0  0  0  0
   57.2986   25.2395   44.7844 H   0  0  0  0  0  0  0  0  0  0  0  0
   57.1064   27.7198   44.5771 H   0  0  0  0  0  0  0  0  0  0  0  0
   58.1300   29.7700   43.5170 H   0  0  0  0  0  0  0  0  0  0  0  0
   57.5368   32.3609   42.8941 H   0  0  0  0  0  0  0  0  0  0  0  0
   57.4192   34.6807   43.8721 H   0  0  0  0  0  0  0  0  0  0  0  0
   58.0519   35.0704   46.2631 H   0  0  0  0  0  0  0  0  0  0  0  0
   58.8301   33.1501   47.6987 H   0  0  0  0  0  0  0  0  0  0  0  0
  1  2  1  0
  2  3  1  0
  3  4  1  0
  4  5  1  0
  3  6  1  0
  6  7  1  0
  7  8  1  0
  8  9  1  0
  9 10  2  0
  9 11  1  0
 11 12  1  0
 12 13  2  0
 13 14  1  0
 14 15  2  0
 15 16  1  0
 16 17  2  0
 17 18  1  0
 17 19  1  0
 19 20  2  0
 13 21  1  0
 21 22  1  0
 22 23  2  0
 23 24  1  0
 24 25  2  0
 25 26  1  0
 26 27  2  0
 27 12  1  0
 20 14  1  0
 27 22  1  0
  1 28  1  0
  1 29  1  0
  1 30  1  0
  2 31  1  0
  2 32  1  0
  3 33  1  0
  4 34  1  0
  4 35  1  0
  5 36  1  0
  5 37  1  0
  5 38  1  0
  6 39  1  0
  6 40  1  0
  7 41  1  0
  7 42  1  0
 11 43  1  0
 11 44  1  0
 15 45  1  0
 16 46  1  0
 19 47  1  0
 20 48  1  0
 21 49  1  0
 23 50  1  0
 24 51  1  0
 25 52  1  0
 26 53  1  0
M  CHG  2   3   1   8  -1
M  END
>  <UniqueID>  (33) 
30

>  <SMILES>  (33) 
CC[NH+](CC)CC[N-]C(=O)Cc1c(-c2ccc(F)cc2)[nH]c2ccccc12

>  <Energy>  (33) 
89.8237012153141

>  <Genealogy>  (33) 
CC[NH+](CC)CC[N-]C(=O)Cc1c(-c2ccc(F)cc2)[nH]c2ccccc12 (protonated)
CC[NH+](CC)CC[N-]C(=O)Cc1c(-c2ccc(F)cc2)[nH]c2ccccc12 (3D coordinates assigned)
CC[NH+](CC)CC[N-]C(=O)Cc1c(-c2ccc(F)cc2)[nH]c2ccccc12 (optimized conformer: 89.8237012153141 kcal/mol)

>  <smiles>  (33) 
CCN(CC)CCNC(=O)Cc1c(-c2ccc(F)cc2)[nH]c2ccccc12

>  <score_type>  (33) 
oracle

>  <origin>  (33) 
adg

>  <m_score__min__energy>  (33) 
-7.1699999999999999

>  <m_primary>  (33) 
energy

$$$$
33:0
     RDKit          3D

 30 31  0  0  0  0  0  0  0  0999 V2000
   56.8620   29.4350   43.5150 C   0  0  0  0  0  0  0  0  0  0  0  0
   57.6900   29.1520   44.7710 C   0  0  0  0  0  0  0  0  0  0  0  0
   58.9260   28.3140   44.4360 C   0  0  0  0  0  0  0  0  0  0  0  0
   58.0900   30.4410   45.4300 C   0  0  0  0  0  0  0  0  0  0  0  0
   57.3970   31.5950   45.2950 N   0  0  0  0  0  0  0  0  0  0  0  0
   58.1320   32.4570   46.0230 C   0  0  0  0  0  0  0  0  0  0  0  0
   57.8380   33.9240   46.0930 C   0  0  0  0  0  0  0  0  0  0  0  0
   59.2560   34.9200   45.2300 Br  0  0  0  0  0  0  0  0  0  0  0  0
   59.2200   31.8540   46.5470 N   0  0  0  0  0  0  0  0  0  0  0  0
   60.2600   32.4420   47.3410 C   0  0  0  0  0  0  0  0  0  0  0  0
   61.4910   32.7680   46.7490 C   0  0  0  0  0  0  0  0  0  0  0  0
   62.5060   33.3540   47.5090 C   0  0  0  0  0  0  0  0  0  0  0  0
   62.2990   33.6230   48.8640 C   0  0  0  0  0  0  0  0  0  0  0  0
   61.0750   33.3100   49.4600 C   0  0  0  0  0  0  0  0  0  0  0  0
   60.0520   32.7230   48.7050 C   0  0  0  0  0  0  0  0  0  0  0  0
   58.5370   32.3120   49.5000 Cl  0  0  0  0  0  0  0  0  0  0  0  0
   59.2030   30.5870   46.1800 N   0  0  0  0  0  0  0  0  0  0  0  0
   55.8585   29.7780   43.8070 H   0  0  0  0  0  0  0  0  0  0  0  0
   57.3567   30.2151   42.9177 H   0  0  0  0  0  0  0  0  0  0  0  0
   56.7758   28.5153   42.9177 H   0  0  0  0  0  0  0  0  0  0  0  0
   57.0686   28.5744   45.4712 H   0  0  0  0  0  0  0  0  0  0  0  0
   59.4100   27.9858   45.3677 H   0  0  0  0  0  0  0  0  0  0  0  0
   58.6242   27.4335   43.8498 H   0  0  0  0  0  0  0  0  0  0  0  0
   59.6322   28.9203   43.8498 H   0  0  0  0  0  0  0  0  0  0  0  0
   56.8850   34.1300   45.5837 H   0  0  0  0  0  0  0  0  0  0  0  0
   57.7691   34.2303   47.1472 H   0  0  0  0  0  0  0  0  0  0  0  0
   61.6568   32.5609   45.6815 H   0  0  0  0  0  0  0  0  0  0  0  0
   63.4691   33.6039   47.0400 H   0  0  0  0  0  0  0  0  0  0  0  0
   63.1003   34.0816   49.4620 H   0  0  0  0  0  0  0  0  0  0  0  0
   60.9141   33.5255   50.5266 H   0  0  0  0  0  0  0  0  0  0  0  0
  1  2  1  0
  2  3  1  0
  2  4  1  0
  4  5  1  0
  5  6  2  0
  6  7  1  0
  7  8  1  0
  6  9  1  0
  9 10  1  0
 10 11  2  0
 11 12  1  0
 12 13  2  0
 13 14  1  0
 14 15  2  0
 15 16  1  0
  9 17  1  0
 17  4  2  0
 15 10  1  0
  1 18  1  0
  1 19  1  0
  1 20  1  0
  2 21  1  0
  3 22  1  0
  3 23  1  0
  3 24  1  0
  7 25  1  0
  7 26  1  0
 11 27  1  0
 12 28  1  0
 13 29  1  0
 14 30  1  0
M  END
>  <UniqueID>  (34) 
31

>  <SMILES>  (34) 
CC(C)c1nc(CBr)n(-c2ccccc2Cl)n1

>  <Energy>  (34) 
62.45873398089104

>  <Genealogy>  (34) 
CC(C)c1nc(CBr)n(-c2ccccc2Cl)n1 (3D coordinates assigned)
CC(C)c1nc(CBr)n(-c2ccccc2Cl)n1 (optimized conformer: 62.45873398089104 kcal/mol)

>  <smiles>  (34) 
CC(C)c1nc(CBr)n(-c2ccccc2Cl)n1

>  <score_type>  (34) 
oracle

>  <origin>  (34) 
adg

>  <m_score__min__energy>  (34) 
-6.5899999999999999

>  <m_primary>  (34) 
energy

$$$$
34:0
     RDKit          3D

 45 47  0  0  0  0  0  0  0  0999 V2000
   67.5710   32.9260   50.8920 C   0  0  0  0  0  0  0  0  0  0  0  0
   66.2950   33.2680   51.4210 O   0  0  0  0  0  0  0  0  0  0  0  0
   65.1320   33.4130   50.6500 C   0  0  0  0  0  0  0  0  0  0  0  0
   64.0090   34.1280   51.1040 C   0  0  0  0  0  0  0  0  0  0  0  0
   62.8720   34.2450   50.2980 C   0  0  0  0  0  0  0  0  0  0  0  0
   62.8350   33.6490   49.0250 C   0  0  0  0  0  0  0  0  0  0  0  0
   61.6280   33.7730   48.1690 C   0  0  0  0  0  0  0  0  0  0  0  0
   60.4070   34.2070   48.7130 C   0  0  0  0  0  0  0  0  0  0  0  0
   59.2700   34.3230   47.9080 C   0  0  0  0  0  0  0  0  0  0  0  0
   59.3290   34.0020   46.5420 C   0  0  0  0  0  0  0  0  0  0  0  0
   58.1520   34.1070   45.7120 N   0  0  0  0  0  0  0  0  0  0  0  0
   57.2250   32.9790   45.9230 C   0  0  0  0  0  0  0  0  0  0  0  0
   57.5200   31.7540   45.0230 C   0  0  1  0  0  0  0  0  0  0  0  0
   58.2600   30.6660   45.7810 C   0  0  0  0  0  0  0  0  0  0  0  0
   58.0840   29.3670   45.4940 C   0  0  0  0  0  0  0  0  0  0  0  0
   57.0200   28.8940   44.5390 C   0  0  1  0  0  0  0  0  0  0  0  0
   55.9800   28.3440   45.2680 F   0  0  0  0  0  0  0  0  0  0  0  0
   56.4880   30.0370   43.6630 C   0  0  0  0  0  0  0  0  0  0  0  0
   56.2530   31.2450   44.4650 N   0  0  0  0  0  0  0  0  0  0  0  0
   60.5490   33.5710   45.9940 C   0  0  0  0  0  0  0  0  0  0  0  0
   61.6860   33.4570   46.7990 C   0  0  0  0  0  0  0  0  0  0  0  0
   63.9600   32.9350   48.5770 C   0  0  0  0  0  0  0  0  0  0  0  0
   65.0960   32.8220   49.3830 C   0  0  0  0  0  0  0  0  0  0  0  0
   68.2722   32.7381   51.7185 H   0  0  0  0  0  0  0  0  0  0  0  0
   67.4811   32.0203   50.2743 H   0  0  0  0  0  0  0  0  0  0  0  0
   67.9461   33.7553   50.2743 H   0  0  0  0  0  0  0  0  0  0  0  0
   64.0251   34.5978   52.0985 H   0  0  0  0  0  0  0  0  0  0  0  0
   62.0000   34.8076   50.6628 H   0  0  0  0  0  0  0  0  0  0  0  0
   60.3454   34.4578   49.7823 H   0  0  0  0  0  0  0  0  0  0  0  0
   58.3225   34.6681   48.3475 H   0  0  0  0  0  0  0  0  0  0  0  0
   58.4530   34.1010   44.7090 H   0  0  0  0  0  0  0  0  0  0  0  0
   57.6680   35.0200   45.8690 H   0  0  0  0  0  0  0  0  0  0  0  0
   57.2964   32.6628   46.9742 H   0  0  0  0  0  0  0  0  0  0  0  0
   56.2186   33.3365   45.6596 H   0  0  0  0  0  0  0  0  0  0  0  0
   58.1784   32.0707   44.2007 H   0  0  0  0  0  0  0  0  0  0  0  0
   58.9565   30.9492   46.5839 H   0  0  0  0  0  0  0  0  0  0  0  0
   58.7384   28.6232   45.9720 H   0  0  0  0  0  0  0  0  0  0  0  0
   57.4644   28.1433   43.8689 H   0  0  0  0  0  0  0  0  0  0  0  0
   57.2254   30.2630   42.8786 H   0  0  0  0  0  0  0  0  0  0  0  0
   55.5346   29.7217   43.2140 H   0  0  0  0  0  0  0  0  0  0  0  0
   55.5960   31.0070   45.2460 H   0  0  0  0  0  0  0  0  0  0  0  0
   60.6097   33.3216   44.9244 H   0  0  0  0  0  0  0  0  0  0  0  0
   62.6346   33.1172   46.3576 H   0  0  0  0  0  0  0  0  0  0  0  0
   63.9460   32.4615   47.5842 H   0  0  0  0  0  0  0  0  0  0  0  0
   65.9700   32.2630   49.0175 H   0  0  0  0  0  0  0  0  0  0  0  0
  1  2  1  0
  2  3  1  0
  3  4  2  0
  4  5  1  0
  5  6  2  0
  6  7  1  0
  7  8  2  0
  8  9  1  0
  9 10  2  0
 10 11  1  0
 11 12  1  0
 12 13  1  0
 13 14  1  0
 14 15  2  0
 15 16  1  0
 16 17  1  0
 16 18  1  0
 18 19  1  0
 10 20  1  0
 20 21  2  0
  6 22  1  0
 22 23  2  0
 23  3  1  0
 21  7  1  0
 19 13  1  0
  1 24  1  0
  1 25  1  0
  1 26  1  0
  4 27  1  0
  5 28  1  0
  8 29  1  0
  9 30  1  0
 11 31  1  0
 11 32  1  0
 12 33  1  0
 12 34  1  0
 13 35  1  6
 14 36  1  0
 15 37  1  0
 16 38  1  6
 18 39  1  0
 18 40  1  0
 19 41  1  0
 20 42  1  0
 21 43  1  0
 22 44  1  0
 23 45  1  0
M  CHG  1  11   1
M  END
>  <UniqueID>  (35) 
32

>  <SMILES>  (35) 
COc1ccc(-c2ccc([NH2+]C[C@H]3C=C[C@@H](F)CN3)cc2)cc1

>  <Energy>  (35) 
53.616985794826086

>  <Genealogy>  (35) 
COc1ccc(-c2ccc([NH2+]CC3C=CC(F)CN3)cc2)cc1 (protonated)
COc1ccc(-c2ccc([NH2+]C[C@H]3C=C[C@@H](F)CN3)cc2)cc1 (chirality)
COc1ccc(-c2ccc([NH2+]C[C@H]3C=C[C@@H](F)CN3)cc2)cc1 (3D coordinates assigned)
COc1ccc(-c2ccc([NH2+]C[C@H]3C=C[C@@H](F)CN3)cc2)cc1 (nonaromatic ring conformer: 53.616985794826086 kcal/mol)

>  <smiles>  (35) 
COc1ccc(-c2ccc(NCC3C=CC(F)CN3)cc2)cc1

>  <score_type>  (35) 
oracle

>  <origin>  (35) 
adg

>  <m_score__min__energy>  (35) 
-6.0099999999999998

>  <m_primary>  (35) 
energy

$$$$
35:0
     RDKit          3D

 39 40  0  0  0  0  0  0  0  0999 V2000
   57.7280   33.8580   45.4310 C   0  0  0  0  0  0  0  0  0  0  0  0
   59.2620   33.9390   45.3680 C   0  0  0  0  0  0  0  0  0  0  0  0
   59.9400   33.8940   46.6870 N   0  0  0  0  0  0  0  0  0  0  0  0
   59.0270   33.8100   47.8530 C   0  0  0  0  0  0  0  0  0  0  0  0
   59.6630   34.2100   49.1880 C   0  0  0  0  0  0  0  0  0  0  0  0
   61.1390   33.0300   46.7560 C   0  0  0  0  0  0  0  0  0  0  0  0
   60.8190   31.6960   47.4460 C   0  0  0  0  0  0  0  0  0  0  0  0
   60.6960   30.6260   46.4560 N   0  0  0  0  0  0  0  0  0  0  0  0
   59.4840   29.8910   46.1920 C   0  0  0  0  0  0  0  0  0  0  0  0
   58.4570   30.4120   45.3780 C   0  0  0  0  0  0  0  0  0  0  0  0
   57.2900   29.6740   45.1450 C   0  0  0  0  0  0  0  0  0  0  0  0
   56.0240   30.3590   44.1370 Cl  0  0  0  0  0  0  0  0  0  0  0  0
   57.1410   28.4050   45.7210 C   0  0  0  0  0  0  0  0  0  0  0  0
   58.1580   27.8790   46.5290 C   0  0  0  0  0  0  0  0  0  0  0  0
   59.3160   28.6220   46.7710 C   0  0  0  0  0  0  0  0  0  0  0  0
   58.0020   26.6160   47.1170 O   0  0  0  0  0  0  0  0  0  0  0  0
   57.0270   25.6650   46.6760 C   0  0  0  0  0  0  0  0  0  0  0  0
   55.8240   26.3380   46.0800 C   0  0  0  0  0  0  0  0  0  0  0  0
   54.7300   25.7200   45.9940 O   0  0  0  0  0  0  0  0  0  0  0  0
   55.9400   27.6530   45.5370 N   0  0  0  0  0  0  0  0  0  0  0  0
   57.4046   33.8409   46.4822 H   0  0  0  0  0  0  0  0  0  0  0  0
   57.2936   34.7345   44.9279 H   0  0  0  0  0  0  0  0  0  0  0  0
   57.3883   32.9407   44.9279 H   0  0  0  0  0  0  0  0  0  0  0  0
   59.6254   33.0925   44.7669 H   0  0  0  0  0  0  0  0  0  0  0  0
   59.5036   34.9177   44.9278 H   0  0  0  0  0  0  0  0  0  0  0  0
   58.1707   34.4751   47.6675 H   0  0  0  0  0  0  0  0  0  0  0  0
   58.7379   32.7530   47.9485 H   0  0  0  0  0  0  0  0  0  0  0  0
   59.0502   33.8246   50.0162 H   0  0  0  0  0  0  0  0  0  0  0  0
   60.6759   33.7860   49.2532 H   0  0  0  0  0  0  0  0  0  0  0  0
   59.7196   35.3066   49.2532 H   0  0  0  0  0  0  0  0  0  0  0  0
   61.4971   32.8299   45.7353 H   0  0  0  0  0  0  0  0  0  0  0  0
   61.9117   33.5500   47.3413 H   0  0  0  0  0  0  0  0  0  0  0  0
   61.6282   31.4482   48.1487 H   0  0  0  0  0  0  0  0  0  0  0  0
   59.8657   31.7935   47.9861 H   0  0  0  0  0  0  0  0  0  0  0  0
   61.5550   30.3820   45.9100 H   0  0  0  0  0  0  0  0  0  0  0  0
   58.5736   31.4064   44.9223 H   0  0  0  0  0  0  0  0  0  0  0  0
   60.1027   28.2101   47.4202 H   0  0  0  0  0  0  0  0  0  0  0  0
   57.4832   25.0128   45.9167 H   0  0  0  0  0  0  0  0  0  0  0  0
   56.6967   25.0829   47.5489 H   0  0  0  0  0  0  0  0  0  0  0  0
  1  2  1  0
  2  3  1  0
  3  4  1  0
  4  5  1  0
  3  6  1  0
  6  7  1  0
  7  8  1  0
  8  9  1  0
  9 10  2  0
 10 11  1  0
 11 12  1  0
 11 13  2  0
 13 14  1  0
 14 15  2  0
 14 16  1  0
 16 17  1  0
 17 18  1  0
 18 19  2  0
 18 20  1  0
 15  9  1  0
 20 13  1  0
  1 21  1  0
  1 22  1  0
  1 23  1  0
  2 24  1  0
  2 25  1  0
  4 26  1  0
  4 27  1  0
  5 28  1  0
  5 29  1  0
  5 30  1  0
  6 31  1  0
  6 32  1  0
  7 33  1  0
  7 34  1  0
  8 35  1  0
 10 36  1  0
 15 37  1  0
 17 38  1  0
 17 39  1  0
M  CHG  1  20  -1
M  END
>  <UniqueID>  (36) 
33

>  <SMILES>  (36) 
CCN(CC)CCNc1cc(Cl)c2c(c1)OCC(=O)[N-]2

>  <Energy>  (36) 
45.00430192799761

>  <Genealogy>  (36) 
CCN(CC)CCNc1cc(Cl)c2c(c1)OCC(=O)[N-]2 (protonated)
CCN(CC)CCNc1cc(Cl)c2c(c1)OCC(=O)[N-]2 (3D coordinates assigned)
CCN(CC)CCNc1cc(Cl)c2c(c1)OCC(=O)[N-]2 (nonaromatic ring conformer: 45.00430192799761 kcal/mol)

>  <smiles>  (36) 
CCN(CC)CCNc1cc(Cl)c2c(c1)OCC(=O)N2

>  <score_type>  (36) 
oracle

>  <origin>  (36) 
adg

>  <m_score__min__energy>  (36) 
-8.4399999999999995

>  <m_primary>  (36) 
energy

$$$$
36:0
     RDKit          3D

 49 51  0  0  0  0  0  0  0  0999 V2000
   57.3420   32.3560   40.7810 C   0  0  0  0  0  0  0  0  0  0  0  0
   57.4520   31.9320   42.2160 C   0  0  0  0  0  0  0  0  0  0  0  0
   56.7680   30.7960   42.6690 C   0  0  0  0  0  0  0  0  0  0  0  0
   56.8330   30.4180   44.0170 C   0  0  0  0  0  0  0  0  0  0  0  0
   56.0510   29.2340   44.5050 C   0  0  0  0  0  0  0  0  0  0  0  0
   57.5730   31.1960   44.9190 C   0  0  0  0  0  0  0  0  0  0  0  0
   58.2750   32.3290   44.4760 C   0  0  0  0  0  0  0  0  0  0  0  0
   59.0400   33.1680   45.4750 C   0  0  0  0  0  0  0  0  0  0  0  0
   58.1660   33.7470   46.5080 N   0  0  0  0  0  0  0  0  0  0  0  0
   58.3960   33.1870   47.8520 C   0  0  0  0  0  0  0  0  0  0  0  0
   59.8700   33.0910   48.2090 C   0  0  0  0  0  0  0  0  0  0  0  0
   60.5120   34.2320   48.7110 C   0  0  0  0  0  0  0  0  0  0  0  0
   61.8360   34.1730   49.1340 C   0  0  0  0  0  0  0  0  0  0  0  0
   62.5320   32.9610   49.0650 C   0  0  0  0  0  0  0  0  0  0  0  0
   63.9780   32.8880   49.4850 C   0  0  0  0  0  0  0  0  0  0  0  0
   64.8120   33.2730   48.4490 F   0  0  0  0  0  0  0  0  0  0  0  0
   64.2810   31.5910   49.8500 F   0  0  0  0  0  0  0  0  0  0  0  0
   64.2100   33.7280   50.5610 F   0  0  0  0  0  0  0  0  0  0  0  0
   61.9210   31.8680   48.5220 N   0  0  0  0  0  0  0  0  0  0  0  0
   60.6250   31.8950   48.0870 C   0  0  0  0  0  0  0  0  0  0  0  0
   60.0690   30.6680   47.4700 C   0  0  0  0  0  0  0  0  0  0  0  0
   59.0190   29.9810   48.1000 C   0  0  0  0  0  0  0  0  0  0  0  0
   58.5090   28.8060   47.5390 C   0  0  0  0  0  0  0  0  0  0  0  0
   59.0450   28.3060   46.3510 C   0  0  0  0  0  0  0  0  0  0  0  0
   60.1110   28.9670   45.7340 C   0  0  0  0  0  0  0  0  0  0  0  0
   60.6340   30.1340   46.2990 C   0  0  0  0  0  0  0  0  0  0  0  0
   58.1780   32.7120   43.1280 C   0  0  0  0  0  0  0  0  0  0  0  0
   57.0660   33.4197   40.7331 H   0  0  0  0  0  0  0  0  0  0  0  0
   58.3090   32.2051   40.2789 H   0  0  0  0  0  0  0  0  0  0  0  0
   56.5703   31.7540   40.2789 H   0  0  0  0  0  0  0  0  0  0  0  0
   56.1759   30.1967   41.9617 H   0  0  0  0  0  0  0  0  0  0  0  0
   56.0458   29.2261   45.6050 H   0  0  0  0  0  0  0  0  0  0  0  0
   55.0175   29.2989   44.1339 H   0  0  0  0  0  0  0  0  0  0  0  0
   56.5164   28.3090   44.1339 H   0  0  0  0  0  0  0  0  0  0  0  0
   57.6039   30.9166   45.9825 H   0  0  0  0  0  0  0  0  0  0  0  0
   59.7938   32.5341   45.9649 H   0  0  0  0  0  0  0  0  0  0  0  0
   59.5071   33.9993   44.9266 H   0  0  0  0  0  0  0  0  0  0  0  0
   57.1700   33.5880   46.2280 H   0  0  0  0  0  0  0  0  0  0  0  0
   57.8973   33.8316   48.5908 H   0  0  0  0  0  0  0  0  0  0  0  0
   57.9880   32.1655   47.8579 H   0  0  0  0  0  0  0  0  0  0  0  0
   59.9632   35.1834   48.7710 H   0  0  0  0  0  0  0  0  0  0  0  0
   62.3333   35.0747   49.5208 H   0  0  0  0  0  0  0  0  0  0  0  0
   62.4690   30.9850   48.4140 H   0  0  0  0  0  0  0  0  0  0  0  0
   58.5959   30.3686   49.0385 H   0  0  0  0  0  0  0  0  0  0  0  0
   57.6835   28.2745   48.0350 H   0  0  0  0  0  0  0  0  0  0  0  0
   58.6289   27.3927   45.9008 H   0  0  0  0  0  0  0  0  0  0  0  0
   60.5391   28.5683   44.8024 H   0  0  0  0  0  0  0  0  0  0  0  0
   61.4906   30.6360   45.8255 H   0  0  0  0  0  0  0  0  0  0  0  0
   58.6755   33.6311   42.7849 H   0  0  0  0  0  0  0  0  0  0  0  0
  1  2  1  0
  2  3  2  0
  3  4  1  0
  4  5  1  0
  4  6  2  0
  6  7  1  0
  7  8  1  0
  8  9  1  0
  9 10  1  0
 10 11  1  0
 11 12  2  0
 12 13  1  0
 13 14  2  0
 14 15  1  0
 15 16  1  0
 15 17  1  0
 15 18  1  0
 14 19  1  0
 19 20  2  0
 20 21  1  0
 21 22  2  0
 22 23  1  0
 23 24  2  0
 24 25  1  0
 25 26  2  0
  7 27  2  0
 27  2  1  0
 20 11  1  0
 26 21  1  0
  1 28  1  0
  1 29  1  0
  1 30  1  0
  3 31  1  0
  5 32  1  0
  5 33  1  0
  5 34  1  0
  6 35  1  0
  8 36  1  0
  8 37  1  0
  9 38  1  0
 10 39  1  0
 10 40  1  0
 12 41  1  0
 13 42  1  0
 19 43  1  0
 22 44  1  0
 23 45  1  0
 24 46  1  0
 25 47  1  0
 26 48  1  0
 27 49  1  0
M  CHG  1  19   1
M  END
>  <UniqueID>  (37) 
34

>  <SMILES>  (37) 
Cc1cc(C)cc(CNCc2ccc(C(F)(F)F)[nH+]c2-c2ccccc2)c1

>  <Energy>  (37) 
56.12567932278167

>  <Genealogy>  (37) 
Cc1cc(C)cc(CNCc2ccc(C(F)(F)F)[nH+]c2-c2ccccc2)c1 (protonated)
Cc1cc(C)cc(CNCc2ccc(C(F)(F)F)[nH+]c2-c2ccccc2)c1 (3D coordinates assigned)
Cc1cc(C)cc(CNCc2ccc(C(F)(F)F)[nH+]c2-c2ccccc2)c1 (optimized conformer: 56.12567932278167 kcal/mol)

>  <smiles>  (37) 
Cc1cc(C)cc(CNCc2ccc(C(F)(F)F)nc2-c2ccccc2)c1

>  <score_type>  (37) 
oracle

>  <origin>  (37) 
adg

>  <m_score__min__energy>  (37) 
-6.2800000000000002

>  <m_primary>  (37) 
energy

$$$$
37:0
     RDKit          3D

 53 55  0  0  0  0  0  0  0  0999 V2000
   55.9830   29.7370   43.5220 C   0  0  0  0  0  0  0  0  0  0  0  0
   56.2780   29.7420   44.9140 O   0  0  0  0  0  0  0  0  0  0  0  0
   57.1600   28.8510   45.5470 C   0  0  0  0  0  0  0  0  0  0  0  0
   56.9040   27.4660   45.6060 C   0  0  0  0  0  0  0  0  0  0  0  0
   57.7860   26.6130   46.2730 C   0  0  0  0  0  0  0  0  0  0  0  0
   58.9240   27.1270   46.8930 C   0  0  0  0  0  0  0  0  0  0  0  0
   59.1940   28.4960   46.8380 C   0  0  0  0  0  0  0  0  0  0  0  0
   58.3290   29.3600   46.1500 C   0  0  0  0  0  0  0  0  0  0  0  0
   58.6380   30.8030   46.1080 C   0  0  0  0  0  0  0  0  0  0  0  0
   58.2190   31.6040   45.0980 N   0  0  0  0  0  0  0  0  0  0  0  0
   58.7070   32.8150   45.4070 C   0  0  0  0  0  0  0  0  0  0  0  0
   58.5700   34.0010   44.6910 C   0  0  0  0  0  0  0  0  0  0  0  0
   59.1750   35.1560   45.2200 C   0  0  0  0  0  0  0  0  0  0  0  0
   59.8940   35.0940   46.4350 C   0  0  0  0  0  0  0  0  0  0  0  0
   60.0130   33.8780   47.1340 C   0  0  0  0  0  0  0  0  0  0  0  0
   59.3980   32.7470   46.5850 C   0  0  0  0  0  0  0  0  0  0  0  0
   59.3620   31.4770   47.0500 N   0  0  0  0  0  0  0  0  0  0  0  0
   59.8440   30.9650   48.3470 C   0  0  2  0  0  0  0  0  0  0  0  0
   59.1680   31.7150   49.5010 C   0  0  0  0  0  0  0  0  0  0  0  0
   61.3470   31.0220   48.4370 C   0  0  0  0  0  0  0  0  0  0  0  0
   61.9080   31.1080   49.5640 O   0  0  0  0  0  0  0  0  0  0  0  0
   62.1110   31.0620   47.2640 O   0  0  0  0  0  0  0  0  0  0  0  0
   63.3950   31.6730   47.1850 C   0  0  0  0  0  0  0  0  0  0  0  0
   63.2580   33.2070   47.2660 C   0  0  0  0  0  0  0  0  0  0  0  0
   63.6570   33.7900   48.5660 N   0  0  0  0  0  0  0  0  0  0  0  0
   64.5430   32.9100   49.3430 C   0  0  0  0  0  0  0  0  0  0  0  0
   62.5070   34.2320   49.3720 C   0  0  0  0  0  0  0  0  0  0  0  0
   54.8926   29.7185   43.3783 H   0  0  0  0  0  0  0  0  0  0  0  0
   56.3990   30.6423   43.0558 H   0  0  0  0  0  0  0  0  0  0  0  0
   56.4294   28.8463   43.0558 H   0  0  0  0  0  0  0  0  0  0  0  0
   56.0047   27.0549   45.1241 H   0  0  0  0  0  0  0  0  0  0  0  0
   57.5822   25.5326   46.3093 H   0  0  0  0  0  0  0  0  0  0  0  0
   59.6104   26.4530   47.4264 H   0  0  0  0  0  0  0  0  0  0  0  0
   60.0884   28.8985   47.3361 H   0  0  0  0  0  0  0  0  0  0  0  0
   57.6550   31.3380   44.2600 H   0  0  0  0  0  0  0  0  0  0  0  0
   58.0088   34.0340   43.7455 H   0  0  0  0  0  0  0  0  0  0  0  0
   59.0878   36.1129   44.6846 H   0  0  0  0  0  0  0  0  0  0  0  0
   60.3644   36.0032   46.8377 H   0  0  0  0  0  0  0  0  0  0  0  0
   60.5708   33.8186   48.0802 H   0  0  0  0  0  0  0  0  0  0  0  0
   59.5649   29.9041   48.4281 H   0  0  0  0  0  0  0  0  0  0  0  0
   59.5289   31.3146   50.4599 H   0  0  0  0  0  0  0  0  0  0  0  0
   59.4122   32.7855   49.4355 H   0  0  0  0  0  0  0  0  0  0  0  0
   58.0779   31.5829   49.4355 H   0  0  0  0  0  0  0  0  0  0  0  0
   64.0184   31.3189   48.0193 H   0  0  0  0  0  0  0  0  0  0  0  0
   63.8635   31.4035   46.2270 H   0  0  0  0  0  0  0  0  0  0  0  0
   63.8896   33.6504   46.4821 H   0  0  0  0  0  0  0  0  0  0  0  0
   62.1894   33.4333   47.1360 H   0  0  0  0  0  0  0  0  0  0  0  0
   64.3751   33.0767   50.4173 H   0  0  0  0  0  0  0  0  0  0  0  0
   64.3253   31.8603   49.0964 H   0  0  0  0  0  0  0  0  0  0  0  0
   65.5912   33.1348   49.0964 H   0  0  0  0  0  0  0  0  0  0  0  0
   62.7506   34.1384   50.4406 H   0  0  0  0  0  0  0  0  0  0  0  0
   62.2778   35.2823   49.1388 H   0  0  0  0  0  0  0  0  0  0  0  0
   61.6334   33.6056   49.1388 H   0  0  0  0  0  0  0  0  0  0  0  0
  1  2  1  0
  2  3  1  0
  3  4  2  0
  4  5  1  0
  5  6  2  0
  6  7  1  0
  7  8  2  0
  8  9  1  0
  9 10  2  0
 10 11  1  0
 11 12  2  0
 12 13  1  0
 13 14  2  0
 14 15  1  0
 15 16  2  0
 16 17  1  0
 17 18  1  0
 18 19  1  0
 18 20  1  0
 20 21  2  0
 20 22  1  0
 22 23  1  0
 23 24  1  0
 24 25  1  0
 25 26  1  0
 25 27  1  0
  8  3  1  0
 17  9  1  0
 16 11  1  0
  1 28  1  0
  1 29  1  0
  1 30  1  0
  4 31  1  0
  5 32  1  0
  6 33  1  0
  7 34  1  0
 10 35  1  0
 12 36  1  0
 13 37  1  0
 14 38  1  0
 15 39  1  0
 18 40  1  1
 19 41  1  0
 19 42  1  0
 19 43  1  0
 23 44  1  0
 23 45  1  0
 24 46  1  0
 24 47  1  0
 26 48  1  0
 26 49  1  0
 26 50  1  0
 27 51  1  0
 27 52  1  0
 27 53  1  0
M  CHG  1  10   1
M  END
>  <UniqueID>  (38) 
35

>  <SMILES>  (38) 
COc1ccccc1-c1[nH+]c2ccccc2n1[C@H](C)C(=O)OCCN(C)C

>  <Energy>  (38) 
96.95555021795126

>  <Genealogy>  (38) 
COc1ccccc1-c1[nH+]c2ccccc2n1C(C)C(=O)OCCN(C)C (protonated)
COc1ccccc1-c1[nH+]c2ccccc2n1[C@H](C)C(=O)OCCN(C)C (chirality)
COc1ccccc1-c1[nH+]c2ccccc2n1[C@H](C)C(=O)OCCN(C)C (3D coordinates assigned)
COc1ccccc1-c1[nH+]c2ccccc2n1[C@H](C)C(=O)OCCN(C)C (optimized conformer: 96.95555021795126 kcal/mol)

>  <smiles>  (38) 
COc1ccccc1-c1nc2ccccc2n1C(C)C(=O)OCCN(C)C

>  <score_type>  (38) 
oracle

>  <origin>  (38) 
adg

>  <m_score__min__energy>  (38) 
-5.5700000000000003

>  <m_primary>  (38) 
energy

$$$$
38:0
     RDKit          3D

 39 41  0  0  0  0  0  0  0  0999 V2000
   55.3060   23.1230   45.2370 C   0  0  0  0  0  0  0  0  0  0  0  0
   55.5370   24.5580   45.5730 C   0  0  0  0  0  0  0  0  0  0  0  0
   54.5550   25.4790   45.6170 N   0  0  0  0  0  0  0  0  0  0  0  0
   55.1450   26.5720   45.9940 O   0  0  0  0  0  0  0  0  0  0  0  0
   56.4200   26.3400   46.1850 C   0  0  0  0  0  0  0  0  0  0  0  0
   57.4130   27.3730   46.6140 C   0  0  0  0  0  0  0  0  0  0  0  0
   58.7510   27.0530   46.0770 N   0  0  0  0  0  0  0  0  0  0  0  0
   58.9030   27.5800   44.6990 C   0  0  0  0  0  0  0  0  0  0  0  0
   58.6620   29.0970   44.6040 C   0  0  0  0  0  0  0  0  0  0  0  0
   59.7030   29.9170   45.3820 C   0  0  0  0  0  0  0  0  0  0  0  0
   59.4020   30.0270   46.8220 N   0  0  0  0  0  0  0  0  0  0  0  0
   58.8650   31.2740   47.2990 C   0  0  0  0  0  0  0  0  0  0  0  0
   58.5220   31.3810   48.5070 O   0  0  0  0  0  0  0  0  0  0  0  0
   58.6840   32.4320   46.4040 C   0  0  0  0  0  0  0  0  0  0  0  0
   57.6440   32.6340   45.5040 C   0  0  0  0  0  0  0  0  0  0  0  0
   57.7260   33.8580   44.8290 C   0  0  0  0  0  0  0  0  0  0  0  0
   58.8200   34.6280   45.1970 C   0  0  0  0  0  0  0  0  0  0  0  0
   59.6830   33.7860   46.3680 S   0  0  0  0  0  0  0  0  0  0  0  0
   59.3950   28.8430   47.7040 C   0  0  0  0  0  0  0  0  0  0  0  0
   59.8210   27.5510   46.9710 C   0  0  0  0  0  0  0  0  0  0  0  0
   56.7360   25.0540   45.9360 N   0  0  0  0  0  0  0  0  0  0  0  0
   55.2121   22.5397   46.1649 H   0  0  0  0  0  0  0  0  0  0  0  0
   54.3811   23.0283   44.6492 H   0  0  0  0  0  0  0  0  0  0  0  0
   56.1545   22.7429   44.6492 H   0  0  0  0  0  0  0  0  0  0  0  0
   57.0974   28.3576   46.2385 H   0  0  0  0  0  0  0  0  0  0  0  0
   57.4627   27.3866   47.7128 H   0  0  0  0  0  0  0  0  0  0  0  0
   59.9247   27.3653   44.3526 H   0  0  0  0  0  0  0  0  0  0  0  0
   58.1444   27.0871   44.0733 H   0  0  0  0  0  0  0  0  0  0  0  0
   58.7016   29.3932   43.5454 H   0  0  0  0  0  0  0  0  0  0  0  0
   57.6780   29.3038   45.0501 H   0  0  0  0  0  0  0  0  0  0  0  0
   60.6847   29.4345   45.2665 H   0  0  0  0  0  0  0  0  0  0  0  0
   59.6905   30.9360   44.9679 H   0  0  0  0  0  0  0  0  0  0  0  0
   56.8371   31.9049   45.3386 H   0  0  0  0  0  0  0  0  0  0  0  0
   56.9910   34.1795   44.0764 H   0  0  0  0  0  0  0  0  0  0  0  0
   59.0778   35.6179   44.7925 H   0  0  0  0  0  0  0  0  0  0  0  0
   60.0909   29.0207   48.5372 H   0  0  0  0  0  0  0  0  0  0  0  0
   58.3638   28.6991   48.0589 H   0  0  0  0  0  0  0  0  0  0  0  0
   60.7187   27.7606   46.3709 H   0  0  0  0  0  0  0  0  0  0  0  0
   60.0250   26.7782   47.7268 H   0  0  0  0  0  0  0  0  0  0  0  0
  1  2  1  0
  2  3  2  0
  3  4  1  0
  4  5  1  0
  5  6  1  0
  6  7  1  0
  7  8  1  0
  8  9  1  0
  9 10  1  0
 10 11  1  0
 11 12  1  0
 12 13  2  0
 12 14  1  0
 14 15  2  0
 15 16  1  0
 16 17  2  0
 17 18  1  0
 11 19  1  0
 19 20  1  0
  5 21  2  0
 21  2  1  0
 20  7  1  0
 18 14  1  0
  1 22  1  0
  1 23  1  0
  1 24  1  0
  6 25  1  0
  6 26  1  0
  8 27  1  0
  8 28  1  0
  9 29  1  0
  9 30  1  0
 10 31  1  0
 10 32  1  0
 15 33  1  0
 16 34  1  0
 17 35  1  0
 19 36  1  0
 19 37  1  0
 20 38  1  0
 20 39  1  0
M  END
>  <UniqueID>  (39) 
36

>  <SMILES>  (39) 
Cc1noc(CN2CCCN(C(=O)c3cccs3)CC2)n1

>  <Energy>  (39) 
107.40641021540362

>  <Genealogy>  (39) 
Cc1noc(CN2CCCN(C(=O)c3cccs3)CC2)n1 (3D coordinates assigned)
Cc1noc(CN2CCCN(C(=O)c3cccs3)CC2)n1 (nonaromatic ring conformer: 107.40641021540362 kcal/mol)

>  <smiles>  (39) 
Cc1noc(CN2CCCN(C(=O)c3cccs3)CC2)n1

>  <score_type>  (39) 
oracle

>  <origin>  (39) 
adg

>  <m_score__min__energy>  (39) 
-5.8099999999999996

>  <m_primary>  (39) 
energy

$$$$
39:0
     RDKit          3D

 44 46  0  0  0  0  0  0  0  0999 V2000
   57.1070   30.8280   43.1800 C   0  0  0  0  0  0  0  0  0  0  0  0
   56.6800   31.2060   44.4850 O   0  0  0  0  0  0  0  0  0  0  0  0
   57.4040   32.0470   45.3420 C   0  0  0  0  0  0  0  0  0  0  0  0
   57.4400   33.4450   45.1770 C   0  0  0  0  0  0  0  0  0  0  0  0
   58.1770   34.2410   46.0570 C   0  0  0  0  0  0  0  0  0  0  0  0
   58.8950   33.6550   47.1120 C   0  0  0  0  0  0  0  0  0  0  0  0
   59.6620   34.5150   48.0860 C   0  0  0  0  0  0  0  0  0  0  0  0
   61.1790   34.2160   48.0240 C   0  0  2  0  0  0  0  0  0  0  0  0
   61.6140   33.5410   46.7280 C   0  0  0  0  0  0  0  0  0  0  0  0
   62.8890   32.8040   47.0960 C   0  0  0  0  0  0  0  0  0  0  0  0
   63.0050   32.9220   48.6140 C   0  0  0  0  0  0  0  0  0  0  0  0
   61.7100   33.3970   49.1370 N   0  0  0  0  0  0  0  0  0  0  0  0
   60.8450   32.2500   49.5090 C   0  0  0  0  0  0  0  0  0  0  0  0
   59.8490   32.6520   50.5680 C   0  0  0  0  0  0  0  0  0  0  0  0
   58.7180   31.8590   50.8190 C   0  0  0  0  0  0  0  0  0  0  0  0
   57.8120   32.2510   51.8060 C   0  0  0  0  0  0  0  0  0  0  0  0
   58.0350   33.4220   52.5290 C   0  0  0  0  0  0  0  0  0  0  0  0
   59.1680   34.1910   52.2510 C   0  0  0  0  0  0  0  0  0  0  0  0
   60.0440   33.7970   51.2870 N   0  0  0  0  0  0  0  0  0  0  0  0
   58.8500   32.2630   47.2820 C   0  0  0  0  0  0  0  0  0  0  0  0
   58.1130   31.4670   46.4010 C   0  0  0  0  0  0  0  0  0  0  0  0
   57.9285   30.1008   43.2593 H   0  0  0  0  0  0  0  0  0  0  0  0
   56.2658   30.3731   42.6364 H   0  0  0  0  0  0  0  0  0  0  0  0
   57.4565   31.7181   42.6364 H   0  0  0  0  0  0  0  0  0  0  0  0
   56.8847   33.9128   44.3506 H   0  0  0  0  0  0  0  0  0  0  0  0
   58.1950   35.3326   45.9229 H   0  0  0  0  0  0  0  0  0  0  0  0
   59.4947   35.5737   47.8385 H   0  0  0  0  0  0  0  0  0  0  0  0
   59.3049   34.2927   49.1024 H   0  0  0  0  0  0  0  0  0  0  0  0
   61.6031   35.2283   48.0973 H   0  0  0  0  0  0  0  0  0  0  0  0
   60.8445   32.8370   46.3784 H   0  0  0  0  0  0  0  0  0  0  0  0
   61.7669   34.2613   45.9108 H   0  0  0  0  0  0  0  0  0  0  0  0
   62.8225   31.7476   46.7965 H   0  0  0  0  0  0  0  0  0  0  0  0
   63.7667   33.2272   46.5856 H   0  0  0  0  0  0  0  0  0  0  0  0
   63.2443   31.9396   49.0471 H   0  0  0  0  0  0  0  0  0  0  0  0
   63.8058   33.6272   48.8814 H   0  0  0  0  0  0  0  0  0  0  0  0
   60.3028   31.9030   48.6170 H   0  0  0  0  0  0  0  0  0  0  0  0
   61.4792   31.4450   49.9087 H   0  0  0  0  0  0  0  0  0  0  0  0
   58.5474   30.9374   50.2433 H   0  0  0  0  0  0  0  0  0  0  0  0
   56.9233   31.6368   52.0130 H   0  0  0  0  0  0  0  0  0  0  0  0
   57.3269   33.7370   53.3096 H   0  0  0  0  0  0  0  0  0  0  0  0
   59.3525   35.1182   52.8134 H   0  0  0  0  0  0  0  0  0  0  0  0
   60.8830   34.3910   51.0990 H   0  0  0  0  0  0  0  0  0  0  0  0
   59.3979   31.7956   48.1134 H   0  0  0  0  0  0  0  0  0  0  0  0
   58.0897   30.3761   46.5406 H   0  0  0  0  0  0  0  0  0  0  0  0
  1  2  1  0
  2  3  1  0
  3  4  2  0
  4  5  1  0
  5  6  2  0
  6  7  1  0
  7  8  1  0
  8  9  1  0
  9 10  1  0
 10 11  1  0
 11 12  1  0
 12 13  1  0
 13 14  1  0
 14 15  2  0
 15 16  1  0
 16 17  2  0
 17 18  1  0
 18 19  2  0
  6 20  1  0
 20 21  2  0
 21  3  1  0
 12  8  1  0
 19 14  1  0
  1 22  1  0
  1 23  1  0
  1 24  1  0
  4 25  1  0
  5 26  1  0
  7 27  1  0
  7 28  1  0
  8 29  1  6
  9 30  1  0
  9 31  1  0
 10 32  1  0
 10 33  1  0
 11 34  1  0
 11 35  1  0
 13 36  1  0
 13 37  1  0
 15 38  1  0
 16 39  1  0
 17 40  1  0
 18 41  1  0
 19 42  1  0
 20 43  1  0
 21 44  1  0
M  CHG  1  19   1
M  END
>  <UniqueID>  (40) 
37

>  <SMILES>  (40) 
COc1ccc(C[C@@H]2CCCN2Cc2cccc[nH+]2)cc1

>  <Energy>  (40) 
50.761082966917925

>  <Genealogy>  (40) 
COc1ccc(CC2CCCN2Cc2cccc[nH+]2)cc1 (protonated)
COc1ccc(C[C@@H]2CCCN2Cc2cccc[nH+]2)cc1 (chirality)
COc1ccc(C[C@@H]2CCCN2Cc2cccc[nH+]2)cc1 (3D coordinates assigned)
COc1ccc(C[C@@H]2CCCN2Cc2cccc[nH+]2)cc1 (nonaromatic ring conformer: 50.761082966917925 kcal/mol)

>  <smiles>  (40) 
COc1ccc(CC2CCCN2Cc2ccccn2)cc1

>  <score_type>  (40) 
oracle

>  <origin>  (40) 
adg

>  <m_score__min__energy>  (40) 
-5.4900000000000002

>  <m_primary>  (40) 
energy

$$$$
40:0
     RDKit          3D

 43 45  0  0  0  0  0  0  0  0999 V2000
   57.9926   23.8591   47.6490 H   0  0  0  0  0  0  0  0  0  0  0  0
   57.7740   24.8040   47.1300 C   0  0  0  0  0  0  0  0  0  0  0  0
   58.8190   25.6410   46.7330 C   0  0  0  0  0  0  0  0  0  0  0  0
   59.8601   25.3591   46.9489 H   0  0  0  0  0  0  0  0  0  0  0  0
   58.5450   26.8360   46.0620 C   0  0  0  0  0  0  0  0  0  0  0  0
   59.3719   27.4984   45.7661 H   0  0  0  0  0  0  0  0  0  0  0  0
   57.2170   27.1980   45.7620 C   0  0  0  0  0  0  0  0  0  0  0  0
   56.9130   28.5120   45.0750 C   0  0  0  0  0  0  0  0  0  0  0  0
   55.8637   28.5049   44.7448 H   0  0  0  0  0  0  0  0  0  0  0  0
   57.5998   28.6144   44.2219 H   0  0  0  0  0  0  0  0  0  0  0  0
   57.1210   29.6580   45.9600 N   0  0  0  0  0  0  0  0  0  0  0  0
   58.1450   30.4470   46.1530 C   0  0  0  0  0  0  0  0  0  0  0  0
   59.2450   29.9700   46.7870 N   0  0  0  0  0  0  0  0  0  0  0  0
   60.0560   31.0340   46.8560 C   0  0  0  0  0  0  0  0  0  0  0  0
   61.3180   31.0840   47.4420 C   0  0  0  0  0  0  0  0  0  0  0  0
   61.7716   30.1873   47.8894 H   0  0  0  0  0  0  0  0  0  0  0  0
   61.9930   32.3140   47.4440 C   0  0  0  0  0  0  0  0  0  0  0  0
   62.9960   32.3867   47.8897 H   0  0  0  0  0  0  0  0  0  0  0  0
   61.3930   33.4570   46.8780 C   0  0  0  0  0  0  0  0  0  0  0  0
   61.9294   34.4173   46.8904 H   0  0  0  0  0  0  0  0  0  0  0  0
   60.1130   33.3800   46.2970 C   0  0  0  0  0  0  0  0  0  0  0  0
   59.5320   34.5250   45.7680 O   0  0  0  0  0  0  0  0  0  0  0  0
   59.4660   32.1290   46.2880 C   0  0  0  0  0  0  0  0  0  0  0  0
   58.2470   31.7750   45.8090 N   0  0  0  0  0  0  0  0  0  0  0  0
   57.2790   32.6790   45.1750 C   0  0  0  0  0  0  0  0  0  0  0  0
   57.1469   33.5686   45.8084 H   0  0  0  0  0  0  0  0  0  0  0  0
   56.3225   32.1483   45.0588 H   0  0  0  0  0  0  0  0  0  0  0  0
   57.7730   33.1160   43.7890 C   0  0  0  0  0  0  0  0  0  0  0  0
   58.7316   33.6445   43.8976 H   0  0  0  0  0  0  0  0  0  0  0  0
   57.0200   33.7793   43.3384 H   0  0  0  0  0  0  0  0  0  0  0  0
   57.9620   31.9450   42.9080 N   0  0  0  0  0  0  0  0  0  0  0  0
   57.9880   32.3490   41.4910 C   0  0  0  0  0  0  0  0  0  0  0  0
   58.0585   33.4447   41.4233 H   0  0  0  0  0  0  0  0  0  0  0  0
   58.8587   31.8943   40.9960 H   0  0  0  0  0  0  0  0  0  0  0  0
   57.0662   32.0096   40.9960 H   0  0  0  0  0  0  0  0  0  0  0  0
   56.8790   30.9710   43.1190 C   0  0  0  0  0  0  0  0  0  0  0  0
   56.7197   30.8278   44.1979 H   0  0  0  0  0  0  0  0  0  0  0  0
   55.9533   31.3464   42.6584 H   0  0  0  0  0  0  0  0  0  0  0  0
   57.1545   30.0108   42.6584 H   0  0  0  0  0  0  0  0  0  0  0  0
   56.1670   26.3620   46.1980 C   0  0  0  0  0  0  0  0  0  0  0  0
   54.8400   26.7100   45.9670 O   0  0  0  0  0  0  0  0  0  0  0  0
   56.4520   25.1670   46.8680 C   0  0  0  0  0  0  0  0  0  0  0  0
   55.6301   24.5105   47.1898 H   0  0  0  0  0  0  0  0  0  0  0  0
  1  2  1  0
  2  3  2  0
  3  4  1  0
  3  5  1  0
  5  6  1  0
  5  7  2  0
  7  8  1  0
  8  9  1  0
  8 10  1  0
  8 11  1  0
 11 12  2  0
 12 13  1  0
 13 14  1  0
 14 15  2  0
 15 16  1  0
 15 17  1  0
 17 18  1  0
 17 19  2  0
 19 20  1  0
 19 21  1  0
 21 22  1  0
 21 23  2  0
 23 24  1  0
 24 25  1  0
 25 26  1  0
 25 27  1  0
 25 28  1  0
 28 29  1  0
 28 30  1  0
 28 31  1  0
 31 32  1  0
 32 33  1  0
 32 34  1  0
 32 35  1  0
 31 36  1  0
 36 37  1  0
 36 38  1  0
 36 39  1  0
  7 40  1  0
 40 41  1  0
 40 42  2  0
 42 43  1  0
 42  2  1  0
 24 12  1  0
 23 14  1  0
M  CHG  3  13  -1  22  -1  41  -1
M  END
>  <UniqueID>  (41) 
38

>  <SMILES>  (41) 
CN(C)CCn1/c(=N\Cc2ccccc2[O-])[n-]c2cccc([O-])c21

>  <Energy>  (41) 
92.70272550597181

>  <Genealogy>  (41) 
CN(C)CCn1c(=NCc2ccccc2[O-])[n-]c2cccc([O-])c21 (protonated)
CN(C)CCn1/c(=N\Cc2ccccc2[O-])[n-]c2cccc([O-])c21 (cis-trans isomerization)
CN(C)CCn1/c(=N\Cc2ccccc2[O-])[n-]c2cccc([O-])c21 (3D coordinates assigned)
CN(C)CCn1/c(=N\Cc2ccccc2[O-])[n-]c2cccc([O-])c21 (optimized conformer: 92.70272550597181 kcal/mol)

>  <smiles>  (41) 
CN(C)CCn1c(=NCc2ccccc2O)[nH]c2cccc(O)c21

>  <score_type>  (41) 
oracle

>  <origin>  (41) 
adg

>  <m_score__min__energy>  (41) 
-12.92

>  <m_primary>  (41) 
energy

$$$$
41:0
     RDKit          3D

 55 59  0  0  0  0  0  0  0  0999 V2000
   62.7860   30.8580   50.6100 C   0  0  0  0  0  0  0  0  0  0  0  0
   61.7680   30.5270   49.5520 C   0  0  0  0  0  0  0  0  0  0  0  0
   60.9580   29.3940   49.7220 C   0  0  0  0  0  0  0  0  0  0  0  0
   59.9670   29.0810   48.7890 C   0  0  0  0  0  0  0  0  0  0  0  0
   59.7630   29.8960   47.6640 C   0  0  0  0  0  0  0  0  0  0  0  0
   58.6980   29.5730   46.6810 C   0  0  0  0  0  0  0  0  0  0  0  0
   58.2320   30.5520   45.7860 C   0  0  0  0  0  0  0  0  0  0  0  0
   57.2310   30.2470   44.8620 C   0  0  0  0  0  0  0  0  0  0  0  0
   56.6830   28.9630   44.8170 C   0  0  0  0  0  0  0  0  0  0  0  0
   57.1330   27.9670   45.6990 C   0  0  0  0  0  0  0  0  0  0  0  0
   56.5540   26.6060   45.6510 C   0  0  0  0  0  0  0  0  0  0  0  0
   57.2690   25.5100   45.2760 N   0  0  0  0  0  0  0  0  0  0  0  0
   56.3700   24.5190   45.3760 C   0  0  0  0  0  0  0  0  0  0  0  0
   56.5550   23.1580   45.1080 C   0  0  0  0  0  0  0  0  0  0  0  0
   57.8680   22.6330   44.6080 C   0  0  0  0  0  0  0  0  0  0  0  0
   55.4370   22.3100   45.2640 C   0  0  0  0  0  0  0  0  0  0  0  0
   54.1970   22.8310   45.6990 C   0  0  0  0  0  0  0  0  0  0  0  0
   54.0560   24.2040   45.9700 C   0  0  0  0  0  0  0  0  0  0  0  0
   55.1730   25.0160   45.7920 C   0  0  0  0  0  0  0  0  0  0  0  0
   55.2590   26.3410   45.9750 N   0  0  0  0  0  0  0  0  0  0  0  0
   58.1410   28.2810   46.6290 C   0  0  0  0  0  0  0  0  0  0  0  0
   60.5860   31.0200   47.4810 C   0  0  0  0  0  0  0  0  0  0  0  0
   61.6050   31.3230   48.3930 C   0  0  0  0  0  0  0  0  0  0  0  0
   62.4230   32.4730   48.1410 N   0  0  0  0  0  0  0  0  0  0  0  0
   61.9750   33.6350   47.4360 C   0  0  0  0  0  0  0  0  0  0  0  0
   62.5190   33.9750   46.3500 O   0  0  0  0  0  0  0  0  0  0  0  0
   60.7970   34.3980   47.9460 C   0  0  0  0  0  0  0  0  0  0  0  0
   59.6250   34.2000   47.0330 C   0  0  0  0  0  0  0  0  0  0  0  0
   59.6740   34.6330   45.7000 C   0  0  0  0  0  0  0  0  0  0  0  0
   58.5510   34.4700   44.8850 C   0  0  0  0  0  0  0  0  0  0  0  0
   57.3950   33.8860   45.4050 C   0  0  0  0  0  0  0  0  0  0  0  0
   57.3770   33.4750   46.7400 C   0  0  0  0  0  0  0  0  0  0  0  0
   58.4800   33.6430   47.5190 N   0  0  0  0  0  0  0  0  0  0  0  0
   62.3407   30.7132   51.6054 H   0  0  0  0  0  0  0  0  0  0  0  0
   63.6584   30.1972   50.4989 H   0  0  0  0  0  0  0  0  0  0  0  0
   63.1029   31.9055   50.4989 H   0  0  0  0  0  0  0  0  0  0  0  0
   61.1049   28.7460   50.5986 H   0  0  0  0  0  0  0  0  0  0  0  0
   59.3411   28.1886   48.9367 H   0  0  0  0  0  0  0  0  0  0  0  0
   58.6591   31.5653   45.8140 H   0  0  0  0  0  0  0  0  0  0  0  0
   56.8726   31.0206   44.1669 H   0  0  0  0  0  0  0  0  0  0  0  0
   55.8942   28.7305   44.0864 H   0  0  0  0  0  0  0  0  0  0  0  0
   58.5100   22.3763   45.4635 H   0  0  0  0  0  0  0  0  0  0  0  0
   57.6950   21.7349   43.9969 H   0  0  0  0  0  0  0  0  0  0  0  0
   58.3619   23.4028   43.9969 H   0  0  0  0  0  0  0  0  0  0  0  0
   55.5316   21.2361   45.0455 H   0  0  0  0  0  0  0  0  0  0  0  0
   53.3363   22.1580   45.8265 H   0  0  0  0  0  0  0  0  0  0  0  0
   53.0970   24.6216   46.3106 H   0  0  0  0  0  0  0  0  0  0  0  0
   58.4984   27.5072   47.3243 H   0  0  0  0  0  0  0  0  0  0  0  0
   60.4278   31.6714   46.6089 H   0  0  0  0  0  0  0  0  0  0  0  0
   60.5389   34.0395   48.9534 H   0  0  0  0  0  0  0  0  0  0  0  0
   61.0485   35.4682   47.9845 H   0  0  0  0  0  0  0  0  0  0  0  0
   60.5879   35.0965   45.3000 H   0  0  0  0  0  0  0  0  0  0  0  0
   58.5779   34.8011   43.8363 H   0  0  0  0  0  0  0  0  0  0  0  0
   56.5070   33.7507   44.7700 H   0  0  0  0  0  0  0  0  0  0  0  0
   56.4709   33.0154   47.1616 H   0  0  0  0  0  0  0  0  0  0  0  0
  1  2  1  0
  2  3  2  0
  3  4  1  0
  4  5  2  0
  5  6  1  0
  6  7  2  0
  7  8  1  0
  8  9  2  0
  9 10  1  0
 10 11  1  0
 11 12  2  0
 12 13  1  0
 13 14  2  0
 14 15  1  0
 14 16  1  0
 16 17  2  0
 17 18  1  0
 18 19  2  0
 19 20  1  0
 10 21  2  0
  5 22  1  0
 22 23  2  0
 23 24  1  0
 24 25  1  0
 25 26  2  0
 25 27  1  0
 27 28  1  0
 28 29  2  0
 29 30  1  0
 30 31  2  0
 31 32  1  0
 32 33  2  0
 23  2  1  0
 33 28  1  0
 21  6  1  0
 20 11  1  0
 19 13  1  0
  1 34  1  0
  1 35  1  0
  1 36  1  0
  3 37  1  0
  4 38  1  0
  7 39  1  0
  8 40  1  0
  9 41  1  0
 15 42  1  0
 15 43  1  0
 15 44  1  0
 16 45  1  0
 17 46  1  0
 18 47  1  0
 21 48  1  0
 22 49  1  0
 27 50  1  0
 27 51  1  0
 29 52  1  0
 30 53  1  0
 31 54  1  0
 32 55  1  0
M  CHG  2  20  -1  24  -1
M  END
>  <UniqueID>  (42) 
39

>  <SMILES>  (42) 
Cc1ccc(-c2cccc(-c3nc4c(C)cccc4[n-]3)c2)cc1[N-]C(=O)Cc1ccccn1

>  <Energy>  (42) 
106.35074515067895

>  <Genealogy>  (42) 
Cc1ccc(-c2cccc(-c3nc4c(C)cccc4[n-]3)c2)cc1[N-]C(=O)Cc1ccccn1 (protonated)
Cc1ccc(-c2cccc(-c3nc4c(C)cccc4[n-]3)c2)cc1[N-]C(=O)Cc1ccccn1 (3D coordinates assigned)
Cc1ccc(-c2cccc(-c3nc4c(C)cccc4[n-]3)c2)cc1[N-]C(=O)Cc1ccccn1 (optimized conformer: 106.35074515067895 kcal/mol)

>  <smiles>  (42) 
Cc1ccc(-c2cccc(-c3nc4c(C)cccc4[nH]3)c2)cc1NC(=O)Cc1ccccn1

>  <score_type>  (42) 
oracle

>  <origin>  (42) 
adg

>  <m_score__min__energy>  (42) 
-12.710000000000001

>  <m_primary>  (42) 
energy

$$$$
42:0
     RDKit          3D

 52 54  0  0  0  0  0  0  0  0999 V2000
   59.0550   21.7790   44.9500 C   0  0  0  0  0  0  0  0  0  0  0  0
   58.4530   23.1580   45.0100 C   0  0  0  0  0  0  0  0  0  0  0  0
   59.1800   24.1850   45.6350 C   0  0  0  0  0  0  0  0  0  0  0  0
   58.6790   25.4850   45.6830 C   0  0  0  0  0  0  0  0  0  0  0  0
   57.4330   25.7880   45.1210 C   0  0  0  0  0  0  0  0  0  0  0  0
   56.9040   27.1680   45.1560 C   0  0  0  0  0  0  0  0  0  0  0  0
   55.7590   27.3720   45.6450 O   0  0  0  0  0  0  0  0  0  0  0  0
   57.6770   28.2840   44.6690 N   0  0  0  0  0  0  0  0  0  0  0  0
   59.1280   28.3370   44.8880 C   0  0  0  0  0  0  0  0  0  0  0  0
   59.5970   29.7910   45.0070 C   0  0  0  0  0  0  0  0  0  0  0  0
   58.5940   30.5580   45.7830 N   0  0  0  0  0  0  0  0  0  0  0  0
   59.1310   31.8750   46.2460 C   0  0  0  0  0  0  0  0  0  0  0  0
   58.8440   33.0470   45.2600 C   0  0  0  0  0  0  0  0  0  0  0  0
   58.5510   34.4140   45.9020 C   0  0  0  0  0  0  0  0  0  0  0  0
   59.7180   34.9890   46.7130 C   0  0  0  0  0  0  0  0  0  0  0  0
   59.5970   34.6530   48.2070 C   0  0  0  0  0  0  0  0  0  0  0  0
   59.6120   33.1490   48.5090 C   0  0  0  0  0  0  0  0  0  0  0  0
   58.6530   32.2730   47.6740 C   0  0  0  0  0  0  0  0  0  0  0  0
   57.3650   30.7230   44.9540 C   0  0  0  0  0  0  0  0  0  0  0  0
   57.0130   29.4700   44.1220 C   0  0  0  0  0  0  0  0  0  0  0  0
   56.7010   24.7690   44.4910 C   0  0  0  0  0  0  0  0  0  0  0  0
   57.1830   23.4480   44.4470 C   0  0  0  0  0  0  0  0  0  0  0  0
   56.3740   22.4330   43.8250 N   0  0  0  0  0  0  0  0  0  0  0  0
   55.9510   21.4600   44.4820 O   0  0  0  0  0  0  0  0  0  0  0  0
   55.9130   22.6130   42.5400 O   0  0  0  0  0  0  0  0  0  0  0  0
   59.2181   21.4054   45.9717 H   0  0  0  0  0  0  0  0  0  0  0  0
   58.3702   21.1028   44.4173 H   0  0  0  0  0  0  0  0  0  0  0  0
   60.0164   21.8215   44.4173 H   0  0  0  0  0  0  0  0  0  0  0  0
   60.1554   23.9608   46.0915 H   0  0  0  0  0  0  0  0  0  0  0  0
   59.2673   26.2790   46.1662 H   0  0  0  0  0  0  0  0  0  0  0  0
   59.3745   27.7995   45.8155 H   0  0  0  0  0  0  0  0  0  0  0  0
   59.6356   27.8670   44.0327 H   0  0  0  0  0  0  0  0  0  0  0  0
   60.5676   29.8246   45.5235 H   0  0  0  0  0  0  0  0  0  0  0  0
   59.7070   30.2299   44.0044 H   0  0  0  0  0  0  0  0  0  0  0  0
   60.2184   31.7124   46.2786 H   0  0  0  0  0  0  0  0  0  0  0  0
   59.7237   33.1625   44.6098 H   0  0  0  0  0  0  0  0  0  0  0  0
   57.9232   32.7668   44.7274 H   0  0  0  0  0  0  0  0  0  0  0  0
   58.3037   35.1258   45.1007 H   0  0  0  0  0  0  0  0  0  0  0  0
   57.7204   34.2613   46.6068 H   0  0  0  0  0  0  0  0  0  0  0  0
   60.6592   34.5688   46.3290 H   0  0  0  0  0  0  0  0  0  0  0  0
   59.7004   36.0837   46.6070 H   0  0  0  0  0  0  0  0  0  0  0  0
   60.4399   35.1210   48.7366 H   0  0  0  0  0  0  0  0  0  0  0  0
   58.6221   35.0364   48.5426 H   0  0  0  0  0  0  0  0  0  0  0  0
   60.6350   32.7831   48.3373 H   0  0  0  0  0  0  0  0  0  0  0  0
   59.2640   33.0555   49.5483 H   0  0  0  0  0  0  0  0  0  0  0  0
   58.4752   31.3446   48.2365 H   0  0  0  0  0  0  0  0  0  0  0  0
   57.7589   32.8940   47.5161 H   0  0  0  0  0  0  0  0  0  0  0  0
   56.5206   30.9458   45.6229 H   0  0  0  0  0  0  0  0  0  0  0  0
   57.5599   31.5400   44.2437 H   0  0  0  0  0  0  0  0  0  0  0  0
   55.9240   29.3165   44.1430 H   0  0  0  0  0  0  0  0  0  0  0  0
   57.3561   29.6231   43.0882 H   0  0  0  0  0  0  0  0  0  0  0  0
   55.7341   25.0075   44.0238 H   0  0  0  0  0  0  0  0  0  0  0  0
  1  2  1  0
  2  3  2  0
  3  4  1  0
  4  5  2  0
  5  6  1  0
  6  7  2  0
  6  8  1  0
  8  9  1  0
  9 10  1  0
 10 11  1  0
 11 12  1  0
 12 13  1  0
 13 14  1  0
 14 15  1  0
 15 16  1  0
 16 17  1  0
 17 18  1  0
 11 19  1  0
 19 20  1  0
  5 21  1  0
 21 22  2  0
 22 23  1  0
 23 24  2  0
 23 25  1  0
 22  2  1  0
 20  8  1  0
 18 12  1  0
  1 26  1  0
  1 27  1  0
  1 28  1  0
  3 29  1  0
  4 30  1  0
  9 31  1  0
  9 32  1  0
 10 33  1  0
 10 34  1  0
 12 35  1  0
 13 36  1  0
 13 37  1  0
 14 38  1  0
 14 39  1  0
 15 40  1  0
 15 41  1  0
 16 42  1  0
 16 43  1  0
 17 44  1  0
 17 45  1  0
 18 46  1  0
 18 47  1  0
 19 48  1  0
 19 49  1  0
 20 50  1  0
 20 51  1  0
 21 52  1  0
M  CHG  2  23   1  25  -1
M  END
>  <UniqueID>  (43) 
40

>  <SMILES>  (43) 
Cc1ccc(C(=O)N2CCN(C3CCCCCC3)CC2)cc1[N+](=O)[O-]

>  <Energy>  (43) 
75.38375862126391

>  <Genealogy>  (43) 
Cc1ccc(C(=O)N2CCN(C3CCCCCC3)CC2)cc1[N+](=O)[O-] (3D coordinates assigned)
Cc1ccc(C(=O)N2CCN(C3CCCCCC3)CC2)cc1[N+](=O)[O-] (nonaromatic ring conformer: 75.38375862126391 kcal/mol)

>  <smiles>  (43) 
Cc1ccc(C(=O)N2CCN(C3CCCCCC3)CC2)cc1[N+](=O)[O-]

>  <score_type>  (43) 
oracle

>  <origin>  (43) 
adg

>  <m_score__min__energy>  (43) 
-7.25

>  <m_primary>  (43) 
energy

$$$$
43:0
     RDKit          3D

 65 67  0  0  0  0  0  0  0  0999 V2000
   62.6520   30.9170   50.0640 C   0  0  0  0  0  0  0  0  0  0  0  0
   62.7300   31.5950   48.7010 C   0  0  0  0  0  0  0  0  0  0  0  0
   62.9040   33.0430   48.8700 N   0  0  0  0  0  0  0  0  0  0  0  0
   63.2740   33.6940   47.6040 C   0  0  0  0  0  0  0  0  0  0  0  0
   62.0370   33.8240   46.7040 C   0  0  0  0  0  0  0  0  0  0  0  0
   60.7810   33.8300   47.4780 N   0  0  0  0  0  0  0  0  0  0  0  0
   59.6220   33.6730   46.6210 C   0  0  0  0  0  0  0  0  0  0  0  0
   59.2650   34.7260   45.7570 C   0  0  0  0  0  0  0  0  0  0  0  0
   58.1880   34.5950   44.8760 C   0  0  0  0  0  0  0  0  0  0  0  0
   57.4590   33.4090   44.8360 C   0  0  0  0  0  0  0  0  0  0  0  0
   57.7900   32.3560   45.6890 C   0  0  0  0  0  0  0  0  0  0  0  0
   58.8570   32.4760   46.5960 C   0  0  0  0  0  0  0  0  0  0  0  0
   59.1010   31.3620   47.5370 C   0  0  0  0  0  0  0  0  0  0  0  0
   59.1990   30.0490   47.0490 C   0  0  0  0  0  0  0  0  0  0  0  0
   59.3940   28.9820   47.9290 C   0  0  0  0  0  0  0  0  0  0  0  0
   59.4910   29.2170   49.3020 C   0  0  0  0  0  0  0  0  0  0  0  0
   59.3760   30.5170   49.8000 C   0  0  0  0  0  0  0  0  0  0  0  0
   59.1470   31.5920   48.9270 C   0  0  0  0  0  0  0  0  0  0  0  0
   59.0240   32.9310   49.4300 N   0  0  0  0  0  0  0  0  0  0  0  0
   59.8410   33.5380   50.4370 C   0  0  0  0  0  0  0  0  0  0  0  0
   60.8430   34.2140   50.0730 O   0  0  0  0  0  0  0  0  0  0  0  0
   59.4250   33.5660   51.8880 C   0  0  0  0  0  0  0  0  0  0  0  0
   59.5800   32.2010   52.5720 C   0  0  0  0  0  0  0  0  0  0  0  0
   58.3770   31.8730   53.3740 N   0  0  0  0  0  0  0  0  0  0  0  0
   58.3310   30.4600   53.8070 C   0  0  0  0  0  0  0  0  0  0  0  0
   57.9020   29.5000   52.6790 C   0  0  0  0  0  0  0  0  0  0  0  0
   56.6680   29.9320   51.9940 N   0  0  0  0  0  0  0  0  0  0  0  0
   55.4550   29.6460   52.7820 C   0  0  0  0  0  0  0  0  0  0  0  0
   56.7450   31.3410   51.5620 C   0  0  0  0  0  0  0  0  0  0  0  0
   57.1180   32.2800   52.7190 C   0  0  0  0  0  0  0  0  0  0  0  0
   62.7392   31.6752   50.8562 H   0  0  0  0  0  0  0  0  0  0  0  0
   61.6880   30.3959   50.1597 H   0  0  0  0  0  0  0  0  0  0  0  0
   63.4725   30.1906   50.1597 H   0  0  0  0  0  0  0  0  0  0  0  0
   63.5845   31.1884   48.1402 H   0  0  0  0  0  0  0  0  0  0  0  0
   61.7975   31.4052   48.1493 H   0  0  0  0  0  0  0  0  0  0  0  0
   61.9890   33.4450   49.1880 H   0  0  0  0  0  0  0  0  0  0  0  0
   63.6800   34.6947   47.8132 H   0  0  0  0  0  0  0  0  0  0  0  0
   64.0333   33.0852   47.0913 H   0  0  0  0  0  0  0  0  0  0  0  0
   62.1084   34.7644   46.1379 H   0  0  0  0  0  0  0  0  0  0  0  0
   62.0153   32.9526   46.0331 H   0  0  0  0  0  0  0  0  0  0  0  0
   60.7000   34.7490   47.9750 H   0  0  0  0  0  0  0  0  0  0  0  0
   60.8340   33.0970   48.2210 H   0  0  0  0  0  0  0  0  0  0  0  0
   59.8408   35.6631   45.7757 H   0  0  0  0  0  0  0  0  0  0  0  0
   57.9158   35.4297   44.2133 H   0  0  0  0  0  0  0  0  0  0  0  0
   56.6213   33.3025   44.1310 H   0  0  0  0  0  0  0  0  0  0  0  0
   57.2100   31.4221   45.6514 H   0  0  0  0  0  0  0  0  0  0  0  0
   59.1218   29.8598   45.9682 H   0  0  0  0  0  0  0  0  0  0  0  0
   59.4712   27.9559   47.5402 H   0  0  0  0  0  0  0  0  0  0  0  0
   59.6582   28.3772   49.9925 H   0  0  0  0  0  0  0  0  0  0  0  0
   59.4653   30.6991   50.8811 H   0  0  0  0  0  0  0  0  0  0  0  0
   60.0491   34.2995   52.4195 H   0  0  0  0  0  0  0  0  0  0  0  0
   58.3598   33.8382   51.9244 H   0  0  0  0  0  0  0  0  0  0  0  0
   59.7229   31.4270   51.8036 H   0  0  0  0  0  0  0  0  0  0  0  0
   60.4506   32.2404   53.2432 H   0  0  0  0  0  0  0  0  0  0  0  0
   59.3324   30.1669   54.1553 H   0  0  0  0  0  0  0  0  0  0  0  0
   57.5805   30.3845   54.6077 H   0  0  0  0  0  0  0  0  0  0  0  0
   58.7133   29.4444   51.9383 H   0  0  0  0  0  0  0  0  0  0  0  0
   57.6986   28.5215   53.1385 H   0  0  0  0  0  0  0  0  0  0  0  0
   55.6928   29.7021   53.8545 H   0  0  0  0  0  0  0  0  0  0  0  0
   54.6775   30.3855   52.5397 H   0  0  0  0  0  0  0  0  0  0  0  0
   55.0897   28.6371   52.5397 H   0  0  0  0  0  0  0  0  0  0  0  0
   57.5071   31.4292   50.7737 H   0  0  0  0  0  0  0  0  0  0  0  0
   55.7522   31.6368   51.1920 H   0  0  0  0  0  0  0  0  0  0  0  0
   57.2356   33.3003   52.3252 H   0  0  0  0  0  0  0  0  0  0  0  0
   56.3137   32.2344   53.4680 H   0  0  0  0  0  0  0  0  0  0  0  0
  1  2  1  0
  2  3  1  0
  3  4  1  0
  4  5  1  0
  5  6  1  0
  6  7  1  0
  7  8  2  0
  8  9  1  0
  9 10  2  0
 10 11  1  0
 11 12  2  0
 12 13  1  0
 13 14  2  0
 14 15  1  0
 15 16  2  0
 16 17  1  0
 17 18  2  0
 18 19  1  0
 19 20  1  0
 20 21  2  0
 20 22  1  0
 22 23  1  0
 23 24  1  0
 24 25  1  0
 25 26  1  0
 26 27  1  0
 27 28  1  0
 27 29  1  0
 29 30  1  0
 12  7  1  0
 18 13  1  0
 30 24  1  0
  1 31  1  0
  1 32  1  0
  1 33  1  0
  2 34  1  0
  2 35  1  0
  3 36  1  0
  4 37  1  0
  4 38  1  0
  5 39  1  0
  5 40  1  0
  6 41  1  0
  6 42  1  0
  8 43  1  0
  9 44  1  0
 10 45  1  0
 11 46  1  0
 14 47  1  0
 15 48  1  0
 16 49  1  0
 17 50  1  0
 22 51  1  0
 22 52  1  0
 23 53  1  0
 23 54  1  0
 25 55  1  0
 25 56  1  0
 26 57  1  0
 26 58  1  0
 28 59  1  0
 28 60  1  0
 28 61  1  0
 29 62  1  0
 29 63  1  0
 30 64  1  0
 30 65  1  0
M  CHG  2   6   1  19  -1
M  END
>  <UniqueID>  (44) 
41

>  <SMILES>  (44) 
CCNCC[NH2+]c1ccccc1-c1ccccc1[N-]C(=O)CCN1CCN(C)CC1

>  <Energy>  (44) 
81.13726569240994

>  <Genealogy>  (44) 
CCNCC[NH2+]c1ccccc1-c1ccccc1[N-]C(=O)CCN1CCN(C)CC1 (protonated)
CCNCC[NH2+]c1ccccc1-c1ccccc1[N-]C(=O)CCN1CCN(C)CC1 (3D coordinates assigned)
CCNCC[NH2+]c1ccccc1-c1ccccc1[N-]C(=O)CCN1CCN(C)CC1 (nonaromatic ring conformer: 81.13726569240994 kcal/mol)

>  <smiles>  (44) 
CCNCCNc1ccccc1-c1ccccc1NC(=O)CCN1CCN(C)CC1

>  <score_type>  (44) 
oracle

>  <origin>  (44) 
adg

>  <m_score__min__energy>  (44) 
-6.9500000000000002

>  <m_primary>  (44) 
energy

$$$$
44:0
     RDKit          3D

 22 23  0  0  0  0  0  0  0  0999 V2000
   57.3490   28.6490   43.5190 N   0  0  0  0  0  0  0  0  0  0  0  0
   56.7560   29.6960   44.2920 C   0  0  0  0  0  0  0  0  0  0  0  0
   55.6600   29.4770   44.8730 O   0  0  0  0  0  0  0  0  0  0  0  0
   57.3940   31.0310   44.4080 C   0  0  0  0  0  0  0  0  0  0  0  0
   57.6620   31.8200   43.2590 C   0  0  0  0  0  0  0  0  0  0  0  0
   58.2710   33.0790   43.3820 C   0  0  0  0  0  0  0  0  0  0  0  0
   58.6090   33.5280   44.6570 C   0  0  0  0  0  0  0  0  0  0  0  0
   58.3690   32.7770   45.7690 C   0  0  0  0  0  0  0  0  0  0  0  0
   57.7660   31.5220   45.6810 C   0  0  0  0  0  0  0  0  0  0  0  0
   58.8360   33.4940   46.9890 C   0  0  0  0  0  0  0  0  0  0  0  0
   59.4080   34.8200   46.4260 C   0  0  0  0  0  0  0  0  0  0  0  0
   59.2270   34.7550   44.9780 N   0  0  0  0  0  0  0  0  0  0  0  0
   56.9090   27.7020   43.5030 H   0  0  0  0  0  0  0  0  0  0  0  0
   58.1650   28.8210   42.8930 H   0  0  0  0  0  0  0  0  0  0  0  0
   57.3900   31.4414   42.2627 H   0  0  0  0  0  0  0  0  0  0  0  0
   58.4761   33.6954   42.4943 H   0  0  0  0  0  0  0  0  0  0  0  0
   57.5830   30.9246   46.5863 H   0  0  0  0  0  0  0  0  0  0  0  0
   57.9999   33.6863   47.6774 H   0  0  0  0  0  0  0  0  0  0  0  0
   59.5725   32.9199   47.5704 H   0  0  0  0  0  0  0  0  0  0  0  0
   58.8606   35.6790   46.8413 H   0  0  0  0  0  0  0  0  0  0  0  0
   60.4672   34.9473   46.6939 H   0  0  0  0  0  0  0  0  0  0  0  0
   59.5090   35.4930   44.2970 H   0  0  0  0  0  0  0  0  0  0  0  0
  1  2  1  0
  2  3  2  0
  2  4  1  0
  4  5  2  0
  5  6  1  0
  6  7  2  0
  7  8  1  0
  8  9  2  0
  8 10  1  0
 10 11  1  0
 11 12  1  0
  9  4  1  0
 12  7  1  0
  1 13  1  0
  1 14  1  0
  5 15  1  0
  6 16  1  0
  9 17  1  0
 10 18  1  0
 10 19  1  0
 11 20  1  0
 11 21  1  0
 12 22  1  0
M  END
>  <UniqueID>  (45) 
42

>  <SMILES>  (45) 
NC(=O)c1ccc2c(c1)CCN2

>  <Energy>  (45) 
36.806039964817714

>  <Genealogy>  (45) 
NC(=O)c1ccc2c(c1)CCN2 (3D coordinates assigned)
NC(=O)c1ccc2c(c1)CCN2 (nonaromatic ring conformer: 36.806039964817714 kcal/mol)

>  <smiles>  (45) 
NC(=O)c1ccc2c(c1)CCN2

>  <score_type>  (45) 
oracle

>  <origin>  (45) 
adg

>  <m_score__min__energy>  (45) 
-6.1799999999999997

>  <m_primary>  (45) 
energy

$$$$
45:0
     RDKit          3D

 48 50  0  0  0  0  0  0  0  0999 V2000
   62.3051   30.8986   47.6049 H   0  0  0  0  0  0  0  0  0  0  0  0
   61.3210   30.9660   47.1180 C   0  0  0  0  0  0  0  0  0  0  0  0
   60.9940   30.0510   46.2510 N   0  0  0  0  0  0  0  0  0  0  0  0
   59.8120   29.2390   46.3200 C   0  0  0  0  0  0  0  0  0  0  0  0
   59.8550   28.0330   47.0240 C   0  0  0  0  0  0  0  0  0  0  0  0
   60.7745   27.7427   47.5533 H   0  0  0  0  0  0  0  0  0  0  0  0
   58.7410   27.1940   47.0610 C   0  0  0  0  0  0  0  0  0  0  0  0
   58.7991   26.2357   47.5979 H   0  0  0  0  0  0  0  0  0  0  0  0
   57.5460   27.5600   46.4200 C   0  0  0  0  0  0  0  0  0  0  0  0
   56.4320   26.6500   46.4150 N   0  0  0  0  0  0  0  0  0  0  0  0
   55.6260   26.8630   47.0460 H   0  0  0  0  0  0  0  0  0  0  0  0
   56.3270   25.5150   45.5380 C   0  0  0  0  0  0  0  0  0  0  0  0
   55.1860   24.6900   45.5400 C   0  0  0  0  0  0  0  0  0  0  0  0
   54.3590   24.9005   46.2341 H   0  0  0  0  0  0  0  0  0  0  0  0
   55.1000   23.6040   44.6630 C   0  0  0  0  0  0  0  0  0  0  0  0
   54.2103   22.9573   44.6756 H   0  0  0  0  0  0  0  0  0  0  0  0
   56.1420   23.3390   43.7710 C   0  0  0  0  0  0  0  0  0  0  0  0
   56.0747   22.4814   43.0855 H   0  0  0  0  0  0  0  0  0  0  0  0
   57.2700   24.1640   43.7500 C   0  0  0  0  0  0  0  0  0  0  0  0
   58.0881   23.9578   43.0442 H   0  0  0  0  0  0  0  0  0  0  0  0
   57.3600   25.2500   44.6240 C   0  0  0  0  0  0  0  0  0  0  0  0
   58.2456   25.9018   44.5962 H   0  0  0  0  0  0  0  0  0  0  0  0
   57.4810   28.7970   45.7400 C   0  0  0  0  0  0  0  0  0  0  0  0
   56.3080   29.2510   45.1120 C   0  0  0  0  0  0  0  0  0  0  0  0
   55.4030   28.6258   45.1206 H   0  0  0  0  0  0  0  0  0  0  0  0
   56.2910   30.4600   44.4950 N   0  0  0  0  0  0  0  0  0  0  0  0
   57.3920   31.2530   44.4720 C   0  0  0  0  0  0  0  0  0  0  0  0
   57.3562   32.2279   43.9638 H   0  0  0  0  0  0  0  0  0  0  0  0
   58.5370   30.8450   45.0750 N   0  0  0  0  0  0  0  0  0  0  0  0
   58.6140   29.6410   45.7020 C   0  0  0  0  0  0  0  0  0  0  0  0
   60.4150   32.1130   47.4860 C   0  0  0  0  0  0  0  0  0  0  0  0
   60.3418   32.1797   48.5815 H   0  0  0  0  0  0  0  0  0  0  0  0
   59.4207   31.9357   47.0503 H   0  0  0  0  0  0  0  0  0  0  0  0
   60.9510   33.3860   46.9550 N   0  0  0  0  0  0  0  0  0  0  0  0
   59.9150   34.4420   46.9580 C   0  0  0  0  0  0  0  0  0  0  0  0
   60.3984   35.4216   46.8285 H   0  0  0  0  0  0  0  0  0  0  0  0
   59.3762   34.4042   47.9163 H   0  0  0  0  0  0  0  0  0  0  0  0
   58.9140   34.2240   45.8250 C   0  0  0  0  0  0  0  0  0  0  0  0
   57.9221   34.0080   46.2486 H   0  0  0  0  0  0  0  0  0  0  0  0
   58.8584   35.1311   45.2052 H   0  0  0  0  0  0  0  0  0  0  0  0
   59.2407   33.3759   45.2052 H   0  0  0  0  0  0  0  0  0  0  0  0
   62.1850   33.8030   47.6680 C   0  0  0  0  0  0  0  0  0  0  0  0
   62.0534   34.8215   48.0622 H   0  0  0  0  0  0  0  0  0  0  0  0
   62.3789   33.1083   48.4986 H   0  0  0  0  0  0  0  0  0  0  0  0
   63.3650   33.7810   46.7050 C   0  0  0  0  0  0  0  0  0  0  0  0
   64.3046   33.7635   47.2767 H   0  0  0  0  0  0  0  0  0  0  0  0
   63.3045   32.8838   46.0714 H   0  0  0  0  0  0  0  0  0  0  0  0
   63.3380   34.6798   46.0714 H   0  0  0  0  0  0  0  0  0  0  0  0
  1  2  1  0
  2  3  2  0
  3  4  1  0
  4  5  2  0
  5  6  1  0
  5  7  1  0
  7  8  1  0
  7  9  2  0
  9 10  1  0
 10 11  1  0
 10 12  1  0
 12 13  2  0
 13 14  1  0
 13 15  1  0
 15 16  1  0
 15 17  2  0
 17 18  1  0
 17 19  1  0
 19 20  1  0
 19 21  2  0
 21 22  1  0
  9 23  1  0
 23 24  2  0
 24 25  1  0
 24 26  1  0
 26 27  2  0
 27 28  1  0
 27 29  1  0
 29 30  2  0
  2 31  1  0
 31 32  1  0
 31 33  1  0
 31 34  1  0
 34 35  1  0
 35 36  1  0
 35 37  1  0
 35 38  1  0
 38 39  1  0
 38 40  1  0
 38 41  1  0
 34 42  1  0
 42 43  1  0
 42 44  1  0
 42 45  1  0
 45 46  1  0
 45 47  1  0
 45 48  1  0
 30  4  1  0
 21 12  1  0
 30 23  1  0
M  END
>  <UniqueID>  (46) 
43

>  <SMILES>  (46) 
CCN(CC)C/C=N\c1ccc(Nc2ccccc2)c2cncnc12

>  <Energy>  (46) 
65.52639528772896

>  <Genealogy>  (46) 
CCN(CC)C/C=N\c1ccc(Nc2ccccc2)c2cncnc12 (cis-trans isomerization)
CCN(CC)C/C=N\c1ccc(Nc2ccccc2)c2cncnc12 (3D coordinates assigned)
CCN(CC)C/C=N\c1ccc(Nc2ccccc2)c2cncnc12 (optimized conformer: 65.52639528772896 kcal/mol)

>  <smiles>  (46) 
CCN(CC)CC=Nc1ccc(Nc2ccccc2)c2cncnc12

>  <score_type>  (46) 
oracle

>  <origin>  (46) 
adg

>  <m_score__min__energy>  (46) 
-7.3099999999999996

>  <m_primary>  (46) 
energy

$$$$
46:0
     RDKit          3D

 37 38  0  0  0  0  0  0  0  0999 V2000
   57.5970   26.6630   42.5940 N   0  0  0  0  0  0  0  0  0  0  0  0
   58.4540   27.2860   43.6050 C   0  0  0  0  0  0  0  0  0  0  0  0
   57.7670   28.4800   44.2880 C   0  0  0  0  0  0  0  0  0  0  0  0
   56.9900   29.3580   43.2960 C   0  0  0  0  0  0  0  0  0  0  0  0
   55.8180   30.0930   43.9620 C   0  0  0  0  0  0  0  0  0  0  0  0
   56.3000   31.2750   44.7000 N   0  0  0  0  0  0  0  0  0  0  0  0
   57.3910   31.9580   43.9940 C   0  0  0  0  0  0  0  0  0  0  0  0
   58.2210   32.7640   44.9710 C   0  0  0  0  0  0  0  0  0  0  0  0
   58.2170   34.1660   44.8610 C   0  0  0  0  0  0  0  0  0  0  0  0
   58.9700   34.9390   45.7420 C   0  0  0  0  0  0  0  0  0  0  0  0
   59.7160   34.3460   46.7070 N   0  0  0  0  0  0  0  0  0  0  0  0
   59.7620   32.9960   46.8490 C   0  0  0  0  0  0  0  0  0  0  0  0
   60.5550   32.4360   47.8580 C   0  0  0  0  0  0  0  0  0  0  0  0
   60.6210   31.0510   48.0130 C   0  0  0  0  0  0  0  0  0  0  0  0
   59.8960   30.2150   47.1600 C   0  0  0  0  0  0  0  0  0  0  0  0
   59.9880   28.4740   47.3540 Cl  0  0  0  0  0  0  0  0  0  0  0  0
   59.0980   30.7620   46.1500 C   0  0  0  0  0  0  0  0  0  0  0  0
   59.0150   32.1600   45.9800 C   0  0  0  0  0  0  0  0  0  0  0  0
   56.9520   27.3880   42.2020 H   0  0  0  0  0  0  0  0  0  0  0  0
   58.1730   26.2790   41.8120 H   0  0  0  0  0  0  0  0  0  0  0  0
   57.0220   25.9020   43.0220 H   0  0  0  0  0  0  0  0  0  0  0  0
   58.7041   26.5356   44.3695 H   0  0  0  0  0  0  0  0  0  0  0  0
   59.3581   27.6579   43.1007 H   0  0  0  0  0  0  0  0  0  0  0  0
   57.0662   28.0980   45.0449 H   0  0  0  0  0  0  0  0  0  0  0  0
   58.5522   29.1027   44.7414 H   0  0  0  0  0  0  0  0  0  0  0  0
   57.6777   30.1027   42.8689 H   0  0  0  0  0  0  0  0  0  0  0  0
   56.5759   28.7004   42.5175 H   0  0  0  0  0  0  0  0  0  0  0  0
   55.1064   30.4155   43.1877 H   0  0  0  0  0  0  0  0  0  0  0  0
   55.3259   29.4092   44.6693 H   0  0  0  0  0  0  0  0  0  0  0  0
   56.6720   30.9520   45.6250 H   0  0  0  0  0  0  0  0  0  0  0  0
   58.0313   31.2099   43.5038 H   0  0  0  0  0  0  0  0  0  0  0  0
   56.9628   32.6363   43.2412 H   0  0  0  0  0  0  0  0  0  0  0  0
   57.6180   34.6533   44.0776 H   0  0  0  0  0  0  0  0  0  0  0  0
   58.9595   36.0355   45.6546 H   0  0  0  0  0  0  0  0  0  0  0  0
   61.1282   33.0905   48.5311 H   0  0  0  0  0  0  0  0  0  0  0  0
   61.2448   30.6165   48.8080 H   0  0  0  0  0  0  0  0  0  0  0  0
   58.5304   30.0967   45.4827 H   0  0  0  0  0  0  0  0  0  0  0  0
  1  2  1  0
  2  3  1  0
  3  4  1  0
  4  5  1  0
  5  6  1  0
  6  7  1  0
  7  8  1  0
  8  9  2  0
  9 10  1  0
 10 11  2  0
 11 12  1  0
 12 13  2  0
 13 14  1  0
 14 15  2  0
 15 16  1  0
 15 17  1  0
 17 18  2  0
 18  8  1  0
 18 12  1  0
  1 19  1  0
  1 20  1  0
  1 21  1  0
  2 22  1  0
  2 23  1  0
  3 24  1  0
  3 25  1  0
  4 26  1  0
  4 27  1  0
  5 28  1  0
  5 29  1  0
  6 30  1  0
  7 31  1  0
  7 32  1  0
  9 33  1  0
 10 34  1  0
 13 35  1  0
 14 36  1  0
 17 37  1  0
M  CHG  1   1   1
M  END
>  <UniqueID>  (47) 
44

>  <SMILES>  (47) 
[NH3+]CCCCNCc1ccnc2ccc(Cl)cc12

>  <Energy>  (47) 
36.128079429894626

>  <Genealogy>  (47) 
[NH3+]CCCCNCc1ccnc2ccc(Cl)cc12 (protonated)
[NH3+]CCCCNCc1ccnc2ccc(Cl)cc12 (3D coordinates assigned)
[NH3+]CCCCNCc1ccnc2ccc(Cl)cc12 (optimized conformer: 36.128079429894626 kcal/mol)

>  <smiles>  (47) 
NCCCCNCc1ccnc2ccc(Cl)cc12

>  <score_type>  (47) 
oracle

>  <origin>  (47) 
adg

>  <m_score__min__energy>  (47) 
-5.3700000000000001

>  <m_primary>  (47) 
energy

$$$$
