0:0
     RDKit          3D

 33 35  0  0  0  0  0  0  0  0999 V2000
   59.2700   35.3330   45.0450 C   0  0  0  0  0  0  0  0  0  0  0  0
   58.6840   34.1140   45.6310 N   0  0  0  0  0  0  0  0  0  0  0  0
   57.3980   33.8080   44.9710 C   0  0  0  0  0  0  0  0  0  0  0  0
   57.4180   32.4180   44.4210 C   0  0  0  0  0  0  0  0  0  0  0  0
   57.9280   32.0910   43.2180 N   0  0  0  0  0  0  0  0  0  0  0  0
   57.7750   30.7820   43.1160 N   0  0  0  0  0  0  0  0  0  0  0  0
   57.1850   30.3520   44.2500 C   0  0  0  0  0  0  0  0  0  0  0  0
   56.8180   28.9310   44.5860 C   0  0  0  0  0  0  0  0  0  0  0  0
   57.6690   28.2590   45.6530 C   0  0  0  0  0  0  0  0  0  0  0  0
   57.8310   27.8670   44.1910 C   0  0  0  0  0  0  0  0  0  0  0  0
   56.9640   31.3620   45.0570 O   0  0  0  0  0  0  0  0  0  0  0  0
   58.5060   34.2760   47.0900 C   0  0  0  0  0  0  0  0  0  0  0  0
   59.8020   34.0310   47.7990 C   0  0  0  0  0  0  0  0  0  0  0  0
   60.0360   34.2130   49.1560 C   0  0  0  0  0  0  0  0  0  0  0  0
   61.3580   33.9380   49.5260 C   0  0  0  0  0  0  0  0  0  0  0  0
   62.1550   33.5490   48.4580 C   0  0  0  0  0  0  0  0  0  0  0  0
   64.0050   33.1000   48.5520 Br  0  0  0  0  0  0  0  0  0  0  0  0
   61.2300   33.5450   47.0550 S   0  0  0  0  0  0  0  0  0  0  0  0
   59.5944   36.0078   45.8508 H   0  0  0  0  0  0  0  0  0  0  0  0
   60.1359   35.0613   44.4234 H   0  0  0  0  0  0  0  0  0  0  0  0
   58.5170   35.8396   44.4234 H   0  0  0  0  0  0  0  0  0  0  0  0
   56.5830   33.8969   45.7044 H   0  0  0  0  0  0  0  0  0  0  0  0
   57.2399   34.5182   44.1460 H   0  0  0  0  0  0  0  0  0  0  0  0
   58.0740   30.2180   42.2910 H   0  0  0  0  0  0  0  0  0  0  0  0
   55.7395   29.0759   44.4255 H   0  0  0  0  0  0  0  0  0  0  0  0
   58.4625   28.8262   46.1616 H   0  0  0  0  0  0  0  0  0  0  0  0
   57.4603   27.7147   46.5858 H   0  0  0  0  0  0  0  0  0  0  0  0
   58.7416   28.1509   43.6430 H   0  0  0  0  0  0  0  0  0  0  0  0
   57.7878   26.9221   43.6296 H   0  0  0  0  0  0  0  0  0  0  0  0
   58.1631   35.2993   47.3029 H   0  0  0  0  0  0  0  0  0  0  0  0
   57.7601   33.5490   47.4437 H   0  0  0  0  0  0  0  0  0  0  0  0
   59.2625   34.5395   49.8666 H   0  0  0  0  0  0  0  0  0  0  0  0
   61.7278   34.0217   50.5586 H   0  0  0  0  0  0  0  0  0  0  0  0
  1  2  1  0
  2  3  1  0
  3  4  1  0
  4  5  2  0
  5  6  1  0
  6  7  2  0
  7  8  1  0
  8  9  1  0
  9 10  1  0
  7 11  1  0
  2 12  1  0
 12 13  1  0
 13 14  2  0
 14 15  1  0
 15 16  2  0
 16 17  1  0
 16 18  1  0
 11  4  1  0
 18 13  1  0
 10  8  1  0
  1 19  1  0
  1 20  1  0
  1 21  1  0
  3 22  1  0
  3 23  1  0
  6 24  1  0
  8 25  1  0
  9 26  1  0
  9 27  1  0
 10 28  1  0
 10 29  1  0
 12 30  1  0
 12 31  1  0
 14 32  1  0
 15 33  1  0
M  CHG  1   6   1
M  END
>  <UniqueID>  (1) 
1

>  <SMILES>  (1) 
CN(Cc1n[nH+]c(C2CC2)o1)Cc1ccc(Br)s1

>  <Energy>  (1) 
359.0146976613077

>  <Genealogy>  (1) 
CN(Cc1n[nH+]c(C2CC2)o1)Cc1ccc(Br)s1 (protonated)
CN(Cc1n[nH+]c(C2CC2)o1)Cc1ccc(Br)s1 (3D coordinates assigned)
CN(Cc1n[nH+]c(C2CC2)o1)Cc1ccc(Br)s1 (nonaromatic ring conformer: 359.0146976613077 kcal/mol)

>  <smiles>  (1) 
CN(Cc1nnc(C2CC2)o1)Cc1ccc(Br)s1

>  <score_type>  (1) 
oracle

>  <origin>  (1) 
adg

>  <m_score__min__energy>  (1) 
-6.1500000000000004

>  <m_primary>  (1) 
energy

$$$$
1:0
     RDKit          3D

 31 33  0  0  0  0  0  0  0  0999 V2000
   58.5260   22.7190   45.0020 C   0  0  0  0  0  0  0  0  0  0  0  0
   58.3850   23.5940   46.1160 O   0  0  0  0  0  0  0  0  0  0  0  0
   58.5700   24.9840   46.0610 C   0  0  0  0  0  0  0  0  0  0  0  0
   59.8090   25.5920   46.3450 C   0  0  0  0  0  0  0  0  0  0  0  0
   59.9470   26.9820   46.2770 C   0  0  0  0  0  0  0  0  0  0  0  0
   58.8490   27.7790   45.9240 C   0  0  0  0  0  0  0  0  0  0  0  0
   58.9490   29.1700   45.8490 C   0  0  0  0  0  0  0  0  0  0  0  0
   57.8260   29.9330   45.5010 C   0  0  0  0  0  0  0  0  0  0  0  0
   57.9260   31.4120   45.4300 C   0  0  0  0  0  0  0  0  0  0  0  0
   58.1470   32.1740   46.5930 C   0  0  0  0  0  0  0  0  0  0  0  0
   58.2500   33.5660   46.5180 C   0  0  0  0  0  0  0  0  0  0  0  0
   58.1380   34.2120   45.2830 C   0  0  0  0  0  0  0  0  0  0  0  0
   57.9270   33.4650   44.1220 C   0  0  0  0  0  0  0  0  0  0  0  0
   57.8230   32.0720   44.1930 C   0  0  0  0  0  0  0  0  0  0  0  0
   56.6220   29.2520   45.2200 C   0  0  0  0  0  0  0  0  0  0  0  0
   55.5920   29.8870   44.8700 O   0  0  0  0  0  0  0  0  0  0  0  0
   56.5620   27.9260   45.3030 O   0  0  0  0  0  0  0  0  0  0  0  0
   57.6080   27.1770   45.6400 C   0  0  0  0  0  0  0  0  0  0  0  0
   57.4760   25.7860   45.7100 C   0  0  0  0  0  0  0  0  0  0  0  0
   58.6914   21.6924   45.3607 H   0  0  0  0  0  0  0  0  0  0  0  0
   57.6111   22.7514   44.3922 H   0  0  0  0  0  0  0  0  0  0  0  0
   59.3845   23.0371   44.3922 H   0  0  0  0  0  0  0  0  0  0  0  0
   60.6728   24.9697   46.6218 H   0  0  0  0  0  0  0  0  0  0  0  0
   60.9171   27.4500   46.5005 H   0  0  0  0  0  0  0  0  0  0  0  0
   59.9074   29.6658   46.0627 H   0  0  0  0  0  0  0  0  0  0  0  0
   58.2392   31.6708   47.5668 H   0  0  0  0  0  0  0  0  0  0  0  0
   58.4194   34.1541   47.4320 H   0  0  0  0  0  0  0  0  0  0  0  0
   58.2160   35.3077   45.2259 H   0  0  0  0  0  0  0  0  0  0  0  0
   57.8424   33.9731   43.1500 H   0  0  0  0  0  0  0  0  0  0  0  0
   57.6595   31.4889   43.2747 H   0  0  0  0  0  0  0  0  0  0  0  0
   56.5056   25.3182   45.4877 H   0  0  0  0  0  0  0  0  0  0  0  0
  1  2  1  0
  2  3  1  0
  3  4  2  0
  4  5  1  0
  5  6  2  0
  6  7  1  0
  7  8  2  0
  8  9  1  0
  9 10  2  0
 10 11  1  0
 11 12  2  0
 12 13  1  0
 13 14  2  0
  8 15  1  0
 15 16  2  0
 15 17  1  0
 17 18  1  0
 18 19  2  0
 19  3  1  0
 18  6  1  0
 14  9  1  0
  1 20  1  0
  1 21  1  0
  1 22  1  0
  4 23  1  0
  5 24  1  0
  7 25  1  0
 10 26  1  0
 11 27  1  0
 12 28  1  0
 13 29  1  0
 14 30  1  0
 19 31  1  0
M  END
>  <UniqueID>  (2) 
2

>  <SMILES>  (2) 
COc1ccc2cc(-c3ccccc3)c(=O)oc2c1

>  <Energy>  (2) 
43.9464685368797

>  <Genealogy>  (2) 
COc1ccc2cc(-c3ccccc3)c(=O)oc2c1 (3D coordinates assigned)
COc1ccc2cc(-c3ccccc3)c(=O)oc2c1 (optimized conformer: 43.9464685368797 kcal/mol)

>  <smiles>  (2) 
COc1ccc2cc(-c3ccccc3)c(=O)oc2c1

>  <score_type>  (2) 
oracle

>  <origin>  (2) 
adg

>  <m_score__min__energy>  (2) 
-6.9000000000000004

>  <m_primary>  (2) 
energy

$$$$
2:0
     RDKit          3D

 27 28  0  0  0  0  0  0  0  0999 V2000
   54.2327   24.3694   45.0835 H   0  0  0  0  0  0  0  0  0  0  0  0
   55.2640   24.7220   45.2320 C   0  0  0  0  0  0  0  0  0  0  0  0
   55.5050   25.8570   45.9360 N   0  0  0  0  0  0  0  0  0  0  0  0
   56.7720   26.3180   46.1370 C   0  0  0  0  0  0  0  0  0  0  0  0
   56.9820   27.4070   46.8160 N   0  0  0  0  0  0  0  0  0  0  0  0
   57.6920   28.5730   46.2990 C   0  0  0  0  0  0  0  0  0  0  0  0
   58.6520   28.2562   45.8653 H   0  0  0  0  0  0  0  0  0  0  0  0
   57.8788   29.2837   47.1175 H   0  0  0  0  0  0  0  0  0  0  0  0
   56.8580   29.2320   45.2420 C   0  0  0  0  0  0  0  0  0  0  0  0
   57.2800   30.3810   44.4990 C   0  0  0  0  0  0  0  0  0  0  0  0
   58.5860   31.0720   44.7300 C   0  0  0  0  0  0  0  0  0  0  0  0
   58.7646   31.1665   45.8113 H   0  0  0  0  0  0  0  0  0  0  0  0
   59.3970   30.4850   44.2743 H   0  0  0  0  0  0  0  0  0  0  0  0
   58.5570   32.0728   44.2743 H   0  0  0  0  0  0  0  0  0  0  0  0
   56.4120   30.8330   43.5490 N   0  0  0  0  0  0  0  0  0  0  0  0
   55.1700   29.7540   43.6870 S   0  0  0  0  0  0  0  0  0  0  0  0
   55.6480   28.7330   44.8850 N   0  0  0  0  0  0  0  0  0  0  0  0
   55.1470   27.9020   45.2710 H   0  0  0  0  0  0  0  0  0  0  0  0
   57.8540   25.5940   45.6000 C   0  0  0  0  0  0  0  0  0  0  0  0
   59.2720   26.0450   45.7890 C   0  0  0  0  0  0  0  0  0  0  0  0
   59.4941   26.1156   46.8640 H   0  0  0  0  0  0  0  0  0  0  0  0
   59.9531   25.3192   45.3208 H   0  0  0  0  0  0  0  0  0  0  0  0
   59.4087   27.0310   45.3208 H   0  0  0  0  0  0  0  0  0  0  0  0
   57.6030   24.4570   44.8950 N   0  0  0  0  0  0  0  0  0  0  0  0
   56.3370   24.0060   44.6980 C   0  0  0  0  0  0  0  0  0  0  0  0
   56.1150   22.8000   43.9480 C   0  0  0  0  0  0  0  0  0  0  0  0
   55.9370   21.8300   43.3430 N   0  0  0  0  0  0  0  0  0  0  0  0
  1  2  1  0
  2  3  1  0
  3  4  1  0
  4  5  2  0
  5  6  1  0
  6  7  1  0
  6  8  1  0
  6  9  1  0
  9 10  1  0
 10 11  1  0
 11 12  1  0
 11 13  1  0
 11 14  1  0
 10 15  2  0
 15 16  1  0
 16 17  1  0
 17 18  1  0
  4 19  1  0
 19 20  1  0
 20 21  1  0
 20 22  1  0
 20 23  1  0
 19 24  2  0
 24 25  1  0
 25 26  1  0
 26 27  3  0
 25  2  2  0
 17  9  2  0
M  CHG  2   3  -1  17   1
M  END
>  <UniqueID>  (3) 
3

>  <SMILES>  (3) 
Cc1ns[nH+]c1C/N=c1\[n-]cc(C#N)nc1C

>  <Energy>  (3) 
61.627069174901344

>  <Genealogy>  (3) 
Cc1ns[nH+]c1CN=c1[n-]cc(C#N)nc1C (protonated)
Cc1ns[nH+]c1C/N=c1\[n-]cc(C#N)nc1C (cis-trans isomerization)
Cc1ns[nH+]c1C/N=c1\[n-]cc(C#N)nc1C (3D coordinates assigned)
Cc1ns[nH+]c1C/N=c1\[n-]cc(C#N)nc1C (optimized conformer: 61.627069174901344 kcal/mol)

>  <smiles>  (3) 
Cc1nsnc1CN=c1[nH]cc(C#N)nc1C

>  <score_type>  (3) 
oracle

>  <origin>  (3) 
adg

>  <m_score__min__energy>  (3) 
-6.0800000000000001

>  <m_primary>  (3) 
energy

$$$$
3:0
     RDKit          3D

 31 33  0  0  0  0  0  0  0  0999 V2000
   56.8910   30.2510   42.9730 N   0  0  0  0  0  0  0  0  0  0  0  0
   57.2450   29.8900   44.1410 C   0  0  0  0  0  0  0  0  0  0  0  0
   57.0630   28.5890   44.4790 N   0  0  0  0  0  0  0  0  0  0  0  0
   57.3970   28.0930   45.6820 C   0  0  0  0  0  0  0  0  0  0  0  0
   57.2080   26.6970   46.0590 C   0  0  0  0  0  0  0  0  0  0  0  0
   55.9730   26.1460   46.3300 C   0  0  0  0  0  0  0  0  0  0  0  0
   55.8350   24.8630   46.6740 N   0  0  0  0  0  0  0  0  0  0  0  0
   56.9190   24.0440   46.7700 C   0  0  0  0  0  0  0  0  0  0  0  0
   58.1370   24.5570   46.5120 N   0  0  0  0  0  0  0  0  0  0  0  0
   58.2950   25.8460   46.1650 C   0  0  0  0  0  0  0  0  0  0  0  0
   57.9360   28.9270   46.5890 N   0  0  0  0  0  0  0  0  0  0  0  0
   58.1550   30.2330   46.3490 C   0  0  0  0  0  0  0  0  0  0  0  0
   58.7100   31.0340   47.3250 C   0  0  0  0  0  0  0  0  0  0  0  0
   58.9130   32.3640   47.0240 C   0  0  0  0  0  0  0  0  0  0  0  0
   58.5590   32.8450   45.7770 C   0  0  0  0  0  0  0  0  0  0  0  0
   58.7800   34.2680   45.4670 C   0  0  0  0  0  0  0  0  0  0  0  0
   58.1510   34.8140   44.4960 O   0  0  0  0  0  0  0  0  0  0  0  0
   59.7330   35.0670   46.2830 C   0  0  0  0  0  0  0  0  0  0  0  0
   59.2080   35.3360   47.5310 F   0  0  0  0  0  0  0  0  0  0  0  0
   60.9300   34.4000   46.3540 F   0  0  0  0  0  0  0  0  0  0  0  0
   59.9590   36.2500   45.6130 F   0  0  0  0  0  0  0  0  0  0  0  0
   58.0080   32.0320   44.8210 C   0  0  0  0  0  0  0  0  0  0  0  0
   57.7960   30.6990   45.1000 C   0  0  0  0  0  0  0  0  0  0  0  0
   57.4310   30.0860   42.1150 H   0  0  0  0  0  0  0  0  0  0  0  0
   56.6510   27.9590   43.7790 H   0  0  0  0  0  0  0  0  0  0  0  0
   55.0772   26.7807   46.2609 H   0  0  0  0  0  0  0  0  0  0  0  0
   56.8021   22.9872   47.0520 H   0  0  0  0  0  0  0  0  0  0  0  0
   59.3051   26.2313   45.9618 H   0  0  0  0  0  0  0  0  0  0  0  0
   58.9813   30.6257   48.3097 H   0  0  0  0  0  0  0  0  0  0  0  0
   59.3543   33.0390   47.7721 H   0  0  0  0  0  0  0  0  0  0  0  0
   57.7365   32.4411   43.8366 H   0  0  0  0  0  0  0  0  0  0  0  0
  1  2  2  3
  2  3  1  0
  3  4  1  0
  4  5  1  0
  5  6  2  0
  6  7  1  0
  7  8  2  0
  8  9  1  0
  9 10  2  0
  4 11  2  0
 11 12  1  0
 12 13  2  0
 13 14  1  0
 14 15  2  0
 15 16  1  0
 16 17  2  0
 16 18  1  0
 18 19  1  0
 18 20  1  0
 18 21  1  0
 15 22  1  0
 22 23  2  0
 23  2  1  0
 10  5  1  0
 23 12  1  0
  1 24  1  0
  3 25  1  0
  6 26  1  0
  8 27  1  0
 10 28  1  0
 13 29  1  0
 14 30  1  0
 22 31  1  0
M  END
>  <smiles>  (4) 
N=c1[nH]c(-c2cncnc2)nc2ccc(C(=O)C(F)(F)F)cc12

>  <score_type>  (4) 
oracle

>  <origin>  (4) 
adg

>  <m_score__min__energy>  (4) 
-6.6600000000000001

>  <m_primary>  (4) 
energy

$$$$
4:0
     RDKit          3D

 42 45  0  0  0  0  0  0  0  0999 V2000
   55.2030   24.4310   45.2300 C   0  0  0  0  0  0  0  0  0  0  0  0
   55.2720   25.6230   46.0070 O   0  0  0  0  0  0  0  0  0  0  0  0
   56.4510   26.3410   46.2540 C   0  0  0  0  0  0  0  0  0  0  0  0
   56.6290   27.5690   45.6150 C   0  0  0  0  0  0  0  0  0  0  0  0
   57.7880   28.3190   45.8250 C   0  0  0  0  0  0  0  0  0  0  0  0
   58.8170   27.8470   46.6640 C   0  0  0  0  0  0  0  0  0  0  0  0
   60.0480   28.7280   46.8930 C   0  0  1  0  0  0  0  0  0  0  0  0
   59.9930   30.1390   46.2380 C   0  0  0  0  0  0  0  0  0  0  0  0
   58.9560   31.0680   46.9280 C   0  0  2  0  0  0  0  0  0  0  0  0
   59.1170   32.4980   46.4500 C   0  0  0  0  0  0  0  0  0  0  0  0
   60.2170   33.2560   46.8880 C   0  0  0  0  0  0  0  0  0  0  0  0
   60.3710   34.5840   46.4780 C   0  0  0  0  0  0  0  0  0  0  0  0
   59.4260   35.1710   45.6350 C   0  0  0  0  0  0  0  0  0  0  0  0
   58.3220   34.4340   45.2020 C   0  0  0  0  0  0  0  0  0  0  0  0
   58.1600   33.1050   45.6090 C   0  0  0  0  0  0  0  0  0  0  0  0
   57.0710   32.4160   45.1820 F   0  0  0  0  0  0  0  0  0  0  0  0
   59.0970   30.9760   48.3830 N   0  0  0  0  0  0  0  0  0  0  0  0
   58.5630   31.7820   49.2870 N   0  0  0  0  0  0  0  0  0  0  0  0
   58.8880   31.2440   50.4880 C   0  0  0  0  0  0  0  0  0  0  0  0
   59.5980   30.1000   50.3550 N   0  0  0  0  0  0  0  0  0  0  0  0
   59.6900   29.9680   49.0240 C   0  0  0  0  0  0  0  0  0  0  0  0
   60.2980   28.8770   48.3330 N   0  0  0  0  0  0  0  0  0  0  0  0
   58.6140   26.6200   47.3340 C   0  0  0  0  0  0  0  0  0  0  0  0
   57.4530   25.8720   47.1210 C   0  0  0  0  0  0  0  0  0  0  0  0
   55.1525   23.5595   45.8993 H   0  0  0  0  0  0  0  0  0  0  0  0
   54.3049   24.4585   44.5954 H   0  0  0  0  0  0  0  0  0  0  0  0
   56.0982   24.3546   44.5954 H   0  0  0  0  0  0  0  0  0  0  0  0
   55.8488   27.9497   44.9395 H   0  0  0  0  0  0  0  0  0  0  0  0
   57.8995   29.2937   45.3276 H   0  0  0  0  0  0  0  0  0  0  0  0
   60.8696   28.1971   46.3899 H   0  0  0  0  0  0  0  0  0  0  0  0
   60.9878   30.6026   46.3118 H   0  0  0  0  0  0  0  0  0  0  0  0
   59.6865   30.0121   45.1892 H   0  0  0  0  0  0  0  0  0  0  0  0
   57.9424   30.7389   46.6552 H   0  0  0  0  0  0  0  0  0  0  0  0
   60.9617   32.8013   47.5579 H   0  0  0  0  0  0  0  0  0  0  0  0
   61.2385   35.1672   46.8205 H   0  0  0  0  0  0  0  0  0  0  0  0
   59.5511   36.2149   45.3116 H   0  0  0  0  0  0  0  0  0  0  0  0
   57.5776   34.8993   44.5392 H   0  0  0  0  0  0  0  0  0  0  0  0
   58.6077   31.6852   51.4559 H   0  0  0  0  0  0  0  0  0  0  0  0
   59.9580   29.4660   51.1020 H   0  0  0  0  0  0  0  0  0  0  0  0
   60.8520   28.1650   48.8590 H   0  0  0  0  0  0  0  0  0  0  0  0
   59.3791   26.2489   48.0318 H   0  0  0  0  0  0  0  0  0  0  0  0
   57.3223   24.9087   47.6358 H   0  0  0  0  0  0  0  0  0  0  0  0
  1  2  1  0
  2  3  1  0
  3  4  2  0
  4  5  1  0
  5  6  2  0
  6  7  1  0
  7  8  1  0
  8  9  1  0
  9 10  1  0
 10 11  2  0
 11 12  1  0
 12 13  2  0
 13 14  1  0
 14 15  2  0
 15 16  1  0
  9 17  1  0
 17 18  1  0
 18 19  2  0
 19 20  1  0
 20 21  2  0
 21 22  1  0
  6 23  1  0
 23 24  2  0
 24  3  1  0
 22  7  1  0
 15 10  1  0
 21 17  1  0
  1 25  1  0
  1 26  1  0
  1 27  1  0
  4 28  1  0
  5 29  1  0
  7 30  1  6
  8 31  1  0
  8 32  1  0
  9 33  1  1
 11 34  1  0
 12 35  1  0
 13 36  1  0
 14 37  1  0
 19 38  1  0
 20 39  1  0
 22 40  1  0
 23 41  1  0
 24 42  1  0
M  CHG  1  20   1
M  END
>  <UniqueID>  (5) 
4

>  <SMILES>  (5) 
COc1ccc([C@H]2C[C@H](c3ccccc3F)n3nc[nH+]c3N2)cc1

>  <Energy>  (5) 
87.63106920648305

>  <Genealogy>  (5) 
COc1ccc(C2CC(c3ccccc3F)n3nc[nH+]c3N2)cc1 (protonated)
COc1ccc([C@H]2C[C@H](c3ccccc3F)n3nc[nH+]c3N2)cc1 (chirality)
COc1ccc([C@H]2C[C@H](c3ccccc3F)n3nc[nH+]c3N2)cc1 (3D coordinates assigned)
COc1ccc([C@H]2C[C@H](c3ccccc3F)n3nc[nH+]c3N2)cc1 (nonaromatic ring conformer: 87.63106920648305 kcal/mol)

>  <smiles>  (5) 
COc1ccc(C2CC(c3ccccc3F)n3ncnc3N2)cc1

>  <score_type>  (5) 
oracle

>  <origin>  (5) 
adg

>  <m_score__min__energy>  (5) 
-6.0599999999999996

>  <m_primary>  (5) 
energy

$$$$
5:0
     RDKit          3D

 31 33  0  0  0  0  0  0  0  0999 V2000
   57.0390   20.6310   42.6400 C   0  0  0  0  0  0  0  0  0  0  0  0
   56.0590   21.1940   43.5080 O   0  0  0  0  0  0  0  0  0  0  0  0
   56.1580   22.4640   44.0980 C   0  0  0  0  0  0  0  0  0  0  0  0
   55.0590   23.3290   44.2100 C   0  0  0  0  0  0  0  0  0  0  0  0
   55.2060   24.5810   44.8060 C   0  0  0  0  0  0  0  0  0  0  0  0
   56.4570   24.9980   45.3020 C   0  0  0  0  0  0  0  0  0  0  0  0
   57.5700   24.1340   45.1940 C   0  0  0  0  0  0  0  0  0  0  0  0
   57.4020   22.8690   44.5910 C   0  0  0  0  0  0  0  0  0  0  0  0
   58.7890   24.5240   45.6840 N   0  0  0  0  0  0  0  0  0  0  0  0
   59.8310   23.6110   45.6230 O   0  0  0  0  0  0  0  0  0  0  0  0
   58.9480   25.7760   46.2360 C   0  0  0  0  0  0  0  0  0  0  0  0
   60.2060   26.2550   46.6680 C   0  0  0  0  0  0  0  0  0  0  0  0
   60.3320   27.5220   47.2400 C   0  0  0  0  0  0  0  0  0  0  0  0
   59.2170   28.3480   47.3860 C   0  0  0  0  0  0  0  0  0  0  0  0
   59.3550   29.6430   47.9770 N   0  0  0  0  0  0  0  0  0  0  0  0
   57.9690   27.9060   46.9400 C   0  0  0  0  0  0  0  0  0  0  0  0
   57.8210   26.6320   46.3550 C   0  0  0  0  0  0  0  0  0  0  0  0
   56.6030   26.2200   45.8910 N   0  0  0  0  0  0  0  0  0  0  0  0
   55.5100   27.0550   46.0070 O   0  0  0  0  0  0  0  0  0  0  0  0
   57.8389   20.1715   43.2392 H   0  0  0  0  0  0  0  0  0  0  0  0
   56.5699   19.8647   42.0054 H   0  0  0  0  0  0  0  0  0  0  0  0
   57.4647   21.4223   42.0054 H   0  0  0  0  0  0  0  0  0  0  0  0
   54.0764   23.0179   43.8257 H   0  0  0  0  0  0  0  0  0  0  0  0
   54.3366   25.2497   44.8897 H   0  0  0  0  0  0  0  0  0  0  0  0
   58.2639   22.1907   44.5076 H   0  0  0  0  0  0  0  0  0  0  0  0
   60.0630   22.9650   46.3620 H   0  0  0  0  0  0  0  0  0  0  0  0
   61.0973   25.6209   46.5518 H   0  0  0  0  0  0  0  0  0  0  0  0
   61.3183   27.8721   47.5784 H   0  0  0  0  0  0  0  0  0  0  0  0
   58.5260   30.1430   48.3680 H   0  0  0  0  0  0  0  0  0  0  0  0
   60.2870   30.1120   48.0270 H   0  0  0  0  0  0  0  0  0  0  0  0
   57.0911   28.5601   47.0466 H   0  0  0  0  0  0  0  0  0  0  0  0
  1  2  1  0
  2  3  1  0
  3  4  2  0
  4  5  1  0
  5  6  2  0
  6  7  1  0
  7  8  2  0
  7  9  1  0
  9 10  1  0
  9 11  2  0
 11 12  1  0
 12 13  2  0
 13 14  1  0
 14 15  1  0
 14 16  2  0
 16 17  1  0
 17 18  2  0
 18 19  1  0
  8  3  1  0
 17 11  1  0
 18  6  1  0
  1 20  1  0
  1 21  1  0
  1 22  1  0
  4 23  1  0
  5 24  1  0
  8 25  1  0
 10 26  1  0
 12 27  1  0
 13 28  1  0
 15 29  1  0
 15 30  1  0
 16 31  1  0
M  CHG  3   9   1  18   1  19  -1
M  END
>  <UniqueID>  (6) 
5

>  <SMILES>  (6) 
COc1ccc2c(c1)[n+](O)c1ccc(N)cc1[n+]2[O-]

>  <Energy>  (6) 
48.09454703655127

>  <Genealogy>  (6) 
COc1ccc2c(c1)[n+](O)c1ccc(N)cc1[n+]2[O-] (protonated)
COc1ccc2c(c1)[n+](O)c1ccc(N)cc1[n+]2[O-] (3D coordinates assigned)
COc1ccc2c(c1)[n+](O)c1ccc(N)cc1[n+]2[O-] (optimized conformer: 48.09454703655127 kcal/mol)

>  <smiles>  (6) 
COc1ccc2c(c1)[n+]([O-])c1ccc(N)cc1[n+]2[O-]

>  <score_type>  (6) 
oracle

>  <origin>  (6) 
adg

>  <m_score__min__energy>  (6) 
-4.6900000000000004

>  <m_primary>  (6) 
energy

$$$$
6:0
     RDKit          3D

 41 44  0  0  0  0  0  0  0  0999 V2000
   57.3960   27.7440   45.0080 C   0  0  0  0  0  0  0  0  0  0  0  0
   57.2720   28.6710   43.8050 C   0  0  0  0  0  0  0  0  0  0  0  0
   57.3420   30.1010   44.2360 C   0  0  0  0  0  0  0  0  0  0  0  0
   58.4740   30.8230   44.3030 N   0  0  0  0  0  0  0  0  0  0  0  0
   58.0320   32.0300   44.7010 C   0  0  0  0  0  0  0  0  0  0  0  0
   58.9440   33.2000   44.9860 C   0  0  1  0  0  0  0  0  0  0  0  0
   58.2190   34.4890   45.3530 C   0  0  0  0  0  0  0  0  0  0  0  0
   59.2610   35.2880   46.1150 C   0  0  0  0  0  0  0  0  0  0  0  0
   60.4070   34.3130   46.3900 C   0  0  0  0  0  0  0  0  0  0  0  0
   59.9500   32.9560   46.0370 N   0  0  0  0  0  0  0  0  0  0  0  0
   59.4050   32.2630   47.2320 C   0  0  0  0  0  0  0  0  0  0  0  0
   59.6330   30.7860   47.1320 C   0  0  0  0  0  0  0  0  0  0  0  0
   59.2370   29.9080   48.0920 N   0  0  0  0  0  0  0  0  0  0  0  0
   59.6360   28.7350   47.5730 C   0  0  0  0  0  0  0  0  0  0  0  0
   59.4960   27.4630   48.1240 C   0  0  0  0  0  0  0  0  0  0  0  0
   59.9970   26.3730   47.3850 C   0  0  0  0  0  0  0  0  0  0  0  0
   60.6180   26.5830   46.1310 C   0  0  0  0  0  0  0  0  0  0  0  0
   60.7430   27.8830   45.6060 C   0  0  0  0  0  0  0  0  0  0  0  0
   60.2350   28.9340   46.3670 C   0  0  0  0  0  0  0  0  0  0  0  0
   60.2290   30.2110   46.0990 O   0  0  0  0  0  0  0  0  0  0  0  0
   56.6930   32.0350   44.8740 N   0  0  0  0  0  0  0  0  0  0  0  0
   56.3050   30.8300   44.5700 O   0  0  0  0  0  0  0  0  0  0  0  0
   57.3173   28.3325   45.9340 H   0  0  0  0  0  0  0  0  0  0  0  0
   56.5899   26.9961   44.9792 H   0  0  0  0  0  0  0  0  0  0  0  0
   58.3703   27.2342   44.9792 H   0  0  0  0  0  0  0  0  0  0  0  0
   58.0928   28.4641   43.1025 H   0  0  0  0  0  0  0  0  0  0  0  0
   56.3019   28.4935   43.3178 H   0  0  0  0  0  0  0  0  0  0  0  0
   59.4540   30.5200   44.1020 H   0  0  0  0  0  0  0  0  0  0  0  0
   59.4485   33.3193   44.0158 H   0  0  0  0  0  0  0  0  0  0  0  0
   57.8961   35.0274   44.4498 H   0  0  0  0  0  0  0  0  0  0  0  0
   57.3067   34.3106   45.9412 H   0  0  0  0  0  0  0  0  0  0  0  0
   59.6146   36.1348   45.5085 H   0  0  0  0  0  0  0  0  0  0  0  0
   58.8515   35.7077   47.0457 H   0  0  0  0  0  0  0  0  0  0  0  0
   61.2807   34.5828   45.7786 H   0  0  0  0  0  0  0  0  0  0  0  0
   60.6952   34.3537   47.4508 H   0  0  0  0  0  0  0  0  0  0  0  0
   59.9065   32.6464   48.1328 H   0  0  0  0  0  0  0  0  0  0  0  0
   58.3230   32.4526   47.2903 H   0  0  0  0  0  0  0  0  0  0  0  0
   59.0119   27.3151   49.1006 H   0  0  0  0  0  0  0  0  0  0  0  0
   59.9048   25.3526   47.7853 H   0  0  0  0  0  0  0  0  0  0  0  0
   61.0056   25.7246   45.5627 H   0  0  0  0  0  0  0  0  0  0  0  0
   61.2231   28.0623   44.6327 H   0  0  0  0  0  0  0  0  0  0  0  0
  1  2  1  0
  2  3  1  0
  3  4  2  0
  4  5  1  0
  5  6  1  0
  6  7  1  0
  7  8  1  0
  8  9  1  0
  9 10  1  0
 10 11  1  0
 11 12  1  0
 12 13  2  0
 13 14  1  0
 14 15  2  0
 15 16  1  0
 16 17  2  0
 17 18  1  0
 18 19  2  0
 19 20  1  0
  5 21  2  0
 21 22  1  0
 22  3  1  0
 10  6  1  0
 20 12  1  0
 19 14  1  0
  1 23  1  0
  1 24  1  0
  1 25  1  0
  2 26  1  0
  2 27  1  0
  4 28  1  0
  6 29  1  6
  7 30  1  0
  7 31  1  0
  8 32  1  0
  8 33  1  0
  9 34  1  0
  9 35  1  0
 11 36  1  0
 11 37  1  0
 15 38  1  0
 16 39  1  0
 17 40  1  0
 18 41  1  0
M  CHG  1   4   1
M  END
>  <UniqueID>  (7) 
6

>  <SMILES>  (7) 
CCc1[nH+]c([C@H]2CCCN2Cc2nc3ccccc3o2)no1

>  <Energy>  (7) 
119.15396204038451

>  <Genealogy>  (7) 
CCc1[nH+]c(C2CCCN2Cc2nc3ccccc3o2)no1 (protonated)
CCc1[nH+]c([C@H]2CCCN2Cc2nc3ccccc3o2)no1 (chirality)
CCc1[nH+]c([C@H]2CCCN2Cc2nc3ccccc3o2)no1 (3D coordinates assigned)
CCc1[nH+]c([C@H]2CCCN2Cc2nc3ccccc3o2)no1 (nonaromatic ring conformer: 119.15396204038451 kcal/mol)

>  <smiles>  (7) 
CCc1nc(C2CCCN2Cc2nc3ccccc3o2)no1

>  <score_type>  (7) 
oracle

>  <origin>  (7) 
adg

>  <m_score__min__energy>  (7) 
-6.0599999999999996

>  <m_primary>  (7) 
energy

$$$$
7:0
     RDKit          3D

 31 32  0  0  0  0  0  0  0  0999 V2000
   59.3920   22.2260   44.7400 C   0  0  0  0  0  0  0  0  0  0  0  0
   59.6210   23.3490   45.5840 O   0  0  0  0  0  0  0  0  0  0  0  0
   58.8120   24.4950   45.6150 C   0  0  0  0  0  0  0  0  0  0  0  0
   59.3080   25.7580   45.9900 C   0  0  0  0  0  0  0  0  0  0  0  0
   58.4620   26.8710   45.9990 C   0  0  0  0  0  0  0  0  0  0  0  0
   57.1270   26.7500   45.6030 C   0  0  0  0  0  0  0  0  0  0  0  0
   56.2860   27.9100   45.6250 N   0  0  0  0  0  0  0  0  0  0  0  0
   56.2600   28.9650   44.6540 C   0  0  0  0  0  0  0  0  0  0  0  0
   55.1660   29.5400   44.4140 O   0  0  0  0  0  0  0  0  0  0  0  0
   57.5120   29.4970   44.0130 C   0  0  0  0  0  0  0  0  0  0  0  0
   57.1410   30.9750   43.0100 S   0  0  0  0  0  0  0  0  0  0  0  0
   57.5920   32.1410   44.2920 C   0  0  0  0  0  0  0  0  0  0  0  0
   58.0340   33.3830   43.9570 N   0  0  0  0  0  0  0  0  0  0  0  0
   58.3880   34.2780   44.9150 C   0  0  0  0  0  0  0  0  0  0  0  0
   58.2910   33.9300   46.2620 C   0  0  0  0  0  0  0  0  0  0  0  0
   57.8270   32.6570   46.5860 C   0  0  0  0  0  0  0  0  0  0  0  0
   57.4890   31.7860   45.6000 N   0  0  0  0  0  0  0  0  0  0  0  0
   56.6210   25.4840   45.2680 C   0  0  0  0  0  0  0  0  0  0  0  0
   57.4630   24.3690   45.2630 C   0  0  0  0  0  0  0  0  0  0  0  0
   59.2101   21.3341   45.3577 H   0  0  0  0  0  0  0  0  0  0  0  0
   58.5144   22.4174   44.1050 H   0  0  0  0  0  0  0  0  0  0  0  0
   60.2745   22.0585   44.1050 H   0  0  0  0  0  0  0  0  0  0  0  0
   60.3641   25.8695   46.2767 H   0  0  0  0  0  0  0  0  0  0  0  0
   58.8498   27.8490   46.3201 H   0  0  0  0  0  0  0  0  0  0  0  0
   58.2345   29.7648   44.7981 H   0  0  0  0  0  0  0  0  0  0  0  0
   57.9329   28.7201   43.3578 H   0  0  0  0  0  0  0  0  0  0  0  0
   58.7508   35.2763   44.6289 H   0  0  0  0  0  0  0  0  0  0  0  0
   58.5741   34.6436   47.0498 H   0  0  0  0  0  0  0  0  0  0  0  0
   57.7343   32.3572   47.6403 H   0  0  0  0  0  0  0  0  0  0  0  0
   55.5582   25.3695   45.0086 H   0  0  0  0  0  0  0  0  0  0  0  0
   57.0626   23.3843   44.9802 H   0  0  0  0  0  0  0  0  0  0  0  0
  1  2  1  0
  2  3  1  0
  3  4  2  0
  4  5  1  0
  5  6  2  0
  6  7  1  0
  7  8  1  0
  8  9  2  0
  8 10  1  0
 10 11  1  0
 11 12  1  0
 12 13  2  0
 13 14  1  0
 14 15  2  0
 15 16  1  0
 16 17  2  0
  6 18  1  0
 18 19  2  0
 19  3  1  0
 17 12  1  0
  1 20  1  0
  1 21  1  0
  1 22  1  0
  4 23  1  0
  5 24  1  0
 10 25  1  0
 10 26  1  0
 14 27  1  0
 15 28  1  0
 16 29  1  0
 18 30  1  0
 19 31  1  0
M  CHG  1   7  -1
M  END
>  <UniqueID>  (8) 
7

>  <SMILES>  (8) 
COc1ccc([N-]C(=O)CSc2ncccn2)cc1

>  <Energy>  (8) 
30.62762833574295

>  <Genealogy>  (8) 
COc1ccc([N-]C(=O)CSc2ncccn2)cc1 (protonated)
COc1ccc([N-]C(=O)CSc2ncccn2)cc1 (3D coordinates assigned)
COc1ccc([N-]C(=O)CSc2ncccn2)cc1 (optimized conformer: 30.62762833574295 kcal/mol)

>  <smiles>  (8) 
COc1ccc(NC(=O)CSc2ncccn2)cc1

>  <score_type>  (8) 
oracle

>  <origin>  (8) 
adg

>  <m_score__min__energy>  (8) 
-8.4900000000000002

>  <m_primary>  (8) 
energy

$$$$
8:0
     RDKit          3D

 62 65  0  0  0  0  0  0  0  0999 V2000
   58.3870   27.4090   43.3680 C   0  0  0  0  0  0  0  0  0  0  0  0
   57.9060   27.6950   44.6780 O   0  0  0  0  0  0  0  0  0  0  0  0
   58.5340   28.5760   45.5760 C   0  0  0  0  0  0  0  0  0  0  0  0
   59.7820   28.2830   46.1640 C   0  0  0  0  0  0  0  0  0  0  0  0
   60.3870   29.1860   47.0390 C   0  0  0  0  0  0  0  0  0  0  0  0
   59.7470   30.3920   47.3750 C   0  0  0  0  0  0  0  0  0  0  0  0
   60.3440   31.3420   48.2990 N   0  0  0  0  0  0  0  0  0  0  0  0
   60.3480   31.0230   49.7080 C   0  0  0  0  0  0  0  0  0  0  0  0
   61.0430   30.0550   50.1250 O   0  0  0  0  0  0  0  0  0  0  0  0
   59.5270   31.7910   50.6750 C   0  0  0  0  0  0  0  0  0  0  0  0
   58.1520   31.5370   50.7970 C   0  0  0  0  0  0  0  0  0  0  0  0
   57.3820   32.2660   51.7040 C   0  0  0  0  0  0  0  0  0  0  0  0
   57.9920   33.2440   52.4880 C   0  0  0  0  0  0  0  0  0  0  0  0
   59.3270   33.4790   52.3710 N   0  0  0  0  0  0  0  0  0  0  0  0
   60.0990   32.7790   51.4920 C   0  0  0  0  0  0  0  0  0  0  0  0
   60.9980   32.6050   47.8640 C   0  0  1  0  0  0  0  0  0  0  0  0
   60.0360   33.7720   47.7770 C   0  0  0  0  0  0  0  0  0  0  0  0
   59.2660   34.0000   48.7480 O   0  0  0  0  0  0  0  0  0  0  0  0
   59.9730   34.5970   46.6030 N   0  0  0  0  0  0  0  0  0  0  0  0
   58.8570   34.6790   45.6580 C   0  0  0  0  0  0  0  0  0  0  0  0
   59.1120   33.8480   44.3980 C   0  0  0  0  0  0  0  0  0  0  0  0
   57.7720   33.2300   44.0430 C   0  0  0  0  0  0  0  0  0  0  0  0
   57.0410   33.0620   45.3640 C   0  0  0  0  0  0  0  0  0  0  0  0
   57.5340   34.1920   46.2620 C   0  0  0  0  0  0  0  0  0  0  0  0
   62.2590   32.8790   48.6710 C   0  0  0  0  0  0  0  0  0  0  0  0
   63.3270   31.9700   48.5900 C   0  0  0  0  0  0  0  0  0  0  0  0
   64.4920   32.1820   49.3280 C   0  0  0  0  0  0  0  0  0  0  0  0
   64.5940   33.3130   50.1340 C   0  0  0  0  0  0  0  0  0  0  0  0
   63.5680   34.1980   50.1970 N   0  0  0  0  0  0  0  0  0  0  0  0
   62.4180   34.0140   49.4930 C   0  0  0  0  0  0  0  0  0  0  0  0
   58.4950   30.6770   46.7930 C   0  0  0  0  0  0  0  0  0  0  0  0
   57.8960   29.7850   45.8820 C   0  0  0  0  0  0  0  0  0  0  0  0
   56.6680   30.0690   45.2590 O   0  0  0  0  0  0  0  0  0  0  0  0
   56.4760   30.1350   43.8500 C   0  0  0  0  0  0  0  0  0  0  0  0
   59.3306   26.8480   43.4382 H   0  0  0  0  0  0  0  0  0  0  0  0
   57.6419   26.8071   42.8271 H   0  0  0  0  0  0  0  0  0  0  0  0
   58.5599   28.3511   42.8271 H   0  0  0  0  0  0  0  0  0  0  0  0
   60.2838   27.3324   45.9303 H   0  0  0  0  0  0  0  0  0  0  0  0
   61.3721   28.9526   47.4692 H   0  0  0  0  0  0  0  0  0  0  0  0
   57.6802   30.7613   50.1760 H   0  0  0  0  0  0  0  0  0  0  0  0
   56.3037   32.0708   51.7995 H   0  0  0  0  0  0  0  0  0  0  0  0
   57.3927   33.8270   53.2028 H   0  0  0  0  0  0  0  0  0  0  0  0
   59.7640   34.2130   52.9680 H   0  0  0  0  0  0  0  0  0  0  0  0
   61.1764   32.9896   51.4225 H   0  0  0  0  0  0  0  0  0  0  0  0
   61.3323   32.4676   46.8251 H   0  0  0  0  0  0  0  0  0  0  0  0
   58.7801   35.7471   45.4064 H   0  0  0  0  0  0  0  0  0  0  0  0
   59.4683   34.4904   43.5792 H   0  0  0  0  0  0  0  0  0  0  0  0
   59.8842   33.0821   44.5631 H   0  0  0  0  0  0  0  0  0  0  0  0
   57.2073   33.8948   43.3728 H   0  0  0  0  0  0  0  0  0  0  0  0
   57.8908   32.2712   43.5171 H   0  0  0  0  0  0  0  0  0  0  0  0
   55.9543   33.1402   45.2125 H   0  0  0  0  0  0  0  0  0  0  0  0
   57.2370   32.0763   45.8112 H   0  0  0  0  0  0  0  0  0  0  0  0
   56.7999   35.0110   46.2806 H   0  0  0  0  0  0  0  0  0  0  0  0
   57.6712   33.8475   47.2976 H   0  0  0  0  0  0  0  0  0  0  0  0
   63.2443   31.0858   47.9409 H   0  0  0  0  0  0  0  0  0  0  0  0
   65.3222   31.4624   49.2736 H   0  0  0  0  0  0  0  0  0  0  0  0
   65.5079   33.4889   50.7204 H   0  0  0  0  0  0  0  0  0  0  0  0
   61.6079   34.7546   49.5655 H   0  0  0  0  0  0  0  0  0  0  0  0
   57.9772   31.6116   47.0546 H   0  0  0  0  0  0  0  0  0  0  0  0
   55.4558   30.4857   43.6350 H   0  0  0  0  0  0  0  0  0  0  0  0
   57.2039   30.8345   43.4131 H   0  0  0  0  0  0  0  0  0  0  0  0
   56.6199   29.1358   43.4131 H   0  0  0  0  0  0  0  0  0  0  0  0
  1  2  1  0
  2  3  1  0
  3  4  2  0
  4  5  1  0
  5  6  2  0
  6  7  1  0
  7  8  1  0
  8  9  2  0
  8 10  1  0
 10 11  2  0
 11 12  1  0
 12 13  2  0
 13 14  1  0
 14 15  2  0
  7 16  1  0
 16 17  1  0
 17 18  2  0
 17 19  1  0
 19 20  1  0
 20 21  1  0
 21 22  1  0
 22 23  1  0
 23 24  1  0
 16 25  1  0
 25 26  2  0
 26 27  1  0
 27 28  2  0
 28 29  1  0
 29 30  2  0
  6 31  1  0
 31 32  2  0
 32 33  1  0
 33 34  1  0
 32  3  1  0
 15 10  1  0
 24 20  1  0
 30 25  1  0
  1 35  1  0
  1 36  1  0
  1 37  1  0
  4 38  1  0
  5 39  1  0
 11 40  1  0
 12 41  1  0
 13 42  1  0
 14 43  1  0
 15 44  1  0
 16 45  1  6
 20 46  1  0
 21 47  1  0
 21 48  1  0
 22 49  1  0
 22 50  1  0
 23 51  1  0
 23 52  1  0
 24 53  1  0
 24 54  1  0
 26 55  1  0
 27 56  1  0
 28 57  1  0
 30 58  1  0
 31 59  1  0
 34 60  1  0
 34 61  1  0
 34 62  1  0
M  CHG  2  14   1  19  -1
M  END
>  <UniqueID>  (9) 
8

>  <SMILES>  (9) 
COc1ccc(N(C(=O)c2ccc[nH+]c2)[C@@H](C(=O)[N-]C2CCCC2)c2cccnc2)cc1OC

>  <Energy>  (9) 
79.21108940059084

>  <Genealogy>  (9) 
COc1ccc(N(C(=O)c2ccc[nH+]c2)C(C(=O)[N-]C2CCCC2)c2cccnc2)cc1OC (protonated)
COc1ccc(N(C(=O)c2ccc[nH+]c2)[C@@H](C(=O)[N-]C2CCCC2)c2cccnc2)cc1OC (chirality)
COc1ccc(N(C(=O)c2ccc[nH+]c2)[C@@H](C(=O)[N-]C2CCCC2)c2cccnc2)cc1OC (3D coordinates assigned)
COc1ccc(N(C(=O)c2ccc[nH+]c2)[C@@H](C(=O)[N-]C2CCCC2)c2cccnc2)cc1OC (nonaromatic ring conformer: 79.21108940059084 kcal/mol)

>  <smiles>  (9) 
COc1ccc(N(C(=O)c2cccnc2)C(C(=O)NC2CCCC2)c2cccnc2)cc1OC

>  <score_type>  (9) 
oracle

>  <origin>  (9) 
adg

>  <m_score__min__energy>  (9) 
-8.0399999999999991

>  <m_primary>  (9) 
energy

$$$$
9:0
     RDKit          3D

 39 41  0  0  0  0  0  0  0  0999 V2000
   55.9200   29.7440   43.2150 C   0  0  0  0  0  0  0  0  0  0  0  0
   56.1450   30.3700   44.4740 O   0  0  0  0  0  0  0  0  0  0  0  0
   57.3930   30.4520   45.1180 C   0  0  0  0  0  0  0  0  0  0  0  0
   58.2120   29.3200   45.2730 C   0  0  0  0  0  0  0  0  0  0  0  0
   59.4440   29.4200   45.9130 C   0  0  0  0  0  0  0  0  0  0  0  0
   59.8880   30.6430   46.4100 C   0  0  0  0  0  0  0  0  0  0  0  0
   59.1000   31.8010   46.2740 C   0  0  0  0  0  0  0  0  0  0  0  0
   57.8310   31.6980   45.6170 C   0  0  0  0  0  0  0  0  0  0  0  0
   57.0170   32.8480   45.4700 C   0  0  0  0  0  0  0  0  0  0  0  0
   57.4330   34.0900   45.9600 C   0  0  0  0  0  0  0  0  0  0  0  0
   58.6660   34.1710   46.5940 C   0  0  0  0  0  0  0  0  0  0  0  0
   59.2050   35.2830   47.1150 N   0  0  0  0  0  0  0  0  0  0  0  0
   60.3960   34.9210   47.6260 C   0  0  0  0  0  0  0  0  0  0  0  0
   60.6240   33.5580   47.4280 C   0  0  0  0  0  0  0  0  0  0  0  0
   61.8510   32.7920   47.8650 C   0  0  0  0  0  0  0  0  0  0  0  0
   63.1740   33.4900   47.5240 C   0  0  0  0  0  0  0  0  0  0  0  0
   64.2920   32.8080   48.1750 N   0  0  0  0  0  0  0  0  0  0  0  0
   64.6510   33.0440   49.5440 C   0  0  0  0  0  0  0  0  0  0  0  0
   65.7970   32.3040   50.1510 C   0  0  0  0  0  0  0  0  0  0  0  0
   64.0300   33.9020   50.2280 O   0  0  0  0  0  0  0  0  0  0  0  0
   59.4910   33.0770   46.7560 C   0  0  0  0  0  0  0  0  0  0  0  0
   55.5519   28.7199   43.3753 H   0  0  0  0  0  0  0  0  0  0  0  0
   55.1719   30.3181   42.6486 H   0  0  0  0  0  0  0  0  0  0  0  0
   56.8623   29.7105   42.6486 H   0  0  0  0  0  0  0  0  0  0  0  0
   57.8764   28.3469   44.8852 H   0  0  0  0  0  0  0  0  0  0  0  0
   60.0728   28.5247   46.0273 H   0  0  0  0  0  0  0  0  0  0  0  0
   60.8640   30.7043   46.9137 H   0  0  0  0  0  0  0  0  0  0  0  0
   56.0443   32.7629   44.9635 H   0  0  0  0  0  0  0  0  0  0  0  0
   56.7988   34.9815   45.8460 H   0  0  0  0  0  0  0  0  0  0  0  0
   58.7890   36.2410   47.1250 H   0  0  0  0  0  0  0  0  0  0  0  0
   61.0942   35.6051   48.1305 H   0  0  0  0  0  0  0  0  0  0  0  0
   61.8031   32.6542   48.9553 H   0  0  0  0  0  0  0  0  0  0  0  0
   61.8433   31.8378   47.3179 H   0  0  0  0  0  0  0  0  0  0  0  0
   63.3232   33.4719   46.4343 H   0  0  0  0  0  0  0  0  0  0  0  0
   63.1322   34.5292   47.8822 H   0  0  0  0  0  0  0  0  0  0  0  0
   64.8820   32.1620   47.6030 H   0  0  0  0  0  0  0  0  0  0  0  0
   65.7242   32.3510   51.2476 H   0  0  0  0  0  0  0  0  0  0  0  0
   65.7683   31.2534   49.8263 H   0  0  0  0  0  0  0  0  0  0  0  0
   66.7427   32.7624   49.8263 H   0  0  0  0  0  0  0  0  0  0  0  0
  1  2  1  0
  2  3  1  0
  3  4  2  0
  4  5  1  0
  5  6  2  0
  6  7  1  0
  7  8  2  0
  8  9  1  0
  9 10  2  0
 10 11  1  0
 11 12  1  0
 12 13  1  0
 13 14  2  0
 14 15  1  0
 15 16  1  0
 16 17  1  0
 17 18  1  0
 18 19  1  0
 18 20  2  0
 14 21  1  0
  8  3  1  0
 21 11  2  0
 21  7  1  0
  1 22  1  0
  1 23  1  0
  1 24  1  0
  4 25  1  0
  5 26  1  0
  6 27  1  0
  9 28  1  0
 10 29  1  0
 12 30  1  0
 13 31  1  0
 15 32  1  0
 15 33  1  0
 16 34  1  0
 16 35  1  0
 17 36  1  0
 19 37  1  0
 19 38  1  0
 19 39  1  0
M  END
>  <UniqueID>  (10) 
9

>  <SMILES>  (10) 
COc1cccc2c1ccc1[nH]cc(CCNC(C)=O)c12

>  <Energy>  (10) 
76.21671874916878

>  <Genealogy>  (10) 
COc1cccc2c1ccc1[nH]cc(CCNC(C)=O)c12 (3D coordinates assigned)
COc1cccc2c1ccc1[nH]cc(CCNC(C)=O)c12 (optimized conformer: 76.21671874916878 kcal/mol)

>  <smiles>  (10) 
COc1cccc2c1ccc1[nH]cc(CCNC(C)=O)c12

>  <score_type>  (10) 
oracle

>  <origin>  (10) 
adg

>  <m_score__min__energy>  (10) 
-7.6500000000000004

>  <m_primary>  (10) 
energy

$$$$
10:0
     RDKit          3D

 35 37  0  0  0  0  0  0  0  0999 V2000
   64.8670   32.3470   46.8460 H   0  0  0  0  0  0  0  0  0  0  0  0
   64.1440   33.0890   46.7230 N   0  0  0  0  0  0  0  0  0  0  0  0
   63.1170   33.2540   47.5040 C   0  0  0  0  0  0  0  0  0  0  0  0
   63.2380   33.1850   48.9120 C   0  0  0  0  0  0  0  0  0  0  0  0
   64.5260   32.9250   49.5270 C   0  0  0  0  0  0  0  0  0  0  0  0
   65.5540   32.7190   50.0160 N   0  0  0  0  0  0  0  0  0  0  0  0
   62.0830   33.3710   49.7110 C   0  0  0  0  0  0  0  0  0  0  0  0
   62.1370   33.3100   51.1210 C   0  0  0  0  0  0  0  0  0  0  0  0
   63.0976   33.1183   51.6215 H   0  0  0  0  0  0  0  0  0  0  0  0
   60.9810   33.4910   51.8870 C   0  0  0  0  0  0  0  0  0  0  0  0
   61.0690   33.4120   53.6380 Cl  0  0  0  0  0  0  0  0  0  0  0  0
   59.7580   33.7320   51.2620 C   0  0  0  0  0  0  0  0  0  0  0  0
   58.8505   33.8712   51.8679 H   0  0  0  0  0  0  0  0  0  0  0  0
   59.6820   33.7970   49.8720 C   0  0  0  0  0  0  0  0  0  0  0  0
   58.7131   33.9865   49.3869 H   0  0  0  0  0  0  0  0  0  0  0  0
   60.8360   33.6220   49.0830 C   0  0  0  0  0  0  0  0  0  0  0  0
   60.7770   33.6850   47.6780 C   0  0  0  0  0  0  0  0  0  0  0  0
   59.5410   33.9510   47.0020 N   0  0  0  0  0  0  0  0  0  0  0  0
   58.4660   32.9550   47.0610 C   0  0  0  0  0  0  0  0  0  0  0  0
   58.8048   32.0316   46.5685 H   0  0  0  0  0  0  0  0  0  0  0  0
   58.2246   32.7647   48.1172 H   0  0  0  0  0  0  0  0  0  0  0  0
   57.2030   33.4620   46.3580 C   0  0  0  0  0  0  0  0  0  0  0  0
   56.4768   32.6387   46.2882 H   0  0  0  0  0  0  0  0  0  0  0  0
   56.7905   34.2962   46.9444 H   0  0  0  0  0  0  0  0  0  0  0  0
   57.5180   33.9730   44.9430 C   0  0  0  0  0  0  0  0  0  0  0  0
   57.6862   33.1037   44.2903 H   0  0  0  0  0  0  0  0  0  0  0  0
   56.6581   34.5805   44.6242 H   0  0  0  0  0  0  0  0  0  0  0  0
   58.7660   34.8870   44.8690 C   0  0  0  0  0  0  0  0  0  0  0  0
   59.5276   34.3881   44.2517 H   0  0  0  0  0  0  0  0  0  0  0  0
   58.4422   35.8448   44.4357 H   0  0  0  0  0  0  0  0  0  0  0  0
   59.3770   35.1940   46.2410 C   0  0  0  0  0  0  0  0  0  0  0  0
   60.3588   35.6709   46.1049 H   0  0  0  0  0  0  0  0  0  0  0  0
   58.7086   35.8716   46.7925 H   0  0  0  0  0  0  0  0  0  0  0  0
   61.9040   33.4990   46.9400 N   0  0  0  0  0  0  0  0  0  0  0  0
   61.8290   33.5520   45.8970 H   0  0  0  0  0  0  0  0  0  0  0  0
  1  2  1  0
  2  3  2  0
  3  4  1  0
  4  5  1  0
  5  6  3  0
  4  7  2  0
  7  8  1  0
  8  9  1  0
  8 10  2  0
 10 11  1  0
 10 12  1  0
 12 13  1  0
 12 14  2  0
 14 15  1  0
 14 16  1  0
 16 17  2  0
 17 18  1  0
 18 19  1  0
 19 20  1  0
 19 21  1  0
 19 22  1  0
 22 23  1  0
 22 24  1  0
 22 25  1  0
 25 26  1  0
 25 27  1  0
 25 28  1  0
 28 29  1  0
 28 30  1  0
 28 31  1  0
 31 32  1  0
 31 33  1  0
 17 34  1  0
 34 35  1  0
 34  3  1  0
 16  7  1  0
 31 18  1  0
M  END
>  <UniqueID>  (11) 
10

>  <SMILES>  (11) 
[H]/N=c1/[nH]c(N2CCCCC2)c2ccc(Cl)cc2c1C#N

>  <Energy>  (11) 
51.05113736277233

>  <Genealogy>  (11) 
[H]/N=c1/[nH]c(N2CCCCC2)c2ccc(Cl)cc2c1C#N (cis-trans isomerization)
[H]/N=c1/[nH]c(N2CCCCC2)c2ccc(Cl)cc2c1C#N (3D coordinates assigned)
[H]/N=c1/[nH]c(N2CCCCC2)c2ccc(Cl)cc2c1C#N (nonaromatic ring conformer: 51.05113736277233 kcal/mol)

>  <smiles>  (11) 
N#Cc1c(=N)[nH]c(N2CCCCC2)c2ccc(Cl)cc12

>  <score_type>  (11) 
oracle

>  <origin>  (11) 
adg

>  <m_score__min__energy>  (11) 
-6.6500000000000004

>  <m_primary>  (11) 
energy

$$$$
11:0
     RDKit          3D

 44 46  0  0  0  0  0  0  0  0999 V2000
   63.4270   33.4820   46.8210 C   0  0  0  0  0  0  0  0  0  0  0  0
   61.9680   33.8810   46.6280 C   0  0  0  0  0  0  0  0  0  0  0  0
   61.2440   33.7990   47.8980 N   0  0  0  0  0  0  0  0  0  0  0  0
   61.7970   33.4810   49.0860 C   0  0  0  0  0  0  0  0  0  0  0  0
   60.8300   33.4670   50.0700 C   0  0  0  0  0  0  0  0  0  0  0  0
   59.6340   33.7810   49.4550 C   0  0  0  0  0  0  0  0  0  0  0  0
   59.9170   33.9620   48.1130 C   0  0  0  0  0  0  0  0  0  0  0  0
   58.9000   34.3450   47.0710 C   0  0  0  0  0  0  0  0  0  0  0  0
   58.4310   33.1520   46.3380 N   0  0  0  0  0  0  0  0  0  0  0  0
   59.5390   32.2170   46.0680 C   0  0  0  0  0  0  0  0  0  0  0  0
   58.9600   30.8790   45.5970 C   0  0  0  0  0  0  0  0  0  0  0  0
   57.7860   31.0920   44.7370 N   0  0  0  0  0  0  0  0  0  0  0  0
   56.7430   30.0990   44.6430 C   0  0  0  0  0  0  0  0  0  0  0  0
   55.5480   30.4720   44.4920 O   0  0  0  0  0  0  0  0  0  0  0  0
   57.0370   28.6480   44.7190 C   0  0  0  0  0  0  0  0  0  0  0  0
   58.0180   28.0700   43.8950 C   0  0  0  0  0  0  0  0  0  0  0  0
   58.2880   26.7030   44.0020 C   0  0  0  0  0  0  0  0  0  0  0  0
   57.5890   25.9270   44.9260 C   0  0  0  0  0  0  0  0  0  0  0  0
   56.6280   26.5320   45.7360 C   0  0  0  0  0  0  0  0  0  0  0  0
   56.3790   27.8630   45.6180 N   0  0  0  0  0  0  0  0  0  0  0  0
   57.6380   32.3900   44.0670 C   0  0  0  0  0  0  0  0  0  0  0  0
   57.7510   33.5490   45.0810 C   0  0  0  0  0  0  0  0  0  0  0  0
   63.6512   33.4207   47.8962 H   0  0  0  0  0  0  0  0  0  0  0  0
   63.6042   32.5024   46.3530 H   0  0  0  0  0  0  0  0  0  0  0  0
   64.0781   34.2351   46.3530 H   0  0  0  0  0  0  0  0  0  0  0  0
   61.9214   34.9131   46.2503 H   0  0  0  0  0  0  0  0  0  0  0  0
   61.5024   33.1931   45.9069 H   0  0  0  0  0  0  0  0  0  0  0  0
   62.8634   33.2644   49.2471 H   0  0  0  0  0  0  0  0  0  0  0  0
   60.9821   33.2482   51.1372 H   0  0  0  0  0  0  0  0  0  0  0  0
   58.6495   33.8698   49.9376 H   0  0  0  0  0  0  0  0  0  0  0  0
   58.0424   34.8270   47.5631 H   0  0  0  0  0  0  0  0  0  0  0  0
   59.3684   35.0381   46.3568 H   0  0  0  0  0  0  0  0  0  0  0  0
   60.1900   32.6331   45.2850 H   0  0  0  0  0  0  0  0  0  0  0  0
   60.1280   32.0647   46.9844 H   0  0  0  0  0  0  0  0  0  0  0  0
   59.7283   30.3332   45.0298 H   0  0  0  0  0  0  0  0  0  0  0  0
   58.6506   30.2986   46.4787 H   0  0  0  0  0  0  0  0  0  0  0  0
   58.5690   28.6888   43.1715 H   0  0  0  0  0  0  0  0  0  0  0  0
   59.0506   26.2400   43.3585 H   0  0  0  0  0  0  0  0  0  0  0  0
   57.7932   24.8498   45.0151 H   0  0  0  0  0  0  0  0  0  0  0  0
   56.0714   25.9316   46.4707 H   0  0  0  0  0  0  0  0  0  0  0  0
   58.4280   32.4963   43.3090 H   0  0  0  0  0  0  0  0  0  0  0  0
   56.6451   32.4310   43.5952 H   0  0  0  0  0  0  0  0  0  0  0  0
   58.3212   34.3671   44.6168 H   0  0  0  0  0  0  0  0  0  0  0  0
   56.7287   33.8595   45.3426 H   0  0  0  0  0  0  0  0  0  0  0  0
  1  2  1  0
  2  3  1  0
  3  4  1  0
  4  5  2  0
  5  6  1  0
  6  7  2  0
  7  8  1  0
  8  9  1  0
  9 10  1  0
 10 11  1  0
 11 12  1  0
 12 13  1  0
 13 14  2  0
 13 15  1  0
 15 16  2  0
 16 17  1  0
 17 18  2  0
 18 19  1  0
 19 20  2  0
 12 21  1  0
 21 22  1  0
  7  3  1  0
 22  9  1  0
 20 15  1  0
  1 23  1  0
  1 24  1  0
  1 25  1  0
  2 26  1  0
  2 27  1  0
  4 28  1  0
  5 29  1  0
  6 30  1  0
  8 31  1  0
  8 32  1  0
 10 33  1  0
 10 34  1  0
 11 35  1  0
 11 36  1  0
 16 37  1  0
 17 38  1  0
 18 39  1  0
 19 40  1  0
 21 41  1  0
 21 42  1  0
 22 43  1  0
 22 44  1  0
M  END
>  <UniqueID>  (12) 
11

>  <SMILES>  (12) 
CCn1cccc1CN1CCN(C(=O)c2ccccn2)CC1

>  <Energy>  (12) 
77.03792268170791

>  <Genealogy>  (12) 
CCn1cccc1CN1CCN(C(=O)c2ccccn2)CC1 (3D coordinates assigned)
CCn1cccc1CN1CCN(C(=O)c2ccccn2)CC1 (nonaromatic ring conformer: 77.03792268170791 kcal/mol)

>  <smiles>  (12) 
CCn1cccc1CN1CCN(C(=O)c2ccccn2)CC1

>  <score_type>  (12) 
oracle

>  <origin>  (12) 
adg

>  <m_score__min__energy>  (12) 
-7.54

>  <m_primary>  (12) 
energy

$$$$
12:0
     RDKit          3D

 51 54  0  0  0  0  0  0  0  0999 V2000
   54.7666   30.8079   44.1264 H   0  0  0  0  0  0  0  0  0  0  0  0
   55.6480   30.2600   44.4910 C   0  0  0  0  0  0  0  0  0  0  0  0
   55.5340   28.9540   44.8400 N   0  0  0  0  0  0  0  0  0  0  0  0
   56.5960   28.2370   45.2910 C   0  0  0  0  0  0  0  0  0  0  0  0
   56.4250   26.8890   45.6290 C   0  0  0  0  0  0  0  0  0  0  0  0
   55.4331   26.4241   45.5284 H   0  0  0  0  0  0  0  0  0  0  0  0
   57.5090   26.1230   46.0960 C   0  0  0  0  0  0  0  0  0  0  0  0
   57.3350   24.6920   46.4570 C   0  0  0  0  0  0  0  0  0  0  0  0
   56.3380   24.1040   47.6850 S   0  0  0  0  0  0  0  0  0  0  0  0
   56.6720   22.4750   47.4640 C   0  0  0  0  0  0  0  0  0  0  0  0
   56.2520   21.6437   48.0493 H   0  0  0  0  0  0  0  0  0  0  0  0
   57.5730   22.3600   46.4110 C   0  0  0  0  0  0  0  0  0  0  0  0
   58.0960   21.0330   45.9130 C   0  0  0  0  0  0  0  0  0  0  0  0
   59.0854   21.1977   45.4615 H   0  0  0  0  0  0  0  0  0  0  0  0
   58.1359   20.3586   46.7811 H   0  0  0  0  0  0  0  0  0  0  0  0
   57.2240   20.3860   44.9040 N   0  0  0  0  0  0  0  0  0  0  0  0
   57.7610   19.5750   44.5120 H   0  0  0  0  0  0  0  0  0  0  0  0
   56.9120   21.2820   43.7750 C   0  0  0  0  0  0  0  0  0  0  0  0
   56.5733   22.2546   44.1615 H   0  0  0  0  0  0  0  0  0  0  0  0
   57.8132   21.4252   43.1607 H   0  0  0  0  0  0  0  0  0  0  0  0
   56.1168   20.8345   43.1607 H   0  0  0  0  0  0  0  0  0  0  0  0
   55.9890   19.8430   45.4950 C   0  0  0  0  0  0  0  0  0  0  0  0
   56.0625   19.8753   46.5921 H   0  0  0  0  0  0  0  0  0  0  0  0
   55.1296   20.4463   45.1672 H   0  0  0  0  0  0  0  0  0  0  0  0
   55.8526   18.8019   45.1672 H   0  0  0  0  0  0  0  0  0  0  0  0
   57.9470   23.5930   45.8510 C   0  0  0  0  0  0  0  0  0  0  0  0
   58.6551   23.6840   45.0142 H   0  0  0  0  0  0  0  0  0  0  0  0
   58.7700   26.7340   46.2110 C   0  0  0  0  0  0  0  0  0  0  0  0
   59.6277   26.1455   46.5688 H   0  0  0  0  0  0  0  0  0  0  0  0
   58.9480   28.0780   45.8770 C   0  0  0  0  0  0  0  0  0  0  0  0
   59.9422   28.5380   45.9774 H   0  0  0  0  0  0  0  0  0  0  0  0
   57.8660   28.8490   45.4130 C   0  0  0  0  0  0  0  0  0  0  0  0
   58.0060   30.2150   45.0730 C   0  0  0  0  0  0  0  0  0  0  0  0
   59.1790   30.7860   45.1730 N   0  0  0  0  0  0  0  0  0  0  0  0
   59.6280   31.7030   46.1820 C   0  0  0  0  0  0  0  0  0  0  0  0
   60.7280   31.4020   47.0020 C   0  0  0  0  0  0  0  0  0  0  0  0
   61.2318   30.4288   46.9071 H   0  0  0  0  0  0  0  0  0  0  0  0
   61.1850   32.3340   47.9380 C   0  0  0  0  0  0  0  0  0  0  0  0
   62.0350   32.0815   48.5889 H   0  0  0  0  0  0  0  0  0  0  0  0
   60.5700   33.5860   48.0540 C   0  0  0  0  0  0  0  0  0  0  0  0
   61.0630   34.4860   49.0100 O   0  0  0  0  0  0  0  0  0  0  0  0
   62.2820   34.3080   49.7260 C   0  0  0  0  0  0  0  0  0  0  0  0
   62.0800   34.3375   50.8069 H   0  0  0  0  0  0  0  0  0  0  0  0
   62.7237   33.3358   49.4619 H   0  0  0  0  0  0  0  0  0  0  0  0
   62.9833   35.1133   49.4619 H   0  0  0  0  0  0  0  0  0  0  0  0
   59.4880   33.9000   47.2070 C   0  0  0  0  0  0  0  0  0  0  0  0
   58.9992   34.8824   47.2835 H   0  0  0  0  0  0  0  0  0  0  0  0
   59.0340   32.9670   46.2700 C   0  0  0  0  0  0  0  0  0  0  0  0
   58.2040   33.2284   45.5971 H   0  0  0  0  0  0  0  0  0  0  0  0
   56.8760   30.9110   44.5920 C   0  0  0  0  0  0  0  0  0  0  0  0
   56.9648   31.9670   44.2970 H   0  0  0  0  0  0  0  0  0  0  0  0
  1  2  1  0
  2  3  1  0
  3  4  1  0
  4  5  2  0
  5  6  1  0
  5  7  1  0
  7  8  1  0
  8  9  1  0
  9 10  1  0
 10 11  1  0
 10 12  2  0
 12 13  1  0
 13 14  1  0
 13 15  1  0
 13 16  1  0
 16 17  1  0
 16 18  1  0
 18 19  1  0
 18 20  1  0
 18 21  1  0
 16 22  1  0
 22 23  1  0
 22 24  1  0
 22 25  1  0
 12 26  1  0
 26 27  1  0
  7 28  2  0
 28 29  1  0
 28 30  1  0
 30 31  1  0
 30 32  2  0
 32 33  1  0
 33 34  2  0
 34 35  1  0
 35 36  2  0
 36 37  1  0
 36 38  1  0
 38 39  1  0
 38 40  2  0
 40 41  1  0
 41 42  1  0
 42 43  1  0
 42 44  1  0
 42 45  1  0
 40 46  1  0
 46 47  1  0
 46 48  2  0
 48 49  1  0
 33 50  1  0
 50 51  1  0
 50  2  2  0
 32  4  1  0
 48 35  1  0
 26  8  2  0
M  CHG  2   3  -1  16   1
M  END
>  <UniqueID>  (13) 
12

>  <SMILES>  (13) 
COc1ccc(/N=c2\cc[n-]c3cc(-c4cc(C[NH+](C)C)cs4)ccc23)cc1

>  <Energy>  (13) 
98.33073843079696

>  <Genealogy>  (13) 
COc1ccc(N=c2cc[n-]c3cc(-c4cc(C[NH+](C)C)cs4)ccc23)cc1 (protonated)
COc1ccc(/N=c2\cc[n-]c3cc(-c4cc(C[NH+](C)C)cs4)ccc23)cc1 (cis-trans isomerization)
COc1ccc(/N=c2\cc[n-]c3cc(-c4cc(C[NH+](C)C)cs4)ccc23)cc1 (3D coordinates assigned)
COc1ccc(/N=c2\cc[n-]c3cc(-c4cc(C[NH+](C)C)cs4)ccc23)cc1 (optimized conformer: 98.33073843079696 kcal/mol)

>  <smiles>  (13) 
COc1ccc(N=c2cc[nH]c3cc(-c4cc(CN(C)C)cs4)ccc23)cc1

>  <score_type>  (13) 
oracle

>  <origin>  (13) 
adg

>  <m_score__min__energy>  (13) 
-8.3000000000000007

>  <m_primary>  (13) 
energy

$$$$
13:0
     RDKit          3D

 52 55  0  0  0  0  0  0  0  0999 V2000
   60.0000   21.8860   44.3150 C   0  0  0  0  0  0  0  0  0  0  0  0
   59.9920   22.6080   45.5260 O   0  0  0  0  0  0  0  0  0  0  0  0
   59.0470   23.6240   45.6530 C   0  0  0  0  0  0  0  0  0  0  0  0
   59.4360   24.9550   45.7840 C   0  0  0  0  0  0  0  0  0  0  0  0
   58.4940   25.9610   45.9110 C   0  0  0  0  0  0  0  0  0  0  0  0
   58.8510   27.2640   46.0430 N   0  0  0  0  0  0  0  0  0  0  0  0
   57.9350   28.2410   46.1690 C   0  0  0  0  0  0  0  0  0  0  0  0
   58.3040   29.6300   46.3230 N   0  0  0  0  0  0  0  0  0  0  0  0
   57.7730   30.6010   45.4060 C   0  0  0  0  0  0  0  0  0  0  0  0
   58.5970   31.8340   45.2860 C   0  0  0  0  0  0  0  0  0  0  0  0
   59.6750   31.9650   46.2170 N   0  0  0  0  0  0  0  0  0  0  0  0
   60.2530   33.2880   46.3340 C   0  0  0  0  0  0  0  0  0  0  0  0
   59.8260   34.2310   45.6520 O   0  0  0  0  0  0  0  0  0  0  0  0
   61.3500   33.5450   47.2510 C   0  0  0  0  0  0  0  0  0  0  0  0
   62.6840   33.4150   46.9140 C   0  0  0  0  0  0  0  0  0  0  0  0
   63.7040   33.6800   47.8350 C   0  0  0  0  0  0  0  0  0  0  0  0
   63.3530   34.0830   49.1170 C   0  0  0  0  0  0  0  0  0  0  0  0
   62.0070   34.2120   49.4510 C   0  0  0  0  0  0  0  0  0  0  0  0
   61.0060   33.9500   48.5400 C   0  0  0  0  0  0  0  0  0  0  0  0
   60.2220   30.9170   47.0130 C   0  0  0  0  0  0  0  0  0  0  0  0
   59.1770   29.9250   47.4320 C   0  0  0  0  0  0  0  0  0  0  0  0
   56.6450   27.8530   46.1550 N   0  0  0  0  0  0  0  0  0  0  0  0
   56.2240   26.5870   46.0290 C   0  0  0  0  0  0  0  0  0  0  0  0
   54.9700   26.3160   46.0390 N   0  0  0  0  0  0  0  0  0  0  0  0
   57.1460   25.5940   45.9020 C   0  0  0  0  0  0  0  0  0  0  0  0
   56.7660   24.2740   45.7710 C   0  0  0  0  0  0  0  0  0  0  0  0
   57.6990   23.2680   45.6450 C   0  0  0  0  0  0  0  0  0  0  0  0
   57.3870   21.9290   45.5120 O   0  0  0  0  0  0  0  0  0  0  0  0
   56.8210   21.4910   44.2920 C   0  0  0  0  0  0  0  0  0  0  0  0
   60.0119   20.8075   44.5312 H   0  0  0  0  0  0  0  0  0  0  0  0
   59.0991   22.1336   43.7345 H   0  0  0  0  0  0  0  0  0  0  0  0
   60.8952   22.1535   43.7345 H   0  0  0  0  0  0  0  0  0  0  0  0
   60.5060   25.2100   45.7866 H   0  0  0  0  0  0  0  0  0  0  0  0
   59.8770   27.4430   46.0320 H   0  0  0  0  0  0  0  0  0  0  0  0
   57.7010   30.1350   44.4122 H   0  0  0  0  0  0  0  0  0  0  0  0
   56.7939   30.9097   45.8010 H   0  0  0  0  0  0  0  0  0  0  0  0
   59.0241   31.8552   44.2725 H   0  0  0  0  0  0  0  0  0  0  0  0
   57.9141   32.6677   45.5064 H   0  0  0  0  0  0  0  0  0  0  0  0
   62.9509   33.0951   45.8960 H   0  0  0  0  0  0  0  0  0  0  0  0
   64.7608   33.5715   47.5497 H   0  0  0  0  0  0  0  0  0  0  0  0
   64.1322   34.2987   49.8629 H   0  0  0  0  0  0  0  0  0  0  0  0
   61.7356   34.5312   50.4681 H   0  0  0  0  0  0  0  0  0  0  0  0
   59.9495   34.0591   48.8264 H   0  0  0  0  0  0  0  0  0  0  0  0
   60.9943   30.3942   46.4297 H   0  0  0  0  0  0  0  0  0  0  0  0
   60.6467   31.3674   47.9223 H   0  0  0  0  0  0  0  0  0  0  0  0
   59.6673   28.9987   47.7661 H   0  0  0  0  0  0  0  0  0  0  0  0
   58.5841   30.3510   48.2548 H   0  0  0  0  0  0  0  0  0  0  0  0
   54.3060   26.6980   46.7530 H   0  0  0  0  0  0  0  0  0  0  0  0
   55.6958   24.0195   45.7671 H   0  0  0  0  0  0  0  0  0  0  0  0
   55.9668   20.8300   44.5005 H   0  0  0  0  0  0  0  0  0  0  0  0
   56.4783   22.3615   43.7134 H   0  0  0  0  0  0  0  0  0  0  0  0
   57.5777   20.9409   43.7134 H   0  0  0  0  0  0  0  0  0  0  0  0
  1  2  1  0
  2  3  1  0
  3  4  2  0
  4  5  1  0
  5  6  1  0
  6  7  1  0
  7  8  1  0
  8  9  1  0
  9 10  1  0
 10 11  1  0
 11 12  1  0
 12 13  2  0
 12 14  1  0
 14 15  2  0
 15 16  1  0
 16 17  2  0
 17 18  1  0
 18 19  2  0
 11 20  1  0
 20 21  1  0
  7 22  2  0
 22 23  1  0
 23 24  2  3
 23 25  1  0
 25 26  1  0
 26 27  2  0
 27 28  1  0
 28 29  1  0
 27  3  1  0
 25  5  2  0
 21  8  1  0
 19 14  1  0
  1 30  1  0
  1 31  1  0
  1 32  1  0
  4 33  1  0
  6 34  1  0
  9 35  1  0
  9 36  1  0
 10 37  1  0
 10 38  1  0
 15 39  1  0
 16 40  1  0
 17 41  1  0
 18 42  1  0
 19 43  1  0
 20 44  1  0
 20 45  1  0
 21 46  1  0
 21 47  1  0
 24 48  1  0
 26 49  1  0
 29 50  1  0
 29 51  1  0
 29 52  1  0
M  END
>  <smiles>  (14) 
COc1cc2[nH]c(N3CCN(C(=O)c4ccccc4)CC3)nc(=N)c2cc1OC

>  <score_type>  (14) 
oracle

>  <origin>  (14) 
adg

>  <m_score__min__energy>  (14) 
-7.8700000000000001

>  <m_primary>  (14) 
energy

$$$$
14:0
     RDKit          3D

 61 64  0  0  0  0  0  0  0  0999 V2000
   56.6980   23.4090   48.2270 C   0  0  0  0  0  0  0  0  0  0  0  0
   56.1610   24.3710   47.3240 O   0  0  0  0  0  0  0  0  0  0  0  0
   56.8620   25.4870   46.8430 C   0  0  0  0  0  0  0  0  0  0  0  0
   58.2530   25.6390   47.0450 C   0  0  0  0  0  0  0  0  0  0  0  0
   58.8870   26.7770   46.5470 C   0  0  0  0  0  0  0  0  0  0  0  0
   58.1910   27.7370   45.8620 C   0  0  0  0  0  0  0  0  0  0  0  0
   56.8200   27.6140   45.6400 C   0  0  0  0  0  0  0  0  0  0  0  0
   56.1430   26.4790   46.1400 C   0  0  0  0  0  0  0  0  0  0  0  0
   54.7620   26.2990   45.9600 O   0  0  0  0  0  0  0  0  0  0  0  0
   54.1490   25.0620   45.6100 C   0  0  0  0  0  0  0  0  0  0  0  0
   59.0660   28.8450   45.4090 C   0  0  0  0  0  0  0  0  0  0  0  0
   60.4150   28.5570   46.1140 C   0  0  0  0  0  0  0  0  0  0  0  0
   60.7030   29.5780   47.1590 N   0  0  0  0  0  0  0  0  0  0  0  0
   59.7410   29.5100   48.2700 C   0  0  0  0  0  0  0  0  0  0  0  0
   60.2120   30.3890   49.4380 C   0  0  0  0  0  0  0  0  0  0  0  0
   60.5950   31.7750   49.0530 N   0  0  0  0  0  0  0  0  0  0  0  0
   59.5200   32.7890   49.2400 C   0  0  0  0  0  0  0  0  0  0  0  0
   59.7410   34.1340   48.5180 C   0  0  0  0  0  0  0  0  0  0  0  0
   58.6990   34.3700   47.4920 N   0  0  0  0  0  0  0  0  0  0  0  0
   59.2800   34.9590   46.2600 C   0  0  0  0  0  0  0  0  0  0  0  0
   59.6060   33.8760   45.2140 C   0  0  0  0  0  0  0  0  0  0  0  0
   58.4850   33.1020   44.8070 O   0  0  0  0  0  0  0  0  0  0  0  0
   57.4250   33.0950   45.7510 C   0  0  0  0  0  0  0  0  0  0  0  0
   57.9160   33.1400   47.2090 C   0  0  0  0  0  0  0  0  0  0  0  0
   61.3420   31.8760   47.7720 C   0  0  0  0  0  0  0  0  0  0  0  0
   60.7950   30.9640   46.6650 C   0  0  0  0  0  0  0  0  0  0  0  0
   60.3310   27.0990   46.6460 C   0  0  0  0  0  0  0  0  0  0  0  0
   56.5158   23.7354   49.2615 H   0  0  0  0  0  0  0  0  0  0  0  0
   56.2122   22.4366   48.0584 H   0  0  0  0  0  0  0  0  0  0  0  0
   57.7807   23.3121   48.0584 H   0  0  0  0  0  0  0  0  0  0  0  0
   58.8261   24.8719   47.5864 H   0  0  0  0  0  0  0  0  0  0  0  0
   56.2732   28.3895   45.0835 H   0  0  0  0  0  0  0  0  0  0  0  0
   53.8780   24.5152   46.5252 H   0  0  0  0  0  0  0  0  0  0  0  0
   53.2430   25.2565   45.0172 H   0  0  0  0  0  0  0  0  0  0  0  0
   54.8525   24.4589   45.0172 H   0  0  0  0  0  0  0  0  0  0  0  0
   59.1836   28.8303   44.3154 H   0  0  0  0  0  0  0  0  0  0  0  0
   58.6596   29.8374   45.6539 H   0  0  0  0  0  0  0  0  0  0  0  0
   61.2697   28.6347   45.4259 H   0  0  0  0  0  0  0  0  0  0  0  0
   58.7594   29.8643   47.9222 H   0  0  0  0  0  0  0  0  0  0  0  0
   59.6654   28.4680   48.6144 H   0  0  0  0  0  0  0  0  0  0  0  0
   59.3958   30.4498   50.1730 H   0  0  0  0  0  0  0  0  0  0  0  0
   61.1191   29.9144   49.8403 H   0  0  0  0  0  0  0  0  0  0  0  0
   61.2990   32.0520   49.7820 H   0  0  0  0  0  0  0  0  0  0  0  0
   58.5786   32.3567   48.8699 H   0  0  0  0  0  0  0  0  0  0  0  0
   59.5094   33.0222   50.3149 H   0  0  0  0  0  0  0  0  0  0  0  0
   59.7070   34.9477   49.2574 H   0  0  0  0  0  0  0  0  0  0  0  0
   60.7205   34.1038   48.0184 H   0  0  0  0  0  0  0  0  0  0  0  0
   58.5577   35.6671   45.8277 H   0  0  0  0  0  0  0  0  0  0  0  0
   60.2161   35.4694   46.5306 H   0  0  0  0  0  0  0  0  0  0  0  0
   60.0250   34.3701   44.3250 H   0  0  0  0  0  0  0  0  0  0  0  0
   60.3140   33.1810   45.6890 H   0  0  0  0  0  0  0  0  0  0  0  0
   56.7878   33.9729   45.5687 H   0  0  0  0  0  0  0  0  0  0  0  0
   56.8739   32.1522   45.6190 H   0  0  0  0  0  0  0  0  0  0  0  0
   57.0440   33.1115   47.8789 H   0  0  0  0  0  0  0  0  0  0  0  0
   58.5719   32.2726   47.3748 H   0  0  0  0  0  0  0  0  0  0  0  0
   61.2905   32.9173   47.4211 H   0  0  0  0  0  0  0  0  0  0  0  0
   62.3734   31.5520   47.9750 H   0  0  0  0  0  0  0  0  0  0  0  0
   59.7953   31.3121   46.3660 H   0  0  0  0  0  0  0  0  0  0  0  0
   61.4733   30.9966   45.7997 H   0  0  0  0  0  0  0  0  0  0  0  0
   60.9293   26.4180   46.0229 H   0  0  0  0  0  0  0  0  0  0  0  0
   60.7246   26.9924   47.6676 H   0  0  0  0  0  0  0  0  0  0  0  0
  1  2  1  0
  2  3  1  0
  3  4  2  0
  4  5  1  0
  5  6  2  0
  6  7  1  0
  7  8  2  0
  8  9  1  0
  9 10  1  0
  6 11  1  0
 11 12  1  0
 12 13  1  0
 13 14  1  0
 14 15  1  0
 15 16  1  0
 16 17  1  0
 17 18  1  0
 18 19  1  0
 19 20  1  0
 20 21  1  0
 21 22  1  0
 22 23  1  0
 23 24  1  0
 16 25  1  0
 25 26  1  0
 12 27  1  0
  8  3  1  0
 26 13  1  0
 27  5  1  0
 24 19  1  0
  1 28  1  0
  1 29  1  0
  1 30  1  0
  4 31  1  0
  7 32  1  0
 10 33  1  0
 10 34  1  0
 10 35  1  0
 11 36  1  0
 11 37  1  0
 12 38  1  0
 14 39  1  0
 14 40  1  0
 15 41  1  0
 15 42  1  0
 16 43  1  0
 17 44  1  0
 17 45  1  0
 18 46  1  0
 18 47  1  0
 20 48  1  0
 20 49  1  0
 21 50  1  0
 21 51  1  0
 23 52  1  0
 23 53  1  0
 24 54  1  0
 24 55  1  0
 25 56  1  0
 25 57  1  0
 26 58  1  0
 26 59  1  0
 27 60  1  0
 27 61  1  0
M  CHG  1  16   1
M  END
>  <UniqueID>  (15) 
13

>  <SMILES>  (15) 
COc1cc2c(cc1OC)CC(N1CC[NH+](CCN3CCOCC3)CC1)C2

>  <Energy>  (15) 
101.06183706242027

>  <Genealogy>  (15) 
COc1cc2c(cc1OC)CC(N1CC[NH+](CCN3CCOCC3)CC1)C2 (protonated)
COc1cc2c(cc1OC)CC(N1CC[NH+](CCN3CCOCC3)CC1)C2 (3D coordinates assigned)
COc1cc2c(cc1OC)CC(N1CC[NH+](CCN3CCOCC3)CC1)C2 (nonaromatic ring conformer: 101.06183706242027 kcal/mol)

>  <smiles>  (15) 
COc1cc2c(cc1OC)CC(N1CCN(CCN3CCOCC3)CC1)C2

>  <score_type>  (15) 
oracle

>  <origin>  (15) 
adg

>  <m_score__min__energy>  (15) 
-6.46

>  <m_primary>  (15) 
energy

$$$$
15:0
     RDKit          3D

 20 21  0  0  0  0  0  0  0  0999 V2000
   57.5220   32.2000   41.5650 C   0  0  0  0  0  0  0  0  0  0  0  0
   57.9020   31.8300   42.8850 O   0  0  0  0  0  0  0  0  0  0  0  0
   57.3700   30.7360   43.5850 C   0  0  0  0  0  0  0  0  0  0  0  0
   56.0690   30.7490   44.1250 C   0  0  0  0  0  0  0  0  0  0  0  0
   55.6050   29.6610   44.7940 N   0  0  0  0  0  0  0  0  0  0  0  0
   56.3740   28.5550   44.9530 C   0  0  0  0  0  0  0  0  0  0  0  0
   55.8930   27.4750   45.6260 N   0  0  0  0  0  0  0  0  0  0  0  0
   56.6430   26.3540   45.8000 C   0  0  0  0  0  0  0  0  0  0  0  0
   56.1650   25.3730   46.4270 O   0  0  0  0  0  0  0  0  0  0  0  0
   57.9420   26.2900   45.2830 C   0  0  0  0  0  0  0  0  0  0  0  0
   58.4610   27.3870   44.5880 C   0  0  0  0  0  0  0  0  0  0  0  0
   57.6760   28.5330   44.4170 C   0  0  0  0  0  0  0  0  0  0  0  0
   58.1410   29.6240   43.7460 N   0  0  0  0  0  0  0  0  0  0  0  0
   56.7346   32.9667   41.6114 H   0  0  0  0  0  0  0  0  0  0  0  0
   58.3954   32.6032   41.0314 H   0  0  0  0  0  0  0  0  0  0  0  0
   57.1422   31.3162   41.0314 H   0  0  0  0  0  0  0  0  0  0  0  0
   55.4308   31.6369   44.0055 H   0  0  0  0  0  0  0  0  0  0  0  0
   58.5500   25.3839   45.4222 H   0  0  0  0  0  0  0  0  0  0  0  0
   59.4810   27.3493   44.1778 H   0  0  0  0  0  0  0  0  0  0  0  0
   59.1070   29.6170   43.3450 H   0  0  0  0  0  0  0  0  0  0  0  0
  1  2  1  0
  2  3  1  0
  3  4  2  0
  4  5  1  0
  5  6  2  0
  6  7  1  0
  7  8  1  0
  8  9  2  0
  8 10  1  0
 10 11  2  0
 11 12  1  0
 12 13  2  0
 13  3  1  0
 12  6  1  0
  1 14  1  0
  1 15  1  0
  1 16  1  0
  4 17  1  0
 10 18  1  0
 11 19  1  0
 13 20  1  0
M  CHG  2   7  -1  13   1
M  END
>  <UniqueID>  (16) 
14

>  <SMILES>  (16) 
COc1cnc2[n-]c(=O)ccc2[nH+]1

>  <Energy>  (16) 
24.681734482748375

>  <Genealogy>  (16) 
COc1cnc2[n-]c(=O)ccc2[nH+]1 (protonated)
COc1cnc2[n-]c(=O)ccc2[nH+]1 (3D coordinates assigned)
COc1cnc2[n-]c(=O)ccc2[nH+]1 (optimized conformer: 24.681734482748375 kcal/mol)

>  <smiles>  (16) 
COc1cnc2[nH]c(=O)ccc2n1

>  <score_type>  (16) 
oracle

>  <origin>  (16) 
adg

>  <m_score__min__energy>  (16) 
-5.79

>  <m_primary>  (16) 
energy

$$$$
16:0
     RDKit          3D

 35 37  0  0  0  0  0  0  0  0999 V2000
   59.0980   26.8550   47.5560 C   0  0  0  0  0  0  0  0  0  0  0  0
   58.2810   28.0170   47.8730 N   0  0  0  0  0  0  0  0  0  0  0  0
   58.8380   29.3140   48.1190 C   0  0  0  0  0  0  0  0  0  0  0  0
   59.0630   29.6820   49.3040 O   0  0  0  0  0  0  0  0  0  0  0  0
   59.1720   30.1790   47.0150 N   0  0  0  0  0  0  0  0  0  0  0  0
   60.2500   31.1160   47.1150 C   0  0  0  0  0  0  0  0  0  0  0  0
   61.5480   30.6540   47.3920 C   0  0  0  0  0  0  0  0  0  0  0  0
   62.6090   31.5520   47.5110 C   0  0  0  0  0  0  0  0  0  0  0  0
   62.3850   32.9210   47.3570 C   0  0  0  0  0  0  0  0  0  0  0  0
   63.7170   34.0510   47.5190 Cl  0  0  0  0  0  0  0  0  0  0  0  0
   61.0980   33.3910   47.0770 C   0  0  0  0  0  0  0  0  0  0  0  0
   60.0240   32.4960   46.9320 C   0  0  0  0  0  0  0  0  0  0  0  0
   58.6760   33.0570   46.6830 C   0  0  0  0  0  0  0  0  0  0  0  0
   57.7090   32.4930   45.9450 C   0  0  0  0  0  0  0  0  0  0  0  0
   57.7980   31.1970   45.2330 C   0  0  0  0  0  0  0  0  0  0  0  0
   57.1010   31.0570   44.0230 C   0  0  0  0  0  0  0  0  0  0  0  0
   57.1060   29.8440   43.3310 C   0  0  0  0  0  0  0  0  0  0  0  0
   57.7850   28.7370   43.8540 C   0  0  0  0  0  0  0  0  0  0  0  0
   57.8260   27.4450   43.0920 C   0  0  0  0  0  0  0  0  0  0  0  0
   58.4790   28.8660   45.0640 C   0  0  0  0  0  0  0  0  0  0  0  0
   58.4770   30.0830   45.7660 C   0  0  0  0  0  0  0  0  0  0  0  0
   59.4337   26.3775   48.4883 H   0  0  0  0  0  0  0  0  0  0  0  0
   58.5042   26.1381   46.9700 H   0  0  0  0  0  0  0  0  0  0  0  0
   59.9736   27.1712   46.9700 H   0  0  0  0  0  0  0  0  0  0  0  0
   61.7288   29.5761   47.5159 H   0  0  0  0  0  0  0  0  0  0  0  0
   63.6220   31.1812   47.7262 H   0  0  0  0  0  0  0  0  0  0  0  0
   60.9245   34.4719   46.9692 H   0  0  0  0  0  0  0  0  0  0  0  0
   58.4466   34.0275   47.1471 H   0  0  0  0  0  0  0  0  0  0  0  0
   56.7609   33.0442   45.8603 H   0  0  0  0  0  0  0  0  0  0  0  0
   56.5440   31.9131   43.6147 H   0  0  0  0  0  0  0  0  0  0  0  0
   56.5746   29.7580   42.3717 H   0  0  0  0  0  0  0  0  0  0  0  0
   57.8527   26.6029   43.7992 H   0  0  0  0  0  0  0  0  0  0  0  0
   56.9300   27.3640   42.4591 H   0  0  0  0  0  0  0  0  0  0  0  0
   58.7254   27.4210   42.4591 H   0  0  0  0  0  0  0  0  0  0  0  0
   59.0314   28.0052   45.4688 H   0  0  0  0  0  0  0  0  0  0  0  0
  1  2  1  0
  2  3  1  0
  3  4  2  0
  3  5  1  0
  5  6  1  0
  6  7  2  0
  7  8  1  0
  8  9  2  0
  9 10  1  0
  9 11  1  0
 11 12  2  0
 12 13  1  0
 13 14  2  0
 14 15  1  0
 15 16  2  0
 16 17  1  0
 17 18  2  0
 18 19  1  0
 18 20  1  0
 20 21  2  0
 21  5  1  0
 12  6  1  0
 21 15  1  0
  1 22  1  0
  1 23  1  0
  1 24  1  0
  7 25  1  0
  8 26  1  0
 11 27  1  0
 13 28  1  0
 14 29  1  0
 16 30  1  0
 17 31  1  0
 19 32  1  0
 19 33  1  0
 19 34  1  0
 20 35  1  0
M  CHG  1   2  -1
M  END
>  <UniqueID>  (17) 
15

>  <SMILES>  (17) 
C[N-]C(=O)N1c2ccc(Cl)cc2C=Cc2ccc(C)cc21

>  <Energy>  (17) 
56.44772432329124

>  <Genealogy>  (17) 
C[N-]C(=O)N1c2ccc(Cl)cc2C=Cc2ccc(C)cc21 (protonated)
C[N-]C(=O)N1c2ccc(Cl)cc2C=Cc2ccc(C)cc21 (3D coordinates assigned)
C[N-]C(=O)N1c2ccc(Cl)cc2C=Cc2ccc(C)cc21 (nonaromatic ring conformer: 56.44772432329124 kcal/mol)

>  <smiles>  (17) 
CNC(=O)N1c2ccc(Cl)cc2C=Cc2ccc(C)cc21

>  <score_type>  (17) 
oracle

>  <origin>  (17) 
adg

>  <m_score__min__energy>  (17) 
-6.79

>  <m_primary>  (17) 
energy

$$$$
17:0
     RDKit          3D

 53 57  0  0  0  0  0  0  0  0999 V2000
   56.6290   26.6440   46.0410 C   0  0  0  0  0  0  0  0  0  0  0  0
   55.9280   27.8090   45.6180 O   0  0  0  0  0  0  0  0  0  0  0  0
   56.5460   28.9620   45.1120 C   0  0  0  0  0  0  0  0  0  0  0  0
   57.7740   29.4400   45.6030 C   0  0  0  0  0  0  0  0  0  0  0  0
   58.3300   30.6160   45.0890 C   0  0  0  0  0  0  0  0  0  0  0  0
   57.6570   31.3460   44.0980 C   0  0  0  0  0  0  0  0  0  0  0  0
   58.2020   32.6730   43.6250 C   0  0  0  0  0  0  0  0  0  0  0  0
   58.0090   33.7700   44.6020 N   0  0  0  0  0  0  0  0  0  0  0  0
   57.1460   33.4660   45.7700 C   0  0  0  0  0  0  0  0  0  0  0  0
   57.8310   33.7220   47.1250 C   0  0  0  0  0  0  0  0  0  0  0  0
   59.3090   33.3280   47.0490 C   0  0  0  0  0  0  0  0  0  0  0  0
   59.9980   33.3330   48.3980 C   0  0  0  0  0  0  0  0  0  0  0  0
   59.2670   33.5090   49.6010 C   0  0  0  0  0  0  0  0  0  0  0  0
   59.9350   33.5470   50.8340 C   0  0  0  0  0  0  0  0  0  0  0  0
   61.3170   33.4240   50.8160 C   0  0  0  0  0  0  0  0  0  0  0  0
   62.1420   33.4510   51.8940 N   0  0  0  0  0  0  0  0  0  0  0  0
   63.3640   33.3100   51.3220 C   0  0  0  0  0  0  0  0  0  0  0  0
   64.6010   33.2740   51.9610 C   0  0  0  0  0  0  0  0  0  0  0  0
   65.7500   33.1270   51.1590 C   0  0  0  0  0  0  0  0  0  0  0  0
   65.6370   33.0210   49.7520 C   0  0  0  0  0  0  0  0  0  0  0  0
   64.3750   33.0610   49.1310 C   0  0  0  0  0  0  0  0  0  0  0  0
   63.2620   33.2060   49.9580 C   0  0  0  0  0  0  0  0  0  0  0  0
   61.9640   33.2760   49.6450 N   0  0  0  0  0  0  0  0  0  0  0  0
   61.3630   33.2330   48.4590 N   0  0  0  0  0  0  0  0  0  0  0  0
   60.0510   34.2220   46.0410 C   0  0  0  0  0  0  0  0  0  0  0  0
   59.1750   34.6500   44.8410 C   0  0  0  0  0  0  0  0  0  0  0  0
   56.4590   30.8370   43.5700 C   0  0  0  0  0  0  0  0  0  0  0  0
   55.9080   29.6580   44.0790 C   0  0  0  0  0  0  0  0  0  0  0  0
   56.6507   26.6080   47.1402 H   0  0  0  0  0  0  0  0  0  0  0  0
   56.1194   25.7490   45.6548 H   0  0  0  0  0  0  0  0  0  0  0  0
   57.6585   26.6751   45.6548 H   0  0  0  0  0  0  0  0  0  0  0  0
   58.2997   28.8865   46.3950 H   0  0  0  0  0  0  0  0  0  0  0  0
   59.3013   30.9707   45.4643 H   0  0  0  0  0  0  0  0  0  0  0  0
   59.2797   32.5600   43.4360 H   0  0  0  0  0  0  0  0  0  0  0  0
   57.6470   32.9466   42.7156 H   0  0  0  0  0  0  0  0  0  0  0  0
   56.2460   34.0956   45.7108 H   0  0  0  0  0  0  0  0  0  0  0  0
   56.9091   32.3927   45.7257 H   0  0  0  0  0  0  0  0  0  0  0  0
   57.7514   34.7897   47.3772 H   0  0  0  0  0  0  0  0  0  0  0  0
   57.3360   33.1172   47.8991 H   0  0  0  0  0  0  0  0  0  0  0  0
   59.3434   32.2865   46.6966 H   0  0  0  0  0  0  0  0  0  0  0  0
   58.1727   33.6160   49.5669 H   0  0  0  0  0  0  0  0  0  0  0  0
   59.3846   33.6696   51.7785 H   0  0  0  0  0  0  0  0  0  0  0  0
   64.6783   33.3575   53.0551 H   0  0  0  0  0  0  0  0  0  0  0  0
   66.7434   33.0943   51.6303 H   0  0  0  0  0  0  0  0  0  0  0  0
   66.5432   32.9064   49.1391 H   0  0  0  0  0  0  0  0  0  0  0  0
   64.2709   32.9812   48.0388 H   0  0  0  0  0  0  0  0  0  0  0  0
   61.9300   33.1290   47.5870 H   0  0  0  0  0  0  0  0  0  0  0  0
   60.3934   35.1274   46.5636 H   0  0  0  0  0  0  0  0  0  0  0  0
   60.8885   33.6331   45.6388 H   0  0  0  0  0  0  0  0  0  0  0  0
   58.8063   35.6693   45.0281 H   0  0  0  0  0  0  0  0  0  0  0  0
   59.8101   34.5868   43.9451 H   0  0  0  0  0  0  0  0  0  0  0  0
   55.9520   31.3692   42.7517 H   0  0  0  0  0  0  0  0  0  0  0  0
   54.9645   29.2736   43.6641 H   0  0  0  0  0  0  0  0  0  0  0  0
  1  2  1  0
  2  3  1  0
  3  4  2  0
  4  5  1  0
  5  6  2  0
  6  7  1  0
  7  8  1  0
  8  9  1  0
  9 10  1  0
 10 11  1  0
 11 12  1  0
 12 13  1  0
 13 14  2  0
 14 15  1  0
 15 16  2  0
 16 17  1  0
 17 18  2  0
 18 19  1  0
 19 20  2  0
 20 21  1  0
 21 22  2  0
 22 23  1  0
 23 24  1  0
 11 25  1  0
 25 26  1  0
  6 27  1  0
 27 28  2  0
 28  3  1  0
 26  8  1  0
 24 12  2  0
 23 15  1  0
 22 17  1  0
  1 29  1  0
  1 30  1  0
  1 31  1  0
  4 32  1  0
  5 33  1  0
  7 34  1  0
  7 35  1  0
  9 36  1  0
  9 37  1  0
 10 38  1  0
 10 39  1  0
 11 40  1  0
 13 41  1  0
 14 42  1  0
 18 43  1  0
 19 44  1  0
 20 45  1  0
 21 46  1  0
 24 47  1  0
 25 48  1  0
 25 49  1  0
 26 50  1  0
 26 51  1  0
 27 52  1  0
 28 53  1  0
M  CHG  1  24   1
M  END
>  <UniqueID>  (18) 
16

>  <SMILES>  (18) 
COc1ccc(CN2CCC(c3ccc4nc5ccccc5n4[nH+]3)CC2)cc1

>  <Energy>  (18) 
114.39298869760086

>  <Genealogy>  (18) 
COc1ccc(CN2CCC(c3ccc4nc5ccccc5n4[nH+]3)CC2)cc1 (protonated)
COc1ccc(CN2CCC(c3ccc4nc5ccccc5n4[nH+]3)CC2)cc1 (3D coordinates assigned)
COc1ccc(CN2CCC(c3ccc4nc5ccccc5n4[nH+]3)CC2)cc1 (nonaromatic ring conformer: 114.39298869760086 kcal/mol)

>  <smiles>  (18) 
COc1ccc(CN2CCC(c3ccc4nc5ccccc5n4n3)CC2)cc1

>  <score_type>  (18) 
oracle

>  <origin>  (18) 
adg

>  <m_score__min__energy>  (18) 
-7.9299999999999997

>  <m_primary>  (18) 
energy

$$$$
18:0
     RDKit          3D

 41 43  0  0  0  0  0  0  0  0999 V2000
   56.5280   29.7420   42.7990 C   0  0  0  0  0  0  0  0  0  0  0  0
   55.9700   30.1830   44.1470 C   0  0  0  0  0  0  0  0  0  0  0  0
   56.9180   31.0670   44.8300 N   0  0  0  0  0  0  0  0  0  0  0  0
   56.6480   32.3830   44.8710 N   0  0  0  0  0  0  0  0  0  0  0  0
   57.4470   33.2540   45.4970 N   0  0  0  0  0  0  0  0  0  0  0  0
   58.5570   32.7890   46.1160 C   0  0  0  0  0  0  0  0  0  0  0  0
   59.5310   33.4630   46.8230 C   0  0  0  0  0  0  0  0  0  0  0  0
   59.6080   34.9450   47.0370 C   0  0  0  0  0  0  0  0  0  0  0  0
   60.4580   32.5610   47.2380 N   0  0  0  0  0  0  0  0  0  0  0  0
   61.6570   32.8620   47.9690 C   0  0  0  0  0  0  0  0  0  0  0  0
   62.8970   32.7890   47.3250 C   0  0  0  0  0  0  0  0  0  0  0  0
   64.0720   33.0770   48.0220 C   0  0  0  0  0  0  0  0  0  0  0  0
   64.0270   33.4470   49.3710 C   0  0  0  0  0  0  0  0  0  0  0  0
   65.2350   33.7250   50.0270 O   0  0  0  0  0  0  0  0  0  0  0  0
   66.3060   32.7980   50.1670 C   0  0  0  0  0  0  0  0  0  0  0  0
   62.7780   33.5290   50.0190 C   0  0  0  0  0  0  0  0  0  0  0  0
   61.5980   33.2410   49.3220 C   0  0  0  0  0  0  0  0  0  0  0  0
   60.0560   33.3930   50.1550 Cl  0  0  0  0  0  0  0  0  0  0  0  0
   60.0630   31.3340   46.7990 C   0  0  0  0  0  0  0  0  0  0  0  0
   60.8090   30.0510   47.0210 C   0  0  0  0  0  0  0  0  0  0  0  0
   58.8720   31.4690   46.1060 C   0  0  0  0  0  0  0  0  0  0  0  0
   58.0380   30.5680   45.4540 C   0  0  0  0  0  0  0  0  0  0  0  0
   58.3020   29.3350   45.4420 O   0  0  0  0  0  0  0  0  0  0  0  0
   57.3819   29.0672   42.9587 H   0  0  0  0  0  0  0  0  0  0  0  0
   55.7455   29.2156   42.2327 H   0  0  0  0  0  0  0  0  0  0  0  0
   56.8593   30.6249   42.2327 H   0  0  0  0  0  0  0  0  0  0  0  0
   55.0234   30.7204   43.9887 H   0  0  0  0  0  0  0  0  0  0  0  0
   55.8008   29.2928   44.7706 H   0  0  0  0  0  0  0  0  0  0  0  0
   57.2070   34.2700   45.5010 H   0  0  0  0  0  0  0  0  0  0  0  0
   59.6192   35.1596   48.1158 H   0  0  0  0  0  0  0  0  0  0  0  0
   60.5276   35.3347   46.5761 H   0  0  0  0  0  0  0  0  0  0  0  0
   58.7337   35.4279   46.5761 H   0  0  0  0  0  0  0  0  0  0  0  0
   62.9464   32.5032   46.2639 H   0  0  0  0  0  0  0  0  0  0  0  0
   65.0415   33.0125   47.5064 H   0  0  0  0  0  0  0  0  0  0  0  0
   66.5048   32.6260   51.2351 H   0  0  0  0  0  0  0  0  0  0  0  0
   66.0327   31.8467   49.6870 H   0  0  0  0  0  0  0  0  0  0  0  0
   67.2082   33.2049   49.6870 H   0  0  0  0  0  0  0  0  0  0  0  0
   62.7298   33.8209   51.0785 H   0  0  0  0  0  0  0  0  0  0  0  0
   60.9142   29.8701   48.1009 H   0  0  0  0  0  0  0  0  0  0  0  0
   60.2534   29.2197   46.5624 H   0  0  0  0  0  0  0  0  0  0  0  0
   61.8063   30.1226   46.5624 H   0  0  0  0  0  0  0  0  0  0  0  0
  1  2  1  0
  2  3  1  0
  3  4  1  0
  4  5  2  0
  5  6  1  0
  6  7  2  0
  7  8  1  0
  7  9  1  0
  9 10  1  0
 10 11  2  0
 11 12  1  0
 12 13  2  0
 13 14  1  0
 14 15  1  0
 13 16  1  0
 16 17  2  0
 17 18  1  0
  9 19  1  0
 19 20  1  0
 19 21  2  0
 21 22  1  0
 22 23  2  0
 22  3  1  0
 21  6  1  0
 17 10  1  0
  1 24  1  0
  1 25  1  0
  1 26  1  0
  2 27  1  0
  2 28  1  0
  5 29  1  0
  8 30  1  0
  8 31  1  0
  8 32  1  0
 11 33  1  0
 12 34  1  0
 15 35  1  0
 15 36  1  0
 15 37  1  0
 16 38  1  0
 20 39  1  0
 20 40  1  0
 20 41  1  0
M  CHG  1   5   1
M  END
>  <UniqueID>  (19) 
17

>  <SMILES>  (19) 
CCn1n[nH+]c2c(C)n(-c3ccc(OC)cc3Cl)c(C)c2c1=O

>  <Energy>  (19) 
83.86625414411732

>  <Genealogy>  (19) 
CCn1n[nH+]c2c(C)n(-c3ccc(OC)cc3Cl)c(C)c2c1=O (protonated)
CCn1n[nH+]c2c(C)n(-c3ccc(OC)cc3Cl)c(C)c2c1=O (3D coordinates assigned)
CCn1n[nH+]c2c(C)n(-c3ccc(OC)cc3Cl)c(C)c2c1=O (optimized conformer: 83.86625414411732 kcal/mol)

>  <smiles>  (19) 
CCn1nnc2c(C)n(-c3ccc(OC)cc3Cl)c(C)c2c1=O

>  <score_type>  (19) 
oracle

>  <origin>  (19) 
adg

>  <m_score__min__energy>  (19) 
-5.7699999999999996

>  <m_primary>  (19) 
energy

$$$$
19:0
     RDKit          3D

 42 44  0  0  0  0  0  0  0  0999 V2000
   56.7450   33.4610   47.3840 O   0  0  0  0  0  0  0  0  0  0  0  0
   57.7310   33.3550   46.6020 C   0  0  0  0  0  0  0  0  0  0  0  0
   57.6950   32.3310   45.5360 C   0  0  0  0  0  0  0  0  0  0  0  0
   57.6000   32.6460   44.1810 C   0  0  0  0  0  0  0  0  0  0  0  0
   57.5760   31.2030   43.3210 S   0  0  0  0  0  0  0  0  0  0  0  0
   57.6840   30.2360   44.6960 C   0  0  0  0  0  0  0  0  0  0  0  0
   57.7140   28.7550   44.7170 C   0  0  0  0  0  0  0  0  0  0  0  0
   58.0330   28.0390   43.5480 C   0  0  0  0  0  0  0  0  0  0  0  0
   58.0640   26.6420   43.5600 C   0  0  0  0  0  0  0  0  0  0  0  0
   57.7780   25.9440   44.7350 C   0  0  0  0  0  0  0  0  0  0  0  0
   57.4590   26.6430   45.9020 C   0  0  0  0  0  0  0  0  0  0  0  0
   57.4270   28.0410   45.8960 C   0  0  0  0  0  0  0  0  0  0  0  0
   57.7380   30.9980   45.8110 N   0  0  0  0  0  0  0  0  0  0  0  0
   58.9070   34.1790   46.8060 N   0  0  0  0  0  0  0  0  0  0  0  0
   59.9880   33.7200   45.9010 C   0  0  0  0  0  0  0  0  0  0  0  0
   61.3670   34.1890   46.3920 C   0  0  0  0  0  0  0  0  0  0  0  0
   61.6850   33.6950   47.7540 N   0  0  0  0  0  0  0  0  0  0  0  0
   62.8360   32.3820   47.6970 S   0  0  1  0  0  5  0  0  0  0  0  0
   62.1810   31.1450   47.1450 O   0  0  0  0  0  0  0  0  0  0  0  0
   64.1510   32.7980   46.7330 O   0  0  0  0  0  0  0  0  0  0  0  0
   63.4080   32.0250   49.3450 C   0  0  0  0  0  0  0  0  0  0  0  0
   64.8160   33.0420   49.7300 Cl  0  0  0  0  0  0  0  0  0  0  0  0
   60.4960   33.2910   48.5350 C   0  0  0  0  0  0  0  0  0  0  0  0
   59.3070   34.2150   48.2410 C   0  0  0  0  0  0  0  0  0  0  0  0
   57.5498   33.6577   43.7521 H   0  0  0  0  0  0  0  0  0  0  0  0
   58.2594   28.5826   42.6189 H   0  0  0  0  0  0  0  0  0  0  0  0
   58.3143   26.0909   42.6415 H   0  0  0  0  0  0  0  0  0  0  0  0
   57.8038   24.8443   44.7419 H   0  0  0  0  0  0  0  0  0  0  0  0
   57.2326   26.0926   46.8271 H   0  0  0  0  0  0  0  0  0  0  0  0
   57.1761   28.5861   46.8179 H   0  0  0  0  0  0  0  0  0  0  0  0
   58.6730   35.1650   46.5400 H   0  0  0  0  0  0  0  0  0  0  0  0
   59.9776   32.6208   45.8596 H   0  0  0  0  0  0  0  0  0  0  0  0
   59.8108   34.1497   44.9040 H   0  0  0  0  0  0  0  0  0  0  0  0
   62.1337   33.8194   45.6951 H   0  0  0  0  0  0  0  0  0  0  0  0
   61.3510   35.2882   46.4312 H   0  0  0  0  0  0  0  0  0  0  0  0
   64.5500   31.9360   46.4510 H   0  0  0  0  0  0  0  0  0  0  0  0
   62.6014   32.2314   50.0639 H   0  0  0  0  0  0  0  0  0  0  0  0
   63.6984   30.9658   49.4064 H   0  0  0  0  0  0  0  0  0  0  0  0
   60.2242   32.2588   48.2690 H   0  0  0  0  0  0  0  0  0  0  0  0
   60.7387   33.3610   49.6056 H   0  0  0  0  0  0  0  0  0  0  0  0
   58.4514   33.8976   48.8552 H   0  0  0  0  0  0  0  0  0  0  0  0
   59.6121   35.2443   48.4806 H   0  0  0  0  0  0  0  0  0  0  0  0
  1  2  2  0
  2  3  1  0
  3  4  2  0
  4  5  1  0
  5  6  1  0
  6  7  1  0
  7  8  2  0
  8  9  1  0
  9 10  2  0
 10 11  1  0
 11 12  2  0
  6 13  2  0
  2 14  1  0
 14 15  1  0
 15 16  1  0
 16 17  1  0
 17 18  1  0
 18 19  2  0
 18 20  1  6
 18 21  1  0
 21 22  1  0
 17 23  1  0
 23 24  1  0
 13  3  1  0
 24 14  1  0
 12  7  1  0
  4 25  1  0
  8 26  1  0
  9 27  1  0
 10 28  1  0
 11 29  1  0
 12 30  1  0
 14 31  1  0
 15 32  1  0
 15 33  1  0
 16 34  1  0
 16 35  1  0
 20 36  1  0
 21 37  1  0
 21 38  1  0
 23 39  1  0
 23 40  1  0
 24 41  1  0
 24 42  1  0
M  CHG  2  14   1  18   1
M  END
>  <UniqueID>  (20) 
18

>  <SMILES>  (20) 
O=C(c1csc(-c2ccccc2)n1)[NH+]1CCN([S@@+](=O)(O)CCl)CC1

>  <Energy>  (20) 
81.96554239866151

>  <Genealogy>  (20) 
O=C(c1csc(-c2ccccc2)n1)[NH+]1CCN([S+](=O)(O)CCl)CC1 (protonated)
O=C(c1csc(-c2ccccc2)n1)[NH+]1CCN([S@@+](=O)(O)CCl)CC1 (chirality)
O=C(c1csc(-c2ccccc2)n1)[NH+]1CCN([S@@+](=O)(O)CCl)CC1 (3D coordinates assigned)
O=C(c1csc(-c2ccccc2)n1)[NH+]1CCN([S@@+](=O)(O)CCl)CC1 (nonaromatic ring conformer: 81.96554239866151 kcal/mol)

>  <smiles>  (20) 
O=C(c1csc(-c2ccccc2)n1)N1CCN([S+](=O)([O-])CCl)CC1

>  <score_type>  (20) 
oracle

>  <origin>  (20) 
adg

>  <m_score__min__energy>  (20) 
-6.7400000000000002

>  <m_primary>  (20) 
energy

$$$$
20:0
     RDKit          3D

 44 45  0  0  0  0  0  0  0  0999 V2000
   56.6360   29.7990   43.3190 C   0  0  0  0  0  0  0  0  0  0  0  0
   56.6650   30.1280   44.7040 O   0  0  0  0  0  0  0  0  0  0  0  0
   57.4030   31.1870   45.2520 C   0  0  0  0  0  0  0  0  0  0  0  0
   58.4600   30.9820   46.1580 C   0  0  0  0  0  0  0  0  0  0  0  0
   59.1670   32.0710   46.6760 C   0  0  0  0  0  0  0  0  0  0  0  0
   58.8270   33.3850   46.3070 C   0  0  0  0  0  0  0  0  0  0  0  0
   59.5940   34.5750   46.8490 C   0  0  2  0  0  0  0  0  0  0  0  0
   59.6730   35.6920   45.7970 C   0  0  0  0  0  0  0  0  0  0  0  0
   60.9130   34.1640   47.3780 N   0  0  0  0  0  0  0  0  0  0  0  0
   62.0280   33.9890   46.4420 C   0  0  0  0  0  0  0  0  0  0  0  0
   61.1730   33.9680   48.7840 C   0  0  0  0  0  0  0  0  0  0  0  0
   60.2710   34.2120   49.6280 O   0  0  0  0  0  0  0  0  0  0  0  0
   62.4910   33.4660   49.2430 C   0  0  0  0  0  0  0  0  0  0  0  0
   63.2790   34.2700   50.0770 C   0  0  0  0  0  0  0  0  0  0  0  0
   64.5010   33.8460   50.4910 N   0  0  0  0  0  0  0  0  0  0  0  0
   64.9860   32.6350   50.1060 C   0  0  0  0  0  0  0  0  0  0  0  0
   66.3390   32.1860   50.5560 C   0  0  0  0  0  0  0  0  0  0  0  0
   64.2420   31.8360   49.2980 N   0  0  0  0  0  0  0  0  0  0  0  0
   63.0100   32.2090   48.8600 C   0  0  0  0  0  0  0  0  0  0  0  0
   62.2470   31.2560   47.9870 C   0  0  0  0  0  0  0  0  0  0  0  0
   57.7770   33.5830   45.3950 C   0  0  0  0  0  0  0  0  0  0  0  0
   57.0720   32.4930   44.8760 C   0  0  0  0  0  0  0  0  0  0  0  0
   56.5400   28.7094   43.2029 H   0  0  0  0  0  0  0  0  0  0  0  0
   55.7781   30.2956   42.8420 H   0  0  0  0  0  0  0  0  0  0  0  0
   57.5675   30.1379   42.8420 H   0  0  0  0  0  0  0  0  0  0  0  0
   58.7313   29.9597   46.4601 H   0  0  0  0  0  0  0  0  0  0  0  0
   59.9962   31.8989   47.3780 H   0  0  0  0  0  0  0  0  0  0  0  0
   59.0470   34.9953   47.7058 H   0  0  0  0  0  0  0  0  0  0  0  0
   59.7419   36.6669   46.3018 H   0  0  0  0  0  0  0  0  0  0  0  0
   60.5627   35.5410   45.1680 H   0  0  0  0  0  0  0  0  0  0  0  0
   58.7709   35.6678   45.1680 H   0  0  0  0  0  0  0  0  0  0  0  0
   62.9608   33.8426   47.0062 H   0  0  0  0  0  0  0  0  0  0  0  0
   61.8406   33.1093   45.8088 H   0  0  0  0  0  0  0  0  0  0  0  0
   62.1191   34.8838   45.8088 H   0  0  0  0  0  0  0  0  0  0  0  0
   62.9048   35.2529   50.3992 H   0  0  0  0  0  0  0  0  0  0  0  0
   65.0720   34.4670   51.1080 H   0  0  0  0  0  0  0  0  0  0  0  0
   66.3746   32.1742   51.6554 H   0  0  0  0  0  0  0  0  0  0  0  0
   66.5361   31.1743   50.1719 H   0  0  0  0  0  0  0  0  0  0  0  0
   67.1019   32.8791   50.1719 H   0  0  0  0  0  0  0  0  0  0  0  0
   61.6836   30.5523   48.6173 H   0  0  0  0  0  0  0  0  0  0  0  0
   61.5480   31.8200   47.3519 H   0  0  0  0  0  0  0  0  0  0  0  0
   62.9502   30.6973   47.3519 H   0  0  0  0  0  0  0  0  0  0  0  0
   57.5074   34.6039   45.0867 H   0  0  0  0  0  0  0  0  0  0  0  0
   56.2497   32.6639   44.1656 H   0  0  0  0  0  0  0  0  0  0  0  0
  1  2  1  0
  2  3  1  0
  3  4  2  0
  4  5  1  0
  5  6  2  0
  6  7  1  0
  7  8  1  0
  7  9  1  0
  9 10  1  0
  9 11  1  0
 11 12  2  0
 11 13  1  0
 13 14  2  0
 14 15  1  0
 15 16  2  0
 16 17  1  0
 16 18  1  0
 18 19  2  0
 19 20  1  0
  6 21  1  0
 21 22  2  0
 22  3  1  0
 19 13  1  0
  1 23  1  0
  1 24  1  0
  1 25  1  0
  4 26  1  0
  5 27  1  0
  7 28  1  1
  8 29  1  0
  8 30  1  0
  8 31  1  0
 10 32  1  0
 10 33  1  0
 10 34  1  0
 14 35  1  0
 15 36  1  0
 17 37  1  0
 17 38  1  0
 17 39  1  0
 20 40  1  0
 20 41  1  0
 20 42  1  0
 21 43  1  0
 22 44  1  0
M  CHG  1  15   1
M  END
>  <UniqueID>  (21) 
19

>  <SMILES>  (21) 
COc1ccc([C@H](C)N(C)C(=O)c2c[nH+]c(C)nc2C)cc1

>  <Energy>  (21) 
49.366154228345614

>  <Genealogy>  (21) 
COc1ccc(C(C)N(C)C(=O)c2c[nH+]c(C)nc2C)cc1 (protonated)
COc1ccc([C@H](C)N(C)C(=O)c2c[nH+]c(C)nc2C)cc1 (chirality)
COc1ccc([C@H](C)N(C)C(=O)c2c[nH+]c(C)nc2C)cc1 (3D coordinates assigned)
COc1ccc([C@H](C)N(C)C(=O)c2c[nH+]c(C)nc2C)cc1 (optimized conformer: 49.366154228345614 kcal/mol)

>  <smiles>  (21) 
COc1ccc(C(C)N(C)C(=O)c2cnc(C)nc2C)cc1

>  <score_type>  (21) 
oracle

>  <origin>  (21) 
adg

>  <m_score__min__energy>  (21) 
-5.5700000000000003

>  <m_primary>  (21) 
energy

$$$$
21:0
     RDKit          3D

 39 41  0  0  0  0  0  0  0  0999 V2000
   55.9229   29.8673   42.1539 H   0  0  0  0  0  0  0  0  0  0  0  0
   56.5330   29.9970   43.0600 C   0  0  0  0  0  0  0  0  0  0  0  0
   56.6990   31.2420   43.5910 N   0  0  0  0  0  0  0  0  0  0  0  0
   57.4510   31.4060   44.7120 C   0  0  0  0  0  0  0  0  0  0  0  0
   58.0360   30.3120   45.3140 C   0  0  0  0  0  0  0  0  0  0  0  0
   58.9040   30.8200   46.6530 S   0  0  0  0  0  0  0  0  0  0  0  0
   58.4930   32.4430   46.4160 C   0  0  0  0  0  0  0  0  0  0  0  0
   58.9390   33.3640   47.2280 N   0  0  0  0  0  0  0  0  0  0  0  0
   60.0080   34.3510   47.0840 C   0  0  0  0  0  0  0  0  0  0  0  0
   60.9398   33.8379   46.8039 H   0  0  0  0  0  0  0  0  0  0  0  0
   60.1394   34.8772   48.0410 H   0  0  0  0  0  0  0  0  0  0  0  0
   59.6500   35.3690   46.0040 C   0  0  0  0  0  0  0  0  0  0  0  0
   59.3206   36.3056   46.4777 H   0  0  0  0  0  0  0  0  0  0  0  0
   60.5330   35.5654   45.3781 H   0  0  0  0  0  0  0  0  0  0  0  0
   58.8384   34.9695   45.3781 H   0  0  0  0  0  0  0  0  0  0  0  0
   57.6880   32.6130   45.3130 N   0  0  0  0  0  0  0  0  0  0  0  0
   57.0300   33.8470   44.8650 C   0  0  0  0  0  0  0  0  0  0  0  0
   56.7168   34.4343   45.7408 H   0  0  0  0  0  0  0  0  0  0  0  0
   57.7327   34.4381   44.2593 H   0  0  0  0  0  0  0  0  0  0  0  0
   56.1476   33.5929   44.2593 H   0  0  0  0  0  0  0  0  0  0  0  0
   57.8700   29.0350   44.7790 C   0  0  0  0  0  0  0  0  0  0  0  0
   58.4810   27.8850   45.3850 N   0  0  0  0  0  0  0  0  0  0  0  0
   57.6770   26.6940   45.6870 C   0  0  0  0  0  0  0  0  0  0  0  0
   56.6101   26.9516   45.6130 H   0  0  0  0  0  0  0  0  0  0  0  0
   57.9331   25.9050   44.9646 H   0  0  0  0  0  0  0  0  0  0  0  0
   57.9730   26.1760   47.1060 C   0  0  0  0  0  0  0  0  0  0  0  0
   57.3208   26.7089   47.8136 H   0  0  0  0  0  0  0  0  0  0  0  0
   57.7860   25.0920   47.0987 H   0  0  0  0  0  0  0  0  0  0  0  0
   59.4390   26.3790   47.5460 C   0  0  0  0  0  0  0  0  0  0  0  0
   59.4875   27.2471   48.2198 H   0  0  0  0  0  0  0  0  0  0  0  0
   59.7668   25.4567   48.0480 H   0  0  0  0  0  0  0  0  0  0  0  0
   60.3810   26.6230   46.3630 C   0  0  0  0  0  0  0  0  0  0  0  0
   61.4037   26.7757   46.7382 H   0  0  0  0  0  0  0  0  0  0  0  0
   60.3529   25.7494   45.6952 H   0  0  0  0  0  0  0  0  0  0  0  0
   59.9370   27.8660   45.5810 C   0  0  0  0  0  0  0  0  0  0  0  0
   60.2345   28.7655   46.1399 H   0  0  0  0  0  0  0  0  0  0  0  0
   60.4189   27.8431   44.5924 H   0  0  0  0  0  0  0  0  0  0  0  0
   57.1190   28.9080   43.6450 N   0  0  0  0  0  0  0  0  0  0  0  0
   56.9680   27.9660   43.2210 H   0  0  0  0  0  0  0  0  0  0  0  0
  1  2  1  0
  2  3  2  0
  3  4  1  0
  4  5  2  0
  5  6  1  0
  6  7  1  0
  7  8  2  0
  8  9  1  0
  9 10  1  0
  9 11  1  0
  9 12  1  0
 12 13  1  0
 12 14  1  0
 12 15  1  0
  7 16  1  0
 16 17  1  0
 17 18  1  0
 17 19  1  0
 17 20  1  0
  5 21  1  0
 21 22  1  0
 22 23  1  0
 23 24  1  0
 23 25  1  0
 23 26  1  0
 26 27  1  0
 26 28  1  0
 26 29  1  0
 29 30  1  0
 29 31  1  0
 29 32  1  0
 32 33  1  0
 32 34  1  0
 32 35  1  0
 35 36  1  0
 35 37  1  0
 21 38  2  0
 38 39  1  0
 38  2  1  0
 16  4  1  0
 35 22  1  0
M  CHG  1  38   1
M  END
>  <UniqueID>  (22) 
20

>  <SMILES>  (22) 
CC/N=c1/sc2c(N3CCCCC3)[nH+]cnc2n1C

>  <Energy>  (22) 
89.03496895774728

>  <Genealogy>  (22) 
CCN=c1sc2c(N3CCCCC3)[nH+]cnc2n1C (protonated)
CC/N=c1/sc2c(N3CCCCC3)[nH+]cnc2n1C (cis-trans isomerization)
CC/N=c1/sc2c(N3CCCCC3)[nH+]cnc2n1C (3D coordinates assigned)
CC/N=c1/sc2c(N3CCCCC3)[nH+]cnc2n1C (nonaromatic ring conformer: 89.03496895774728 kcal/mol)

>  <smiles>  (22) 
CCN=c1sc2c(N3CCCCC3)ncnc2n1C

>  <score_type>  (22) 
oracle

>  <origin>  (22) 
adg

>  <m_score__min__energy>  (22) 
-4.8399999999999999

>  <m_primary>  (22) 
energy

$$$$
22:0
     RDKit          3D

 39 40  0  0  0  0  0  0  0  0999 V2000
   55.7550   24.2160   46.5870 C   0  0  0  0  0  0  0  0  0  0  0  0
   55.6450   25.5990   46.2650 O   0  0  0  0  0  0  0  0  0  0  0  0
   56.7310   26.4270   45.9420 C   0  0  0  0  0  0  0  0  0  0  0  0
   58.0130   25.8710   45.9420 C   0  0  0  0  0  0  0  0  0  0  0  0
   59.1240   26.6560   45.6320 C   0  0  0  0  0  0  0  0  0  0  0  0
   58.9700   28.0100   45.3200 C   0  0  0  0  0  0  0  0  0  0  0  0
   60.4120   28.9450   44.9370 Cl  0  0  0  0  0  0  0  0  0  0  0  0
   57.6850   28.5880   45.3170 C   0  0  0  0  0  0  0  0  0  0  0  0
   57.4530   30.2990   44.9420 S   0  0  0  0  0  0  0  0  0  0  0  0
   58.4020   30.6870   43.8440 O   0  0  0  0  0  0  0  0  0  0  0  0
   56.0370   30.5330   44.4930 O   0  0  0  0  0  0  0  0  0  0  0  0
   57.7730   31.2720   46.3410 N   0  0  0  0  0  0  0  0  0  0  0  0
   59.0280   31.9320   46.5480 C   0  0  0  0  0  0  0  0  0  0  0  0
   59.9870   31.3360   47.3920 C   0  0  0  0  0  0  0  0  0  0  0  0
   59.7030   30.0170   48.0600 C   0  0  0  0  0  0  0  0  0  0  0  0
   61.2330   31.9540   47.5720 C   0  0  0  0  0  0  0  0  0  0  0  0
   61.5320   33.1610   46.9290 C   0  0  0  0  0  0  0  0  0  0  0  0
   62.8560   33.8300   47.1540 C   0  0  0  0  0  0  0  0  0  0  0  0
   60.5580   33.7780   46.1340 C   0  0  0  0  0  0  0  0  0  0  0  0
   59.3000   33.1830   45.9490 C   0  0  0  0  0  0  0  0  0  0  0  0
   58.2750   33.8920   45.1050 C   0  0  0  0  0  0  0  0  0  0  0  0
   56.5710   27.7880   45.6220 C   0  0  0  0  0  0  0  0  0  0  0  0
   55.7647   24.0937   47.6801 H   0  0  0  0  0  0  0  0  0  0  0  0
   54.8973   23.6719   46.1648 H   0  0  0  0  0  0  0  0  0  0  0  0
   56.6879   23.8143   46.1648 H   0  0  0  0  0  0  0  0  0  0  0  0
   58.1472   24.8073   46.1881 H   0  0  0  0  0  0  0  0  0  0  0  0
   60.1279   26.2064   45.6331 H   0  0  0  0  0  0  0  0  0  0  0  0
   59.7307   30.1456   49.1521 H   0  0  0  0  0  0  0  0  0  0  0  0
   58.7074   29.6599   47.7580 H   0  0  0  0  0  0  0  0  0  0  0  0
   60.4634   29.2818   47.7580 H   0  0  0  0  0  0  0  0  0  0  0  0
   61.9835   31.4852   48.2255 H   0  0  0  0  0  0  0  0  0  0  0  0
   63.0407   33.9234   48.2343 H   0  0  0  0  0  0  0  0  0  0  0  0
   63.6540   33.2269   46.6963 H   0  0  0  0  0  0  0  0  0  0  0  0
   62.8439   34.8302   46.6963 H   0  0  0  0  0  0  0  0  0  0  0  0
   60.7812   34.7398   45.6490 H   0  0  0  0  0  0  0  0  0  0  0  0
   57.5471   34.3955   45.7581 H   0  0  0  0  0  0  0  0  0  0  0  0
   58.7754   34.6380   44.4700 H   0  0  0  0  0  0  0  0  0  0  0  0
   57.7535   33.1606   44.4700 H   0  0  0  0  0  0  0  0  0  0  0  0
   55.5637   28.2299   45.6105 H   0  0  0  0  0  0  0  0  0  0  0  0
  1  2  1  0
  2  3  1  0
  3  4  2  0
  4  5  1  0
  5  6  2  0
  6  7  1  0
  6  8  1  0
  8  9  1  0
  9 10  2  0
  9 11  2  0
  9 12  1  0
 12 13  1  0
 13 14  2  0
 14 15  1  0
 14 16  1  0
 16 17  2  0
 17 18  1  0
 17 19  1  0
 19 20  2  0
 20 21  1  0
  8 22  2  0
 22  3  1  0
 20 13  1  0
  1 23  1  0
  1 24  1  0
  1 25  1  0
  4 26  1  0
  5 27  1  0
 15 28  1  0
 15 29  1  0
 15 30  1  0
 16 31  1  0
 18 32  1  0
 18 33  1  0
 18 34  1  0
 19 35  1  0
 21 36  1  0
 21 37  1  0
 21 38  1  0
 22 39  1  0
M  CHG  1  12  -1
M  END
>  <UniqueID>  (23) 
21

>  <SMILES>  (23) 
COc1ccc(Cl)c(S(=O)(=O)[N-]c2c(C)cc(C)cc2C)c1

>  <Energy>  (23) 
48.028556155981725

>  <Genealogy>  (23) 
COc1ccc(Cl)c(S(=O)(=O)[N-]c2c(C)cc(C)cc2C)c1 (protonated)
COc1ccc(Cl)c(S(=O)(=O)[N-]c2c(C)cc(C)cc2C)c1 (3D coordinates assigned)
COc1ccc(Cl)c(S(=O)(=O)[N-]c2c(C)cc(C)cc2C)c1 (optimized conformer: 48.028556155981725 kcal/mol)

>  <smiles>  (23) 
COc1ccc(Cl)c(S(=O)(=O)Nc2c(C)cc(C)cc2C)c1

>  <score_type>  (23) 
oracle

>  <origin>  (23) 
adg

>  <m_score__min__energy>  (23) 
-8.9399999999999995

>  <m_primary>  (23) 
energy

$$$$
23:0
     RDKit          3D

 48 50  0  0  0  0  0  0  0  0999 V2000
   56.6270   22.3550   42.9670 C   0  0  0  0  0  0  0  0  0  0  0  0
   55.8270   23.3140   43.8400 C   0  0  0  0  0  0  0  0  0  0  0  0
   56.1850   23.1120   45.2650 N   0  0  0  0  0  0  0  0  0  0  0  0
   55.4610   21.9580   45.8390 C   0  0  0  0  0  0  0  0  0  0  0  0
   53.9730   22.2580   46.0220 C   0  0  0  0  0  0  0  0  0  0  0  0
   55.8680   24.5730   46.1840 S   0  0  0  0  0  0  0  0  0  0  0  0
   54.6030   25.2260   45.6950 O   0  0  0  0  0  0  0  0  0  0  0  0
   55.7070   24.2490   47.6420 O   0  0  0  0  0  0  0  0  0  0  0  0
   57.2130   25.7040   46.0330 C   0  0  0  0  0  0  0  0  0  0  0  0
   58.5370   25.2530   46.1180 C   0  0  0  0  0  0  0  0  0  0  0  0
   59.5930   26.1620   46.0350 C   0  0  0  0  0  0  0  0  0  0  0  0
   59.3340   27.5240   45.8620 C   0  0  0  0  0  0  0  0  0  0  0  0
   58.0130   27.9930   45.7600 C   0  0  0  0  0  0  0  0  0  0  0  0
   57.7570   29.4430   45.5860 C   0  0  0  0  0  0  0  0  0  0  0  0
   56.6110   29.8230   45.2220 O   0  0  0  0  0  0  0  0  0  0  0  0
   58.7900   30.4160   45.8250 N   0  0  0  0  0  0  0  0  0  0  0  0
   58.5830   31.8270   45.6640 C   0  0  0  0  0  0  0  0  0  0  0  0
   57.9330   32.2930   44.5120 C   0  0  0  0  0  0  0  0  0  0  0  0
   57.7180   33.6600   44.3190 C   0  0  0  0  0  0  0  0  0  0  0  0
   58.1650   34.5830   45.2660 C   0  0  0  0  0  0  0  0  0  0  0  0
   58.8460   34.1410   46.4090 C   0  0  0  0  0  0  0  0  0  0  0  0
   59.3330   35.0510   47.3580 C   0  0  0  0  0  0  0  0  0  0  0  0
   60.0350   34.5850   48.4700 C   0  0  0  0  0  0  0  0  0  0  0  0
   60.2480   33.2130   48.6240 C   0  0  0  0  0  0  0  0  0  0  0  0
   59.7660   32.3400   47.7000 N   0  0  0  0  0  0  0  0  0  0  0  0
   59.0640   32.7570   46.6090 C   0  0  0  0  0  0  0  0  0  0  0  0
   56.9540   27.0700   45.8570 C   0  0  0  0  0  0  0  0  0  0  0  0
   57.2001   21.6680   43.6069 H   0  0  0  0  0  0  0  0  0  0  0  0
   55.9395   21.7770   42.3319 H   0  0  0  0  0  0  0  0  0  0  0  0
   57.3189   22.9277   42.3319 H   0  0  0  0  0  0  0  0  0  0  0  0
   56.0555   24.3499   43.5492 H   0  0  0  0  0  0  0  0  0  0  0  0
   54.7529   23.1197   43.7038 H   0  0  0  0  0  0  0  0  0  0  0  0
   55.5705   21.0967   45.1636 H   0  0  0  0  0  0  0  0  0  0  0  0
   55.8911   21.7408   46.8279 H   0  0  0  0  0  0  0  0  0  0  0  0
   53.7378   22.3054   47.0955 H   0  0  0  0  0  0  0  0  0  0  0  0
   53.7328   23.2226   45.5511 H   0  0  0  0  0  0  0  0  0  0  0  0
   53.3778   21.4618   45.5511 H   0  0  0  0  0  0  0  0  0  0  0  0
   58.7445   24.1809   46.2503 H   0  0  0  0  0  0  0  0  0  0  0  0
   60.6312   25.8053   46.1059 H   0  0  0  0  0  0  0  0  0  0  0  0
   60.1711   28.2353   45.8051 H   0  0  0  0  0  0  0  0  0  0  0  0
   59.7650   30.1000   46.0240 H   0  0  0  0  0  0  0  0  0  0  0  0
   57.5890   31.5751   43.7528 H   0  0  0  0  0  0  0  0  0  0  0  0
   57.1944   34.0103   43.4172 H   0  0  0  0  0  0  0  0  0  0  0  0
   57.9829   35.6573   45.1154 H   0  0  0  0  0  0  0  0  0  0  0  0
   59.1620   36.1296   47.2261 H   0  0  0  0  0  0  0  0  0  0  0  0
   60.4179   35.2927   49.2200 H   0  0  0  0  0  0  0  0  0  0  0  0
   60.8067   32.8384   49.4944 H   0  0  0  0  0  0  0  0  0  0  0  0
   55.9145   27.4242   45.7941 H   0  0  0  0  0  0  0  0  0  0  0  0
  1  2  1  0
  2  3  1  0
  3  4  1  0
  4  5  1  0
  3  6  1  0
  6  7  2  0
  6  8  2  0
  6  9  1  0
  9 10  2  0
 10 11  1  0
 11 12  2  0
 12 13  1  0
 13 14  1  0
 14 15  2  0
 14 16  1  0
 16 17  1  0
 17 18  2  0
 18 19  1  0
 19 20  2  0
 20 21  1  0
 21 22  2  0
 22 23  1  0
 23 24  2  0
 24 25  1  0
 25 26  2  0
 13 27  2  0
 27  9  1  0
 26 17  1  0
 26 21  1  0
  1 28  1  0
  1 29  1  0
  1 30  1  0
  2 31  1  0
  2 32  1  0
  4 33  1  0
  4 34  1  0
  5 35  1  0
  5 36  1  0
  5 37  1  0
 10 38  1  0
 11 39  1  0
 12 40  1  0
 16 41  1  0
 18 42  1  0
 19 43  1  0
 20 44  1  0
 22 45  1  0
 23 46  1  0
 24 47  1  0
 27 48  1  0
M  END
>  <UniqueID>  (24) 
22

>  <SMILES>  (24) 
CCN(CC)S(=O)(=O)c1cccc(C(=O)Nc2cccc3cccnc23)c1

>  <Energy>  (24) 
60.59705918775592

>  <Genealogy>  (24) 
CCN(CC)S(=O)(=O)c1cccc(C(=O)Nc2cccc3cccnc23)c1 (3D coordinates assigned)
CCN(CC)S(=O)(=O)c1cccc(C(=O)Nc2cccc3cccnc23)c1 (optimized conformer: 60.59705918775592 kcal/mol)

>  <smiles>  (24) 
CCN(CC)S(=O)(=O)c1cccc(C(=O)Nc2cccc3cccnc23)c1

>  <score_type>  (24) 
oracle

>  <origin>  (24) 
adg

>  <m_score__min__energy>  (24) 
-8.8900000000000006

>  <m_primary>  (24) 
energy

$$$$
24:0
     RDKit          3D

 58 61  0  0  0  0  0  0  0  0999 V2000
   55.8770   30.0250   44.0680 C   0  0  0  0  0  0  0  0  0  0  0  0
   57.2070   30.6330   44.4850 C   0  0  0  0  0  0  0  0  0  0  0  0
   57.5100   30.2400   45.8200 O   0  0  0  0  0  0  0  0  0  0  0  0
   58.7840   30.3880   46.3800 C   0  0  0  0  0  0  0  0  0  0  0  0
   59.8180   30.2220   45.6720 O   0  0  0  0  0  0  0  0  0  0  0  0
   58.9070   30.7010   47.8470 C   0  0  1  0  0  0  0  0  0  0  0  0
   59.8930   29.8130   48.4630 N   0  0  0  0  0  0  0  0  0  0  0  0
   59.7090   29.0070   49.6360 C   0  0  0  0  0  0  0  0  0  0  0  0
   58.8270   29.3020   50.4870 O   0  0  0  0  0  0  0  0  0  0  0  0
   60.5950   27.8210   49.8780 C   0  0  0  0  0  0  0  0  0  0  0  0
   60.2560   26.7370   49.0070 O   0  0  0  0  0  0  0  0  0  0  0  0
   59.7580   26.8620   47.6980 C   0  0  0  0  0  0  0  0  0  0  0  0
   60.5550   27.2860   46.6180 C   0  0  0  0  0  0  0  0  0  0  0  0
   60.0040   27.4160   45.3430 C   0  0  0  0  0  0  0  0  0  0  0  0
   58.6480   27.1230   45.1140 C   0  0  0  0  0  0  0  0  0  0  0  0
   58.0770   27.2920   43.7260 C   0  0  0  0  0  0  0  0  0  0  0  0
   57.8410   26.6860   46.1930 C   0  0  0  0  0  0  0  0  0  0  0  0
   56.3800   26.3600   45.9940 C   0  0  0  0  0  0  0  0  0  0  0  0
   58.4110   26.5560   47.4730 C   0  0  0  0  0  0  0  0  0  0  0  0
   59.2120   32.1970   48.1340 C   0  0  0  0  0  0  0  0  0  0  0  0
   58.7200   33.0860   47.0090 C   0  0  0  0  0  0  0  0  0  0  0  0
   57.3980   33.3660   46.6400 C   0  0  0  0  0  0  0  0  0  0  0  0
   57.1630   34.2290   45.5570 C   0  0  0  0  0  0  0  0  0  0  0  0
   58.2410   34.8180   44.8680 C   0  0  0  0  0  0  0  0  0  0  0  0
   59.5610   34.5590   45.2670 C   0  0  0  0  0  0  0  0  0  0  0  0
   59.7710   33.6890   46.3390 C   0  0  0  0  0  0  0  0  0  0  0  0
   61.0030   33.3190   46.9960 C   0  0  0  0  0  0  0  0  0  0  0  0
   62.3060   33.7460   46.7410 C   0  0  0  0  0  0  0  0  0  0  0  0
   63.3310   33.2980   47.5900 C   0  0  0  0  0  0  0  0  0  0  0  0
   63.0350   32.4590   48.6790 C   0  0  0  0  0  0  0  0  0  0  0  0
   61.7100   32.0590   48.9290 C   0  0  0  0  0  0  0  0  0  0  0  0
   60.7000   32.4860   48.0600 C   0  0  0  0  0  0  0  0  0  0  0  0
   55.2977   29.7602   44.9648 H   0  0  0  0  0  0  0  0  0  0  0  0
   55.3122   30.7544   43.4688 H   0  0  0  0  0  0  0  0  0  0  0  0
   56.0590   29.1207   43.4688 H   0  0  0  0  0  0  0  0  0  0  0  0
   57.9999   30.2793   43.8096 H   0  0  0  0  0  0  0  0  0  0  0  0
   57.1422   31.7298   44.4310 H   0  0  0  0  0  0  0  0  0  0  0  0
   57.9247   30.5166   48.3065 H   0  0  0  0  0  0  0  0  0  0  0  0
   61.6408   28.1116   49.6993 H   0  0  0  0  0  0  0  0  0  0  0  0
   60.4576   27.4892   50.9177 H   0  0  0  0  0  0  0  0  0  0  0  0
   61.6183   27.5161   46.7803 H   0  0  0  0  0  0  0  0  0  0  0  0
   60.6369   27.7512   44.5081 H   0  0  0  0  0  0  0  0  0  0  0  0
   57.0245   27.6035   43.7979 H   0  0  0  0  0  0  0  0  0  0  0  0
   58.6502   28.0590   43.1846 H   0  0  0  0  0  0  0  0  0  0  0  0
   58.1404   26.3366   43.1846 H   0  0  0  0  0  0  0  0  0  0  0  0
   55.8919   26.2511   46.9737 H   0  0  0  0  0  0  0  0  0  0  0  0
   55.8964   27.1723   45.4317 H   0  0  0  0  0  0  0  0  0  0  0  0
   56.2875   25.4191   45.4317 H   0  0  0  0  0  0  0  0  0  0  0  0
   57.7879   26.2083   48.3101 H   0  0  0  0  0  0  0  0  0  0  0  0
   58.7500   32.3841   49.1146 H   0  0  0  0  0  0  0  0  0  0  0  0
   56.5574   32.9172   47.1896 H   0  0  0  0  0  0  0  0  0  0  0  0
   56.1308   34.4462   45.2451 H   0  0  0  0  0  0  0  0  0  0  0  0
   58.0473   35.4836   44.0139 H   0  0  0  0  0  0  0  0  0  0  0  0
   60.4093   35.0295   44.7483 H   0  0  0  0  0  0  0  0  0  0  0  0
   62.5251   34.4163   45.8968 H   0  0  0  0  0  0  0  0  0  0  0  0
   64.3705   33.6049   47.4022 H   0  0  0  0  0  0  0  0  0  0  0  0
   63.8443   32.1136   49.3391 H   0  0  0  0  0  0  0  0  0  0  0  0
   61.4718   31.4213   49.7931 H   0  0  0  0  0  0  0  0  0  0  0  0
  1  2  1  0
  2  3  1  0
  3  4  1  0
  4  5  2  0
  4  6  1  0
  6  7  1  0
  7  8  1  0
  8  9  2  0
  8 10  1  0
 10 11  1  0
 11 12  1  0
 12 13  2  0
 13 14  1  0
 14 15  2  0
 15 16  1  0
 15 17  1  0
 17 18  1  0
 17 19  2  0
  6 20  1  0
 20 21  1  0
 21 22  2  0
 22 23  1  0
 23 24  2  0
 24 25  1  0
 25 26  2  0
 26 27  1  0
 27 28  2  0
 28 29  1  0
 29 30  2  0
 30 31  1  0
 31 32  2  0
 19 12  1  0
 32 20  1  0
 26 21  1  0
 32 27  1  0
  1 33  1  0
  1 34  1  0
  1 35  1  0
  2 36  1  0
  2 37  1  0
  6 38  1  1
 10 39  1  0
 10 40  1  0
 13 41  1  0
 14 42  1  0
 16 43  1  0
 16 44  1  0
 16 45  1  0
 18 46  1  0
 18 47  1  0
 18 48  1  0
 19 49  1  0
 20 50  1  0
 22 51  1  0
 23 52  1  0
 24 53  1  0
 25 54  1  0
 28 55  1  0
 29 56  1  0
 30 57  1  0
 31 58  1  0
M  CHG  1   7  -1
M  END
>  <UniqueID>  (25) 
23

>  <SMILES>  (25) 
CCOC(=O)[C@@H]([N-]C(=O)COc1ccc(C)c(C)c1)C1c2ccccc2-c2ccccc21

>  <Energy>  (25) 
77.60156500789304

>  <Genealogy>  (25) 
CCOC(=O)C([N-]C(=O)COc1ccc(C)c(C)c1)C1c2ccccc2-c2ccccc21 (protonated)
CCOC(=O)[C@@H]([N-]C(=O)COc1ccc(C)c(C)c1)C1c2ccccc2-c2ccccc21 (chirality)
CCOC(=O)[C@@H]([N-]C(=O)COc1ccc(C)c(C)c1)C1c2ccccc2-c2ccccc21 (3D coordinates assigned)
CCOC(=O)[C@@H]([N-]C(=O)COc1ccc(C)c(C)c1)C1c2ccccc2-c2ccccc21 (nonaromatic ring conformer: 77.60156500789304 kcal/mol)

>  <smiles>  (25) 
CCOC(=O)C(NC(=O)COc1ccc(C)c(C)c1)C1c2ccccc2-c2ccccc21

>  <score_type>  (25) 
oracle

>  <origin>  (25) 
adg

>  <m_score__min__energy>  (25) 
-10.65

>  <m_primary>  (25) 
energy

$$$$
25:0
     RDKit          3D

 50 52  0  0  0  0  0  0  0  0999 V2000
   54.0460   23.6250   45.1310 C   0  0  0  0  0  0  0  0  0  0  0  0
   55.3300   23.6950   44.3580 C   0  0  0  0  0  0  0  0  0  0  0  0
   55.5660   22.8010   43.5000 O   0  0  0  0  0  0  0  0  0  0  0  0
   56.2910   24.7490   44.5910 N   0  0  0  0  0  0  0  0  0  0  0  0
   56.1570   25.6170   45.7750 C   0  0  0  0  0  0  0  0  0  0  0  0
   57.3580   26.5530   45.9260 C   0  0  0  0  0  0  0  0  0  0  0  0
   57.6510   27.1860   44.6350 N   0  0  0  0  0  0  0  0  0  0  0  0
   57.7310   28.6190   44.5190 C   0  0  0  0  0  0  0  0  0  0  0  0
   56.7580   29.3290   43.7980 C   0  0  0  0  0  0  0  0  0  0  0  0
   56.8240   30.7230   43.7050 C   0  0  0  0  0  0  0  0  0  0  0  0
   57.8620   31.4300   44.3320 C   0  0  0  0  0  0  0  0  0  0  0  0
   57.9040   32.8720   44.2740 N   0  0  0  0  0  0  0  0  0  0  0  0
   57.3010   33.4820   45.4720 C   0  0  0  0  0  0  0  0  0  0  0  0
   58.2880   33.5780   46.6220 C   0  0  0  0  0  0  0  0  0  0  0  0
   58.1050   32.7380   47.7350 C   0  0  0  0  0  0  0  0  0  0  0  0
   59.0070   32.7600   48.8000 C   0  0  0  0  0  0  0  0  0  0  0  0
   60.1000   33.6230   48.7720 C   0  0  0  0  0  0  0  0  0  0  0  0
   60.2960   34.4690   47.6790 C   0  0  0  0  0  0  0  0  0  0  0  0
   59.4040   34.4550   46.5910 C   0  0  0  0  0  0  0  0  0  0  0  0
   59.6330   35.4110   45.4490 C   0  0  0  0  0  0  0  0  0  0  0  0
   58.8330   30.7190   45.0580 C   0  0  0  0  0  0  0  0  0  0  0  0
   58.7670   29.3260   45.1520 C   0  0  0  0  0  0  0  0  0  0  0  0
   57.7710   26.3540   43.4280 C   0  0  0  0  0  0  0  0  0  0  0  0
   57.4730   24.8760   43.7230 C   0  0  0  0  0  0  0  0  0  0  0  0
   54.2657   23.6370   46.2088 H   0  0  0  0  0  0  0  0  0  0  0  0
   53.4166   24.4902   44.8755 H   0  0  0  0  0  0  0  0  0  0  0  0
   53.5143   22.6965   44.8755 H   0  0  0  0  0  0  0  0  0  0  0  0
   55.2438   26.2217   45.6728 H   0  0  0  0  0  0  0  0  0  0  0  0
   56.1060   24.9760   46.6675 H   0  0  0  0  0  0  0  0  0  0  0  0
   57.1267   27.3289   46.6706 H   0  0  0  0  0  0  0  0  0  0  0  0
   58.2333   25.9753   46.2578 H   0  0  0  0  0  0  0  0  0  0  0  0
   55.9391   28.7860   43.3034 H   0  0  0  0  0  0  0  0  0  0  0  0
   56.0570   31.2692   43.1364 H   0  0  0  0  0  0  0  0  0  0  0  0
   57.3710   33.1920   43.4310 H   0  0  0  0  0  0  0  0  0  0  0  0
   58.8890   33.2040   44.1560 H   0  0  0  0  0  0  0  0  0  0  0  0
   56.9529   34.4940   45.2178 H   0  0  0  0  0  0  0  0  0  0  0  0
   56.4662   32.8423   45.7944 H   0  0  0  0  0  0  0  0  0  0  0  0
   57.2421   32.0566   47.7666 H   0  0  0  0  0  0  0  0  0  0  0  0
   58.8545   32.0948   49.6627 H   0  0  0  0  0  0  0  0  0  0  0  0
   60.8097   33.6379   49.6123 H   0  0  0  0  0  0  0  0  0  0  0  0
   61.1568   35.1537   47.6682 H   0  0  0  0  0  0  0  0  0  0  0  0
   59.8718   36.4080   45.8477 H   0  0  0  0  0  0  0  0  0  0  0  0
   60.4706   35.0522   44.8328 H   0  0  0  0  0  0  0  0  0  0  0  0
   58.7237   35.4707   44.8328 H   0  0  0  0  0  0  0  0  0  0  0  0
   59.6500   31.2622   45.5553 H   0  0  0  0  0  0  0  0  0  0  0  0
   59.5308   28.7800   45.7251 H   0  0  0  0  0  0  0  0  0  0  0  0
   57.0585   26.7172   42.6727 H   0  0  0  0  0  0  0  0  0  0  0  0
   58.8059   26.4282   43.0626 H   0  0  0  0  0  0  0  0  0  0  0  0
   57.2843   24.3493   42.7759 H   0  0  0  0  0  0  0  0  0  0  0  0
   58.3397   24.4353   44.2374 H   0  0  0  0  0  0  0  0  0  0  0  0
  1  2  1  0
  2  3  2  0
  2  4  1  0
  4  5  1  0
  5  6  1  0
  6  7  1  0
  7  8  1  0
  8  9  2  0
  9 10  1  0
 10 11  2  0
 11 12  1  0
 12 13  1  0
 13 14  1  0
 14 15  2  0
 15 16  1  0
 16 17  2  0
 17 18  1  0
 18 19  2  0
 19 20  1  0
 11 21  1  0
 21 22  2  0
  7 23  1  0
 23 24  1  0
 24  4  1  0
 22  8  1  0
 19 14  1  0
  1 25  1  0
  1 26  1  0
  1 27  1  0
  5 28  1  0
  5 29  1  0
  6 30  1  0
  6 31  1  0
  9 32  1  0
 10 33  1  0
 12 34  1  0
 12 35  1  0
 13 36  1  0
 13 37  1  0
 15 38  1  0
 16 39  1  0
 17 40  1  0
 18 41  1  0
 20 42  1  0
 20 43  1  0
 20 44  1  0
 21 45  1  0
 22 46  1  0
 23 47  1  0
 23 48  1  0
 24 49  1  0
 24 50  1  0
M  CHG  1  12   1
M  END
>  <UniqueID>  (26) 
24

>  <SMILES>  (26) 
CC(=O)N1CCN(c2ccc([NH2+]Cc3ccccc3C)cc2)CC1

>  <Energy>  (26) 
55.790152905244966

>  <Genealogy>  (26) 
CC(=O)N1CCN(c2ccc([NH2+]Cc3ccccc3C)cc2)CC1 (protonated)
CC(=O)N1CCN(c2ccc([NH2+]Cc3ccccc3C)cc2)CC1 (3D coordinates assigned)
CC(=O)N1CCN(c2ccc([NH2+]Cc3ccccc3C)cc2)CC1 (nonaromatic ring conformer: 55.790152905244966 kcal/mol)

>  <smiles>  (26) 
CC(=O)N1CCN(c2ccc(NCc3ccccc3C)cc2)CC1

>  <score_type>  (26) 
oracle

>  <origin>  (26) 
adg

>  <m_score__min__energy>  (26) 
-6.1299999999999999

>  <m_primary>  (26) 
energy

$$$$
26:0
     RDKit          3D

 28 28  0  0  0  0  0  0  0  0999 V2000
   61.1750   34.2110   48.9130 C   0  0  0  0  0  0  0  0  0  0  0  0
   60.9430   34.3170   47.4620 N   0  0  0  0  0  0  0  0  0  0  0  0
   61.1280   32.9980   46.8380 C   0  0  0  0  0  0  0  0  0  0  0  0
   59.5880   34.8360   47.1760 C   0  0  0  0  0  0  0  0  0  0  0  0
   59.3270   34.9470   45.6630 C   0  0  0  0  0  0  0  0  0  0  0  0
   58.0760   34.1820   45.2110 C   0  0  0  0  0  0  0  0  0  0  0  0
   57.8250   32.6710   46.2070 S   0  0  0  0  0  0  0  0  0  0  0  0
   57.3560   31.6750   44.7940 C   0  0  0  0  0  0  0  0  0  0  0  0
   57.7140   32.0620   43.4990 C   0  0  0  0  0  0  0  0  0  0  0  0
   57.3450   31.2860   42.4460 N   0  0  0  0  0  0  0  0  0  0  0  0
   56.6390   30.1400   42.6290 C   0  0  0  0  0  0  0  0  0  0  0  0
   56.2850   29.7520   43.9240 C   0  0  0  0  0  0  0  0  0  0  0  0
   56.6520   30.5260   44.9770 N   0  0  0  0  0  0  0  0  0  0  0  0
   60.3037   34.6091   49.4537 H   0  0  0  0  0  0  0  0  0  0  0  0
   61.3240   33.1555   49.1844 H   0  0  0  0  0  0  0  0  0  0  0  0
   62.0705   34.7893   49.1844 H   0  0  0  0  0  0  0  0  0  0  0  0
   61.2352   32.2335   47.6216 H   0  0  0  0  0  0  0  0  0  0  0  0
   60.2541   32.7623   46.2129 H   0  0  0  0  0  0  0  0  0  0  0  0
   62.0330   33.0118   46.2129 H   0  0  0  0  0  0  0  0  0  0  0  0
   58.8452   34.1547   47.6166 H   0  0  0  0  0  0  0  0  0  0  0  0
   59.5080   35.8427   47.6120 H   0  0  0  0  0  0  0  0  0  0  0  0
   59.1997   36.0091   45.4066 H   0  0  0  0  0  0  0  0  0  0  0  0
   60.1896   34.4997   45.1474 H   0  0  0  0  0  0  0  0  0  0  0  0
   57.1974   34.8345   45.3223 H   0  0  0  0  0  0  0  0  0  0  0  0
   58.2109   33.8864   44.1601 H   0  0  0  0  0  0  0  0  0  0  0  0
   58.2886   32.9854   43.3341 H   0  0  0  0  0  0  0  0  0  0  0  0
   56.3486   29.5231   41.7658 H   0  0  0  0  0  0  0  0  0  0  0  0
   55.7135   28.8267   44.0887 H   0  0  0  0  0  0  0  0  0  0  0  0
  1  2  1  0
  2  3  1  0
  2  4  1  0
  4  5  1  0
  5  6  1  0
  6  7  1  0
  7  8  1  0
  8  9  2  0
  9 10  1  0
 10 11  2  0
 11 12  1  0
 12 13  2  0
 13  8  1  0
  1 14  1  0
  1 15  1  0
  1 16  1  0
  3 17  1  0
  3 18  1  0
  3 19  1  0
  4 20  1  0
  4 21  1  0
  5 22  1  0
  5 23  1  0
  6 24  1  0
  6 25  1  0
  9 26  1  0
 11 27  1  0
 12 28  1  0
M  END
>  <UniqueID>  (27) 
25

>  <SMILES>  (27) 
CN(C)CCCSc1cnccn1

>  <Energy>  (27) 
21.806909781849896

>  <Genealogy>  (27) 
CN(C)CCCSc1cnccn1 (3D coordinates assigned)
CN(C)CCCSc1cnccn1 (optimized conformer: 21.806909781849896 kcal/mol)

>  <smiles>  (27) 
CN(C)CCCSc1cnccn1

>  <score_type>  (27) 
oracle

>  <origin>  (27) 
adg

>  <m_score__min__energy>  (27) 
-4.9299999999999997

>  <m_primary>  (27) 
energy

$$$$
27:0
     RDKit          3D

 38 40  0  0  1  0  0  0  0  0999 V2000
   57.7740   26.2570   43.1390 C   0  0  0  0  0  0  0  0  0  0  0  0
   58.0980   27.3630   44.0570 C   0  0  0  0  0  0  0  0  0  0  0  0
   59.2240   27.2670   44.8400 C   0  0  0  0  0  0  0  0  0  0  0  0
   59.5450   28.2460   45.6790 N   0  0  0  0  0  0  0  0  0  0  0  0
   58.7900   29.3980   45.8250 C   0  0  0  0  0  0  0  0  0  0  0  0
   59.2910   30.3300   46.7870 C   0  0  0  0  0  0  0  0  0  0  0  0
   58.8690   30.5580   48.0690 C   0  0  0  0  0  0  0  0  0  0  0  0
   59.4480   31.4610   48.9310 C   0  0  0  0  0  0  0  0  0  0  0  0
   60.5230   32.2000   48.5100 C   0  0  0  0  0  0  0  0  0  0  0  0
   60.9840   32.0120   47.2420 C   0  0  0  0  0  0  0  0  0  0  0  0
   60.4030   31.1080   46.3800 C   0  0  0  0  0  0  0  0  0  0  0  0
   57.6910   29.4690   45.0410 C   0  0  0  0  0  0  0  0  0  0  0  0
   56.9930   30.5180   44.9950 N   0  0  0  0  0  0  0  0  0  0  0  0
   57.1030   31.4920   43.9720 C   0  0  0  0  0  0  0  0  0  0  0  0
   57.7840   32.6440   44.7300 C   0  0  0  0  0  0  0  0  0  0  0  0
   58.7170   33.4330   44.1450 C   0  0  0  0  0  0  0  0  0  0  0  0
   59.3040   34.4830   44.8570 C   0  0  0  0  0  0  0  0  0  0  0  0
   58.8640   34.6340   46.1520 C   0  0  0  0  0  0  0  0  0  0  0  0
   57.9200   33.8350   46.7470 C   0  0  0  0  0  0  0  0  0  0  0  0
   57.3550   32.8060   46.0240 C   0  0  0  0  0  0  0  0  0  0  0  0
   57.3560   28.4690   44.1790 N   0  0  0  0  0  0  0  0  0  0  0  0
   57.5117   25.3617   43.7218 H   0  0  0  0  0  0  0  0  0  0  0  0
   56.9223   26.5443   42.5049 H   0  0  0  0  0  0  0  0  0  0  0  0
   58.6461   26.0393   42.5049 H   0  0  0  0  0  0  0  0  0  0  0  0
   59.8630   26.3743   44.7715 H   0  0  0  0  0  0  0  0  0  0  0  0
   58.0080   29.9797   48.4354 H   0  0  0  0  0  0  0  0  0  0  0  0
   59.0516   31.5887   49.9491 H   0  0  0  0  0  0  0  0  0  0  0  0
   61.0024   32.9282   49.1807 H   0  0  0  0  0  0  0  0  0  0  0  0
   61.8467   32.6001   46.8957 H   0  0  0  0  0  0  0  0  0  0  0  0
   60.8071   30.9888   45.3639 H   0  0  0  0  0  0  0  0  0  0  0  0
   57.7257   31.1335   43.1391 H   0  0  0  0  0  0  0  0  0  0  0  0
   56.1464   31.7636   43.5018 H   0  0  0  0  0  0  0  0  0  0  0  0
   59.0147   33.2461   43.1027 H   0  0  0  0  0  0  0  0  0  0  0  0
   60.0644   35.1424   44.4131 H   0  0  0  0  0  0  0  0  0  0  0  0
   59.2976   35.4491   46.7500 H   0  0  0  0  0  0  0  0  0  0  0  0
   57.6175   34.0136   47.7894 H   0  0  0  0  0  0  0  0  0  0  0  0
   56.5945   32.1444   46.4643 H   0  0  0  0  0  0  0  0  0  0  0  0
   56.4970   28.5450   43.5860 H   0  0  0  0  0  0  0  0  0  0  0  0
  1  2  1  0
  2  3  2  0
  3  4  1  0
  4  5  2  0
  5  6  1  0
  6  7  2  0
  7  8  1  0
  8  9  2  0
  9 10  1  0
 10 11  2  0
  5 12  1  0
 12 13  2  0
 13 14  1  0
 14 15  1  0
 15 16  2  0
 16 17  1  0
 17 18  2  0
 18 19  1  0
 19 20  2  0
 12 21  1  0
 21  2  1  0
 11  6  1  0
 20 15  1  0
  1 22  1  0
  1 23  1  0
  1 24  1  0
  3 25  1  0
  7 26  1  0
  8 27  1  0
  9 28  1  0
 10 29  1  0
 11 30  1  0
 14 31  1  0
 14 32  1  0
 16 33  1  0
 17 34  1  0
 18 35  1  0
 19 36  1  0
 20 37  1  0
 21 38  1  0
M  END
>  <smiles>  (28) 
Cc1cnc(-c2ccccc2)c(=NCc2ccccc2)[nH]1

>  <score_type>  (28) 
oracle

>  <origin>  (28) 
adg

>  <m_score__min__energy>  (28) 
-6.9400000000000004

>  <m_primary>  (28) 
energy

$$$$
28:0
     RDKit          3D

 32 34  0  0  0  0  0  0  0  0999 V2000
   55.5110   29.3570   42.9740 O   0  0  0  0  0  0  0  0  0  0  0  0
   55.7540   29.8980   44.0850 C   0  0  0  0  0  0  0  0  0  0  0  0
   55.2130   29.3570   45.2440 O   0  0  0  0  0  0  0  0  0  0  0  0
   56.6290   31.1160   44.1570 C   0  0  0  0  0  0  0  0  0  0  0  0
   57.5970   31.0780   45.3750 C   0  0  2  0  0  0  0  0  0  0  0  0
   58.2460   32.4270   45.6650 C   0  0  0  0  0  0  0  0  0  0  0  0
   58.6040   33.3110   44.6250 C   0  0  0  0  0  0  0  0  0  0  0  0
   59.0950   34.5860   44.9100 C   0  0  0  0  0  0  0  0  0  0  0  0
   59.2680   34.9900   46.2320 C   0  0  0  0  0  0  0  0  0  0  0  0
   58.9930   34.1030   47.2730 C   0  0  0  0  0  0  0  0  0  0  0  0
   58.4960   32.8160   47.0040 C   0  0  0  0  0  0  0  0  0  0  0  0
   58.5180   31.7840   48.0970 C   0  0  0  0  0  0  0  0  0  0  0  0
   59.9900   30.7750   47.7930 S   0  0  0  0  0  0  0  0  0  0  0  0
   59.3660   29.5920   46.5610 C   0  0  0  0  0  0  0  0  0  0  0  0
   59.9280   28.3110   46.6880 C   0  0  0  0  0  0  0  0  0  0  0  0
   59.8380   27.3800   45.6590 C   0  0  0  0  0  0  0  0  0  0  0  0
   59.2000   27.7190   44.4740 C   0  0  0  0  0  0  0  0  0  0  0  0
   58.5860   28.9630   44.3390 C   0  0  0  0  0  0  0  0  0  0  0  0
   58.6020   29.9130   45.3910 C   0  0  0  0  0  0  0  0  0  0  0  0
   57.2243   31.1787   43.2341 H   0  0  0  0  0  0  0  0  0  0  0  0
   55.9753   31.9929   44.2745 H   0  0  0  0  0  0  0  0  0  0  0  0
   56.9318   30.8567   46.2226 H   0  0  0  0  0  0  0  0  0  0  0  0
   58.4949   32.9917   43.5780 H   0  0  0  0  0  0  0  0  0  0  0  0
   59.3460   35.2735   44.0888 H   0  0  0  0  0  0  0  0  0  0  0  0
   59.6212   36.0077   46.4548 H   0  0  0  0  0  0  0  0  0  0  0  0
   59.1667   34.4136   48.3138 H   0  0  0  0  0  0  0  0  0  0  0  0
   58.5835   32.2701   49.0816 H   0  0  0  0  0  0  0  0  0  0  0  0
   57.6023   31.1745   48.0969 H   0  0  0  0  0  0  0  0  0  0  0  0
   60.4487   28.0394   47.6181 H   0  0  0  0  0  0  0  0  0  0  0  0
   60.2716   26.3768   45.7840 H   0  0  0  0  0  0  0  0  0  0  0  0
   59.1788   27.0036   43.6387 H   0  0  0  0  0  0  0  0  0  0  0  0
   58.0781   29.2129   43.3958 H   0  0  0  0  0  0  0  0  0  0  0  0
  1  2  2  0
  2  3  1  0
  2  4  1  0
  4  5  1  0
  5  6  1  0
  6  7  2  0
  7  8  1  0
  8  9  2  0
  9 10  1  0
 10 11  2  0
 11 12  1  0
 12 13  1  0
 13 14  1  0
 14 15  2  0
 15 16  1  0
 16 17  2  0
 17 18  1  0
 18 19  2  0
 19  5  1  0
 11  6  1  0
 19 14  1  0
  4 20  1  0
  4 21  1  0
  5 22  1  1
  7 23  1  0
  8 24  1  0
  9 25  1  0
 10 26  1  0
 12 27  1  0
 12 28  1  0
 15 29  1  0
 16 30  1  0
 17 31  1  0
 18 32  1  0
M  CHG  1   3  -1
M  END
>  <UniqueID>  (29) 
26

>  <SMILES>  (29) 
O=C([O-])C[C@@H]1c2ccccc2CSc2ccccc21

>  <Energy>  (29) 
64.32496909284866

>  <Genealogy>  (29) 
O=C([O-])CC1c2ccccc2CSc2ccccc21 (protonated)
O=C([O-])C[C@@H]1c2ccccc2CSc2ccccc21 (chirality)
O=C([O-])C[C@@H]1c2ccccc2CSc2ccccc21 (3D coordinates assigned)
O=C([O-])C[C@@H]1c2ccccc2CSc2ccccc21 (nonaromatic ring conformer: 64.32496909284866 kcal/mol)

>  <smiles>  (29) 
O=C(O)CC1c2ccccc2CSc2ccccc21

>  <score_type>  (29) 
oracle

>  <origin>  (29) 
adg

>  <m_score__min__energy>  (29) 
-9.8499999999999996

>  <m_primary>  (29) 
energy

$$$$
29:0
     RDKit          3D

 55 57  0  0  0  0  0  0  0  0999 V2000
   57.3320   21.7620   43.6200 C   0  0  0  0  0  0  0  0  0  0  0  0
   56.2780   22.7140   43.0520 C   0  0  0  0  0  0  0  0  0  0  0  0
   56.1590   24.0190   43.8620 C   0  0  0  0  0  0  0  0  0  0  0  0
   56.5870   23.8760   45.3360 C   0  0  0  0  0  0  0  0  0  0  0  0
   57.6780   24.8080   45.6970 N   0  0  0  0  0  0  0  0  0  0  0  0
   57.4320   26.1510   45.9110 C   0  0  0  0  0  0  0  0  0  0  0  0
   56.1040   26.6990   45.8020 N   0  0  0  0  0  0  0  0  0  0  0  0
   58.5020   27.0180   46.2110 C   0  0  0  0  0  0  0  0  0  0  0  0
   58.2800   28.4210   46.4520 N   0  0  0  0  0  0  0  0  0  0  0  0
   58.5390   28.9430   47.8030 C   0  0  0  0  0  0  0  0  0  0  0  0
   59.4220   30.1610   47.7390 C   0  0  0  0  0  0  0  0  0  0  0  0
   58.9480   31.4100   48.1730 C   0  0  0  0  0  0  0  0  0  0  0  0
   59.7570   32.5460   48.0720 C   0  0  0  0  0  0  0  0  0  0  0  0
   61.0430   32.4430   47.5330 C   0  0  0  0  0  0  0  0  0  0  0  0
   61.5210   31.2060   47.0950 C   0  0  0  0  0  0  0  0  0  0  0  0
   60.7140   30.0680   47.1950 C   0  0  0  0  0  0  0  0  0  0  0  0
   58.0030   29.3260   45.3590 C   0  0  0  0  0  0  0  0  0  0  0  0
   58.9580   29.7930   44.6800 O   0  0  0  0  0  0  0  0  0  0  0  0
   56.6290   29.7470   45.0120 C   0  0  0  0  0  0  0  0  0  0  0  0
   55.6650   28.9480   45.1360 O   0  0  0  0  0  0  0  0  0  0  0  0
   56.4100   31.0720   44.5090 N   0  0  0  0  0  0  0  0  0  0  0  0
   57.2350   32.2250   44.7370 C   0  0  0  0  0  0  0  0  0  0  0  0
   57.0180   32.9920   45.8850 C   0  0  0  0  0  0  0  0  0  0  0  0
   57.7920   34.1260   46.1280 C   0  0  0  0  0  0  0  0  0  0  0  0
   58.7740   34.4940   45.2060 C   0  0  0  0  0  0  0  0  0  0  0  0
   58.9610   33.7570   44.0780 N   0  0  0  0  0  0  0  0  0  0  0  0
   58.2150   32.6460   43.8210 C   0  0  0  0  0  0  0  0  0  0  0  0
   59.7920   26.4920   46.2820 C   0  0  0  0  0  0  0  0  0  0  0  0
   60.7760   27.2360   46.5410 O   0  0  0  0  0  0  0  0  0  0  0  0
   59.9920   25.1720   46.0820 N   0  0  0  0  0  0  0  0  0  0  0  0
   58.9660   24.3320   45.7990 C   0  0  0  0  0  0  0  0  0  0  0  0
   59.2240   23.1110   45.6180 O   0  0  0  0  0  0  0  0  0  0  0  0
   57.2989   21.7919   44.7191 H   0  0  0  0  0  0  0  0  0  0  0  0
   57.1255   20.7382   43.2747 H   0  0  0  0  0  0  0  0  0  0  0  0
   58.3296   22.0713   43.2747 H   0  0  0  0  0  0  0  0  0  0  0  0
   56.5522   22.9658   42.0169 H   0  0  0  0  0  0  0  0  0  0  0  0
   55.3058   22.2018   43.1015 H   0  0  0  0  0  0  0  0  0  0  0  0
   56.7954   24.7809   43.3882 H   0  0  0  0  0  0  0  0  0  0  0  0
   55.0957   24.3007   43.8624 H   0  0  0  0  0  0  0  0  0  0  0  0
   55.7182   24.0827   45.9782 H   0  0  0  0  0  0  0  0  0  0  0  0
   56.9587   22.8508   45.4805 H   0  0  0  0  0  0  0  0  0  0  0  0
   55.6130   26.7440   44.8830 H   0  0  0  0  0  0  0  0  0  0  0  0
   55.5670   27.0660   46.6150 H   0  0  0  0  0  0  0  0  0  0  0  0
   57.5833   29.2135   48.2756 H   0  0  0  0  0  0  0  0  0  0  0  0
   59.0478   28.1660   48.3924 H   0  0  0  0  0  0  0  0  0  0  0  0
   57.9355   31.4949   48.5944 H   0  0  0  0  0  0  0  0  0  0  0  0
   59.3816   33.5208   48.4166 H   0  0  0  0  0  0  0  0  0  0  0  0
   61.6789   33.3371   47.4539 H   0  0  0  0  0  0  0  0  0  0  0  0
   62.5329   31.1266   46.6711 H   0  0  0  0  0  0  0  0  0  0  0  0
   61.0926   29.0959   46.8462 H   0  0  0  0  0  0  0  0  0  0  0  0
   56.2340   32.7001   46.5992 H   0  0  0  0  0  0  0  0  0  0  0  0
   57.6307   34.7246   47.0367 H   0  0  0  0  0  0  0  0  0  0  0  0
   59.3972   35.3811   45.3921 H   0  0  0  0  0  0  0  0  0  0  0  0
   59.6880   34.0550   43.3900 H   0  0  0  0  0  0  0  0  0  0  0  0
   58.3800   32.0769   42.8942 H   0  0  0  0  0  0  0  0  0  0  0  0
  1  2  1  0
  2  3  1  0
  3  4  1  0
  4  5  1  0
  5  6  1  0
  6  7  1  0
  6  8  2  0
  8  9  1  0
  9 10  1  0
 10 11  1  0
 11 12  2  0
 12 13  1  0
 13 14  2  0
 14 15  1  0
 15 16  2  0
  9 17  1  0
 17 18  2  0
 17 19  1  0
 19 20  2  0
 19 21  1  0
 21 22  1  0
 22 23  2  0
 23 24  1  0
 24 25  2  0
 25 26  1  0
 26 27  2  0
  8 28  1  0
 28 29  2  0
 28 30  1  0
 30 31  1  0
 31 32  2  0
 31  5  1  0
 16 11  1  0
 27 22  1  0
  1 33  1  0
  1 34  1  0
  1 35  1  0
  2 36  1  0
  2 37  1  0
  3 38  1  0
  3 39  1  0
  4 40  1  0
  4 41  1  0
  7 42  1  0
  7 43  1  0
 10 44  1  0
 10 45  1  0
 12 46  1  0
 13 47  1  0
 14 48  1  0
 15 49  1  0
 16 50  1  0
 23 51  1  0
 24 52  1  0
 25 53  1  0
 26 54  1  0
 27 55  1  0
M  CHG  3  21  -1  26   1  30  -1
M  END
>  <UniqueID>  (30) 
27

>  <SMILES>  (30) 
CCCCn1c(N)c(N(Cc2ccccc2)C(=O)C(=O)[N-]c2ccc[nH+]c2)c(=O)[n-]c1=O

>  <Energy>  (30) 
68.54894093871955

>  <Genealogy>  (30) 
CCCCn1c(N)c(N(Cc2ccccc2)C(=O)C(=O)[N-]c2ccc[nH+]c2)c(=O)[n-]c1=O (protonated)
CCCCn1c(N)c(N(Cc2ccccc2)C(=O)C(=O)[N-]c2ccc[nH+]c2)c(=O)[n-]c1=O (3D coordinates assigned)
CCCCn1c(N)c(N(Cc2ccccc2)C(=O)C(=O)[N-]c2ccc[nH+]c2)c(=O)[n-]c1=O (optimized conformer: 68.54894093871955 kcal/mol)

>  <smiles>  (30) 
CCCCn1c(N)c(N(Cc2ccccc2)C(=O)C(=O)Nc2cccnc2)c(=O)[nH]c1=O

>  <score_type>  (30) 
oracle

>  <origin>  (30) 
adg

>  <m_score__min__energy>  (30) 
-9.6699999999999999

>  <m_primary>  (30) 
energy

$$$$
30:0
     RDKit          3D

 43 45  0  0  1  0  0  0  0  0999 V2000
   58.1320   27.4990   47.0900 C   0  0  0  0  0  0  0  0  0  0  0  0
   59.5530   28.0420   47.0130 C   0  0  0  0  0  0  0  0  0  0  0  0
   59.6330   29.4100   47.4810 N   0  0  0  0  0  0  0  0  0  0  0  0
   60.3780   29.9280   48.4810 C   0  0  0  0  0  0  0  0  0  0  0  0
   60.1400   31.2420   48.5670 N   0  0  0  0  0  0  0  0  0  0  0  0
   59.2560   31.5490   47.6360 C   0  0  0  0  0  0  0  0  0  0  0  0
   57.4590   31.6580   45.6010 C   0  0  0  0  0  0  0  0  0  0  0  0
   56.6190   31.6560   44.6360 N   0  0  0  0  0  0  0  0  0  0  0  0
   59.9800   34.7370   47.6410 C   0  0  0  0  0  0  0  0  0  0  0  0
   61.3620   34.1620   47.8070 C   0  0  0  0  0  0  0  0  0  0  0  0
   61.9400   33.9890   49.0450 C   0  0  0  0  0  0  0  0  0  0  0  0
   63.2210   33.4520   49.1910 C   0  0  0  0  0  0  0  0  0  0  0  0
   63.9460   33.0760   48.0830 C   0  0  0  0  0  0  0  0  0  0  0  0
   63.3870   33.2380   46.8320 C   0  0  0  0  0  0  0  0  0  0  0  0
   62.1220   33.7700   46.7150 C   0  0  0  0  0  0  0  0  0  0  0  0
   57.7930   32.7640   46.2890 N   0  0  0  0  0  0  0  0  0  0  0  0
   58.6740   32.7330   47.2940 C   0  0  0  0  0  0  0  0  0  0  0  0
   58.9670   33.7840   47.9190 N   0  0  0  0  0  0  0  0  0  0  0  0
   56.7200   30.7200   43.5400 C   0  0  0  0  0  0  0  0  0  0  0  0
   55.9260   29.4490   43.7620 C   0  0  0  0  0  0  0  0  0  0  0  0
   55.6010   29.2620   45.1000 O   0  0  0  0  0  0  0  0  0  0  0  0
   58.0210   30.4630   45.9190 N   0  0  0  0  0  0  0  0  0  0  0  0
   58.9110   30.4250   46.9300 C   0  0  0  0  0  0  0  0  0  0  0  0
   57.8389   27.3870   48.1443 H   0  0  0  0  0  0  0  0  0  0  0  0
   57.4448   28.1979   46.5907 H   0  0  0  0  0  0  0  0  0  0  0  0
   58.0860   26.5200   46.5907 H   0  0  0  0  0  0  0  0  0  0  0  0
   60.2081   27.4142   47.6349 H   0  0  0  0  0  0  0  0  0  0  0  0
   59.8695   28.0224   45.9597 H   0  0  0  0  0  0  0  0  0  0  0  0
   61.0693   29.3610   49.1218 H   0  0  0  0  0  0  0  0  0  0  0  0
   59.8635   35.0859   46.6043 H   0  0  0  0  0  0  0  0  0  0  0  0
   59.8703   35.5653   48.3565 H   0  0  0  0  0  0  0  0  0  0  0  0
   61.3772   34.2818   49.9436 H   0  0  0  0  0  0  0  0  0  0  0  0
   63.6522   33.3291   50.1954 H   0  0  0  0  0  0  0  0  0  0  0  0
   64.9554   32.6529   48.1932 H   0  0  0  0  0  0  0  0  0  0  0  0
   63.9486   32.9439   45.9330 H   0  0  0  0  0  0  0  0  0  0  0  0
   61.6945   33.8896   45.7086 H   0  0  0  0  0  0  0  0  0  0  0  0
   57.3480   33.6700   46.0270 H   0  0  0  0  0  0  0  0  0  0  0  0
   56.3479   31.2092   42.6277 H   0  0  0  0  0  0  0  0  0  0  0  0
   57.7782   30.4321   43.4540 H   0  0  0  0  0  0  0  0  0  0  0  0
   54.9968   29.5044   43.1758 H   0  0  0  0  0  0  0  0  0  0  0  0
   56.5493   28.6005   43.4433 H   0  0  0  0  0  0  0  0  0  0  0  0
   55.5990   30.0940   45.6170 H   0  0  0  0  0  0  0  0  0  0  0  0
   57.7580   29.5960   45.3780 H   0  0  0  0  0  0  0  0  0  0  0  0
  1  2  1  0
  2  3  1  0
  3  4  1  0
  4  5  2  0
  5  6  1  0
  6  7  1  0
  7  8  2  0
  8  9  1  0
  9 10  1  0
 10 11  2  0
 11 12  1  0
 12 13  2  0
 13 14  1  0
 14 15  2  0
  7 16  1  0
 16 17  1  0
 17 18  2  0
 18 19  1  0
 19 20  1  0
 20 21  1  0
 17 22  1  0
 22 23  1  0
 23  3  1  0
 23  6  2  0
 15 10  1  0
  1 24  1  0
  1 25  1  0
  1 26  1  0
  2 27  1  0
  2 28  1  0
  4 29  1  0
  9 30  1  0
  9 31  1  0
 11 32  1  0
 12 33  1  0
 13 34  1  0
 14 35  1  0
 15 36  1  0
 16 37  1  0
 19 38  1  0
 19 39  1  0
 20 40  1  0
 20 41  1  0
 21 42  1  0
 22 43  1  0
M  END
>  <smiles>  (31) 
CCn1cnc2c(=NCc3ccccc3)[nH]c(=NCCO)[nH]c21

>  <score_type>  (31) 
oracle

>  <origin>  (31) 
adg

>  <m_score__min__energy>  (31) 
-7.46

>  <m_primary>  (31) 
energy

$$$$
31:0
     RDKit          3D

 45 47  0  0  0  0  0  0  0  0999 V2000
   59.8330   29.2810   48.4140 C   0  0  0  0  0  0  0  0  0  0  0  0
   58.6470   29.0280   47.6680 O   0  0  0  0  0  0  0  0  0  0  0  0
   58.4060   27.8640   46.9210 C   0  0  0  0  0  0  0  0  0  0  0  0
   58.7480   26.5880   47.4120 C   0  0  0  0  0  0  0  0  0  0  0  0
   58.4530   25.4410   46.6730 C   0  0  0  0  0  0  0  0  0  0  0  0
   57.8090   25.5480   45.4400 C   0  0  0  0  0  0  0  0  0  0  0  0
   57.4300   24.1040   44.5200 Cl  0  0  0  0  0  0  0  0  0  0  0  0
   57.4690   26.8070   44.9380 C   0  0  0  0  0  0  0  0  0  0  0  0
   57.7790   27.9720   45.6590 C   0  0  0  0  0  0  0  0  0  0  0  0
   57.4200   29.2520   45.1110 N   0  0  0  0  0  0  0  0  0  0  0  0
   58.2420   30.1740   44.5770 C   0  0  0  0  0  0  0  0  0  0  0  0
   57.4380   31.2300   44.2020 C   0  0  0  0  0  0  0  0  0  0  0  0
   57.8700   32.5180   43.5610 C   0  0  0  0  0  0  0  0  0  0  0  0
   57.7540   33.7160   44.5180 C   0  0  0  0  0  0  0  0  0  0  0  0
   58.5660   33.5060   45.7360 N   0  0  0  0  0  0  0  0  0  0  0  0
   59.4000   34.6900   46.0280 C   0  0  0  0  0  0  0  0  0  0  0  0
   60.0190   34.6290   47.4420 C   0  0  0  0  0  0  0  0  0  0  0  0
   60.0070   33.2670   48.0130 N   0  0  0  0  0  0  0  0  0  0  0  0
   60.9730   32.3780   47.3430 C   0  0  0  0  0  0  0  0  0  0  0  0
   58.6420   32.6880   48.0580 C   0  0  0  0  0  0  0  0  0  0  0  0
   57.7390   33.1610   46.9010 C   0  0  0  0  0  0  0  0  0  0  0  0
   56.1600   30.9140   44.4870 N   0  0  0  0  0  0  0  0  0  0  0  0
   56.1790   29.7070   45.0360 N   0  0  0  0  0  0  0  0  0  0  0  0
   59.6070   29.2328   49.4895 H   0  0  0  0  0  0  0  0  0  0  0  0
   60.5915   28.5245   48.1645 H   0  0  0  0  0  0  0  0  0  0  0  0
   60.2168   30.2812   48.1645 H   0  0  0  0  0  0  0  0  0  0  0  0
   59.2515   26.4951   48.3856 H   0  0  0  0  0  0  0  0  0  0  0  0
   58.7290   24.4505   47.0638 H   0  0  0  0  0  0  0  0  0  0  0  0
   56.9539   26.8865   43.9693 H   0  0  0  0  0  0  0  0  0  0  0  0
   59.3336   30.1004   44.4628 H   0  0  0  0  0  0  0  0  0  0  0  0
   58.9184   32.4201   43.2428 H   0  0  0  0  0  0  0  0  0  0  0  0
   57.2053   32.7065   42.7051 H   0  0  0  0  0  0  0  0  0  0  0  0
   58.1063   34.6221   44.0034 H   0  0  0  0  0  0  0  0  0  0  0  0
   56.7005   33.8245   44.8153 H   0  0  0  0  0  0  0  0  0  0  0  0
   60.2115   34.7439   45.2874 H   0  0  0  0  0  0  0  0  0  0  0  0
   58.7552   35.5798   45.9781 H   0  0  0  0  0  0  0  0  0  0  0  0
   61.0609   34.9772   47.3850 H   0  0  0  0  0  0  0  0  0  0  0  0
   59.4106   35.2689   48.0981 H   0  0  0  0  0  0  0  0  0  0  0  0
   61.5602   31.8376   48.1001 H   0  0  0  0  0  0  0  0  0  0  0  0
   60.4317   31.6556   46.7144 H   0  0  0  0  0  0  0  0  0  0  0  0
   61.6481   32.9773   46.7144 H   0  0  0  0  0  0  0  0  0  0  0  0
   58.7260   31.5923   48.0095 H   0  0  0  0  0  0  0  0  0  0  0  0
   58.1754   33.0276   48.9945 H   0  0  0  0  0  0  0  0  0  0  0  0
   57.0417   32.3551   46.6285 H   0  0  0  0  0  0  0  0  0  0  0  0
   57.1721   34.0478   47.2206 H   0  0  0  0  0  0  0  0  0  0  0  0
  1  2  1  0
  2  3  1  0
  3  4  2  0
  4  5  1  0
  5  6  2  0
  6  7  1  0
  6  8  1  0
  8  9  2  0
  9 10  1  0
 10 11  1  0
 11 12  2  0
 12 13  1  0
 13 14  1  0
 14 15  1  0
 15 16  1  0
 16 17  1  0
 17 18  1  0
 18 19  1  0
 18 20  1  0
 20 21  1  0
 12 22  1  0
 22 23  2  0
  9  3  1  0
 23 10  1  0
 21 15  1  0
  1 24  1  0
  1 25  1  0
  1 26  1  0
  4 27  1  0
  5 28  1  0
  8 29  1  0
 11 30  1  0
 13 31  1  0
 13 32  1  0
 14 33  1  0
 14 34  1  0
 16 35  1  0
 16 36  1  0
 17 37  1  0
 17 38  1  0
 19 39  1  0
 19 40  1  0
 19 41  1  0
 20 42  1  0
 20 43  1  0
 21 44  1  0
 21 45  1  0
M  END
>  <UniqueID>  (32) 
28

>  <SMILES>  (32) 
COc1ccc(Cl)cc1-n1cc(CCN2CCN(C)CC2)nn1

>  <Energy>  (32) 
91.04729499883557

>  <Genealogy>  (32) 
COc1ccc(Cl)cc1-n1cc(CCN2CCN(C)CC2)nn1 (3D coordinates assigned)
COc1ccc(Cl)cc1-n1cc(CCN2CCN(C)CC2)nn1 (nonaromatic ring conformer: 91.04729499883557 kcal/mol)

>  <smiles>  (32) 
COc1ccc(Cl)cc1-n1cc(CCN2CCN(C)CC2)nn1

>  <score_type>  (32) 
oracle

>  <origin>  (32) 
adg

>  <m_score__min__energy>  (32) 
-8.2100000000000009

>  <m_primary>  (32) 
energy

$$$$
32:0
     RDKit          3D

 56 59  0  0  0  0  0  0  0  0999 V2000
   63.3750   34.5910   50.8270 C   0  0  0  0  0  0  0  0  0  0  0  0
   62.5370   34.6570   49.6790 O   0  0  0  0  0  0  0  0  0  0  0  0
   61.7990   33.5780   49.1720 C   0  0  0  0  0  0  0  0  0  0  0  0
   60.3970   33.5030   49.2860 C   0  0  0  0  0  0  0  0  0  0  0  0
   59.7060   32.4040   48.7640 C   0  0  0  0  0  0  0  0  0  0  0  0
   60.4040   31.3730   48.1220 C   0  0  0  0  0  0  0  0  0  0  0  0
   59.6920   30.2470   47.5810 N   0  0  0  0  0  0  0  0  0  0  0  0
   59.6790   28.9930   48.2990 C   0  0  0  0  0  0  0  0  0  0  0  0
   60.1360   28.8920   49.5150 N   0  0  0  0  0  0  0  0  0  0  0  0
   59.1530   27.7830   47.5930 C   0  0  2  0  0  0  0  0  0  0  0  0
   60.2140   27.2740   46.7060 C   0  0  0  0  0  0  0  0  0  0  0  0
   61.0470   26.8710   46.0090 N   0  0  0  0  0  0  0  0  0  0  0  0
   57.8620   28.1670   46.8320 C   0  0  2  0  0  0  0  0  0  0  0  0
   57.3330   26.9610   46.0600 C   0  0  0  0  0  0  0  0  0  0  0  0
   57.8850   26.5820   44.8190 C   0  0  0  0  0  0  0  0  0  0  0  0
   57.4060   25.4540   44.1460 C   0  0  0  0  0  0  0  0  0  0  0  0
   56.3850   24.6850   44.7070 C   0  0  0  0  0  0  0  0  0  0  0  0
   55.8420   25.0400   45.9430 C   0  0  0  0  0  0  0  0  0  0  0  0
   56.3150   26.1680   46.6200 C   0  0  0  0  0  0  0  0  0  0  0  0
   58.0360   29.4300   45.9800 C   0  0  0  0  0  0  0  0  0  0  0  0
   58.9400   30.3800   46.3450 C   0  0  0  0  0  0  0  0  0  0  0  0
   59.2400   31.5370   45.3960 C   0  0  0  0  0  0  0  0  0  0  0  0
   57.9870   32.0580   44.6560 C   0  0  0  0  0  0  0  0  0  0  0  0
   58.4130   33.1010   43.6040 C   0  0  0  0  0  0  0  0  0  0  0  0
   57.0160   32.7330   45.6550 C   0  0  0  0  0  0  0  0  0  0  0  0
   57.3030   30.8740   43.9440 C   0  0  0  0  0  0  0  0  0  0  0  0
   57.0580   29.7400   44.8960 C   0  0  0  0  0  0  0  0  0  0  0  0
   56.0000   29.0670   44.7720 O   0  0  0  0  0  0  0  0  0  0  0  0
   61.7980   31.4440   48.0110 C   0  0  0  0  0  0  0  0  0  0  0  0
   62.4890   32.5410   48.5330 C   0  0  0  0  0  0  0  0  0  0  0  0
   62.7568   34.6397   51.7355 H   0  0  0  0  0  0  0  0  0  0  0  0
   63.9375   33.6458   50.8165 H   0  0  0  0  0  0  0  0  0  0  0  0
   64.0786   35.4365   50.8165 H   0  0  0  0  0  0  0  0  0  0  0  0
   59.8437   34.3110   49.7870 H   0  0  0  0  0  0  0  0  0  0  0  0
   58.6114   32.3494   48.8580 H   0  0  0  0  0  0  0  0  0  0  0  0
   59.5440   29.1510   50.3360 H   0  0  0  0  0  0  0  0  0  0  0  0
   61.1070   28.5690   49.7220 H   0  0  0  0  0  0  0  0  0  0  0  0
   58.8854   26.9798   48.2953 H   0  0  0  0  0  0  0  0  0  0  0  0
   57.0888   28.4429   47.5641 H   0  0  0  0  0  0  0  0  0  0  0  0
   58.6976   27.1776   44.3776 H   0  0  0  0  0  0  0  0  0  0  0  0
   57.8344   25.1721   43.1729 H   0  0  0  0  0  0  0  0  0  0  0  0
   56.0082   23.7990   44.1750 H   0  0  0  0  0  0  0  0  0  0  0  0
   55.0400   24.4308   46.3854 H   0  0  0  0  0  0  0  0  0  0  0  0
   55.8881   26.4373   47.5974 H   0  0  0  0  0  0  0  0  0  0  0  0
   59.6711   32.3644   45.9787 H   0  0  0  0  0  0  0  0  0  0  0  0
   59.9377   31.1615   44.6330 H   0  0  0  0  0  0  0  0  0  0  0  0
   58.7820   34.0043   44.1118 H   0  0  0  0  0  0  0  0  0  0  0  0
   59.2120   32.6819   42.9747 H   0  0  0  0  0  0  0  0  0  0  0  0
   57.5491   33.3611   42.9747 H   0  0  0  0  0  0  0  0  0  0  0  0
   57.3355   32.5109   46.6839 H   0  0  0  0  0  0  0  0  0  0  0  0
   57.0239   33.8213   45.4955 H   0  0  0  0  0  0  0  0  0  0  0  0
   55.9986   32.3464   45.4955 H   0  0  0  0  0  0  0  0  0  0  0  0
   56.3407   31.2105   43.5308 H   0  0  0  0  0  0  0  0  0  0  0  0
   57.9655   30.5191   43.1408 H   0  0  0  0  0  0  0  0  0  0  0  0
   62.3506   30.6344   47.5118 H   0  0  0  0  0  0  0  0  0  0  0  0
   63.5840   32.5900   48.4410 H   0  0  0  0  0  0  0  0  0  0  0  0
  1  2  1  0
  2  3  1  0
  3  4  2  0
  4  5  1  0
  5  6  2  0
  6  7  1  0
  7  8  1  0
  8  9  2  0
  8 10  1  0
 10 11  1  0
 11 12  3  0
 10 13  1  0
 13 14  1  0
 14 15  2  0
 15 16  1  0
 16 17  2  0
 17 18  1  0
 18 19  2  0
 13 20  1  0
 20 21  2  0
 21 22  1  0
 22 23  1  0
 23 24  1  0
 23 25  1  0
 23 26  1  0
 26 27  1  0
 27 28  2  0
  6 29  1  0
 29 30  2  0
 30  3  1  0
 21  7  1  0
 19 14  1  0
 27 20  1  0
  1 31  1  0
  1 32  1  0
  1 33  1  0
  4 34  1  0
  5 35  1  0
  9 36  1  0
  9 37  1  0
 10 38  1  1
 13 39  1  1
 15 40  1  0
 16 41  1  0
 17 42  1  0
 18 43  1  0
 19 44  1  0
 22 45  1  0
 22 46  1  0
 24 47  1  0
 24 48  1  0
 24 49  1  0
 25 50  1  0
 25 51  1  0
 25 52  1  0
 26 53  1  0
 26 54  1  0
 29 55  1  0
 30 56  1  0
M  CHG  1   9   1
M  END
>  <UniqueID>  (33) 
29

>  <SMILES>  (33) 
COc1ccc(N2C(=[NH2+])[C@H](C#N)[C@H](c3ccccc3)C3=C2CC(C)(C)CC3=O)cc1

>  <Energy>  (33) 
72.05292655599621

>  <Genealogy>  (33) 
COc1ccc(N2C(=[NH2+])C(C#N)C(c3ccccc3)C3=C2CC(C)(C)CC3=O)cc1 (protonated)
COc1ccc(N2C(=[NH2+])[C@H](C#N)[C@H](c3ccccc3)C3=C2CC(C)(C)CC3=O)cc1 (chirality)
COc1ccc(N2C(=[NH2+])[C@H](C#N)[C@H](c3ccccc3)C3=C2CC(C)(C)CC3=O)cc1 (3D coordinates assigned)
COc1ccc(N2C(=[NH2+])[C@H](C#N)[C@H](c3ccccc3)C3=C2CC(C)(C)CC3=O)cc1 (nonaromatic ring conformer: 72.05292655599621 kcal/mol)

>  <smiles>  (33) 
COc1ccc(N2C(=N)C(C#N)C(c3ccccc3)C3=C2CC(C)(C)CC3=O)cc1

>  <score_type>  (33) 
oracle

>  <origin>  (33) 
adg

>  <m_score__min__energy>  (33) 
-6.75

>  <m_primary>  (33) 
energy

$$$$
33:0
     RDKit          3D

 32 33  0  0  0  0  0  0  0  0999 V2000
   59.4384   24.5436   46.0527 H   0  0  0  0  0  0  0  0  0  0  0  0
   58.9110   25.5040   46.1500 C   0  0  0  0  0  0  0  0  0  0  0  0
   57.6100   25.5280   46.8490 C   0  0  0  0  0  0  0  0  0  0  0  0
   57.4830   26.2820   47.8510 O   0  0  0  0  0  0  0  0  0  0  0  0
   56.4510   24.7060   46.4240 C   0  0  0  0  0  0  0  0  0  0  0  0
   56.5190   23.3010   46.4950 C   0  0  0  0  0  0  0  0  0  0  0  0
   57.6760   22.6680   46.9380 O   0  0  0  0  0  0  0  0  0  0  0  0
   55.4230   22.5230   46.1060 C   0  0  0  0  0  0  0  0  0  0  0  0
   55.4832   21.4260   46.1596 H   0  0  0  0  0  0  0  0  0  0  0  0
   54.2530   23.1340   45.6500 C   0  0  0  0  0  0  0  0  0  0  0  0
   53.1700   22.3570   45.2590 O   0  0  0  0  0  0  0  0  0  0  0  0
   54.1710   24.5270   45.5900 C   0  0  0  0  0  0  0  0  0  0  0  0
   53.2479   25.0064   45.2322 H   0  0  0  0  0  0  0  0  0  0  0  0
   55.2580   25.3150   45.9830 C   0  0  0  0  0  0  0  0  0  0  0  0
   55.1370   26.7010   45.9480 O   0  0  0  0  0  0  0  0  0  0  0  0
   59.4780   26.6040   45.6280 C   0  0  0  0  0  0  0  0  0  0  0  0
   60.5456   26.5625   45.3663 H   0  0  0  0  0  0  0  0  0  0  0  0
   58.7470   27.8720   45.3840 C   0  0  0  0  0  0  0  0  0  0  0  0
   57.8630   28.0430   44.3010 C   0  0  0  0  0  0  0  0  0  0  0  0
   57.7015   27.2173   43.5924 H   0  0  0  0  0  0  0  0  0  0  0  0
   57.1890   29.2550   44.1200 C   0  0  0  0  0  0  0  0  0  0  0  0
   56.5072   29.3793   43.2658 H   0  0  0  0  0  0  0  0  0  0  0  0
   57.3780   30.3160   45.0240 C   0  0  0  0  0  0  0  0  0  0  0  0
   56.7270   31.5510   44.8830 O   0  0  0  0  0  0  0  0  0  0  0  0
   57.3800   32.8150   44.9340 C   0  0  0  0  0  0  0  0  0  0  0  0
   57.5311   33.1075   45.9836 H   0  0  0  0  0  0  0  0  0  0  0  0
   58.3547   32.7448   44.4289 H   0  0  0  0  0  0  0  0  0  0  0  0
   56.7588   33.5693   44.4289 H   0  0  0  0  0  0  0  0  0  0  0  0
   58.2450   30.1410   46.1070 C   0  0  0  0  0  0  0  0  0  0  0  0
   58.3987   30.9639   46.8206 H   0  0  0  0  0  0  0  0  0  0  0  0
   58.9180   28.9300   46.2910 C   0  0  0  0  0  0  0  0  0  0  0  0
   59.5879   28.8046   47.1544 H   0  0  0  0  0  0  0  0  0  0  0  0
  1  2  1  0
  2  3  1  0
  3  4  2  0
  3  5  1  0
  5  6  2  0
  6  7  1  0
  6  8  1  0
  8  9  1  0
  8 10  2  0
 10 11  1  0
 10 12  1  0
 12 13  1  0
 12 14  2  0
 14 15  1  0
  2 16  2  0
 16 17  1  0
 16 18  1  0
 18 19  2  0
 19 20  1  0
 19 21  1  0
 21 22  1  0
 21 23  2  0
 23 24  1  0
 24 25  1  0
 25 26  1  0
 25 27  1  0
 25 28  1  0
 23 29  1  0
 29 30  1  0
 29 31  2  0
 31 32  1  0
 14  5  1  0
 31 18  1  0
M  CHG  3   7  -1  11  -1  15  -1
M  END
>  <UniqueID>  (34) 
30

>  <SMILES>  (34) 
COc1ccc(/C=C/C(=O)c2c([O-])cc([O-])cc2[O-])cc1

>  <Energy>  (34) 
41.743676509300386

>  <Genealogy>  (34) 
COc1ccc(C=CC(=O)c2c([O-])cc([O-])cc2[O-])cc1 (protonated)
COc1ccc(/C=C/C(=O)c2c([O-])cc([O-])cc2[O-])cc1 (cis-trans isomerization)
COc1ccc(/C=C/C(=O)c2c([O-])cc([O-])cc2[O-])cc1 (3D coordinates assigned)
COc1ccc(/C=C/C(=O)c2c([O-])cc([O-])cc2[O-])cc1 (optimized conformer: 41.743676509300386 kcal/mol)

>  <smiles>  (34) 
COc1ccc(C=CC(=O)c2c(O)cc(O)cc2O)cc1

>  <score_type>  (34) 
oracle

>  <origin>  (34) 
adg

>  <m_score__min__energy>  (34) 
-13.82

>  <m_primary>  (34) 
energy

$$$$
34:0
     RDKit          3D

 51 53  0  0  1  0  0  0  0  0999 V2000
   60.4490   28.6610   49.4930 C   0  0  0  0  0  0  0  0  0  0  0  0
   59.4200   28.3280   48.6230 O   0  0  0  0  0  0  0  0  0  0  0  0
   58.9610   28.9910   47.5280 C   0  0  0  0  0  0  0  0  0  0  0  0
   58.9650   30.3880   47.4680 C   0  0  0  0  0  0  0  0  0  0  0  0
   58.4950   31.0640   46.3570 C   0  0  0  0  0  0  0  0  0  0  0  0
   58.4760   32.4140   46.2810 N   0  0  0  0  0  0  0  0  0  0  0  0
   57.9880   33.0240   45.1640 C   0  0  0  0  0  0  0  0  0  0  0  0
   58.0100   34.3080   45.1750 N   0  0  0  0  0  0  0  0  0  0  0  0
   59.2560   34.9900   45.3070 C   0  0  0  0  0  0  0  0  0  0  0  0
   59.6200   35.3200   46.7490 C   0  0  0  0  0  0  0  0  0  0  0  0
   60.4650   34.2790   47.2290 N   0  0  0  0  0  0  0  0  0  0  0  0
   60.7160   34.2440   48.6220 C   0  0  0  0  0  0  0  0  0  0  0  0
   61.7020   33.1680   48.9710 C   0  0  0  0  0  0  0  0  0  0  0  0
   62.9330   33.2120   48.2440 N   0  0  0  0  0  0  0  0  0  0  0  0
   63.3810   31.8170   48.1170 C   0  0  0  0  0  0  0  0  0  0  0  0
   62.8710   33.8260   46.9570 C   0  0  0  0  0  0  0  0  0  0  0  0
   61.4910   33.8300   46.3570 C   0  0  0  0  0  0  0  0  0  0  0  0
   57.5190   32.3110   44.1240 N   0  0  0  0  0  0  0  0  0  0  0  0
   57.5350   30.9690   44.1910 C   0  0  0  0  0  0  0  0  0  0  0  0
   57.0900   30.2740   43.1960 N   0  0  0  0  0  0  0  0  0  0  0  0
   58.0160   30.3410   45.2940 C   0  0  0  0  0  0  0  0  0  0  0  0
   58.0190   28.9530   45.3680 C   0  0  0  0  0  0  0  0  0  0  0  0
   58.4750   28.2450   46.4490 C   0  0  0  0  0  0  0  0  0  0  0  0
   58.4970   26.8790   46.5650 O   0  0  0  0  0  0  0  0  0  0  0  0
   59.6500   26.1050   46.3940 C   0  0  0  0  0  0  0  0  0  0  0  0
   60.1024   28.5488   50.5309 H   0  0  0  0  0  0  0  0  0  0  0  0
   61.3066   27.9945   49.3188 H   0  0  0  0  0  0  0  0  0  0  0  0
   60.7535   29.7036   49.3188 H   0  0  0  0  0  0  0  0  0  0  0  0
   59.3506   30.9620   48.3235 H   0  0  0  0  0  0  0  0  0  0  0  0
   58.8410   32.9860   47.0800 H   0  0  0  0  0  0  0  0  0  0  0  0
   60.0476   34.3531   44.8854 H   0  0  0  0  0  0  0  0  0  0  0  0
   59.1592   35.9460   44.7715 H   0  0  0  0  0  0  0  0  0  0  0  0
   60.1502   36.2829   46.7910 H   0  0  0  0  0  0  0  0  0  0  0  0
   58.7140   35.3983   47.3678 H   0  0  0  0  0  0  0  0  0  0  0  0
   61.1205   35.2169   48.9379 H   0  0  0  0  0  0  0  0  0  0  0  0
   59.7697   34.0294   49.1402 H   0  0  0  0  0  0  0  0  0  0  0  0
   61.9360   33.2551   50.0423 H   0  0  0  0  0  0  0  0  0  0  0  0
   61.2224   32.2152   48.7025 H   0  0  0  0  0  0  0  0  0  0  0  0
   63.5201   31.3839   49.1186 H   0  0  0  0  0  0  0  0  0  0  0  0
   62.6239   31.2372   47.5687 H   0  0  0  0  0  0  0  0  0  0  0  0
   64.3341   31.7865   47.5687 H   0  0  0  0  0  0  0  0  0  0  0  0
   63.2119   34.8675   47.0519 H   0  0  0  0  0  0  0  0  0  0  0  0
   63.5124   33.2351   46.2866 H   0  0  0  0  0  0  0  0  0  0  0  0
   61.5030   34.4875   45.4752 H   0  0  0  0  0  0  0  0  0  0  0  0
   61.2555   32.7833   46.1141 H   0  0  0  0  0  0  0  0  0  0  0  0
   57.1380   32.7670   43.2680 H   0  0  0  0  0  0  0  0  0  0  0  0
   57.7770   29.7110   42.6140 H   0  0  0  0  0  0  0  0  0  0  0  0
   57.6319   28.3888   44.5067 H   0  0  0  0  0  0  0  0  0  0  0  0
   60.0574   25.8315   47.3785 H   0  0  0  0  0  0  0  0  0  0  0  0
   59.3990   25.1918   45.8345 H   0  0  0  0  0  0  0  0  0  0  0  0
   60.4001   26.6832   45.8345 H   0  0  0  0  0  0  0  0  0  0  0  0
  1  2  1  0
  2  3  1  0
  3  4  2  0
  4  5  1  0
  5  6  1  0
  6  7  1  0
  7  8  2  0
  8  9  1  0
  9 10  1  0
 10 11  1  0
 11 12  1  0
 12 13  1  0
 13 14  1  0
 14 15  1  0
 14 16  1  0
 16 17  1  0
  7 18  1  0
 18 19  1  0
 19 20  2  3
 19 21  1  0
 21 22  1  0
 22 23  2  0
 23 24  1  0
 24 25  1  0
 23  3  1  0
 21  5  2  0
 17 11  1  0
  1 26  1  0
  1 27  1  0
  1 28  1  0
  4 29  1  0
  6 30  1  0
  9 31  1  0
  9 32  1  0
 10 33  1  0
 10 34  1  0
 12 35  1  0
 12 36  1  0
 13 37  1  0
 13 38  1  0
 15 39  1  0
 15 40  1  0
 15 41  1  0
 16 42  1  0
 16 43  1  0
 17 44  1  0
 17 45  1  0
 18 46  1  0
 20 47  1  0
 22 48  1  0
 25 49  1  0
 25 50  1  0
 25 51  1  0
M  END
>  <smiles>  (35) 
COc1cc2[nH]c(=NCCN3CCN(C)CC3)[nH]c(=N)c2cc1OC

>  <score_type>  (35) 
oracle

>  <origin>  (35) 
adg

>  <m_score__min__energy>  (35) 
-6.3600000000000003

>  <m_primary>  (35) 
energy

$$$$
35:0
     RDKit          3D

 46 49  0  0  0  0  0  0  0  0999 V2000
   58.5150   32.6550   49.0410 Cl  0  0  0  0  0  0  0  0  0  0  0  0
   58.6700   33.3820   47.4470 C   0  0  0  0  0  0  0  0  0  0  0  0
   57.5110   33.6530   46.7080 C   0  0  0  0  0  0  0  0  0  0  0  0
   57.6080   34.2170   45.4320 C   0  0  0  0  0  0  0  0  0  0  0  0
   58.8630   34.5100   44.8880 C   0  0  0  0  0  0  0  0  0  0  0  0
   60.0230   34.2440   45.6200 C   0  0  0  0  0  0  0  0  0  0  0  0
   59.9330   33.6820   46.9030 C   0  0  0  0  0  0  0  0  0  0  0  0
   61.1340   33.4210   47.6410 N   0  0  0  0  0  0  0  0  0  0  0  0
   61.3640   34.1390   48.8950 C   0  0  0  0  0  0  0  0  0  0  0  0
   62.6100   33.6000   49.6080 C   0  0  0  0  0  0  0  0  0  0  0  0
   62.7240   32.1260   49.4790 N   0  0  0  0  0  0  0  0  0  0  0  0
   61.5890   31.3870   50.0920 C   0  0  0  0  0  0  0  0  0  0  0  0
   61.0110   30.3610   49.1610 C   0  0  0  0  0  0  0  0  0  0  0  0
   61.0800   28.9930   49.3220 C   0  0  0  0  0  0  0  0  0  0  0  0
   60.3900   28.4570   48.2550 C   0  0  0  0  0  0  0  0  0  0  0  0
   59.9380   29.5380   47.5100 C   0  0  0  0  0  0  0  0  0  0  0  0
   59.1320   29.4940   46.2690 C   0  0  0  0  0  0  0  0  0  0  0  0
   58.8890   30.6790   45.5590 C   0  0  0  0  0  0  0  0  0  0  0  0
   58.1260   30.6420   44.3890 C   0  0  0  0  0  0  0  0  0  0  0  0
   57.6220   29.4630   43.9380 N   0  0  0  0  0  0  0  0  0  0  0  0
   57.8410   28.2990   44.6010 C   0  0  0  0  0  0  0  0  0  0  0  0
   58.5980   28.2910   45.7750 C   0  0  0  0  0  0  0  0  0  0  0  0
   60.3270   30.6560   48.0810 O   0  0  0  0  0  0  0  0  0  0  0  0
   62.9200   31.7240   48.0590 C   0  0  0  0  0  0  0  0  0  0  0  0
   62.2060   32.6310   47.0280 C   0  0  0  0  0  0  0  0  0  0  0  0
   56.5228   33.4217   47.1323 H   0  0  0  0  0  0  0  0  0  0  0  0
   56.6960   34.4306   44.8552 H   0  0  0  0  0  0  0  0  0  0  0  0
   58.9367   34.9504   43.8827 H   0  0  0  0  0  0  0  0  0  0  0  0
   61.0086   34.4755   45.1900 H   0  0  0  0  0  0  0  0  0  0  0  0
   61.5063   35.2080   48.6781 H   0  0  0  0  0  0  0  0  0  0  0  0
   60.4920   33.9950   49.5498 H   0  0  0  0  0  0  0  0  0  0  0  0
   63.5029   34.0663   49.1660 H   0  0  0  0  0  0  0  0  0  0  0  0
   62.5248   33.8442   50.6772 H   0  0  0  0  0  0  0  0  0  0  0  0
   63.5880   31.8410   49.9990 H   0  0  0  0  0  0  0  0  0  0  0  0
   61.9460   30.8798   51.0004 H   0  0  0  0  0  0  0  0  0  0  0  0
   60.7982   32.1154   50.3245 H   0  0  0  0  0  0  0  0  0  0  0  0
   61.5811   28.4438   50.1327 H   0  0  0  0  0  0  0  0  0  0  0  0
   60.2303   27.3904   48.0383 H   0  0  0  0  0  0  0  0  0  0  0  0
   59.2975   31.6337   45.9218 H   0  0  0  0  0  0  0  0  0  0  0  0
   57.9326   31.5701   43.8311 H   0  0  0  0  0  0  0  0  0  0  0  0
   57.4212   27.3593   44.2127 H   0  0  0  0  0  0  0  0  0  0  0  0
   58.7756   27.3469   46.3109 H   0  0  0  0  0  0  0  0  0  0  0  0
   63.9984   31.7421   47.8431 H   0  0  0  0  0  0  0  0  0  0  0  0
   62.4756   30.7232   47.9542 H   0  0  0  0  0  0  0  0  0  0  0  0
   62.9444   33.3165   46.5866 H   0  0  0  0  0  0  0  0  0  0  0  0
   61.7553   31.9841   46.2610 H   0  0  0  0  0  0  0  0  0  0  0  0
  1  2  1  0
  2  3  2  0
  3  4  1  0
  4  5  2  0
  5  6  1  0
  6  7  2  0
  7  8  1  0
  8  9  1  0
  9 10  1  0
 10 11  1  0
 11 12  1  0
 12 13  1  0
 13 14  2  0
 14 15  1  0
 15 16  2  0
 16 17  1  0
 17 18  2  0
 18 19  1  0
 19 20  2  0
 20 21  1  0
 21 22  2  0
 16 23  1  0
 11 24  1  0
 24 25  1  0
  7  2  1  0
 25  8  1  0
 23 13  1  0
 22 17  1  0
  3 26  1  0
  4 27  1  0
  5 28  1  0
  6 29  1  0
  9 30  1  0
  9 31  1  0
 10 32  1  0
 10 33  1  0
 11 34  1  0
 12 35  1  0
 12 36  1  0
 14 37  1  0
 15 38  1  0
 18 39  1  0
 19 40  1  0
 21 41  1  0
 22 42  1  0
 24 43  1  0
 24 44  1  0
 25 45  1  0
 25 46  1  0
M  CHG  1  11   1
M  END
>  <UniqueID>  (36) 
31

>  <SMILES>  (36) 
Clc1ccccc1N1CC[NH+](Cc2ccc(-c3ccncc3)o2)CC1

>  <Energy>  (36) 
91.43172216231787

>  <Genealogy>  (36) 
Clc1ccccc1N1CC[NH+](Cc2ccc(-c3ccncc3)o2)CC1 (protonated)
Clc1ccccc1N1CC[NH+](Cc2ccc(-c3ccncc3)o2)CC1 (3D coordinates assigned)
Clc1ccccc1N1CC[NH+](Cc2ccc(-c3ccncc3)o2)CC1 (nonaromatic ring conformer: 91.43172216231787 kcal/mol)

>  <smiles>  (36) 
Clc1ccccc1N1CCN(Cc2ccc(-c3ccncc3)o2)CC1

>  <score_type>  (36) 
oracle

>  <origin>  (36) 
adg

>  <m_score__min__energy>  (36) 
-6.1100000000000003

>  <m_primary>  (36) 
energy

$$$$
36:0
     RDKit          3D

 63 66  0  0  0  0  0  0  0  0999 V2000
   57.0490   33.4440   46.5110 C   0  0  0  0  0  0  0  0  0  0  0  0
   57.3720   34.1300   45.1830 C   0  0  0  0  0  0  0  0  0  0  0  0
   58.4930   33.4270   44.4030 C   0  0  0  0  0  0  0  0  0  0  0  0
   58.0590   32.0580   43.8540 C   0  0  0  0  0  0  0  0  0  0  0  0
   58.4880   30.9170   44.7770 C   0  0  0  0  0  0  0  0  0  0  0  0
   57.3400   30.2840   45.3370 O   0  0  0  0  0  0  0  0  0  0  0  0
   56.6490   29.2610   44.6840 C   0  0  0  0  0  0  0  0  0  0  0  0
   55.5330   28.8680   45.1120 O   0  0  0  0  0  0  0  0  0  0  0  0
   57.1910   28.6640   43.5080 N   0  0  0  0  0  0  0  0  0  0  0  0
   58.4130   27.4350   43.5550 S   0  0  0  0  0  0  0  0  0  0  0  0
   58.8120   27.0870   42.1480 O   0  0  0  0  0  0  0  0  0  0  0  0
   59.6060   27.9460   44.3140 O   0  0  0  0  0  0  0  0  0  0  0  0
   57.7760   25.9820   44.3440 C   0  0  0  0  0  0  0  0  0  0  0  0
   57.0940   25.0280   43.5730 C   0  0  0  0  0  0  0  0  0  0  0  0
   56.6220   23.8490   44.1550 C   0  0  0  0  0  0  0  0  0  0  0  0
   56.8260   23.6110   45.5140 C   0  0  0  0  0  0  0  0  0  0  0  0
   57.4920   24.5540   46.2980 C   0  0  0  0  0  0  0  0  0  0  0  0
   57.9590   25.7480   45.7290 C   0  0  0  0  0  0  0  0  0  0  0  0
   58.6180   26.7370   46.6030 C   0  0  0  0  0  0  0  0  0  0  0  0
   59.9670   26.5780   46.9530 C   0  0  0  0  0  0  0  0  0  0  0  0
   60.5850   27.4930   47.8080 C   0  0  0  0  0  0  0  0  0  0  0  0
   59.8620   28.5790   48.3240 C   0  0  0  0  0  0  0  0  0  0  0  0
   60.5190   29.5290   49.2890 C   0  0  0  0  0  0  0  0  0  0  0  0
   59.9750   30.8830   49.1270 N   0  0  0  0  0  0  0  0  0  0  0  0
   58.9440   31.4610   49.8050 C   0  0  0  0  0  0  0  0  0  0  0  0
   58.1540   30.7850   50.8800 C   0  0  0  0  0  0  0  0  0  0  0  0
   58.7500   32.7660   49.4840 N   0  0  0  0  0  0  0  0  0  0  0  0
   59.7050   32.9990   48.5650 C   0  0  0  0  0  0  0  0  0  0  0  0
   59.9780   34.1980   47.9140 C   0  0  0  0  0  0  0  0  0  0  0  0
   59.2250   35.3050   48.1370 F   0  0  0  0  0  0  0  0  0  0  0  0
   61.0570   34.2250   47.0100 C   0  0  0  0  0  0  0  0  0  0  0  0
   61.8290   33.0640   46.7860 C   0  0  0  0  0  0  0  0  0  0  0  0
   61.5310   31.8680   47.4640 C   0  0  0  0  0  0  0  0  0  0  0  0
   60.4510   31.8750   48.3520 C   0  0  0  0  0  0  0  0  0  0  0  0
   58.5150   28.7480   47.9580 C   0  0  0  0  0  0  0  0  0  0  0  0
   57.8980   27.8350   47.0970 C   0  0  0  0  0  0  0  0  0  0  0  0
   57.3552   34.0943   47.3436 H   0  0  0  0  0  0  0  0  0  0  0  0
   55.9671   33.2547   46.5723 H   0  0  0  0  0  0  0  0  0  0  0  0
   57.5923   32.4895   46.5723 H   0  0  0  0  0  0  0  0  0  0  0  0
   56.4640   34.1375   44.5621 H   0  0  0  0  0  0  0  0  0  0  0  0
   57.7192   35.1479   45.4137 H   0  0  0  0  0  0  0  0  0  0  0  0
   58.7908   34.0671   43.5594 H   0  0  0  0  0  0  0  0  0  0  0  0
   59.3290   33.2588   45.0978 H   0  0  0  0  0  0  0  0  0  0  0  0
   56.9635   32.0443   43.7557 H   0  0  0  0  0  0  0  0  0  0  0  0
   58.5441   31.9104   42.8779 H   0  0  0  0  0  0  0  0  0  0  0  0
   59.0654   30.1795   44.2002 H   0  0  0  0  0  0  0  0  0  0  0  0
   59.1079   31.3239   45.5895 H   0  0  0  0  0  0  0  0  0  0  0  0
   56.9296   25.2103   42.5007 H   0  0  0  0  0  0  0  0  0  0  0  0
   56.0892   23.1079   43.5411 H   0  0  0  0  0  0  0  0  0  0  0  0
   56.4612   22.6782   45.9687 H   0  0  0  0  0  0  0  0  0  0  0  0
   57.6517   24.3597   47.3689 H   0  0  0  0  0  0  0  0  0  0  0  0
   60.5404   25.7291   46.5523 H   0  0  0  0  0  0  0  0  0  0  0  0
   61.6432   27.3617   48.0781 H   0  0  0  0  0  0  0  0  0  0  0  0
   60.3348   29.1854   50.3176 H   0  0  0  0  0  0  0  0  0  0  0  0
   61.5997   29.5527   49.0854 H   0  0  0  0  0  0  0  0  0  0  0  0
   58.5267   31.1039   51.8646 H   0  0  0  0  0  0  0  0  0  0  0  0
   57.0932   31.0593   50.7831 H   0  0  0  0  0  0  0  0  0  0  0  0
   58.2611   29.6945   50.7831 H   0  0  0  0  0  0  0  0  0  0  0  0
   61.2999   35.1552   46.4755 H   0  0  0  0  0  0  0  0  0  0  0  0
   62.6691   33.0950   46.0765 H   0  0  0  0  0  0  0  0  0  0  0  0
   62.1274   30.9582   47.3011 H   0  0  0  0  0  0  0  0  0  0  0  0
   57.9439   29.6022   48.3507 H   0  0  0  0  0  0  0  0  0  0  0  0
   56.8467   27.9780   46.8067 H   0  0  0  0  0  0  0  0  0  0  0  0
  1  2  1  0
  2  3  1  0
  3  4  1  0
  4  5  1  0
  5  6  1  0
  6  7  1  0
  7  8  2  0
  7  9  1  0
  9 10  1  0
 10 11  2  0
 10 12  2  0
 10 13  1  0
 13 14  2  0
 14 15  1  0
 15 16  2  0
 16 17  1  0
 17 18  2  0
 18 19  1  0
 19 20  2  0
 20 21  1  0
 21 22  2  0
 22 23  1  0
 23 24  1  0
 24 25  1  0
 25 26  1  0
 25 27  2  0
 27 28  1  0
 28 29  2  0
 29 30  1  0
 29 31  1  0
 31 32  2  0
 32 33  1  0
 33 34  2  0
 22 35  1  0
 35 36  2  0
 18 13  1  0
 36 19  1  0
 34 24  1  0
 34 28  1  0
  1 37  1  0
  1 38  1  0
  1 39  1  0
  2 40  1  0
  2 41  1  0
  3 42  1  0
  3 43  1  0
  4 44  1  0
  4 45  1  0
  5 46  1  0
  5 47  1  0
 14 48  1  0
 15 49  1  0
 16 50  1  0
 17 51  1  0
 20 52  1  0
 21 53  1  0
 23 54  1  0
 23 55  1  0
 26 56  1  0
 26 57  1  0
 26 58  1  0
 31 59  1  0
 32 60  1  0
 33 61  1  0
 35 62  1  0
 36 63  1  0
M  CHG  1   9  -1
M  END
>  <UniqueID>  (37) 
32

>  <SMILES>  (37) 
CCCCCOC(=O)[N-]S(=O)(=O)c1ccccc1-c1ccc(Cn2c(C)nc3c(F)cccc32)cc1

>  <Energy>  (37) 
100.27578775619698

>  <Genealogy>  (37) 
CCCCCOC(=O)[N-]S(=O)(=O)c1ccccc1-c1ccc(Cn2c(C)nc3c(F)cccc32)cc1 (protonated)
CCCCCOC(=O)[N-]S(=O)(=O)c1ccccc1-c1ccc(Cn2c(C)nc3c(F)cccc32)cc1 (3D coordinates assigned)
CCCCCOC(=O)[N-]S(=O)(=O)c1ccccc1-c1ccc(Cn2c(C)nc3c(F)cccc32)cc1 (optimized conformer: 100.27578775619698 kcal/mol)

>  <smiles>  (37) 
CCCCCOC(=O)NS(=O)(=O)c1ccccc1-c1ccc(Cn2c(C)nc3c(F)cccc32)cc1

>  <score_type>  (37) 
oracle

>  <origin>  (37) 
adg

>  <m_score__min__energy>  (37) 
-10.82

>  <m_primary>  (37) 
energy

$$$$
37:0
     RDKit          3D

 68 71  0  0  0  0  0  0  0  0999 V2000
   58.4750   33.9290   52.5050 C   0  0  0  0  0  0  0  0  0  0  0  0
   58.9930   33.8390   51.1820 O   0  0  0  0  0  0  0  0  0  0  0  0
   59.0730   32.6540   50.4320 C   0  0  0  0  0  0  0  0  0  0  0  0
   58.9890   31.3880   51.0460 C   0  0  0  0  0  0  0  0  0  0  0  0
   59.0310   30.2200   50.2800 C   0  0  0  0  0  0  0  0  0  0  0  0
   59.1340   30.3000   48.8930 C   0  0  0  0  0  0  0  0  0  0  0  0
   59.2190   31.5460   48.2680 C   0  0  0  0  0  0  0  0  0  0  0  0
   59.2270   32.7330   49.0270 C   0  0  0  0  0  0  0  0  0  0  0  0
   59.3430   34.0700   48.3130 C   0  0  0  0  0  0  0  0  0  0  0  0
   59.4910   33.9660   46.8410 N   0  0  0  0  0  0  0  0  0  0  0  0
   58.2640   34.2590   46.0730 C   0  0  0  0  0  0  0  0  0  0  0  0
   57.5450   32.9500   45.7220 C   0  0  0  0  0  0  0  0  0  0  0  0
   58.4390   31.9600   44.9470 C   0  0  0  0  0  0  0  0  0  0  0  0
   57.6980   30.7430   44.5540 N   0  0  0  0  0  0  0  0  0  0  0  0
   57.6610   29.7740   45.6670 C   0  0  0  0  0  0  0  0  0  0  0  0
   56.8660   28.5310   45.2470 C   0  0  0  0  0  0  0  0  0  0  0  0
   55.5500   28.8850   44.8620 O   0  0  0  0  0  0  0  0  0  0  0  0
   55.5940   29.7610   43.7510 C   0  0  0  0  0  0  0  0  0  0  0  0
   56.3230   31.0590   44.1200 C   0  0  0  0  0  0  0  0  0  0  0  0
   60.7130   34.5710   46.2730 C   0  0  0  0  0  0  0  0  0  0  0  0
   61.9160   33.8130   46.7270 C   0  0  0  0  0  0  0  0  0  0  0  0
   61.9900   33.1920   47.9220 N   0  0  0  0  0  0  0  0  0  0  0  0
   63.2450   32.7000   47.8970 C   0  0  0  0  0  0  0  0  0  0  0  0
   63.9080   32.0350   49.0750 C   0  0  0  0  0  0  0  0  0  0  0  0
   64.6480   33.0840   49.9300 C   0  0  0  0  0  0  0  0  0  0  0  0
   63.6870   34.0070   50.7110 C   0  0  0  0  0  0  0  0  0  0  0  0
   62.4380   33.2860   51.2590 C   0  0  0  0  0  0  0  0  0  0  0  0
   62.6170   31.7660   51.3080 C   0  0  0  0  0  0  0  0  0  0  0  0
   62.8950   31.1970   49.9070 C   0  0  0  0  0  0  0  0  0  0  0  0
   63.8770   33.0130   46.7510 N   0  0  0  0  0  0  0  0  0  0  0  0
   63.0300   33.6950   46.0460 O   0  0  0  0  0  0  0  0  0  0  0  0
   59.2911   33.7872   53.2287 H   0  0  0  0  0  0  0  0  0  0  0  0
   58.0206   34.9196   52.6542 H   0  0  0  0  0  0  0  0  0  0  0  0
   57.7131   33.1498   52.6542 H   0  0  0  0  0  0  0  0  0  0  0  0
   58.8894   31.3187   52.1393 H   0  0  0  0  0  0  0  0  0  0  0  0
   58.9827   29.2374   50.7722 H   0  0  0  0  0  0  0  0  0  0  0  0
   59.1484   29.3806   48.2893 H   0  0  0  0  0  0  0  0  0  0  0  0
   59.2804   31.6013   47.1711 H   0  0  0  0  0  0  0  0  0  0  0  0
   58.4363   34.6547   48.5274 H   0  0  0  0  0  0  0  0  0  0  0  0
   60.2596   34.5486   48.6883 H   0  0  0  0  0  0  0  0  0  0  0  0
   57.5970   34.8911   46.6777 H   0  0  0  0  0  0  0  0  0  0  0  0
   58.5334   34.7852   45.1453 H   0  0  0  0  0  0  0  0  0  0  0  0
   57.2169   32.4692   46.6554 H   0  0  0  0  0  0  0  0  0  0  0  0
   56.6959   33.2054   45.0710 H   0  0  0  0  0  0  0  0  0  0  0  0
   58.8161   32.4556   44.0403 H   0  0  0  0  0  0  0  0  0  0  0  0
   59.2665   31.6585   45.6061 H   0  0  0  0  0  0  0  0  0  0  0  0
   58.6879   29.4794   45.9291 H   0  0  0  0  0  0  0  0  0  0  0  0
   57.1753   30.2389   46.5376 H   0  0  0  0  0  0  0  0  0  0  0  0
   57.3728   28.0479   44.3986 H   0  0  0  0  0  0  0  0  0  0  0  0
   56.8108   27.8410   46.1019 H   0  0  0  0  0  0  0  0  0  0  0  0
   56.1261   29.2695   42.9232 H   0  0  0  0  0  0  0  0  0  0  0  0
   54.5648   30.0043   43.4483 H   0  0  0  0  0  0  0  0  0  0  0  0
   56.3583   31.7221   43.2430 H   0  0  0  0  0  0  0  0  0  0  0  0
   55.7862   31.5621   44.9378 H   0  0  0  0  0  0  0  0  0  0  0  0
   60.6572   34.5421   45.1748 H   0  0  0  0  0  0  0  0  0  0  0  0
   60.7925   35.6134   46.6151 H   0  0  0  0  0  0  0  0  0  0  0  0
   64.6562   31.3216   48.6991 H   0  0  0  0  0  0  0  0  0  0  0  0
   65.2930   32.5588   50.6498 H   0  0  0  0  0  0  0  0  0  0  0  0
   65.2310   33.7172   49.2451 H   0  0  0  0  0  0  0  0  0  0  0  0
   64.2365   34.4416   51.5591 H   0  0  0  0  0  0  0  0  0  0  0  0
   63.3312   34.7706   50.0037 H   0  0  0  0  0  0  0  0  0  0  0  0
   62.2373   33.6512   52.2770 H   0  0  0  0  0  0  0  0  0  0  0  0
   61.5999   33.5037   50.5806 H   0  0  0  0  0  0  0  0  0  0  0  0
   63.4631   31.5248   51.9683 H   0  0  0  0  0  0  0  0  0  0  0  0
   61.6886   31.3166   51.6902 H   0  0  0  0  0  0  0  0  0  0  0  0
   63.2978   30.1797   50.0202 H   0  0  0  0  0  0  0  0  0  0  0  0
   61.9407   31.2154   49.3601 H   0  0  0  0  0  0  0  0  0  0  0  0
   64.8640   32.7950   46.4790 H   0  0  0  0  0  0  0  0  0  0  0  0
  1  2  1  0
  2  3  1  0
  3  4  2  0
  4  5  1  0
  5  6  2  0
  6  7  1  0
  7  8  2  0
  8  9  1  0
  9 10  1  0
 10 11  1  0
 11 12  1  0
 12 13  1  0
 13 14  1  0
 14 15  1  0
 15 16  1  0
 16 17  1  0
 17 18  1  0
 18 19  1  0
 10 20  1  0
 20 21  1  0
 21 22  2  0
 22 23  1  0
 23 24  1  0
 24 25  1  0
 25 26  1  0
 26 27  1  0
 27 28  1  0
 28 29  1  0
 23 30  2  0
 30 31  1  0
  8  3  1  0
 19 14  1  0
 31 21  1  0
 29 24  1  0
  1 32  1  0
  1 33  1  0
  1 34  1  0
  4 35  1  0
  5 36  1  0
  6 37  1  0
  7 38  1  0
  9 39  1  0
  9 40  1  0
 11 41  1  0
 11 42  1  0
 12 43  1  0
 12 44  1  0
 13 45  1  0
 13 46  1  0
 15 47  1  0
 15 48  1  0
 16 49  1  0
 16 50  1  0
 18 51  1  0
 18 52  1  0
 19 53  1  0
 19 54  1  0
 20 55  1  0
 20 56  1  0
 24 57  1  0
 25 58  1  0
 25 59  1  0
 26 60  1  0
 26 61  1  0
 27 62  1  0
 27 63  1  0
 28 64  1  0
 28 65  1  0
 29 66  1  0
 29 67  1  0
 30 68  1  0
M  CHG  1  30   1
M  END
>  <UniqueID>  (38) 
33

>  <SMILES>  (38) 
COc1ccccc1CN(CCCN1CCOCC1)Cc1nc(C2CCCCC2)[nH+]o1

>  <Energy>  (38) 
109.07142423316239

>  <Genealogy>  (38) 
COc1ccccc1CN(CCCN1CCOCC1)Cc1nc(C2CCCCC2)[nH+]o1 (protonated)
COc1ccccc1CN(CCCN1CCOCC1)Cc1nc(C2CCCCC2)[nH+]o1 (3D coordinates assigned)
COc1ccccc1CN(CCCN1CCOCC1)Cc1nc(C2CCCCC2)[nH+]o1 (nonaromatic ring conformer: 109.07142423316239 kcal/mol)

>  <smiles>  (38) 
COc1ccccc1CN(CCCN1CCOCC1)Cc1nc(C2CCCCC2)no1

>  <score_type>  (38) 
oracle

>  <origin>  (38) 
adg

>  <m_score__min__energy>  (38) 
-7.7400000000000002

>  <m_primary>  (38) 
energy

$$$$
38:0
     RDKit          3D

 33 35  0  0  0  0  0  0  0  0999 V2000
   55.3050   29.3390   43.9620 F   0  0  0  0  0  0  0  0  0  0  0  0
   56.5010   29.5610   43.3060 C   0  0  0  0  0  0  0  0  0  0  0  0
   56.2490   29.7460   41.9570 F   0  0  0  0  0  0  0  0  0  0  0  0
   57.3070   28.4440   43.4460 F   0  0  0  0  0  0  0  0  0  0  0  0
   57.1720   30.7780   43.8940 C   0  0  0  0  0  0  0  0  0  0  0  0
   57.4850   31.8810   43.0820 C   0  0  0  0  0  0  0  0  0  0  0  0
   58.1480   32.9890   43.6180 C   0  0  0  0  0  0  0  0  0  0  0  0
   58.5410   33.0020   44.9620 C   0  0  0  0  0  0  0  0  0  0  0  0
   59.1990   34.1640   45.4970 N   0  0  0  0  0  0  0  0  0  0  0  0
   60.0550   34.1540   46.6520 C   0  0  0  0  0  0  0  0  0  0  0  0
   59.5870   34.5750   47.9100 C   0  0  0  0  0  0  0  0  0  0  0  0
   60.4240   34.5330   49.0270 C   0  0  0  0  0  0  0  0  0  0  0  0
   61.7360   34.0540   48.9100 C   0  0  0  0  0  0  0  0  0  0  0  0
   62.5850   34.0090   50.0270 C   0  0  0  0  0  0  0  0  0  0  0  0
   63.8900   33.5230   49.8970 C   0  0  0  0  0  0  0  0  0  0  0  0
   64.3550   33.0800   48.6570 C   0  0  0  0  0  0  0  0  0  0  0  0
   63.5200   33.1200   47.5360 C   0  0  0  0  0  0  0  0  0  0  0  0
   62.2080   33.6070   47.6520 C   0  0  0  0  0  0  0  0  0  0  0  0
   61.3600   33.6530   46.5350 C   0  0  0  0  0  0  0  0  0  0  0  0
   58.2320   31.8980   45.7760 C   0  0  0  0  0  0  0  0  0  0  0  0
   57.5690   30.7900   45.2420 C   0  0  0  0  0  0  0  0  0  0  0  0
   57.2067   31.8727   42.0178 H   0  0  0  0  0  0  0  0  0  0  0  0
   58.3628   33.8579   42.9786 H   0  0  0  0  0  0  0  0  0  0  0  0
   59.0420   35.0780   45.0130 H   0  0  0  0  0  0  0  0  0  0  0  0
   58.5545   34.9398   48.0146 H   0  0  0  0  0  0  0  0  0  0  0  0
   60.0519   34.8774   50.0032 H   0  0  0  0  0  0  0  0  0  0  0  0
   62.2234   34.3565   51.0060 H   0  0  0  0  0  0  0  0  0  0  0  0
   64.5524   33.4896   50.7746 H   0  0  0  0  0  0  0  0  0  0  0  0
   65.3822   32.6981   48.5617 H   0  0  0  0  0  0  0  0  0  0  0  0
   63.8915   32.7694   46.5618 H   0  0  0  0  0  0  0  0  0  0  0  0
   61.7213   33.2935   45.5602 H   0  0  0  0  0  0  0  0  0  0  0  0
   58.5138   31.9066   46.8393 H   0  0  0  0  0  0  0  0  0  0  0  0
   57.3562   29.9207   45.8815 H   0  0  0  0  0  0  0  0  0  0  0  0
  1  2  1  0
  2  3  1  0
  2  4  1  0
  2  5  1  0
  5  6  2  0
  6  7  1  0
  7  8  2  0
  8  9  1  0
  9 10  1  0
 10 11  2  0
 11 12  1  0
 12 13  2  0
 13 14  1  0
 14 15  2  0
 15 16  1  0
 16 17  2  0
 17 18  1  0
 18 19  2  0
  8 20  1  0
 20 21  2  0
 21  5  1  0
 19 10  1  0
 18 13  1  0
  6 22  1  0
  7 23  1  0
  9 24  1  0
 11 25  1  0
 12 26  1  0
 14 27  1  0
 15 28  1  0
 16 29  1  0
 17 30  1  0
 19 31  1  0
 20 32  1  0
 21 33  1  0
M  END
>  <UniqueID>  (39) 
34

>  <SMILES>  (39) 
FC(F)(F)c1ccc(Nc2ccc3ccccc3c2)cc1

>  <Energy>  (39) 
44.65195614741556

>  <Genealogy>  (39) 
FC(F)(F)c1ccc(Nc2ccc3ccccc3c2)cc1 (3D coordinates assigned)
FC(F)(F)c1ccc(Nc2ccc3ccccc3c2)cc1 (optimized conformer: 44.65195614741556 kcal/mol)

>  <smiles>  (39) 
FC(F)(F)c1ccc(Nc2ccc3ccccc3c2)cc1

>  <score_type>  (39) 
oracle

>  <origin>  (39) 
adg

>  <m_score__min__energy>  (39) 
-7.0499999999999998

>  <m_primary>  (39) 
energy

$$$$
39:0
     RDKit          3D

 45 47  0  0  0  0  0  0  0  0999 V2000
   63.3550   32.4410   47.4780 C   0  0  0  0  0  0  0  0  0  0  0  0
   62.5990   31.6300   48.3490 O   0  0  0  0  0  0  0  0  0  0  0  0
   62.4830   32.2430   49.6200 C   0  0  0  0  0  0  0  0  0  0  0  0
   61.0090   32.4030   50.0120 C   0  0  0  0  0  0  0  0  0  0  0  0
   60.1350   32.3910   48.8180 N   0  0  0  0  0  0  0  0  0  0  0  0
   59.3750   31.2870   48.4970 C   0  0  0  0  0  0  0  0  0  0  0  0
   59.3330   29.8050   49.5260 S   0  0  0  0  0  0  0  0  0  0  0  0
   60.3290   28.7790   48.3870 C   0  0  0  0  0  0  0  0  0  0  0  0
   59.4550   27.9430   47.5020 C   0  0  0  0  0  0  0  0  0  0  0  0
   59.7070   26.7160   47.3630 O   0  0  0  0  0  0  0  0  0  0  0  0
   58.3200   28.5340   46.8520 N   0  0  0  0  0  0  0  0  0  0  0  0
   57.3860   27.7580   46.0390 C   0  0  0  0  0  0  0  0  0  0  0  0
   56.8030   28.6230   44.9640 C   0  0  0  0  0  0  0  0  0  0  0  0
   57.4910   29.1630   43.8970 C   0  0  0  0  0  0  0  0  0  0  0  0
   56.5570   29.8780   43.1780 C   0  0  0  0  0  0  0  0  0  0  0  0
   55.3600   29.7310   43.8510 C   0  0  0  0  0  0  0  0  0  0  0  0
   55.5400   28.9800   44.9130 O   0  0  0  0  0  0  0  0  0  0  0  0
   58.6040   31.2890   47.3800 N   0  0  0  0  0  0  0  0  0  0  0  0
   58.5390   32.3630   46.5600 C   0  0  0  0  0  0  0  0  0  0  0  0
   57.7140   32.3330   45.4290 C   0  0  0  0  0  0  0  0  0  0  0  0
   57.6420   33.4450   44.5860 C   0  0  0  0  0  0  0  0  0  0  0  0
   58.3970   34.5870   44.8670 C   0  0  0  0  0  0  0  0  0  0  0  0
   59.2270   34.6220   45.9920 C   0  0  0  0  0  0  0  0  0  0  0  0
   59.3010   33.5080   46.8500 C   0  0  0  0  0  0  0  0  0  0  0  0
   60.1170   33.4910   47.9920 C   0  0  0  0  0  0  0  0  0  0  0  0
   60.8380   34.4950   48.2540 O   0  0  0  0  0  0  0  0  0  0  0  0
   63.9885   33.1205   48.0670 H   0  0  0  0  0  0  0  0  0  0  0  0
   63.9902   31.8052   46.8437 H   0  0  0  0  0  0  0  0  0  0  0  0
   62.6762   33.0300   46.8437 H   0  0  0  0  0  0  0  0  0  0  0  0
   62.9903   31.6183   50.3699 H   0  0  0  0  0  0  0  0  0  0  0  0
   62.9474   33.2392   49.5760 H   0  0  0  0  0  0  0  0  0  0  0  0
   60.7219   31.5740   50.6755 H   0  0  0  0  0  0  0  0  0  0  0  0
   60.8869   33.3688   50.5242 H   0  0  0  0  0  0  0  0  0  0  0  0
   60.9483   29.4375   47.7602 H   0  0  0  0  0  0  0  0  0  0  0  0
   60.9599   28.1067   48.9870 H   0  0  0  0  0  0  0  0  0  0  0  0
   58.2210   29.5740   46.8750 H   0  0  0  0  0  0  0  0  0  0  0  0
   57.9188   26.9132   45.5781 H   0  0  0  0  0  0  0  0  0  0  0  0
   56.5750   27.3819   46.6799 H   0  0  0  0  0  0  0  0  0  0  0  0
   58.5607   29.0473   43.6680 H   0  0  0  0  0  0  0  0  0  0  0  0
   56.7302   30.4501   42.2546 H   0  0  0  0  0  0  0  0  0  0  0  0
   54.4017   30.1754   43.5441 H   0  0  0  0  0  0  0  0  0  0  0  0
   57.1222   31.4335   45.2040 H   0  0  0  0  0  0  0  0  0  0  0  0
   56.9903   33.4215   43.7001 H   0  0  0  0  0  0  0  0  0  0  0  0
   58.3382   35.4608   44.2014 H   0  0  0  0  0  0  0  0  0  0  0  0
   59.8230   35.5212   46.2069 H   0  0  0  0  0  0  0  0  0  0  0  0
  1  2  1  0
  2  3  1  0
  3  4  1  0
  4  5  1  0
  5  6  1  0
  6  7  1  0
  7  8  1  0
  8  9  1  0
  9 10  2  0
  9 11  1  0
 11 12  1  0
 12 13  1  0
 13 14  2  0
 14 15  1  0
 15 16  2  0
 16 17  1  0
  6 18  2  0
 18 19  1  0
 19 20  2  0
 20 21  1  0
 21 22  2  0
 22 23  1  0
 23 24  2  0
 24 25  1  0
 25 26  2  0
 25  5  1  0
 17 13  1  0
 24 19  1  0
  1 27  1  0
  1 28  1  0
  1 29  1  0
  3 30  1  0
  3 31  1  0
  4 32  1  0
  4 33  1  0
  8 34  1  0
  8 35  1  0
 11 36  1  0
 12 37  1  0
 12 38  1  0
 14 39  1  0
 15 40  1  0
 16 41  1  0
 20 42  1  0
 21 43  1  0
 22 44  1  0
 23 45  1  0
M  END
>  <UniqueID>  (40) 
35

>  <SMILES>  (40) 
COCCn1c(SCC(=O)NCc2ccco2)nc2ccccc2c1=O

>  <Energy>  (40) 
69.67245611489614

>  <Genealogy>  (40) 
COCCn1c(SCC(=O)NCc2ccco2)nc2ccccc2c1=O (3D coordinates assigned)
COCCn1c(SCC(=O)NCc2ccco2)nc2ccccc2c1=O (optimized conformer: 69.67245611489614 kcal/mol)

>  <smiles>  (40) 
COCCn1c(SCC(=O)NCc2ccco2)nc2ccccc2c1=O

>  <score_type>  (40) 
oracle

>  <origin>  (40) 
adg

>  <m_score__min__energy>  (40) 
-7.1500000000000004

>  <m_primary>  (40) 
energy

$$$$
40:0
     RDKit          3D

 31 32  0  0  0  0  0  0  0  0999 V2000
   57.8860   27.3940   42.9140 C   0  0  0  0  0  0  0  0  0  0  0  0
   57.7160   28.3100   44.0370 N   0  0  0  0  0  0  0  0  0  0  0  0
   58.4230   28.0770   45.2600 C   0  0  0  0  0  0  0  0  0  0  0  0
   59.6860   28.6570   45.4450 C   0  0  0  0  0  0  0  0  0  0  0  0
   60.3890   28.4500   46.6350 C   0  0  0  0  0  0  0  0  0  0  0  0
   59.8340   27.6620   47.6470 C   0  0  0  0  0  0  0  0  0  0  0  0
   58.5740   27.0820   47.4720 C   0  0  0  0  0  0  0  0  0  0  0  0
   57.8630   27.2850   46.2820 C   0  0  0  0  0  0  0  0  0  0  0  0
   56.5600   26.6850   46.1270 C   0  0  0  0  0  0  0  0  0  0  0  0
   55.5160   26.2040   46.0050 N   0  0  0  0  0  0  0  0  0  0  0  0
   56.6040   29.6390   43.9370 S   0  0  0  0  0  0  0  0  0  0  0  0
   55.4490   29.4150   44.8720 O   0  0  0  0  0  0  0  0  0  0  0  0
   56.0610   29.7410   42.5380 O   0  0  0  0  0  0  0  0  0  0  0  0
   57.4430   31.1250   44.3650 C   0  0  0  0  0  0  0  0  0  0  0  0
   57.7840   31.3830   45.6970 C   0  0  0  0  0  0  0  0  0  0  0  0
   58.4800   32.5480   46.0220 C   0  0  0  0  0  0  0  0  0  0  0  0
   58.8330   33.4410   45.0080 C   0  0  0  0  0  0  0  0  0  0  0  0
   58.5010   33.1730   43.7160 N   0  0  0  0  0  0  0  0  0  0  0  0
   57.8210   32.0430   43.3760 C   0  0  0  0  0  0  0  0  0  0  0  0
   58.0744   26.3790   43.2940 H   0  0  0  0  0  0  0  0  0  0  0  0
   56.9728   27.3923   42.3007 H   0  0  0  0  0  0  0  0  0  0  0  0
   58.7390   27.7201   42.3007 H   0  0  0  0  0  0  0  0  0  0  0  0
   60.1254   29.2776   44.6502 H   0  0  0  0  0  0  0  0  0  0  0  0
   61.3795   28.9075   46.7751 H   0  0  0  0  0  0  0  0  0  0  0  0
   60.3892   27.4979   48.5823 H   0  0  0  0  0  0  0  0  0  0  0  0
   58.1393   26.4641   48.2715 H   0  0  0  0  0  0  0  0  0  0  0  0
   57.5042   30.6694   46.4860 H   0  0  0  0  0  0  0  0  0  0  0  0
   58.7481   32.7610   47.0673 H   0  0  0  0  0  0  0  0  0  0  0  0
   59.3805   34.3628   45.2543 H   0  0  0  0  0  0  0  0  0  0  0  0
   58.7770   33.8470   42.9670 H   0  0  0  0  0  0  0  0  0  0  0  0
   57.5680   31.8505   42.3229 H   0  0  0  0  0  0  0  0  0  0  0  0
  1  2  1  0
  2  3  1  0
  3  4  2  0
  4  5  1  0
  5  6  2  0
  6  7  1  0
  7  8  2  0
  8  9  1  0
  9 10  3  0
  2 11  1  0
 11 12  2  0
 11 13  2  0
 11 14  1  0
 14 15  2  0
 15 16  1  0
 16 17  2  0
 17 18  1  0
 18 19  2  0
  8  3  1  0
 19 14  1  0
  1 20  1  0
  1 21  1  0
  1 22  1  0
  4 23  1  0
  5 24  1  0
  6 25  1  0
  7 26  1  0
 15 27  1  0
 16 28  1  0
 17 29  1  0
 18 30  1  0
 19 31  1  0
M  CHG  1  18   1
M  END
>  <UniqueID>  (41) 
36

>  <SMILES>  (41) 
CN(c1ccccc1C#N)S(=O)(=O)c1ccc[nH+]c1

>  <Energy>  (41) 
36.51072955011451

>  <Genealogy>  (41) 
CN(c1ccccc1C#N)S(=O)(=O)c1ccc[nH+]c1 (protonated)
CN(c1ccccc1C#N)S(=O)(=O)c1ccc[nH+]c1 (3D coordinates assigned)
CN(c1ccccc1C#N)S(=O)(=O)c1ccc[nH+]c1 (optimized conformer: 36.51072955011451 kcal/mol)

>  <smiles>  (41) 
CN(c1ccccc1C#N)S(=O)(=O)c1cccnc1

>  <score_type>  (41) 
oracle

>  <origin>  (41) 
adg

>  <m_score__min__energy>  (41) 
-5.7800000000000002

>  <m_primary>  (41) 
energy

$$$$
41:0
     RDKit          3D

 38 40  0  0  0  0  0  0  0  0999 V2000
   59.0880   25.1780   46.0460 C   0  0  0  0  0  0  0  0  0  0  0  0
   58.6260   26.5260   45.6040 C   0  0  0  0  0  0  0  0  0  0  0  0
   59.3170   27.3830   44.7570 C   0  0  0  0  0  0  0  0  0  0  0  0
   58.6010   28.5440   44.4420 C   0  0  0  0  0  0  0  0  0  0  0  0
   57.3440   28.5960   45.0400 C   0  0  0  0  0  0  0  0  0  0  0  0
   56.3360   29.6590   44.8730 C   0  0  0  0  0  0  0  0  0  0  0  0
   55.1340   29.3390   44.6790 O   0  0  0  0  0  0  0  0  0  0  0  0
   56.6890   31.0490   44.8690 N   0  0  0  0  0  0  0  0  0  0  0  0
   57.8270   31.6320   45.5190 C   0  0  0  0  0  0  0  0  0  0  0  0
   58.4540   31.0060   46.6110 C   0  0  0  0  0  0  0  0  0  0  0  0
   59.5500   31.6080   47.2330 C   0  0  0  0  0  0  0  0  0  0  0  0
   60.0270   32.8520   46.7890 C   0  0  0  0  0  0  0  0  0  0  0  0
   61.1650   33.4620   47.4250 N   0  0  0  0  0  0  0  0  0  0  0  0
   60.9970   34.2310   48.6660 C   0  0  0  0  0  0  0  0  0  0  0  0
   62.2210   34.0730   49.5990 C   0  0  0  0  0  0  0  0  0  0  0  0
   63.3010   33.3690   49.0100 O   0  0  0  0  0  0  0  0  0  0  0  0
   63.5710   33.8840   47.7240 C   0  0  0  0  0  0  0  0  0  0  0  0
   62.4720   33.4380   46.7580 C   0  0  0  0  0  0  0  0  0  0  0  0
   59.3850   33.4830   45.7100 C   0  0  0  0  0  0  0  0  0  0  0  0
   58.2880   32.8800   45.0880 C   0  0  0  0  0  0  0  0  0  0  0  0
   57.1160   27.1870   45.9340 S   0  0  0  0  0  0  0  0  0  0  0  0
   59.1019   25.1374   47.1452 H   0  0  0  0  0  0  0  0  0  0  0  0
   58.4017   24.4102   45.6594 H   0  0  0  0  0  0  0  0  0  0  0  0
   60.1010   24.9926   45.6594 H   0  0  0  0  0  0  0  0  0  0  0  0
   60.3255   27.1708   44.3724 H   0  0  0  0  0  0  0  0  0  0  0  0
   58.9922   29.3366   43.7872 H   0  0  0  0  0  0  0  0  0  0  0  0
   58.0798   30.0384   46.9767 H   0  0  0  0  0  0  0  0  0  0  0  0
   60.0434   31.1039   48.0771 H   0  0  0  0  0  0  0  0  0  0  0  0
   60.8743   35.2947   48.4139 H   0  0  0  0  0  0  0  0  0  0  0  0
   60.1096   33.8492   49.1920 H   0  0  0  0  0  0  0  0  0  0  0  0
   62.5735   35.0759   49.8817 H   0  0  0  0  0  0  0  0  0  0  0  0
   61.8891   33.4839   50.4666 H   0  0  0  0  0  0  0  0  0  0  0  0
   63.5984   34.9828   47.7669 H   0  0  0  0  0  0  0  0  0  0  0  0
   64.5435   33.5076   47.3738 H   0  0  0  0  0  0  0  0  0  0  0  0
   62.4507   34.1184   45.8939 H   0  0  0  0  0  0  0  0  0  0  0  0
   62.6842   32.4113   46.4250 H   0  0  0  0  0  0  0  0  0  0  0  0
   59.7481   34.4579   45.3525 H   0  0  0  0  0  0  0  0  0  0  0  0
   57.7840   33.3904   44.2541 H   0  0  0  0  0  0  0  0  0  0  0  0
  1  2  1  0
  2  3  2  0
  3  4  1  0
  4  5  2  0
  5  6  1  0
  6  7  2  0
  6  8  1  0
  8  9  1  0
  9 10  2  0
 10 11  1  0
 11 12  2  0
 12 13  1  0
 13 14  1  0
 14 15  1  0
 15 16  1  0
 16 17  1  0
 17 18  1  0
 12 19  1  0
 19 20  2  0
  5 21  1  0
 21  2  1  0
 20  9  1  0
 18 13  1  0
  1 22  1  0
  1 23  1  0
  1 24  1  0
  3 25  1  0
  4 26  1  0
 10 27  1  0
 11 28  1  0
 14 29  1  0
 14 30  1  0
 15 31  1  0
 15 32  1  0
 17 33  1  0
 17 34  1  0
 18 35  1  0
 18 36  1  0
 19 37  1  0
 20 38  1  0
M  CHG  1   8  -1
M  END
>  <UniqueID>  (42) 
37

>  <SMILES>  (42) 
Cc1ccc(C(=O)[N-]c2ccc(N3CCOCC3)cc2)s1

>  <Energy>  (42) 
79.81838876401551

>  <Genealogy>  (42) 
Cc1ccc(C(=O)[N-]c2ccc(N3CCOCC3)cc2)s1 (protonated)
Cc1ccc(C(=O)[N-]c2ccc(N3CCOCC3)cc2)s1 (3D coordinates assigned)
Cc1ccc(C(=O)[N-]c2ccc(N3CCOCC3)cc2)s1 (nonaromatic ring conformer: 79.81838876401551 kcal/mol)

>  <smiles>  (42) 
Cc1ccc(C(=O)Nc2ccc(N3CCOCC3)cc2)s1

>  <score_type>  (42) 
oracle

>  <origin>  (42) 
adg

>  <m_score__min__energy>  (42) 
-8.8000000000000007

>  <m_primary>  (42) 
energy

$$$$
42:0
     RDKit          3D

 35 38  0  0  0  0  0  0  0  0999 V2000
   60.6410   34.4280   48.8620 O   0  0  0  0  0  0  0  0  0  0  0  0
   61.5640   33.8490   48.2280 C   0  0  0  0  0  0  0  0  0  0  0  0
   61.4130   33.6050   46.8160 N   0  0  0  0  0  0  0  0  0  0  0  0
   60.1400   33.5870   46.1470 C   0  0  0  0  0  0  0  0  0  0  0  0
   59.6420   34.7700   45.5800 C   0  0  0  0  0  0  0  0  0  0  0  0
   58.4180   34.7710   44.9090 C   0  0  0  0  0  0  0  0  0  0  0  0
   57.6850   33.5900   44.7820 C   0  0  0  0  0  0  0  0  0  0  0  0
   58.1760   32.3900   45.3210 C   0  0  0  0  0  0  0  0  0  0  0  0
   57.4050   31.1410   45.1690 C   0  0  0  0  0  0  0  0  0  0  0  0
   57.7920   29.9440   45.6550 N   0  0  0  0  0  0  0  0  0  0  0  0
   56.7720   29.1540   45.2610 C   0  0  0  0  0  0  0  0  0  0  0  0
   56.6970   27.7170   45.5430 C   0  0  0  0  0  0  0  0  0  0  0  0
   57.7670   26.8470   45.6090 C   0  0  0  0  0  0  0  0  0  0  0  0
   57.2230   25.6140   45.8950 C   0  0  0  0  0  0  0  0  0  0  0  0
   55.8590   25.8080   45.9860 C   0  0  0  0  0  0  0  0  0  0  0  0
   55.5770   27.0720   45.7710 O   0  0  0  0  0  0  0  0  0  0  0  0
   55.8270   29.8280   44.5800 N   0  0  0  0  0  0  0  0  0  0  0  0
   56.2540   31.0530   44.5450 O   0  0  0  0  0  0  0  0  0  0  0  0
   59.4080   32.3940   45.9970 C   0  0  0  0  0  0  0  0  0  0  0  0
   62.8100   33.4720   48.9930 C   0  0  0  0  0  0  0  0  0  0  0  0
   63.4750   32.1460   48.6510 C   0  0  0  0  0  0  0  0  0  0  0  0
   64.1040   33.4560   48.1920 C   0  0  0  0  0  0  0  0  0  0  0  0
   62.2660   33.5390   46.2190 H   0  0  0  0  0  0  0  0  0  0  0  0
   60.2197   35.7023   45.6648 H   0  0  0  0  0  0  0  0  0  0  0  0
   58.0297   35.7059   44.4787 H   0  0  0  0  0  0  0  0  0  0  0  0
   56.7183   33.5994   44.2573 H   0  0  0  0  0  0  0  0  0  0  0  0
   58.8305   27.0877   45.4637 H   0  0  0  0  0  0  0  0  0  0  0  0
   57.7659   24.6661   46.0247 H   0  0  0  0  0  0  0  0  0  0  0  0
   55.1207   25.0227   46.2054 H   0  0  0  0  0  0  0  0  0  0  0  0
   59.8042   31.4559   46.4129 H   0  0  0  0  0  0  0  0  0  0  0  0
   62.4670   33.9412   49.9269 H   0  0  0  0  0  0  0  0  0  0  0  0
   63.9564   31.5519   49.4417 H   0  0  0  0  0  0  0  0  0  0  0  0
   63.1534   31.2202   48.1515 H   0  0  0  0  0  0  0  0  0  0  0  0
   65.0396   33.8076   48.6513 H   0  0  0  0  0  0  0  0  0  0  0  0
   64.4247   33.8678   47.2237 H   0  0  0  0  0  0  0  0  0  0  0  0
  1  2  2  0
  2  3  1  0
  3  4  1  0
  4  5  2  0
  5  6  1  0
  6  7  2  0
  7  8  1  0
  8  9  1  0
  9 10  2  0
 10 11  1  0
 11 12  1  0
 12 13  2  0
 13 14  1  0
 14 15  2  0
 15 16  1  0
 11 17  2  0
 17 18  1  0
  8 19  2  0
  2 20  1  0
 20 21  1  0
 21 22  1  0
 19  4  1  0
 22 20  1  0
 18  9  1  0
 16 12  1  0
  3 23  1  0
  5 24  1  0
  6 25  1  0
  7 26  1  0
 13 27  1  0
 14 28  1  0
 15 29  1  0
 19 30  1  0
 20 31  1  0
 21 32  1  0
 21 33  1  0
 22 34  1  0
 22 35  1  0
M  END
>  <UniqueID>  (43) 
38

>  <SMILES>  (43) 
O=C(Nc1cccc(-c2nc(-c3ccco3)no2)c1)C1CC1

>  <Energy>  (43) 
365.75854061933626

>  <Genealogy>  (43) 
O=C(Nc1cccc(-c2nc(-c3ccco3)no2)c1)C1CC1 (3D coordinates assigned)
O=C(Nc1cccc(-c2nc(-c3ccco3)no2)c1)C1CC1 (nonaromatic ring conformer: 365.75854061933626 kcal/mol)

>  <smiles>  (43) 
O=C(Nc1cccc(-c2nc(-c3ccco3)no2)c1)C1CC1

>  <score_type>  (43) 
oracle

>  <origin>  (43) 
adg

>  <m_score__min__energy>  (43) 
-8.5

>  <m_primary>  (43) 
energy

$$$$
43:0
     RDKit          3D

 31 33  0  0  0  0  0  0  0  0999 V2000
   61.4320   33.7220   50.9580 C   0  0  0  0  0  0  0  0  0  0  0  0
   61.9560   33.6820   49.5440 C   0  0  0  0  0  0  0  0  0  0  0  0
   63.3340   33.5020   49.3380 C   0  0  0  0  0  0  0  0  0  0  0  0
   63.8620   33.4560   48.0480 C   0  0  0  0  0  0  0  0  0  0  0  0
   63.0270   33.5900   46.9410 C   0  0  0  0  0  0  0  0  0  0  0  0
   61.6470   33.7720   47.1140 C   0  0  0  0  0  0  0  0  0  0  0  0
   60.8130   33.9050   45.9940 C   0  0  0  0  0  0  0  0  0  0  0  0
   59.4330   34.0960   46.1520 C   0  0  0  0  0  0  0  0  0  0  0  0
   58.5400   34.1920   44.9470 C   0  0  0  0  0  0  0  0  0  0  0  0
   57.9710   32.8820   44.6440 N   0  0  0  0  0  0  0  0  0  0  0  0
   57.8030   32.3360   43.4290 C   0  0  0  0  0  0  0  0  0  0  0  0
   57.1560   31.1320   43.5950 C   0  0  0  0  0  0  0  0  0  0  0  0
   56.9050   30.9290   44.9050 N   0  0  0  0  0  0  0  0  0  0  0  0
   57.4130   32.0210   45.5150 C   0  0  0  0  0  0  0  0  0  0  0  0
   58.8860   34.1260   47.4400 C   0  0  0  0  0  0  0  0  0  0  0  0
   59.7040   33.9950   48.5640 C   0  0  0  0  0  0  0  0  0  0  0  0
   61.0970   33.8180   48.4220 C   0  0  0  0  0  0  0  0  0  0  0  0
   62.2739   33.6577   51.6630 H   0  0  0  0  0  0  0  0  0  0  0  0
   60.8883   34.6643   51.1210 H   0  0  0  0  0  0  0  0  0  0  0  0
   60.7516   32.8732   51.1210 H   0  0  0  0  0  0  0  0  0  0  0  0
   64.0040   33.3962   50.2039 H   0  0  0  0  0  0  0  0  0  0  0  0
   64.9431   33.3132   47.9039 H   0  0  0  0  0  0  0  0  0  0  0  0
   63.4517   33.5529   45.9270 H   0  0  0  0  0  0  0  0  0  0  0  0
   61.2452   33.8591   44.9835 H   0  0  0  0  0  0  0  0  0  0  0  0
   57.7270   34.9042   45.1514 H   0  0  0  0  0  0  0  0  0  0  0  0
   59.1302   34.5383   44.0857 H   0  0  0  0  0  0  0  0  0  0  0  0
   58.1248   32.7725   42.4720 H   0  0  0  0  0  0  0  0  0  0  0  0
   56.8850   30.4409   42.7832 H   0  0  0  0  0  0  0  0  0  0  0  0
   57.3751   32.1882   46.6016 H   0  0  0  0  0  0  0  0  0  0  0  0
   57.8010   34.2540   47.5680 H   0  0  0  0  0  0  0  0  0  0  0  0
   59.2587   34.0301   49.5692 H   0  0  0  0  0  0  0  0  0  0  0  0
  1  2  1  0
  2  3  2  0
  3  4  1  0
  4  5  2  0
  5  6  1  0
  6  7  2  0
  7  8  1  0
  8  9  1  0
  9 10  1  0
 10 11  1  0
 11 12  2  0
 12 13  1  0
 13 14  2  0
  8 15  2  0
 15 16  1  0
 16 17  2  0
 17  2  1  0
 17  6  1  0
 14 10  1  0
  1 18  1  0
  1 19  1  0
  1 20  1  0
  3 21  1  0
  4 22  1  0
  5 23  1  0
  7 24  1  0
  9 25  1  0
  9 26  1  0
 11 27  1  0
 12 28  1  0
 14 29  1  0
 15 30  1  0
 16 31  1  0
M  END
>  <UniqueID>  (44) 
39

>  <SMILES>  (44) 
Cc1cccc2cc(Cn3ccnc3)ccc12

>  <Energy>  (44) 
65.23656186738347

>  <Genealogy>  (44) 
Cc1cccc2cc(Cn3ccnc3)ccc12 (3D coordinates assigned)
Cc1cccc2cc(Cn3ccnc3)ccc12 (optimized conformer: 65.23656186738347 kcal/mol)

>  <smiles>  (44) 
Cc1cccc2cc(Cn3ccnc3)ccc12

>  <score_type>  (44) 
oracle

>  <origin>  (44) 
adg

>  <m_score__min__energy>  (44) 
-6.8799999999999999

>  <m_primary>  (44) 
energy

$$$$
44:0
     RDKit          3D

 64 67  0  0  0  0  0  0  0  0999 V2000
   57.4210   32.6320   45.3700 C   0  0  0  0  0  0  0  0  0  0  0  0
   57.4370   31.5790   44.2520 C   0  0  0  0  0  0  0  0  0  0  0  0
   56.8830   30.2640   44.6530 N   0  0  0  0  0  0  0  0  0  0  0  0
   55.5200   30.0540   44.1290 C   0  0  0  0  0  0  0  0  0  0  0  0
   57.7890   29.1430   44.3210 C   0  0  0  0  0  0  0  0  0  0  0  0
   58.5040   28.6350   45.5780 C   0  0  0  0  0  0  0  0  0  0  0  0
   58.4490   29.6410   46.6360 N   0  0  0  0  0  0  0  0  0  0  0  0
   59.1290   29.4810   47.8910 C   0  0  0  0  0  0  0  0  0  0  0  0
   59.7560   28.4160   48.1400 O   0  0  0  0  0  0  0  0  0  0  0  0
   59.0350   30.5170   48.9360 C   0  0  0  0  0  0  0  0  0  0  0  0
   58.1820   30.2900   49.9670 N   0  0  0  0  0  0  0  0  0  0  0  0
   57.9650   31.1700   50.9490 N   0  0  0  0  0  0  0  0  0  0  0  0
   57.0240   30.8110   51.9840 C   0  0  0  0  0  0  0  0  0  0  0  0
   57.4720   30.5030   53.2800 C   0  0  0  0  0  0  0  0  0  0  0  0
   56.5490   30.1300   54.2570 C   0  0  0  0  0  0  0  0  0  0  0  0
   55.1910   30.0670   53.9460 C   0  0  0  0  0  0  0  0  0  0  0  0
   54.7640   30.3910   52.6490 C   0  0  0  0  0  0  0  0  0  0  0  0
   53.3750   30.3100   52.2800 N   0  0  0  0  0  0  0  0  0  0  0  0
   52.9200   30.5610   50.9090 C   0  0  0  0  0  0  0  0  0  0  0  0
   51.7450   31.5560   50.9120 C   0  0  0  0  0  0  0  0  0  0  0  0
   50.8530   31.4330   52.0970 N   0  0  0  0  0  0  0  0  0  0  0  0
   51.0280   32.5590   53.0310 C   0  0  0  0  0  0  0  0  0  0  0  0
   50.9590   30.1280   52.7840 C   0  0  0  0  0  0  0  0  0  0  0  0
   52.3930   29.8490   53.2670 C   0  0  0  0  0  0  0  0  0  0  0  0
   55.6900   30.7360   51.7100 N   0  0  0  0  0  0  0  0  0  0  0  0
   58.6200   32.3760   50.9520 C   0  0  0  0  0  0  0  0  0  0  0  0
   58.4250   33.2070   51.8830 O   0  0  0  0  0  0  0  0  0  0  0  0
   59.5360   32.6740   49.9270 C   0  0  0  0  0  0  0  0  0  0  0  0
   60.2480   33.8910   49.9150 C   0  0  0  0  0  0  0  0  0  0  0  0
   61.1910   34.1480   48.9190 C   0  0  0  0  0  0  0  0  0  0  0  0
   61.4450   33.1960   47.9330 C   0  0  0  0  0  0  0  0  0  0  0  0
   60.7470   31.9890   47.9270 C   0  0  0  0  0  0  0  0  0  0  0  0
   59.7660   31.7220   48.9060 C   0  0  0  0  0  0  0  0  0  0  0  0
   57.4287   32.1286   46.3480 H   0  0  0  0  0  0  0  0  0  0  0  0
   58.3095   33.2744   45.2814 H   0  0  0  0  0  0  0  0  0  0  0  0
   56.5134   33.2472   45.2814 H   0  0  0  0  0  0  0  0  0  0  0  0
   56.8436   31.9614   43.4084 H   0  0  0  0  0  0  0  0  0  0  0  0
   58.4916   31.4122   43.9876 H   0  0  0  0  0  0  0  0  0  0  0  0
   54.8172   29.9457   44.9682 H   0  0  0  0  0  0  0  0  0  0  0  0
   55.2265   30.9175   43.5140 H   0  0  0  0  0  0  0  0  0  0  0  0
   55.5000   29.1422   43.5140 H   0  0  0  0  0  0  0  0  0  0  0  0
   57.2025   28.3222   43.8824 H   0  0  0  0  0  0  0  0  0  0  0  0
   58.5435   29.4981   43.6036 H   0  0  0  0  0  0  0  0  0  0  0  0
   58.0134   27.7144   45.9271 H   0  0  0  0  0  0  0  0  0  0  0  0
   59.5569   28.4321   45.3326 H   0  0  0  0  0  0  0  0  0  0  0  0
   57.8690   30.4950   46.4730 H   0  0  0  0  0  0  0  0  0  0  0  0
   58.5437   30.5557   53.5223 H   0  0  0  0  0  0  0  0  0  0  0  0
   56.8923   29.8855   55.2730 H   0  0  0  0  0  0  0  0  0  0  0  0
   54.4604   29.7658   54.7112 H   0  0  0  0  0  0  0  0  0  0  0  0
   53.7501   30.9809   50.3219 H   0  0  0  0  0  0  0  0  0  0  0  0
   52.5860   29.6128   50.4626 H   0  0  0  0  0  0  0  0  0  0  0  0
   52.1553   32.5764   50.8919 H   0  0  0  0  0  0  0  0  0  0  0  0
   51.1326   31.3293   50.0268 H   0  0  0  0  0  0  0  0  0  0  0  0
   50.9706   32.1896   54.0655 H   0  0  0  0  0  0  0  0  0  0  0  0
   52.0095   33.0261   52.8624 H   0  0  0  0  0  0  0  0  0  0  0  0
   50.2345   33.3020   52.8624 H   0  0  0  0  0  0  0  0  0  0  0  0
   50.2846   30.1277   53.6530 H   0  0  0  0  0  0  0  0  0  0  0  0
   50.6816   29.3415   52.0667 H   0  0  0  0  0  0  0  0  0  0  0  0
   52.5623   30.3764   54.2174 H   0  0  0  0  0  0  0  0  0  0  0  0
   52.5137   28.7642   53.4037 H   0  0  0  0  0  0  0  0  0  0  0  0
   60.0589   34.6425   50.6957 H   0  0  0  0  0  0  0  0  0  0  0  0
   61.7351   35.1040   48.9120 H   0  0  0  0  0  0  0  0  0  0  0  0
   62.1984   33.3976   47.1573 H   0  0  0  0  0  0  0  0  0  0  0  0
   60.9628   31.2383   47.1525 H   0  0  0  0  0  0  0  0  0  0  0  0
  1  2  1  0
  2  3  1  0
  3  4  1  0
  3  5  1  0
  5  6  1  0
  6  7  1  0
  7  8  1  0
  8  9  2  0
  8 10  1  0
 10 11  2  0
 11 12  1  0
 12 13  1  0
 13 14  2  0
 14 15  1  0
 15 16  2  0
 16 17  1  0
 17 18  1  0
 18 19  1  0
 19 20  1  0
 20 21  1  0
 21 22  1  0
 21 23  1  0
 23 24  1  0
 17 25  2  0
 12 26  1  0
 26 27  2  0
 26 28  1  0
 28 29  2  0
 29 30  1  0
 30 31  2  0
 31 32  1  0
 32 33  2  0
 33 10  1  0
 25 13  1  0
 33 28  1  0
 24 18  1  0
  1 34  1  0
  1 35  1  0
  1 36  1  0
  2 37  1  0
  2 38  1  0
  4 39  1  0
  4 40  1  0
  4 41  1  0
  5 42  1  0
  5 43  1  0
  6 44  1  0
  6 45  1  0
  7 46  1  0
 14 47  1  0
 15 48  1  0
 16 49  1  0
 19 50  1  0
 19 51  1  0
 20 52  1  0
 20 53  1  0
 22 54  1  0
 22 55  1  0
 22 56  1  0
 23 57  1  0
 23 58  1  0
 24 59  1  0
 24 60  1  0
 29 61  1  0
 30 62  1  0
 31 63  1  0
 32 64  1  0
M  END
>  <UniqueID>  (45) 
40

>  <SMILES>  (45) 
CCN(C)CCNC(=O)c1nn(-c2cccc(N3CCN(C)CC3)n2)c(=O)c2ccccc12

>  <Energy>  (45) 
93.10645028889029

>  <Genealogy>  (45) 
CCN(C)CCNC(=O)c1nn(-c2cccc(N3CCN(C)CC3)n2)c(=O)c2ccccc12 (3D coordinates assigned)
CCN(C)CCNC(=O)c1nn(-c2cccc(N3CCN(C)CC3)n2)c(=O)c2ccccc12 (nonaromatic ring conformer: 93.10645028889029 kcal/mol)

>  <smiles>  (45) 
CCN(C)CCNC(=O)c1nn(-c2cccc(N3CCN(C)CC3)n2)c(=O)c2ccccc12

>  <score_type>  (45) 
oracle

>  <origin>  (45) 
adg

>  <m_score__min__energy>  (45) 
-8.1099999999999994

>  <m_primary>  (45) 
energy

$$$$
45:0
     RDKit          3D

 47 46  0  0  0  0  0  0  0  0999 V2000
   63.3800   33.5670   47.2590 C   0  0  0  0  0  0  0  0  0  0  0  0
   62.7730   32.4160   47.3120 C   0  0  0  0  0  0  0  0  0  0  0  0
   62.1660   31.2630   47.3660 C   0  0  0  0  0  0  0  0  0  0  0  0
   61.0860   30.9970   48.3810 C   0  0  0  0  0  0  0  0  0  0  0  0
   59.8010   31.5900   47.9820 N   0  0  0  0  0  0  0  0  0  0  0  0
   59.0710   32.1530   49.1260 C   0  0  0  0  0  0  0  0  0  0  0  0
   59.7220   33.4620   49.5860 C   0  0  0  0  0  0  0  0  0  0  0  0
   59.6370   34.5560   48.5100 C   0  0  0  0  0  0  0  0  0  0  0  0
   59.6680   33.9640   47.1610 N   0  0  0  0  0  0  0  0  0  0  0  0
   59.6570   34.9870   46.1000 C   0  0  0  0  0  0  0  0  0  0  0  0
   58.8340   34.5530   44.8730 C   0  0  0  0  0  0  0  0  0  0  0  0
   57.4570   34.0220   45.2980 C   0  0  0  0  0  0  0  0  0  0  0  0
   57.2750   32.5210   45.0000 C   0  0  0  0  0  0  0  0  0  0  0  0
   57.9100   31.6390   45.9930 N   0  0  0  0  0  0  0  0  0  0  0  0
   57.8040   30.2030   45.6710 C   0  0  0  0  0  0  0  0  0  0  0  0
   58.7410   29.8010   44.5220 C   0  0  0  0  0  0  0  0  0  0  0  0
   59.9350   29.0020   45.0350 C   0  0  0  0  0  0  0  0  0  0  0  0
   63.6544   34.0874   48.1885 H   0  0  0  0  0  0  0  0  0  0  0  0
   63.6183   34.0188   46.2848 H   0  0  0  0  0  0  0  0  0  0  0  0
   62.4481   30.4705   46.6573 H   0  0  0  0  0  0  0  0  0  0  0  0
   60.9581   29.9097   48.4877 H   0  0  0  0  0  0  0  0  0  0  0  0
   61.3922   31.4553   49.3329 H   0  0  0  0  0  0  0  0  0  0  0  0
   59.2090   30.8530   47.5270 H   0  0  0  0  0  0  0  0  0  0  0  0
   58.0303   32.3508   48.8296 H   0  0  0  0  0  0  0  0  0  0  0  0
   59.0981   31.4312   49.9556 H   0  0  0  0  0  0  0  0  0  0  0  0
   59.2084   33.8147   50.4925 H   0  0  0  0  0  0  0  0  0  0  0  0
   60.7854   33.2617   49.7838 H   0  0  0  0  0  0  0  0  0  0  0  0
   58.6984   35.1154   48.6373 H   0  0  0  0  0  0  0  0  0  0  0  0
   60.5004   35.2285   48.6208 H   0  0  0  0  0  0  0  0  0  0  0  0
   58.8560   33.3140   47.0400 H   0  0  0  0  0  0  0  0  0  0  0  0
   60.5490   33.4090   47.0590 H   0  0  0  0  0  0  0  0  0  0  0  0
   59.2234   35.9126   46.5065 H   0  0  0  0  0  0  0  0  0  0  0  0
   60.6954   35.1386   45.7702 H   0  0  0  0  0  0  0  0  0  0  0  0
   58.6969   35.4176   44.2069 H   0  0  0  0  0  0  0  0  0  0  0  0
   59.3756   33.7496   44.3523 H   0  0  0  0  0  0  0  0  0  0  0  0
   57.3377   34.1821   46.3797 H   0  0  0  0  0  0  0  0  0  0  0  0
   56.6990   34.5681   44.7173 H   0  0  0  0  0  0  0  0  0  0  0  0
   56.1977   32.2996   44.9775 H   0  0  0  0  0  0  0  0  0  0  0  0
   57.7645   32.3233   44.0350 H   0  0  0  0  0  0  0  0  0  0  0  0
   58.8940   31.9380   46.1870 H   0  0  0  0  0  0  0  0  0  0  0  0
   58.0667   29.6181   46.5648 H   0  0  0  0  0  0  0  0  0  0  0  0
   56.7704   30.0011   45.3534 H   0  0  0  0  0  0  0  0  0  0  0  0
   58.1814   29.1865   43.8014 H   0  0  0  0  0  0  0  0  0  0  0  0
   59.1161   30.7173   44.0428 H   0  0  0  0  0  0  0  0  0  0  0  0
   59.9321   29.0039   46.1350 H   0  0  0  0  0  0  0  0  0  0  0  0
   59.8674   27.9665   44.6700 H   0  0  0  0  0  0  0  0  0  0  0  0
   60.8664   29.4594   44.6700 H   0  0  0  0  0  0  0  0  0  0  0  0
  1  2  2  0
  2  3  2  0
  3  4  1  0
  4  5  1  0
  5  6  1  0
  6  7  1  0
  7  8  1  0
  8  9  1  0
  9 10  1  0
 10 11  1  0
 11 12  1  0
 12 13  1  0
 13 14  1  0
 14 15  1  0
 15 16  1  0
 16 17  1  0
  1 18  1  0
  1 19  1  0
  3 20  1  0
  4 21  1  0
  4 22  1  0
  5 23  1  0
  6 24  1  0
  6 25  1  0
  7 26  1  0
  7 27  1  0
  8 28  1  0
  8 29  1  0
  9 30  1  0
  9 31  1  0
 10 32  1  0
 10 33  1  0
 11 34  1  0
 11 35  1  0
 12 36  1  0
 12 37  1  0
 13 38  1  0
 13 39  1  0
 14 40  1  0
 15 41  1  0
 15 42  1  0
 16 43  1  0
 16 44  1  0
 17 45  1  0
 17 46  1  0
 17 47  1  0
M  CHG  1   9   1
M  END
>  <UniqueID>  (46) 
41

>  <SMILES>  (46) 
C=C=CCNCCC[NH2+]CCCCNCCC

>  <Energy>  (46) 
27.123740408552727

>  <Genealogy>  (46) 
C=C=CCNCCC[NH2+]CCCCNCCC (protonated)
C=C=CCNCCC[NH2+]CCCCNCCC (3D coordinates assigned)
C=C=CCNCCC[NH2+]CCCCNCCC (optimized conformer: 27.123740408552727 kcal/mol)

>  <smiles>  (46) 
C=C=CCNCCCNCCCCNCCC

>  <score_type>  (46) 
oracle

>  <origin>  (46) 
adg

>  <m_score__min__energy>  (46) 
-1.6899999999999999

>  <m_primary>  (46) 
energy

$$$$
46:0
     RDKit          3D

 67 70  0  0  0  0  0  0  0  0999 V2000
   56.6620   21.0010   43.0820 C   0  0  0  0  0  0  0  0  0  0  0  0
   56.0390   22.2100   43.5070 O   0  0  0  0  0  0  0  0  0  0  0  0
   56.7350   23.3250   43.9990 C   0  0  0  0  0  0  0  0  0  0  0  0
   57.1620   23.3100   45.3310 C   0  0  0  0  0  0  0  0  0  0  0  0
   57.8680   24.3920   45.8660 C   0  0  0  0  0  0  0  0  0  0  0  0
   58.1570   25.5150   45.0720 C   0  0  0  0  0  0  0  0  0  0  0  0
   58.9460   26.6790   45.6540 C   0  0  2  0  0  0  0  0  0  0  0  0
   59.2560   26.4290   47.1640 C   0  0  0  0  0  0  0  0  0  0  0  0
   59.5580   27.6600   47.9640 N   0  0  1  0  0  0  0  0  0  0  0  0
   60.6390   27.4000   48.9370 C   0  0  0  0  0  0  0  0  0  0  0  0
   59.8920   28.8460   47.1490 C   0  0  0  0  0  0  0  0  0  0  0  0
   58.7880   29.1140   46.1650 C   0  0  0  0  0  0  0  0  0  0  0  0
   58.2740   30.4040   45.9690 C   0  0  0  0  0  0  0  0  0  0  0  0
   57.2680   30.6290   45.0220 C   0  0  0  0  0  0  0  0  0  0  0  0
   56.7530   31.9290   44.8940 O   0  0  0  0  0  0  0  0  0  0  0  0
   57.1000   33.0340   45.7310 C   0  0  0  0  0  0  0  0  0  0  0  0
   57.6150   34.2120   44.8890 C   0  0  0  0  0  0  0  0  0  0  0  0
   59.1450   34.3560   44.9420 C   0  0  0  0  0  0  0  0  0  0  0  0
   59.6600   34.9370   46.2660 C   0  0  0  0  0  0  0  0  0  0  0  0
   59.5170   33.9610   47.3710 N   0  0  0  0  0  0  0  0  0  0  0  0
   59.8690   34.5320   48.6990 C   0  0  0  0  0  0  0  0  0  0  0  0
   61.2220   34.0520   49.2600 C   0  0  0  0  0  0  0  0  0  0  0  0
   62.2440   33.8540   48.1420 C   0  0  0  0  0  0  0  0  0  0  0  0
   61.7450   32.8580   47.0800 C   0  0  0  0  0  0  0  0  0  0  0  0
   60.2140   32.6890   47.0910 C   0  0  0  0  0  0  0  0  0  0  0  0
   56.8170   29.5520   44.2350 C   0  0  0  0  0  0  0  0  0  0  0  0
   57.3370   28.2700   44.4230 C   0  0  0  0  0  0  0  0  0  0  0  0
   58.2960   28.0320   45.4260 C   0  0  0  0  0  0  0  0  0  0  0  0
   57.7280   25.5300   43.7320 C   0  0  0  0  0  0  0  0  0  0  0  0
   57.0220   24.4470   43.1990 C   0  0  0  0  0  0  0  0  0  0  0  0
   56.9640   20.4149   43.9625 H   0  0  0  0  0  0  0  0  0  0  0  0
   55.9531   20.4160   42.4777 H   0  0  0  0  0  0  0  0  0  0  0  0
   57.5498   21.2388   42.4777 H   0  0  0  0  0  0  0  0  0  0  0  0
   56.9401   22.4382   45.9640 H   0  0  0  0  0  0  0  0  0  0  0  0
   58.1991   24.3640   46.9146 H   0  0  0  0  0  0  0  0  0  0  0  0
   59.8965   26.7219   45.1021 H   0  0  0  0  0  0  0  0  0  0  0  0
   58.3817   25.9362   47.6142 H   0  0  0  0  0  0  0  0  0  0  0  0
   60.1681   25.8147   47.1916 H   0  0  0  0  0  0  0  0  0  0  0  0
   58.7020   27.9010   48.5260 H   0  0  0  0  0  0  0  0  0  0  0  0
   60.2432   27.4952   49.9589 H   0  0  0  0  0  0  0  0  0  0  0  0
   61.0293   26.3824   48.7883 H   0  0  0  0  0  0  0  0  0  0  0  0
   61.4493   28.1289   48.7883 H   0  0  0  0  0  0  0  0  0  0  0  0
   60.0146   29.7188   47.8072 H   0  0  0  0  0  0  0  0  0  0  0  0
   60.8285   28.6597   46.6028 H   0  0  0  0  0  0  0  0  0  0  0  0
   58.6636   31.2439   46.5629 H   0  0  0  0  0  0  0  0  0  0  0  0
   56.2107   33.3539   46.2939 H   0  0  0  0  0  0  0  0  0  0  0  0
   57.8956   32.7184   46.4219 H   0  0  0  0  0  0  0  0  0  0  0  0
   57.3124   34.0556   43.8431 H   0  0  0  0  0  0  0  0  0  0  0  0
   57.1803   35.1327   45.3053 H   0  0  0  0  0  0  0  0  0  0  0  0
   59.5934   33.3616   44.8004 H   0  0  0  0  0  0  0  0  0  0  0  0
   59.4314   35.0600   44.1467 H   0  0  0  0  0  0  0  0  0  0  0  0
   60.7225   35.1988   46.1538 H   0  0  0  0  0  0  0  0  0  0  0  0
   59.0644   35.8290   46.5100 H   0  0  0  0  0  0  0  0  0  0  0  0
   59.9050   35.6273   48.6040 H   0  0  0  0  0  0  0  0  0  0  0  0
   59.0972   34.1879   49.4033 H   0  0  0  0  0  0  0  0  0  0  0  0
   61.6043   34.8032   49.9668 H   0  0  0  0  0  0  0  0  0  0  0  0
   61.0672   33.0874   49.7656 H   0  0  0  0  0  0  0  0  0  0  0  0
   62.4351   34.8235   47.6587 H   0  0  0  0  0  0  0  0  0  0  0  0
   63.1631   33.4459   48.5878 H   0  0  0  0  0  0  0  0  0  0  0  0
   62.0513   33.2201   46.0875 H   0  0  0  0  0  0  0  0  0  0  0  0
   62.1875   31.8780   47.3120 H   0  0  0  0  0  0  0  0  0  0  0  0
   59.8911   32.3165   46.1076 H   0  0  0  0  0  0  0  0  0  0  0  0
   59.9571   31.9786   47.8906 H   0  0  0  0  0  0  0  0  0  0  0  0
   56.0490   29.7220   43.4661 H   0  0  0  0  0  0  0  0  0  0  0  0
   56.9958   27.4419   43.7844 H   0  0  0  0  0  0  0  0  0  0  0  0
   57.9499   26.4012   43.0982 H   0  0  0  0  0  0  0  0  0  0  0  0
   56.6897   24.4720   42.1507 H   0  0  0  0  0  0  0  0  0  0  0  0
  1  2  1  0
  2  3  1  0
  3  4  2  0
  4  5  1  0
  5  6  2  0
  6  7  1  0
  7  8  1  0
  8  9  1  0
  9 10  1  0
  9 11  1  0
 11 12  1  0
 12 13  2  0
 13 14  1  0
 14 15  1  0
 15 16  1  0
 16 17  1  0
 17 18  1  0
 18 19  1  0
 19 20  1  0
 20 21  1  0
 21 22  1  0
 22 23  1  0
 23 24  1  0
 24 25  1  0
 14 26  2  0
 26 27  1  0
 27 28  2  0
  6 29  1  0
 29 30  2  0
 30  3  1  0
 28  7  1  0
 28 12  1  0
 25 20  1  0
  1 31  1  0
  1 32  1  0
  1 33  1  0
  4 34  1  0
  5 35  1  0
  7 36  1  6
  8 37  1  0
  8 38  1  0
  9 39  1  1
 10 40  1  0
 10 41  1  0
 10 42  1  0
 11 43  1  0
 11 44  1  0
 13 45  1  0
 16 46  1  0
 16 47  1  0
 17 48  1  0
 17 49  1  0
 18 50  1  0
 18 51  1  0
 19 52  1  0
 19 53  1  0
 21 54  1  0
 21 55  1  0
 22 56  1  0
 22 57  1  0
 23 58  1  0
 23 59  1  0
 24 60  1  0
 24 61  1  0
 25 62  1  0
 25 63  1  0
 26 64  1  0
 27 65  1  0
 29 66  1  0
 30 67  1  0
M  CHG  1   9   1
M  END
>  <UniqueID>  (47) 
42

>  <SMILES>  (47) 
COc1ccc([C@@H]2C[N@@H+](C)Cc3cc(OCCCCN4CCCCC4)ccc32)cc1

>  <Energy>  (47) 
86.37229318600073

>  <Genealogy>  (47) 
COc1ccc(C2C[NH+](C)Cc3cc(OCCCCN4CCCCC4)ccc32)cc1 (protonated)
COc1ccc([C@@H]2C[N@@H+](C)Cc3cc(OCCCCN4CCCCC4)ccc32)cc1 (chirality)
COc1ccc([C@@H]2C[N@@H+](C)Cc3cc(OCCCCN4CCCCC4)ccc32)cc1 (3D coordinates assigned)
COc1ccc([C@@H]2C[N@@H+](C)Cc3cc(OCCCCN4CCCCC4)ccc32)cc1 (nonaromatic ring conformer: 86.37229318600073 kcal/mol)

>  <smiles>  (47) 
COc1ccc(C2CN(C)Cc3cc(OCCCCN4CCCCC4)ccc32)cc1

>  <score_type>  (47) 
oracle

>  <origin>  (47) 
adg

>  <m_score__min__energy>  (47) 
-7.5

>  <m_primary>  (47) 
energy

$$$$
47:0
     RDKit          3D

 22 23  0  0  0  0  0  0  0  0999 V2000
   64.4100   33.1040   47.6650 N   0  0  0  0  0  0  0  0  0  0  0  0
   63.2590   32.9190   48.5440 C   0  0  0  0  0  0  0  0  0  0  0  0
   61.9750   33.0160   47.7770 C   0  0  0  0  0  0  0  0  0  0  0  0
   61.0750   34.0740   47.8320 C   0  0  0  0  0  0  0  0  0  0  0  0
   59.9240   33.8620   47.0640 C   0  0  0  0  0  0  0  0  0  0  0  0
   59.9160   32.6280   46.4180 C   0  0  0  0  0  0  0  0  0  0  0  0
   58.8490   32.1120   45.5520 C   0  0  0  0  0  0  0  0  0  0  0  0
   58.4090   32.7640   44.4500 N   0  0  0  0  0  0  0  0  0  0  0  0
   57.4160   32.0850   43.8160 C   0  0  0  0  0  0  0  0  0  0  0  0
   57.0670   30.8830   44.4210 C   0  0  0  0  0  0  0  0  0  0  0  0
   56.0600   29.9770   43.9640 N   0  0  0  0  0  0  0  0  0  0  0  0
   55.9490   29.7150   42.7490 O   0  0  0  0  0  0  0  0  0  0  0  0
   55.2050   29.3850   44.8630 O   0  0  0  0  0  0  0  0  0  0  0  0
   58.0230   30.6600   45.7870 S   0  0  0  0  0  0  0  0  0  0  0  0
   61.3330   31.8060   46.8020 S   0  0  0  0  0  0  0  0  0  0  0  0
   64.4610   32.2970   47.0000 H   0  0  0  0  0  0  0  0  0  0  0  0
   65.2820   33.0920   48.2440 H   0  0  0  0  0  0  0  0  0  0  0  0
   63.3222   31.9270   49.0152 H   0  0  0  0  0  0  0  0  0  0  0  0
   63.2711   33.7105   49.3078 H   0  0  0  0  0  0  0  0  0  0  0  0
   61.2499   34.9868   48.4204 H   0  0  0  0  0  0  0  0  0  0  0  0
   59.1086   34.5955   46.9793 H   0  0  0  0  0  0  0  0  0  0  0  0
   56.9298   32.4556   42.9015 H   0  0  0  0  0  0  0  0  0  0  0  0
  1  2  1  0
  2  3  1  0
  3  4  2  0
  4  5  1  0
  5  6  2  0
  6  7  1  0
  7  8  2  0
  8  9  1  0
  9 10  2  0
 10 11  1  0
 11 12  2  0
 11 13  1  0
 10 14  1  0
  6 15  1  0
 15  3  1  0
 14  7  1  0
  1 16  1  0
  1 17  1  0
  2 18  1  0
  2 19  1  0
  4 20  1  0
  5 21  1  0
  9 22  1  0
M  CHG  2  11   1  13  -1
M  END
>  <UniqueID>  (48) 
43

>  <SMILES>  (48) 
NCc1ccc(-c2ncc([N+](=O)[O-])s2)s1

>  <Energy>  (48) 
76.0010184010132

>  <Genealogy>  (48) 
NCc1ccc(-c2ncc([N+](=O)[O-])s2)s1 (3D coordinates assigned)
NCc1ccc(-c2ncc([N+](=O)[O-])s2)s1 (optimized conformer: 76.0010184010132 kcal/mol)

>  <smiles>  (48) 
NCc1ccc(-c2ncc([N+](=O)[O-])s2)s1

>  <score_type>  (48) 
oracle

>  <origin>  (48) 
adg

>  <m_score__min__energy>  (48) 
-6.5199999999999996

>  <m_primary>  (48) 
energy

$$$$
