0:0
     RDKit          3D

 54 56  0  0  0  0  0  0  0  0999 V2000
   53.9480   30.4910   51.6430 C   0  0  0  0  0  0  0  0  0  0  0  0
   54.7500   29.4240   52.3690 C   0  0  0  0  0  0  0  0  0  0  0  0
   56.1570   29.7060   52.3540 N   0  0  0  0  0  0  0  0  0  0  0  0
   56.5390   31.0620   52.1610 C   0  0  0  0  0  0  0  0  0  0  0  0
   57.7520   31.2650   51.2620 C   0  0  0  0  0  0  0  0  0  0  0  0
   57.9410   30.1590   50.5140 O   0  0  0  0  0  0  0  0  0  0  0  0
   59.2110   29.6470   50.3840 C   0  0  0  0  0  0  0  0  0  0  0  0
   59.8780   30.1830   49.0750 C   0  0  0  0  0  0  0  0  0  0  0  0
   58.9690   31.0210   48.3740 N   0  0  0  0  0  0  0  0  0  0  0  0
   58.7510   31.3270   47.0310 C   0  0  0  0  0  0  0  0  0  0  0  0
   58.2920   30.4630   46.0620 C   0  0  0  0  0  0  0  0  0  0  0  0
   58.0220   29.1530   46.3570 C   0  0  0  0  0  0  0  0  0  0  0  0
   57.5650   28.2150   45.4630 C   0  0  0  0  0  0  0  0  0  0  0  0
   57.3590   28.6000   44.1720 C   0  0  0  0  0  0  0  0  0  0  0  0
   57.6140   29.9210   43.8020 C   0  0  0  0  0  0  0  0  0  0  0  0
   58.0750   30.8400   44.7380 C   0  0  0  0  0  0  0  0  0  0  0  0
   58.3090   32.0880   44.3320 N   0  0  0  0  0  0  0  0  0  0  0  0
   58.1220   32.5680   42.9840 C   0  0  0  0  0  0  0  0  0  0  0  0
   58.7560   32.9740   45.2430 C   0  0  0  0  0  0  0  0  0  0  0  0
   58.9560   34.2750   44.7890 C   0  0  0  0  0  0  0  0  0  0  0  0
   59.3820   35.2920   45.6340 C   0  0  0  0  0  0  0  0  0  0  0  0
   59.5970   34.9650   46.9320 C   0  0  0  0  0  0  0  0  0  0  0  0
   59.3970   33.6530   47.3940 C   0  0  0  0  0  0  0  0  0  0  0  0
   59.6140   33.4640   49.1540 S   0  0  0  0  0  0  0  0  0  0  0  0
   61.3860   33.8230   49.4810 C   0  0  0  0  0  0  0  0  0  0  0  0
   58.9810   32.6370   46.5650 C   0  0  0  0  0  0  0  0  0  0  0  0
   53.4567   31.1446   52.3789 H   0  0  0  0  0  0  0  0  0  0  0  0
   54.6213   31.0901   51.0123 H   0  0  0  0  0  0  0  0  0  0  0  0
   53.1854   30.0108   51.0123 H   0  0  0  0  0  0  0  0  0  0  0  0
   54.4092   29.3728   53.4136 H   0  0  0  0  0  0  0  0  0  0  0  0
   54.5897   28.4670   51.8509 H   0  0  0  0  0  0  0  0  0  0  0  0
   56.5990   29.1160   51.6220 H   0  0  0  0  0  0  0  0  0  0  0  0
   55.6883   31.5962   51.7128 H   0  0  0  0  0  0  0  0  0  0  0  0
   56.8216   31.4469   53.1520 H   0  0  0  0  0  0  0  0  0  0  0  0
   57.5811   32.1294   50.6035 H   0  0  0  0  0  0  0  0  0  0  0  0
   58.6429   31.4490   51.8803 H   0  0  0  0  0  0  0  0  0  0  0  0
   59.8159   29.9512   51.2509 H   0  0  0  0  0  0  0  0  0  0  0  0
   59.1522   28.5497   50.3336 H   0  0  0  0  0  0  0  0  0  0  0  0
   60.7784   30.7591   49.3346 H   0  0  0  0  0  0  0  0  0  0  0  0
   60.1515   29.3316   48.4344 H   0  0  0  0  0  0  0  0  0  0  0  0
   58.3940   31.6200   49.0580 H   0  0  0  0  0  0  0  0  0  0  0  0
   58.1843   28.8251   47.3944 H   0  0  0  0  0  0  0  0  0  0  0  0
   57.3704   27.1801   45.7811 H   0  0  0  0  0  0  0  0  0  0  0  0
   56.9950   27.8758   43.4283 H   0  0  0  0  0  0  0  0  0  0  0  0
   57.4490   30.2378   42.7616 H   0  0  0  0  0  0  0  0  0  0  0  0
   57.7228   33.5926   43.0117 H   0  0  0  0  0  0  0  0  0  0  0  0
   59.0872   32.5647   42.4564 H   0  0  0  0  0  0  0  0  0  0  0  0
   57.4134   31.9126   42.4564 H   0  0  0  0  0  0  0  0  0  0  0  0
   58.7711   34.5044   43.7292 H   0  0  0  0  0  0  0  0  0  0  0  0
   59.5379   36.3169   45.2663 H   0  0  0  0  0  0  0  0  0  0  0  0
   59.9339   35.7403   47.6359 H   0  0  0  0  0  0  0  0  0  0  0  0
   61.5587   33.8580   50.5668 H   0  0  0  0  0  0  0  0  0  0  0  0
   62.0084   33.0327   49.0360 H   0  0  0  0  0  0  0  0  0  0  0  0
   61.6517   34.7932   49.0360 H   0  0  0  0  0  0  0  0  0  0  0  0
  1  2  1  0
  2  3  1  0
  3  4  1  0
  4  5  1  0
  5  6  1  0
  6  7  1  0
  7  8  1  0
  8  9  1  0
  9 10  1  0
 10 11  2  0
 11 12  1  0
 12 13  2  0
 13 14  1  0
 14 15  2  0
 15 16  1  0
 16 17  2  0
 17 18  1  0
 17 19  1  0
 19 20  2  0
 20 21  1  0
 21 22  2  0
 22 23  1  0
 23 24  1  0
 24 25  1  0
 23 26  2  0
 26 10  1  0
 16 11  1  0
 26 19  1  0
  1 27  1  0
  1 28  1  0
  1 29  1  0
  2 30  1  0
  2 31  1  0
  3 32  1  0
  4 33  1  0
  4 34  1  0
  5 35  1  0
  5 36  1  0
  7 37  1  0
  7 38  1  0
  8 39  1  0
  8 40  1  0
  9 41  1  0
 12 42  1  0
 13 43  1  0
 14 44  1  0
 15 45  1  0
 18 46  1  0
 18 47  1  0
 18 48  1  0
 20 49  1  0
 21 50  1  0
 22 51  1  0
 25 52  1  0
 25 53  1  0
 25 54  1  0
M  CHG  1  17   1
M  END
>  <smiles>  (1) 
CCNCCOCCNc1c2ccccc2[n+](C)c2cccc(SC)c12

>  <score_type>  (1) 
oracle

>  <origin>  (1) 
adg

>  <m_score__min__energy>  (1) 
-5.6900000000000004

>  <m_primary>  (1) 
energy

$$$$
2:0
     RDKit          3D

 88 91  0  0  0  0  0  0  0  0999 V2000
   56.2470   30.0810   43.5610 C   0  0  0  0  0  0  0  0  0  0  0  0
   56.8490   31.1340   44.4430 C   0  0  0  0  0  0  0  0  0  0  0  0
   57.3420   32.2900   43.7320 N   0  0  0  0  0  0  0  0  0  0  0  0
   58.1370   31.9960   42.6000 C   0  0  0  0  0  0  0  0  0  0  0  0
   57.5430   32.3000   41.2590 C   0  0  0  0  0  0  0  0  0  0  0  0
   57.8730   33.2220   44.6710 C   0  0  0  0  0  0  0  0  0  0  0  0
   57.1740   33.1470   45.9870 C   0  0  0  0  0  0  0  0  0  0  0  0
   57.8660   33.6370   47.0610 O   0  0  0  0  0  0  0  0  0  0  0  0
   59.2110   33.8410   46.8670 C   0  0  0  0  0  0  0  0  0  0  0  0
   60.0760   33.2140   47.9320 C   0  0  0  0  0  0  0  0  0  0  0  0
   59.5320   31.9810   48.4620 N   0  0  0  0  0  0  0  0  0  0  0  0
   59.4010   30.8140   47.8160 C   0  0  0  0  0  0  0  0  0  0  0  0
   59.7570   30.4350   46.4290 C   0  0  0  0  0  0  0  0  0  0  0  0
   59.4010   29.0300   46.1830 C   0  0  0  0  0  0  0  0  0  0  0  0
   60.3620   28.0200   46.2530 C   0  0  0  0  0  0  0  0  0  0  0  0
   60.0130   26.7140   46.0050 C   0  0  0  0  0  0  0  0  0  0  0  0
   58.7380   26.3100   45.6790 C   0  0  0  0  0  0  0  0  0  0  0  0
   58.3840   24.9960   45.4290 O   0  0  0  0  0  0  0  0  0  0  0  0
   57.3950   24.7260   44.4630 C   0  0  0  0  0  0  0  0  0  0  0  0
   57.7800   27.3170   45.6100 C   0  0  0  0  0  0  0  0  0  0  0  0
   58.1200   28.6450   45.8590 C   0  0  0  0  0  0  0  0  0  0  0  0
   58.8520   29.9380   48.6900 N   0  0  0  0  0  0  0  0  0  0  0  0
   58.6560   30.5610   49.8390 C   0  0  0  0  0  0  0  0  0  0  0  0
   58.1460   30.1670   51.0450 C   0  0  0  0  0  0  0  0  0  0  0  0
   58.0150   30.9530   52.1510 C   0  0  0  0  0  0  0  0  0  0  0  0
   57.4590   30.4660   53.4220 C   0  0  0  0  0  0  0  0  0  0  0  0
   56.1990   29.8300   53.3620 N   0  0  0  0  0  0  0  0  0  0  0  0
   55.0920   30.4370   53.9950 C   0  0  0  0  0  0  0  0  0  0  0  0
   53.7460   29.8460   53.7680 C   0  0  0  0  0  0  0  0  0  0  0  0
   52.9220   30.5300   52.7530 C   0  0  0  0  0  0  0  0  0  0  0  0
   53.0800   30.1290   51.4240 C   0  0  0  0  0  0  0  0  0  0  0  0
   52.3220   30.7360   50.4550 C   0  0  0  0  0  0  0  0  0  0  0  0
   51.3940   31.7410   50.7340 C   0  0  0  0  0  0  0  0  0  0  0  0
   50.6920   32.2750   49.6760 O   0  0  0  0  0  0  0  0  0  0  0  0
   50.6000   31.5800   48.4580 C   0  0  0  0  0  0  0  0  0  0  0  0
   51.2650   32.1090   52.0420 C   0  0  0  0  0  0  0  0  0  0  0  0
   50.3520   33.1060   52.3650 O   0  0  0  0  0  0  0  0  0  0  0  0
   50.1040   33.3740   53.7300 C   0  0  0  0  0  0  0  0  0  0  0  0
   52.0070   31.5310   53.0750 C   0  0  0  0  0  0  0  0  0  0  0  0
   58.4460   32.2780   52.0300 C   0  0  0  0  0  0  0  0  0  0  0  0
   58.9750   32.7230   50.8140 C   0  0  0  0  0  0  0  0  0  0  0  0
   59.0820   31.8820   49.7310 C   0  0  0  0  0  0  0  0  0  0  0  0
   55.7971   29.2940   44.1841 H   0  0  0  0  0  0  0  0  0  0  0  0
   55.4715   30.5341   42.9260 H   0  0  0  0  0  0  0  0  0  0  0  0
   57.0309   29.6425   42.9260 H   0  0  0  0  0  0  0  0  0  0  0  0
   56.0801   31.4687   45.1549 H   0  0  0  0  0  0  0  0  0  0  0  0
   57.7165   30.6736   44.9384 H   0  0  0  0  0  0  0  0  0  0  0  0
   59.0692   32.5730   42.6894 H   0  0  0  0  0  0  0  0  0  0  0  0
   58.2669   30.9038   42.6159 H   0  0  0  0  0  0  0  0  0  0  0  0
   56.5711   32.7974   41.3927 H   0  0  0  0  0  0  0  0  0  0  0  0
   58.2200   32.9624   40.6997 H   0  0  0  0  0  0  0  0  0  0  0  0
   57.4017   31.3634   40.6997 H   0  0  0  0  0  0  0  0  0  0  0  0
   58.9406   33.0046   44.8227 H   0  0  0  0  0  0  0  0  0  0  0  0
   57.7276   34.2341   44.2655 H   0  0  0  0  0  0  0  0  0  0  0  0
   56.2359   33.7153   45.9030 H   0  0  0  0  0  0  0  0  0  0  0  0
   57.0333   32.0747   46.1882 H   0  0  0  0  0  0  0  0  0  0  0  0
   59.4912   33.4115   45.8938 H   0  0  0  0  0  0  0  0  0  0  0  0
   59.3824   34.9267   46.9097 H   0  0  0  0  0  0  0  0  0  0  0  0
   61.0641   33.0011   47.4981 H   0  0  0  0  0  0  0  0  0  0  0  0
   60.1337   33.9287   48.7662 H   0  0  0  0  0  0  0  0  0  0  0  0
   59.2096   31.0780   45.7241 H   0  0  0  0  0  0  0  0  0  0  0  0
   60.8404   30.5624   46.2873 H   0  0  0  0  0  0  0  0  0  0  0  0
   61.4025   28.2703   46.5076 H   0  0  0  0  0  0  0  0  0  0  0  0
   60.7984   25.9467   46.0709 H   0  0  0  0  0  0  0  0  0  0  0  0
   56.4515   24.4684   44.9664 H   0  0  0  0  0  0  0  0  0  0  0  0
   57.2441   25.6158   43.8341 H   0  0  0  0  0  0  0  0  0  0  0  0
   57.7172   23.8829   43.8341 H   0  0  0  0  0  0  0  0  0  0  0  0
   56.7408   27.0612   45.3556 H   0  0  0  0  0  0  0  0  0  0  0  0
   57.3360   29.4138   45.7943 H   0  0  0  0  0  0  0  0  0  0  0  0
   57.8116   29.1225   51.1303 H   0  0  0  0  0  0  0  0  0  0  0  0
   58.1755   29.7466   53.8451 H   0  0  0  0  0  0  0  0  0  0  0  0
   57.2985   31.3677   54.0312 H   0  0  0  0  0  0  0  0  0  0  0  0
   56.2320   28.8150   53.5610 H   0  0  0  0  0  0  0  0  0  0  0  0
   55.2812   30.4128   55.0783 H   0  0  0  0  0  0  0  0  0  0  0  0
   55.0320   31.4378   53.5424 H   0  0  0  0  0  0  0  0  0  0  0  0
   53.8822   28.8023   53.4486 H   0  0  0  0  0  0  0  0  0  0  0  0
   53.2039   29.9474   54.7198 H   0  0  0  0  0  0  0  0  0  0  0  0
   53.7996   29.3403   51.1592 H   0  0  0  0  0  0  0  0  0  0  0  0
   52.4513   30.4162   49.4105 H   0  0  0  0  0  0  0  0  0  0  0  0
   50.4580   30.5076   48.6576 H   0  0  0  0  0  0  0  0  0  0  0  0
   49.7446   31.9621   47.8815 H   0  0  0  0  0  0  0  0  0  0  0  0
   51.5253   31.7263   47.8815 H   0  0  0  0  0  0  0  0  0  0  0  0
   50.7201   32.7082   54.3522 H   0  0  0  0  0  0  0  0  0  0  0  0
   50.3586   34.4212   53.9502 H   0  0  0  0  0  0  0  0  0  0  0  0
   49.0402   33.2012   53.9502 H   0  0  0  0  0  0  0  0  0  0  0  0
   51.8725   31.8578   54.1167 H   0  0  0  0  0  0  0  0  0  0  0  0
   58.3695   32.9655   52.8853 H   0  0  0  0  0  0  0  0  0  0  0  0
   59.3120   33.7660   50.7221 H   0  0  0  0  0  0  0  0  0  0  0  0
  1  2  1  0
  2  3  1  0
  3  4  1  0
  4  5  1  0
  3  6  1  0
  6  7  1  0
  7  8  1  0
  8  9  1  0
  9 10  1  0
 10 11  1  0
 11 12  1  0
 12 13  1  0
 13 14  1  0
 14 15  2  0
 15 16  1  0
 16 17  2  0
 17 18  1  0
 18 19  1  0
 17 20  1  0
 20 21  2  0
 12 22  2  0
 22 23  1  0
 23 24  2  0
 24 25  1  0
 25 26  1  0
 26 27  1  0
 27 28  1  0
 28 29  1  0
 29 30  1  0
 30 31  2  0
 31 32  1  0
 32 33  2  0
 33 34  1  0
 34 35  1  0
 33 36  1  0
 36 37  1  0
 37 38  1  0
 36 39  2  0
 25 40  2  0
 40 41  1  0
 41 42  2  0
 42 11  1  0
 21 14  1  0
 42 23  1  0
 39 30  1  0
  1 43  1  0
  1 44  1  0
  1 45  1  0
  2 46  1  0
  2 47  1  0
  4 48  1  0
  4 49  1  0
  5 50  1  0
  5 51  1  0
  5 52  1  0
  6 53  1  0
  6 54  1  0
  7 55  1  0
  7 56  1  0
  9 57  1  0
  9 58  1  0
 10 59  1  0
 10 60  1  0
 13 61  1  0
 13 62  1  0
 15 63  1  0
 16 64  1  0
 19 65  1  0
 19 66  1  0
 19 67  1  0
 20 68  1  0
 21 69  1  0
 24 70  1  0
 26 71  1  0
 26 72  1  0
 27 73  1  0
 28 74  1  0
 28 75  1  0
 29 76  1  0
 29 77  1  0
 31 78  1  0
 32 79  1  0
 35 80  1  0
 35 81  1  0
 35 82  1  0
 38 83  1  0
 38 84  1  0
 38 85  1  0
 39 86  1  0
 40 87  1  0
 41 88  1  0
M  END
>  <smiles>  (2) 
CCN(CC)CCOCCn1c(Cc2ccc(OC)cc2)nc2cc(CNCCc3ccc(OC)c(OC)c3)ccc21

>  <score_type>  (2) 
oracle

>  <origin>  (2) 
adg

>  <m_score__min__energy>  (2) 
-10.19

>  <m_primary>  (2) 
energy

$$$$
3:0
     RDKit          3D

 30 31  0  0  1  0  0  0  0  0999 V2000
   57.3930   34.3080   44.8670 C   0  0  0  0  0  0  0  0  0  0  0  0
   57.8290   32.9020   45.0650 C   0  0  0  0  0  0  0  0  0  0  0  0
   57.1300   31.9240   44.5490 C   0  0  0  0  0  0  0  0  0  0  0  0
   57.5290   30.5170   44.7230 C   0  0  0  0  0  0  0  0  0  0  0  0
   56.6480   29.5030   44.0860 C   0  0  0  0  0  0  0  0  0  0  0  0
   55.5070   29.1960   44.9070 N   0  0  0  0  0  0  0  0  0  0  0  0
   58.6150   30.2010   45.4110 C   0  0  0  0  0  0  0  0  0  0  0  0
   59.3760   31.2640   45.9720 N   0  0  0  0  0  0  0  0  0  0  0  0
   60.5710   30.9240   46.7290 C   0  0  0  0  0  0  0  0  0  0  0  0
   61.1160   32.1240   47.4690 C   0  0  0  0  0  0  0  0  0  0  0  0
   60.0370   32.8960   48.1980 C   0  0  0  0  0  0  0  0  0  0  0  0
   58.9620   33.2080   47.2220 C   0  0  0  0  0  0  0  0  0  0  0  0
   57.9940   33.9080   47.5030 O   0  0  0  0  0  0  0  0  0  0  0  0
   59.0460   32.6550   45.8420 C   0  0  2  0  0  0  0  0  0  0  0  0
   57.2444   34.7871   45.8460 H   0  0  0  0  0  0  0  0  0  0  0  0
   58.1637   34.8551   44.3042 H   0  0  0  0  0  0  0  0  0  0  0  0
   56.4480   34.3231   44.3042 H   0  0  0  0  0  0  0  0  0  0  0  0
   56.2233   32.1579   43.9718 H   0  0  0  0  0  0  0  0  0  0  0  0
   56.2966   29.8933   43.1195 H   0  0  0  0  0  0  0  0  0  0  0  0
   57.2307   28.5798   43.9510 H   0  0  0  0  0  0  0  0  0  0  0  0
   55.5200   29.6270   45.8460 H   0  0  0  0  0  0  0  0  0  0  0  0
   55.1830   28.2170   44.8760 H   0  0  0  0  0  0  0  0  0  0  0  0
   58.9186   29.1522   45.5443 H   0  0  0  0  0  0  0  0  0  0  0  0
   60.3218   30.1377   47.4568 H   0  0  0  0  0  0  0  0  0  0  0  0
   61.3393   30.5743   46.0238 H   0  0  0  0  0  0  0  0  0  0  0  0
   61.8590   31.7782   48.2028 H   0  0  0  0  0  0  0  0  0  0  0  0
   61.5649   32.7990   46.7255 H   0  0  0  0  0  0  0  0  0  0  0  0
   59.6313   32.2868   49.0191 H   0  0  0  0  0  0  0  0  0  0  0  0
   60.4494   33.8226   48.6238 H   0  0  0  0  0  0  0  0  0  0  0  0
   59.8288   33.1659   45.2622 H   0  0  0  0  0  0  0  0  0  0  0  0
  1  2  1  0
  2  3  2  0
  3  4  1  0
  4  5  1  0
  5  6  1  0
  4  7  2  0
  7  8  1  0
  8  9  1  0
  9 10  1  0
 10 11  1  0
 11 12  1  0
 12 13  2  0
 12 14  1  0
 14  2  1  0
 14  8  1  0
  1 15  1  0
  1 16  1  0
  1 17  1  0
  3 18  1  0
  5 19  1  0
  5 20  1  0
  6 21  1  0
  6 22  1  0
  7 23  1  0
  9 24  1  0
  9 25  1  0
 10 26  1  0
 10 27  1  0
 11 28  1  0
 11 29  1  0
 14 30  1  6
M  END
>  <smiles>  (3) 
CC1=CC(CN)=CN2CCCC(=O)C12

>  <score_type>  (3) 
oracle

>  <origin>  (3) 
adg

>  <m_score__min__energy>  (3) 
-6.6600000000000001

>  <m_primary>  (3) 
energy

$$$$
4:0
     RDKit          3D

 36 36  0  0  0  0  0  0  0  0999 V2000
   59.3780   27.5380   46.5830 C   0  0  0  0  0  0  0  0  0  0  0  0
   59.1290   27.5950   45.1610 N   0  0  0  0  0  0  0  0  0  0  0  0
   59.8980   28.6370   44.5110 C   0  0  0  0  0  0  0  0  0  0  0  0
   57.6960   27.7660   44.9300 C   0  0  0  0  0  0  0  0  0  0  0  0
   57.5890   28.8920   43.8910 C   0  0  0  0  0  0  0  0  0  0  0  0
   56.7630   29.9620   44.5000 C   0  0  0  0  0  0  0  0  0  0  0  0
   55.5030   29.8490   44.5380 O   0  0  0  0  0  0  0  0  0  0  0  0
   57.4420   31.1510   45.0530 C   0  0  0  0  0  0  0  0  0  0  0  0
   57.3760   32.3730   44.3820 C   0  0  0  0  0  0  0  0  0  0  0  0
   58.0260   33.4570   44.9380 C   0  0  0  0  0  0  0  0  0  0  0  0
   58.7320   33.3860   46.1170 C   0  0  0  0  0  0  0  0  0  0  0  0
   59.3940   34.5150   46.6700 N   0  0  0  0  0  0  0  0  0  0  0  0
   59.6540   35.7230   45.9190 C   0  0  0  0  0  0  0  0  0  0  0  0
   59.8270   34.4520   48.0440 C   0  0  0  0  0  0  0  0  0  0  0  0
   58.7870   32.1660   46.7690 C   0  0  0  0  0  0  0  0  0  0  0  0
   58.1430   31.0420   46.2440 C   0  0  0  0  0  0  0  0  0  0  0  0
   58.4462   27.7513   47.1272 H   0  0  0  0  0  0  0  0  0  0  0  0
   59.7383   26.5341   46.8522 H   0  0  0  0  0  0  0  0  0  0  0  0
   60.1391   28.2851   46.8522 H   0  0  0  0  0  0  0  0  0  0  0  0
   60.3688   29.2750   45.2734 H   0  0  0  0  0  0  0  0  0  0  0  0
   60.6771   28.1802   43.8831 H   0  0  0  0  0  0  0  0  0  0  0  0
   59.2318   29.2468   43.8831 H   0  0  0  0  0  0  0  0  0  0  0  0
   57.2544   26.8373   44.5396 H   0  0  0  0  0  0  0  0  0  0  0  0
   57.1554   28.0082   45.8569 H   0  0  0  0  0  0  0  0  0  0  0  0
   58.5896   29.2787   43.6477 H   0  0  0  0  0  0  0  0  0  0  0  0
   57.1345   28.5259   42.9586 H   0  0  0  0  0  0  0  0  0  0  0  0
   56.8217   32.4699   43.4368 H   0  0  0  0  0  0  0  0  0  0  0  0
   57.9771   34.4228   44.4137 H   0  0  0  0  0  0  0  0  0  0  0  0
   59.8333   36.5559   46.6148 H   0  0  0  0  0  0  0  0  0  0  0  0
   60.5413   35.5771   45.2854 H   0  0  0  0  0  0  0  0  0  0  0  0
   58.7852   35.9550   45.2854 H   0  0  0  0  0  0  0  0  0  0  0  0
   58.9592   34.5783   48.7081 H   0  0  0  0  0  0  0  0  0  0  0  0
   60.2967   33.4761   48.2360 H   0  0  0  0  0  0  0  0  0  0  0  0
   60.5554   35.2536   48.2360 H   0  0  0  0  0  0  0  0  0  0  0  0
   59.3451   32.0800   47.7130 H   0  0  0  0  0  0  0  0  0  0  0  0
   58.1921   30.0782   46.7719 H   0  0  0  0  0  0  0  0  0  0  0  0
  1  2  1  0
  2  3  1  0
  2  4  1  0
  4  5  1  0
  5  6  1  0
  6  7  2  0
  6  8  1  0
  8  9  2  0
  9 10  1  0
 10 11  2  0
 11 12  1  0
 12 13  1  0
 12 14  1  0
 11 15  1  0
 15 16  2  0
 16  8  1  0
  1 17  1  0
  1 18  1  0
  1 19  1  0
  3 20  1  0
  3 21  1  0
  3 22  1  0
  4 23  1  0
  4 24  1  0
  5 25  1  0
  5 26  1  0
  9 27  1  0
 10 28  1  0
 13 29  1  0
 13 30  1  0
 13 31  1  0
 14 32  1  0
 14 33  1  0
 14 34  1  0
 15 35  1  0
 16 36  1  0
M  END
>  <smiles>  (4) 
CN(C)CCC(=O)c1ccc(N(C)C)cc1

>  <score_type>  (4) 
oracle

>  <origin>  (4) 
adg

>  <m_score__min__energy>  (4) 
-5.7999999999999998

>  <m_primary>  (4) 
energy

$$$$
5:0
     RDKit          3D

 62 64  0  0  0  0  0  0  0  0999 V2000
   57.3920   28.5690   43.4250 C   0  0  0  0  0  0  0  0  0  0  0  0
   56.5250   29.7600   43.6530 C   0  0  0  0  0  0  0  0  0  0  0  0
   56.8730   30.4740   44.8890 N   0  0  0  0  0  0  0  0  0  0  0  0
   57.3490   31.8070   44.5450 C   0  0  0  0  0  0  0  0  0  0  0  0
   57.8140   31.8880   43.1080 C   0  0  0  0  0  0  0  0  0  0  0  0
   57.8660   29.7050   45.5690 C   0  0  0  0  0  0  0  0  0  0  0  0
   58.7350   30.5830   46.4130 C   0  0  0  0  0  0  0  0  0  0  0  0
   60.0200   30.1950   46.4280 O   0  0  0  0  0  0  0  0  0  0  0  0
   60.7710   30.1370   47.5390 C   0  0  0  0  0  0  0  0  0  0  0  0
   59.9280   29.3360   48.5690 C   0  0  0  0  0  0  0  0  0  0  0  0
   59.8000   30.1450   49.6910 O   0  0  0  0  0  0  0  0  0  0  0  0
   58.6320   30.6000   50.2620 C   0  0  0  0  0  0  0  0  0  0  0  0
   57.9160   29.8600   50.9780 O   0  0  0  0  0  0  0  0  0  0  0  0
   58.1480   32.0130   50.0590 C   0  0  0  0  0  0  0  0  0  0  0  0
   59.2740   32.8790   50.2860 N   0  0  0  0  0  0  0  0  0  0  0  0
   60.2420   33.1000   49.2720 C   0  0  0  0  0  0  0  0  0  0  0  0
   61.5790   32.8790   49.5210 C   0  0  0  0  0  0  0  0  0  0  0  0
   61.9040   32.4310   50.7880 C   0  0  0  0  0  0  0  0  0  0  0  0
   63.2000   32.1710   51.1430 C   0  0  0  0  0  0  0  0  0  0  0  0
   64.1960   32.3700   50.1960 C   0  0  0  0  0  0  0  0  0  0  0  0
   63.8460   32.8230   48.9210 C   0  0  0  0  0  0  0  0  0  0  0  0
   62.5490   33.0860   48.5550 C   0  0  0  0  0  0  0  0  0  0  0  0
   62.2090   33.5240   47.3080 N   0  0  0  0  0  0  0  0  0  0  0  0
   63.2590   33.7350   46.3610 C   0  0  0  0  0  0  0  0  0  0  0  0
   60.9030   33.7380   47.0700 C   0  0  0  0  0  0  0  0  0  0  0  0
   60.5030   34.1690   45.8290 C   0  0  0  0  0  0  0  0  0  0  0  0
   59.1560   34.3870   45.5710 C   0  0  0  0  0  0  0  0  0  0  0  0
   58.1730   34.1890   46.5170 C   0  0  0  0  0  0  0  0  0  0  0  0
   58.5740   33.7560   47.7570 C   0  0  0  0  0  0  0  0  0  0  0  0
   59.9100   33.5410   48.0100 C   0  0  0  0  0  0  0  0  0  0  0  0
   57.6986   28.1478   44.3938 H   0  0  0  0  0  0  0  0  0  0  0  0
   56.8325   27.8116   42.8565 H   0  0  0  0  0  0  0  0  0  0  0  0
   58.2847   28.8688   42.8565 H   0  0  0  0  0  0  0  0  0  0  0  0
   56.6388   30.4485   42.8027 H   0  0  0  0  0  0  0  0  0  0  0  0
   55.4873   29.4078   43.7484 H   0  0  0  0  0  0  0  0  0  0  0  0
   56.5303   32.5263   44.6947 H   0  0  0  0  0  0  0  0  0  0  0  0
   58.2062   32.0401   45.1937 H   0  0  0  0  0  0  0  0  0  0  0  0
   58.8974   32.0767   43.0833 H   0  0  0  0  0  0  0  0  0  0  0  0
   57.5955   30.9383   42.5978 H   0  0  0  0  0  0  0  0  0  0  0  0
   57.2873   32.7079   42.5978 H   0  0  0  0  0  0  0  0  0  0  0  0
   57.3695   28.9639   46.2126 H   0  0  0  0  0  0  0  0  0  0  0  0
   58.4957   29.2025   44.8200 H   0  0  0  0  0  0  0  0  0  0  0  0
   58.6837   31.6088   46.0191 H   0  0  0  0  0  0  0  0  0  0  0  0
   58.3612   30.5188   47.4456 H   0  0  0  0  0  0  0  0  0  0  0  0
   61.7204   29.6204   47.3346 H   0  0  0  0  0  0  0  0  0  0  0  0
   61.0255   31.1400   47.9121 H   0  0  0  0  0  0  0  0  0  0  0  0
   58.9366   29.1062   48.1515 H   0  0  0  0  0  0  0  0  0  0  0  0
   60.4121   28.3810   48.8213 H   0  0  0  0  0  0  0  0  0  0  0  0
   57.7740   32.1406   49.0324 H   0  0  0  0  0  0  0  0  0  0  0  0
   57.3250   32.2494   50.7494 H   0  0  0  0  0  0  0  0  0  0  0  0
   59.4340   33.3790   51.1940 H   0  0  0  0  0  0  0  0  0  0  0  0
   61.1033   32.2802   51.5270 H   0  0  0  0  0  0  0  0  0  0  0  0
   63.4466   31.8132   52.1535 H   0  0  0  0  0  0  0  0  0  0  0  0
   65.2488   32.1733   50.4466 H   0  0  0  0  0  0  0  0  0  0  0  0
   64.6437   32.9754   48.1790 H   0  0  0  0  0  0  0  0  0  0  0  0
   64.2018   33.9245   46.8950 H   0  0  0  0  0  0  0  0  0  0  0  0
   63.3685   32.8409   45.7297 H   0  0  0  0  0  0  0  0  0  0  0  0
   63.0146   34.6020   45.7297 H   0  0  0  0  0  0  0  0  0  0  0  0
   61.2493   34.3415   45.0395 H   0  0  0  0  0  0  0  0  0  0  0  0
   58.8609   34.7324   44.5692 H   0  0  0  0  0  0  0  0  0  0  0  0
   57.1124   34.3702   46.2883 H   0  0  0  0  0  0  0  0  0  0  0  0
   57.8287   33.5812   48.5470 H   0  0  0  0  0  0  0  0  0  0  0  0
  1  2  1  0
  2  3  1  0
  3  4  1  0
  4  5  1  0
  3  6  1  0
  6  7  1  0
  7  8  1  0
  8  9  1  0
  9 10  1  0
 10 11  1  0
 11 12  1  0
 12 13  2  0
 12 14  1  0
 14 15  1  0
 15 16  1  0
 16 17  2  0
 17 18  1  0
 18 19  2  0
 19 20  1  0
 20 21  2  0
 21 22  1  0
 22 23  2  0
 23 24  1  0
 23 25  1  0
 25 26  2  0
 26 27  1  0
 27 28  2  0
 28 29  1  0
 29 30  2  0
 30 16  1  0
 22 17  1  0
 30 25  1  0
  1 31  1  0
  1 32  1  0
  1 33  1  0
  2 34  1  0
  2 35  1  0
  4 36  1  0
  4 37  1  0
  5 38  1  0
  5 39  1  0
  5 40  1  0
  6 41  1  0
  6 42  1  0
  7 43  1  0
  7 44  1  0
  9 45  1  0
  9 46  1  0
 10 47  1  0
 10 48  1  0
 14 49  1  0
 14 50  1  0
 15 51  1  0
 18 52  1  0
 19 53  1  0
 20 54  1  0
 21 55  1  0
 24 56  1  0
 24 57  1  0
 24 58  1  0
 26 59  1  0
 27 60  1  0
 28 61  1  0
 29 62  1  0
M  CHG  1  23   1
M  END
>  <smiles>  (5) 
CCN(CC)CCOCCOC(=O)CNc1c2ccccc2[n+](C)c2ccccc12

>  <score_type>  (5) 
oracle

>  <origin>  (5) 
adg

>  <m_score__min__energy>  (5) 
-6.1900000000000004

>  <m_primary>  (5) 
energy

$$$$
6:0
     RDKit          3D

 57 60  0  0  0  0  0  0  0  0999 V2000
   63.3950   32.0050   47.2120 C   0  0  0  0  0  0  0  0  0  0  0  0
   63.0420   33.4480   47.0310 C   0  0  0  0  0  0  0  0  0  0  0  0
   62.3850   34.0650   48.1300 N   0  0  0  0  0  0  0  0  0  0  0  0
   62.9930   34.0890   49.3930 C   0  0  0  0  0  0  0  0  0  0  0  0
   62.1170   33.8650   50.5920 C   0  0  0  0  0  0  0  0  0  0  0  0
   60.7850   33.6180   50.1820 O   0  0  0  0  0  0  0  0  0  0  0  0
   60.1850   32.6950   51.0220 C   0  0  0  0  0  0  0  0  0  0  0  0
   60.7470   31.2870   50.8350 C   0  0  0  0  0  0  0  0  0  0  0  0
   60.1830   30.7790   49.5410 C   0  0  0  0  0  0  0  0  0  0  0  0
   60.4010   31.5910   48.3970 N   0  0  0  0  0  0  0  0  0  0  0  0
   59.7590   31.5580   47.1510 C   0  0  0  0  0  0  0  0  0  0  0  0
   59.3640   30.3350   46.5890 C   0  0  0  0  0  0  0  0  0  0  0  0
   58.7130   30.2440   45.3820 C   0  0  0  0  0  0  0  0  0  0  0  0
   58.4150   31.3480   44.6670 N   0  0  0  0  0  0  0  0  0  0  0  0
   57.7270   31.2110   43.4120 C   0  0  0  0  0  0  0  0  0  0  0  0
   58.7730   32.5440   45.1650 C   0  0  0  0  0  0  0  0  0  0  0  0
   58.4950   33.7160   44.4950 C   0  0  0  0  0  0  0  0  0  0  0  0
   58.8520   34.9690   45.0050 C   0  0  0  0  0  0  0  0  0  0  0  0
   59.4980   34.9960   46.2130 C   0  0  0  0  0  0  0  0  0  0  0  0
   59.7710   33.8700   46.8660 N   0  0  0  0  0  0  0  0  0  0  0  0
   59.4380   32.6720   46.3910 C   0  0  0  0  0  0  0  0  0  0  0  0
   58.4830   28.8040   45.1440 C   0  0  0  0  0  0  0  0  0  0  0  0
   57.8930   28.0780   44.1280 C   0  0  0  0  0  0  0  0  0  0  0  0
   57.8110   26.6890   44.1560 C   0  0  0  0  0  0  0  0  0  0  0  0
   58.3180   25.9790   45.2030 C   0  0  0  0  0  0  0  0  0  0  0  0
   58.9130   26.6740   46.2320 C   0  0  0  0  0  0  0  0  0  0  0  0
   58.9890   28.0620   46.1930 C   0  0  0  0  0  0  0  0  0  0  0  0
   59.5640   28.9870   47.1570 C   0  0  0  0  0  0  0  0  0  0  0  0
   63.4517   31.7733   48.2858 H   0  0  0  0  0  0  0  0  0  0  0  0
   62.6240   31.3771   46.7416 H   0  0  0  0  0  0  0  0  0  0  0  0
   64.3688   31.8039   46.7416 H   0  0  0  0  0  0  0  0  0  0  0  0
   63.9728   34.0020   46.8395 H   0  0  0  0  0  0  0  0  0  0  0  0
   62.3247   33.4786   46.1976 H   0  0  0  0  0  0  0  0  0  0  0  0
   61.3450   33.9470   48.1340 H   0  0  0  0  0  0  0  0  0  0  0  0
   63.7668   33.3072   49.4004 H   0  0  0  0  0  0  0  0  0  0  0  0
   63.3614   35.1193   49.5055 H   0  0  0  0  0  0  0  0  0  0  0  0
   62.4899   32.9988   51.1583 H   0  0  0  0  0  0  0  0  0  0  0  0
   62.1377   34.7637   51.2259 H   0  0  0  0  0  0  0  0  0  0  0  0
   60.3501   33.0059   52.0641 H   0  0  0  0  0  0  0  0  0  0  0  0
   59.1133   32.6641   50.7760 H   0  0  0  0  0  0  0  0  0  0  0  0
   61.8455   31.3184   50.7859 H   0  0  0  0  0  0  0  0  0  0  0  0
   60.4742   30.6319   51.6755 H   0  0  0  0  0  0  0  0  0  0  0  0
   60.6321   29.7945   49.3434 H   0  0  0  0  0  0  0  0  0  0  0  0
   59.0925   30.7609   49.6838 H   0  0  0  0  0  0  0  0  0  0  0  0
   61.1690   32.3350   48.5040 H   0  0  0  0  0  0  0  0  0  0  0  0
   56.6637   30.9993   43.5980 H   0  0  0  0  0  0  0  0  0  0  0  0
   57.8201   32.1453   42.8389 H   0  0  0  0  0  0  0  0  0  0  0  0
   58.1709   30.3836   42.8389 H   0  0  0  0  0  0  0  0  0  0  0  0
   57.9751   33.6645   43.5270 H   0  0  0  0  0  0  0  0  0  0  0  0
   58.6232   35.8955   44.4580 H   0  0  0  0  0  0  0  0  0  0  0  0
   59.7947   35.9616   46.6484 H   0  0  0  0  0  0  0  0  0  0  0  0
   57.4729   28.6168   43.2659 H   0  0  0  0  0  0  0  0  0  0  0  0
   57.3304   26.1570   43.3217 H   0  0  0  0  0  0  0  0  0  0  0  0
   58.2537   24.8811   45.2254 H   0  0  0  0  0  0  0  0  0  0  0  0
   59.3309   26.1278   47.0905 H   0  0  0  0  0  0  0  0  0  0  0  0
   59.0502   28.8993   48.1257 H   0  0  0  0  0  0  0  0  0  0  0  0
   60.6289   28.7764   47.3351 H   0  0  0  0  0  0  0  0  0  0  0  0
  1  2  1  0
  2  3  1  0
  3  4  1  0
  4  5  1  0
  5  6  1  0
  6  7  1  0
  7  8  1  0
  8  9  1  0
  9 10  1  0
 10 11  1  0
 11 12  2  0
 12 13  1  0
 13 14  2  0
 14 15  1  0
 14 16  1  0
 16 17  2  0
 17 18  1  0
 18 19  2  0
 19 20  1  0
 20 21  2  0
 13 22  1  0
 22 23  2  0
 23 24  1  0
 24 25  2  0
 25 26  1  0
 26 27  2  0
 27 28  1  0
 21 11  1  0
 27 22  1  0
 28 12  1  0
 21 16  1  0
  1 29  1  0
  1 30  1  0
  1 31  1  0
  2 32  1  0
  2 33  1  0
  3 34  1  0
  4 35  1  0
  4 36  1  0
  5 37  1  0
  5 38  1  0
  7 39  1  0
  7 40  1  0
  8 41  1  0
  8 42  1  0
  9 43  1  0
  9 44  1  0
 10 45  1  0
 15 46  1  0
 15 47  1  0
 15 48  1  0
 17 49  1  0
 18 50  1  0
 19 51  1  0
 23 52  1  0
 24 53  1  0
 25 54  1  0
 26 55  1  0
 28 56  1  0
 28 57  1  0
M  CHG  1  14   1
M  END
>  <smiles>  (6) 
CCNCCOCCCNc1c2c([n+](C)c3cccnc13)-c1ccccc1C2

>  <score_type>  (6) 
oracle

>  <origin>  (6) 
adg

>  <m_score__min__energy>  (6) 
-5.9800000000000004

>  <m_primary>  (6) 
energy

$$$$
7:0
     RDKit          3D

 43 45  0  0  0  0  0  0  0  0999 V2000
   63.0760   33.8020   46.5840 C   0  0  0  0  0  0  0  0  0  0  0  0
   63.4060   32.7600   47.4950 N   0  0  0  0  0  0  0  0  0  0  0  0
   64.0590   33.0980   48.6910 C   0  0  0  0  0  0  0  0  0  0  0  0
   62.5630   31.6120   47.4630 C   0  0  0  0  0  0  0  0  0  0  0  0
   61.6030   31.5480   48.6230 C   0  0  0  0  0  0  0  0  0  0  0  0
   60.5180   30.5480   48.5090 C   0  0  0  0  0  0  0  0  0  0  0  0
   59.1940   30.9850   48.2240 N   0  0  0  0  0  0  0  0  0  0  0  0
   58.8960   31.4210   46.8980 C   0  0  0  0  0  0  0  0  0  0  0  0
   59.0230   32.6920   46.4210 C   0  0  0  0  0  0  0  0  0  0  0  0
   59.5210   33.6890   47.2170 C   0  0  0  0  0  0  0  0  0  0  0  0
   59.6600   34.9670   46.7300 C   0  0  0  0  0  0  0  0  0  0  0  0
   59.2730   35.1730   45.4160 C   0  0  0  0  0  0  0  0  0  0  0  0
   58.7740   34.1780   44.6090 C   0  0  0  0  0  0  0  0  0  0  0  0
   58.6360   32.8970   45.1020 C   0  0  0  0  0  0  0  0  0  0  0  0
   58.1630   31.9530   44.3010 N   0  0  0  0  0  0  0  0  0  0  0  0
   57.8020   32.3300   42.9510 C   0  0  0  0  0  0  0  0  0  0  0  0
   58.0190   30.6480   44.7490 C   0  0  0  0  0  0  0  0  0  0  0  0
   57.5580   29.6120   44.0360 C   0  0  0  0  0  0  0  0  0  0  0  0
   57.4910   28.3740   44.6630 C   0  0  0  0  0  0  0  0  0  0  0  0
   58.1300   28.7160   46.3870 S   0  0  0  0  0  0  0  0  0  0  0  0
   58.4010   30.4600   46.0410 C   0  0  0  0  0  0  0  0  0  0  0  0
   62.7905   34.7035   47.1459 H   0  0  0  0  0  0  0  0  0  0  0  0
   63.9474   34.0252   45.9509 H   0  0  0  0  0  0  0  0  0  0  0  0
   62.2350   33.4828   45.9509 H   0  0  0  0  0  0  0  0  0  0  0  0
   63.4449   32.7802   49.5465 H   0  0  0  0  0  0  0  0  0  0  0  0
   65.0347   32.5917   48.7318 H   0  0  0  0  0  0  0  0  0  0  0  0
   64.2090   34.1870   48.7318 H   0  0  0  0  0  0  0  0  0  0  0  0
   61.9821   31.6307   46.5291 H   0  0  0  0  0  0  0  0  0  0  0  0
   63.2132   30.7271   47.5275 H   0  0  0  0  0  0  0  0  0  0  0  0
   62.1829   31.3145   49.5281 H   0  0  0  0  0  0  0  0  0  0  0  0
   61.1035   32.5277   48.6507 H   0  0  0  0  0  0  0  0  0  0  0  0
   60.8058   29.8525   47.7068 H   0  0  0  0  0  0  0  0  0  0  0  0
   60.4413   30.1307   49.5239 H   0  0  0  0  0  0  0  0  0  0  0  0
   58.3940   31.0260   48.8970 H   0  0  0  0  0  0  0  0  0  0  0  0
   59.8120   33.4654   48.2540 H   0  0  0  0  0  0  0  0  0  0  0  0
   60.0576   35.7831   47.3511 H   0  0  0  0  0  0  0  0  0  0  0  0
   59.3699   36.1852   44.9964 H   0  0  0  0  0  0  0  0  0  0  0  0
   58.4852   34.4031   43.5717 H   0  0  0  0  0  0  0  0  0  0  0  0
   57.0415   33.1242   42.9830 H   0  0  0  0  0  0  0  0  0  0  0  0
   58.6937   32.6973   42.4220 H   0  0  0  0  0  0  0  0  0  0  0  0
   57.3963   31.4550   42.4220 H   0  0  0  0  0  0  0  0  0  0  0  0
   57.2431   29.7372   42.9895 H   0  0  0  0  0  0  0  0  0  0  0  0
   57.1439   27.4179   44.2441 H   0  0  0  0  0  0  0  0  0  0  0  0
  1  2  1  0
  2  3  1  0
  2  4  1  0
  4  5  1  0
  5  6  1  0
  6  7  1  0
  7  8  1  0
  8  9  2  0
  9 10  1  0
 10 11  2  0
 11 12  1  0
 12 13  2  0
 13 14  1  0
 14 15  2  0
 15 16  1  0
 15 17  1  0
 17 18  1  0
 18 19  2  0
 19 20  1  0
 20 21  1  0
 21  8  1  0
 14  9  1  0
 21 17  2  0
  1 22  1  0
  1 23  1  0
  1 24  1  0
  3 25  1  0
  3 26  1  0
  3 27  1  0
  4 28  1  0
  4 29  1  0
  5 30  1  0
  5 31  1  0
  6 32  1  0
  6 33  1  0
  7 34  1  0
 10 35  1  0
 11 36  1  0
 12 37  1  0
 13 38  1  0
 16 39  1  0
 16 40  1  0
 16 41  1  0
 18 42  1  0
 19 43  1  0
M  CHG  1  15   1
M  END
>  <smiles>  (7) 
CN(C)CCCNc1c2ccccc2[n+](C)c2ccsc12

>  <score_type>  (7) 
oracle

>  <origin>  (7) 
adg

>  <m_score__min__energy>  (7) 
-5.0499999999999998

>  <m_primary>  (7) 
energy

$$$$
8:0
     RDKit          3D

 85 89  0  0  1  0  0  0  0  0999 V2000
   57.0340   30.4680   52.0040 C   0  0  0  0  0  0  0  0  0  0  0  0
   57.3480   31.9230   51.6390 C   0  0  0  0  0  0  0  0  0  0  0  0
   58.7090   32.0640   51.2690 N   0  0  0  0  0  0  0  0  0  0  0  0
   59.0900   33.4610   51.1100 C   0  0  0  0  0  0  0  0  0  0  0  0
   59.6580   33.7100   49.7790 C   0  0  0  0  0  0  0  0  0  0  0  0
   60.3800   32.6290   49.1190 N   0  0  0  0  0  0  0  0  0  0  0  0
   59.7580   32.1600   47.9000 C   0  0  0  0  0  0  0  0  0  0  0  0
   59.4840   33.0920   46.9060 C   0  0  0  0  0  0  0  0  0  0  0  0
   59.8810   34.4170   47.0190 C   0  0  0  0  0  0  0  0  0  0  0  0
   59.6390   35.3580   46.0400 C   0  0  0  0  0  0  0  0  0  0  0  0
   58.9810   34.9620   44.9170 C   0  0  0  0  0  0  0  0  0  0  0  0
   58.5750   33.6330   44.7840 C   0  0  0  0  0  0  0  0  0  0  0  0
   58.8090   32.6820   45.7500 C   0  0  0  0  0  0  0  0  0  0  0  0
   58.4230   31.3840   45.5950 N   0  0  0  0  0  0  0  0  0  0  0  0
   57.6890   30.9780   44.3980 C   0  0  0  0  0  0  0  0  0  0  0  0
   58.7000   30.4680   46.5710 C   0  0  0  0  0  0  0  0  0  0  0  0
   58.3840   29.1510   46.4490 C   0  0  0  0  0  0  0  0  0  0  0  0
   58.6880   28.1790   47.3900 C   0  0  0  0  0  0  0  0  0  0  0  0
   59.3550   28.5660   48.5220 C   0  0  0  0  0  0  0  0  0  0  0  0
   59.7000   29.9030   48.6940 C   0  0  0  0  0  0  0  0  0  0  0  0
   60.3830   30.2090   49.8550 O   0  0  0  0  0  0  0  0  0  0  0  0
   60.6150   29.2930   50.9030 C   0  0  0  0  0  0  0  0  0  0  0  0
   60.9990   30.0630   52.1280 C   0  0  0  0  0  0  0  0  0  0  0  0
   62.2590   30.7520   52.0520 N   0  0  1  0  0  0  0  0  0  0  0  0
   63.0680   30.5980   53.2200 C   0  0  0  0  0  0  0  0  0  0  0  0
   62.9920   30.2390   50.9160 C   0  0  0  0  0  0  0  0  0  0  0  0
   63.4300   31.2840   49.9390 C   0  0  0  0  0  0  0  0  0  0  0  0
   64.0100   32.4700   50.5340 N   0  0  2  0  0  0  0  0  0  0  0  0
   64.1130   33.4490   49.4770 C   0  0  0  0  0  0  0  0  0  0  0  0
   65.2440   32.1180   51.1610 C   0  0  0  0  0  0  0  0  0  0  0  0
   66.2490   33.1350   51.2130 N   0  0  0  0  0  0  0  0  0  0  0  0
   66.1450   34.2480   51.9840 C   0  0  0  0  0  0  0  0  0  0  0  0
   67.1280   35.2160   52.0270 C   0  0  0  0  0  0  0  0  0  0  0  0
   68.2680   35.0750   51.2700 C   0  0  0  0  0  0  0  0  0  0  0  0
   68.3860   33.9510   50.4840 C   0  0  0  0  0  0  0  0  0  0  0  0
   67.3670   33.0040   50.4750 C   0  0  0  0  0  0  0  0  0  0  0  0
   63.1310   33.0110   51.5640 C   0  0  0  0  0  0  0  0  0  0  0  0
   61.9450   32.1600   51.8620 C   0  0  0  0  0  0  0  0  0  0  0  0
   59.3740   30.8490   47.7350 C   0  0  0  0  0  0  0  0  0  0  0  0
   57.0110   30.3613   53.0986 H   0  0  0  0  0  0  0  0  0  0  0  0
   56.0549   30.1886   51.5877 H   0  0  0  0  0  0  0  0  0  0  0  0
   57.8108   29.8097   51.5877 H   0  0  0  0  0  0  0  0  0  0  0  0
   56.7110   32.2294   50.7962 H   0  0  0  0  0  0  0  0  0  0  0  0
   57.1522   32.5578   52.5157 H   0  0  0  0  0  0  0  0  0  0  0  0
   59.0220   31.4720   50.4850 H   0  0  0  0  0  0  0  0  0  0  0  0
   58.1996   34.0929   51.2437 H   0  0  0  0  0  0  0  0  0  0  0  0
   59.8538   33.7010   51.8643 H   0  0  0  0  0  0  0  0  0  0  0  0
   58.8259   33.9957   49.1188 H   0  0  0  0  0  0  0  0  0  0  0  0
   60.4242   34.4801   49.9522 H   0  0  0  0  0  0  0  0  0  0  0  0
   61.2650   32.2220   49.4770 H   0  0  0  0  0  0  0  0  0  0  0  0
   60.4122   34.7307   47.9297 H   0  0  0  0  0  0  0  0  0  0  0  0
   59.9690   36.4000   46.1638 H   0  0  0  0  0  0  0  0  0  0  0  0
   58.7697   35.6864   44.1167 H   0  0  0  0  0  0  0  0  0  0  0  0
   58.0454   33.3335   43.8676 H   0  0  0  0  0  0  0  0  0  0  0  0
   56.7617   30.4651   44.6929 H   0  0  0  0  0  0  0  0  0  0  0  0
   57.4417   31.8676   43.8001 H   0  0  0  0  0  0  0  0  0  0  0  0
   58.3112   30.2958   43.8001 H   0  0  0  0  0  0  0  0  0  0  0  0
   57.8501   28.8348   45.5407 H   0  0  0  0  0  0  0  0  0  0  0  0
   58.4021   27.1286   47.2321 H   0  0  0  0  0  0  0  0  0  0  0  0
   59.6165   27.8240   49.2908 H   0  0  0  0  0  0  0  0  0  0  0  0
   59.7005   28.7142   51.0996 H   0  0  0  0  0  0  0  0  0  0  0  0
   61.4212   28.5980   50.6256 H   0  0  0  0  0  0  0  0  0  0  0  0
   60.2145   30.8099   52.3195 H   0  0  0  0  0  0  0  0  0  0  0  0
   61.1069   29.3203   52.9322 H   0  0  0  0  0  0  0  0  0  0  0  0
   62.4429   30.7170   54.1173 H   0  0  0  0  0  0  0  0  0  0  0  0
   63.5239   29.5969   53.2209 H   0  0  0  0  0  0  0  0  0  0  0  0
   63.8598   31.3615   53.2209 H   0  0  0  0  0  0  0  0  0  0  0  0
   62.3477   29.5217   50.3865 H   0  0  0  0  0  0  0  0  0  0  0  0
   63.9081   29.7796   51.3155 H   0  0  0  0  0  0  0  0  0  0  0  0
   62.5527   31.5909   49.3507 H   0  0  0  0  0  0  0  0  0  0  0  0
   64.2231   30.8246   49.3307 H   0  0  0  0  0  0  0  0  0  0  0  0
   64.2186   34.4523   49.9155 H   0  0  0  0  0  0  0  0  0  0  0  0
   64.9927   33.2262   48.8553 H   0  0  0  0  0  0  0  0  0  0  0  0
   63.2062   33.4141   48.8553 H   0  0  0  0  0  0  0  0  0  0  0  0
   65.0192   31.8177   52.1951 H   0  0  0  0  0  0  0  0  0  0  0  0
   65.6704   31.3205   50.5347 H   0  0  0  0  0  0  0  0  0  0  0  0
   65.2424   34.3834   52.5980 H   0  0  0  0  0  0  0  0  0  0  0  0
   66.9997   36.1012   52.6673 H   0  0  0  0  0  0  0  0  0  0  0  0
   69.0610   35.8371   51.2921 H   0  0  0  0  0  0  0  0  0  0  0  0
   69.2831   33.8022   49.8651 H   0  0  0  0  0  0  0  0  0  0  0  0
   67.4793   32.1130   49.8397 H   0  0  0  0  0  0  0  0  0  0  0  0
   62.7737   33.9963   51.2302 H   0  0  0  0  0  0  0  0  0  0  0  0
   63.7231   33.0641   52.4895 H   0  0  0  0  0  0  0  0  0  0  0  0
   61.2379   32.2466   51.0238 H   0  0  0  0  0  0  0  0  0  0  0  0
   61.5237   32.5228   52.8112 H   0  0  0  0  0  0  0  0  0  0  0  0
  1  2  1  0
  2  3  1  0
  3  4  1  0
  4  5  1  0
  5  6  1  0
  6  7  1  0
  7  8  2  0
  8  9  1  0
  9 10  2  0
 10 11  1  0
 11 12  2  0
 12 13  1  0
 13 14  2  0
 14 15  1  0
 14 16  1  0
 16 17  2  0
 17 18  1  0
 18 19  2  0
 19 20  1  0
 20 21  1  0
 21 22  1  0
 22 23  1  0
 24 23  1  1
 24 25  1  0
 24 26  1  0
 26 27  1  0
 27 28  1  0
 28 29  1  6
 28 30  1  0
 30 31  1  0
 31 32  2  0
 32 33  1  0
 33 34  2  0
 34 35  1  0
 35 36  2  0
 28 37  1  0
 37 38  1  0
 20 39  2  0
 39  7  1  0
 13  8  1  0
 39 16  1  0
 38 24  1  0
 36 31  1  0
  1 40  1  0
  1 41  1  0
  1 42  1  0
  2 43  1  0
  2 44  1  0
  3 45  1  0
  4 46  1  0
  4 47  1  0
  5 48  1  0
  5 49  1  0
  6 50  1  0
  9 51  1  0
 10 52  1  0
 11 53  1  0
 12 54  1  0
 15 55  1  0
 15 56  1  0
 15 57  1  0
 17 58  1  0
 18 59  1  0
 19 60  1  0
 22 61  1  0
 22 62  1  0
 23 63  1  0
 23 64  1  0
 25 65  1  0
 25 66  1  0
 25 67  1  0
 26 68  1  0
 26 69  1  0
 27 70  1  0
 27 71  1  0
 29 72  1  0
 29 73  1  0
 29 74  1  0
 30 75  1  0
 30 76  1  0
 32 77  1  0
 33 78  1  0
 34 79  1  0
 35 80  1  0
 36 81  1  0
 37 82  1  0
 37 83  1  0
 38 84  1  0
 38 85  1  0
M  CHG  4  14   1  24   1  28   1  31   1
M  END
>  <smiles>  (8) 
CCNCCNc1c2ccccc2[n+](C)c2cccc(OCC[N+]3(C)CC[N+](C)(C[n+]4ccccc4)CC3)c12

>  <score_type>  (8) 
oracle

>  <origin>  (8) 
adg

>  <m_score__min__energy>  (8) 
-3.6299999999999999

>  <m_primary>  (8) 
energy

$$$$
9:0
     RDKit          3D

 62 64  0  0  1  0  0  0  0  0999 V2000
   59.2880   33.8420   51.6470 C   0  0  0  0  0  0  0  0  0  0  0  0
   59.8020   33.7850   50.2140 C   0  0  0  0  0  0  0  0  0  0  0  0
   59.8560   32.5060   49.6450 N   0  0  0  0  0  0  0  0  0  0  0  0
   58.6280   31.9760   49.2120 C   0  0  0  0  0  0  0  0  0  0  0  0
   60.9490   31.6500   49.8800 C   0  0  0  0  0  0  0  0  0  0  0  0
   60.8310   30.4550   48.8710 C   0  0  0  0  0  0  0  0  0  0  0  0
   60.8610   30.9180   47.5280 N   0  0  0  0  0  0  0  0  0  0  0  0
   60.0040   30.9280   46.4410 C   0  0  0  0  0  0  0  0  0  0  0  0
   59.5260   29.7900   45.8330 C   0  0  0  0  0  0  0  0  0  0  0  0
   59.9690   28.5190   46.1410 C   0  0  0  0  0  0  0  0  0  0  0  0
   59.5280   27.3720   45.5580 C   0  0  0  0  0  0  0  0  0  0  0  0
   58.5700   27.4290   44.5830 C   0  0  0  0  0  0  0  0  0  0  0  0
   58.0880   28.6670   44.2290 C   0  0  0  0  0  0  0  0  0  0  0  0
   58.5470   29.8390   44.8340 C   0  0  0  0  0  0  0  0  0  0  0  0
   58.0320   31.0410   44.4270 N   0  0  0  0  0  0  0  0  0  0  0  0
   57.0240   30.9560   43.4050 C   0  0  0  0  0  0  0  0  0  0  0  0
   58.4870   32.1620   44.9950 C   0  0  0  0  0  0  0  0  0  0  0  0
   57.9770   33.3630   44.5580 C   0  0  0  0  0  0  0  0  0  0  0  0
   58.3910   34.5890   45.0490 C   0  0  0  0  0  0  0  0  0  0  0  0
   59.3660   34.5700   46.0150 C   0  0  0  0  0  0  0  0  0  0  0  0
   59.8990   33.3530   46.4710 C   0  0  0  0  0  0  0  0  0  0  0  0
   61.1230   33.5000   47.1820 N   0  0  0  0  0  0  0  0  0  0  0  0
   62.3920   33.8410   46.5090 C   0  0  0  0  0  0  0  0  0  0  0  0
   63.5250   33.1570   47.1300 C   0  0  0  0  0  0  0  0  0  0  0  0
   63.4370   32.5020   48.2140 N   0  0  0  0  0  0  0  0  0  0  0  0
   64.2820   32.7580   49.3420 C   0  0  0  0  0  0  0  0  0  0  0  0
   63.7150   33.8350   50.2550 C   0  0  0  0  0  0  0  0  0  0  0  0
   62.4920   34.3310   49.6710 N   0  0  0  0  0  0  0  0  0  0  0  0
   59.4670   32.1340   45.9890 C   0  0  0  0  0  0  0  0  0  0  0  0
   60.1339   33.7482   52.3439 H   0  0  0  0  0  0  0  0  0  0  0  0
   58.7785   34.8022   51.8159 H   0  0  0  0  0  0  0  0  0  0  0  0
   58.5805   33.0168   51.8159 H   0  0  0  0  0  0  0  0  0  0  0  0
   59.1408   34.4057   49.5914 H   0  0  0  0  0  0  0  0  0  0  0  0
   60.8410   34.1444   50.2504 H   0  0  0  0  0  0  0  0  0  0  0  0
   58.0144   31.7112   50.0857 H   0  0  0  0  0  0  0  0  0  0  0  0
   58.0984   32.7257   48.6057 H   0  0  0  0  0  0  0  0  0  0  0  0
   58.8103   31.0764   48.6057 H   0  0  0  0  0  0  0  0  0  0  0  0
   61.8927   32.1904   49.7147 H   0  0  0  0  0  0  0  0  0  0  0  0
   60.9420   31.2855   50.9178 H   0  0  0  0  0  0  0  0  0  0  0  0
   61.6714   29.7638   49.0321 H   0  0  0  0  0  0  0  0  0  0  0  0
   59.8727   29.9433   49.0441 H   0  0  0  0  0  0  0  0  0  0  0  0
   61.7400   31.5920   47.3830 H   0  0  0  0  0  0  0  0  0  0  0  0
   60.7401   28.4267   46.9200 H   0  0  0  0  0  0  0  0  0  0  0  0
   59.9405   26.4011   45.8696 H   0  0  0  0  0  0  0  0  0  0  0  0
   58.1976   26.5145   44.0983 H   0  0  0  0  0  0  0  0  0  0  0  0
   57.3182   28.7364   43.4463 H   0  0  0  0  0  0  0  0  0  0  0  0
   56.0325   30.8724   43.8740 H   0  0  0  0  0  0  0  0  0  0  0  0
   57.0587   31.8603   42.7796 H   0  0  0  0  0  0  0  0  0  0  0  0
   57.2097   30.0703   42.7796 H   0  0  0  0  0  0  0  0  0  0  0  0
   57.2008   33.3479   43.7788 H   0  0  0  0  0  0  0  0  0  0  0  0
   57.9598   35.5325   44.6830 H   0  0  0  0  0  0  0  0  0  0  0  0
   59.7336   35.5173   46.4363 H   0  0  0  0  0  0  0  0  0  0  0  0
   61.2850   33.2790   48.1890 H   0  0  0  0  0  0  0  0  0  0  0  0
   62.3285   33.5418   45.4524 H   0  0  0  0  0  0  0  0  0  0  0  0
   62.5509   34.9258   46.5983 H   0  0  0  0  0  0  0  0  0  0  0  0
   64.5044   33.2127   46.6323 H   0  0  0  0  0  0  0  0  0  0  0  0
   64.3937   31.8280   49.9187 H   0  0  0  0  0  0  0  0  0  0  0  0
   65.2512   33.1141   48.9627 H   0  0  0  0  0  0  0  0  0  0  0  0
   63.5064   33.4086   51.2473 H   0  0  0  0  0  0  0  0  0  0  0  0
   64.4396   34.6550   50.3669 H   0  0  0  0  0  0  0  0  0  0  0  0
   61.8730   33.5340   49.4280 H   0  0  0  0  0  0  0  0  0  0  0  0
   62.7180   34.9470   48.8810 H   0  0  0  0  0  0  0  0  0  0  0  0
  1  2  1  0
  2  3  1  0
  3  4  1  0
  3  5  1  0
  5  6  1  0
  6  7  1  0
  7  8  1  0
  8  9  2  0
  9 10  1  0
 10 11  2  0
 11 12  1  0
 12 13  2  0
 13 14  1  0
 14 15  2  0
 15 16  1  0
 15 17  1  0
 17 18  2  0
 18 19  1  0
 19 20  2  0
 20 21  1  0
 21 22  1  0
 22 23  1  0
 23 24  1  0
 24 25  2  0
 25 26  1  0
 26 27  1  0
 27 28  1  0
 21 29  2  0
 29  8  1  0
 14  9  1  0
 29 17  1  0
  1 30  1  0
  1 31  1  0
  1 32  1  0
  2 33  1  0
  2 34  1  0
  4 35  1  0
  4 36  1  0
  4 37  1  0
  5 38  1  0
  5 39  1  0
  6 40  1  0
  6 41  1  0
  7 42  1  0
 10 43  1  0
 11 44  1  0
 12 45  1  0
 13 46  1  0
 16 47  1  0
 16 48  1  0
 16 49  1  0
 18 50  1  0
 19 51  1  0
 20 52  1  0
 22 53  1  0
 23 54  1  0
 23 55  1  0
 24 56  1  0
 26 57  1  0
 26 58  1  0
 27 59  1  0
 27 60  1  0
 28 61  1  0
 28 62  1  0
M  CHG  1  15   1
M  END
>  <smiles>  (9) 
CCN(C)CCNc1c2ccccc2[n+](C)c2cccc(NCC=NCCN)c12

>  <score_type>  (9) 
oracle

>  <origin>  (9) 
adg

>  <m_score__min__energy>  (9) 
-4.8300000000000001

>  <m_primary>  (9) 
energy

$$$$
10:0
     RDKit          3D

 28 29  0  0  0  0  0  0  0  0999 V2000
   57.0710   31.7280   41.7010 C   0  0  0  0  0  0  0  0  0  0  0  0
   56.7370   31.2490   42.9670 O   0  0  0  0  0  0  0  0  0  0  0  0
   57.4380   31.4930   44.1400 C   0  0  0  0  0  0  0  0  0  0  0  0
   58.2070   32.6230   44.3420 C   0  0  0  0  0  0  0  0  0  0  0  0
   58.8950   32.8370   45.5240 C   0  0  0  0  0  0  0  0  0  0  0  0
   58.8320   31.9140   46.5520 C   0  0  0  0  0  0  0  0  0  0  0  0
   59.7550   32.1770   48.1700 Br  0  0  0  0  0  0  0  0  0  0  0  0
   58.0570   30.7780   46.3440 C   0  0  0  0  0  0  0  0  0  0  0  0
   57.3890   30.5860   45.1780 C   0  0  0  0  0  0  0  0  0  0  0  0
   56.4100   29.1230   44.9530 S   0  0  0  0  0  0  0  0  0  0  0  0
   57.1600   27.6740   45.6140 C   0  0  0  0  0  0  0  0  0  0  0  0
   58.5370   27.5970   45.7130 C   0  0  0  0  0  0  0  0  0  0  0  0
   59.0970   26.4620   46.2290 C   0  0  0  0  0  0  0  0  0  0  0  0
   60.9940   26.3530   46.3680 Br  0  0  0  0  0  0  0  0  0  0  0  0
   58.3510   25.3860   46.6580 C   0  0  0  0  0  0  0  0  0  0  0  0
   56.9830   25.4670   46.5580 C   0  0  0  0  0  0  0  0  0  0  0  0
   55.9180   23.9790   47.1500 Br  0  0  0  0  0  0  0  0  0  0  0  0
   56.3700   26.6040   46.0380 C   0  0  0  0  0  0  0  0  0  0  0  0
   54.9730   26.6700   45.9420 O   0  0  0  0  0  0  0  0  0  0  0  0
   57.6975   32.6265   41.8024 H   0  0  0  0  0  0  0  0  0  0  0  0
   57.6262   30.9540   41.1509 H   0  0  0  0  0  0  0  0  0  0  0  0
   56.1528   31.9814   41.1509 H   0  0  0  0  0  0  0  0  0  0  0  0
   58.2744   33.3738   43.5409 H   0  0  0  0  0  0  0  0  0  0  0  0
   59.4972   33.7493   45.6467 H   0  0  0  0  0  0  0  0  0  0  0  0
   57.9840   30.0212   47.1390 H   0  0  0  0  0  0  0  0  0  0  0  0
   59.1700   28.4337   45.3826 H   0  0  0  0  0  0  0  0  0  0  0  0
   58.8364   24.4883   47.0686 H   0  0  0  0  0  0  0  0  0  0  0  0
   54.3990   26.7030   46.7800 H   0  0  0  0  0  0  0  0  0  0  0  0
  1  2  1  0
  2  3  1  0
  3  4  2  0
  4  5  1  0
  5  6  2  0
  6  7  1  0
  6  8  1  0
  8  9  2  0
  9 10  1  0
 10 11  1  0
 11 12  2  0
 12 13  1  0
 13 14  1  0
 13 15  2  0
 15 16  1  0
 16 17  1  0
 16 18  2  0
 18 19  1  0
  9  3  1  0
 18 11  1  0
  1 20  1  0
  1 21  1  0
  1 22  1  0
  4 23  1  0
  5 24  1  0
  8 25  1  0
 12 26  1  0
 15 27  1  0
 19 28  1  0
M  END
>  <smiles>  (10) 
COc1ccc(Br)cc1Sc1cc(Br)cc(Br)c1O

>  <score_type>  (10) 
oracle

>  <origin>  (10) 
adg

>  <m_score__min__energy>  (10) 
-7.8200000000000003

>  <m_primary>  (10) 
energy

$$$$
11:0
     RDKit          3D

 81 82  0  0  1  0  0  0  0  0999 V2000
   65.3420   33.0210   49.7590 C   0  0  0  0  0  0  0  0  0  0  0  0
   63.8990   33.3900   49.6000 C   0  0  0  0  0  0  0  0  0  0  0  0
   63.2550   32.9010   48.4300 N   0  0  0  0  0  0  0  0  0  0  0  0
   63.6130   33.4610   47.1970 C   0  0  0  0  0  0  0  0  0  0  0  0
   62.3580   33.7910   46.3880 C   0  0  0  0  0  0  0  0  0  0  0  0
   62.7180   31.5980   48.4970 C   0  0  0  0  0  0  0  0  0  0  0  0
   62.8430   30.9350   49.8290 C   0  0  0  0  0  0  0  0  0  0  0  0
   61.6290   30.3820   50.2620 O   0  0  0  0  0  0  0  0  0  0  0  0
   61.5260   29.0280   50.1210 C   0  0  0  0  0  0  0  0  0  0  0  0
   60.0550   28.5610   50.2310 C   0  0  0  0  0  0  0  0  0  0  0  0
   59.2780   29.5940   50.7480 O   0  0  0  0  0  0  0  0  0  0  0  0
   58.6330   30.5520   49.9760 N   0  0  0  0  0  0  0  0  0  0  0  0
   59.2200   30.9410   48.8800 C   0  0  0  0  0  0  0  0  0  0  0  0
   59.2060   32.2770   48.3520 C   0  0  0  0  0  0  0  0  0  0  0  0
   59.6930   33.3380   49.1390 C   0  0  0  0  0  0  0  0  0  0  0  0
   60.1280   32.9990   50.3750 O   0  0  0  0  0  0  0  0  0  0  0  0
   60.9070   33.5110   51.3350 C   0  0  0  0  0  0  0  0  0  0  0  0
   61.3540   32.6050   52.4520 C   0  0  0  0  0  0  0  0  0  0  0  0
   62.1690   32.9460   53.3220 O   0  0  0  0  0  0  0  0  0  0  0  0
   60.7420   31.3080   52.4100 N   0  0  0  0  0  0  0  0  0  0  0  0
   60.9910   30.2440   53.3590 C   0  0  0  0  0  0  0  0  0  0  0  0
   59.7690   29.6030   53.9030 C   0  0  0  0  0  0  0  0  0  0  0  0
   58.5840   29.6900   53.1720 N   0  0  0  0  0  0  0  0  0  0  0  0
   57.3860   29.1030   53.5980 C   0  0  0  0  0  0  0  0  0  0  0  0
   56.1660   29.1340   52.7780 C   0  0  0  0  0  0  0  0  0  0  0  0
   56.3910   30.0960   51.6680 N   0  0  0  0  0  0  0  0  0  0  0  0
   55.7750   31.3620   52.0350 C   0  0  0  0  0  0  0  0  0  0  0  0
   56.7980   32.4160   52.3600 C   0  0  0  0  0  0  0  0  0  0  0  0
   58.1180   32.1500   51.9050 N   0  0  0  0  0  0  0  0  0  0  0  0
   59.6710   34.5830   48.5730 C   0  0  0  0  0  0  0  0  0  0  0  0
   59.1920   34.7770   47.2890 C   0  0  0  0  0  0  0  0  0  0  0  0
   58.7190   33.7220   46.5320 C   0  0  0  0  0  0  0  0  0  0  0  0
   58.2340   33.8790   45.2380 C   0  0  0  0  0  0  0  0  0  0  0  0
   57.7630   32.7990   44.4950 C   0  0  0  0  0  0  0  0  0  0  0  0
   57.7890   31.5470   45.0710 C   0  0  0  0  0  0  0  0  0  0  0  0
   58.2710   31.3720   46.3600 C   0  0  0  0  0  0  0  0  0  0  0  0
   58.7310   32.4730   47.0760 C   0  0  0  0  0  0  0  0  0  0  0  0
   65.5886   32.9579   50.8292 H   0  0  0  0  0  0  0  0  0  0  0  0
   65.5261   32.0469   49.2823 H   0  0  0  0  0  0  0  0  0  0  0  0
   65.9711   33.7872   49.2823 H   0  0  0  0  0  0  0  0  0  0  0  0
   63.3539   32.9997   50.4721 H   0  0  0  0  0  0  0  0  0  0  0  0
   63.8816   34.4863   49.5115 H   0  0  0  0  0  0  0  0  0  0  0  0
   64.1883   34.3826   47.3689 H   0  0  0  0  0  0  0  0  0  0  0  0
   64.2243   32.7385   46.6363 H   0  0  0  0  0  0  0  0  0  0  0  0
   61.5265   34.0097   47.0741 H   0  0  0  0  0  0  0  0  0  0  0  0
   62.5508   34.6690   45.7540 H   0  0  0  0  0  0  0  0  0  0  0  0
   62.0940   32.9317   45.7540 H   0  0  0  0  0  0  0  0  0  0  0  0
   61.6494   31.6552   48.2426 H   0  0  0  0  0  0  0  0  0  0  0  0
   63.3010   30.9871   47.7920 H   0  0  0  0  0  0  0  0  0  0  0  0
   63.5918   30.1325   49.7563 H   0  0  0  0  0  0  0  0  0  0  0  0
   63.1451   31.6998   50.5596 H   0  0  0  0  0  0  0  0  0  0  0  0
   61.9207   28.7394   49.1357 H   0  0  0  0  0  0  0  0  0  0  0  0
   62.1028   28.5504   50.9267 H   0  0  0  0  0  0  0  0  0  0  0  0
   59.6821   28.2855   49.2335 H   0  0  0  0  0  0  0  0  0  0  0  0
   59.9961   27.6884   50.8981 H   0  0  0  0  0  0  0  0  0  0  0  0
   59.7742   30.1810   48.3097 H   0  0  0  0  0  0  0  0  0  0  0  0
   61.8138   33.8975   50.8467 H   0  0  0  0  0  0  0  0  0  0  0  0
   60.2703   34.2586   51.8307 H   0  0  0  0  0  0  0  0  0  0  0  0
   60.0450   31.1250   51.6170 H   0  0  0  0  0  0  0  0  0  0  0  0
   61.5900   29.4699   52.8571 H   0  0  0  0  0  0  0  0  0  0  0  0
   61.5087   30.7037   54.2138 H   0  0  0  0  0  0  0  0  0  0  0  0
   59.9934   28.5336   54.0295 H   0  0  0  0  0  0  0  0  0  0  0  0
   59.5575   30.1690   54.8222 H   0  0  0  0  0  0  0  0  0  0  0  0
   58.6200   30.0780   52.2210 H   0  0  0  0  0  0  0  0  0  0  0  0
   57.6102   28.0408   53.7755 H   0  0  0  0  0  0  0  0  0  0  0  0
   57.1071   29.7414   54.4493 H   0  0  0  0  0  0  0  0  0  0  0  0
   55.9632   28.1326   52.3704 H   0  0  0  0  0  0  0  0  0  0  0  0
   55.3019   29.4420   53.3851 H   0  0  0  0  0  0  0  0  0  0  0  0
   57.4370   30.1690   51.6040 H   0  0  0  0  0  0  0  0  0  0  0  0
   55.1585   31.7133   51.1945 H   0  0  0  0  0  0  0  0  0  0  0  0
   55.1647   31.1935   52.9345 H   0  0  0  0  0  0  0  0  0  0  0  0
   56.4669   33.3611   51.9048 H   0  0  0  0  0  0  0  0  0  0  0  0
   56.8585   32.4491   53.4578 H   0  0  0  0  0  0  0  0  0  0  0  0
   58.8510   32.8060   52.1300 H   0  0  0  0  0  0  0  0  0  0  0  0
   58.3230   31.2030   51.6240 H   0  0  0  0  0  0  0  0  0  0  0  0
   60.0403   35.4449   49.1481 H   0  0  0  0  0  0  0  0  0  0  0  0
   59.1877   35.7910   46.8627 H   0  0  0  0  0  0  0  0  0  0  0  0
   58.2220   34.8832   44.7892 H   0  0  0  0  0  0  0  0  0  0  0  0
   57.3798   32.9417   43.4738 H   0  0  0  0  0  0  0  0  0  0  0  0
   57.4241   30.6784   44.5032 H   0  0  0  0  0  0  0  0  0  0  0  0
   58.2894   30.3698   46.8130 H   0  0  0  0  0  0  0  0  0  0  0  0
  1  2  1  0
  2  3  1  0
  3  4  1  0
  4  5  1  0
  3  6  1  0
  6  7  1  0
  7  8  1  0
  8  9  1  0
  9 10  1  0
 10 11  1  0
 11 12  1  0
 12 13  2  0
 13 14  1  0
 14 15  2  0
 15 16  1  0
 16 17  1  0
 17 18  1  0
 18 19  2  0
 18 20  1  0
 20 21  1  0
 21 22  1  0
 22 23  1  0
 23 24  1  0
 24 25  1  0
 25 26  1  0
 26 27  1  0
 27 28  1  0
 28 29  1  0
 15 30  1  0
 30 31  2  0
 31 32  1  0
 32 33  2  0
 33 34  1  0
 34 35  2  0
 35 36  1  0
 36 37  2  0
 37 14  1  0
 37 32  1  0
  1 38  1  0
  1 39  1  0
  1 40  1  0
  2 41  1  0
  2 42  1  0
  4 43  1  0
  4 44  1  0
  5 45  1  0
  5 46  1  0
  5 47  1  0
  6 48  1  0
  6 49  1  0
  7 50  1  0
  7 51  1  0
  9 52  1  0
  9 53  1  0
 10 54  1  0
 10 55  1  0
 13 56  1  0
 17 57  1  0
 17 58  1  0
 20 59  1  0
 21 60  1  0
 21 61  1  0
 22 62  1  0
 22 63  1  0
 23 64  1  0
 24 65  1  0
 24 66  1  0
 25 67  1  0
 25 68  1  0
 26 69  1  0
 27 70  1  0
 27 71  1  0
 28 72  1  0
 28 73  1  0
 29 74  1  0
 29 75  1  0
 30 76  1  0
 31 77  1  0
 33 78  1  0
 34 79  1  0
 35 80  1  0
 36 81  1  0
M  END
>  <smiles>  (11) 
CCN(CC)CCOCCON=Cc1c(OCC(=O)NCCNCCNCCN)ccc2ccccc12

>  <score_type>  (11) 
oracle

>  <origin>  (11) 
adg

>  <m_score__min__energy>  (11) 
-4.6799999999999997

>  <m_primary>  (11) 
energy

$$$$
12:0
     RDKit          3D

 71 75  0  0  0  0  0  0  0  0999 V2000
   59.9570   34.1650   48.8020 C   0  0  0  0  0  0  0  0  0  0  0  0
   61.3200   33.5110   48.9230 C   0  0  0  0  0  0  0  0  0  0  0  0
   61.5790   32.4090   48.1050 N   0  0  0  0  0  0  0  0  0  0  0  0
   62.8520   32.4980   47.3730 C   0  0  0  0  0  0  0  0  0  0  0  0
   63.0890   33.8090   46.6980 C   0  0  0  0  0  0  0  0  0  0  0  0
   61.7460   31.1880   48.8560 C   0  0  0  0  0  0  0  0  0  0  0  0
   60.6750   30.1810   48.8850 C   0  0  0  0  0  0  0  0  0  0  0  0
   59.3980   30.5310   48.3300 N   0  0  0  0  0  0  0  0  0  0  0  0
   58.8670   30.0510   47.1000 C   0  0  0  0  0  0  0  0  0  0  0  0
   58.4860   28.7310   46.8940 C   0  0  0  0  0  0  0  0  0  0  0  0
   57.9070   28.3230   45.6820 C   0  0  0  0  0  0  0  0  0  0  0  0
   57.7110   29.2160   44.6790 N   0  0  0  0  0  0  0  0  0  0  0  0
   57.1610   28.7250   43.4300 C   0  0  0  0  0  0  0  0  0  0  0  0
   58.0750   30.5160   44.8480 C   0  0  0  0  0  0  0  0  0  0  0  0
   57.8700   31.4310   43.8320 C   0  0  0  0  0  0  0  0  0  0  0  0
   58.2170   32.7740   43.9450 C   0  0  0  0  0  0  0  0  0  0  0  0
   58.7810   33.1930   45.1130 C   0  0  0  0  0  0  0  0  0  0  0  0
   59.2760   35.0350   45.3010 Br  0  0  0  0  0  0  0  0  0  0  0  0
   58.9860   32.2750   46.1350 C   0  0  0  0  0  0  0  0  0  0  0  0
   58.6470   30.9420   46.0380 C   0  0  0  0  0  0  0  0  0  0  0  0
   57.5810   26.9010   45.8040 C   0  0  0  0  0  0  0  0  0  0  0  0
   56.9770   25.9570   44.9930 C   0  0  0  0  0  0  0  0  0  0  0  0
   56.7600   24.6470   45.3960 C   0  0  0  0  0  0  0  0  0  0  0  0
   57.1570   24.2530   46.6530 C   0  0  0  0  0  0  0  0  0  0  0  0
   57.7550   25.2010   47.4490 C   0  0  0  0  0  0  0  0  0  0  0  0
   58.1200   24.8450   48.6110 O   0  0  0  0  0  0  0  0  0  0  0  0
   57.9490   26.4650   47.0190 N   0  0  0  0  0  0  0  0  0  0  0  0
   58.6060   27.5400   47.7670 C   0  0  0  0  0  0  0  0  0  0  0  0
   56.8830   22.8430   46.8820 C   0  0  0  0  0  0  0  0  0  0  0  0
   57.1050   22.1420   47.9040 O   0  0  0  0  0  0  0  0  0  0  0  0
   56.2680   22.3770   45.6250 C   0  0  0  0  0  0  0  0  0  0  0  0
   55.9580   21.1730   45.4580 O   0  0  0  0  0  0  0  0  0  0  0  0
   56.1000   23.4770   44.6860 C   0  0  0  0  0  0  0  0  0  0  0  0
   54.6570   23.9190   44.5510 C   0  0  0  0  0  0  0  0  0  0  0  0
   53.8100   23.7470   45.7530 C   0  0  0  0  0  0  0  0  0  0  0  0
   56.8100   23.3640   43.3830 C   0  0  0  0  0  0  0  0  0  0  0  0
   56.6620   22.0630   42.6560 C   0  0  0  0  0  0  0  0  0  0  0  0
   59.5529   34.3589   49.8065 H   0  0  0  0  0  0  0  0  0  0  0  0
   60.0533   35.1150   48.2559 H   0  0  0  0  0  0  0  0  0  0  0  0
   59.2762   33.4955   48.2559 H   0  0  0  0  0  0  0  0  0  0  0  0
   62.0751   34.2772   48.6933 H   0  0  0  0  0  0  0  0  0  0  0  0
   61.3514   33.1138   49.9483 H   0  0  0  0  0  0  0  0  0  0  0  0
   63.6712   32.3262   48.0867 H   0  0  0  0  0  0  0  0  0  0  0  0
   62.8083   31.7401   46.5769 H   0  0  0  0  0  0  0  0  0  0  0  0
   63.2306   34.5921   47.4574 H   0  0  0  0  0  0  0  0  0  0  0  0
   63.9893   33.7405   46.0697 H   0  0  0  0  0  0  0  0  0  0  0  0
   62.2217   34.0600   46.0697 H   0  0  0  0  0  0  0  0  0  0  0  0
   62.6386   30.6882   48.4518 H   0  0  0  0  0  0  0  0  0  0  0  0
   61.7852   31.5398   49.8975 H   0  0  0  0  0  0  0  0  0  0  0  0
   61.0397   29.3014   48.3343 H   0  0  0  0  0  0  0  0  0  0  0  0
   60.4738   30.0287   49.9557 H   0  0  0  0  0  0  0  0  0  0  0  0
   58.7970   31.1540   48.9040 H   0  0  0  0  0  0  0  0  0  0  0  0
   56.3557   28.0061   43.6414 H   0  0  0  0  0  0  0  0  0  0  0  0
   56.7569   29.5683   42.8506 H   0  0  0  0  0  0  0  0  0  0  0  0
   57.9532   28.2283   42.8506 H   0  0  0  0  0  0  0  0  0  0  0  0
   57.4130   31.0825   42.8941 H   0  0  0  0  0  0  0  0  0  0  0  0
   58.0414   33.4762   43.1167 H   0  0  0  0  0  0  0  0  0  0  0  0
   59.4427   32.6300   47.0707 H   0  0  0  0  0  0  0  0  0  0  0  0
   56.6548   26.2578   43.9852 H   0  0  0  0  0  0  0  0  0  0  0  0
   58.0987   27.7104   48.7281 H   0  0  0  0  0  0  0  0  0  0  0  0
   59.6530   27.3020   48.0060 H   0  0  0  0  0  0  0  0  0  0  0  0
   54.6555   24.9872   44.2883 H   0  0  0  0  0  0  0  0  0  0  0  0
   54.2176   23.2657   43.7828 H   0  0  0  0  0  0  0  0  0  0  0  0
   54.4254   23.8720   46.6561 H   0  0  0  0  0  0  0  0  0  0  0  0
   53.0089   24.5008   45.7480 H   0  0  0  0  0  0  0  0  0  0  0  0
   53.3664   22.7404   45.7480 H   0  0  0  0  0  0  0  0  0  0  0  0
   56.4314   24.1602   42.7252 H   0  0  0  0  0  0  0  0  0  0  0  0
   57.8801   23.4442   43.6248 H   0  0  0  0  0  0  0  0  0  0  0  0
   56.5689   21.2443   43.3847 H   0  0  0  0  0  0  0  0  0  0  0  0
   55.7618   22.0961   42.0247 H   0  0  0  0  0  0  0  0  0  0  0  0
   57.5466   21.8931   42.0247 H   0  0  0  0  0  0  0  0  0  0  0  0
  1  2  1  0
  2  3  1  0
  3  4  1  0
  4  5  1  0
  3  6  1  0
  6  7  1  0
  7  8  1  0
  8  9  1  0
  9 10  2  0
 10 11  1  0
 11 12  2  0
 12 13  1  0
 12 14  1  0
 14 15  2  0
 15 16  1  0
 16 17  2  0
 17 18  1  0
 17 19  1  0
 19 20  2  0
 11 21  1  0
 21 22  2  0
 22 23  1  0
 23 24  2  0
 24 25  1  0
 25 26  2  0
 25 27  1  0
 27 28  1  0
 24 29  1  0
 29 30  2  0
 29 31  1  0
 31 32  2  0
 31 33  1  0
 33 34  1  0
 34 35  1  0
 33 36  1  0
 36 37  1  0
 20  9  1  0
 27 21  1  0
 28 10  1  0
 20 14  1  0
 33 23  1  0
  1 38  1  0
  1 39  1  0
  1 40  1  0
  2 41  1  0
  2 42  1  0
  4 43  1  0
  4 44  1  0
  5 45  1  0
  5 46  1  0
  5 47  1  0
  6 48  1  0
  6 49  1  0
  7 50  1  0
  7 51  1  0
  8 52  1  0
 13 53  1  0
 13 54  1  0
 13 55  1  0
 15 56  1  0
 16 57  1  0
 19 58  1  0
 22 59  1  0
 28 60  1  0
 28 61  1  0
 34 62  1  0
 34 63  1  0
 35 64  1  0
 35 65  1  0
 35 66  1  0
 36 67  1  0
 36 68  1  0
 37 69  1  0
 37 70  1  0
 37 71  1  0
M  CHG  1  12   1
M  END
>  <smiles>  (12) 
CCN(CC)CCNc1c2c([n+](C)c3ccc(Br)cc13)-c1cc3c(c(=O)n1C2)C(=O)C(=O)C3(CC)CC

>  <score_type>  (12) 
oracle

>  <origin>  (12) 
adg

>  <m_score__min__energy>  (12) 
-8.0500000000000007

>  <m_primary>  (12) 
energy

$$$$
13:0
     RDKit          3D

 90 95  0  0  0  0  0  0  0  0999 V2000
   57.7840   30.4960   51.4490 C   0  0  0  0  0  0  0  0  0  0  0  0
   58.6570   30.8500   50.2300 C   0  0  0  0  0  0  0  0  0  0  0  0
   58.4460   32.2600   49.8010 C   0  0  0  0  0  0  0  0  0  0  0  0
   59.4870   33.1700   50.0360 N   0  0  0  0  0  0  0  0  0  0  0  0
   59.2680   33.8630   51.3580 C   0  0  0  0  0  0  0  0  0  0  0  0
   59.9160   33.0640   52.4350 C   0  0  0  0  0  0  0  0  0  0  0  0
   61.3950   33.0670   52.2250 C   0  0  0  0  0  0  0  0  0  0  0  0
   61.9090   32.2620   51.1710 N   0  0  0  0  0  0  0  0  0  0  0  0
   62.9300   31.2880   51.2760 C   0  0  0  0  0  0  0  0  0  0  0  0
   64.2730   31.5600   51.0990 C   0  0  0  0  0  0  0  0  0  0  0  0
   64.6830   32.8160   50.7520 C   0  0  0  0  0  0  0  0  0  0  0  0
   65.9920   33.1850   50.5400 C   0  0  0  0  0  0  0  0  0  0  0  0
   66.9720   32.2250   50.6850 C   0  0  0  0  0  0  0  0  0  0  0  0
   66.6040   30.9230   51.0380 C   0  0  0  0  0  0  0  0  0  0  0  0
   65.2600   30.5950   51.2440 C   0  0  0  0  0  0  0  0  0  0  0  0
   64.9370   29.3050   51.5740 N   0  0  0  0  0  0  0  0  0  0  0  0
   66.0280   28.3960   51.7030 C   0  0  0  0  0  0  0  0  0  0  0  0
   63.6400   29.0130   51.7500 C   0  0  0  0  0  0  0  0  0  0  0  0
   63.2970   27.7190   52.0740 C   0  0  0  0  0  0  0  0  0  0  0  0
   61.9500   27.3700   52.2600 C   0  0  0  0  0  0  0  0  0  0  0  0
   60.9560   28.3360   52.1170 C   0  0  0  0  0  0  0  0  0  0  0  0
   61.3160   29.6410   51.7880 C   0  0  0  0  0  0  0  0  0  0  0  0
   62.6380   29.9560   51.6120 C   0  0  0  0  0  0  0  0  0  0  0  0
   59.7510   34.2530   49.1580 C   0  0  0  0  0  0  0  0  0  0  0  0
   60.9980   34.5690   48.4950 C   0  0  0  0  0  0  0  0  0  0  0  0
   62.2160   33.9540   48.9120 N   0  0  0  0  0  0  0  0  0  0  0  0
   62.9690   33.3010   47.9040 C   0  0  0  0  0  0  0  0  0  0  0  0
   62.3930   32.0130   47.4580 C   0  0  0  0  0  0  0  0  0  0  0  0
   61.0980   31.7150   47.9890 N   0  0  0  0  0  0  0  0  0  0  0  0
   60.1380   31.1260   47.1350 C   0  0  0  0  0  0  0  0  0  0  0  0
   59.9760   29.7350   47.2780 C   0  0  0  0  0  0  0  0  0  0  0  0
   60.7140   29.0460   48.2260 C   0  0  0  0  0  0  0  0  0  0  0  0
   60.5810   27.6850   48.4040 C   0  0  0  0  0  0  0  0  0  0  0  0
   59.6860   27.0140   47.6100 C   0  0  0  0  0  0  0  0  0  0  0  0
   58.9350   27.7000   46.6490 C   0  0  0  0  0  0  0  0  0  0  0  0
   59.0650   29.0600   46.4680 C   0  0  0  0  0  0  0  0  0  0  0  0
   58.3140   29.6670   45.5420 N   0  0  0  0  0  0  0  0  0  0  0  0
   57.3790   29.0390   44.6730 C   0  0  0  0  0  0  0  0  0  0  0  0
   58.4740   31.0170   45.4110 C   0  0  0  0  0  0  0  0  0  0  0  0
   57.6890   31.7050   44.4800 C   0  0  0  0  0  0  0  0  0  0  0  0
   57.7770   33.0780   44.3190 C   0  0  0  0  0  0  0  0  0  0  0  0
   58.6740   33.7500   45.1170 C   0  0  0  0  0  0  0  0  0  0  0  0
   59.4410   33.0800   46.0270 C   0  0  0  0  0  0  0  0  0  0  0  0
   59.3660   31.7230   46.1950 C   0  0  0  0  0  0  0  0  0  0  0  0
   58.3367   30.7201   52.3733 H   0  0  0  0  0  0  0  0  0  0  0  0
   56.8585   31.0899   51.4220 H   0  0  0  0  0  0  0  0  0  0  0  0
   57.5335   29.4252   51.4220 H   0  0  0  0  0  0  0  0  0  0  0  0
   59.7154   30.7114   50.4956 H   0  0  0  0  0  0  0  0  0  0  0  0
   58.3733   30.1891   49.3977 H   0  0  0  0  0  0  0  0  0  0  0  0
   58.2551   32.2500   48.7177 H   0  0  0  0  0  0  0  0  0  0  0  0
   57.6125   32.6205   50.4217 H   0  0  0  0  0  0  0  0  0  0  0  0
   59.7127   34.8686   51.3259 H   0  0  0  0  0  0  0  0  0  0  0  0
   58.1900   33.9524   51.5577 H   0  0  0  0  0  0  0  0  0  0  0  0
   59.6823   33.5078   53.4140 H   0  0  0  0  0  0  0  0  0  0  0  0
   59.5402   32.0306   52.4062 H   0  0  0  0  0  0  0  0  0  0  0  0
   61.6975   34.1054   52.0244 H   0  0  0  0  0  0  0  0  0  0  0  0
   61.8099   32.6259   53.1433 H   0  0  0  0  0  0  0  0  0  0  0  0
   61.4970   32.3930   50.2140 H   0  0  0  0  0  0  0  0  0  0  0  0
   63.9100   33.5896   50.6332 H   0  0  0  0  0  0  0  0  0  0  0  0
   66.2498   34.2177   50.2624 H   0  0  0  0  0  0  0  0  0  0  0  0
   68.0298   32.4806   50.5249 H   0  0  0  0  0  0  0  0  0  0  0  0
   67.3780   30.1502   51.1547 H   0  0  0  0  0  0  0  0  0  0  0  0
   66.2365   28.2223   52.7690 H   0  0  0  0  0  0  0  0  0  0  0  0
   65.7697   27.4422   51.2198 H   0  0  0  0  0  0  0  0  0  0  0  0
   66.9195   28.8223   51.2198 H   0  0  0  0  0  0  0  0  0  0  0  0
   64.0814   26.9562   52.1874 H   0  0  0  0  0  0  0  0  0  0  0  0
   61.6796   26.3355   52.5182 H   0  0  0  0  0  0  0  0  0  0  0  0
   59.8983   28.0710   52.2623 H   0  0  0  0  0  0  0  0  0  0  0  0
   60.5430   30.4146   51.6701 H   0  0  0  0  0  0  0  0  0  0  0  0
   59.0216   34.1371   48.3428 H   0  0  0  0  0  0  0  0  0  0  0  0
   59.7352   35.0735   49.8905 H   0  0  0  0  0  0  0  0  0  0  0  0
   60.8638   34.3144   47.4333 H   0  0  0  0  0  0  0  0  0  0  0  0
   61.1541   35.6269   48.7529 H   0  0  0  0  0  0  0  0  0  0  0  0
   62.3470   33.7260   49.8800 H   0  0  0  0  0  0  0  0  0  0  0  0
   63.0340   33.9702   47.0334 H   0  0  0  0  0  0  0  0  0  0  0  0
   63.9530   33.0741   48.3402 H   0  0  0  0  0  0  0  0  0  0  0  0
   62.3154   32.0352   46.3610 H   0  0  0  0  0  0  0  0  0  0  0  0
   63.0672   31.2282   47.8316 H   0  0  0  0  0  0  0  0  0  0  0  0
   60.8160   31.9120   48.9910 H   0  0  0  0  0  0  0  0  0  0  0  0
   61.4265   29.6001   48.8548 H   0  0  0  0  0  0  0  0  0  0  0  0
   61.1756   27.1527   49.1610 H   0  0  0  0  0  0  0  0  0  0  0  0
   59.5576   25.9281   47.7297 H   0  0  0  0  0  0  0  0  0  0  0  0
   58.2241   27.1405   46.0232 H   0  0  0  0  0  0  0  0  0  0  0  0
   56.6121   28.5239   45.2701 H   0  0  0  0  0  0  0  0  0  0  0  0
   56.9002   29.7993   44.0385 H   0  0  0  0  0  0  0  0  0  0  0  0
   57.9017   28.3082   44.0385 H   0  0  0  0  0  0  0  0  0  0  0  0
   56.9807   31.1390   43.8572 H   0  0  0  0  0  0  0  0  0  0  0  0
   57.1552   33.6092   43.5833 H   0  0  0  0  0  0  0  0  0  0  0  0
   58.7747   34.8411   45.0208 H   0  0  0  0  0  0  0  0  0  0  0  0
   60.1457   33.6520   46.6485 H   0  0  0  0  0  0  0  0  0  0  0  0
  1  2  1  0
  2  3  1  0
  3  4  1  0
  4  5  1  0
  5  6  1  0
  6  7  1  0
  7  8  1  0
  8  9  1  0
  9 10  1  0
 10 11  2  0
 11 12  1  0
 12 13  2  0
 13 14  1  0
 14 15  2  0
 15 16  1  0
 16 17  1  0
 16 18  2  0
 18 19  1  0
 19 20  2  0
 20 21  1  0
 21 22  2  0
 22 23  1  0
  4 24  1  0
 24 25  1  0
 25 26  1  0
 26 27  1  0
 27 28  1  0
 28 29  1  0
 29 30  1  0
 30 31  1  0
 31 32  2  0
 32 33  1  0
 33 34  2  0
 34 35  1  0
 35 36  2  0
 36 37  1  0
 37 38  1  0
 37 39  2  0
 39 40  1  0
 40 41  2  0
 41 42  1  0
 42 43  2  0
 43 44  1  0
 23  9  2  0
 44 30  2  0
 15 10  1  0
 23 18  1  0
 36 31  1  0
 44 39  1  0
  1 45  1  0
  1 46  1  0
  1 47  1  0
  2 48  1  0
  2 49  1  0
  3 50  1  0
  3 51  1  0
  5 52  1  0
  5 53  1  0
  6 54  1  0
  6 55  1  0
  7 56  1  0
  7 57  1  0
  8 58  1  0
 11 59  1  0
 12 60  1  0
 13 61  1  0
 14 62  1  0
 17 63  1  0
 17 64  1  0
 17 65  1  0
 19 66  1  0
 20 67  1  0
 21 68  1  0
 22 69  1  0
 24 70  1  0
 24 71  1  0
 25 72  1  0
 25 73  1  0
 26 74  1  0
 27 75  1  0
 27 76  1  0
 28 77  1  0
 28 78  1  0
 29 79  1  0
 32 80  1  0
 33 81  1  0
 34 82  1  0
 35 83  1  0
 38 84  1  0
 38 85  1  0
 38 86  1  0
 40 87  1  0
 41 88  1  0
 42 89  1  0
 43 90  1  0
M  CHG  2  16   1  37   1
M  END
>  <smiles>  (13) 
CCCN(CCCNc1c2ccccc2[n+](C)c2ccccc12)CCNCCNc1c2ccccc2[n+](C)c2ccccc12

>  <score_type>  (13) 
oracle

>  <origin>  (13) 
adg

>  <m_score__min__energy>  (13) 
-6.6200000000000001

>  <m_primary>  (13) 
energy

$$$$
14:0
     RDKit          3D

 42 45  0  0  1  0  0  0  0  0999 V2000
   57.8280   27.7040   43.5380 C   0  0  0  0  0  0  0  0  0  0  0  0
   57.0100   28.9680   43.3720 C   0  0  0  0  0  0  0  0  0  0  0  0
   57.8920   30.0830   43.6990 N   0  0  0  0  0  0  0  0  0  0  0  0
   57.3570   31.1710   44.4590 C   0  0  0  0  0  0  0  0  0  0  0  0
   56.1760   31.2150   44.8550 O   0  0  0  0  0  0  0  0  0  0  0  0
   58.2550   32.2840   44.7810 C   0  0  1  0  0  0  0  0  0  0  0  0
   57.4270   33.5740   44.7380 C   0  0  0  0  0  0  0  0  0  0  0  0
   58.3950   34.6980   44.9250 C   0  0  0  0  0  0  0  0  0  0  0  0
   58.9130   34.6100   46.3650 C   0  0  0  0  0  0  0  0  0  0  0  0
   59.5030   33.3200   46.6200 N   0  0  0  0  0  0  0  0  0  0  0  0
   60.7050   33.3400   47.4330 C   0  0  0  0  0  0  0  0  0  0  0  0
   61.8050   33.0150   47.4670 N   0  0  0  0  0  0  0  0  0  0  0  0
   62.7400   33.1650   48.3740 C   0  0  0  0  0  0  0  0  0  0  0  0
   64.0780   32.7490   48.3760 C   0  0  0  0  0  0  0  0  0  0  0  0
   64.8510   33.0420   49.4730 C   0  0  0  0  0  0  0  0  0  0  0  0
   64.4100   33.7210   50.5870 C   0  0  0  0  0  0  0  0  0  0  0  0
   63.0820   34.1360   50.5900 C   0  0  0  0  0  0  0  0  0  0  0  0
   62.3340   33.8380   49.4990 C   0  0  0  0  0  0  0  0  0  0  0  0
   60.5640   34.2100   49.1290 S   0  0  0  0  0  0  0  0  0  0  0  0
   65.4610   33.8280   51.4820 O   0  0  0  0  0  0  0  0  0  0  0  0
   66.4780   32.8810   51.1130 C   0  0  0  0  0  0  0  0  0  0  0  0
   66.2060   32.7430   49.7260 O   0  0  0  0  0  0  0  0  0  0  0  0
   58.9310   32.1210   46.1010 C   0  0  0  0  0  0  0  0  0  0  0  0
   57.9643   27.4934   44.6090 H   0  0  0  0  0  0  0  0  0  0  0  0
   57.3029   26.8623   43.0628 H   0  0  0  0  0  0  0  0  0  0  0  0
   58.8109   27.8383   43.0628 H   0  0  0  0  0  0  0  0  0  0  0  0
   56.6552   29.0567   42.3346 H   0  0  0  0  0  0  0  0  0  0  0  0
   56.1263   28.9568   44.0270 H   0  0  0  0  0  0  0  0  0  0  0  0
   58.8960   30.0660   43.3740 H   0  0  0  0  0  0  0  0  0  0  0  0
   59.0679   32.3157   44.0406 H   0  0  0  0  0  0  0  0  0  0  0  0
   56.9170   33.6675   43.7679 H   0  0  0  0  0  0  0  0  0  0  0  0
   56.6519   33.5788   45.5185 H   0  0  0  0  0  0  0  0  0  0  0  0
   59.2305   34.5986   44.2165 H   0  0  0  0  0  0  0  0  0  0  0  0
   57.9098   35.6680   44.7415 H   0  0  0  0  0  0  0  0  0  0  0  0
   59.6714   35.3909   46.5236 H   0  0  0  0  0  0  0  0  0  0  0  0
   58.0665   34.7522   47.0529 H   0  0  0  0  0  0  0  0  0  0  0  0
   64.4991   32.2012   47.5201 H   0  0  0  0  0  0  0  0  0  0  0  0
   62.6559   34.6840   51.4433 H   0  0  0  0  0  0  0  0  0  0  0  0
   67.4880   33.2782   51.2920 H   0  0  0  0  0  0  0  0  0  0  0  0
   66.4582   31.9396   51.6817 H   0  0  0  0  0  0  0  0  0  0  0  0
   59.7337   31.3775   45.9874 H   0  0  0  0  0  0  0  0  0  0  0  0
   58.1554   31.8074   46.8153 H   0  0  0  0  0  0  0  0  0  0  0  0
  1  2  1  0
  2  3  1  0
  3  4  1  0
  4  5  2  0
  4  6  1  0
  6  7  1  0
  7  8  1  0
  8  9  1  0
  9 10  1  0
 10 11  1  0
 11 12  2  0
 12 13  1  0
 13 14  2  0
 14 15  1  0
 15 16  2  0
 16 17  1  0
 17 18  2  0
 18 19  1  0
 16 20  1  0
 20 21  1  0
 21 22  1  0
 10 23  1  0
 23  6  1  0
 19 11  1  0
 18 13  1  0
 22 15  1  0
  1 24  1  0
  1 25  1  0
  1 26  1  0
  2 27  1  0
  2 28  1  0
  3 29  1  0
  6 30  1  6
  7 31  1  0
  7 32  1  0
  8 33  1  0
  8 34  1  0
  9 35  1  0
  9 36  1  0
 14 37  1  0
 17 38  1  0
 21 39  1  0
 21 40  1  0
 23 41  1  0
 23 42  1  0
M  END
>  <smiles>  (14) 
CCNC(=O)C1CCCN(c2nc3cc4c(cc3s2)OCO4)C1

>  <score_type>  (14) 
oracle

>  <origin>  (14) 
adg

>  <m_score__min__energy>  (14) 
-7.9000000000000004

>  <m_primary>  (14) 
energy

$$$$
15:0
     RDKit          3D

 46 48  0  0  0  0  0  0  0  0999 V2000
   62.9640   33.7680   46.7230 C   0  0  0  0  0  0  0  0  0  0  0  0
   63.3320   32.5730   47.5660 C   0  0  0  0  0  0  0  0  0  0  0  0
   62.2600   32.3150   48.6390 C   0  0  0  0  0  0  0  0  0  0  0  0
   62.2800   30.9120   48.9700 N   0  0  0  0  0  0  0  0  0  0  0  0
   61.0550   30.4700   49.6580 C   0  0  0  0  0  0  0  0  0  0  0  0
   59.9680   30.2860   48.6730 C   0  0  0  0  0  0  0  0  0  0  0  0
   60.3860   30.2660   47.2770 N   0  0  0  0  0  0  0  0  0  0  0  0
   59.5020   30.2590   46.1890 C   0  0  0  0  0  0  0  0  0  0  0  0
   59.0210   29.1440   45.5460 C   0  0  0  0  0  0  0  0  0  0  0  0
   59.4800   27.9090   45.9470 C   0  0  0  0  0  0  0  0  0  0  0  0
   59.0850   26.7210   45.3690 C   0  0  0  0  0  0  0  0  0  0  0  0
   58.1820   26.7940   44.3350 C   0  0  0  0  0  0  0  0  0  0  0  0
   57.7030   28.0400   43.9120 C   0  0  0  0  0  0  0  0  0  0  0  0
   58.1040   29.2180   44.4970 C   0  0  0  0  0  0  0  0  0  0  0  0
   57.6400   30.4250   44.0570 N   0  0  0  0  0  0  0  0  0  0  0  0
   56.6820   30.5090   42.9960 C   0  0  0  0  0  0  0  0  0  0  0  0
   58.1060   31.5500   44.6770 C   0  0  0  0  0  0  0  0  0  0  0  0
   57.7030   32.8090   44.2870 C   0  0  0  0  0  0  0  0  0  0  0  0
   58.1650   33.9700   44.8890 C   0  0  0  0  0  0  0  0  0  0  0  0
   59.0690   33.8940   45.9240 C   0  0  0  0  0  0  0  0  0  0  0  0
   59.6570   35.3510   46.6910 Cl  0  0  0  0  0  0  0  0  0  0  0  0
   59.4820   32.6380   46.3250 C   0  0  0  0  0  0  0  0  0  0  0  0
   59.0130   31.4850   45.7170 C   0  0  0  0  0  0  0  0  0  0  0  0
   62.7039   34.6126   47.3779 H   0  0  0  0  0  0  0  0  0  0  0  0
   63.8182   34.0459   46.0881 H   0  0  0  0  0  0  0  0  0  0  0  0
   62.1015   33.5172   46.0881 H   0  0  0  0  0  0  0  0  0  0  0  0
   63.4167   31.6871   46.9195 H   0  0  0  0  0  0  0  0  0  0  0  0
   64.2915   32.7737   48.0651 H   0  0  0  0  0  0  0  0  0  0  0  0
   62.4804   32.9121   49.5362 H   0  0  0  0  0  0  0  0  0  0  0  0
   61.2677   32.6011   48.2602 H   0  0  0  0  0  0  0  0  0  0  0  0
   63.0800   30.7850   49.6600 H   0  0  0  0  0  0  0  0  0  0  0  0
   61.2480   29.5166   50.1716 H   0  0  0  0  0  0  0  0  0  0  0  0
   60.7552   31.2318   50.3927 H   0  0  0  0  0  0  0  0  0  0  0  0
   59.4700   29.3299   48.8918 H   0  0  0  0  0  0  0  0  0  0  0  0
   59.3107   31.1615   48.7800 H   0  0  0  0  0  0  0  0  0  0  0  0
   61.4100   30.2570   47.0670 H   0  0  0  0  0  0  0  0  0  0  0  0
   60.2027   27.8679   46.7753 H   0  0  0  0  0  0  0  0  0  0  0  0
   59.4762   25.7549   45.7207 H   0  0  0  0  0  0  0  0  0  0  0  0
   57.8360   25.8744   43.8403 H   0  0  0  0  0  0  0  0  0  0  0  0
   56.9809   28.0777   43.0830 H   0  0  0  0  0  0  0  0  0  0  0  0
   55.6712   30.5976   43.4208 H   0  0  0  0  0  0  0  0  0  0  0  0
   56.8979   31.3917   42.3761 H   0  0  0  0  0  0  0  0  0  0  0  0
   56.7410   29.6022   42.3761 H   0  0  0  0  0  0  0  0  0  0  0  0
   56.9822   32.8971   43.4607 H   0  0  0  0  0  0  0  0  0  0  0  0
   57.8093   34.9505   44.5396 H   0  0  0  0  0  0  0  0  0  0  0  0
   60.2038   32.5511   47.1505 H   0  0  0  0  0  0  0  0  0  0  0  0
  1  2  1  0
  2  3  1  0
  3  4  1  0
  4  5  1  0
  5  6  1  0
  6  7  1  0
  7  8  1  0
  8  9  2  0
  9 10  1  0
 10 11  2  0
 11 12  1  0
 12 13  2  0
 13 14  1  0
 14 15  2  0
 15 16  1  0
 15 17  1  0
 17 18  2  0
 18 19  1  0
 19 20  2  0
 20 21  1  0
 20 22  1  0
 22 23  2  0
 23  8  1  0
 14  9  1  0
 23 17  1  0
  1 24  1  0
  1 25  1  0
  1 26  1  0
  2 27  1  0
  2 28  1  0
  3 29  1  0
  3 30  1  0
  4 31  1  0
  5 32  1  0
  5 33  1  0
  6 34  1  0
  6 35  1  0
  7 36  1  0
 10 37  1  0
 11 38  1  0
 12 39  1  0
 13 40  1  0
 16 41  1  0
 16 42  1  0
 16 43  1  0
 18 44  1  0
 19 45  1  0
 22 46  1  0
M  CHG  1  15   1
M  END
>  <smiles>  (15) 
CCCNCCNc1c2ccccc2[n+](C)c2ccc(Cl)cc12

>  <score_type>  (15) 
oracle

>  <origin>  (15) 
adg

>  <m_score__min__energy>  (15) 
-6.1500000000000004

>  <m_primary>  (15) 
energy

$$$$
16:0
     RDKit          3D

 53 55  0  0  0  0  0  0  0  0999 V2000
   58.7510   26.0120   46.9680 C   0  0  0  0  0  0  0  0  0  0  0  0
   57.6640   26.7850   46.2970 C   0  0  0  0  0  0  0  0  0  0  0  0
   57.9370   27.1530   44.9270 N   0  0  0  0  0  0  0  0  0  0  0  0
   57.7650   25.9070   44.1550 C   0  0  0  0  0  0  0  0  0  0  0  0
   59.3190   27.4850   44.7980 C   0  0  0  0  0  0  0  0  0  0  0  0
   59.7340   28.8250   45.3320 C   0  0  0  0  0  0  0  0  0  0  0  0
   58.5990   29.6010   45.8050 N   0  0  0  0  0  0  0  0  0  0  0  0
   58.8570   30.7940   46.4880 C   0  0  0  0  0  0  0  0  0  0  0  0
   59.2190   30.6810   47.8370 C   0  0  0  0  0  0  0  0  0  0  0  0
   59.3140   29.4150   48.3950 C   0  0  0  0  0  0  0  0  0  0  0  0
   59.6600   29.2070   49.7170 C   0  0  0  0  0  0  0  0  0  0  0  0
   59.9110   30.3120   50.4820 C   0  0  0  0  0  0  0  0  0  0  0  0
   59.8160   31.5780   49.9240 C   0  0  0  0  0  0  0  0  0  0  0  0
   59.4740   31.7980   48.6080 C   0  0  0  0  0  0  0  0  0  0  0  0
   59.3850   33.0550   48.0820 N   0  0  0  0  0  0  0  0  0  0  0  0
   59.6900   34.1870   48.9330 C   0  0  0  0  0  0  0  0  0  0  0  0
   59.0360   33.1830   46.7820 C   0  0  0  0  0  0  0  0  0  0  0  0
   58.9340   34.4350   46.2230 C   0  0  0  0  0  0  0  0  0  0  0  0
   58.5790   34.6260   44.8800 C   0  0  0  0  0  0  0  0  0  0  0  0
   58.3320   33.5070   44.1300 C   0  0  0  0  0  0  0  0  0  0  0  0
   58.4230   32.2090   44.6580 C   0  0  0  0  0  0  0  0  0  0  0  0
   58.1700   31.1700   43.7490 N   0  0  0  0  0  0  0  0  0  0  0  0
   56.9140   30.4700   43.8850 C   0  0  0  0  0  0  0  0  0  0  0  0
   56.5490   29.3520   42.9700 C   0  0  0  0  0  0  0  0  0  0  0  0
   56.1560   30.8490   44.8060 O   0  0  0  0  0  0  0  0  0  0  0  0
   58.7730   32.0640   45.9770 C   0  0  0  0  0  0  0  0  0  0  0  0
   58.6381   26.0923   48.0592 H   0  0  0  0  0  0  0  0  0  0  0  0
   58.6873   24.9552   46.6695 H   0  0  0  0  0  0  0  0  0  0  0  0
   59.7284   26.4191   46.6695 H   0  0  0  0  0  0  0  0  0  0  0  0
   56.7503   26.1726   46.3109 H   0  0  0  0  0  0  0  0  0  0  0  0
   57.5647   27.7272   46.8560 H   0  0  0  0  0  0  0  0  0  0  0  0
   57.6481   25.0600   44.8471 H   0  0  0  0  0  0  0  0  0  0  0  0
   56.8697   25.9890   43.5213 H   0  0  0  0  0  0  0  0  0  0  0  0
   58.6491   25.7433   43.5213 H   0  0  0  0  0  0  0  0  0  0  0  0
   59.8992   26.7175   45.3312 H   0  0  0  0  0  0  0  0  0  0  0  0
   59.5102   27.5287   43.7156 H   0  0  0  0  0  0  0  0  0  0  0  0
   60.4326   28.6728   46.1679 H   0  0  0  0  0  0  0  0  0  0  0  0
   60.2083   29.3841   44.5120 H   0  0  0  0  0  0  0  0  0  0  0  0
   57.6570   29.2110   45.5800 H   0  0  0  0  0  0  0  0  0  0  0  0
   59.1056   28.5412   47.7601 H   0  0  0  0  0  0  0  0  0  0  0  0
   59.7306   28.1927   50.1369 H   0  0  0  0  0  0  0  0  0  0  0  0
   60.1883   30.1968   51.5402 H   0  0  0  0  0  0  0  0  0  0  0  0
   60.0238   32.4487   50.5633 H   0  0  0  0  0  0  0  0  0  0  0  0
   59.6087   33.8853   49.9877 H   0  0  0  0  0  0  0  0  0  0  0  0
   60.7137   34.5340   48.7287 H   0  0  0  0  0  0  0  0  0  0  0  0
   58.9792   35.0013   48.7287 H   0  0  0  0  0  0  0  0  0  0  0  0
   59.1376   35.3157   46.8499 H   0  0  0  0  0  0  0  0  0  0  0  0
   58.5020   35.6340   44.4463 H   0  0  0  0  0  0  0  0  0  0  0  0
   58.0516   33.6297   43.0735 H   0  0  0  0  0  0  0  0  0  0  0  0
   58.7890   30.8260   42.9960 H   0  0  0  0  0  0  0  0  0  0  0  0
   56.2615   28.4715   43.5634 H   0  0  0  0  0  0  0  0  0  0  0  0
   55.7042   29.6583   42.3356 H   0  0  0  0  0  0  0  0  0  0  0  0
   57.4118   29.1008   42.3356 H   0  0  0  0  0  0  0  0  0  0  0  0
  1  2  1  0
  2  3  1  0
  3  4  1  0
  3  5  1  0
  5  6  1  0
  6  7  1  0
  7  8  1  0
  8  9  2  0
  9 10  1  0
 10 11  2  0
 11 12  1  0
 12 13  2  0
 13 14  1  0
 14 15  2  0
 15 16  1  0
 15 17  1  0
 17 18  2  0
 18 19  1  0
 19 20  2  0
 20 21  1  0
 21 22  1  0
 22 23  1  0
 23 24  1  0
 23 25  2  0
 21 26  2  0
 26  8  1  0
 14  9  1  0
 26 17  1  0
  1 27  1  0
  1 28  1  0
  1 29  1  0
  2 30  1  0
  2 31  1  0
  4 32  1  0
  4 33  1  0
  4 34  1  0
  5 35  1  0
  5 36  1  0
  6 37  1  0
  6 38  1  0
  7 39  1  0
 10 40  1  0
 11 41  1  0
 12 42  1  0
 13 43  1  0
 16 44  1  0
 16 45  1  0
 16 46  1  0
 18 47  1  0
 19 48  1  0
 20 49  1  0
 22 50  1  0
 24 51  1  0
 24 52  1  0
 24 53  1  0
M  CHG  1  15   1
M  END
>  <smiles>  (16) 
CCN(C)CCNc1c2ccccc2[n+](C)c2cccc(NC(C)=O)c12

>  <score_type>  (16) 
oracle

>  <origin>  (16) 
adg

>  <m_score__min__energy>  (16) 
-6.2800000000000002

>  <m_primary>  (16) 
energy

$$$$
17:0
     RDKit          3D

 48 49  0  0  0  0  0  0  0  0999 V2000
   59.2900   33.7350   51.4940 C   0  0  0  0  0  0  0  0  0  0  0  0
   58.2900   32.6090   51.6340 C   0  0  0  0  0  0  0  0  0  0  0  0
   58.1390   31.9270   50.2900 C   0  0  0  0  0  0  0  0  0  0  0  0
   59.4470   31.9750   49.5070 C   0  0  0  0  0  0  0  0  0  0  0  0
   59.1500   32.2820   48.0990 C   0  0  0  0  0  0  0  0  0  0  0  0
   58.5200   31.3280   47.3580 N   0  0  0  0  0  0  0  0  0  0  0  0
   58.2180   31.5320   46.0750 C   0  0  0  0  0  0  0  0  0  0  0  0
   57.3970   30.4650   44.8560 S   0  0  0  0  0  0  0  0  0  0  0  0
   57.5280   31.7250   43.5150 C   0  0  0  0  0  0  0  0  0  0  0  0
   57.0380   31.5330   42.1600 C   0  0  0  0  0  0  0  0  0  0  0  0
   57.7220   32.3460   41.1020 C   0  0  0  0  0  0  0  0  0  0  0  0
   58.1480   32.7690   44.0980 C   0  0  0  0  0  0  0  0  0  0  0  0
   58.5100   32.7100   45.3830 C   0  0  0  0  0  0  0  0  0  0  0  0
   59.1590   33.6690   46.1790 C   0  0  0  0  0  0  0  0  0  0  0  0
   59.4970   34.7900   45.7220 O   0  0  0  0  0  0  0  0  0  0  0  0
   59.4430   33.4190   47.4690 N   0  0  0  0  0  0  0  0  0  0  0  0
   60.1330   34.4670   48.2430 C   0  0  0  0  0  0  0  0  0  0  0  0
   61.5300   34.1510   48.5270 C   0  0  0  0  0  0  0  0  0  0  0  0
   61.9890   34.5880   49.6460 O   0  0  0  0  0  0  0  0  0  0  0  0
   62.4100   33.4180   47.6910 N   0  0  0  0  0  0  0  0  0  0  0  0
   62.8680   33.8390   46.3970 C   0  0  0  0  0  0  0  0  0  0  0  0
   62.9110   32.1180   48.1640 C   0  0  0  0  0  0  0  0  0  0  0  0
   64.1120   32.2810   49.0410 C   0  0  0  0  0  0  0  0  0  0  0  0
   59.5962   34.0798   52.4927 H   0  0  0  0  0  0  0  0  0  0  0  0
   60.1721   33.3757   50.9437 H   0  0  0  0  0  0  0  0  0  0  0  0
   58.8290   34.5685   50.9437 H   0  0  0  0  0  0  0  0  0  0  0  0
   58.6500   31.8842   52.3790 H   0  0  0  0  0  0  0  0  0  0  0  0
   57.3194   33.0073   51.9645 H   0  0  0  0  0  0  0  0  0  0  0  0
   57.8524   30.8770   50.4489 H   0  0  0  0  0  0  0  0  0  0  0  0
   57.3639   32.4531   49.7133 H   0  0  0  0  0  0  0  0  0  0  0  0
   60.0991   32.7559   49.9253 H   0  0  0  0  0  0  0  0  0  0  0  0
   59.9581   31.0034   49.5763 H   0  0  0  0  0  0  0  0  0  0  0  0
   57.1614   30.4706   41.9029 H   0  0  0  0  0  0  0  0  0  0  0  0
   55.9910   31.8701   42.1683 H   0  0  0  0  0  0  0  0  0  0  0  0
   58.3604   33.1048   41.5782 H   0  0  0  0  0  0  0  0  0  0  0  0
   58.3410   31.6866   40.4758 H   0  0  0  0  0  0  0  0  0  0  0  0
   56.9664   32.8430   40.4758 H   0  0  0  0  0  0  0  0  0  0  0  0
   58.3578   33.6763   43.5124 H   0  0  0  0  0  0  0  0  0  0  0  0
   60.0970   35.4051   47.6697 H   0  0  0  0  0  0  0  0  0  0  0  0
   59.6154   34.5515   49.2099 H   0  0  0  0  0  0  0  0  0  0  0  0
   63.6731   34.5791   46.5159 H   0  0  0  0  0  0  0  0  0  0  0  0
   63.2487   32.9690   45.8419 H   0  0  0  0  0  0  0  0  0  0  0  0
   62.0331   34.2915   45.8419 H   0  0  0  0  0  0  0  0  0  0  0  0
   62.1168   31.6148   48.7350 H   0  0  0  0  0  0  0  0  0  0  0  0
   63.2014   31.5198   47.2877 H   0  0  0  0  0  0  0  0  0  0  0  0
   63.8039   32.2392   50.0961 H   0  0  0  0  0  0  0  0  0  0  0  0
   64.8284   31.4718   48.8358 H   0  0  0  0  0  0  0  0  0  0  0  0
   64.5868   33.2518   48.8358 H   0  0  0  0  0  0  0  0  0  0  0  0
  1  2  1  0
  2  3  1  0
  3  4  1  0
  4  5  1  0
  5  6  2  0
  6  7  1  0
  7  8  1  0
  8  9  1  0
  9 10  1  0
 10 11  1  0
  9 12  2  0
 12 13  1  0
 13 14  1  0
 14 15  2  0
 14 16  1  0
 16 17  1  0
 17 18  1  0
 18 19  2  0
 18 20  1  0
 20 21  1  0
 20 22  1  0
 22 23  1  0
 16  5  1  0
 13  7  2  0
  1 24  1  0
  1 25  1  0
  1 26  1  0
  2 27  1  0
  2 28  1  0
  3 29  1  0
  3 30  1  0
  4 31  1  0
  4 32  1  0
 10 33  1  0
 10 34  1  0
 11 35  1  0
 11 36  1  0
 11 37  1  0
 12 38  1  0
 17 39  1  0
 17 40  1  0
 21 41  1  0
 21 42  1  0
 21 43  1  0
 22 44  1  0
 22 45  1  0
 23 46  1  0
 23 47  1  0
 23 48  1  0
M  END
>  <smiles>  (17) 
CCCCc1nc2sc(CC)cc2c(=O)n1CC(=O)N(C)CC

>  <score_type>  (17) 
oracle

>  <origin>  (17) 
adg

>  <m_score__min__energy>  (17) 
-6.7699999999999996

>  <m_primary>  (17) 
energy

$$$$
18:0
     RDKit          3D

 49 51  0  0  0  0  0  0  0  0999 V2000
   59.8580   30.0000   46.3860 C   0  0  0  0  0  0  0  0  0  0  0  0
   58.4890   29.4090   46.4700 C   0  0  0  0  0  0  0  0  0  0  0  0
   57.5260   30.2830   45.9830 O   0  0  0  0  0  0  0  0  0  0  0  0
   57.5110   30.3180   44.5940 C   0  0  0  0  0  0  0  0  0  0  0  0
   57.4550   31.7840   44.1310 C   0  0  0  0  0  0  0  0  0  0  0  0
   57.0150   32.5100   45.2020 O   0  0  0  0  0  0  0  0  0  0  0  0
   57.4440   33.8490   45.2190 C   0  0  0  0  0  0  0  0  0  0  0  0
   58.3930   34.1380   46.3530 C   0  0  0  0  0  0  0  0  0  0  0  0
   58.7670   32.9930   47.1160 N   0  0  0  0  0  0  0  0  0  0  0  0
   59.7670   32.9600   48.1080 C   0  0  0  0  0  0  0  0  0  0  0  0
   61.0930   33.2550   47.9250 C   0  0  0  0  0  0  0  0  0  0  0  0
   61.5430   33.5610   46.6630 C   0  0  0  0  0  0  0  0  0  0  0  0
   62.8530   33.8590   46.3620 C   0  0  0  0  0  0  0  0  0  0  0  0
   63.7540   33.8470   47.4020 C   0  0  0  0  0  0  0  0  0  0  0  0
   63.3330   33.5410   48.6920 C   0  0  0  0  0  0  0  0  0  0  0  0
   62.0020   33.2410   48.9740 C   0  0  0  0  0  0  0  0  0  0  0  0
   61.6250   32.9310   50.2430 N   0  0  0  0  0  0  0  0  0  0  0  0
   62.6410   32.9560   51.2460 C   0  0  0  0  0  0  0  0  0  0  0  0
   60.3320   32.6350   50.4440 C   0  0  0  0  0  0  0  0  0  0  0  0
   59.9090   32.3070   51.7140 C   0  0  0  0  0  0  0  0  0  0  0  0
   58.5690   31.9880   51.9500 C   0  0  0  0  0  0  0  0  0  0  0  0
   58.0190   31.5670   53.5730 Cl  0  0  0  0  0  0  0  0  0  0  0  0
   57.6240   31.9870   50.9510 C   0  0  0  0  0  0  0  0  0  0  0  0
   58.0690   32.3220   49.6650 C   0  0  0  0  0  0  0  0  0  0  0  0
   59.3890   32.6390   49.4180 C   0  0  0  0  0  0  0  0  0  0  0  0
   60.2477   30.1682   47.4008 H   0  0  0  0  0  0  0  0  0  0  0  0
   60.5233   29.3089   45.8477 H   0  0  0  0  0  0  0  0  0  0  0  0
   59.8114   30.9581   45.8477 H   0  0  0  0  0  0  0  0  0  0  0  0
   58.4628   28.4824   45.8777 H   0  0  0  0  0  0  0  0  0  0  0  0
   58.2659   29.2046   47.5276 H   0  0  0  0  0  0  0  0  0  0  0  0
   58.4225   29.8423   44.2031 H   0  0  0  0  0  0  0  0  0  0  0  0
   56.6312   29.7754   44.2179 H   0  0  0  0  0  0  0  0  0  0  0  0
   58.4551   32.1249   43.8253 H   0  0  0  0  0  0  0  0  0  0  0  0
   56.7862   31.9039   43.2659 H   0  0  0  0  0  0  0  0  0  0  0  0
   57.9531   34.0681   44.2688 H   0  0  0  0  0  0  0  0  0  0  0  0
   56.5554   34.4823   45.3581 H   0  0  0  0  0  0  0  0  0  0  0  0
   59.3062   34.5838   45.9319 H   0  0  0  0  0  0  0  0  0  0  0  0
   57.8630   34.8134   47.0407 H   0  0  0  0  0  0  0  0  0  0  0  0
   58.2640   32.0700   46.9430 H   0  0  0  0  0  0  0  0  0  0  0  0
   60.8108   33.5683   45.8421 H   0  0  0  0  0  0  0  0  0  0  0  0
   63.1659   34.0964   45.3345 H   0  0  0  0  0  0  0  0  0  0  0  0
   64.8121   34.0805   47.2124 H   0  0  0  0  0  0  0  0  0  0  0  0
   64.0690   33.5358   49.5095 H   0  0  0  0  0  0  0  0  0  0  0  0
   62.1736   32.9445   52.2417 H   0  0  0  0  0  0  0  0  0  0  0  0
   63.2881   32.0735   51.1345 H   0  0  0  0  0  0  0  0  0  0  0  0
   63.2439   33.8693   51.1345 H   0  0  0  0  0  0  0  0  0  0  0  0
   60.6292   32.2962   52.5454 H   0  0  0  0  0  0  0  0  0  0  0  0
   56.5719   31.7359   51.1512 H   0  0  0  0  0  0  0  0  0  0  0  0
   57.3493   32.3325   48.8332 H   0  0  0  0  0  0  0  0  0  0  0  0
  1  2  1  0
  2  3  1  0
  3  4  1  0
  4  5  1  0
  5  6  1  0
  6  7  1  0
  7  8  1  0
  8  9  1  0
  9 10  1  0
 10 11  2  0
 11 12  1  0
 12 13  2  0
 13 14  1  0
 14 15  2  0
 15 16  1  0
 16 17  2  0
 17 18  1  0
 17 19  1  0
 19 20  2  0
 20 21  1  0
 21 22  1  0
 21 23  2  0
 23 24  1  0
 24 25  2  0
 25 10  1  0
 16 11  1  0
 25 19  1  0
  1 26  1  0
  1 27  1  0
  1 28  1  0
  2 29  1  0
  2 30  1  0
  4 31  1  0
  4 32  1  0
  5 33  1  0
  5 34  1  0
  7 35  1  0
  7 36  1  0
  8 37  1  0
  8 38  1  0
  9 39  1  0
 12 40  1  0
 13 41  1  0
 14 42  1  0
 15 43  1  0
 18 44  1  0
 18 45  1  0
 18 46  1  0
 20 47  1  0
 23 48  1  0
 24 49  1  0
M  CHG  1  17   1
M  END
>  <smiles>  (18) 
CCOCCOCCNc1c2ccccc2[n+](C)c2cc(Cl)ccc12

>  <score_type>  (18) 
oracle

>  <origin>  (18) 
adg

>  <m_score__min__energy>  (18) 
-4.8399999999999999

>  <m_primary>  (18) 
energy

$$$$
19:0
     RDKit          3D

 54 56  0  0  1  0  0  0  0  0999 V2000
   63.3570   33.7640   46.9310 C   0  0  0  0  0  0  0  0  0  0  0  0
   63.3760   33.5420   48.4530 C   0  0  0  0  0  0  0  0  0  0  0  0
   62.7590   32.2810   48.7190 N   0  0  0  0  0  0  0  0  0  0  0  0
   62.5440   31.5080   47.4770 C   0  0  0  0  0  0  0  0  0  0  0  0
   61.4800   30.5000   47.6130 C   0  0  0  0  0  0  0  0  0  0  0  0
   60.1180   30.9540   47.8010 N   0  0  0  0  0  0  0  0  0  0  0  0
   59.3690   31.2540   46.6360 C   0  0  0  0  0  0  0  0  0  0  0  0
   58.8800   30.1320   45.9530 C   0  0  0  0  0  0  0  0  0  0  0  0
   59.0030   28.8630   46.4870 C   0  0  0  0  0  0  0  0  0  0  0  0
   58.5320   27.7270   45.8910 C   0  0  0  0  0  0  0  0  0  0  0  0
   57.8920   27.8540   44.6840 C   0  0  0  0  0  0  0  0  0  0  0  0
   57.7530   29.1190   44.1260 C   0  0  0  0  0  0  0  0  0  0  0  0
   58.2370   30.2530   44.7460 C   0  0  0  0  0  0  0  0  0  0  0  0
   58.0620   31.4940   44.1860 N   0  0  0  0  0  0  0  0  0  0  0  0
   57.3910   31.4930   42.9140 C   0  0  0  0  0  0  0  0  0  0  0  0
   58.5210   32.5730   44.8330 C   0  0  0  0  0  0  0  0  0  0  0  0
   58.3140   33.7980   44.2340 C   0  0  0  0  0  0  0  0  0  0  0  0
   58.7740   34.9150   44.8930 C   0  0  0  0  0  0  0  0  0  0  0  0
   59.4140   34.8140   46.1040 C   0  0  0  0  0  0  0  0  0  0  0  0
   59.6400   33.5850   46.7410 C   0  0  0  0  0  0  0  0  0  0  0  0
   60.2180   33.6240   48.0070 N   0  0  0  0  0  0  0  0  0  0  0  0
   59.6940   34.5830   49.0180 C   0  0  0  0  0  0  0  0  0  0  0  0
   59.7030   33.8220   50.3050 C   0  0  0  0  0  0  0  0  0  0  0  0
   59.9880   32.5850   50.2310 N   0  0  0  0  0  0  0  0  0  0  0  0
   59.1960   31.6150   50.9680 C   0  0  0  0  0  0  0  0  0  0  0  0
   59.1840   32.4810   46.0730 C   0  0  0  0  0  0  0  0  0  0  0  0
   63.2650   34.8393   46.7184 H   0  0  0  0  0  0  0  0  0  0  0  0
   64.2911   33.3823   46.4931 H   0  0  0  0  0  0  0  0  0  0  0  0
   62.5014   33.2291   46.4931 H   0  0  0  0  0  0  0  0  0  0  0  0
   64.4140   33.5347   48.8170 H   0  0  0  0  0  0  0  0  0  0  0  0
   62.8340   34.3503   48.9656 H   0  0  0  0  0  0  0  0  0  0  0  0
   61.9000   32.3390   49.2870 H   0  0  0  0  0  0  0  0  0  0  0  0
   62.2679   32.2049   46.6720 H   0  0  0  0  0  0  0  0  0  0  0  0
   63.4795   30.9755   47.2506 H   0  0  0  0  0  0  0  0  0  0  0  0
   61.4948   29.8870   46.6997 H   0  0  0  0  0  0  0  0  0  0  0  0
   61.7217   29.9782   48.5507 H   0  0  0  0  0  0  0  0  0  0  0  0
   59.6600   31.0360   48.7600 H   0  0  0  0  0  0  0  0  0  0  0  0
   59.5138   28.7608   47.4558 H   0  0  0  0  0  0  0  0  0  0  0  0
   58.6618   26.7423   46.3638 H   0  0  0  0  0  0  0  0  0  0  0  0
   57.4952   26.9683   44.1662 H   0  0  0  0  0  0  0  0  0  0  0  0
   57.2402   29.2199   43.1581 H   0  0  0  0  0  0  0  0  0  0  0  0
   56.3026   31.4914   43.0736 H   0  0  0  0  0  0  0  0  0  0  0  0
   57.6772   32.3916   42.3477 H   0  0  0  0  0  0  0  0  0  0  0  0
   57.6799   30.5953   42.3477 H   0  0  0  0  0  0  0  0  0  0  0  0
   57.8000   33.8791   43.2649 H   0  0  0  0  0  0  0  0  0  0  0  0
   58.6264   35.9072   44.4415 H   0  0  0  0  0  0  0  0  0  0  0  0
   59.7636   35.7345   46.5943 H   0  0  0  0  0  0  0  0  0  0  0  0
   60.9690   33.0550   48.4250 H   0  0  0  0  0  0  0  0  0  0  0  0
   60.3438   35.4680   49.0863 H   0  0  0  0  0  0  0  0  0  0  0  0
   58.6903   34.9519   48.7601 H   0  0  0  0  0  0  0  0  0  0  0  0
   59.4750   34.3069   51.2657 H   0  0  0  0  0  0  0  0  0  0  0  0
   59.3288   31.7777   52.0478 H   0  0  0  0  0  0  0  0  0  0  0  0
   58.1341   31.7345   50.7071 H   0  0  0  0  0  0  0  0  0  0  0  0
   59.5255   30.5985   50.7071 H   0  0  0  0  0  0  0  0  0  0  0  0
  1  2  1  0
  2  3  1  0
  3  4  1  0
  4  5  1  0
  5  6  1  0
  6  7  1  0
  7  8  2  0
  8  9  1  0
  9 10  2  0
 10 11  1  0
 11 12  2  0
 12 13  1  0
 13 14  2  0
 14 15  1  0
 14 16  1  0
 16 17  2  0
 17 18  1  0
 18 19  2  0
 19 20  1  0
 20 21  1  0
 21 22  1  0
 22 23  1  0
 23 24  2  0
 24 25  1  0
 20 26  2  0
 26  7  1  0
 13  8  1  0
 26 16  1  0
  1 27  1  0
  1 28  1  0
  1 29  1  0
  2 30  1  0
  2 31  1  0
  3 32  1  0
  4 33  1  0
  4 34  1  0
  5 35  1  0
  5 36  1  0
  6 37  1  0
  9 38  1  0
 10 39  1  0
 11 40  1  0
 12 41  1  0
 15 42  1  0
 15 43  1  0
 15 44  1  0
 17 45  1  0
 18 46  1  0
 19 47  1  0
 21 48  1  0
 22 49  1  0
 22 50  1  0
 23 51  1  0
 25 52  1  0
 25 53  1  0
 25 54  1  0
M  CHG  1  14   1
M  END
>  <smiles>  (19) 
CCNCCNc1c2ccccc2[n+](C)c2cccc(NCC=NC)c12

>  <score_type>  (19) 
oracle

>  <origin>  (19) 
adg

>  <m_score__min__energy>  (19) 
-5.1600000000000001

>  <m_primary>  (19) 
energy

$$$$
20:0
     RDKit          3D

 60 63  0  0  0  0  0  0  0  0999 V2000
   58.7540   32.0030   50.0830 C   0  0  0  0  0  0  0  0  0  0  0  0
   60.0560   32.2150   50.8280 C   0  0  0  0  0  0  0  0  0  0  0  0
   60.5820   33.5100   50.5770 N   0  0  0  0  0  0  0  0  0  0  0  0
   59.9360   34.2440   49.5180 C   0  0  0  0  0  0  0  0  0  0  0  0
   62.0160   33.6250   50.5690 C   0  0  0  0  0  0  0  0  0  0  0  0
   62.5620   34.3500   49.3930 C   0  0  0  0  0  0  0  0  0  0  0  0
   63.7440   33.8030   48.9140 O   0  0  0  0  0  0  0  0  0  0  0  0
   63.6730   32.4860   48.5400 C   0  0  0  0  0  0  0  0  0  0  0  0
   62.6990   32.3310   47.3620 C   0  0  0  0  0  0  0  0  0  0  0  0
   61.3590   32.1550   47.8090 N   0  0  0  0  0  0  0  0  0  0  0  0
   60.2640   31.7170   47.0230 C   0  0  0  0  0  0  0  0  0  0  0  0
   59.8720   30.3700   46.9690 C   0  0  0  0  0  0  0  0  0  0  0  0
   58.7980   30.0440   46.1810 C   0  0  0  0  0  0  0  0  0  0  0  0
   58.1030   30.9790   45.4570 N   0  0  0  0  0  0  0  0  0  0  0  0
   56.9970   30.5330   44.6780 C   0  0  0  0  0  0  0  0  0  0  0  0
   58.5110   32.2600   45.5370 C   0  0  0  0  0  0  0  0  0  0  0  0
   57.8550   33.2480   44.8300 C   0  0  0  0  0  0  0  0  0  0  0  0
   58.2640   34.5850   44.8960 C   0  0  0  0  0  0  0  0  0  0  0  0
   59.3370   34.9670   45.6720 C   0  0  0  0  0  0  0  0  0  0  0  0
   59.9900   33.9880   46.3730 C   0  0  0  0  0  0  0  0  0  0  0  0
   59.5830   32.6710   46.3040 C   0  0  0  0  0  0  0  0  0  0  0  0
   58.4440   28.6190   46.1100 C   0  0  0  0  0  0  0  0  0  0  0  0
   57.4140   28.1980   45.4040 N   0  0  0  0  0  0  0  0  0  0  0  0
   57.0560   26.9130   45.3370 C   0  0  0  0  0  0  0  0  0  0  0  0
   57.7460   25.9330   46.0100 C   0  0  0  0  0  0  0  0  0  0  0  0
   58.8290   26.3340   46.7600 C   0  0  0  0  0  0  0  0  0  0  0  0
   59.1810   27.6920   46.8090 C   0  0  0  0  0  0  0  0  0  0  0  0
   60.3770   28.0070   47.6220 C   0  0  0  0  0  0  0  0  0  0  0  0
   60.6590   29.4480   47.7970 C   0  0  0  0  0  0  0  0  0  0  0  0
   57.9355   31.8697   50.8057 H   0  0  0  0  0  0  0  0  0  0  0  0
   58.5462   32.8791   49.4512 H   0  0  0  0  0  0  0  0  0  0  0  0
   58.8349   31.1062   49.4512 H   0  0  0  0  0  0  0  0  0  0  0  0
   59.8750   32.1034   51.9073 H   0  0  0  0  0  0  0  0  0  0  0  0
   60.7843   31.4678   50.4796 H   0  0  0  0  0  0  0  0  0  0  0  0
   59.2683   35.0027   49.9521 H   0  0  0  0  0  0  0  0  0  0  0  0
   60.6976   34.7381   48.8968 H   0  0  0  0  0  0  0  0  0  0  0  0
   59.3492   33.5513   48.8968 H   0  0  0  0  0  0  0  0  0  0  0  0
   62.3242   34.1614   51.4786 H   0  0  0  0  0  0  0  0  0  0  0  0
   62.4151   32.6010   50.5224 H   0  0  0  0  0  0  0  0  0  0  0  0
   61.8132   34.3240   48.5877 H   0  0  0  0  0  0  0  0  0  0  0  0
   62.7849   35.3773   49.7169 H   0  0  0  0  0  0  0  0  0  0  0  0
   64.6715   32.1383   48.2364 H   0  0  0  0  0  0  0  0  0  0  0  0
   63.3139   31.8862   49.3893 H   0  0  0  0  0  0  0  0  0  0  0  0
   62.7505   33.2335   46.7352 H   0  0  0  0  0  0  0  0  0  0  0  0
   62.9907   31.4379   46.7899 H   0  0  0  0  0  0  0  0  0  0  0  0
   61.1480   32.3700   48.8290 H   0  0  0  0  0  0  0  0  0  0  0  0
   56.1863   30.2061   45.3457 H   0  0  0  0  0  0  0  0  0  0  0  0
   56.6394   31.3572   44.0433 H   0  0  0  0  0  0  0  0  0  0  0  0
   57.3112   29.6913   44.0433 H   0  0  0  0  0  0  0  0  0  0  0  0
   56.9930   32.9788   44.2018 H   0  0  0  0  0  0  0  0  0  0  0  0
   57.7187   35.3452   44.3175 H   0  0  0  0  0  0  0  0  0  0  0  0
   59.6568   36.0181   45.7263 H   0  0  0  0  0  0  0  0  0  0  0  0
   60.8525   34.2557   47.0010 H   0  0  0  0  0  0  0  0  0  0  0  0
   56.1853   26.6313   44.7267 H   0  0  0  0  0  0  0  0  0  0  0  0
   57.4466   24.8761   45.9521 H   0  0  0  0  0  0  0  0  0  0  0  0
   59.4171   25.5917   47.3196 H   0  0  0  0  0  0  0  0  0  0  0  0
   60.2366   27.5644   48.6192 H   0  0  0  0  0  0  0  0  0  0  0  0
   61.2359   27.5928   47.0737 H   0  0  0  0  0  0  0  0  0  0  0  0
   60.4712   29.7007   48.8510 H   0  0  0  0  0  0  0  0  0  0  0  0
   61.7024   29.5837   47.4764 H   0  0  0  0  0  0  0  0  0  0  0  0
  1  2  1  0
  2  3  1  0
  3  4  1  0
  3  5  1  0
  5  6  1  0
  6  7  1  0
  7  8  1  0
  8  9  1  0
  9 10  1  0
 10 11  1  0
 11 12  2  0
 12 13  1  0
 13 14  2  0
 14 15  1  0
 14 16  1  0
 16 17  2  0
 17 18  1  0
 18 19  2  0
 19 20  1  0
 20 21  2  0
 13 22  1  0
 22 23  2  0
 23 24  1  0
 24 25  2  0
 25 26  1  0
 26 27  2  0
 27 28  1  0
 28 29  1  0
 21 11  1  0
 27 22  1  0
 29 12  1  0
 21 16  1  0
  1 30  1  0
  1 31  1  0
  1 32  1  0
  2 33  1  0
  2 34  1  0
  4 35  1  0
  4 36  1  0
  4 37  1  0
  5 38  1  0
  5 39  1  0
  6 40  1  0
  6 41  1  0
  8 42  1  0
  8 43  1  0
  9 44  1  0
  9 45  1  0
 10 46  1  0
 15 47  1  0
 15 48  1  0
 15 49  1  0
 17 50  1  0
 18 51  1  0
 19 52  1  0
 20 53  1  0
 24 54  1  0
 25 55  1  0
 26 56  1  0
 28 57  1  0
 28 58  1  0
 29 59  1  0
 29 60  1  0
M  CHG  1  14   1
M  END
>  <smiles>  (20) 
CCN(C)CCOCCNc1c2c([n+](C)c3ccccc13)-c1ncccc1CC2

>  <score_type>  (20) 
oracle

>  <origin>  (20) 
adg

>  <m_score__min__energy>  (20) 
-5.75

>  <m_primary>  (20) 
energy

$$$$
21:0
     RDKit          3D

 57 60  0  0  0  0  0  0  0  0999 V2000
   60.0390   33.8020   53.0930 C   0  0  0  0  0  0  0  0  0  0  0  0
   60.3390   33.6820   51.6700 N   0  0  0  0  0  0  0  0  0  0  0  0
   59.4920   33.8840   50.6730 N   0  0  0  0  0  0  0  0  0  0  0  0
   60.1110   33.6800   49.4730 C   0  0  0  0  0  0  0  0  0  0  0  0
   59.4390   33.7950   48.1880 C   0  0  0  0  0  0  0  0  0  0  0  0
   59.7990   34.7610   47.2420 C   0  0  0  0  0  0  0  0  0  0  0  0
   59.1520   34.8900   46.0350 C   0  0  0  0  0  0  0  0  0  0  0  0
   58.1080   34.0290   45.7590 C   0  0  0  0  0  0  0  0  0  0  0  0
   57.4990   34.2000   44.5510 F   0  0  0  0  0  0  0  0  0  0  0  0
   57.7060   33.0570   46.6510 C   0  0  0  0  0  0  0  0  0  0  0  0
   58.3730   32.9490   47.8530 C   0  0  0  0  0  0  0  0  0  0  0  0
   61.4280   33.3310   49.7610 C   0  0  0  0  0  0  0  0  0  0  0  0
   61.5320   33.3400   51.1250 C   0  0  0  0  0  0  0  0  0  0  0  0
   62.7640   32.9970   51.9070 C   0  0  0  0  0  0  0  0  0  0  0  0
   63.9800   33.6280   51.2390 C   0  0  0  0  0  0  0  0  0  0  0  0
   64.4110   32.8750   50.0330 C   0  0  0  0  0  0  0  0  0  0  0  0
   63.7570   33.4120   48.7430 C   0  0  0  0  0  0  0  0  0  0  0  0
   62.3500   33.0500   48.6940 N   0  0  0  0  0  0  0  0  0  0  0  0
   61.7960   32.4610   47.5360 C   0  0  0  0  0  0  0  0  0  0  0  0
   61.8710   33.0920   46.4020 O   0  0  0  0  0  0  0  0  0  0  0  0
   61.1060   31.1680   47.4300 C   0  0  0  0  0  0  0  0  0  0  0  0
   60.1200   31.0030   46.4310 N   0  0  0  0  0  0  0  0  0  0  0  0
   59.9810   29.6410   45.9590 C   0  0  0  0  0  0  0  0  0  0  0  0
   59.9850   28.6420   47.0710 C   0  0  0  0  0  0  0  0  0  0  0  0
   60.3460   27.3110   46.3960 C   0  0  0  0  0  0  0  0  0  0  0  0
   59.2020   26.9790   45.4790 C   0  0  0  0  0  0  0  0  0  0  0  0
   58.8770   28.0460   44.4940 C   0  0  0  0  0  0  0  0  0  0  0  0
   58.8130   29.4400   45.0610 C   0  0  0  0  0  0  0  0  0  0  0  0
   60.9026   33.4565   53.6802 H   0  0  0  0  0  0  0  0  0  0  0  0
   59.8277   34.8539   53.3357 H   0  0  0  0  0  0  0  0  0  0  0  0
   59.1606   33.1860   53.3357 H   0  0  0  0  0  0  0  0  0  0  0  0
   60.6308   35.4430   47.4722 H   0  0  0  0  0  0  0  0  0  0  0  0
   59.4578   35.6580   45.3093 H   0  0  0  0  0  0  0  0  0  0  0  0
   56.8714   32.3826   46.4088 H   0  0  0  0  0  0  0  0  0  0  0  0
   58.0592   32.1761   48.5701 H   0  0  0  0  0  0  0  0  0  0  0  0
   62.6671   33.3831   52.9325 H   0  0  0  0  0  0  0  0  0  0  0  0
   62.8874   31.9044   51.9375 H   0  0  0  0  0  0  0  0  0  0  0  0
   63.7276   34.6569   50.9429 H   0  0  0  0  0  0  0  0  0  0  0  0
   64.8091   33.6117   51.9618 H   0  0  0  0  0  0  0  0  0  0  0  0
   65.5037   32.9572   49.9364 H   0  0  0  0  0  0  0  0  0  0  0  0
   64.0966   31.8285   50.1594 H   0  0  0  0  0  0  0  0  0  0  0  0
   63.8494   34.5079   48.7199 H   0  0  0  0  0  0  0  0  0  0  0  0
   64.2677   32.9689   47.8754 H   0  0  0  0  0  0  0  0  0  0  0  0
   61.8769   30.4036   47.2529 H   0  0  0  0  0  0  0  0  0  0  0  0
   60.5457   31.0871   48.3731 H   0  0  0  0  0  0  0  0  0  0  0  0
   60.2090   31.6720   45.6280 H   0  0  0  0  0  0  0  0  0  0  0  0
   60.8792   29.4618   45.3497 H   0  0  0  0  0  0  0  0  0  0  0  0
   60.7356   28.9086   47.8296 H   0  0  0  0  0  0  0  0  0  0  0  0
   59.0179   28.5957   47.5931 H   0  0  0  0  0  0  0  0  0  0  0  0
   61.2774   27.4162   45.8203 H   0  0  0  0  0  0  0  0  0  0  0  0
   60.5061   26.5162   47.1394 H   0  0  0  0  0  0  0  0  0  0  0  0
   59.4595   26.0648   44.9241 H   0  0  0  0  0  0  0  0  0  0  0  0
   58.3133   26.8568   46.1156 H   0  0  0  0  0  0  0  0  0  0  0  0
   59.6480   28.0321   43.7095 H   0  0  0  0  0  0  0  0  0  0  0  0
   57.8675   27.8206   44.1196 H   0  0  0  0  0  0  0  0  0  0  0  0
   58.8438   30.1746   44.2428 H   0  0  0  0  0  0  0  0  0  0  0  0
   57.8780   29.5738   45.6249 H   0  0  0  0  0  0  0  0  0  0  0  0
  1  2  1  0
  2  3  1  0
  3  4  2  0
  4  5  1  0
  5  6  2  0
  6  7  1  0
  7  8  2  0
  8  9  1  0
  8 10  1  0
 10 11  2  0
  4 12  1  0
 12 13  2  0
 13 14  1  0
 14 15  1  0
 15 16  1  0
 16 17  1  0
 17 18  1  0
 18 19  1  0
 19 20  2  0
 19 21  1  0
 21 22  1  0
 22 23  1  0
 23 24  1  0
 24 25  1  0
 25 26  1  0
 26 27  1  0
 27 28  1  0
 13  2  1  0
 28 23  1  0
 11  5  1  0
 18 12  1  0
  1 29  1  0
  1 30  1  0
  1 31  1  0
  6 32  1  0
  7 33  1  0
 10 34  1  0
 11 35  1  0
 14 36  1  0
 14 37  1  0
 15 38  1  0
 15 39  1  0
 16 40  1  0
 16 41  1  0
 17 42  1  0
 17 43  1  0
 21 44  1  0
 21 45  1  0
 22 46  1  0
 23 47  1  0
 24 48  1  0
 24 49  1  0
 25 50  1  0
 25 51  1  0
 26 52  1  0
 26 53  1  0
 27 54  1  0
 27 55  1  0
 28 56  1  0
 28 57  1  0
M  END
>  <smiles>  (21) 
Cn1nc(-c2ccc(F)cc2)c2c1CCCCN2C(=O)CNC1CCCCC1

>  <score_type>  (21) 
oracle

>  <origin>  (21) 
adg

>  <m_score__min__energy>  (21) 
-6.5199999999999996

>  <m_primary>  (21) 
energy

$$$$
22:0
     RDKit          3D

 27 29  0  0  0  0  0  0  0  0999 V2000
   58.0350   26.8990   42.6800 C   0  0  0  0  0  0  0  0  0  0  0  0
   57.7780   28.2090   43.3530 C   0  0  0  0  0  0  0  0  0  0  0  0
   56.6700   28.9750   43.0610 C   0  0  0  0  0  0  0  0  0  0  0  0
   56.5010   30.1740   43.7240 C   0  0  0  0  0  0  0  0  0  0  0  0
   57.3730   30.6270   44.6450 N   0  0  0  0  0  0  0  0  0  0  0  0
   57.4270   31.7290   45.4050 N   0  0  0  0  0  0  0  0  0  0  0  0
   58.5350   31.6790   46.1650 C   0  0  0  0  0  0  0  0  0  0  0  0
   58.9640   32.6800   47.1270 C   0  0  0  0  0  0  0  0  0  0  0  0
   59.1890   33.9920   46.7490 C   0  0  0  0  0  0  0  0  0  0  0  0
   58.9390   34.4100   45.0680 Cl  0  0  0  0  0  0  0  0  0  0  0  0
   59.5960   34.9440   47.6620 C   0  0  0  0  0  0  0  0  0  0  0  0
   59.7910   34.5940   48.9970 C   0  0  0  0  0  0  0  0  0  0  0  0
   59.5720   33.2910   49.3970 C   0  0  0  0  0  0  0  0  0  0  0  0
   59.1600   32.3540   48.4440 C   0  0  0  0  0  0  0  0  0  0  0  0
   58.8930   30.6970   49.0020 Cl  0  0  0  0  0  0  0  0  0  0  0  0
   59.2300   30.5060   45.8950 C   0  0  0  0  0  0  0  0  0  0  0  0
   58.4580   29.8650   44.9220 C   0  0  0  0  0  0  0  0  0  0  0  0
   58.6360   28.6950   44.2850 N   0  0  0  0  0  0  0  0  0  0  0  0
   58.1879   26.1196   43.4410 H   0  0  0  0  0  0  0  0  0  0  0  0
   57.1717   26.6339   42.0519 H   0  0  0  0  0  0  0  0  0  0  0  0
   58.9344   26.9797   42.0519 H   0  0  0  0  0  0  0  0  0  0  0  0
   55.9354   28.6378   42.3149 H   0  0  0  0  0  0  0  0  0  0  0  0
   55.6168   30.7852   43.4902 H   0  0  0  0  0  0  0  0  0  0  0  0
   59.7667   35.9805   47.3355 H   0  0  0  0  0  0  0  0  0  0  0  0
   60.1169   35.3503   49.7263 H   0  0  0  0  0  0  0  0  0  0  0  0
   59.7189   32.9951   50.4462 H   0  0  0  0  0  0  0  0  0  0  0  0
   60.1727   30.1608   46.3446 H   0  0  0  0  0  0  0  0  0  0  0  0
  1  2  1  0
  2  3  1  0
  3  4  2  0
  4  5  1  0
  5  6  1  0
  6  7  2  0
  7  8  1  0
  8  9  2  0
  9 10  1  0
  9 11  1  0
 11 12  2  0
 12 13  1  0
 13 14  2  0
 14 15  1  0
  7 16  1  0
 16 17  2  0
 17 18  1  0
 18  2  2  0
 17  5  1  0
 14  8  1  0
  1 19  1  0
  1 20  1  0
  1 21  1  0
  3 22  1  0
  4 23  1  0
 11 24  1  0
 12 25  1  0
 13 26  1  0
 16 27  1  0
M  END
>  <smiles>  (22) 
Cc1ccn2nc(-c3c(Cl)cccc3Cl)cc2n1

>  <score_type>  (22) 
oracle

>  <origin>  (22) 
adg

>  <m_score__min__energy>  (22) 
-6.7599999999999998

>  <m_primary>  (22) 
energy

$$$$
23:0
     RDKit          3D

 54 56  0  0  0  0  0  0  0  0999 V2000
   58.8670   26.1300   46.6920 C   0  0  0  0  0  0  0  0  0  0  0  0
   57.3990   26.3930   46.7720 C   0  0  0  0  0  0  0  0  0  0  0  0
   56.9210   27.0510   45.5820 N   0  0  0  0  0  0  0  0  0  0  0  0
   57.2630   28.3840   45.2280 C   0  0  0  0  0  0  0  0  0  0  0  0
   57.0870   28.8600   43.9520 C   0  0  0  0  0  0  0  0  0  0  0  0
   57.4190   30.1730   43.6010 C   0  0  0  0  0  0  0  0  0  0  0  0
   57.9440   31.0530   44.5470 C   0  0  0  0  0  0  0  0  0  0  0  0
   58.1090   30.5490   45.8160 C   0  0  0  0  0  0  0  0  0  0  0  0
   57.7800   29.2470   46.1630 C   0  0  0  0  0  0  0  0  0  0  0  0
   58.6300   31.3860   46.7800 C   0  0  0  0  0  0  0  0  0  0  0  0
   58.8460   30.9660   48.1320 N   0  0  0  0  0  0  0  0  0  0  0  0
   60.0030   30.1890   48.4170 C   0  0  0  0  0  0  0  0  0  0  0  0
   61.2030   30.4710   47.5800 C   0  0  0  0  0  0  0  0  0  0  0  0
   62.0880   31.4700   48.0210 N   0  0  0  0  0  0  0  0  0  0  0  0
   61.9070   32.0400   49.2960 C   0  0  0  0  0  0  0  0  0  0  0  0
   63.0460   32.0020   47.1460 C   0  0  0  0  0  0  0  0  0  0  0  0
   63.1740   33.4980   47.3420 C   0  0  0  0  0  0  0  0  0  0  0  0
   58.9720   32.6870   46.4630 C   0  0  0  0  0  0  0  0  0  0  0  0
   59.4970   33.5050   47.4400 C   0  0  0  0  0  0  0  0  0  0  0  0
   59.8510   34.8080   47.1390 C   0  0  0  0  0  0  0  0  0  0  0  0
   59.6470   35.2170   45.8400 C   0  0  0  0  0  0  0  0  0  0  0  0
   59.1210   34.4010   44.8590 C   0  0  0  0  0  0  0  0  0  0  0  0
   58.7690   33.1050   45.1570 C   0  0  0  0  0  0  0  0  0  0  0  0
   58.2640   32.3140   44.2010 N   0  0  0  0  0  0  0  0  0  0  0  0
   58.0290   32.7150   42.8380 C   0  0  0  0  0  0  0  0  0  0  0  0
   59.2821   26.0556   47.7080 H   0  0  0  0  0  0  0  0  0  0  0  0
   59.0417   25.1863   46.1546 H   0  0  0  0  0  0  0  0  0  0  0  0
   59.3585   26.9544   46.1546 H   0  0  0  0  0  0  0  0  0  0  0  0
   56.8691   25.4363   46.8903 H   0  0  0  0  0  0  0  0  0  0  0  0
   57.2097   27.0507   47.6332 H   0  0  0  0  0  0  0  0  0  0  0  0
   56.2750   26.5170   44.9260 H   0  0  0  0  0  0  0  0  0  0  0  0
   56.6732   28.1899   43.1840 H   0  0  0  0  0  0  0  0  0  0  0  0
   57.2642   30.5151   42.5671 H   0  0  0  0  0  0  0  0  0  0  0  0
   57.9345   28.9026   47.1962 H   0  0  0  0  0  0  0  0  0  0  0  0
   58.1200   31.2710   48.8140 H   0  0  0  0  0  0  0  0  0  0  0  0
   60.2766   30.3660   49.4676 H   0  0  0  0  0  0  0  0  0  0  0  0
   59.7236   29.1489   48.1930 H   0  0  0  0  0  0  0  0  0  0  0  0
   61.7763   29.5354   47.5022 H   0  0  0  0  0  0  0  0  0  0  0  0
   60.7968   30.8579   46.6338 H   0  0  0  0  0  0  0  0  0  0  0  0
   62.1440   31.2935   50.0684 H   0  0  0  0  0  0  0  0  0  0  0  0
   62.5738   32.9077   49.4078 H   0  0  0  0  0  0  0  0  0  0  0  0
   60.8618   32.3640   49.4078 H   0  0  0  0  0  0  0  0  0  0  0  0
   64.0185   31.5271   47.3426 H   0  0  0  0  0  0  0  0  0  0  0  0
   62.7291   31.8057   46.1111 H   0  0  0  0  0  0  0  0  0  0  0  0
   63.1936   33.7265   48.4178 H   0  0  0  0  0  0  0  0  0  0  0  0
   64.1056   33.8506   46.8753 H   0  0  0  0  0  0  0  0  0  0  0  0
   62.3158   34.0037   46.8753 H   0  0  0  0  0  0  0  0  0  0  0  0
   59.6349   33.1209   48.4615 H   0  0  0  0  0  0  0  0  0  0  0  0
   60.2736   35.4826   47.8981 H   0  0  0  0  0  0  0  0  0  0  0  0
   59.9175   36.2485   45.5700 H   0  0  0  0  0  0  0  0  0  0  0  0
   58.9832   34.7872   43.8383 H   0  0  0  0  0  0  0  0  0  0  0  0
   57.4729   33.6640   42.8257 H   0  0  0  0  0  0  0  0  0  0  0  0
   58.9922   32.8478   42.3236 H   0  0  0  0  0  0  0  0  0  0  0  0
   57.4424   31.9396   42.3236 H   0  0  0  0  0  0  0  0  0  0  0  0
  1  2  1  0
  2  3  1  0
  3  4  1  0
  4  5  2  0
  5  6  1  0
  6  7  2  0
  7  8  1  0
  8  9  2  0
  8 10  1  0
 10 11  1  0
 11 12  1  0
 12 13  1  0
 13 14  1  0
 14 15  1  0
 14 16  1  0
 16 17  1  0
 10 18  2  0
 18 19  1  0
 19 20  2  0
 20 21  1  0
 21 22  2  0
 22 23  1  0
 23 24  2  0
 24 25  1  0
  9  4  1  0
 23 18  1  0
 24  7  1  0
  1 26  1  0
  1 27  1  0
  1 28  1  0
  2 29  1  0
  2 30  1  0
  3 31  1  0
  5 32  1  0
  6 33  1  0
  9 34  1  0
 11 35  1  0
 12 36  1  0
 12 37  1  0
 13 38  1  0
 13 39  1  0
 15 40  1  0
 15 41  1  0
 15 42  1  0
 16 43  1  0
 16 44  1  0
 17 45  1  0
 17 46  1  0
 17 47  1  0
 19 48  1  0
 20 49  1  0
 21 50  1  0
 22 51  1  0
 25 52  1  0
 25 53  1  0
 25 54  1  0
M  CHG  1  24   1
M  END
>  <smiles>  (23) 
CCNc1ccc2c(c1)c(NCCN(C)CC)c1ccccc1[n+]2C

>  <score_type>  (23) 
oracle

>  <origin>  (23) 
adg

>  <m_score__min__energy>  (23) 
-5.8200000000000003

>  <m_primary>  (23) 
energy

$$$$
24:0
     RDKit          3D

 57 60  0  0  1  0  0  0  0  0999 V2000
   59.0780   21.8720   44.4540 C   0  0  0  0  0  0  0  0  0  0  0  0
   57.6980   21.2560   44.4850 C   0  0  0  0  0  0  0  0  0  0  0  0
   57.0230   21.1740   43.1730 C   0  0  0  0  0  0  0  0  0  0  0  0
   56.2620   22.2110   42.6590 N   0  0  0  0  0  0  0  0  0  0  0  0
   55.9350   23.3750   43.3490 C   0  0  0  0  0  0  0  0  0  0  0  0
   56.9440   24.4500   43.2030 C   0  0  0  0  0  0  0  0  0  0  0  0
   57.6900   24.7500   44.5130 C   0  0  0  0  0  0  0  0  0  0  0  0
   56.7630   25.2470   45.5810 C   0  0  0  0  0  0  0  0  0  0  0  0
   56.8760   26.6730   45.8230 N   0  0  0  0  0  0  0  0  0  0  0  0
   57.3960   26.8690   47.1240 C   0  0  0  0  0  0  0  0  0  0  0  0
   58.7600   27.5660   46.9630 C   0  0  0  0  0  0  0  0  0  0  0  0
   58.3990   28.8860   46.3730 C   0  0  1  0  0  0  0  0  0  0  0  0
   59.5240   29.8850   46.2960 C   0  0  0  0  0  0  0  0  0  0  0  0
   58.8610   31.1390   45.7840 C   0  0  0  0  0  0  0  0  0  0  0  0
   57.7120   31.0690   45.0160 C   0  0  0  0  0  0  0  0  0  0  0  0
   57.3670   32.3540   44.7180 N   0  0  0  0  0  0  0  0  0  0  0  0
   58.2780   33.1960   45.2870 C   0  0  0  0  0  0  0  0  0  0  0  0
   58.4090   34.5680   45.3070 C   0  0  0  0  0  0  0  0  0  0  0  0
   59.4430   35.2100   45.9680 C   0  0  0  0  0  0  0  0  0  0  0  0
   60.3880   34.4740   46.6400 C   0  0  0  0  0  0  0  0  0  0  0  0
   60.2510   33.1010   46.6160 C   0  0  0  0  0  0  0  0  0  0  0  0
   59.2230   32.4520   45.9580 C   0  0  0  0  0  0  0  0  0  0  0  0
   57.0590   29.7900   44.6490 C   0  0  0  0  0  0  0  0  0  0  0  0
   57.9180   28.7010   45.0350 N   0  0  0  0  0  0  0  0  0  0  0  0
   57.4060   27.4080   44.7490 C   0  0  0  0  0  0  0  0  0  0  0  0
   59.4322   22.0301   45.4834 H   0  0  0  0  0  0  0  0  0  0  0  0
   59.7691   21.1969   43.9280 H   0  0  0  0  0  0  0  0  0  0  0  0
   59.0369   22.8372   43.9280 H   0  0  0  0  0  0  0  0  0  0  0  0
   57.7881   20.2361   44.8871 H   0  0  0  0  0  0  0  0  0  0  0  0
   57.0792   21.9174   45.1092 H   0  0  0  0  0  0  0  0  0  0  0  0
   57.8149   20.9816   42.4341 H   0  0  0  0  0  0  0  0  0  0  0  0
   56.2579   20.4066   43.3619 H   0  0  0  0  0  0  0  0  0  0  0  0
   56.2920   22.3450   41.6190 H   0  0  0  0  0  0  0  0  0  0  0  0
   54.9722   23.7468   42.9686 H   0  0  0  0  0  0  0  0  0  0  0  0
   55.8888   23.1166   44.4172 H   0  0  0  0  0  0  0  0  0  0  0  0
   57.6778   24.1422   42.4435 H   0  0  0  0  0  0  0  0  0  0  0  0
   56.4110   25.3661   42.9086 H   0  0  0  0  0  0  0  0  0  0  0  0
   58.1765   23.8282   44.8647 H   0  0  0  0  0  0  0  0  0  0  0  0
   58.4318   25.5368   44.3112 H   0  0  0  0  0  0  0  0  0  0  0  0
   55.7294   25.0257   45.2765 H   0  0  0  0  0  0  0  0  0  0  0  0
   57.0393   24.7358   46.5150 H   0  0  0  0  0  0  0  0  0  0  0  0
   56.7151   27.5023   47.7116 H   0  0  0  0  0  0  0  0  0  0  0  0
   57.5048   25.9102   47.6520 H   0  0  0  0  0  0  0  0  0  0  0  0
   59.2565   27.6914   47.9365 H   0  0  0  0  0  0  0  0  0  0  0  0
   59.4665   26.9946   46.3430 H   0  0  0  0  0  0  0  0  0  0  0  0
   57.6399   29.2944   47.0564 H   0  0  0  0  0  0  0  0  0  0  0  0
   59.9663   30.0536   47.2889 H   0  0  0  0  0  0  0  0  0  0  0  0
   60.3481   29.5470   45.6506 H   0  0  0  0  0  0  0  0  0  0  0  0
   56.5330   32.6160   44.1450 H   0  0  0  0  0  0  0  0  0  0  0  0
   57.6624   35.1774   44.7767 H   0  0  0  0  0  0  0  0  0  0  0  0
   59.5073   36.3080   45.9548 H   0  0  0  0  0  0  0  0  0  0  0  0
   61.2186   34.9582   47.1745 H   0  0  0  0  0  0  0  0  0  0  0  0
   60.9975   32.4923   47.1473 H   0  0  0  0  0  0  0  0  0  0  0  0
   56.0954   29.7037   45.1724 H   0  0  0  0  0  0  0  0  0  0  0  0
   56.8826   29.7593   43.5637 H   0  0  0  0  0  0  0  0  0  0  0  0
   56.6062   27.5268   44.0032 H   0  0  0  0  0  0  0  0  0  0  0  0
   58.2773   26.8273   44.4119 H   0  0  0  0  0  0  0  0  0  0  0  0
  1  2  1  0
  2  3  1  0
  3  4  1  0
  4  5  1  0
  5  6  1  0
  6  7  1  0
  7  8  1  0
  8  9  1  0
  9 10  1  0
 10 11  1  0
 11 12  1  0
 12 13  1  0
 13 14  1  0
 14 15  2  0
 15 16  1  0
 16 17  1  0
 17 18  2  0
 18 19  1  0
 19 20  2  0
 20 21  1  0
 21 22  2  0
 15 23  1  0
 23 24  1  0
 24 25  1  0
 25  9  1  0
 24 12  1  0
 22 14  1  0
 22 17  1  0
  1 26  1  0
  1 27  1  0
  1 28  1  0
  2 29  1  0
  2 30  1  0
  3 31  1  0
  3 32  1  0
  4 33  1  0
  5 34  1  0
  5 35  1  0
  6 36  1  0
  6 37  1  0
  7 38  1  0
  7 39  1  0
  8 40  1  0
  8 41  1  0
 10 42  1  0
 10 43  1  0
 11 44  1  0
 11 45  1  0
 12 46  1  1
 13 47  1  0
 13 48  1  0
 16 49  1  0
 18 50  1  0
 19 51  1  0
 20 52  1  0
 21 53  1  0
 23 54  1  0
 23 55  1  0
 25 56  1  0
 25 57  1  0
M  END
>  <smiles>  (24) 
CCCNCCCCN1CCC2Cc3c([nH]c4ccccc34)CN2C1

>  <score_type>  (24) 
oracle

>  <origin>  (24) 
adg

>  <m_score__min__energy>  (24) 
-8.8599999999999994

>  <m_primary>  (24) 
energy

$$$$
25:0
     RDKit          3D

 75 78  0  0  0  0  0  0  0  0999 V2000
   60.8100   29.9310   50.0400 C   0  0  0  0  0  0  0  0  0  0  0  0
   59.3980   29.9030   49.8070 N   0  0  0  0  0  0  0  0  0  0  0  0
   58.8000   31.1980   49.9170 C   0  0  0  0  0  0  0  0  0  0  0  0
   59.0050   29.1830   48.6070 C   0  0  0  0  0  0  0  0  0  0  0  0
   60.1960   28.7540   47.7960 C   0  0  0  0  0  0  0  0  0  0  0  0
   60.4660   29.5380   46.6360 N   0  0  0  0  0  0  0  0  0  0  0  0
   59.7130   30.6600   46.2200 C   0  0  0  0  0  0  0  0  0  0  0  0
   58.6690   30.4120   45.3300 C   0  0  0  0  0  0  0  0  0  0  0  0
   58.4170   29.1100   44.9040 C   0  0  0  0  0  0  0  0  0  0  0  0
   57.3920   28.8280   44.0240 C   0  0  0  0  0  0  0  0  0  0  0  0
   56.6360   29.8950   43.5920 C   0  0  0  0  0  0  0  0  0  0  0  0
   56.8580   31.1980   43.9940 C   0  0  0  0  0  0  0  0  0  0  0  0
   57.8800   31.4720   44.8700 C   0  0  0  0  0  0  0  0  0  0  0  0
   58.1000   32.7320   45.2650 N   0  0  0  0  0  0  0  0  0  0  0  0
   57.3360   33.8790   44.8460 C   0  0  0  0  0  0  0  0  0  0  0  0
   59.1180   32.9660   46.1320 C   0  0  0  0  0  0  0  0  0  0  0  0
   59.3800   34.2490   46.5770 C   0  0  0  0  0  0  0  0  0  0  0  0
   60.3950   34.5460   47.4660 C   0  0  0  0  0  0  0  0  0  0  0  0
   61.1800   33.5130   47.9280 C   0  0  0  0  0  0  0  0  0  0  0  0
   62.1920   33.8420   48.8210 O   0  0  0  0  0  0  0  0  0  0  0  0
   63.4760   33.3140   48.8120 C   0  0  0  0  0  0  0  0  0  0  0  0
   63.7460   32.1930   49.7450 C   0  0  0  0  0  0  0  0  0  0  0  0
   64.9370   32.2530   50.5160 N   0  0  0  0  0  0  0  0  0  0  0  0
   65.2460   31.0290   51.2260 C   0  0  0  0  0  0  0  0  0  0  0  0
   64.6910   33.2490   51.5740 C   0  0  0  0  0  0  0  0  0  0  0  0
   65.8590   33.1860   52.5030 C   0  0  0  0  0  0  0  0  0  0  0  0
   67.1040   33.5400   51.8610 N   0  0  0  0  0  0  0  0  0  0  0  0
   67.2090   35.0060   51.8510 C   0  0  0  0  0  0  0  0  0  0  0  0
   68.1760   33.0850   52.7380 C   0  0  0  0  0  0  0  0  0  0  0  0
   67.2900   32.9580   50.5830 C   0  0  0  0  0  0  0  0  0  0  0  0
   66.0550   32.7130   49.7660 C   0  0  0  0  0  0  0  0  0  0  0  0
   60.9400   32.2300   47.5010 C   0  0  0  0  0  0  0  0  0  0  0  0
   59.9250   31.9550   46.6150 C   0  0  0  0  0  0  0  0  0  0  0  0
   61.0029   29.9348   51.1229 H   0  0  0  0  0  0  0  0  0  0  0  0
   61.2739   29.0419   49.5881 H   0  0  0  0  0  0  0  0  0  0  0  0
   61.2383   30.8378   49.5881 H   0  0  0  0  0  0  0  0  0  0  0  0
   58.6802   31.4575   50.9792 H   0  0  0  0  0  0  0  0  0  0  0  0
   59.4454   31.9426   49.4282 H   0  0  0  0  0  0  0  0  0  0  0  0
   57.8146   31.1896   49.4282 H   0  0  0  0  0  0  0  0  0  0  0  0
   58.4332   28.2899   48.8992 H   0  0  0  0  0  0  0  0  0  0  0  0
   58.3961   29.8583   47.9880 H   0  0  0  0  0  0  0  0  0  0  0  0
   61.0817   28.7964   48.4469 H   0  0  0  0  0  0  0  0  0  0  0  0
   59.9620   27.7438   47.4288 H   0  0  0  0  0  0  0  0  0  0  0  0
   61.2920   29.2950   46.0050 H   0  0  0  0  0  0  0  0  0  0  0  0
   59.0480   28.2897   45.2767 H   0  0  0  0  0  0  0  0  0  0  0  0
   57.1889   27.8016   43.6844 H   0  0  0  0  0  0  0  0  0  0  0  0
   55.8121   29.6995   42.8899 H   0  0  0  0  0  0  0  0  0  0  0  0
   56.2207   32.0106   43.6151 H   0  0  0  0  0  0  0  0  0  0  0  0
   56.9743   34.4220   45.7316 H   0  0  0  0  0  0  0  0  0  0  0  0
   57.9726   34.5433   44.2432 H   0  0  0  0  0  0  0  0  0  0  0  0
   56.4776   33.5475   44.2432 H   0  0  0  0  0  0  0  0  0  0  0  0
   58.7508   35.0714   46.2058 H   0  0  0  0  0  0  0  0  0  0  0  0
   60.5715   35.5803   47.7961 H   0  0  0  0  0  0  0  0  0  0  0  0
   63.6807   32.9549   47.7926 H   0  0  0  0  0  0  0  0  0  0  0  0
   64.1260   34.1337   49.1520 H   0  0  0  0  0  0  0  0  0  0  0  0
   62.9013   32.1385   50.4475 H   0  0  0  0  0  0  0  0  0  0  0  0
   63.8766   31.3143   49.0963 H   0  0  0  0  0  0  0  0  0  0  0  0
   65.1998   31.2121   52.3097 H   0  0  0  0  0  0  0  0  0  0  0  0
   64.5156   30.2528   50.9538 H   0  0  0  0  0  0  0  0  0  0  0  0
   66.2573   30.6925   50.9538 H   0  0  0  0  0  0  0  0  0  0  0  0
   64.6087   34.2547   51.1361 H   0  0  0  0  0  0  0  0  0  0  0  0
   63.7512   33.0379   52.1052 H   0  0  0  0  0  0  0  0  0  0  0  0
   65.6831   33.8817   53.3367 H   0  0  0  0  0  0  0  0  0  0  0  0
   65.9496   32.1466   52.8515 H   0  0  0  0  0  0  0  0  0  0  0  0
   67.2357   35.3788   52.8856 H   0  0  0  0  0  0  0  0  0  0  0  0
   68.1308   35.3040   51.3300 H   0  0  0  0  0  0  0  0  0  0  0  0
   66.3391   35.4324   51.3300 H   0  0  0  0  0  0  0  0  0  0  0  0
   67.8713   33.2143   53.7870 H   0  0  0  0  0  0  0  0  0  0  0  0
   68.3819   32.0219   52.5443 H   0  0  0  0  0  0  0  0  0  0  0  0
   69.0837   33.6754   52.5443 H   0  0  0  0  0  0  0  0  0  0  0  0
   67.9446   33.6266   50.0047 H   0  0  0  0  0  0  0  0  0  0  0  0
   67.7089   31.9599   50.7789 H   0  0  0  0  0  0  0  0  0  0  0  0
   65.7750   33.6562   49.2741 H   0  0  0  0  0  0  0  0  0  0  0  0
   66.3041   31.9147   49.0513 H   0  0  0  0  0  0  0  0  0  0  0  0
   61.5700   31.4089   47.8738 H   0  0  0  0  0  0  0  0  0  0  0  0
  1  2  1  0
  2  3  1  0
  2  4  1  0
  4  5  1  0
  5  6  1  0
  6  7  1  0
  7  8  2  0
  8  9  1  0
  9 10  2  0
 10 11  1  0
 11 12  2  0
 12 13  1  0
 13 14  2  0
 14 15  1  0
 14 16  1  0
 16 17  2  0
 17 18  1  0
 18 19  2  0
 19 20  1  0
 20 21  1  0
 21 22  1  0
 22 23  1  0
 23 24  1  0
 23 25  1  0
 25 26  1  0
 26 27  1  0
 27 28  1  0
 27 29  1  0
 27 30  1  0
 30 31  1  0
 19 32  1  0
 32 33  2  0
 33  7  1  0
 13  8  1  0
 33 16  1  0
 31 23  1  0
  1 34  1  0
  1 35  1  0
  1 36  1  0
  3 37  1  0
  3 38  1  0
  3 39  1  0
  4 40  1  0
  4 41  1  0
  5 42  1  0
  5 43  1  0
  6 44  1  0
  9 45  1  0
 10 46  1  0
 11 47  1  0
 12 48  1  0
 15 49  1  0
 15 50  1  0
 15 51  1  0
 17 52  1  0
 18 53  1  0
 21 54  1  0
 21 55  1  0
 22 56  1  0
 22 57  1  0
 24 58  1  0
 24 59  1  0
 24 60  1  0
 25 61  1  0
 25 62  1  0
 26 63  1  0
 26 64  1  0
 28 65  1  0
 28 66  1  0
 28 67  1  0
 29 68  1  0
 29 69  1  0
 29 70  1  0
 30 71  1  0
 30 72  1  0
 31 73  1  0
 31 74  1  0
 32 75  1  0
M  CHG  3  14   1  23   1  27   1
M  END
>  <smiles>  (25) 
CN(C)CCNc1c2ccccc2[n+](C)c2ccc(OCC[N+]3(C)CC[N+](C)(C)CC3)cc12

>  <score_type>  (25) 
oracle

>  <origin>  (25) 
adg

>  <m_score__min__energy>  (25) 
-3.9199999999999999

>  <m_primary>  (25) 
energy

$$$$
26:0
     RDKit          3D

 66 70  0  0  1  0  0  0  0  0999 V2000
   64.5280   31.9450   49.9910 C   0  0  0  0  0  0  0  0  0  0  0  0
   64.7020   33.1210   49.1260 C   0  0  0  0  0  0  0  0  0  0  0  0
   63.8810   33.4190   48.1550 C   0  0  0  0  0  0  0  0  0  0  0  0
   62.5080   32.9460   48.0460 C   0  0  0  0  0  0  0  0  0  0  0  0
   61.4820   33.6440   48.5050 C   0  0  0  0  0  0  0  0  0  0  0  0
   60.1930   32.9550   48.2750 C   0  0  1  0  0  0  0  0  0  0  0  0
   59.6630   33.4730   46.9610 C   0  0  0  0  0  0  0  0  0  0  0  0
   59.8450   34.8090   46.7360 C   0  0  0  0  0  0  0  0  0  0  0  0
   59.3370   35.3320   45.5730 C   0  0  0  0  0  0  0  0  0  0  0  0
   58.6820   34.5490   44.6750 C   0  0  0  0  0  0  0  0  0  0  0  0
   58.5190   33.1690   44.9460 C   0  0  0  0  0  0  0  0  0  0  0  0
   59.0100   32.6110   46.1060 C   0  0  0  0  0  0  0  0  0  0  0  0
   58.9850   31.1730   46.2730 C   0  0  0  0  0  0  0  0  0  0  0  0
   59.7120   30.6670   47.3580 C   0  0  0  0  0  0  0  0  0  0  0  0
   59.7200   29.3140   47.6580 C   0  0  0  0  0  0  0  0  0  0  0  0
   60.4370   28.8330   48.7910 N   0  0  0  0  0  0  0  0  0  0  0  0
   59.8590   28.6070   50.0890 C   0  0  0  0  0  0  0  0  0  0  0  0
   59.5840   29.8120   50.9210 C   0  0  0  0  0  0  0  0  0  0  0  0
   58.1810   30.2140   50.8600 N   0  0  0  0  0  0  0  0  0  0  0  0
   57.5270   29.9070   52.1010 C   0  0  0  0  0  0  0  0  0  0  0  0
   57.9930   31.5840   50.4880 C   0  0  0  0  0  0  0  0  0  0  0  0
   58.8620   32.4390   51.4150 C   0  0  0  0  0  0  0  0  0  0  0  0
   58.9790   28.5100   46.8210 C   0  0  0  0  0  0  0  0  0  0  0  0
   58.9680   27.1510   47.0070 C   0  0  0  0  0  0  0  0  0  0  0  0
   58.2960   26.2550   46.2070 C   0  0  0  0  0  0  0  0  0  0  0  0
   57.5860   26.7610   45.1480 C   0  0  0  0  0  0  0  0  0  0  0  0
   57.5820   28.1330   44.9360 C   0  0  0  0  0  0  0  0  0  0  0  0
   58.2580   29.0230   45.7440 C   0  0  0  0  0  0  0  0  0  0  0  0
   58.2610   30.3670   45.4790 N   0  0  0  0  0  0  0  0  0  0  0  0
   57.3150   30.8180   44.4970 C   0  0  0  0  0  0  0  0  0  0  0  0
   60.5850   31.5310   48.1910 C   0  0  1  0  0  0  0  0  0  0  0  0
   61.9570   31.6980   47.4740 C   0  0  0  0  0  0  0  0  0  0  0  0
   64.5739   32.2553   51.0453 H   0  0  0  0  0  0  0  0  0  0  0  0
   63.5515   31.4814   49.7874 H   0  0  0  0  0  0  0  0  0  0  0  0
   65.3284   31.2184   49.7874 H   0  0  0  0  0  0  0  0  0  0  0  0
   65.5639   33.7807   49.3050 H   0  0  0  0  0  0  0  0  0  0  0  0
   64.2555   34.0782   47.3580 H   0  0  0  0  0  0  0  0  0  0  0  0
   61.5763   34.6220   48.9997 H   0  0  0  0  0  0  0  0  0  0  0  0
   59.4165   33.1069   49.0392 H   0  0  0  0  0  0  0  0  0  0  0  0
   60.3789   35.4417   47.4603 H   0  0  0  0  0  0  0  0  0  0  0  0
   59.4622   36.4046   45.3636 H   0  0  0  0  0  0  0  0  0  0  0  0
   58.2825   34.9836   43.7468 H   0  0  0  0  0  0  0  0  0  0  0  0
   57.9924   32.5327   44.2194 H   0  0  0  0  0  0  0  0  0  0  0  0
   61.4710   28.6450   48.6000 H   0  0  0  0  0  0  0  0  0  0  0  0
   58.9049   28.0798   49.9412 H   0  0  0  0  0  0  0  0  0  0  0  0
   60.6179   28.0390   50.6471 H   0  0  0  0  0  0  0  0  0  0  0  0
   59.8435   29.5880   51.9662 H   0  0  0  0  0  0  0  0  0  0  0  0
   60.1910   30.6407   50.5275 H   0  0  0  0  0  0  0  0  0  0  0  0
   58.1713   30.2095   52.9397 H   0  0  0  0  0  0  0  0  0  0  0  0
   56.5727   30.4512   52.1570 H   0  0  0  0  0  0  0  0  0  0  0  0
   57.3360   28.8252   52.1570 H   0  0  0  0  0  0  0  0  0  0  0  0
   58.2996   31.7342   49.4423 H   0  0  0  0  0  0  0  0  0  0  0  0
   56.9342   31.8677   50.5807 H   0  0  0  0  0  0  0  0  0  0  0  0
   58.6226   32.2034   52.4625 H   0  0  0  0  0  0  0  0  0  0  0  0
   59.9237   32.2236   51.2242 H   0  0  0  0  0  0  0  0  0  0  0  0
   58.6639   33.5041   51.2242 H   0  0  0  0  0  0  0  0  0  0  0  0
   59.5377   26.7480   47.8573 H   0  0  0  0  0  0  0  0  0  0  0  0
   58.3271   25.1742   46.4092 H   0  0  0  0  0  0  0  0  0  0  0  0
   57.0287   26.0904   44.4774 H   0  0  0  0  0  0  0  0  0  0  0  0
   57.0123   28.5293   44.0825 H   0  0  0  0  0  0  0  0  0  0  0  0
   56.4334   31.2383   45.0031 H   0  0  0  0  0  0  0  0  0  0  0  0
   57.7800   31.5913   43.8679 H   0  0  0  0  0  0  0  0  0  0  0  0
   57.0070   29.9698   43.8679 H   0  0  0  0  0  0  0  0  0  0  0  0
   60.5566   31.0350   49.1724 H   0  0  0  0  0  0  0  0  0  0  0  0
   62.6170   30.8445   47.6883 H   0  0  0  0  0  0  0  0  0  0  0  0
   61.8610   31.7395   46.3790 H   0  0  0  0  0  0  0  0  0  0  0  0
  1  2  1  0
  2  3  2  0
  3  4  1  0
  4  5  2  0
  5  6  1  0
  6  7  1  0
  7  8  2  0
  8  9  1  0
  9 10  2  0
 10 11  1  0
 11 12  2  0
 12 13  1  0
 13 14  2  0
 14 15  1  0
 15 16  1  0
 16 17  1  0
 17 18  1  0
 18 19  1  0
 19 20  1  0
 19 21  1  0
 21 22  1  0
 15 23  2  0
 23 24  1  0
 24 25  2  0
 25 26  1  0
 26 27  2  0
 27 28  1  0
 28 29  2  0
 29 30  1  0
 14 31  1  0
 31 32  1  0
 32  4  1  0
 31  6  1  0
 12  7  1  0
 29 13  1  0
 28 23  1  0
  1 33  1  0
  1 34  1  0
  1 35  1  0
  2 36  1  0
  3 37  1  0
  5 38  1  0
  6 39  1  1
  8 40  1  0
  9 41  1  0
 10 42  1  0
 11 43  1  0
 16 44  1  0
 17 45  1  0
 17 46  1  0
 18 47  1  0
 18 48  1  0
 20 49  1  0
 20 50  1  0
 20 51  1  0
 21 52  1  0
 21 53  1  0
 22 54  1  0
 22 55  1  0
 22 56  1  0
 24 57  1  0
 25 58  1  0
 26 59  1  0
 27 60  1  0
 30 61  1  0
 30 62  1  0
 30 63  1  0
 31 64  1  1
 32 65  1  0
 32 66  1  0
M  CHG  1  29   1
M  END
>  <smiles>  (26) 
CC=CC1=CC2c3ccccc3-c3c(c(NCCN(C)CC)c4ccccc4[n+]3C)C2C1

>  <score_type>  (26) 
oracle

>  <origin>  (26) 
adg

>  <m_score__min__energy>  (26) 
-7.9699999999999998

>  <m_primary>  (26) 
energy

$$$$
27:0
     RDKit          3D

 69 72  0  0  0  0  0  0  0  0999 V2000
   57.2520   21.6290   43.3630 C   0  0  0  0  0  0  0  0  0  0  0  0
   56.3170   22.7150   42.8670 C   0  0  0  0  0  0  0  0  0  0  0  0
   56.2790   23.8350   43.8020 N   0  0  0  0  0  0  0  0  0  0  0  0
   55.0040   23.8680   44.4930 C   0  0  0  0  0  0  0  0  0  0  0  0
   57.3810   23.6460   44.7300 C   0  0  0  0  0  0  0  0  0  0  0  0
   58.1480   24.8980   44.9790 C   0  0  0  0  0  0  0  0  0  0  0  0
   57.5550   26.0390   44.3300 N   0  0  0  0  0  0  0  0  0  0  0  0
   57.7380   27.3840   44.6530 C   0  0  0  0  0  0  0  0  0  0  0  0
   58.1910   27.7260   45.9190 C   0  0  0  0  0  0  0  0  0  0  0  0
   58.3770   29.0270   46.3250 C   0  0  0  0  0  0  0  0  0  0  0  0
   58.1080   30.0550   45.4540 C   0  0  0  0  0  0  0  0  0  0  0  0
   58.2170   31.4090   45.6360 C   0  0  0  0  0  0  0  0  0  0  0  0
   58.6010   32.2120   46.6700 C   0  0  0  0  0  0  0  0  0  0  0  0
   58.6220   33.5430   46.6110 N   0  0  0  0  0  0  0  0  0  0  0  0
   59.0280   34.3400   47.7390 C   0  0  0  0  0  0  0  0  0  0  0  0
   60.3960   34.9400   47.6250 C   0  0  0  0  0  0  0  0  0  0  0  0
   61.3690   33.9960   48.0270 N   0  0  0  0  0  0  0  0  0  0  0  0
   62.3670   33.6560   47.0880 C   0  0  0  0  0  0  0  0  0  0  0  0
   63.3850   32.6680   47.5740 C   0  0  0  0  0  0  0  0  0  0  0  0
   63.9200   33.0420   48.9490 C   0  0  0  0  0  0  0  0  0  0  0  0
   64.8940   32.1290   49.2880 O   0  0  0  0  0  0  0  0  0  0  0  0
   65.8940   32.7050   50.0990 C   0  0  0  0  0  0  0  0  0  0  0  0
   62.7050   32.9940   49.8500 C   0  0  0  0  0  0  0  0  0  0  0  0
   61.7250   34.0040   49.3950 C   0  0  0  0  0  0  0  0  0  0  0  0
   58.2350   34.1100   45.4420 C   0  0  0  0  0  0  0  0  0  0  0  0
   57.8350   33.3430   44.3550 C   0  0  0  0  0  0  0  0  0  0  0  0
   57.8130   31.9650   44.4180 C   0  0  0  0  0  0  0  0  0  0  0  0
   57.4880   30.9610   43.5810 N   0  0  0  0  0  0  0  0  0  0  0  0
   57.0210   31.1570   42.2200 C   0  0  0  0  0  0  0  0  0  0  0  0
   57.6560   29.7660   44.1820 C   0  0  0  0  0  0  0  0  0  0  0  0
   57.4810   28.4480   43.8080 C   0  0  0  0  0  0  0  0  0  0  0  0
   57.2568   21.6235   44.4630 H   0  0  0  0  0  0  0  0  0  0  0  0
   56.9081   20.6519   42.9929 H   0  0  0  0  0  0  0  0  0  0  0  0
   58.2694   21.8239   42.9929 H   0  0  0  0  0  0  0  0  0  0  0  0
   56.6687   23.0742   41.8886 H   0  0  0  0  0  0  0  0  0  0  0  0
   55.3042   22.2947   42.7799 H   0  0  0  0  0  0  0  0  0  0  0  0
   55.1756   23.8636   45.5795 H   0  0  0  0  0  0  0  0  0  0  0  0
   54.4580   24.7806   44.2117 H   0  0  0  0  0  0  0  0  0  0  0  0
   54.4115   22.9849   44.2117 H   0  0  0  0  0  0  0  0  0  0  0  0
   56.9763   23.2857   45.6873 H   0  0  0  0  0  0  0  0  0  0  0  0
   58.0722   22.9187   44.2791 H   0  0  0  0  0  0  0  0  0  0  0  0
   58.1798   25.0841   46.0627 H   0  0  0  0  0  0  0  0  0  0  0  0
   59.1583   24.7623   44.5656 H   0  0  0  0  0  0  0  0  0  0  0  0
   56.9080   25.8120   43.5150 H   0  0  0  0  0  0  0  0  0  0  0  0
   58.4120   26.9181   46.6321 H   0  0  0  0  0  0  0  0  0  0  0  0
   58.7390   29.2431   47.3410 H   0  0  0  0  0  0  0  0  0  0  0  0
   58.9121   31.7315   47.6093 H   0  0  0  0  0  0  0  0  0  0  0  0
   58.3038   35.1595   47.8573 H   0  0  0  0  0  0  0  0  0  0  0  0
   59.0593   33.6600   48.6031 H   0  0  0  0  0  0  0  0  0  0  0  0
   60.5805   35.2323   46.5807 H   0  0  0  0  0  0  0  0  0  0  0  0
   60.4592   35.8253   48.2748 H   0  0  0  0  0  0  0  0  0  0  0  0
   61.8719   33.2285   46.2036 H   0  0  0  0  0  0  0  0  0  0  0  0
   62.9173   34.5843   46.8749 H   0  0  0  0  0  0  0  0  0  0  0  0
   62.9179   31.6738   47.6315 H   0  0  0  0  0  0  0  0  0  0  0  0
   64.2274   32.6672   46.8666 H   0  0  0  0  0  0  0  0  0  0  0  0
   64.3916   34.0336   49.0143 H   0  0  0  0  0  0  0  0  0  0  0  0
   65.6372   32.5571   51.1583 H   0  0  0  0  0  0  0  0  0  0  0  0
   66.8606   32.2253   49.8856 H   0  0  0  0  0  0  0  0  0  0  0  0
   65.9640   33.7818   49.8856 H   0  0  0  0  0  0  0  0  0  0  0  0
   62.2511   31.9931   49.8033 H   0  0  0  0  0  0  0  0  0  0  0  0
   63.0037   33.2082   50.8868 H   0  0  0  0  0  0  0  0  0  0  0  0
   60.8033   33.8546   49.9765 H   0  0  0  0  0  0  0  0  0  0  0  0
   62.2261   34.9710   49.5492 H   0  0  0  0  0  0  0  0  0  0  0  0
   58.2378   35.2063   45.3518 H   0  0  0  0  0  0  0  0  0  0  0  0
   57.5295   33.8447   43.4249 H   0  0  0  0  0  0  0  0  0  0  0  0
   56.0068   31.5826   42.2381 H   0  0  0  0  0  0  0  0  0  0  0  0
   57.6988   31.8466   41.6955 H   0  0  0  0  0  0  0  0  0  0  0  0
   57.0036   30.1903   41.6955 H   0  0  0  0  0  0  0  0  0  0  0  0
   57.1205   28.2348   42.7908 H   0  0  0  0  0  0  0  0  0  0  0  0
  1  2  1  0
  2  3  1  0
  3  4  1  0
  3  5  1  0
  5  6  1  0
  6  7  1  0
  7  8  1  0
  8  9  2  0
  9 10  1  0
 10 11  2  0
 11 12  1  0
 12 13  2  0
 13 14  1  0
 14 15  1  0
 15 16  1  0
 16 17  1  0
 17 18  1  0
 18 19  1  0
 19 20  1  0
 20 21  1  0
 21 22  1  0
 20 23  1  0
 23 24  1  0
 14 25  2  0
 25 26  1  0
 26 27  2  0
 27 28  1  0
 28 29  1  0
 28 30  1  0
 30 31  2  0
 31  8  1  0
 30 11  1  0
 27 12  1  0
 24 17  1  0
  1 32  1  0
  1 33  1  0
  1 34  1  0
  2 35  1  0
  2 36  1  0
  4 37  1  0
  4 38  1  0
  4 39  1  0
  5 40  1  0
  5 41  1  0
  6 42  1  0
  6 43  1  0
  7 44  1  0
  9 45  1  0
 10 46  1  0
 13 47  1  0
 15 48  1  0
 15 49  1  0
 16 50  1  0
 16 51  1  0
 18 52  1  0
 18 53  1  0
 19 54  1  0
 19 55  1  0
 20 56  1  0
 22 57  1  0
 22 58  1  0
 22 59  1  0
 23 60  1  0
 23 61  1  0
 24 62  1  0
 24 63  1  0
 25 64  1  0
 26 65  1  0
 29 66  1  0
 29 67  1  0
 29 68  1  0
 31 69  1  0
M  CHG  1  14   1
M  END
>  <smiles>  (27) 
CCN(C)CCNc1ccc2c3c[n+](CCN4CCC(OC)CC4)ccc3n(C)c2c1

>  <score_type>  (27) 
oracle

>  <origin>  (27) 
adg

>  <m_score__min__energy>  (27) 
-7.2999999999999998

>  <m_primary>  (27) 
energy

$$$$
28:0
     RDKit          3D

 44 45  0  0  0  0  0  0  0  0999 V2000
   62.8700   33.6700   46.7810 C   0  0  0  0  0  0  0  0  0  0  0  0
   61.4080   33.8550   46.4520 C   0  0  0  0  0  0  0  0  0  0  0  0
   60.6100   32.7880   47.1790 C   0  0  0  0  0  0  0  0  0  0  0  0
   59.3650   32.4370   46.4750 C   0  0  0  0  0  0  0  0  0  0  0  0
   58.5520   33.4820   46.0620 C   0  0  0  0  0  0  0  0  0  0  0  0
   57.3900   33.1540   45.3830 C   0  0  0  0  0  0  0  0  0  0  0  0
   56.6620   34.1260   45.0140 O   0  0  0  0  0  0  0  0  0  0  0  0
   57.0610   31.9080   45.1330 O   0  0  0  0  0  0  0  0  0  0  0  0
   57.7960   30.8950   45.5040 C   0  0  0  0  0  0  0  0  0  0  0  0
   57.4290   29.6030   45.2320 C   0  0  0  0  0  0  0  0  0  0  0  0
   56.1500   29.3940   44.4920 C   0  0  0  0  0  0  0  0  0  0  0  0
   58.2050   28.5000   45.6240 C   0  0  0  0  0  0  0  0  0  0  0  0
   57.7330   27.2820   45.2920 O   0  0  0  0  0  0  0  0  0  0  0  0
   57.9090   26.0180   45.8340 C   0  0  0  0  0  0  0  0  0  0  0  0
   56.6950   25.6070   46.6100 C   0  0  0  0  0  0  0  0  0  0  0  0
   55.4610   26.0330   45.9950 N   0  0  0  0  0  0  0  0  0  0  0  0
   54.5860   24.9840   45.5860 C   0  0  0  0  0  0  0  0  0  0  0  0
   55.1810   23.6180   45.5300 C   0  0  0  0  0  0  0  0  0  0  0  0
   59.3600   28.7980   46.2980 C   0  0  0  0  0  0  0  0  0  0  0  0
   59.7560   30.1070   46.5880 C   0  0  0  0  0  0  0  0  0  0  0  0
   58.9620   31.1560   46.1830 C   0  0  0  0  0  0  0  0  0  0  0  0
   63.0008   33.6534   47.8731 H   0  0  0  0  0  0  0  0  0  0  0  0
   63.2244   32.7198   46.3548 H   0  0  0  0  0  0  0  0  0  0  0  0
   63.4499   34.5019   46.3548 H   0  0  0  0  0  0  0  0  0  0  0  0
   61.0777   34.8520   46.7789 H   0  0  0  0  0  0  0  0  0  0  0  0
   61.2526   33.7667   45.3666 H   0  0  0  0  0  0  0  0  0  0  0  0
   61.2305   31.8843   47.2702 H   0  0  0  0  0  0  0  0  0  0  0  0
   60.3343   33.1905   48.1649 H   0  0  0  0  0  0  0  0  0  0  0  0
   58.8193   34.5295   46.2655 H   0  0  0  0  0  0  0  0  0  0  0  0
   55.3282   29.2597   45.2108 H   0  0  0  0  0  0  0  0  0  0  0  0
   55.9447   30.2705   43.8599 H   0  0  0  0  0  0  0  0  0  0  0  0
   56.2344   28.4977   43.8599 H   0  0  0  0  0  0  0  0  0  0  0  0
   58.0811   25.2964   45.0218 H   0  0  0  0  0  0  0  0  0  0  0  0
   58.7749   26.0387   46.5121 H   0  0  0  0  0  0  0  0  0  0  0  0
   56.6857   24.5100   46.6910 H   0  0  0  0  0  0  0  0  0  0  0  0
   56.7554   26.0914   47.5958 H   0  0  0  0  0  0  0  0  0  0  0  0
   55.5860   26.7150   45.2430 H   0  0  0  0  0  0  0  0  0  0  0  0
   53.7432   24.9548   46.2923 H   0  0  0  0  0  0  0  0  0  0  0  0
   54.2999   25.2243   44.5514 H   0  0  0  0  0  0  0  0  0  0  0  0
   55.3429   23.2464   46.5526 H   0  0  0  0  0  0  0  0  0  0  0  0
   54.4961   22.9413   44.9980 H   0  0  0  0  0  0  0  0  0  0  0  0
   56.1430   23.6586   44.9980 H   0  0  0  0  0  0  0  0  0  0  0  0
   60.0051   27.9696   46.6259 H   0  0  0  0  0  0  0  0  0  0  0  0
   60.6920   30.2967   47.1339 H   0  0  0  0  0  0  0  0  0  0  0  0
  1  2  1  0
  2  3  1  0
  3  4  1  0
  4  5  2  0
  5  6  1  0
  6  7  2  0
  6  8  1  0
  8  9  1  0
  9 10  2  0
 10 11  1  0
 10 12  1  0
 12 13  1  0
 13 14  1  0
 14 15  1  0
 15 16  1  0
 16 17  1  0
 17 18  1  0
 12 19  2  0
 19 20  1  0
 20 21  2  0
 21  4  1  0
 21  9  1  0
  1 22  1  0
  1 23  1  0
  1 24  1  0
  2 25  1  0
  2 26  1  0
  3 27  1  0
  3 28  1  0
  5 29  1  0
 11 30  1  0
 11 31  1  0
 11 32  1  0
 14 33  1  0
 14 34  1  0
 15 35  1  0
 15 36  1  0
 16 37  1  0
 17 38  1  0
 17 39  1  0
 18 40  1  0
 18 41  1  0
 18 42  1  0
 19 43  1  0
 20 44  1  0
M  END
>  <smiles>  (28) 
CCCc1cc(=O)oc2c(C)c(OCCNCC)ccc12

>  <score_type>  (28) 
oracle

>  <origin>  (28) 
adg

>  <m_score__min__energy>  (28) 
-6.5700000000000003

>  <m_primary>  (28) 
energy

$$$$
29:0
     RDKit          3D

 69 71  0  0  0  0  0  0  0  0999 V2000
   64.6470   32.0200   50.0370 C   0  0  0  0  0  0  0  0  0  0  0  0
   64.4730   33.0890   49.0010 C   0  0  0  0  0  0  0  0  0  0  0  0
   63.2540   32.9800   48.2380 N   0  0  0  0  0  0  0  0  0  0  0  0
   63.4050   33.4580   46.8900 C   0  0  0  0  0  0  0  0  0  0  0  0
   62.2860   33.8710   48.8780 C   0  0  0  0  0  0  0  0  0  0  0  0
   62.7750   31.6200   48.3300 C   0  0  0  0  0  0  0  0  0  0  0  0
   61.9090   31.2460   47.1440 C   0  0  0  0  0  0  0  0  0  0  0  0
   60.4960   31.0970   47.5030 N   0  0  0  0  0  0  0  0  0  0  0  0
   59.5980   30.9360   46.4260 C   0  0  0  0  0  0  0  0  0  0  0  0
   59.0840   32.1330   45.9100 C   0  0  0  0  0  0  0  0  0  0  0  0
   59.4290   33.3380   46.5070 C   0  0  0  0  0  0  0  0  0  0  0  0
   58.9750   34.5610   46.0760 C   0  0  0  0  0  0  0  0  0  0  0  0
   58.1320   34.5730   44.9910 C   0  0  0  0  0  0  0  0  0  0  0  0
   57.7700   33.3730   44.3770 C   0  0  0  0  0  0  0  0  0  0  0  0
   58.2370   32.1610   44.8260 C   0  0  0  0  0  0  0  0  0  0  0  0
   57.8970   30.9980   44.2490 N   0  0  0  0  0  0  0  0  0  0  0  0
   57.0100   30.9420   43.1170 C   0  0  0  0  0  0  0  0  0  0  0  0
   58.3730   29.8320   44.7220 C   0  0  0  0  0  0  0  0  0  0  0  0
   57.9890   28.6750   44.0800 C   0  0  0  0  0  0  0  0  0  0  0  0
   58.4600   27.4670   44.5350 C   0  0  0  0  0  0  0  0  0  0  0  0
   59.3060   27.4350   45.6260 C   0  0  0  0  0  0  0  0  0  0  0  0
   59.7190   28.5700   46.3040 C   0  0  0  0  0  0  0  0  0  0  0  0
   60.5400   28.4120   47.4320 N   0  0  0  0  0  0  0  0  0  0  0  0
   60.6570   27.0760   48.0670 C   0  0  0  0  0  0  0  0  0  0  0  0
   60.4440   27.1390   49.5350 C   0  0  0  0  0  0  0  0  0  0  0  0
   61.1220   28.3440   50.1350 C   0  0  0  0  0  0  0  0  0  0  0  0
   60.3880   29.5540   49.9690 N   0  0  0  0  0  0  0  0  0  0  0  0
   58.9770   29.3850   49.8380 C   0  0  0  0  0  0  0  0  0  0  0  0
   60.7930   30.6450   50.7850 C   0  0  0  0  0  0  0  0  0  0  0  0
   59.2370   29.7680   45.8260 C   0  0  0  0  0  0  0  0  0  0  0  0
   64.5744   32.4660   51.0399 H   0  0  0  0  0  0  0  0  0  0  0  0
   63.8607   31.2604   49.9157 H   0  0  0  0  0  0  0  0  0  0  0  0
   65.6336   31.5490   49.9157 H   0  0  0  0  0  0  0  0  0  0  0  0
   64.4762   34.0650   49.5084 H   0  0  0  0  0  0  0  0  0  0  0  0
   65.3032   32.9765   48.2882 H   0  0  0  0  0  0  0  0  0  0  0  0
   63.7363   34.5068   46.9078 H   0  0  0  0  0  0  0  0  0  0  0  0
   64.1535   32.8459   46.3656 H   0  0  0  0  0  0  0  0  0  0  0  0
   62.4407   33.3870   46.3656 H   0  0  0  0  0  0  0  0  0  0  0  0
   62.3772   33.7871   49.9710 H   0  0  0  0  0  0  0  0  0  0  0  0
   62.4848   34.9087   48.5721 H   0  0  0  0  0  0  0  0  0  0  0  0
   61.2682   33.5871   48.5721 H   0  0  0  0  0  0  0  0  0  0  0  0
   63.6390   30.9402   48.3683 H   0  0  0  0  0  0  0  0  0  0  0  0
   62.1632   31.5342   49.2402 H   0  0  0  0  0  0  0  0  0  0  0  0
   61.9975   32.0333   46.3809 H   0  0  0  0  0  0  0  0  0  0  0  0
   62.2614   30.2745   46.7672 H   0  0  0  0  0  0  0  0  0  0  0  0
   60.1790   31.1470   48.5210 H   0  0  0  0  0  0  0  0  0  0  0  0
   60.1045   33.3121   47.3748 H   0  0  0  0  0  0  0  0  0  0  0  0
   59.2741   35.4924   46.5789 H   0  0  0  0  0  0  0  0  0  0  0  0
   57.7428   35.5274   44.6067 H   0  0  0  0  0  0  0  0  0  0  0  0
   57.0928   33.3980   43.5105 H   0  0  0  0  0  0  0  0  0  0  0  0
   55.9699   30.8763   43.4690 H   0  0  0  0  0  0  0  0  0  0  0  0
   57.1345   31.8498   42.5084 H   0  0  0  0  0  0  0  0  0  0  0  0
   57.2477   30.0571   42.5084 H   0  0  0  0  0  0  0  0  0  0  0  0
   57.3131   28.7178   43.2132 H   0  0  0  0  0  0  0  0  0  0  0  0
   58.1655   26.5329   44.0342 H   0  0  0  0  0  0  0  0  0  0  0  0
   59.6708   26.4576   45.9746 H   0  0  0  0  0  0  0  0  0  0  0  0
   61.0910   29.1010   47.9530 H   0  0  0  0  0  0  0  0  0  0  0  0
   59.9036   26.4061   47.6270 H   0  0  0  0  0  0  0  0  0  0  0  0
   61.6754   26.7013   47.8865 H   0  0  0  0  0  0  0  0  0  0  0  0
   59.3645   27.1968   49.7384 H   0  0  0  0  0  0  0  0  0  0  0  0
   60.8773   26.2351   49.9880 H   0  0  0  0  0  0  0  0  0  0  0  0
   61.2591   28.1655   51.2117 H   0  0  0  0  0  0  0  0  0  0  0  0
   62.0783   28.4721   49.6067 H   0  0  0  0  0  0  0  0  0  0  0  0
   58.5200   29.3303   50.8371 H   0  0  0  0  0  0  0  0  0  0  0  0
   58.5549   30.2390   49.2880 H   0  0  0  0  0  0  0  0  0  0  0  0
   58.7685   28.4555   49.2880 H   0  0  0  0  0  0  0  0  0  0  0  0
   60.6903   30.3683   51.8447 H   0  0  0  0  0  0  0  0  0  0  0  0
   61.8431   30.8930   50.5709 H   0  0  0  0  0  0  0  0  0  0  0  0
   60.1591   31.5181   50.5709 H   0  0  0  0  0  0  0  0  0  0  0  0
  1  2  1  0
  2  3  1  0
  3  4  1  0
  3  5  1  0
  3  6  1  0
  6  7  1  0
  7  8  1  0
  8  9  1  0
  9 10  2  0
 10 11  1  0
 11 12  2  0
 12 13  1  0
 13 14  2  0
 14 15  1  0
 15 16  2  0
 16 17  1  0
 16 18  1  0
 18 19  2  0
 19 20  1  0
 20 21  2  0
 21 22  1  0
 22 23  1  0
 23 24  1  0
 24 25  1  0
 25 26  1  0
 26 27  1  0
 27 28  1  0
 27 29  1  0
 22 30  2  0
 30  9  1  0
 15 10  1  0
 30 18  1  0
  1 31  1  0
  1 32  1  0
  1 33  1  0
  2 34  1  0
  2 35  1  0
  4 36  1  0
  4 37  1  0
  4 38  1  0
  5 39  1  0
  5 40  1  0
  5 41  1  0
  6 42  1  0
  6 43  1  0
  7 44  1  0
  7 45  1  0
  8 46  1  0
 11 47  1  0
 12 48  1  0
 13 49  1  0
 14 50  1  0
 17 51  1  0
 17 52  1  0
 17 53  1  0
 19 54  1  0
 20 55  1  0
 21 56  1  0
 23 57  1  0
 24 58  1  0
 24 59  1  0
 25 60  1  0
 25 61  1  0
 26 62  1  0
 26 63  1  0
 28 64  1  0
 28 65  1  0
 28 66  1  0
 29 67  1  0
 29 68  1  0
 29 69  1  0
M  CHG  2   3   1  16   1
M  END
>  <smiles>  (29) 
CC[N+](C)(C)CCNc1c2ccccc2[n+](C)c2cccc(NCCCN(C)C)c12

>  <score_type>  (29) 
oracle

>  <origin>  (29) 
adg

>  <m_score__min__energy>  (29) 
-4.2800000000000002

>  <m_primary>  (29) 
energy

$$$$
30:0
     RDKit          3D

 46 48  0  0  1  0  0  0  0  0999 V2000
   59.2890   29.5620   48.3750 C   0  0  0  0  0  0  0  0  0  0  0  0
   60.3900   30.4310   47.8130 C   0  0  0  0  0  0  0  0  0  0  0  0
   60.7730   30.0540   46.4150 C   0  0  0  0  0  0  0  0  0  0  0  0
   61.4820   30.7690   48.7270 C   0  0  0  0  0  0  0  0  0  0  0  0
   61.9280   32.1590   48.9630 C   0  0  1  0  0  0  0  0  0  0  0  0
   63.3000   32.4040   49.4720 C   0  0  0  0  0  0  0  0  0  0  0  0
   64.2290   33.1420   48.5560 C   0  0  0  0  0  0  0  0  0  0  0  0
   63.7740   33.3150   47.1530 C   0  0  0  0  0  0  0  0  0  0  0  0
   62.3190   33.5580   46.9920 C   0  0  0  0  0  0  0  0  0  0  0  0
   61.4580   33.0220   47.9330 N   0  0  0  0  0  0  0  0  0  0  0  0
   60.1820   33.6040   48.1040 C   0  0  0  0  0  0  0  0  0  0  0  0
   59.3300   33.6630   46.8860 C   0  0  0  0  0  0  0  0  0  0  0  0
   59.0000   34.9350   46.3070 C   0  0  0  0  0  0  0  0  0  0  0  0
   57.9660   34.4510   44.8760 S   0  0  0  0  0  0  0  0  0  0  0  0
   58.1390   32.6020   45.2810 C   0  0  0  0  0  0  0  0  0  0  0  0
   57.4800   31.6280   44.4270 C   0  0  0  0  0  0  0  0  0  0  0  0
   56.7750   30.5770   44.9380 N   0  0  0  0  0  0  0  0  0  0  0  0
   56.1710   29.6860   44.1250 C   0  0  0  0  0  0  0  0  0  0  0  0
   56.2940   29.8740   42.7450 C   0  0  0  0  0  0  0  0  0  0  0  0
   57.0120   30.9440   42.2400 C   0  0  0  0  0  0  0  0  0  0  0  0
   57.5960   31.8060   43.0910 N   0  0  0  0  0  0  0  0  0  0  0  0
   58.8180   32.6720   46.2430 N   0  0  0  0  0  0  0  0  0  0  0  0
   59.3246   29.5901   49.4741 H   0  0  0  0  0  0  0  0  0  0  0  0
   58.3140   29.9366   48.0300 H   0  0  0  0  0  0  0  0  0  0  0  0
   59.4269   28.5266   48.0300 H   0  0  0  0  0  0  0  0  0  0  0  0
   59.9337   31.4263   47.7077 H   0  0  0  0  0  0  0  0  0  0  0  0
   61.5566   29.2826   46.4449 H   0  0  0  0  0  0  0  0  0  0  0  0
   59.8918   29.6612   45.8867 H   0  0  0  0  0  0  0  0  0  0  0  0
   61.1519   30.9413   45.8867 H   0  0  0  0  0  0  0  0  0  0  0  0
   61.1890   30.3726   49.7104 H   0  0  0  0  0  0  0  0  0  0  0  0
   62.3503   30.3431   48.2029 H   0  0  0  0  0  0  0  0  0  0  0  0
   61.4223   32.4502   49.8954 H   0  0  0  0  0  0  0  0  0  0  0  0
   63.2132   32.9867   50.4010 H   0  0  0  0  0  0  0  0  0  0  0  0
   63.7466   31.4069   49.5996 H   0  0  0  0  0  0  0  0  0  0  0  0
   64.3921   34.1435   48.9808 H   0  0  0  0  0  0  0  0  0  0  0  0
   65.1342   32.5199   48.4949 H   0  0  0  0  0  0  0  0  0  0  0  0
   64.3129   34.1719   46.7225 H   0  0  0  0  0  0  0  0  0  0  0  0
   63.9859   32.3646   46.6413 H   0  0  0  0  0  0  0  0  0  0  0  0
   62.1681   34.6476   46.9953 H   0  0  0  0  0  0  0  0  0  0  0  0
   62.0581   33.0394   46.0576 H   0  0  0  0  0  0  0  0  0  0  0  0
   59.6436   33.0198   48.8648 H   0  0  0  0  0  0  0  0  0  0  0  0
   60.3661   34.6497   48.3913 H   0  0  0  0  0  0  0  0  0  0  0  0
   59.2933   35.9420   46.6384 H   0  0  0  0  0  0  0  0  0  0  0  0
   55.6004   28.8393   44.5343 H   0  0  0  0  0  0  0  0  0  0  0  0
   55.8154   29.1645   42.0539 H   0  0  0  0  0  0  0  0  0  0  0  0
   57.1040   31.0879   41.1533 H   0  0  0  0  0  0  0  0  0  0  0  0
  1  2  1  0
  2  3  1  0
  2  4  1  0
  4  5  1  0
  5  6  1  0
  6  7  1  0
  7  8  1  0
  8  9  1  0
  9 10  1  0
 10 11  1  0
 11 12  1  0
 12 13  2  0
 13 14  1  0
 14 15  1  0
 15 16  1  0
 16 17  2  0
 17 18  1  0
 18 19  2  0
 19 20  1  0
 20 21  2  0
 15 22  2  0
 10  5  1  0
 22 12  1  0
 21 16  1  0
  1 23  1  0
  1 24  1  0
  1 25  1  0
  2 26  1  0
  3 27  1  0
  3 28  1  0
  3 29  1  0
  4 30  1  0
  4 31  1  0
  5 32  1  1
  6 33  1  0
  6 34  1  0
  7 35  1  0
  7 36  1  0
  8 37  1  0
  8 38  1  0
  9 39  1  0
  9 40  1  0
 11 41  1  0
 11 42  1  0
 13 43  1  0
 18 44  1  0
 19 45  1  0
 20 46  1  0
M  END
>  <smiles>  (30) 
CC(C)CC1CCCCN1Cc1csc(-c2ncccn2)n1

>  <score_type>  (30) 
oracle

>  <origin>  (30) 
adg

>  <m_score__min__energy>  (30) 
-7.7400000000000002

>  <m_primary>  (30) 
energy

$$$$
