0:0
     RDKit          3D

 35 37  0  0  0  0  0  0  0  0999 V2000
   59.6950   34.6010   47.9960 C   0  0  0  0  0  0  0  0  0  0  0  0
   59.1750   33.9400   46.7540 C   0  0  0  0  0  0  0  0  0  0  0  0
   59.5060   34.4650   45.4780 C   0  0  0  0  0  0  0  0  0  0  0  0
   58.9980   33.8750   44.3070 C   0  0  0  0  0  0  0  0  0  0  0  0
   58.1490   32.7760   44.4500 C   0  0  0  0  0  0  0  0  0  0  0  0
   57.8200   32.2750   45.6750 C   0  0  0  0  0  0  0  0  0  0  0  0
   58.3070   32.8310   46.8550 C   0  0  0  0  0  0  0  0  0  0  0  0
   57.0240   31.1980   45.5470 N   0  0  0  0  0  0  0  0  0  0  0  0
   56.8940   31.0760   44.2000 C   0  0  0  0  0  0  0  0  0  0  0  0
   55.9830   29.7230   43.4470 S   0  0  0  0  0  0  0  0  0  0  0  0
   57.4200   28.5960   43.3650 C   0  0  0  0  0  0  0  0  0  0  0  0
   58.2730   28.7130   44.5990 C   0  0  0  0  0  0  0  0  0  0  0  0
   59.5650   29.2580   44.5150 C   0  0  0  0  0  0  0  0  0  0  0  0
   60.3720   29.3330   45.6540 C   0  0  0  0  0  0  0  0  0  0  0  0
   59.8990   28.8610   46.8820 C   0  0  0  0  0  0  0  0  0  0  0  0
   58.6150   28.3140   46.9730 C   0  0  0  0  0  0  0  0  0  0  0  0
   58.1600   27.8490   48.1620 F   0  0  0  0  0  0  0  0  0  0  0  0
   57.8030   28.2410   45.8360 C   0  0  0  0  0  0  0  0  0  0  0  0
   57.5520   32.0370   43.5010 N   0  0  0  0  0  0  0  0  0  0  0  0
   57.7080   32.1500   42.0530 C   0  0  0  0  0  0  0  0  0  0  0  0
   59.2912   34.0877   48.8811 H   0  0  0  0  0  0  0  0  0  0  0  0
   60.7935   34.5447   48.0089 H   0  0  0  0  0  0  0  0  0  0  0  0
   59.3817   35.6554   48.0089 H   0  0  0  0  0  0  0  0  0  0  0  0
   60.1662   35.3418   45.4041 H   0  0  0  0  0  0  0  0  0  0  0  0
   59.2605   34.2658   43.3128 H   0  0  0  0  0  0  0  0  0  0  0  0
   58.0244   32.4192   47.8351 H   0  0  0  0  0  0  0  0  0  0  0  0
   57.0596   27.5607   43.2746 H   0  0  0  0  0  0  0  0  0  0  0  0
   58.0299   28.8714   42.4920 H   0  0  0  0  0  0  0  0  0  0  0  0
   59.9428   29.6269   43.5500 H   0  0  0  0  0  0  0  0  0  0  0  0
   61.3815   29.7644   45.5839 H   0  0  0  0  0  0  0  0  0  0  0  0
   60.5366   28.9198   47.7765 H   0  0  0  0  0  0  0  0  0  0  0  0
   56.7927   27.8124   45.9109 H   0  0  0  0  0  0  0  0  0  0  0  0
   58.5797   32.7814   41.8263 H   0  0  0  0  0  0  0  0  0  0  0  0
   57.8578   31.1495   41.6212 H   0  0  0  0  0  0  0  0  0  0  0  0
   56.8040   32.6042   41.6212 H   0  0  0  0  0  0  0  0  0  0  0  0
  1  2  1  0
  2  3  2  0
  3  4  1  0
  4  5  2  0
  5  6  1  0
  6  7  2  0
  6  8  1  0
  8  9  2  0
  9 10  1  0
 10 11  1  0
 11 12  1  0
 12 13  2  0
 13 14  1  0
 14 15  2  0
 15 16  1  0
 16 17  1  0
 16 18  2  0
  9 19  1  0
 19 20  1  0
  7  2  1  0
 18 12  1  0
 19  5  1  0
  1 21  1  0
  1 22  1  0
  1 23  1  0
  3 24  1  0
  4 25  1  0
  7 26  1  0
 11 27  1  0
 11 28  1  0
 13 29  1  0
 14 30  1  0
 15 31  1  0
 18 32  1  0
 20 33  1  0
 20 34  1  0
 20 35  1  0
M  END
>  <UniqueID>  (1) 
1

>  <SMILES>  (1) 
Cc1ccc2c(c1)nc(SCc1cccc(F)c1)n2C

>  <Energy>  (1) 
68.21281329856919

>  <Genealogy>  (1) 
Cc1ccc2c(c1)nc(SCc1cccc(F)c1)n2C (3D coordinates assigned)
Cc1ccc2c(c1)nc(SCc1cccc(F)c1)n2C (optimized conformer: 68.21281329856919 kcal/mol)

>  <smiles>  (1) 
Cc1ccc2c(c1)nc(SCc1cccc(F)c1)n2C

>  <score_type>  (1) 
oracle

>  <origin>  (1) 
adg

>  <m_score__min__energy>  (1) 
-7.4400000000000004

>  <m_primary>  (1) 
energy

$$$$
1:0
     RDKit          3D

 47 49  0  0  0  0  0  0  0  0999 V2000
   63.2760   32.5040   49.3710 C   0  0  0  0  0  0  0  0  0  0  0  0
   62.4060   33.1360   48.3280 C   0  0  0  0  0  0  0  0  0  0  0  0
   62.7040   33.2020   46.9780 C   0  0  0  0  0  0  0  0  0  0  0  0
   61.6340   33.8300   46.3720 C   0  0  0  0  0  0  0  0  0  0  0  0
   60.7250   34.1180   47.3730 C   0  0  0  0  0  0  0  0  0  0  0  0
   59.3600   34.7060   47.1360 C   0  0  0  0  0  0  0  0  0  0  0  0
   58.3010   33.7530   47.5040 N   0  0  0  0  0  0  0  0  0  0  0  0
   58.6530   32.3590   47.1740 C   0  0  0  0  0  0  0  0  0  0  0  0
   58.4750   32.0870   45.6950 C   0  0  0  0  0  0  0  0  0  0  0  0
   58.0130   33.1140   44.8570 C   0  0  0  0  0  0  0  0  0  0  0  0
   57.7600   32.8640   43.5100 C   0  0  0  0  0  0  0  0  0  0  0  0
   58.0020   31.5930   42.9940 C   0  0  0  0  0  0  0  0  0  0  0  0
   58.5020   30.6150   43.7940 N   0  0  0  0  0  0  0  0  0  0  0  0
   58.7600   30.8250   45.1190 C   0  0  0  0  0  0  0  0  0  0  0  0
   59.3510   29.7700   45.8980 N   0  0  0  0  0  0  0  0  0  0  0  0
   60.7410   29.8530   46.3490 C   0  0  0  0  0  0  0  0  0  0  0  0
   60.7710   29.8460   47.8820 C   0  0  0  0  0  0  0  0  0  0  0  0
   60.0620   28.7320   48.3950 O   0  0  0  0  0  0  0  0  0  0  0  0
   58.6910   28.8220   48.0450 C   0  0  0  0  0  0  0  0  0  0  0  0
   58.5100   28.7490   46.5240 C   0  0  0  0  0  0  0  0  0  0  0  0
   61.2070   33.7120   48.5710 N   0  0  0  0  0  0  0  0  0  0  0  0
   60.5450   33.8090   49.8740 C   0  0  0  0  0  0  0  0  0  0  0  0
   62.9048   32.7737   50.3707 H   0  0  0  0  0  0  0  0  0  0  0  0
   63.2532   31.4105   49.2541 H   0  0  0  0  0  0  0  0  0  0  0  0
   64.3089   32.8638   49.2541 H   0  0  0  0  0  0  0  0  0  0  0  0
   63.6136   32.8280   46.4852 H   0  0  0  0  0  0  0  0  0  0  0  0
   61.5259   34.0570   45.3011 H   0  0  0  0  0  0  0  0  0  0  0  0
   59.2507   35.6165   47.7435 H   0  0  0  0  0  0  0  0  0  0  0  0
   59.2620   34.9408   46.0658 H   0  0  0  0  0  0  0  0  0  0  0  0
   57.4580   34.0030   46.9370 H   0  0  0  0  0  0  0  0  0  0  0  0
   59.7029   32.1790   47.4485 H   0  0  0  0  0  0  0  0  0  0  0  0
   57.9860   31.6881   47.7353 H   0  0  0  0  0  0  0  0  0  0  0  0
   57.8498   34.1219   45.2662 H   0  0  0  0  0  0  0  0  0  0  0  0
   57.3728   33.6626   42.8602 H   0  0  0  0  0  0  0  0  0  0  0  0
   57.7878   31.3804   41.9362 H   0  0  0  0  0  0  0  0  0  0  0  0
   58.7080   29.6820   43.3690 H   0  0  0  0  0  0  0  0  0  0  0  0
   61.3051   28.9901   45.9654 H   0  0  0  0  0  0  0  0  0  0  0  0
   61.1984   30.7801   45.9731 H   0  0  0  0  0  0  0  0  0  0  0  0
   61.8160   29.7957   48.2218 H   0  0  0  0  0  0  0  0  0  0  0  0
   60.2927   30.7666   48.2477 H   0  0  0  0  0  0  0  0  0  0  0  0
   58.1441   27.9904   48.5133 H   0  0  0  0  0  0  0  0  0  0  0  0
   58.2996   29.7867   48.4002 H   0  0  0  0  0  0  0  0  0  0  0  0
   58.8080   27.7532   46.1639 H   0  0  0  0  0  0  0  0  0  0  0  0
   57.4554   28.9241   46.2649 H   0  0  0  0  0  0  0  0  0  0  0  0
   61.2921   33.6995   50.6739 H   0  0  0  0  0  0  0  0  0  0  0  0
   60.0531   34.7888   49.9633 H   0  0  0  0  0  0  0  0  0  0  0  0
   59.7927   33.0115   49.9633 H   0  0  0  0  0  0  0  0  0  0  0  0
  1  2  1  0
  2  3  2  0
  3  4  1  0
  4  5  2  0
  5  6  1  0
  6  7  1  0
  7  8  1  0
  8  9  1  0
  9 10  2  0
 10 11  1  0
 11 12  2  0
 12 13  1  0
 13 14  2  0
 14 15  1  0
 15 16  1  0
 16 17  1  0
 17 18  1  0
 18 19  1  0
 19 20  1  0
  5 21  1  0
 21 22  1  0
 21  2  1  0
 14  9  1  0
 20 15  1  0
  1 23  1  0
  1 24  1  0
  1 25  1  0
  3 26  1  0
  4 27  1  0
  6 28  1  0
  6 29  1  0
  7 30  1  0
  8 31  1  0
  8 32  1  0
 10 33  1  0
 11 34  1  0
 12 35  1  0
 13 36  1  0
 16 37  1  0
 16 38  1  0
 17 39  1  0
 17 40  1  0
 19 41  1  0
 19 42  1  0
 20 43  1  0
 20 44  1  0
 22 45  1  0
 22 46  1  0
 22 47  1  0
M  CHG  1  13   1
M  END
>  <UniqueID>  (2) 
2

>  <SMILES>  (2) 
Cc1ccc(CNCc2ccc[nH+]c2N2CCOCC2)n1C

>  <Energy>  (2) 
75.56976327052091

>  <Genealogy>  (2) 
Cc1ccc(CNCc2ccc[nH+]c2N2CCOCC2)n1C (protonated)
Cc1ccc(CNCc2ccc[nH+]c2N2CCOCC2)n1C (3D coordinates assigned)
Cc1ccc(CNCc2ccc[nH+]c2N2CCOCC2)n1C (nonaromatic ring conformer: 75.56976327052091 kcal/mol)

>  <smiles>  (2) 
Cc1ccc(CNCc2cccnc2N2CCOCC2)n1C

>  <score_type>  (2) 
oracle

>  <origin>  (2) 
adg

>  <m_score__min__energy>  (2) 
-4.96

>  <m_primary>  (2) 
energy

$$$$
2:0
     RDKit          3D

 25 26  0  0  0  0  0  0  0  0999 V2000
   55.4430   29.3740   44.8750 O   0  0  0  0  0  0  0  0  0  0  0  0
   56.6830   29.4750   44.6730 C   0  0  0  0  0  0  0  0  0  0  0  0
   57.6640   27.9700   44.6330 S   0  0  0  0  0  0  0  0  0  0  0  0
   56.8640   27.3230   46.0710 N   0  0  0  0  0  0  0  0  0  0  0  0
   56.0210   26.1650   46.1120 C   0  0  0  0  0  0  0  0  0  0  0  0
   54.7770   26.3280   45.9920 O   0  0  0  0  0  0  0  0  0  0  0  0
   56.5330   24.8460   46.3600 N   0  0  0  0  0  0  0  0  0  0  0  0
   56.9390   23.9210   45.4720 C   0  0  0  0  0  0  0  0  0  0  0  0
   57.2640   22.7780   46.1670 C   0  0  0  0  0  0  0  0  0  0  0  0
   57.0500   22.9720   47.4830 N   0  0  0  0  0  0  0  0  0  0  0  0
   56.5970   24.2410   47.5620 C   0  0  0  0  0  0  0  0  0  0  0  0
   57.2940   30.8130   44.4690 C   0  0  0  0  0  0  0  0  0  0  0  0
   57.7730   31.5460   45.5740 C   0  0  0  0  0  0  0  0  0  0  0  0
   58.3520   32.8060   45.3940 C   0  0  0  0  0  0  0  0  0  0  0  0
   58.4610   33.3510   44.1140 C   0  0  0  0  0  0  0  0  0  0  0  0
   57.9920   32.6370   43.0100 C   0  0  0  0  0  0  0  0  0  0  0  0
   57.4110   31.3760   43.1830 C   0  0  0  0  0  0  0  0  0  0  0  0
   57.0005   24.0544   44.3819 H   0  0  0  0  0  0  0  0  0  0  0  0
   57.6410   21.8480   45.7165 H   0  0  0  0  0  0  0  0  0  0  0  0
   56.3110   24.7285   48.5057 H   0  0  0  0  0  0  0  0  0  0  0  0
   57.6906   31.1232   46.5861 H   0  0  0  0  0  0  0  0  0  0  0  0
   58.7224   33.3689   46.2634 H   0  0  0  0  0  0  0  0  0  0  0  0
   58.9162   34.3427   43.9751 H   0  0  0  0  0  0  0  0  0  0  0  0
   58.0794   33.0669   42.0013 H   0  0  0  0  0  0  0  0  0  0  0  0
   57.0428   30.8200   42.3082 H   0  0  0  0  0  0  0  0  0  0  0  0
  1  2  2  0
  2  3  1  0
  3  4  1  0
  4  5  1  0
  5  6  2  0
  5  7  1  0
  7  8  1  0
  8  9  2  0
  9 10  1  0
 10 11  2  0
  2 12  1  0
 12 13  2  0
 13 14  1  0
 14 15  2  0
 15 16  1  0
 16 17  2  0
 11  7  1  0
 17 12  1  0
  8 18  1  0
  9 19  1  0
 11 20  1  0
 13 21  1  0
 14 22  1  0
 15 23  1  0
 16 24  1  0
 17 25  1  0
M  CHG  1   4  -1
M  END
>  <UniqueID>  (3) 
3

>  <SMILES>  (3) 
O=C(S[N-]C(=O)n1ccnc1)c1ccccc1

>  <Energy>  (3) 
58.431753711362724

>  <Genealogy>  (3) 
O=C(S[N-]C(=O)n1ccnc1)c1ccccc1 (protonated)
O=C(S[N-]C(=O)n1ccnc1)c1ccccc1 (3D coordinates assigned)
O=C(S[N-]C(=O)n1ccnc1)c1ccccc1 (optimized conformer: 58.431753711362724 kcal/mol)

>  <smiles>  (3) 
O=C(SNC(=O)n1ccnc1)c1ccccc1

>  <score_type>  (3) 
oracle

>  <origin>  (3) 
adg

>  <m_score__min__energy>  (3) 
-8.4499999999999993

>  <m_primary>  (3) 
energy

$$$$
3:0
     RDKit          3D

 56 60  0  0  0  0  0  0  0  0999 V2000
   59.1580   33.0070   49.2850 C   0  0  0  0  0  0  0  0  0  0  0  0
   60.4280   33.1590   48.4880 C   0  0  0  0  0  0  0  0  0  0  0  0
   61.6550   33.1670   49.1750 C   0  0  0  0  0  0  0  0  0  0  0  0
   62.8580   33.3180   48.4840 C   0  0  0  0  0  0  0  0  0  0  0  0
   62.8540   33.4610   47.0980 C   0  0  0  0  0  0  0  0  0  0  0  0
   61.6480   33.4350   46.3950 C   0  0  0  0  0  0  0  0  0  0  0  0
   60.4270   33.2580   47.0690 C   0  0  0  0  0  0  0  0  0  0  0  0
   59.1560   33.2560   46.2470 C   0  0  1  0  0  0  0  0  0  0  0  0
   58.4880   34.6000   45.9640 C   0  0  0  0  0  0  0  0  0  0  0  0
   59.2310   33.8570   44.8640 C   0  0  2  0  0  0  0  0  0  0  0  0
   58.3890   32.9550   43.9770 C   0  0  0  0  0  0  0  0  0  0  0  0
   58.0780   31.7270   44.7290 N   0  0  0  0  0  0  0  0  0  0  0  0
   56.7190   31.2330   44.4310 C   0  0  0  0  0  0  0  0  0  0  0  0
   56.6490   29.7070   44.5940 C   0  0  0  0  0  0  0  0  0  0  0  0
   57.1560   28.9660   43.3500 C   0  0  0  0  0  0  0  0  0  0  0  0
   58.3010   27.6000   43.7660 S   0  0  0  0  0  0  0  0  0  0  0  0
   59.1470   28.4970   45.0720 C   0  0  0  0  0  0  0  0  0  0  0  0
   60.1360   29.3800   44.8440 N   0  0  0  0  0  0  0  0  0  0  0  0
   60.5200   29.8400   46.0250 N   0  0  0  0  0  0  0  0  0  0  0  0
   59.7550   29.2360   46.9580 C   0  0  0  0  0  0  0  0  0  0  0  0
   59.8870   29.5140   48.4040 C   0  0  0  0  0  0  0  0  0  0  0  0
   58.7350   29.6240   49.1970 C   0  0  0  0  0  0  0  0  0  0  0  0
   58.8610   29.8600   50.5700 C   0  0  0  0  0  0  0  0  0  0  0  0
   60.0940   29.9660   51.1330 N   0  0  0  0  0  0  0  0  0  0  0  0
   61.2270   29.8450   50.3930 C   0  0  0  0  0  0  0  0  0  0  0  0
   61.1460   29.6100   49.0180 C   0  0  0  0  0  0  0  0  0  0  0  0
   58.8930   28.3640   46.3900 N   0  0  0  0  0  0  0  0  0  0  0  0
   57.9210   27.4730   47.0230 C   0  0  0  0  0  0  0  0  0  0  0  0
   58.2800   32.0190   46.1590 C   0  0  0  0  0  0  0  0  0  0  0  0
   59.3936   33.0352   50.3591 H   0  0  0  0  0  0  0  0  0  0  0  0
   58.4700   33.8292   49.0388 H   0  0  0  0  0  0  0  0  0  0  0  0
   58.6835   32.0456   49.0388 H   0  0  0  0  0  0  0  0  0  0  0  0
   61.6667   33.0530   50.2690 H   0  0  0  0  0  0  0  0  0  0  0  0
   63.8105   33.3241   49.0342 H   0  0  0  0  0  0  0  0  0  0  0  0
   63.8024   33.5946   46.5569 H   0  0  0  0  0  0  0  0  0  0  0  0
   61.6533   33.5544   45.3015 H   0  0  0  0  0  0  0  0  0  0  0  0
   57.3910   34.6756   45.9349 H   0  0  0  0  0  0  0  0  0  0  0  0
   58.5434   35.6077   46.4015 H   0  0  0  0  0  0  0  0  0  0  0  0
   59.9819   34.2029   44.1384 H   0  0  0  0  0  0  0  0  0  0  0  0
   57.4562   33.4692   43.7022 H   0  0  0  0  0  0  0  0  0  0  0  0
   58.9391   32.7072   43.0572 H   0  0  0  0  0  0  0  0  0  0  0  0
   56.0040   31.7033   45.1221 H   0  0  0  0  0  0  0  0  0  0  0  0
   56.4691   31.4898   43.3910 H   0  0  0  0  0  0  0  0  0  0  0  0
   57.2661   29.4144   45.4563 H   0  0  0  0  0  0  0  0  0  0  0  0
   55.5945   29.4320   44.7437 H   0  0  0  0  0  0  0  0  0  0  0  0
   56.2922   28.5503   42.8105 H   0  0  0  0  0  0  0  0  0  0  0  0
   57.7088   29.6891   42.7323 H   0  0  0  0  0  0  0  0  0  0  0  0
   57.7385   29.5252   48.7418 H   0  0  0  0  0  0  0  0  0  0  0  0
   57.9613   29.9600   51.1950 H   0  0  0  0  0  0  0  0  0  0  0  0
   62.2106   29.9323   50.8776 H   0  0  0  0  0  0  0  0  0  0  0  0
   62.0630   29.5009   48.4203 H   0  0  0  0  0  0  0  0  0  0  0  0
   58.0082   27.5529   48.1166 H   0  0  0  0  0  0  0  0  0  0  0  0
   56.9050   27.7601   46.7142 H   0  0  0  0  0  0  0  0  0  0  0  0
   58.1188   26.4359   46.7142 H   0  0  0  0  0  0  0  0  0  0  0  0
   57.3116   32.2080   46.6452 H   0  0  0  0  0  0  0  0  0  0  0  0
   58.7559   31.1674   46.6673 H   0  0  0  0  0  0  0  0  0  0  0  0
  1  2  1  0
  2  3  2  0
  3  4  1  0
  4  5  2  0
  5  6  1  0
  6  7  2  0
  8  7  1  1
  8  9  1  0
  9 10  1  0
 10 11  1  0
 11 12  1  0
 12 13  1  0
 13 14  1  0
 14 15  1  0
 15 16  1  0
 16 17  1  0
 17 18  2  0
 18 19  1  0
 19 20  2  0
 20 21  1  0
 21 22  2  0
 22 23  1  0
 23 24  2  0
 24 25  1  0
 25 26  2  0
 20 27  1  0
 27 28  1  0
 12 29  1  0
  7  2  1  0
 10  8  1  0
 27 17  1  0
 29  8  1  0
 26 21  1  0
  1 30  1  0
  1 31  1  0
  1 32  1  0
  3 33  1  0
  4 34  1  0
  5 35  1  0
  6 36  1  0
  9 37  1  0
  9 38  1  0
 10 39  1  6
 11 40  1  0
 11 41  1  0
 13 42  1  0
 13 43  1  0
 14 44  1  0
 14 45  1  0
 15 46  1  0
 15 47  1  0
 22 48  1  0
 23 49  1  0
 25 50  1  0
 26 51  1  0
 28 52  1  0
 28 53  1  0
 28 54  1  0
 29 55  1  0
 29 56  1  0
M  END
>  <UniqueID>  (4) 
4

>  <SMILES>  (4) 
Cc1ccccc1[C@@]12C[C@@H]1CN(CCCSc1nnc(-c3ccncc3)n1C)C2

>  <Energy>  (4) 
366.65035606687854

>  <Genealogy>  (4) 
Cc1ccccc1[C@@]12C[C@@H]1CN(CCCSc1nnc(-c3ccncc3)n1C)C2 (chirality)
Cc1ccccc1[C@@]12C[C@@H]1CN(CCCSc1nnc(-c3ccncc3)n1C)C2 (3D coordinates assigned)
Cc1ccccc1[C@@]12C[C@@H]1CN(CCCSc1nnc(-c3ccncc3)n1C)C2 (nonaromatic ring conformer: 366.65035606687854 kcal/mol)

>  <smiles>  (4) 
Cc1ccccc1C12CC1CN(CCCSc1nnc(-c3ccncc3)n1C)C2

>  <score_type>  (4) 
oracle

>  <origin>  (4) 
adg

>  <m_score__min__energy>  (4) 
-9.8200000000000003

>  <m_primary>  (4) 
energy

$$$$
4:0
     RDKit          3D

 42 44  0  0  0  0  0  0  0  0999 V2000
   58.5890   27.2560   47.0330 C   0  0  0  0  0  0  0  0  0  0  0  0
   57.3270   26.6870   46.3920 C   0  0  0  0  0  0  0  0  0  0  0  0
   57.4270   26.7260   44.9250 N   0  0  0  0  0  0  0  0  0  0  0  0
   58.5200   27.5740   44.4160 C   0  0  0  0  0  0  0  0  0  0  0  0
   58.1190   29.0310   44.0910 C   0  0  0  0  0  0  0  0  0  0  0  0
   56.7290   29.4380   44.6090 C   0  0  0  0  0  0  0  0  0  0  0  0
   56.5180   30.8460   44.5050 O   0  0  0  0  0  0  0  0  0  0  0  0
   57.3440   31.8400   45.0530 C   0  0  0  0  0  0  0  0  0  0  0  0
   57.5110   33.1040   44.4560 C   0  0  0  0  0  0  0  0  0  0  0  0
   58.3640   34.0490   45.0330 C   0  0  0  0  0  0  0  0  0  0  0  0
   59.0400   33.7500   46.2170 C   0  0  0  0  0  0  0  0  0  0  0  0
   58.9000   32.4820   46.8170 C   0  0  0  0  0  0  0  0  0  0  0  0
   58.0320   31.5420   46.2360 C   0  0  0  0  0  0  0  0  0  0  0  0
   59.7090   32.1400   47.9680 N   0  0  0  0  0  0  0  0  0  0  0  0
   61.0960   32.4470   47.6890 C   0  0  0  0  0  0  0  0  0  0  0  0
   62.1010   31.4800   47.8590 C   0  0  0  0  0  0  0  0  0  0  0  0
   63.4210   31.7660   47.4960 C   0  0  0  0  0  0  0  0  0  0  0  0
   63.7460   33.0130   46.9520 C   0  0  0  0  0  0  0  0  0  0  0  0
   62.7560   33.9850   46.7820 C   0  0  0  0  0  0  0  0  0  0  0  0
   61.4400   33.7140   47.1710 C   0  0  0  0  0  0  0  0  0  0  0  0
   60.1510   34.9480   46.9660 S   0  0  0  0  0  0  0  0  0  0  0  0
   58.4951   27.2136   48.1282 H   0  0  0  0  0  0  0  0  0  0  0  0
   59.4601   26.6635   46.7165 H   0  0  0  0  0  0  0  0  0  0  0  0
   58.7218   28.3011   46.7165 H   0  0  0  0  0  0  0  0  0  0  0  0
   57.1950   25.6446   46.7175 H   0  0  0  0  0  0  0  0  0  0  0  0
   56.4658   27.2959   46.7044 H   0  0  0  0  0  0  0  0  0  0  0  0
   56.5150   27.0160   44.5080 H   0  0  0  0  0  0  0  0  0  0  0  0
   59.3142   27.6002   45.1767 H   0  0  0  0  0  0  0  0  0  0  0  0
   58.8410   27.1240   43.4650 H   0  0  0  0  0  0  0  0  0  0  0  0
   58.8645   29.7019   44.5427 H   0  0  0  0  0  0  0  0  0  0  0  0
   58.0806   29.1089   42.9944 H   0  0  0  0  0  0  0  0  0  0  0  0
   55.9616   28.9179   44.0169 H   0  0  0  0  0  0  0  0  0  0  0  0
   56.6638   29.1591   45.6711 H   0  0  0  0  0  0  0  0  0  0  0  0
   56.9678   33.3490   43.5314 H   0  0  0  0  0  0  0  0  0  0  0  0
   58.5027   35.0293   44.5536 H   0  0  0  0  0  0  0  0  0  0  0  0
   57.8914   30.5619   46.7153 H   0  0  0  0  0  0  0  0  0  0  0  0
   59.5970   31.1280   48.2100 H   0  0  0  0  0  0  0  0  0  0  0  0
   59.3920   32.7080   48.7860 H   0  0  0  0  0  0  0  0  0  0  0  0
   61.8489   30.4950   48.2789 H   0  0  0  0  0  0  0  0  0  0  0  0
   64.2056   31.0084   47.6387 H   0  0  0  0  0  0  0  0  0  0  0  0
   64.7834   33.2293   46.6572 H   0  0  0  0  0  0  0  0  0  0  0  0
   63.0112   34.9609   46.3433 H   0  0  0  0  0  0  0  0  0  0  0  0
  1  2  1  0
  2  3  1  0
  3  4  1  0
  4  5  1  0
  5  6  1  0
  6  7  1  0
  7  8  1  0
  8  9  2  0
  9 10  1  0
 10 11  2  0
 11 12  1  0
 12 13  2  0
 12 14  1  0
 14 15  1  0
 15 16  2  0
 16 17  1  0
 17 18  2  0
 18 19  1  0
 19 20  2  0
 20 21  1  0
 13  8  1  0
 20 15  1  0
 21 11  1  0
  1 22  1  0
  1 23  1  0
  1 24  1  0
  2 25  1  0
  2 26  1  0
  3 27  1  0
  4 28  1  0
  4 29  1  0
  5 30  1  0
  5 31  1  0
  6 32  1  0
  6 33  1  0
  9 34  1  0
 10 35  1  0
 13 36  1  0
 14 37  1  0
 14 38  1  0
 16 39  1  0
 17 40  1  0
 18 41  1  0
 19 42  1  0
M  CHG  1  14   1
M  END
>  <UniqueID>  (5) 
5

>  <SMILES>  (5) 
CCNCCCOc1ccc2c(c1)[NH2+]c1ccccc1S2

>  <Energy>  (5) 
54.60610912456946

>  <Genealogy>  (5) 
CCNCCCOc1ccc2c(c1)[NH2+]c1ccccc1S2 (protonated)
CCNCCCOc1ccc2c(c1)[NH2+]c1ccccc1S2 (3D coordinates assigned)
CCNCCCOc1ccc2c(c1)[NH2+]c1ccccc1S2 (nonaromatic ring conformer: 54.60610912456946 kcal/mol)

>  <smiles>  (5) 
CCNCCCOc1ccc2c(c1)Nc1ccccc1S2

>  <score_type>  (5) 
oracle

>  <origin>  (5) 
adg

>  <m_score__min__energy>  (5) 
-5.9400000000000004

>  <m_primary>  (5) 
energy

$$$$
5:0
     RDKit          3D

 38 40  0  0  0  0  0  0  0  0999 V2000
   57.7640   32.3400   41.8540 C   0  0  0  0  0  0  0  0  0  0  0  0
   57.7540   31.7200   43.1780 N   0  0  0  0  0  0  0  0  0  0  0  0
   57.9730   30.4320   43.3870 N   0  0  0  0  0  0  0  0  0  0  0  0
   58.0350   30.2130   44.7230 C   0  0  0  0  0  0  0  0  0  0  0  0
   58.3790   28.9070   45.3610 C   0  0  0  0  0  0  0  0  0  0  0  0
   57.3810   27.9380   45.6130 C   0  0  0  0  0  0  0  0  0  0  0  0
   57.6950   26.7260   46.2400 C   0  0  0  0  0  0  0  0  0  0  0  0
   59.0100   26.4580   46.6230 C   0  0  0  0  0  0  0  0  0  0  0  0
   60.0130   27.4030   46.3920 C   0  0  0  0  0  0  0  0  0  0  0  0
   59.7000   28.6180   45.7740 C   0  0  0  0  0  0  0  0  0  0  0  0
   57.8390   31.4250   45.3820 C   0  0  0  0  0  0  0  0  0  0  0  0
   57.6610   32.3480   44.3660 C   0  0  0  0  0  0  0  0  0  0  0  0
   57.6090   33.8420   44.5680 C   0  0  0  0  0  0  0  0  0  0  0  0
   58.9240   34.3520   44.9310 N   0  0  0  0  0  0  0  0  0  0  0  0
   59.5650   34.1010   46.2250 C   0  0  0  0  0  0  0  0  0  0  0  0
   60.9770   34.1120   46.3460 C   0  0  0  0  0  0  0  0  0  0  0  0
   61.5670   33.8320   47.6010 C   0  0  0  0  0  0  0  0  0  0  0  0
   60.7810   33.5790   48.7120 C   0  0  0  0  0  0  0  0  0  0  0  0
   59.3950   33.5900   48.5970 C   0  0  0  0  0  0  0  0  0  0  0  0
   58.8000   33.8630   47.3460 C   0  0  0  0  0  0  0  0  0  0  0  0
   57.4350   33.8310   47.3010 F   0  0  0  0  0  0  0  0  0  0  0  0
   57.7817   33.4346   41.9618 H   0  0  0  0  0  0  0  0  0  0  0  0
   58.6570   32.0115   41.3020 H   0  0  0  0  0  0  0  0  0  0  0  0
   56.8609   32.0404   41.3020 H   0  0  0  0  0  0  0  0  0  0  0  0
   58.1080   29.7360   42.6200 H   0  0  0  0  0  0  0  0  0  0  0  0
   56.3423   28.1391   45.3120 H   0  0  0  0  0  0  0  0  0  0  0  0
   56.9049   25.9848   46.4308 H   0  0  0  0  0  0  0  0  0  0  0  0
   59.2571   25.5018   47.1073 H   0  0  0  0  0  0  0  0  0  0  0  0
   61.0487   27.1914   46.6962 H   0  0  0  0  0  0  0  0  0  0  0  0
   60.4941   29.3605   45.6066 H   0  0  0  0  0  0  0  0  0  0  0  0
   57.8282   31.6074   46.4667 H   0  0  0  0  0  0  0  0  0  0  0  0
   57.2789   34.3225   43.6352 H   0  0  0  0  0  0  0  0  0  0  0  0
   56.9024   34.0675   45.3803 H   0  0  0  0  0  0  0  0  0  0  0  0
   59.4560   34.9390   44.2420 H   0  0  0  0  0  0  0  0  0  0  0  0
   61.6078   34.3359   45.4731 H   0  0  0  0  0  0  0  0  0  0  0  0
   62.6628   33.8152   47.6950 H   0  0  0  0  0  0  0  0  0  0  0  0
   61.2517   33.3697   49.6839 H   0  0  0  0  0  0  0  0  0  0  0  0
   58.7657   33.3871   49.4761 H   0  0  0  0  0  0  0  0  0  0  0  0
  1  2  1  0
  2  3  1  0
  3  4  2  0
  4  5  1  0
  5  6  2  0
  6  7  1  0
  7  8  2  0
  8  9  1  0
  9 10  2  0
  4 11  1  0
 11 12  2  0
 12 13  1  0
 13 14  1  0
 14 15  1  0
 15 16  2  0
 16 17  1  0
 17 18  2  0
 18 19  1  0
 19 20  2  0
 20 21  1  0
 12  2  1  0
 20 15  1  0
 10  5  1  0
  1 22  1  0
  1 23  1  0
  1 24  1  0
  3 25  1  0
  6 26  1  0
  7 27  1  0
  8 28  1  0
  9 29  1  0
 10 30  1  0
 11 31  1  0
 13 32  1  0
 13 33  1  0
 14 34  1  0
 16 35  1  0
 17 36  1  0
 18 37  1  0
 19 38  1  0
M  CHG  1   3   1
M  END
>  <UniqueID>  (6) 
6

>  <SMILES>  (6) 
Cn1[nH+]c(-c2ccccc2)cc1CNc1ccccc1F

>  <Energy>  (6) 
75.00849397876298

>  <Genealogy>  (6) 
Cn1[nH+]c(-c2ccccc2)cc1CNc1ccccc1F (protonated)
Cn1[nH+]c(-c2ccccc2)cc1CNc1ccccc1F (3D coordinates assigned)
Cn1[nH+]c(-c2ccccc2)cc1CNc1ccccc1F (optimized conformer: 75.00849397876298 kcal/mol)

>  <smiles>  (6) 
Cn1nc(-c2ccccc2)cc1CNc1ccccc1F

>  <score_type>  (6) 
oracle

>  <origin>  (6) 
adg

>  <m_score__min__energy>  (6) 
-6.5099999999999998

>  <m_primary>  (6) 
energy

$$$$
6:0
     RDKit          3D

 25 26  0  0  0  0  0  0  0  0999 V2000
   60.5900   28.9680   45.2050 C   0  0  0  0  0  0  0  0  0  0  0  0
   59.1670   28.5090   45.2410 C   0  0  0  0  0  0  0  0  0  0  0  0
   58.8160   27.2120   45.3860 N   0  0  0  0  0  0  0  0  0  0  0  0
   57.4930   27.1890   45.3920 N   0  0  0  0  0  0  0  0  0  0  0  0
   56.6880   25.9890   45.5820 C   0  0  0  0  0  0  0  0  0  0  0  0
   57.0540   28.4520   45.2670 C   0  0  0  0  0  0  0  0  0  0  0  0
   55.8370   28.7800   45.2420 O   0  0  0  0  0  0  0  0  0  0  0  0
   58.0790   29.3170   45.1540 N   0  0  0  0  0  0  0  0  0  0  0  0
   58.0170   30.7470   45.0060 C   0  0  0  0  0  0  0  0  0  0  0  0
   58.1580   31.5880   46.1230 C   0  0  0  0  0  0  0  0  0  0  0  0
   58.1030   32.9770   45.9720 C   0  0  0  0  0  0  0  0  0  0  0  0
   57.9100   33.5370   44.7070 C   0  0  0  0  0  0  0  0  0  0  0  0
   57.8570   34.8840   44.5620 F   0  0  0  0  0  0  0  0  0  0  0  0
   57.7780   32.7080   43.5890 C   0  0  0  0  0  0  0  0  0  0  0  0
   57.8330   31.3190   43.7360 C   0  0  0  0  0  0  0  0  0  0  0  0
   60.9626   29.0882   46.2330 H   0  0  0  0  0  0  0  0  0  0  0  0
   61.2027   28.2219   44.6778 H   0  0  0  0  0  0  0  0  0  0  0  0
   60.6513   29.9315   44.6778 H   0  0  0  0  0  0  0  0  0  0  0  0
   56.5608   25.7994   46.6580 H   0  0  0  0  0  0  0  0  0  0  0  0
   55.7019   26.1313   45.1157 H   0  0  0  0  0  0  0  0  0  0  0  0
   57.1937   25.1306   45.1157 H   0  0  0  0  0  0  0  0  0  0  0  0
   58.3124   31.1515   47.1208 H   0  0  0  0  0  0  0  0  0  0  0  0
   58.2119   33.6297   46.8507 H   0  0  0  0  0  0  0  0  0  0  0  0
   57.6307   33.1494   42.5923 H   0  0  0  0  0  0  0  0  0  0  0  0
   57.7317   30.6707   42.8531 H   0  0  0  0  0  0  0  0  0  0  0  0
  1  2  1  0
  2  3  2  0
  3  4  1  0
  4  5  1  0
  4  6  1  0
  6  7  2  0
  6  8  1  0
  8  9  1  0
  9 10  2  0
 10 11  1  0
 11 12  2  0
 12 13  1  0
 12 14  1  0
 14 15  2  0
  8  2  1  0
 15  9  1  0
  1 16  1  0
  1 17  1  0
  1 18  1  0
  5 19  1  0
  5 20  1  0
  5 21  1  0
 10 22  1  0
 11 23  1  0
 14 24  1  0
 15 25  1  0
M  END
>  <UniqueID>  (7) 
7

>  <SMILES>  (7) 
Cc1nn(C)c(=O)n1-c1ccc(F)cc1

>  <Energy>  (7) 
66.62876006364343

>  <Genealogy>  (7) 
Cc1nn(C)c(=O)n1-c1ccc(F)cc1 (3D coordinates assigned)
Cc1nn(C)c(=O)n1-c1ccc(F)cc1 (optimized conformer: 66.62876006364343 kcal/mol)

>  <smiles>  (7) 
Cc1nn(C)c(=O)n1-c1ccc(F)cc1

>  <score_type>  (7) 
oracle

>  <origin>  (7) 
adg

>  <m_score__min__energy>  (7) 
-5.1299999999999999

>  <m_primary>  (7) 
energy

$$$$
7:0
     RDKit          3D

 54 56  0  0  0  0  0  0  0  0999 V2000
   59.6240   34.6220   46.5510 C   0  0  0  0  0  0  0  0  0  0  0  0
   58.7230   33.5740   46.8300 O   0  0  0  0  0  0  0  0  0  0  0  0
   57.4650   33.8290   46.2320 C   0  0  0  0  0  0  0  0  0  0  0  0
   57.1170   32.7250   45.2360 C   0  0  0  0  0  0  0  0  0  0  0  0
   57.6570   31.5020   45.6920 O   0  0  0  0  0  0  0  0  0  0  0  0
   57.5760   30.5150   44.6800 C   0  0  0  0  0  0  0  0  0  0  0  0
   58.9160   29.7880   44.5430 C   0  0  0  0  0  0  0  0  0  0  0  0
   59.7330   30.0590   45.6660 O   0  0  0  0  0  0  0  0  0  0  0  0
   59.4920   29.1180   46.6930 C   0  0  0  0  0  0  0  0  0  0  0  0
   59.1690   29.8530   47.9950 C   0  0  0  0  0  0  0  0  0  0  0  0
   59.1770   31.3110   47.8010 N   0  0  0  0  0  0  0  0  0  0  0  0
   59.9660   31.9590   48.8390 C   0  0  0  0  0  0  0  0  0  0  0  0
   59.3830   32.2970   50.0890 C   0  0  0  0  0  0  0  0  0  0  0  0
   58.0610   31.9100   50.4240 C   0  0  0  0  0  0  0  0  0  0  0  0
   57.4630   32.3350   51.6070 C   0  0  0  0  0  0  0  0  0  0  0  0
   58.1600   33.1530   52.4830 C   0  0  0  0  0  0  0  0  0  0  0  0
   59.4790   33.5070   52.2080 C   0  0  0  0  0  0  0  0  0  0  0  0
   60.1370   33.0420   51.0390 C   0  0  0  0  0  0  0  0  0  0  0  0
   61.4730   33.3110   50.8150 N   0  0  0  0  0  0  0  0  0  0  0  0
   62.3200   33.8110   51.9230 C   0  0  0  0  0  0  0  0  0  0  0  0
   62.0360   33.0600   49.5790 C   0  0  0  0  0  0  0  0  0  0  0  0
   63.3300   33.5430   49.2460 C   0  0  0  0  0  0  0  0  0  0  0  0
   63.9380   33.2090   48.0400 C   0  0  0  0  0  0  0  0  0  0  0  0
   63.2790   32.3920   47.1330 C   0  0  0  0  0  0  0  0  0  0  0  0
   61.9870   31.9490   47.4030 C   0  0  0  0  0  0  0  0  0  0  0  0
   61.3210   32.3160   48.5990 C   0  0  0  0  0  0  0  0  0  0  0  0
   59.9921   35.0502   47.4950 H   0  0  0  0  0  0  0  0  0  0  0  0
   60.4725   34.2312   45.9701 H   0  0  0  0  0  0  0  0  0  0  0  0
   59.1104   35.4023   45.9701 H   0  0  0  0  0  0  0  0  0  0  0  0
   56.6928   33.8682   47.0144 H   0  0  0  0  0  0  0  0  0  0  0  0
   57.5110   34.7900   45.6987 H   0  0  0  0  0  0  0  0  0  0  0  0
   56.0238   32.6361   45.1521 H   0  0  0  0  0  0  0  0  0  0  0  0
   57.5379   32.9704   44.2498 H   0  0  0  0  0  0  0  0  0  0  0  0
   56.7934   29.7881   44.9430 H   0  0  0  0  0  0  0  0  0  0  0  0
   57.3313   31.0004   43.7237 H   0  0  0  0  0  0  0  0  0  0  0  0
   58.7371   28.7047   44.4761 H   0  0  0  0  0  0  0  0  0  0  0  0
   59.4253   30.1399   43.6338 H   0  0  0  0  0  0  0  0  0  0  0  0
   58.6417   28.4791   46.4123 H   0  0  0  0  0  0  0  0  0  0  0  0
   60.3876   28.4957   46.8366 H   0  0  0  0  0  0  0  0  0  0  0  0
   58.1728   29.5433   48.3438 H   0  0  0  0  0  0  0  0  0  0  0  0
   59.9382   29.5972   48.7385 H   0  0  0  0  0  0  0  0  0  0  0  0
   58.2010   31.6830   47.7820 H   0  0  0  0  0  0  0  0  0  0  0  0
   59.5330   31.5580   46.8520 H   0  0  0  0  0  0  0  0  0  0  0  0
   57.4975   31.2620   49.7366 H   0  0  0  0  0  0  0  0  0  0  0  0
   56.4363   32.0215   51.8471 H   0  0  0  0  0  0  0  0  0  0  0  0
   57.6709   33.5229   53.3962 H   0  0  0  0  0  0  0  0  0  0  0  0
   60.0206   34.1587   52.9094 H   0  0  0  0  0  0  0  0  0  0  0  0
   61.8617   33.5405   52.8857 H   0  0  0  0  0  0  0  0  0  0  0  0
   63.3201   33.3584   51.8530 H   0  0  0  0  0  0  0  0  0  0  0  0
   62.4070   34.9053   51.8530 H   0  0  0  0  0  0  0  0  0  0  0  0
   63.8616   34.1939   49.9557 H   0  0  0  0  0  0  0  0  0  0  0  0
   64.9418   33.5930   47.8056 H   0  0  0  0  0  0  0  0  0  0  0  0
   63.7779   32.0937   46.1991 H   0  0  0  0  0  0  0  0  0  0  0  0
   61.4742   31.3029   46.6753 H   0  0  0  0  0  0  0  0  0  0  0  0
  1  2  1  0
  2  3  1  0
  3  4  1  0
  4  5  1  0
  5  6  1  0
  6  7  1  0
  7  8  1  0
  8  9  1  0
  9 10  1  0
 10 11  1  0
 11 12  1  0
 12 13  2  0
 13 14  1  0
 14 15  2  0
 15 16  1  0
 16 17  2  0
 17 18  1  0
 18 19  2  0
 19 20  1  0
 19 21  1  0
 21 22  2  0
 22 23  1  0
 23 24  2  0
 24 25  1  0
 25 26  2  0
 26 12  1  0
 18 13  1  0
 26 21  1  0
  1 27  1  0
  1 28  1  0
  1 29  1  0
  3 30  1  0
  3 31  1  0
  4 32  1  0
  4 33  1  0
  6 34  1  0
  6 35  1  0
  7 36  1  0
  7 37  1  0
  9 38  1  0
  9 39  1  0
 10 40  1  0
 10 41  1  0
 11 42  1  0
 11 43  1  0
 14 44  1  0
 15 45  1  0
 16 46  1  0
 17 47  1  0
 20 48  1  0
 20 49  1  0
 20 50  1  0
 22 51  1  0
 23 52  1  0
 24 53  1  0
 25 54  1  0
M  CHG  2  11   1  19   1
M  END
>  <UniqueID>  (8) 
8

>  <SMILES>  (8) 
COCCOCCOCC[NH2+]c1c2ccccc2[n+](C)c2ccccc12

>  <Energy>  (8) 
84.03908420772653

>  <Genealogy>  (8) 
COCCOCCOCC[NH2+]c1c2ccccc2[n+](C)c2ccccc12 (protonated)
COCCOCCOCC[NH2+]c1c2ccccc2[n+](C)c2ccccc12 (3D coordinates assigned)
COCCOCCOCC[NH2+]c1c2ccccc2[n+](C)c2ccccc12 (optimized conformer: 84.03908420772653 kcal/mol)

>  <smiles>  (8) 
COCCOCCOCCNc1c2ccccc2[n+](C)c2ccccc12

>  <score_type>  (8) 
oracle

>  <origin>  (8) 
adg

>  <m_score__min__energy>  (8) 
-2.7200000000000002

>  <m_primary>  (8) 
energy

$$$$
8:0
     RDKit          3D

 45 46  0  0  0  0  0  0  0  0999 V2000
   55.2850   29.7810   43.7370 C   0  0  0  0  0  0  0  0  0  0  0  0
   55.5290   29.1350   44.9660 O   0  0  0  0  0  0  0  0  0  0  0  0
   56.9210   29.0410   45.2070 C   0  0  0  0  0  0  0  0  0  0  0  0
   57.7020   29.3110   43.9160 C   0  0  0  0  0  0  0  0  0  0  0  0
   58.3980   30.6130   43.9970 N   0  0  0  0  0  0  0  0  0  0  0  0
   57.7760   31.6000   43.0820 C   0  0  0  0  0  0  0  0  0  0  0  0
   58.1700   33.0340   43.4510 C   0  0  0  0  0  0  0  0  0  0  0  0
   57.6200   33.4140   44.8470 C   0  0  0  0  0  0  0  0  0  0  0  0
   58.4760   34.5380   45.4700 C   0  0  0  0  0  0  0  0  0  0  0  0
   59.8940   34.1480   45.5170 N   0  0  0  0  0  0  0  0  0  0  0  0
   60.4870   34.3760   46.8440 C   0  0  0  0  0  0  0  0  0  0  0  0
   61.6770   33.4850   47.0950 C   0  0  0  0  0  0  0  0  0  0  0  0
   62.9880   33.7940   46.7960 C   0  0  0  0  0  0  0  0  0  0  0  0
   63.7000   32.6660   47.1530 C   0  0  0  0  0  0  0  0  0  0  0  0
   62.8580   31.7310   47.6360 N   0  0  0  0  0  0  0  0  0  0  0  0
   61.6340   32.2320   47.5930 N   0  0  0  0  0  0  0  0  0  0  0  0
   60.4520   31.5080   48.0490 C   0  0  0  0  0  0  0  0  0  0  0  0
   57.5100   32.1710   45.7720 C   0  0  0  0  0  0  0  0  0  0  0  0
   58.5390   31.0910   45.4010 C   0  0  0  0  0  0  0  0  0  0  0  0
   54.9021   30.7948   43.9254 H   0  0  0  0  0  0  0  0  0  0  0  0
   56.2215   29.8435   43.1633 H   0  0  0  0  0  0  0  0  0  0  0  0
   54.5411   29.2088   43.1633 H   0  0  0  0  0  0  0  0  0  0  0  0
   57.2088   29.7820   45.9673 H   0  0  0  0  0  0  0  0  0  0  0  0
   57.1557   28.0269   45.5626 H   0  0  0  0  0  0  0  0  0  0  0  0
   58.4436   28.5123   43.7673 H   0  0  0  0  0  0  0  0  0  0  0  0
   56.9976   29.3350   43.0714 H   0  0  0  0  0  0  0  0  0  0  0  0
   58.1065   31.3919   42.0537 H   0  0  0  0  0  0  0  0  0  0  0  0
   56.6831   31.5094   43.1680 H   0  0  0  0  0  0  0  0  0  0  0  0
   59.2670   33.1151   43.4614 H   0  0  0  0  0  0  0  0  0  0  0  0
   57.7420   33.7199   42.7051 H   0  0  0  0  0  0  0  0  0  0  0  0
   56.5973   33.8014   44.7287 H   0  0  0  0  0  0  0  0  0  0  0  0
   58.3723   35.4493   44.8628 H   0  0  0  0  0  0  0  0  0  0  0  0
   58.1258   34.7209   46.4966 H   0  0  0  0  0  0  0  0  0  0  0  0
   60.4310   34.7030   44.8130 H   0  0  0  0  0  0  0  0  0  0  0  0
   60.8091   35.4255   46.9128 H   0  0  0  0  0  0  0  0  0  0  0  0
   59.7235   34.1420   47.6005 H   0  0  0  0  0  0  0  0  0  0  0  0
   63.3786   34.7294   46.3689 H   0  0  0  0  0  0  0  0  0  0  0  0
   64.7895   32.5483   47.0576 H   0  0  0  0  0  0  0  0  0  0  0  0
   60.4314   31.4954   49.1487 H   0  0  0  0  0  0  0  0  0  0  0  0
   59.5477   32.0073   47.6710 H   0  0  0  0  0  0  0  0  0  0  0  0
   60.4859   30.4755   47.6710 H   0  0  0  0  0  0  0  0  0  0  0  0
   57.6823   32.4847   46.8121 H   0  0  0  0  0  0  0  0  0  0  0  0
   56.5046   31.7418   45.6501 H   0  0  0  0  0  0  0  0  0  0  0  0
   59.5483   31.5090   45.5296 H   0  0  0  0  0  0  0  0  0  0  0  0
   58.3653   30.2290   46.0619 H   0  0  0  0  0  0  0  0  0  0  0  0
  1  2  1  0
  2  3  1  0
  3  4  1  0
  4  5  1  0
  5  6  1  0
  6  7  1  0
  7  8  1  0
  8  9  1  0
  9 10  1  0
 10 11  1  0
 11 12  1  0
 12 13  2  0
 13 14  1  0
 14 15  2  0
 15 16  1  0
 16 17  1  0
  8 18  1  0
 18 19  1  0
 19  5  1  0
 16 12  1  0
  1 20  1  0
  1 21  1  0
  1 22  1  0
  3 23  1  0
  3 24  1  0
  4 25  1  0
  4 26  1  0
  6 27  1  0
  6 28  1  0
  7 29  1  0
  7 30  1  0
  8 31  1  0
  9 32  1  0
  9 33  1  0
 10 34  1  0
 11 35  1  0
 11 36  1  0
 13 37  1  0
 14 38  1  0
 17 39  1  0
 17 40  1  0
 17 41  1  0
 18 42  1  0
 18 43  1  0
 19 44  1  0
 19 45  1  0
M  END
>  <UniqueID>  (9) 
9

>  <SMILES>  (9) 
COCCN1CCC(CNCc2ccnn2C)CC1

>  <Energy>  (9) 
80.1361785611162

>  <Genealogy>  (9) 
COCCN1CCC(CNCc2ccnn2C)CC1 (3D coordinates assigned)
COCCN1CCC(CNCc2ccnn2C)CC1 (nonaromatic ring conformer: 80.1361785611162 kcal/mol)

>  <smiles>  (9) 
COCCN1CCC(CNCc2ccnn2C)CC1

>  <score_type>  (9) 
oracle

>  <origin>  (9) 
adg

>  <m_score__min__energy>  (9) 
-6.75

>  <m_primary>  (9) 
energy

$$$$
9:0
     RDKit          3D

 74 77  0  0  0  0  0  0  0  0999 V2000
   61.7060   29.8720   50.5280 C   0  0  0  0  0  0  0  0  0  0  0  0
   60.3080   29.2830   50.3300 C   0  0  0  0  0  0  0  0  0  0  0  0
   59.5290   29.9600   49.2600 N   0  0  0  0  0  0  0  0  0  0  0  0
   58.5290   30.8730   49.8820 C   0  0  0  0  0  0  0  0  0  0  0  0
   58.1350   30.3650   51.2680 C   0  0  0  0  0  0  0  0  0  0  0  0
   58.8860   28.9570   48.3700 C   0  0  0  0  0  0  0  0  0  0  0  0
   59.8750   28.1920   47.4720 C   0  0  0  0  0  0  0  0  0  0  0  0
   60.3260   28.9930   46.3290 N   0  0  0  0  0  0  0  0  0  0  0  0
   59.6780   30.2170   45.9320 C   0  0  0  0  0  0  0  0  0  0  0  0
   58.5940   30.2000   45.0320 C   0  0  0  0  0  0  0  0  0  0  0  0
   58.0540   28.9830   44.5690 C   0  0  0  0  0  0  0  0  0  0  0  0
   57.0420   28.9690   43.6120 C   0  0  0  0  0  0  0  0  0  0  0  0
   56.5420   30.1660   43.1130 C   0  0  0  0  0  0  0  0  0  0  0  0
   57.0160   31.3820   43.6020 C   0  0  0  0  0  0  0  0  0  0  0  0
   58.0160   31.4270   44.6100 C   0  0  0  0  0  0  0  0  0  0  0  0
   58.4250   32.6210   45.1730 N   0  0  0  0  0  0  0  0  0  0  0  0
   57.6190   33.8430   44.9570 C   0  0  0  0  0  0  0  0  0  0  0  0
   59.5370   32.6540   45.9970 C   0  0  0  0  0  0  0  0  0  0  0  0
   60.1270   33.8750   46.4030 C   0  0  0  0  0  0  0  0  0  0  0  0
   61.1850   33.8980   47.3090 C   0  0  0  0  0  0  0  0  0  0  0  0
   61.7080   32.7100   47.8300 C   0  0  0  0  0  0  0  0  0  0  0  0
   62.8610   32.7590   48.7670 C   0  0  0  0  0  0  0  0  0  0  0  0
   62.6700   32.9800   50.1040 N   0  0  0  0  0  0  0  0  0  0  0  0
   63.8380   33.1020   50.7730 C   0  0  0  0  0  0  0  0  0  0  0  0
   63.9550   33.4460   52.2290 C   0  0  0  0  0  0  0  0  0  0  0  0
   62.6720   33.8900   52.7990 N   0  0  0  0  0  0  0  0  0  0  0  0
   61.9080   32.7750   53.3750 C   0  0  0  0  0  0  0  0  0  0  0  0
   60.6000   32.5780   52.5850 C   0  0  0  0  0  0  0  0  0  0  0  0
   60.0040   33.8310   52.0710 N   0  0  0  0  0  0  0  0  0  0  0  0
   58.7900   34.2320   52.8040 C   0  0  0  0  0  0  0  0  0  0  0  0
   59.7580   33.7930   50.6200 C   0  0  0  0  0  0  0  0  0  0  0  0
   65.0950   32.9310   49.6970 S   0  0  0  0  0  0  0  0  0  0  0  0
   64.1590   32.6820   48.3500 N   0  0  0  0  0  0  0  0  0  0  0  0
   61.1900   31.4890   47.3740 C   0  0  0  0  0  0  0  0  0  0  0  0
   60.1340   31.4460   46.4390 C   0  0  0  0  0  0  0  0  0  0  0  0
   61.9174   29.9611   51.6038 H   0  0  0  0  0  0  0  0  0  0  0  0
   62.4516   29.2115   50.0613 H   0  0  0  0  0  0  0  0  0  0  0  0
   61.7542   30.8669   50.0613 H   0  0  0  0  0  0  0  0  0  0  0  0
   60.4114   28.2200   50.0668 H   0  0  0  0  0  0  0  0  0  0  0  0
   59.7586   29.4261   51.2722 H   0  0  0  0  0  0  0  0  0  0  0  0
   58.9646   31.8788   49.9748 H   0  0  0  0  0  0  0  0  0  0  0  0
   57.6323   30.9072   49.2459 H   0  0  0  0  0  0  0  0  0  0  0  0
   58.6170   30.9865   52.0370 H   0  0  0  0  0  0  0  0  0  0  0  0
   57.0424   30.4218   51.3824 H   0  0  0  0  0  0  0  0  0  0  0  0
   58.4619   29.3209   51.3824 H   0  0  0  0  0  0  0  0  0  0  0  0
   58.3539   28.2276   48.9984 H   0  0  0  0  0  0  0  0  0  0  0  0
   58.2114   29.5112   47.7008 H   0  0  0  0  0  0  0  0  0  0  0  0
   60.7517   27.9088   48.0730 H   0  0  0  0  0  0  0  0  0  0  0  0
   59.3545   27.3070   47.0772 H   0  0  0  0  0  0  0  0  0  0  0  0
   61.1190   28.6460   45.7470 H   0  0  0  0  0  0  0  0  0  0  0  0
   58.4367   28.0323   44.9685 H   0  0  0  0  0  0  0  0  0  0  0  0
   56.6388   28.0112   43.2514 H   0  0  0  0  0  0  0  0  0  0  0  0
   55.7698   30.1536   42.3297 H   0  0  0  0  0  0  0  0  0  0  0  0
   56.6092   32.3221   43.2010 H   0  0  0  0  0  0  0  0  0  0  0  0
   57.3359   34.2722   45.9295 H   0  0  0  0  0  0  0  0  0  0  0  0
   58.2107   34.5771   44.3905 H   0  0  0  0  0  0  0  0  0  0  0  0
   56.7112   33.5881   44.3905 H   0  0  0  0  0  0  0  0  0  0  0  0
   59.7434   34.8222   45.9960 H   0  0  0  0  0  0  0  0  0  0  0  0
   61.6144   34.8623   47.6184 H   0  0  0  0  0  0  0  0  0  0  0  0
   64.2974   32.5559   52.7772 H   0  0  0  0  0  0  0  0  0  0  0  0
   64.6723   34.2745   52.3243 H   0  0  0  0  0  0  0  0  0  0  0  0
   62.0990   34.3400   52.0450 H   0  0  0  0  0  0  0  0  0  0  0  0
   62.5086   31.8549   53.3229 H   0  0  0  0  0  0  0  0  0  0  0  0
   61.6688   33.0014   54.4245 H   0  0  0  0  0  0  0  0  0  0  0  0
   60.8105   31.9202   51.7289 H   0  0  0  0  0  0  0  0  0  0  0  0
   59.8705   32.1470   53.2864 H   0  0  0  0  0  0  0  0  0  0  0  0
   58.9778   34.1700   53.8861 H   0  0  0  0  0  0  0  0  0  0  0  0
   58.5248   35.2655   52.5365 H   0  0  0  0  0  0  0  0  0  0  0  0
   57.9614   33.5598   52.5365 H   0  0  0  0  0  0  0  0  0  0  0  0
   58.6866   33.6275   50.4340 H   0  0  0  0  0  0  0  0  0  0  0  0
   60.0647   34.7492   50.1709 H   0  0  0  0  0  0  0  0  0  0  0  0
   60.3389   32.9739   50.1709 H   0  0  0  0  0  0  0  0  0  0  0  0
   64.5170   32.5070   47.3890 H   0  0  0  0  0  0  0  0  0  0  0  0
   61.6148   30.5475   47.7522 H   0  0  0  0  0  0  0  0  0  0  0  0
  1  2  1  0
  2  3  1  0
  3  4  1  0
  4  5  1  0
  3  6  1  0
  6  7  1  0
  7  8  1  0
  8  9  1  0
  9 10  2  0
 10 11  1  0
 11 12  2  0
 12 13  1  0
 13 14  2  0
 14 15  1  0
 15 16  2  0
 16 17  1  0
 16 18  1  0
 18 19  2  0
 19 20  1  0
 20 21  2  0
 21 22  1  0
 22 23  1  0
 23 24  2  0
 24 25  1  0
 25 26  1  0
 26 27  1  0
 27 28  1  0
 28 29  1  0
 29 30  1  0
 29 31  1  0
 24 32  1  0
 32 33  1  0
 21 34  1  0
 34 35  2  0
 35  9  1  0
 15 10  1  0
 35 18  1  0
 33 22  2  0
  1 36  1  0
  1 37  1  0
  1 38  1  0
  2 39  1  0
  2 40  1  0
  4 41  1  0
  4 42  1  0
  5 43  1  0
  5 44  1  0
  5 45  1  0
  6 46  1  0
  6 47  1  0
  7 48  1  0
  7 49  1  0
  8 50  1  0
 11 51  1  0
 12 52  1  0
 13 53  1  0
 14 54  1  0
 17 55  1  0
 17 56  1  0
 17 57  1  0
 19 58  1  0
 20 59  1  0
 25 60  1  0
 25 61  1  0
 26 62  1  0
 27 63  1  0
 27 64  1  0
 28 65  1  0
 28 66  1  0
 30 67  1  0
 30 68  1  0
 30 69  1  0
 31 70  1  0
 31 71  1  0
 31 72  1  0
 33 73  1  0
 34 74  1  0
M  CHG  2  16   1  33   1
M  END
>  <UniqueID>  (10) 
10

>  <SMILES>  (10) 
CCN(CC)CCNc1c2ccccc2[n+](C)c2ccc(-c3nc(CNCCN(C)C)s[nH+]3)cc12

>  <Energy>  (10) 
142.69053357287433

>  <Genealogy>  (10) 
CCN(CC)CCNc1c2ccccc2[n+](C)c2ccc(-c3nc(CNCCN(C)C)s[nH+]3)cc12 (protonated)
CCN(CC)CCNc1c2ccccc2[n+](C)c2ccc(-c3nc(CNCCN(C)C)s[nH+]3)cc12 (3D coordinates assigned)
CCN(CC)CCNc1c2ccccc2[n+](C)c2ccc(-c3nc(CNCCN(C)C)s[nH+]3)cc12 (optimized conformer: 142.69053357287433 kcal/mol)

>  <smiles>  (10) 
CCN(CC)CCNc1c2ccccc2[n+](C)c2ccc(-c3nsc(CNCCN(C)C)n3)cc12

>  <score_type>  (10) 
oracle

>  <origin>  (10) 
adg

>  <m_score__min__energy>  (10) 
-5.8600000000000003

>  <m_primary>  (10) 
energy

$$$$
10:0
     RDKit          3D

 72 75  0  0  0  0  0  0  0  0999 V2000
   60.7600   28.9610   52.4890 C   0  0  0  0  0  0  0  0  0  0  0  0
   61.5060   28.3400   51.3210 C   0  0  0  0  0  0  0  0  0  0  0  0
   61.1220   28.9880   50.1120 O   0  0  0  0  0  0  0  0  0  0  0  0
   60.3870   28.3800   49.0820 C   0  0  0  0  0  0  0  0  0  0  0  0
   60.7260   27.1130   48.5700 C   0  0  0  0  0  0  0  0  0  0  0  0
   59.9620   26.5330   47.5560 C   0  0  0  0  0  0  0  0  0  0  0  0
   58.8490   27.2080   47.0340 C   0  0  0  0  0  0  0  0  0  0  0  0
   57.9670   26.5430   46.0110 C   0  0  0  0  0  0  0  0  0  0  0  0
   56.5670   27.1680   45.9770 C   0  0  0  0  0  0  0  0  0  0  0  0
   56.4600   28.1470   44.8810 N   0  0  0  0  0  0  0  0  0  0  0  0
   56.8720   29.5050   45.2730 C   0  0  0  0  0  0  0  0  0  0  0  0
   58.1430   29.9670   44.5430 C   0  0  0  0  0  0  0  0  0  0  0  0
   58.8930   30.9610   45.3880 C   0  0  0  0  0  0  0  0  0  0  0  0
   58.3970   32.1900   45.6440 N   0  0  0  0  0  0  0  0  0  0  0  0
   59.3130   32.7620   46.4480 C   0  0  0  0  0  0  0  0  0  0  0  0
   59.1910   34.1560   46.9740 C   0  0  0  0  0  0  0  0  0  0  0  0
   60.3530   31.8800   46.6680 C   0  0  0  0  0  0  0  0  0  0  0  0
   61.5750   32.1490   47.4570 C   0  0  0  0  0  0  0  0  0  0  0  0
   62.5050   33.0950   47.0060 C   0  0  0  0  0  0  0  0  0  0  0  0
   63.6570   33.3440   47.7500 C   0  0  0  0  0  0  0  0  0  0  0  0
   63.8760   32.6520   48.9450 C   0  0  0  0  0  0  0  0  0  0  0  0
   65.0260   32.8820   49.7150 C   0  0  0  0  0  0  0  0  0  0  0  0
   65.2220   32.1780   50.9070 C   0  0  0  0  0  0  0  0  0  0  0  0
   64.2750   31.2430   51.3350 C   0  0  0  0  0  0  0  0  0  0  0  0
   63.1250   31.0070   50.5750 C   0  0  0  0  0  0  0  0  0  0  0  0
   62.9160   31.7070   49.3760 C   0  0  0  0  0  0  0  0  0  0  0  0
   61.7980   31.4840   48.6280 N   0  0  0  0  0  0  0  0  0  0  0  0
   60.0820   30.7330   46.0040 N   0  0  0  0  0  0  0  0  0  0  0  0
   60.9420   29.5470   45.8970 C   0  0  0  0  0  0  0  0  0  0  0  0
   60.8860   28.9480   44.4950 C   0  0  0  0  0  0  0  0  0  0  0  0
   58.5150   28.4750   47.5350 C   0  0  0  0  0  0  0  0  0  0  0  0
   59.2820   29.0680   48.5560 C   0  0  0  0  0  0  0  0  0  0  0  0
   58.9750   30.3320   49.0900 O   0  0  0  0  0  0  0  0  0  0  0  0
   58.5290   30.5880   50.4220 C   0  0  0  0  0  0  0  0  0  0  0  0
   58.5510   32.0830   50.7220 C   0  0  0  0  0  0  0  0  0  0  0  0
   61.1929   28.6006   53.4338 H   0  0  0  0  0  0  0  0  0  0  0  0
   60.8480   30.0564   52.4396 H   0  0  0  0  0  0  0  0  0  0  0  0
   59.6988   28.6758   52.4396 H   0  0  0  0  0  0  0  0  0  0  0  0
   62.5889   28.4594   51.4728 H   0  0  0  0  0  0  0  0  0  0  0  0
   61.2598   27.2698   51.2568 H   0  0  0  0  0  0  0  0  0  0  0  0
   61.5985   26.5768   48.9716 H   0  0  0  0  0  0  0  0  0  0  0  0
   60.2342   25.5417   47.1644 H   0  0  0  0  0  0  0  0  0  0  0  0
   58.4292   26.6497   45.0185 H   0  0  0  0  0  0  0  0  0  0  0  0
   57.8627   25.4829   46.2854 H   0  0  0  0  0  0  0  0  0  0  0  0
   55.8207   26.3741   45.8261 H   0  0  0  0  0  0  0  0  0  0  0  0
   56.3871   27.6846   46.9314 H   0  0  0  0  0  0  0  0  0  0  0  0
   57.0410   27.8280   44.0690 H   0  0  0  0  0  0  0  0  0  0  0  0
   56.0557   30.2035   45.0368 H   0  0  0  0  0  0  0  0  0  0  0  0
   57.0917   29.4901   46.3507 H   0  0  0  0  0  0  0  0  0  0  0  0
   58.7868   29.0968   44.3475 H   0  0  0  0  0  0  0  0  0  0  0  0
   57.8592   30.4439   43.5932 H   0  0  0  0  0  0  0  0  0  0  0  0
   59.1929   34.1344   48.0738 H   0  0  0  0  0  0  0  0  0  0  0  0
   60.0399   34.7580   46.6176 H   0  0  0  0  0  0  0  0  0  0  0  0
   58.2504   34.6014   46.6176 H   0  0  0  0  0  0  0  0  0  0  0  0
   62.3264   33.6397   46.0672 H   0  0  0  0  0  0  0  0  0  0  0  0
   64.3919   34.0829   47.3980 H   0  0  0  0  0  0  0  0  0  0  0  0
   65.7737   33.6164   49.3808 H   0  0  0  0  0  0  0  0  0  0  0  0
   66.1239   32.3604   51.5097 H   0  0  0  0  0  0  0  0  0  0  0  0
   64.4349   30.6909   52.2729 H   0  0  0  0  0  0  0  0  0  0  0  0
   62.3824   30.2712   50.9174 H   0  0  0  0  0  0  0  0  0  0  0  0
   61.0840   30.8010   48.9670 H   0  0  0  0  0  0  0  0  0  0  0  0
   61.9794   29.8348   46.1228 H   0  0  0  0  0  0  0  0  0  0  0  0
   60.5838   28.7920   46.6123 H   0  0  0  0  0  0  0  0  0  0  0  0
   60.7838   27.8551   44.5670 H   0  0  0  0  0  0  0  0  0  0  0  0
   60.0227   29.3621   43.9536 H   0  0  0  0  0  0  0  0  0  0  0  0
   61.8111   29.1949   43.9536 H   0  0  0  0  0  0  0  0  0  0  0  0
   57.6454   29.0104   47.1262 H   0  0  0  0  0  0  0  0  0  0  0  0
   57.5016   30.2121   50.5369 H   0  0  0  0  0  0  0  0  0  0  0  0
   59.2041   30.0773   51.1244 H   0  0  0  0  0  0  0  0  0  0  0  0
   58.5533   32.2385   51.8110 H   0  0  0  0  0  0  0  0  0  0  0  0
   59.4558   32.5312   50.2857 H   0  0  0  0  0  0  0  0  0  0  0  0
   57.6597   32.5577   50.2857 H   0  0  0  0  0  0  0  0  0  0  0  0
  1  2  1  0
  2  3  1  0
  3  4  1  0
  4  5  2  0
  5  6  1  0
  6  7  2  0
  7  8  1  0
  8  9  1  0
  9 10  1  0
 10 11  1  0
 11 12  1  0
 12 13  1  0
 13 14  2  0
 14 15  1  0
 15 16  1  0
 15 17  2  0
 17 18  1  0
 18 19  2  0
 19 20  1  0
 20 21  2  0
 21 22  1  0
 22 23  2  0
 23 24  1  0
 24 25  2  0
 25 26  1  0
 26 27  2  0
 17 28  1  0
 28 29  1  0
 29 30  1  0
  7 31  1  0
 31 32  2  0
 32 33  1  0
 33 34  1  0
 34 35  1  0
 32  4  1  0
 28 13  1  0
 27 18  1  0
 26 21  1  0
  1 36  1  0
  1 37  1  0
  1 38  1  0
  2 39  1  0
  2 40  1  0
  5 41  1  0
  6 42  1  0
  8 43  1  0
  8 44  1  0
  9 45  1  0
  9 46  1  0
 10 47  1  0
 11 48  1  0
 11 49  1  0
 12 50  1  0
 12 51  1  0
 16 52  1  0
 16 53  1  0
 16 54  1  0
 19 55  1  0
 20 56  1  0
 22 57  1  0
 23 58  1  0
 24 59  1  0
 25 60  1  0
 27 61  1  0
 29 62  1  0
 29 63  1  0
 30 64  1  0
 30 65  1  0
 30 66  1  0
 31 67  1  0
 34 68  1  0
 34 69  1  0
 35 70  1  0
 35 71  1  0
 35 72  1  0
M  CHG  1  27   1
M  END
>  <UniqueID>  (11) 
11

>  <SMILES>  (11) 
CCOc1ccc(CCNCCc2nc(C)c(-c3ccc4ccccc4[nH+]3)n2CC)cc1OCC

>  <Energy>  (11) 
97.77969270205773

>  <Genealogy>  (11) 
CCOc1ccc(CCNCCc2nc(C)c(-c3ccc4ccccc4[nH+]3)n2CC)cc1OCC (protonated)
CCOc1ccc(CCNCCc2nc(C)c(-c3ccc4ccccc4[nH+]3)n2CC)cc1OCC (3D coordinates assigned)
CCOc1ccc(CCNCCc2nc(C)c(-c3ccc4ccccc4[nH+]3)n2CC)cc1OCC (optimized conformer: 97.77969270205773 kcal/mol)

>  <smiles>  (11) 
CCOc1ccc(CCNCCc2nc(C)c(-c3ccc4ccccc4n3)n2CC)cc1OCC

>  <score_type>  (11) 
oracle

>  <origin>  (11) 
adg

>  <m_score__min__energy>  (11) 
-8.0700000000000003

>  <m_primary>  (11) 
energy

$$$$
11:0
     RDKit          3D

 44 46  0  0  0  0  0  0  0  0999 V2000
   58.0100   32.1900   43.0570 C   0  0  0  0  0  0  0  0  0  0  0  0
   57.4540   30.9570   43.7040 C   0  0  0  0  0  0  0  0  0  0  0  0
   58.3140   29.9400   44.1470 C   0  0  0  0  0  0  0  0  0  0  0  0
   57.7970   28.8040   44.7750 C   0  0  0  0  0  0  0  0  0  0  0  0
   56.4200   28.6780   44.9960 C   0  0  0  0  0  0  0  0  0  0  0  0
   55.9280   27.4850   45.6230 N   0  0  0  0  0  0  0  0  0  0  0  0
   56.6050   26.7080   46.6190 C   0  0  0  0  0  0  0  0  0  0  0  0
   56.2330   25.5340   46.8860 O   0  0  0  0  0  0  0  0  0  0  0  0
   57.7640   27.3020   47.3540 C   0  0  0  0  0  0  0  0  0  0  0  0
   58.9320   26.3160   47.3910 C   0  0  0  0  0  0  0  0  0  0  0  0
   60.4090   27.0470   48.1840 S   0  0  0  0  0  0  0  0  0  0  0  0
   59.7690   28.7250   48.2040 C   0  0  0  0  0  0  0  0  0  0  0  0
   59.0150   29.2170   49.2050 N   0  0  0  0  0  0  0  0  0  0  0  0
   58.7290   30.4710   48.8890 N   0  0  0  0  0  0  0  0  0  0  0  0
   59.3240   30.7320   47.7060 C   0  0  0  0  0  0  0  0  0  0  0  0
   59.2320   32.0460   47.0360 C   0  0  0  0  0  0  0  0  0  0  0  0
   60.3790   32.8220   46.7930 C   0  0  0  0  0  0  0  0  0  0  0  0
   60.2680   34.0710   46.1740 C   0  0  0  0  0  0  0  0  0  0  0  0
   59.0130   34.5600   45.8030 C   0  0  0  0  0  0  0  0  0  0  0  0
   57.8660   33.8040   46.0590 C   0  0  0  0  0  0  0  0  0  0  0  0
   57.9730   32.5570   46.6790 C   0  0  0  0  0  0  0  0  0  0  0  0
   59.9770   29.6430   47.2390 N   0  0  0  0  0  0  0  0  0  0  0  0
   60.7570   29.4900   46.0120 C   0  0  0  0  0  0  0  0  0  0  0  0
   55.5560   29.6940   44.5460 C   0  0  0  0  0  0  0  0  0  0  0  0
   56.0740   30.8310   43.9160 C   0  0  0  0  0  0  0  0  0  0  0  0
   58.3299   32.8995   43.8343 H   0  0  0  0  0  0  0  0  0  0  0  0
   58.8727   31.9183   42.4310 H   0  0  0  0  0  0  0  0  0  0  0  0
   57.2352   32.6568   42.4310 H   0  0  0  0  0  0  0  0  0  0  0  0
   59.3996   30.0378   43.9991 H   0  0  0  0  0  0  0  0  0  0  0  0
   58.4771   28.0022   45.0984 H   0  0  0  0  0  0  0  0  0  0  0  0
   58.0830   28.2232   46.8444 H   0  0  0  0  0  0  0  0  0  0  0  0
   57.4550   27.5288   48.3851 H   0  0  0  0  0  0  0  0  0  0  0  0
   58.6276   25.4239   47.9580 H   0  0  0  0  0  0  0  0  0  0  0  0
   59.1930   26.0544   46.3549 H   0  0  0  0  0  0  0  0  0  0  0  0
   61.3684   32.4448   47.0912 H   0  0  0  0  0  0  0  0  0  0  0  0
   61.1702   34.6694   45.9789 H   0  0  0  0  0  0  0  0  0  0  0  0
   58.9278   35.5395   45.3097 H   0  0  0  0  0  0  0  0  0  0  0  0
   56.8774   34.1915   45.7718 H   0  0  0  0  0  0  0  0  0  0  0  0
   57.0658   31.9714   46.8891 H   0  0  0  0  0  0  0  0  0  0  0  0
   61.8068   29.2841   46.2681 H   0  0  0  0  0  0  0  0  0  0  0  0
   60.3527   28.6540   45.4223 H   0  0  0  0  0  0  0  0  0  0  0  0
   60.6984   30.4167   45.4223 H   0  0  0  0  0  0  0  0  0  0  0  0
   54.4701   29.5939   44.6901 H   0  0  0  0  0  0  0  0  0  0  0  0
   55.3946   31.6304   43.5853 H   0  0  0  0  0  0  0  0  0  0  0  0
  1  2  1  0
  2  3  2  0
  3  4  1  0
  4  5  2  0
  5  6  1  0
  6  7  1  0
  7  8  2  0
  7  9  1  0
  9 10  1  0
 10 11  1  0
 11 12  1  0
 12 13  2  0
 13 14  1  0
 14 15  2  0
 15 16  1  0
 16 17  2  0
 17 18  1  0
 18 19  2  0
 19 20  1  0
 20 21  2  0
 15 22  1  0
 22 23  1  0
  5 24  1  0
 24 25  2  0
 25  2  1  0
 22 12  1  0
 21 16  1  0
  1 26  1  0
  1 27  1  0
  1 28  1  0
  3 29  1  0
  4 30  1  0
  9 31  1  0
  9 32  1  0
 10 33  1  0
 10 34  1  0
 17 35  1  0
 18 36  1  0
 19 37  1  0
 20 38  1  0
 21 39  1  0
 23 40  1  0
 23 41  1  0
 23 42  1  0
 24 43  1  0
 25 44  1  0
M  CHG  1   6  -1
M  END
>  <UniqueID>  (12) 
12

>  <SMILES>  (12) 
Cc1ccc([N-]C(=O)CCSc2nnc(-c3ccccc3)n2C)cc1

>  <Energy>  (12) 
81.35608971413625

>  <Genealogy>  (12) 
Cc1ccc([N-]C(=O)CCSc2nnc(-c3ccccc3)n2C)cc1 (protonated)
Cc1ccc([N-]C(=O)CCSc2nnc(-c3ccccc3)n2C)cc1 (3D coordinates assigned)
Cc1ccc([N-]C(=O)CCSc2nnc(-c3ccccc3)n2C)cc1 (optimized conformer: 81.35608971413625 kcal/mol)

>  <smiles>  (12) 
Cc1ccc(NC(=O)CCSc2nnc(-c3ccccc3)n2C)cc1

>  <score_type>  (12) 
oracle

>  <origin>  (12) 
adg

>  <m_score__min__energy>  (12) 
-10.69

>  <m_primary>  (12) 
energy

$$$$
12:0
     RDKit          3D

 46 49  0  0  0  0  0  0  0  0999 V2000
   59.5590   29.8990   49.4630 C   0  0  0  0  0  0  0  0  0  0  0  0
   58.7220   30.0190   48.3340 O   0  0  0  0  0  0  0  0  0  0  0  0
   58.7920   28.8510   47.5320 C   0  0  0  0  0  0  0  0  0  0  0  0
   59.5800   29.1190   46.2370 C   0  0  2  0  0  0  0  0  0  0  0  0
   60.1580   30.5540   46.1830 C   0  0  0  0  0  0  0  0  0  0  0  0
   59.1400   31.5780   45.8450 N   0  0  0  0  0  0  0  0  0  0  0  0
   59.3890   32.9420   46.2490 C   0  0  0  0  0  0  0  0  0  0  0  0
   59.0590   33.8950   45.4930 O   0  0  0  0  0  0  0  0  0  0  0  0
   59.9890   33.2580   47.5620 C   0  0  0  0  0  0  0  0  0  0  0  0
   59.1460   33.5240   48.6520 C   0  0  0  0  0  0  0  0  0  0  0  0
   59.6840   33.8070   49.9100 C   0  0  0  0  0  0  0  0  0  0  0  0
   61.0670   33.8400   50.0950 C   0  0  0  0  0  0  0  0  0  0  0  0
   61.9250   33.6000   49.0130 C   0  0  0  0  0  0  0  0  0  0  0  0
   63.3160   33.6540   49.1670 C   0  0  0  0  0  0  0  0  0  0  0  0
   64.1460   33.4400   48.0670 C   0  0  0  0  0  0  0  0  0  0  0  0
   63.5780   33.1740   46.8200 C   0  0  0  0  0  0  0  0  0  0  0  0
   62.2260   33.1140   46.6820 N   0  0  0  0  0  0  0  0  0  0  0  0
   61.3860   33.3120   47.7370 C   0  0  0  0  0  0  0  0  0  0  0  0
   58.1050   31.3400   44.8120 C   0  0  0  0  0  0  0  0  0  0  0  0
   58.0450   29.9020   44.4000 C   0  0  0  0  0  0  0  0  0  0  0  0
   58.7230   28.9000   45.0370 C   0  0  0  0  0  0  0  0  0  0  0  0
   58.2910   27.7240   44.4550 C   0  0  0  0  0  0  0  0  0  0  0  0
   57.3940   28.0380   43.4970 N   0  0  0  0  0  0  0  0  0  0  0  0
   57.2480   29.3560   43.4600 N   0  0  0  0  0  0  0  0  0  0  0  0
   56.2740   30.0560   42.6290 C   0  0  0  0  0  0  0  0  0  0  0  0
   58.9549   29.9856   50.3782 H   0  0  0  0  0  0  0  0  0  0  0  0
   60.0600   28.9198   49.4456 H   0  0  0  0  0  0  0  0  0  0  0  0
   60.3149   30.6980   49.4456 H   0  0  0  0  0  0  0  0  0  0  0  0
   59.2936   28.0538   48.1002 H   0  0  0  0  0  0  0  0  0  0  0  0
   57.7692   28.5474   47.2641 H   0  0  0  0  0  0  0  0  0  0  0  0
   60.4183   28.4068   46.2354 H   0  0  0  0  0  0  0  0  0  0  0  0
   60.5855   30.7966   47.1670 H   0  0  0  0  0  0  0  0  0  0  0  0
   60.9183   30.5720   45.3883 H   0  0  0  0  0  0  0  0  0  0  0  0
   58.0547   33.5096   48.5151 H   0  0  0  0  0  0  0  0  0  0  0  0
   59.0138   34.0049   50.7595 H   0  0  0  0  0  0  0  0  0  0  0  0
   61.4837   34.0544   51.0902 H   0  0  0  0  0  0  0  0  0  0  0  0
   63.7531   33.8649   50.1541 H   0  0  0  0  0  0  0  0  0  0  0  0
   65.2393   33.4805   48.1811 H   0  0  0  0  0  0  0  0  0  0  0  0
   64.2259   33.0123   45.9459 H   0  0  0  0  0  0  0  0  0  0  0  0
   57.1253   31.6349   45.2161 H   0  0  0  0  0  0  0  0  0  0  0  0
   58.3656   31.9371   43.9257 H   0  0  0  0  0  0  0  0  0  0  0  0
   58.6203   26.7098   44.7250 H   0  0  0  0  0  0  0  0  0  0  0  0
   56.8650   27.3600   42.9050 H   0  0  0  0  0  0  0  0  0  0  0  0
   55.5496   30.5766   43.2727 H   0  0  0  0  0  0  0  0  0  0  0  0
   56.7932   30.7889   41.9939 H   0  0  0  0  0  0  0  0  0  0  0  0
   55.7449   29.3302   41.9939 H   0  0  0  0  0  0  0  0  0  0  0  0
  1  2  1  0
  2  3  1  0
  3  4  1  0
  4  5  1  0
  5  6  1  0
  6  7  1  0
  7  8  2  0
  7  9  1  0
  9 10  2  0
 10 11  1  0
 11 12  2  0
 12 13  1  0
 13 14  2  0
 14 15  1  0
 15 16  2  0
 16 17  1  0
 17 18  2  0
  6 19  1  0
 19 20  1  0
 20 21  2  0
 21 22  1  0
 22 23  2  0
 23 24  1  0
 24 25  1  0
 21  4  1  0
 18  9  1  0
 24 20  1  0
 18 13  1  0
  1 26  1  0
  1 27  1  0
  1 28  1  0
  3 29  1  0
  3 30  1  0
  4 31  1  6
  5 32  1  0
  5 33  1  0
 10 34  1  0
 11 35  1  0
 12 36  1  0
 14 37  1  0
 15 38  1  0
 16 39  1  0
 19 40  1  0
 19 41  1  0
 22 42  1  0
 23 43  1  0
 25 44  1  0
 25 45  1  0
 25 46  1  0
M  CHG  1  23   1
M  END
>  <UniqueID>  (13) 
13

>  <SMILES>  (13) 
COC[C@@H]1CN(C(=O)c2cccc3cccnc23)Cc2c1c[nH+]n2C

>  <Energy>  (13) 
92.90507828972602

>  <Genealogy>  (13) 
COCC1CN(C(=O)c2cccc3cccnc23)Cc2c1c[nH+]n2C (protonated)
COC[C@@H]1CN(C(=O)c2cccc3cccnc23)Cc2c1c[nH+]n2C (chirality)
COC[C@@H]1CN(C(=O)c2cccc3cccnc23)Cc2c1c[nH+]n2C (3D coordinates assigned)
COC[C@@H]1CN(C(=O)c2cccc3cccnc23)Cc2c1c[nH+]n2C (nonaromatic ring conformer: 92.90507828972602 kcal/mol)

>  <smiles>  (13) 
COCC1CN(C(=O)c2cccc3cccnc23)Cc2c1cnn2C

>  <score_type>  (13) 
oracle

>  <origin>  (13) 
adg

>  <m_score__min__energy>  (13) 
-7.2000000000000002

>  <m_primary>  (13) 
energy

$$$$
13:0
     RDKit          3D

 59 61  0  0  0  0  0  0  0  0999 V2000
   62.7040   33.5030   46.7280 C   0  0  0  0  0  0  0  0  0  0  0  0
   63.7900   33.5030   47.8040 C   0  0  0  0  0  0  0  0  0  0  0  0
   63.3610   32.7680   49.0130 N   0  0  0  0  0  0  0  0  0  0  0  0
   64.5050   32.0350   49.5820 C   0  0  0  0  0  0  0  0  0  0  0  0
   62.7640   33.6670   50.0330 C   0  0  0  0  0  0  0  0  0  0  0  0
   61.4060   34.0570   49.6290 N   0  0  0  0  0  0  0  0  0  0  0  0
   60.3740   33.4570   50.4940 C   0  0  0  0  0  0  0  0  0  0  0  0
   59.7920   32.2010   49.8450 C   0  0  0  0  0  0  0  0  0  0  0  0
   60.4690   31.8980   48.5830 N   0  0  0  0  0  0  0  0  0  0  0  0
   59.7410   31.7330   47.3540 C   0  0  0  0  0  0  0  0  0  0  0  0
   59.2130   32.8500   46.6910 C   0  0  0  0  0  0  0  0  0  0  0  0
   58.5920   32.6910   45.4420 C   0  0  0  0  0  0  0  0  0  0  0  0
   58.3430   31.4310   44.9430 N   0  0  0  0  0  0  0  0  0  0  0  0
   57.4910   31.2800   43.7450 C   0  0  0  0  0  0  0  0  0  0  0  0
   58.9020   30.3200   45.5480 C   0  0  0  0  0  0  0  0  0  0  0  0
   59.5740   30.4500   46.7940 C   0  0  0  0  0  0  0  0  0  0  0  0
   60.2110   29.2520   47.4830 C   0  0  0  0  0  0  0  0  0  0  0  0
   59.7060   27.9070   46.9660 C   0  0  0  0  0  0  0  0  0  0  0  0
   59.7250   27.9010   45.4470 C   0  0  0  0  0  0  0  0  0  0  0  0
   58.7400   28.9400   44.9170 C   0  0  0  0  0  0  0  0  0  0  0  0
   58.1820   33.9610   44.7090 C   0  0  0  0  0  0  0  0  0  0  0  0
   59.2490   35.0540   44.8800 C   0  0  0  0  0  0  0  0  0  0  0  0
   59.6430   35.3130   46.3510 C   0  0  0  0  0  0  0  0  0  0  0  0
   59.1660   34.2250   47.3260 C   0  0  0  0  0  0  0  0  0  0  0  0
   62.4435   32.4659   46.4699 H   0  0  0  0  0  0  0  0  0  0  0  0
   61.8114   34.0215   47.1079 H   0  0  0  0  0  0  0  0  0  0  0  0
   63.0757   34.0215   45.8319 H   0  0  0  0  0  0  0  0  0  0  0  0
   64.6940   33.0253   47.3983 H   0  0  0  0  0  0  0  0  0  0  0  0
   63.9902   34.5463   48.0896 H   0  0  0  0  0  0  0  0  0  0  0  0
   64.4525   32.0687   50.6802 H   0  0  0  0  0  0  0  0  0  0  0  0
   64.4739   30.9882   49.2453 H   0  0  0  0  0  0  0  0  0  0  0  0
   65.4430   32.5007   49.2453 H   0  0  0  0  0  0  0  0  0  0  0  0
   62.7198   33.1427   50.9990 H   0  0  0  0  0  0  0  0  0  0  0  0
   63.3856   34.5698   50.1255 H   0  0  0  0  0  0  0  0  0  0  0  0
   61.3430   35.1000   49.7200 H   0  0  0  0  0  0  0  0  0  0  0  0
   60.8241   33.1888   51.4612 H   0  0  0  0  0  0  0  0  0  0  0  0
   59.5651   34.1879   50.6405 H   0  0  0  0  0  0  0  0  0  0  0  0
   59.9159   31.3511   50.5323 H   0  0  0  0  0  0  0  0  0  0  0  0
   58.7264   32.3772   49.6364 H   0  0  0  0  0  0  0  0  0  0  0  0
   61.5090   31.9900   48.5450 H   0  0  0  0  0  0  0  0  0  0  0  0
   56.4518   31.0958   44.0550 H   0  0  0  0  0  0  0  0  0  0  0  0
   57.5368   32.2003   43.1441 H   0  0  0  0  0  0  0  0  0  0  0  0
   57.8503   30.4315   43.1441 H   0  0  0  0  0  0  0  0  0  0  0  0
   61.2987   29.2985   47.3255 H   0  0  0  0  0  0  0  0  0  0  0  0
   59.9384   29.3105   48.5471 H   0  0  0  0  0  0  0  0  0  0  0  0
   60.3558   27.1034   47.3427 H   0  0  0  0  0  0  0  0  0  0  0  0
   58.6762   27.7456   47.3175 H   0  0  0  0  0  0  0  0  0  0  0  0
   60.7379   28.1431   45.0928 H   0  0  0  0  0  0  0  0  0  0  0  0
   59.4351   26.9044   45.0826 H   0  0  0  0  0  0  0  0  0  0  0  0
   58.8875   29.0356   43.8311 H   0  0  0  0  0  0  0  0  0  0  0  0
   57.7310   28.5860   45.1751 H   0  0  0  0  0  0  0  0  0  0  0  0
   58.0619   33.7376   43.6386 H   0  0  0  0  0  0  0  0  0  0  0  0
   57.2331   34.3231   45.1315 H   0  0  0  0  0  0  0  0  0  0  0  0
   60.1501   34.7490   44.3278 H   0  0  0  0  0  0  0  0  0  0  0  0
   58.8162   35.9887   44.4940 H   0  0  0  0  0  0  0  0  0  0  0  0
   60.7397   35.3737   46.4099 H   0  0  0  0  0  0  0  0  0  0  0  0
   59.1505   36.2492   46.6526 H   0  0  0  0  0  0  0  0  0  0  0  0
   59.8156   34.2310   48.2137 H   0  0  0  0  0  0  0  0  0  0  0  0
   58.1235   34.4420   47.6017 H   0  0  0  0  0  0  0  0  0  0  0  0
  1  2  1  0
  2  3  1  0
  3  4  1  0
  3  5  1  0
  5  6  1  0
  6  7  1  0
  7  8  1  0
  8  9  1  0
  9 10  1  0
 10 11  2  0
 11 12  1  0
 12 13  2  0
 13 14  1  0
 13 15  1  0
 15 16  2  0
 16 17  1  0
 17 18  1  0
 18 19  1  0
 19 20  1  0
 12 21  1  0
 21 22  1  0
 22 23  1  0
 23 24  1  0
 16 10  1  0
 24 11  1  0
 20 15  1  0
  1 25  1  0
  1 26  1  0
  1 27  1  0
  2 28  1  0
  2 29  1  0
  4 30  1  0
  4 31  1  0
  4 32  1  0
  5 33  1  0
  5 34  1  0
  6 35  1  0
  7 36  1  0
  7 37  1  0
  8 38  1  0
  8 39  1  0
  9 40  1  0
 14 41  1  0
 14 42  1  0
 14 43  1  0
 17 44  1  0
 17 45  1  0
 18 46  1  0
 18 47  1  0
 19 48  1  0
 19 49  1  0
 20 50  1  0
 20 51  1  0
 21 52  1  0
 21 53  1  0
 22 54  1  0
 22 55  1  0
 23 56  1  0
 23 57  1  0
 24 58  1  0
 24 59  1  0
M  CHG  1  13   1
M  END
>  <UniqueID>  (14) 
14

>  <SMILES>  (14) 
CCN(C)CNCCNc1c2c([n+](C)c3c1CCCC3)CCCC2

>  <Energy>  (14) 
75.94639602100435

>  <Genealogy>  (14) 
CCN(C)CNCCNc1c2c([n+](C)c3c1CCCC3)CCCC2 (3D coordinates assigned)
CCN(C)CNCCNc1c2c([n+](C)c3c1CCCC3)CCCC2 (nonaromatic ring conformer: 75.94639602100435 kcal/mol)

>  <smiles>  (14) 
CCN(C)CNCCNc1c2c([n+](C)c3c1CCCC3)CCCC2

>  <score_type>  (14) 
oracle

>  <origin>  (14) 
adg

>  <m_score__min__energy>  (14) 
-5.4100000000000001

>  <m_primary>  (14) 
energy

$$$$
14:0
     RDKit          3D

 33 35  0  0  0  0  0  0  0  0999 V2000
   59.2490   29.3540   44.5110 C   0  0  0  0  0  0  0  0  0  0  0  0
   57.8340   29.7210   44.4960 N   0  0  0  0  0  0  0  0  0  0  0  0
   56.7770   29.0110   44.9580 C   0  0  0  0  0  0  0  0  0  0  0  0
   56.8490   27.6730   45.5700 C   0  0  0  0  0  0  0  0  0  0  0  0
   58.0120   26.9970   45.8820 C   0  0  0  0  0  0  0  0  0  0  0  0
   57.6080   25.7960   46.4270 C   0  0  0  0  0  0  0  0  0  0  0  0
   56.2290   25.8140   46.4120 C   0  0  0  0  0  0  0  0  0  0  0  0
   55.8070   26.9440   45.8960 O   0  0  0  0  0  0  0  0  0  0  0  0
   55.6220   29.6950   44.8110 N   0  0  0  0  0  0  0  0  0  0  0  0
   55.9440   30.8510   44.2550 N   0  0  0  0  0  0  0  0  0  0  0  0
   57.2740   30.8710   44.0720 C   0  0  0  0  0  0  0  0  0  0  0  0
   58.1630   32.2720   43.3840 S   0  0  0  0  0  0  0  0  0  0  0  0
   57.3940   33.5000   44.4970 C   0  0  0  0  0  0  0  0  0  0  0  0
   58.2640   33.7620   45.6940 C   0  0  0  0  0  0  0  0  0  0  0  0
   58.1060   32.9980   46.8630 C   0  0  0  0  0  0  0  0  0  0  0  0
   58.9350   33.2190   47.9660 C   0  0  0  0  0  0  0  0  0  0  0  0
   59.9300   34.1990   47.9100 C   0  0  0  0  0  0  0  0  0  0  0  0
   60.0970   34.9610   46.7500 C   0  0  0  0  0  0  0  0  0  0  0  0
   59.2680   34.7440   45.6450 C   0  0  0  0  0  0  0  0  0  0  0  0
   59.5936   29.2646   45.5518 H   0  0  0  0  0  0  0  0  0  0  0  0
   59.3836   28.3912   43.9962 H   0  0  0  0  0  0  0  0  0  0  0  0
   59.8345   30.1300   43.9962 H   0  0  0  0  0  0  0  0  0  0  0  0
   59.0445   27.3437   45.7281 H   0  0  0  0  0  0  0  0  0  0  0  0
   58.2548   24.9875   46.7984 H   0  0  0  0  0  0  0  0  0  0  0  0
   55.5811   25.0036   46.7774 H   0  0  0  0  0  0  0  0  0  0  0  0
   55.2660   31.6090   44.0240 H   0  0  0  0  0  0  0  0  0  0  0  0
   57.2462   34.4411   43.9469 H   0  0  0  0  0  0  0  0  0  0  0  0
   56.4298   33.1014   44.8454 H   0  0  0  0  0  0  0  0  0  0  0  0
   57.3267   32.2231   46.9099 H   0  0  0  0  0  0  0  0  0  0  0  0
   58.8043   32.6207   48.8798 H   0  0  0  0  0  0  0  0  0  0  0  0
   60.5820   34.3707   48.7792 H   0  0  0  0  0  0  0  0  0  0  0  0
   60.8808   35.7316   46.7064 H   0  0  0  0  0  0  0  0  0  0  0  0
   59.4024   35.3447   44.7333 H   0  0  0  0  0  0  0  0  0  0  0  0
  1  2  1  0
  2  3  1  0
  3  4  1  0
  4  5  2  0
  5  6  1  0
  6  7  2  0
  7  8  1  0
  3  9  2  0
  9 10  1  0
 10 11  2  0
 11 12  1  0
 12 13  1  0
 13 14  1  0
 14 15  2  0
 15 16  1  0
 16 17  2  0
 17 18  1  0
 18 19  2  0
 11  2  1  0
 19 14  1  0
  8  4  1  0
  1 20  1  0
  1 21  1  0
  1 22  1  0
  5 23  1  0
  6 24  1  0
  7 25  1  0
 10 26  1  0
 13 27  1  0
 13 28  1  0
 15 29  1  0
 16 30  1  0
 17 31  1  0
 18 32  1  0
 19 33  1  0
M  CHG  1  10   1
M  END
>  <UniqueID>  (15) 
15

>  <SMILES>  (15) 
Cn1c(-c2ccco2)n[nH+]c1SCc1ccccc1

>  <Energy>  (15) 
91.00046257618783

>  <Genealogy>  (15) 
Cn1c(-c2ccco2)n[nH+]c1SCc1ccccc1 (protonated)
Cn1c(-c2ccco2)n[nH+]c1SCc1ccccc1 (3D coordinates assigned)
Cn1c(-c2ccco2)n[nH+]c1SCc1ccccc1 (optimized conformer: 91.00046257618783 kcal/mol)

>  <smiles>  (15) 
Cn1c(SCc2ccccc2)nnc1-c1ccco1

>  <score_type>  (15) 
oracle

>  <origin>  (15) 
adg

>  <m_score__min__energy>  (15) 
-5.9699999999999998

>  <m_primary>  (15) 
energy

$$$$
15:0
     RDKit          3D

 47 48  0  0  0  0  0  0  0  0999 V2000
   56.9790   29.7590   44.4950 C   0  0  0  0  0  0  0  0  0  0  0  0
   56.5660   31.0730   44.8540 O   0  0  0  0  0  0  0  0  0  0  0  0
   57.4380   32.1540   45.0720 C   0  0  0  0  0  0  0  0  0  0  0  0
   57.7100   32.6410   46.3660 C   0  0  0  0  0  0  0  0  0  0  0  0
   58.5870   33.7270   46.5570 C   0  0  0  0  0  0  0  0  0  0  0  0
   58.8820   34.2440   47.8680 N   0  0  0  0  0  0  0  0  0  0  0  0
   59.5370   33.4570   48.9150 C   0  0  0  0  0  0  0  0  0  0  0  0
   60.9000   32.9940   48.4640 C   0  0  0  0  0  0  0  0  0  0  0  0
   61.9160   33.8140   48.2840 C   0  0  0  0  0  0  0  0  0  0  0  0
   63.1290   33.0750   47.8330 C   0  0  0  0  0  0  0  0  0  0  0  0
   63.5140   33.5500   46.4190 C   0  0  0  0  0  0  0  0  0  0  0  0
   64.2870   33.3500   48.8120 C   0  0  0  0  0  0  0  0  0  0  0  0
   62.7450   31.6370   47.8340 N   0  0  0  0  0  0  0  0  0  0  0  0
   61.2910   31.5790   48.1530 C   0  0  0  0  0  0  0  0  0  0  0  0
   60.4850   31.0650   46.9410 C   0  0  0  0  0  0  0  0  0  0  0  0
   61.0290   30.6750   49.3780 C   0  0  0  0  0  0  0  0  0  0  0  0
   59.1880   34.3190   45.4380 C   0  0  0  0  0  0  0  0  0  0  0  0
   58.9250   33.8430   44.1530 C   0  0  0  0  0  0  0  0  0  0  0  0
   58.0520   32.7620   43.9610 C   0  0  0  0  0  0  0  0  0  0  0  0
   57.7730   32.2570   42.5730 C   0  0  0  0  0  0  0  0  0  0  0  0
   57.1638   29.1710   45.4061 H   0  0  0  0  0  0  0  0  0  0  0  0
   56.1894   29.2760   43.9007 H   0  0  0  0  0  0  0  0  0  0  0  0
   57.9030   29.8146   43.9007 H   0  0  0  0  0  0  0  0  0  0  0  0
   57.2323   32.1680   47.2367 H   0  0  0  0  0  0  0  0  0  0  0  0
   58.5980   35.2280   48.0820 H   0  0  0  0  0  0  0  0  0  0  0  0
   59.6470   34.0773   49.8167 H   0  0  0  0  0  0  0  0  0  0  0  0
   58.9183   32.5735   49.1309 H   0  0  0  0  0  0  0  0  0  0  0  0
   61.8741   34.9013   48.4455 H   0  0  0  0  0  0  0  0  0  0  0  0
   64.2050   34.4026   46.4941 H   0  0  0  0  0  0  0  0  0  0  0  0
   64.0037   32.7278   45.8766 H   0  0  0  0  0  0  0  0  0  0  0  0
   62.6082   33.8588   45.8766 H   0  0  0  0  0  0  0  0  0  0  0  0
   63.9215   33.2632   49.8459 H   0  0  0  0  0  0  0  0  0  0  0  0
   65.0905   32.6177   48.6445 H   0  0  0  0  0  0  0  0  0  0  0  0
   64.6755   34.3654   48.6445 H   0  0  0  0  0  0  0  0  0  0  0  0
   62.9560   31.1850   46.9140 H   0  0  0  0  0  0  0  0  0  0  0  0
   63.3040   31.1050   48.5430 H   0  0  0  0  0  0  0  0  0  0  0  0
   59.6070   30.5051   47.2954 H   0  0  0  0  0  0  0  0  0  0  0  0
   60.1539   31.9191   46.3320 H   0  0  0  0  0  0  0  0  0  0  0  0
   61.1197   30.4046   46.3320 H   0  0  0  0  0  0  0  0  0  0  0  0
   61.1957   31.2503   50.3006 H   0  0  0  0  0  0  0  0  0  0  0  0
   59.9897   30.3155   49.3528 H   0  0  0  0  0  0  0  0  0  0  0  0
   61.7150   29.8155   49.3528 H   0  0  0  0  0  0  0  0  0  0  0  0
   59.8743   35.1678   45.5741 H   0  0  0  0  0  0  0  0  0  0  0  0
   59.4053   34.3185   43.2851 H   0  0  0  0  0  0  0  0  0  0  0  0
   57.2418   31.2956   42.6325 H   0  0  0  0  0  0  0  0  0  0  0  0
   57.1503   32.9873   42.0354 H   0  0  0  0  0  0  0  0  0  0  0  0
   58.7226   32.1186   42.0354 H   0  0  0  0  0  0  0  0  0  0  0  0
  1  2  1  0
  2  3  1  0
  3  4  2  0
  4  5  1  0
  5  6  1  0
  6  7  1  0
  7  8  1  0
  8  9  2  0
  9 10  1  0
 10 11  1  0
 10 12  1  0
 10 13  1  0
 13 14  1  0
 14 15  1  0
 14 16  1  0
  5 17  2  0
 17 18  1  0
 18 19  2  0
 19 20  1  0
 19  3  1  0
 14  8  1  0
  1 21  1  0
  1 22  1  0
  1 23  1  0
  4 24  1  0
  6 25  1  0
  7 26  1  0
  7 27  1  0
  9 28  1  0
 11 29  1  0
 11 30  1  0
 11 31  1  0
 12 32  1  0
 12 33  1  0
 12 34  1  0
 13 35  1  0
 13 36  1  0
 15 37  1  0
 15 38  1  0
 15 39  1  0
 16 40  1  0
 16 41  1  0
 16 42  1  0
 17 43  1  0
 18 44  1  0
 20 45  1  0
 20 46  1  0
 20 47  1  0
M  CHG  1  13   1
M  END
>  <UniqueID>  (16) 
16

>  <SMILES>  (16) 
COc1cc(NCC2=CC(C)(C)[NH2+]C2(C)C)ccc1C

>  <Energy>  (16) 
45.884554910465376

>  <Genealogy>  (16) 
COc1cc(NCC2=CC(C)(C)[NH2+]C2(C)C)ccc1C (protonated)
COc1cc(NCC2=CC(C)(C)[NH2+]C2(C)C)ccc1C (3D coordinates assigned)
COc1cc(NCC2=CC(C)(C)[NH2+]C2(C)C)ccc1C (nonaromatic ring conformer: 45.884554910465376 kcal/mol)

>  <smiles>  (16) 
COc1cc(NCC2=CC(C)(C)NC2(C)C)ccc1C

>  <score_type>  (16) 
oracle

>  <origin>  (16) 
adg

>  <m_score__min__energy>  (16) 
-6.0999999999999996

>  <m_primary>  (16) 
energy

$$$$
16:0
     RDKit          3D

 48 49  0  0  0  0  0  0  0  0999 V2000
   63.1960   33.4920   46.9210 C   0  0  0  0  0  0  0  0  0  0  0  0
   61.7270   33.2070   47.2200 C   0  0  0  0  0  0  0  0  0  0  0  0
   60.8170   33.8240   46.1540 C   0  0  0  0  0  0  0  0  0  0  0  0
   59.7170   34.6900   46.7900 C   0  0  0  0  0  0  0  0  0  0  0  0
   58.3470   34.4840   46.1160 C   0  0  0  0  0  0  0  0  0  0  0  0
   57.4440   33.4520   46.8190 C   0  0  0  0  0  0  0  0  0  0  0  0
   58.1080   32.1430   46.9970 N   0  0  0  0  0  0  0  0  0  0  0  0
   58.1670   31.2180   45.9620 C   0  0  0  0  0  0  0  0  0  0  0  0
   57.6670   31.6120   44.2690 S   0  0  0  0  0  0  0  0  0  0  0  0
   57.1490   29.9660   43.6360 C   0  0  0  0  0  0  0  0  0  0  0  0
   55.8810   29.4090   44.2100 C   0  0  0  0  0  0  0  0  0  0  0  0
   54.7790   29.7190   43.6840 O   0  0  0  0  0  0  0  0  0  0  0  0
   55.9290   28.4480   45.2700 N   0  0  0  0  0  0  0  0  0  0  0  0
   57.1060   27.6400   45.5830 C   0  0  0  0  0  0  0  0  0  0  0  0
   56.6860   26.4730   46.4750 C   0  0  0  0  0  0  0  0  0  0  0  0
   57.7740   27.1210   44.3040 C   0  0  0  0  0  0  0  0  0  0  0  0
   58.7910   30.0180   46.1430 N   0  0  0  0  0  0  0  0  0  0  0  0
   59.3330   29.7040   47.3400 C   0  0  0  0  0  0  0  0  0  0  0  0
   59.9850   28.5070   47.6410 C   0  0  0  0  0  0  0  0  0  0  0  0
   60.4500   28.4760   48.9550 C   0  0  0  0  0  0  0  0  0  0  0  0
   60.0530   29.9350   49.7170 S   0  0  0  0  0  0  0  0  0  0  0  0
   59.2900   30.5980   48.3760 C   0  0  0  0  0  0  0  0  0  0  0  0
   58.6930   31.8380   48.2100 C   0  0  0  0  0  0  0  0  0  0  0  0
   58.6990   32.6620   49.1640 O   0  0  0  0  0  0  0  0  0  0  0  0
   63.7485   33.5992   47.8661 H   0  0  0  0  0  0  0  0  0  0  0  0
   63.6203   32.6594   46.3407 H   0  0  0  0  0  0  0  0  0  0  0  0
   63.2782   34.4228   46.3407 H   0  0  0  0  0  0  0  0  0  0  0  0
   61.5693   32.1186   47.2406 H   0  0  0  0  0  0  0  0  0  0  0  0
   61.4761   33.6528   48.1938 H   0  0  0  0  0  0  0  0  0  0  0  0
   61.4240   34.4510   45.4843 H   0  0  0  0  0  0  0  0  0  0  0  0
   60.3359   33.0082   45.5945 H   0  0  0  0  0  0  0  0  0  0  0  0
   59.6306   34.4265   47.8545 H   0  0  0  0  0  0  0  0  0  0  0  0
   60.0012   35.7445   46.6587 H   0  0  0  0  0  0  0  0  0  0  0  0
   57.8208   35.4499   46.1026 H   0  0  0  0  0  0  0  0  0  0  0  0
   58.5473   34.0927   45.1077 H   0  0  0  0  0  0  0  0  0  0  0  0
   57.1660   33.8434   47.8087 H   0  0  0  0  0  0  0  0  0  0  0  0
   56.5609   33.2937   46.1825 H   0  0  0  0  0  0  0  0  0  0  0  0
   57.0165   30.0509   42.5473 H   0  0  0  0  0  0  0  0  0  0  0  0
   57.9432   29.2685   43.9405 H   0  0  0  0  0  0  0  0  0  0  0  0
   57.8400   28.2657   46.1118 H   0  0  0  0  0  0  0  0  0  0  0  0
   56.7903   26.7627   47.5310 H   0  0  0  0  0  0  0  0  0  0  0  0
   55.6376   26.2122   46.2681 H   0  0  0  0  0  0  0  0  0  0  0  0
   57.3278   25.6039   46.2681 H   0  0  0  0  0  0  0  0  0  0  0  0
   58.6168   26.4662   44.5703 H   0  0  0  0  0  0  0  0  0  0  0  0
   57.0412   26.5530   43.7121 H   0  0  0  0  0  0  0  0  0  0  0  0
   58.1432   27.9715   43.7121 H   0  0  0  0  0  0  0  0  0  0  0  0
   60.1167   27.6832   46.9241 H   0  0  0  0  0  0  0  0  0  0  0  0
   60.9884   27.6381   49.4218 H   0  0  0  0  0  0  0  0  0  0  0  0
  1  2  1  0
  2  3  1  0
  3  4  1  0
  4  5  1  0
  5  6  1  0
  6  7  1  0
  7  8  1  0
  8  9  1  0
  9 10  1  0
 10 11  1  0
 11 12  2  0
 11 13  1  0
 13 14  1  0
 14 15  1  0
 14 16  1  0
  8 17  2  0
 17 18  1  0
 18 19  1  0
 19 20  2  0
 20 21  1  0
 21 22  1  0
 22 23  1  0
 23 24  2  0
 23  7  1  0
 22 18  2  0
  1 25  1  0
  1 26  1  0
  1 27  1  0
  2 28  1  0
  2 29  1  0
  3 30  1  0
  3 31  1  0
  4 32  1  0
  4 33  1  0
  5 34  1  0
  5 35  1  0
  6 36  1  0
  6 37  1  0
 10 38  1  0
 10 39  1  0
 14 40  1  0
 15 41  1  0
 15 42  1  0
 15 43  1  0
 16 44  1  0
 16 45  1  0
 16 46  1  0
 19 47  1  0
 20 48  1  0
M  CHG  1  13  -1
M  END
>  <UniqueID>  (17) 
17

>  <SMILES>  (17) 
CCCCCCn1c(SCC(=O)[N-]C(C)C)nc2ccsc2c1=O

>  <Energy>  (17) 
67.24103034673533

>  <Genealogy>  (17) 
CCCCCCn1c(SCC(=O)[N-]C(C)C)nc2ccsc2c1=O (protonated)
CCCCCCn1c(SCC(=O)[N-]C(C)C)nc2ccsc2c1=O (3D coordinates assigned)
CCCCCCn1c(SCC(=O)[N-]C(C)C)nc2ccsc2c1=O (optimized conformer: 67.24103034673533 kcal/mol)

>  <smiles>  (17) 
CCCCCCn1c(SCC(=O)NC(C)C)nc2ccsc2c1=O

>  <score_type>  (17) 
oracle

>  <origin>  (17) 
adg

>  <m_score__min__energy>  (17) 
-9.0800000000000001

>  <m_primary>  (17) 
energy

$$$$
17:0
     RDKit          3D

 58 60  0  0  0  0  0  0  0  0999 V2000
   54.6330   23.7270   44.5830 C   0  0  0  0  0  0  0  0  0  0  0  0
   54.1580   24.7790   45.5870 C   0  0  0  0  0  0  0  0  0  0  0  0
   55.2530   25.6320   46.0730 N   0  0  0  0  0  0  0  0  0  0  0  0
   56.3150   24.8590   46.7310 C   0  0  0  0  0  0  0  0  0  0  0  0
   57.5870   25.7060   46.8780 C   0  0  0  0  0  0  0  0  0  0  0  0
   58.0660   26.3220   45.5550 C   0  0  0  0  0  0  0  0  0  0  0  0
   57.1570   27.3890   45.1120 N   0  0  0  0  0  0  0  0  0  0  0  0
   57.7730   28.2260   44.0720 C   0  0  0  0  0  0  0  0  0  0  0  0
   57.1260   29.6110   44.0490 C   0  0  0  0  0  0  0  0  0  0  0  0
   57.0160   30.1400   45.4070 N   0  0  0  0  0  0  0  0  0  0  0  0
   58.1300   30.7980   46.0350 C   0  0  0  0  0  0  0  0  0  0  0  0
   58.4050   32.1480   45.7530 C   0  0  0  0  0  0  0  0  0  0  0  0
   57.5410   32.9030   44.9310 C   0  0  0  0  0  0  0  0  0  0  0  0
   57.7890   34.2520   44.6890 C   0  0  0  0  0  0  0  0  0  0  0  0
   58.8870   34.8740   45.2730 C   0  0  0  0  0  0  0  0  0  0  0  0
   59.7510   34.1480   46.0910 C   0  0  0  0  0  0  0  0  0  0  0  0
   59.5480   32.7640   46.3270 C   0  0  0  0  0  0  0  0  0  0  0  0
   60.4140   32.0250   47.1120 N   0  0  0  0  0  0  0  0  0  0  0  0
   61.7440   32.5710   47.4600 C   0  0  0  0  0  0  0  0  0  0  0  0
   60.0470   30.7650   47.5490 C   0  0  0  0  0  0  0  0  0  0  0  0
   60.7680   30.0900   48.5670 C   0  0  0  0  0  0  0  0  0  0  0  0
   60.4310   28.7810   48.9560 C   0  0  0  0  0  0  0  0  0  0  0  0
   61.1340   28.0840   49.9510 O   0  0  0  0  0  0  0  0  0  0  0  0
   61.3600   28.5670   51.2710 C   0  0  0  0  0  0  0  0  0  0  0  0
   59.3580   28.1430   48.3400 C   0  0  0  0  0  0  0  0  0  0  0  0
   58.6050   28.7980   47.3720 C   0  0  0  0  0  0  0  0  0  0  0  0
   58.9170   30.1180   46.9830 C   0  0  0  0  0  0  0  0  0  0  0  0
   55.0269   22.8545   45.1249 H   0  0  0  0  0  0  0  0  0  0  0  0
   53.7882   23.4154   43.9511 H   0  0  0  0  0  0  0  0  0  0  0  0
   55.4254   24.1546   43.9511 H   0  0  0  0  0  0  0  0  0  0  0  0
   53.4048   25.4159   45.1001 H   0  0  0  0  0  0  0  0  0  0  0  0
   53.7400   24.2470   46.4543 H   0  0  0  0  0  0  0  0  0  0  0  0
   54.8720   26.3370   46.7490 H   0  0  0  0  0  0  0  0  0  0  0  0
   55.9707   24.5475   47.7282 H   0  0  0  0  0  0  0  0  0  0  0  0
   56.5452   23.9768   46.1155 H   0  0  0  0  0  0  0  0  0  0  0  0
   57.3832   26.5208   47.5884 H   0  0  0  0  0  0  0  0  0  0  0  0
   58.3843   25.0358   47.2316 H   0  0  0  0  0  0  0  0  0  0  0  0
   59.0724   26.7427   45.6974 H   0  0  0  0  0  0  0  0  0  0  0  0
   58.0831   25.5345   44.7872 H   0  0  0  0  0  0  0  0  0  0  0  0
   56.3200   26.9300   44.6820 H   0  0  0  0  0  0  0  0  0  0  0  0
   58.8477   28.3316   44.2813 H   0  0  0  0  0  0  0  0  0  0  0  0
   57.6235   27.7464   43.0934 H   0  0  0  0  0  0  0  0  0  0  0  0
   57.7437   30.2905   43.4434 H   0  0  0  0  0  0  0  0  0  0  0  0
   56.1193   29.5294   43.6132 H   0  0  0  0  0  0  0  0  0  0  0  0
   56.2260   29.8060   46.0020 H   0  0  0  0  0  0  0  0  0  0  0  0
   56.6627   32.4210   44.4768 H   0  0  0  0  0  0  0  0  0  0  0  0
   57.1157   34.8259   44.0353 H   0  0  0  0  0  0  0  0  0  0  0  0
   59.0743   35.9422   45.0889 H   0  0  0  0  0  0  0  0  0  0  0  0
   60.6050   34.6570   46.5617 H   0  0  0  0  0  0  0  0  0  0  0  0
   61.8480   32.6137   48.5542 H   0  0  0  0  0  0  0  0  0  0  0  0
   62.5276   31.9218   47.0423 H   0  0  0  0  0  0  0  0  0  0  0  0
   61.8454   33.5835   47.0423 H   0  0  0  0  0  0  0  0  0  0  0  0
   61.6073   30.6003   49.0621 H   0  0  0  0  0  0  0  0  0  0  0  0
   61.0107   27.8204   51.9994 H   0  0  0  0  0  0  0  0  0  0  0  0
   62.4355   28.7462   51.4167 H   0  0  0  0  0  0  0  0  0  0  0  0
   60.8085   29.5075   51.4167 H   0  0  0  0  0  0  0  0  0  0  0  0
   59.1034   27.1106   48.6218 H   0  0  0  0  0  0  0  0  0  0  0  0
   57.7550   28.2805   46.9033 H   0  0  0  0  0  0  0  0  0  0  0  0
  1  2  1  0
  2  3  1  0
  3  4  1  0
  4  5  1  0
  5  6  1  0
  6  7  1  0
  7  8  1  0
  8  9  1  0
  9 10  1  0
 10 11  1  0
 11 12  2  0
 12 13  1  0
 13 14  2  0
 14 15  1  0
 15 16  2  0
 16 17  1  0
 17 18  2  0
 18 19  1  0
 18 20  1  0
 20 21  2  0
 21 22  1  0
 22 23  1  0
 23 24  1  0
 22 25  2  0
 25 26  1  0
 26 27  2  0
 27 11  1  0
 17 12  1  0
 27 20  1  0
  1 28  1  0
  1 29  1  0
  1 30  1  0
  2 31  1  0
  2 32  1  0
  3 33  1  0
  4 34  1  0
  4 35  1  0
  5 36  1  0
  5 37  1  0
  6 38  1  0
  6 39  1  0
  7 40  1  0
  8 41  1  0
  8 42  1  0
  9 43  1  0
  9 44  1  0
 10 45  1  0
 13 46  1  0
 14 47  1  0
 15 48  1  0
 16 49  1  0
 19 50  1  0
 19 51  1  0
 19 52  1  0
 21 53  1  0
 24 54  1  0
 24 55  1  0
 24 56  1  0
 25 57  1  0
 26 58  1  0
M  CHG  1  18   1
M  END
>  <UniqueID>  (18) 
18

>  <SMILES>  (18) 
CCNCCCNCCNc1c2ccccc2[n+](C)c2cc(OC)ccc12

>  <Energy>  (18) 
77.35140214391465

>  <Genealogy>  (18) 
CCNCCCNCCNc1c2ccccc2[n+](C)c2cc(OC)ccc12 (3D coordinates assigned)
CCNCCCNCCNc1c2ccccc2[n+](C)c2cc(OC)ccc12 (optimized conformer: 77.35140214391465 kcal/mol)

>  <smiles>  (18) 
CCNCCCNCCNc1c2ccccc2[n+](C)c2cc(OC)ccc12

>  <score_type>  (18) 
oracle

>  <origin>  (18) 
adg

>  <m_score__min__energy>  (18) 
-6.04

>  <m_primary>  (18) 
energy

$$$$
18:0
     RDKit          3D

 36 37  0  0  0  0  0  0  0  0999 V2000
   57.7510   25.7030   45.2050 C   0  0  0  0  0  0  0  0  0  0  0  0
   56.6560   26.2800   46.0990 C   0  0  0  0  0  0  0  0  0  0  0  0
   56.1620   27.5480   45.5600 N   0  0  0  0  0  0  0  0  0  0  0  0
   56.9640   28.7310   45.3690 C   0  0  0  0  0  0  0  0  0  0  0  0
   56.8340   29.4540   44.1740 C   0  0  0  0  0  0  0  0  0  0  0  0
   57.5950   30.6040   43.9530 C   0  0  0  0  0  0  0  0  0  0  0  0
   57.3940   31.5810   42.3230 Br  0  0  0  0  0  0  0  0  0  0  0  0
   58.5000   31.0440   44.9220 C   0  0  0  0  0  0  0  0  0  0  0  0
   58.6550   30.3340   46.1250 C   0  0  0  0  0  0  0  0  0  0  0  0
   59.6080   30.8060   47.1560 C   0  0  0  0  0  0  0  0  0  0  0  0
   60.8130   31.0240   46.8520 O   0  0  0  0  0  0  0  0  0  0  0  0
   59.1670   31.0120   48.5030 N   0  0  0  0  0  0  0  0  0  0  0  0
   58.7270   32.3010   49.0250 C   0  0  0  0  0  0  0  0  0  0  0  0
   59.5080   33.4520   48.3810 C   0  0  0  0  0  0  0  0  0  0  0  0
   58.9060   33.8520   47.0630 C   0  0  0  0  0  0  0  0  0  0  0  0
   59.6520   34.4160   46.0170 C   0  0  0  0  0  0  0  0  0  0  0  0
   58.9060   34.6550   44.8720 C   0  0  0  0  0  0  0  0  0  0  0  0
   57.3290   34.1500   45.1610 S   0  0  0  0  0  0  0  0  0  0  0  0
   57.5710   33.6290   46.7400 C   0  0  0  0  0  0  0  0  0  0  0  0
   57.8840   29.1760   46.3400 C   0  0  0  0  0  0  0  0  0  0  0  0
   58.5512   25.2813   45.8310 H   0  0  0  0  0  0  0  0  0  0  0  0
   57.3267   24.9114   44.5699 H   0  0  0  0  0  0  0  0  0  0  0  0
   58.1641   26.5006   44.5699 H   0  0  0  0  0  0  0  0  0  0  0  0
   55.8232   25.5638   46.1577 H   0  0  0  0  0  0  0  0  0  0  0  0
   57.0755   26.4608   47.0997 H   0  0  0  0  0  0  0  0  0  0  0  0
   55.1520   27.5860   45.2940 H   0  0  0  0  0  0  0  0  0  0  0  0
   56.1265   29.1122   43.4042 H   0  0  0  0  0  0  0  0  0  0  0  0
   59.0949   31.9517   44.7424 H   0  0  0  0  0  0  0  0  0  0  0  0
   57.6558   32.4290   48.8102 H   0  0  0  0  0  0  0  0  0  0  0  0
   58.9083   32.3193   50.1098 H   0  0  0  0  0  0  0  0  0  0  0  0
   59.4934   34.3181   49.0589 H   0  0  0  0  0  0  0  0  0  0  0  0
   60.5395   33.1140   48.2027 H   0  0  0  0  0  0  0  0  0  0  0  0
   60.7246   34.6464   46.0971 H   0  0  0  0  0  0  0  0  0  0  0  0
   59.2812   35.0979   43.9376 H   0  0  0  0  0  0  0  0  0  0  0  0
   56.8094   33.1897   47.4010 H   0  0  0  0  0  0  0  0  0  0  0  0
   58.0008   28.6116   47.2769 H   0  0  0  0  0  0  0  0  0  0  0  0
  1  2  1  0
  2  3  1  0
  3  4  1  0
  4  5  2  0
  5  6  1  0
  6  7  1  0
  6  8  2  0
  8  9  1  0
  9 10  1  0
 10 11  2  0
 10 12  1  0
 12 13  1  0
 13 14  1  0
 14 15  1  0
 15 16  1  0
 16 17  2  0
 17 18  1  0
 18 19  1  0
  9 20  2  0
 20  4  1  0
 19 15  2  0
  1 21  1  0
  1 22  1  0
  1 23  1  0
  2 24  1  0
  2 25  1  0
  3 26  1  0
  5 27  1  0
  8 28  1  0
 13 29  1  0
 13 30  1  0
 14 31  1  0
 14 32  1  0
 16 33  1  0
 17 34  1  0
 19 35  1  0
 20 36  1  0
M  CHG  1  12  -1
M  END
>  <UniqueID>  (19) 
19

>  <SMILES>  (19) 
CCNc1cc(Br)cc(C(=O)[N-]CCc2ccsc2)c1

>  <Energy>  (19) 
53.813300710855835

>  <Genealogy>  (19) 
CCNc1cc(Br)cc(C(=O)[N-]CCc2ccsc2)c1 (protonated)
CCNc1cc(Br)cc(C(=O)[N-]CCc2ccsc2)c1 (3D coordinates assigned)
CCNc1cc(Br)cc(C(=O)[N-]CCc2ccsc2)c1 (optimized conformer: 53.813300710855835 kcal/mol)

>  <smiles>  (19) 
CCNc1cc(Br)cc(C(=O)NCCc2ccsc2)c1

>  <score_type>  (19) 
oracle

>  <origin>  (19) 
adg

>  <m_score__min__energy>  (19) 
-8.3699999999999992

>  <m_primary>  (19) 
energy

$$$$
