0:0
     RDKit          3D

 60 62  0  0  0  0  0  0  0  0999 V2000
   58.7750   34.3140   45.1760 C   0  0  0  0  0  0  0  0  0  0  0  0
   59.1800   32.9670   45.6350 N   0  0  0  0  0  0  0  0  0  0  0  0
   60.3270   32.8050   46.3870 C   0  0  0  0  0  0  0  0  0  0  0  0
   61.3100   33.8230   46.4740 C   0  0  0  0  0  0  0  0  0  0  0  0
   62.4640   33.6460   47.2370 C   0  0  0  0  0  0  0  0  0  0  0  0
   62.6800   32.4480   47.9090 C   0  0  0  0  0  0  0  0  0  0  0  0
   61.7460   31.4190   47.8210 C   0  0  0  0  0  0  0  0  0  0  0  0
   60.5610   31.5830   47.0750 C   0  0  0  0  0  0  0  0  0  0  0  0
   59.6160   30.5440   46.9750 C   0  0  0  0  0  0  0  0  0  0  0  0
   59.7500   29.3380   47.7530 N   0  0  0  0  0  0  0  0  0  0  0  0
   59.3940   29.1630   49.1710 C   0  0  0  0  0  0  0  0  0  0  0  0
   59.1010   30.4600   49.9510 C   0  0  0  0  0  0  0  0  0  0  0  0
   57.7690   30.4500   50.5620 N   0  0  0  0  0  0  0  0  0  0  0  0
   57.8830   30.9540   51.8230 O   0  0  0  0  0  0  0  0  0  0  0  0
   56.6490   31.5480   52.1590 C   0  0  0  0  0  0  0  0  0  0  0  0
   55.6760   30.4630   52.5980 C   0  0  0  0  0  0  0  0  0  0  0  0
   56.2440   29.1920   52.3600 O   0  0  0  0  0  0  0  0  0  0  0  0
   56.3780   28.4690   53.5720 C   0  0  0  0  0  0  0  0  0  0  0  0
   57.8440   28.1050   53.8940 C   0  0  0  0  0  0  0  0  0  0  0  0
   58.8330   28.9910   53.2290 N   0  0  0  0  0  0  0  0  0  0  0  0
   59.9030   28.1740   52.6260 C   0  0  0  0  0  0  0  0  0  0  0  0
   59.4290   29.9580   54.1720 C   0  0  0  0  0  0  0  0  0  0  0  0
   58.5970   30.6420   46.0090 C   0  0  0  0  0  0  0  0  0  0  0  0
   57.7610   29.5420   45.7200 C   0  0  0  0  0  0  0  0  0  0  0  0
   56.7870   29.6300   44.7260 C   0  0  0  0  0  0  0  0  0  0  0  0
   56.6210   30.8140   44.0160 C   0  0  0  0  0  0  0  0  0  0  0  0
   57.4190   31.9200   44.3010 C   0  0  0  0  0  0  0  0  0  0  0  0
   58.4070   31.8680   45.3160 C   0  0  0  0  0  0  0  0  0  0  0  0
   58.5820   34.9559   46.0482 H   0  0  0  0  0  0  0  0  0  0  0  0
   59.5811   34.7524   44.5693 H   0  0  0  0  0  0  0  0  0  0  0  0
   57.8608   34.2352   44.5693 H   0  0  0  0  0  0  0  0  0  0  0  0
   61.1601   34.7678   45.9309 H   0  0  0  0  0  0  0  0  0  0  0  0
   63.2050   34.4560   47.3073 H   0  0  0  0  0  0  0  0  0  0  0  0
   63.5905   32.3129   48.5113 H   0  0  0  0  0  0  0  0  0  0  0  0
   61.9349   30.4674   48.3394 H   0  0  0  0  0  0  0  0  0  0  0  0
   60.1620   28.5050   47.2740 H   0  0  0  0  0  0  0  0  0  0  0  0
   58.4958   28.5297   49.2184 H   0  0  0  0  0  0  0  0  0  0  0  0
   60.2788   28.7182   49.6499 H   0  0  0  0  0  0  0  0  0  0  0  0
   59.8540   30.5737   50.7448 H   0  0  0  0  0  0  0  0  0  0  0  0
   59.1396   31.2979   49.2394 H   0  0  0  0  0  0  0  0  0  0  0  0
   57.5030   29.4380   50.6370 H   0  0  0  0  0  0  0  0  0  0  0  0
   56.7968   32.2643   52.9806 H   0  0  0  0  0  0  0  0  0  0  0  0
   56.2429   32.0777   51.2846 H   0  0  0  0  0  0  0  0  0  0  0  0
   55.4642   30.5740   53.6717 H   0  0  0  0  0  0  0  0  0  0  0  0
   54.7411   30.5579   52.0262 H   0  0  0  0  0  0  0  0  0  0  0  0
   55.9801   29.0832   54.3932 H   0  0  0  0  0  0  0  0  0  0  0  0
   55.8206   27.5274   53.4588 H   0  0  0  0  0  0  0  0  0  0  0  0
   57.9895   28.1753   54.9821 H   0  0  0  0  0  0  0  0  0  0  0  0
   58.0156   27.0864   53.5157 H   0  0  0  0  0  0  0  0  0  0  0  0
   58.3650   29.5200   52.4550 H   0  0  0  0  0  0  0  0  0  0  0  0
   60.5059   27.7136   53.4226 H   0  0  0  0  0  0  0  0  0  0  0  0
   59.4554   27.3857   52.0029 H   0  0  0  0  0  0  0  0  0  0  0  0
   60.5456   28.8134   52.0029 H   0  0  0  0  0  0  0  0  0  0  0  0
   59.2295   29.6342   55.2042 H   0  0  0  0  0  0  0  0  0  0  0  0
   60.5154   30.0089   54.0072 H   0  0  0  0  0  0  0  0  0  0  0  0
   58.9862   30.9514   54.0072 H   0  0  0  0  0  0  0  0  0  0  0  0
   57.8791   28.6055   46.2848 H   0  0  0  0  0  0  0  0  0  0  0  0
   56.1493   28.7618   44.5033 H   0  0  0  0  0  0  0  0  0  0  0  0
   55.8573   30.8776   43.2269 H   0  0  0  0  0  0  0  0  0  0  0  0
   57.2799   32.8491   43.7287 H   0  0  0  0  0  0  0  0  0  0  0  0
  1  2  1  0
  2  3  2  0
  3  4  1  0
  4  5  2  0
  5  6  1  0
  6  7  2  0
  7  8  1  0
  8  9  2  0
  9 10  1  0
 10 11  1  0
 11 12  1  0
 12 13  1  0
 13 14  1  0
 14 15  1  0
 15 16  1  0
 16 17  1  0
 17 18  1  0
 18 19  1  0
 19 20  1  0
 20 21  1  0
 20 22  1  0
  9 23  1  0
 23 24  2  0
 24 25  1  0
 25 26  2  0
 26 27  1  0
 27 28  2  0
 28  2  1  0
  8  3  1  0
 28 23  1  0
  1 29  1  0
  1 30  1  0
  1 31  1  0
  4 32  1  0
  5 33  1  0
  6 34  1  0
  7 35  1  0
 10 36  1  0
 11 37  1  0
 11 38  1  0
 12 39  1  0
 12 40  1  0
 13 41  1  0
 15 42  1  0
 15 43  1  0
 16 44  1  0
 16 45  1  0
 18 46  1  0
 18 47  1  0
 19 48  1  0
 19 49  1  0
 20 50  1  0
 21 51  1  0
 21 52  1  0
 21 53  1  0
 22 54  1  0
 22 55  1  0
 22 56  1  0
 24 57  1  0
 25 58  1  0
 26 59  1  0
 27 60  1  0
M  CHG  2   2   1  20   1
M  END
>  <UniqueID>  (1) 
1

>  <SMILES>  (1) 
C[n+]1c2ccccc2c(NCCNOCCOCC[NH+](C)C)c2ccccc21

>  <Energy>  (1) 
87.53104666068914

>  <Genealogy>  (1) 
C[n+]1c2ccccc2c(NCCNOCCOCC[NH+](C)C)c2ccccc21 (protonated)
C[n+]1c2ccccc2c(NCCNOCCOCC[NH+](C)C)c2ccccc21 (3D coordinates assigned)
C[n+]1c2ccccc2c(NCCNOCCOCC[NH+](C)C)c2ccccc21 (optimized conformer: 87.53104666068914 kcal/mol)

>  <smiles>  (1) 
CN(C)CCOCCONCCNc1c2ccccc2[n+](C)c2ccccc12

>  <score_type>  (1) 
oracle

>  <origin>  (1) 
adg

>  <m_score__min__energy>  (1) 
-3.5499999999999998

>  <m_primary>  (1) 
energy

$$$$
1:0
     RDKit          3D

 46 48  0  0  0  0  0  0  0  0999 V2000
   58.4870   27.4310   43.5520 C   0  0  0  0  0  0  0  0  0  0  0  0
   58.3390   27.1100   45.0310 C   0  0  0  0  0  0  0  0  0  0  0  0
   59.5360   27.4510   45.7010 O   0  0  0  0  0  0  0  0  0  0  0  0
   59.3580   27.3780   47.1030 C   0  0  0  0  0  0  0  0  0  0  0  0
   59.9340   28.6270   47.7720 C   0  0  0  0  0  0  0  0  0  0  0  0
   60.6010   29.4770   46.7850 N   0  0  0  0  0  0  0  0  0  0  0  0
   60.3930   30.8990   46.7620 C   0  0  0  0  0  0  0  0  0  0  0  0
   61.2970   31.7540   47.4160 C   0  0  0  0  0  0  0  0  0  0  0  0
   61.1060   33.1470   47.3550 C   0  0  0  0  0  0  0  0  0  0  0  0
   59.9700   33.6750   46.7790 N   0  0  0  0  0  0  0  0  0  0  0  0
   59.6450   35.1030   46.9740 C   0  0  0  0  0  0  0  0  0  0  0  0
   59.1280   32.8620   46.0430 C   0  0  0  0  0  0  0  0  0  0  0  0
   58.0770   33.3960   45.2560 C   0  0  0  0  0  0  0  0  0  0  0  0
   57.1920   32.5600   44.5740 C   0  0  0  0  0  0  0  0  0  0  0  0
   57.3310   31.1790   44.6560 C   0  0  0  0  0  0  0  0  0  0  0  0
   56.0970   30.0410   43.7430 Br  0  0  0  0  0  0  0  0  0  0  0  0
   58.3780   30.6250   45.3910 C   0  0  0  0  0  0  0  0  0  0  0  0
   59.3070   31.4520   46.0570 C   0  0  0  0  0  0  0  0  0  0  0  0
   62.1970   34.0200   47.9570 C   0  0  0  0  0  0  0  0  0  0  0  0
   63.5810   33.4560   47.6110 C   0  0  0  0  0  0  0  0  0  0  0  0
   63.7560   31.9750   48.0050 C   0  0  0  0  0  0  0  0  0  0  0  0
   62.4360   31.2260   48.2650 C   0  0  0  0  0  0  0  0  0  0  0  0
   58.9450   28.4244   43.4364 H   0  0  0  0  0  0  0  0  0  0  0  0
   59.1271   26.6743   43.0748 H   0  0  0  0  0  0  0  0  0  0  0  0
   57.4959   27.4264   43.0748 H   0  0  0  0  0  0  0  0  0  0  0  0
   57.5037   27.6891   45.4517 H   0  0  0  0  0  0  0  0  0  0  0  0
   58.1363   26.0364   45.1584 H   0  0  0  0  0  0  0  0  0  0  0  0
   58.2841   27.3062   47.3301 H   0  0  0  0  0  0  0  0  0  0  0  0
   59.8820   26.4902   47.4866 H   0  0  0  0  0  0  0  0  0  0  0  0
   59.1179   29.1933   48.2446 H   0  0  0  0  0  0  0  0  0  0  0  0
   60.6695   28.3174   48.5291 H   0  0  0  0  0  0  0  0  0  0  0  0
   61.0100   29.0170   45.9390 H   0  0  0  0  0  0  0  0  0  0  0  0
   59.5947   35.3239   48.0504 H   0  0  0  0  0  0  0  0  0  0  0  0
   60.4249   35.7234   46.5084 H   0  0  0  0  0  0  0  0  0  0  0  0
   58.6734   35.3248   46.5084 H   0  0  0  0  0  0  0  0  0  0  0  0
   57.9571   34.4869   45.1817 H   0  0  0  0  0  0  0  0  0  0  0  0
   56.3821   32.9948   43.9698 H   0  0  0  0  0  0  0  0  0  0  0  0
   58.4809   29.5315   45.4524 H   0  0  0  0  0  0  0  0  0  0  0  0
   62.1095   35.0398   47.5540 H   0  0  0  0  0  0  0  0  0  0  0  0
   62.0801   34.0359   49.0507 H   0  0  0  0  0  0  0  0  0  0  0  0
   63.7335   33.5482   46.5255 H   0  0  0  0  0  0  0  0  0  0  0  0
   64.3197   34.0340   48.1857 H   0  0  0  0  0  0  0  0  0  0  0  0
   64.2876   31.4625   47.1896 H   0  0  0  0  0  0  0  0  0  0  0  0
   64.3141   31.9660   48.9528 H   0  0  0  0  0  0  0  0  0  0  0  0
   62.5832   30.1602   48.0359 H   0  0  0  0  0  0  0  0  0  0  0  0
   62.1663   31.3770   49.3207 H   0  0  0  0  0  0  0  0  0  0  0  0
  1  2  1  0
  2  3  1  0
  3  4  1  0
  4  5  1  0
  5  6  1  0
  6  7  1  0
  7  8  2  0
  8  9  1  0
  9 10  2  0
 10 11  1  0
 10 12  1  0
 12 13  2  0
 13 14  1  0
 14 15  2  0
 15 16  1  0
 15 17  1  0
 17 18  2  0
  9 19  1  0
 19 20  1  0
 20 21  1  0
 21 22  1  0
 18  7  1  0
 22  8  1  0
 18 12  1  0
  1 23  1  0
  1 24  1  0
  1 25  1  0
  2 26  1  0
  2 27  1  0
  4 28  1  0
  4 29  1  0
  5 30  1  0
  5 31  1  0
  6 32  1  0
 11 33  1  0
 11 34  1  0
 11 35  1  0
 13 36  1  0
 14 37  1  0
 17 38  1  0
 19 39  1  0
 19 40  1  0
 20 41  1  0
 20 42  1  0
 21 43  1  0
 21 44  1  0
 22 45  1  0
 22 46  1  0
M  CHG  1  10   1
M  END
>  <UniqueID>  (2) 
2

>  <SMILES>  (2) 
CCOCCNc1c2c([n+](C)c3ccc(Br)cc13)CCCC2

>  <Energy>  (2) 
68.73884824086683

>  <Genealogy>  (2) 
CCOCCNc1c2c([n+](C)c3ccc(Br)cc13)CCCC2 (3D coordinates assigned)
CCOCCNc1c2c([n+](C)c3ccc(Br)cc13)CCCC2 (nonaromatic ring conformer: 68.73884824086683 kcal/mol)

>  <smiles>  (2) 
CCOCCNc1c2c([n+](C)c3ccc(Br)cc13)CCCC2

>  <score_type>  (2) 
oracle

>  <origin>  (2) 
adg

>  <m_score__min__energy>  (2) 
-5.6500000000000004

>  <m_primary>  (2) 
energy

$$$$
2:0
     RDKit          3D

 50 52  0  0  0  0  0  0  0  0999 V2000
   58.1430   27.1790   43.2310 C   0  0  0  0  0  0  0  0  0  0  0  0
   57.4320   28.1800   44.1340 C   0  0  0  0  0  0  0  0  0  0  0  0
   57.8220   29.5450   43.7840 N   0  0  0  0  0  0  0  0  0  0  0  0
   58.0780   30.5810   44.7540 C   0  0  0  0  0  0  0  0  0  0  0  0
   58.3160   30.2420   46.0910 C   0  0  0  0  0  0  0  0  0  0  0  0
   58.6160   31.2230   47.0480 C   0  0  0  0  0  0  0  0  0  0  0  0
   58.8150   30.8830   48.3950 C   0  0  0  0  0  0  0  0  0  0  0  0
   58.7470   29.6710   48.7510 O   0  0  0  0  0  0  0  0  0  0  0  0
   59.0790   31.8540   49.3210 N   0  0  0  0  0  0  0  0  0  0  0  0
   59.2870   31.4850   50.7380 C   0  0  0  0  0  0  0  0  0  0  0  0
   57.9760   31.6700   51.5280 C   0  0  0  0  0  0  0  0  0  0  0  0
   57.1200   30.4650   51.5890 N   0  0  0  0  0  0  0  0  0  0  0  0
   57.6990   29.3890   52.4090 C   0  0  0  0  0  0  0  0  0  0  0  0
   55.7380   30.7600   51.9980 C   0  0  0  0  0  0  0  0  0  0  0  0
   59.2030   33.1620   48.9280 C   0  0  0  0  0  0  0  0  0  0  0  0
   59.4570   34.0510   49.7920 O   0  0  0  0  0  0  0  0  0  0  0  0
   59.0540   33.5210   47.6100 N   0  0  0  0  0  0  0  0  0  0  0  0
   58.7330   32.5720   46.6640 C   0  0  0  0  0  0  0  0  0  0  0  0
   58.5390   32.9250   45.3000 C   0  0  0  0  0  0  0  0  0  0  0  0
   58.1360   31.9370   44.3600 C   0  0  0  0  0  0  0  0  0  0  0  0
   57.7900   32.3180   42.9360 C   0  0  0  0  0  0  0  0  0  0  0  0
   58.7100   34.3670   44.8680 C   0  0  0  0  0  0  0  0  0  0  0  0
   59.6330   35.1230   45.8120 C   0  0  0  0  0  0  0  0  0  0  0  0
   59.1480   34.9500   47.2440 C   0  0  0  0  0  0  0  0  0  0  0  0
   58.6699   26.4372   43.8492 H   0  0  0  0  0  0  0  0  0  0  0  0
   57.4039   26.6686   42.5960 H   0  0  0  0  0  0  0  0  0  0  0  0
   58.8684   27.7088   42.5960 H   0  0  0  0  0  0  0  0  0  0  0  0
   56.3443   28.0706   44.0114 H   0  0  0  0  0  0  0  0  0  0  0  0
   57.7150   27.9836   45.1787 H   0  0  0  0  0  0  0  0  0  0  0  0
   57.9540   29.7560   42.7680 H   0  0  0  0  0  0  0  0  0  0  0  0
   58.2669   29.1866   46.3971 H   0  0  0  0  0  0  0  0  0  0  0  0
   59.6033   30.4332   50.7980 H   0  0  0  0  0  0  0  0  0  0  0  0
   60.0638   32.1330   51.1700 H   0  0  0  0  0  0  0  0  0  0  0  0
   58.2334   31.9608   52.5572 H   0  0  0  0  0  0  0  0  0  0  0  0
   57.3962   32.4384   50.9955 H   0  0  0  0  0  0  0  0  0  0  0  0
   57.5694   29.6298   53.4745 H   0  0  0  0  0  0  0  0  0  0  0  0
   57.1893   28.4408   52.1827 H   0  0  0  0  0  0  0  0  0  0  0  0
   58.7711   29.2920   52.1827 H   0  0  0  0  0  0  0  0  0  0  0  0
   55.6755   30.7733   53.0961 H   0  0  0  0  0  0  0  0  0  0  0  0
   55.4401   31.7420   51.6018 H   0  0  0  0  0  0  0  0  0  0  0  0
   55.0651   29.9853   51.6018 H   0  0  0  0  0  0  0  0  0  0  0  0
   57.0505   33.1323   42.9437 H   0  0  0  0  0  0  0  0  0  0  0  0
   58.6990   32.6531   42.4149 H   0  0  0  0  0  0  0  0  0  0  0  0
   57.3692   31.4454   42.4149 H   0  0  0  0  0  0  0  0  0  0  0  0
   59.1381   34.3889   43.8550 H   0  0  0  0  0  0  0  0  0  0  0  0
   57.7234   34.8531   44.8851 H   0  0  0  0  0  0  0  0  0  0  0  0
   60.6550   34.7266   45.7208 H   0  0  0  0  0  0  0  0  0  0  0  0
   59.6289   36.1915   45.5505 H   0  0  0  0  0  0  0  0  0  0  0  0
   59.8543   35.4485   47.9243 H   0  0  0  0  0  0  0  0  0  0  0  0
   58.1462   35.3966   47.3277 H   0  0  0  0  0  0  0  0  0  0  0  0
  1  2  1  0
  2  3  1  0
  3  4  1  0
  4  5  2  0
  5  6  1  0
  6  7  1  0
  7  8  2  0
  7  9  1  0
  9 10  1  0
 10 11  1  0
 11 12  1  0
 12 13  1  0
 12 14  1  0
  9 15  1  0
 15 16  2  0
 15 17  1  0
 17 18  1  0
 18 19  1  0
 19 20  2  0
 20 21  1  0
 19 22  1  0
 22 23  1  0
 23 24  1  0
 20  4  1  0
 18  6  2  0
 24 17  1  0
  1 25  1  0
  1 26  1  0
  1 27  1  0
  2 28  1  0
  2 29  1  0
  3 30  1  0
  5 31  1  0
 10 32  1  0
 10 33  1  0
 11 34  1  0
 11 35  1  0
 13 36  1  0
 13 37  1  0
 13 38  1  0
 14 39  1  0
 14 40  1  0
 14 41  1  0
 21 42  1  0
 21 43  1  0
 21 44  1  0
 22 45  1  0
 22 46  1  0
 23 47  1  0
 23 48  1  0
 24 49  1  0
 24 50  1  0
M  END
>  <UniqueID>  (3) 
3

>  <SMILES>  (3) 
CCNc1cc2c(=O)n(CCN(C)C)c(=O)n3c2c(c1C)CCC3

>  <Energy>  (3) 
66.92584549944034

>  <Genealogy>  (3) 
CCNc1cc2c(=O)n(CCN(C)C)c(=O)n3c2c(c1C)CCC3 (3D coordinates assigned)
CCNc1cc2c(=O)n(CCN(C)C)c(=O)n3c2c(c1C)CCC3 (nonaromatic ring conformer: 66.92584549944034 kcal/mol)

>  <smiles>  (3) 
CCNc1cc2c(=O)n(CCN(C)C)c(=O)n3c2c(c1C)CCC3

>  <score_type>  (3) 
oracle

>  <origin>  (3) 
adg

>  <m_score__min__energy>  (3) 
-7.4100000000000001

>  <m_primary>  (3) 
energy

$$$$
3:0
     RDKit          3D

 57 59  0  0  0  0  0  0  0  0999 V2000
   59.3420   29.9080   49.5230 C   0  0  0  0  0  0  0  0  0  0  0  0
   58.5280   30.7560   50.5130 C   0  0  0  0  0  0  0  0  0  0  0  0
   58.1220   32.0860   49.8610 C   0  0  0  0  0  0  0  0  0  0  0  0
   59.3130   31.0240   51.8210 C   0  0  0  0  0  0  0  0  0  0  0  0
   59.9980   32.4070   51.9230 C   0  0  0  0  0  0  0  0  0  0  0  0
   61.4640   32.3900   51.7390 N   0  0  0  0  0  0  0  0  0  0  0  0
   62.0010   33.5790   51.0440 C   0  0  0  0  0  0  0  0  0  0  0  0
   62.1100   33.3900   49.5480 C   0  0  0  0  0  0  0  0  0  0  0  0
   63.2730   33.7850   48.8660 C   0  0  0  0  0  0  0  0  0  0  0  0
   63.3870   33.5850   47.4860 C   0  0  0  0  0  0  0  0  0  0  0  0
   62.3430   32.9970   46.7730 C   0  0  0  0  0  0  0  0  0  0  0  0
   61.1560   32.6220   47.4320 C   0  0  0  0  0  0  0  0  0  0  0  0
   60.0520   31.9660   46.6850 C   0  0  0  0  0  0  0  0  0  0  0  0
   58.8030   32.6000   46.5550 C   0  0  0  0  0  0  0  0  0  0  0  0
   57.7550   31.9690   45.8790 C   0  0  0  0  0  0  0  0  0  0  0  0
   57.9400   30.7000   45.3170 C   0  0  0  0  0  0  0  0  0  0  0  0
   56.6030   29.9110   44.4870 S   0  0  0  0  0  0  0  0  0  0  0  0
   56.9490   29.6250   43.0500 O   0  0  0  0  0  0  0  0  0  0  0  0
   55.4050   30.8240   44.5140 O   0  0  0  0  0  0  0  0  0  0  0  0
   56.2060   28.4290   45.2970 N   0  0  0  0  0  0  0  0  0  0  0  0
   57.1550   27.4790   45.8080 C   0  0  0  0  0  0  0  0  0  0  0  0
   57.3520   26.2830   45.1050 C   0  0  0  0  0  0  0  0  0  0  0  0
   58.2690   25.3310   45.5700 C   0  0  0  0  0  0  0  0  0  0  0  0
   59.0000   25.5680   46.7400 C   0  0  0  0  0  0  0  0  0  0  0  0
   58.8040   26.7510   47.4560 C   0  0  0  0  0  0  0  0  0  0  0  0
   57.8890   27.7080   46.9940 C   0  0  0  0  0  0  0  0  0  0  0  0
   59.1860   30.0660   45.4350 C   0  0  0  0  0  0  0  0  0  0  0  0
   60.2310   30.6920   46.1180 C   0  0  0  0  0  0  0  0  0  0  0  0
   61.0400   32.8480   48.8170 C   0  0  0  0  0  0  0  0  0  0  0  0
   59.9989   29.2237   50.0800 H   0  0  0  0  0  0  0  0  0  0  0  0
   58.6569   29.3247   48.8902 H   0  0  0  0  0  0  0  0  0  0  0  0
   59.9528   30.5686   48.8902 H   0  0  0  0  0  0  0  0  0  0  0  0
   57.6246   30.1859   50.7753 H   0  0  0  0  0  0  0  0  0  0  0  0
   57.8965   32.8246   50.6443 H   0  0  0  0  0  0  0  0  0  0  0  0
   58.9484   32.4552   49.2358 H   0  0  0  0  0  0  0  0  0  0  0  0
   57.2303   31.9308   49.2358 H   0  0  0  0  0  0  0  0  0  0  0  0
   58.6094   30.9329   52.6617 H   0  0  0  0  0  0  0  0  0  0  0  0
   60.1276   30.2850   51.8376 H   0  0  0  0  0  0  0  0  0  0  0  0
   59.5644   33.0608   51.1520 H   0  0  0  0  0  0  0  0  0  0  0  0
   59.8197   32.7648   52.9478 H   0  0  0  0  0  0  0  0  0  0  0  0
   61.9630   32.2030   52.6380 H   0  0  0  0  0  0  0  0  0  0  0  0
   61.6790   31.5650   51.1300 H   0  0  0  0  0  0  0  0  0  0  0  0
   61.3345   34.4314   51.2419 H   0  0  0  0  0  0  0  0  0  0  0  0
   63.0167   33.7538   51.4283 H   0  0  0  0  0  0  0  0  0  0  0  0
   64.0990   34.2544   49.4204 H   0  0  0  0  0  0  0  0  0  0  0  0
   64.3037   33.8928   46.9616 H   0  0  0  0  0  0  0  0  0  0  0  0
   62.4468   32.8253   45.6915 H   0  0  0  0  0  0  0  0  0  0  0  0
   58.6501   33.5994   46.9884 H   0  0  0  0  0  0  0  0  0  0  0  0
   56.7807   32.4715   45.7881 H   0  0  0  0  0  0  0  0  0  0  0  0
   56.7837   26.0904   44.1831 H   0  0  0  0  0  0  0  0  0  0  0  0
   58.4150   24.3936   45.0133 H   0  0  0  0  0  0  0  0  0  0  0  0
   59.7278   24.8235   47.0950 H   0  0  0  0  0  0  0  0  0  0  0  0
   59.3678   26.9322   48.3830 H   0  0  0  0  0  0  0  0  0  0  0  0
   57.7418   28.6413   47.5573 H   0  0  0  0  0  0  0  0  0  0  0  0
   59.3403   29.0728   44.9882 H   0  0  0  0  0  0  0  0  0  0  0  0
   61.2021   30.1841   46.2131 H   0  0  0  0  0  0  0  0  0  0  0  0
   60.1010   32.5973   49.3322 H   0  0  0  0  0  0  0  0  0  0  0  0
  1  2  1  0
  2  3  1  0
  2  4  1  0
  4  5  1  0
  5  6  1  0
  6  7  1  0
  7  8  1  0
  8  9  2  0
  9 10  1  0
 10 11  2  0
 11 12  1  0
 12 13  1  0
 13 14  2  0
 14 15  1  0
 15 16  2  0
 16 17  1  0
 17 18  2  0
 17 19  2  0
 17 20  1  0
 20 21  1  0
 21 22  2  0
 22 23  1  0
 23 24  2  0
 24 25  1  0
 25 26  2  0
 16 27  1  0
 27 28  2  0
 12 29  2  0
 29  8  1  0
 28 13  1  0
 26 21  1  0
  1 30  1  0
  1 31  1  0
  1 32  1  0
  2 33  1  0
  3 34  1  0
  3 35  1  0
  3 36  1  0
  4 37  1  0
  4 38  1  0
  5 39  1  0
  5 40  1  0
  6 41  1  0
  6 42  1  0
  7 43  1  0
  7 44  1  0
  9 45  1  0
 10 46  1  0
 11 47  1  0
 14 48  1  0
 15 49  1  0
 22 50  1  0
 23 51  1  0
 24 52  1  0
 25 53  1  0
 26 54  1  0
 27 55  1  0
 28 56  1  0
 29 57  1  0
M  CHG  2   6   1  20  -1
M  END
>  <UniqueID>  (4) 
4

>  <SMILES>  (4) 
CC(C)CC[NH2+]Cc1cccc(-c2ccc(S(=O)(=O)[N-]c3ccccc3)cc2)c1

>  <Energy>  (4) 
63.176676791562656

>  <Genealogy>  (4) 
CC(C)CC[NH2+]Cc1cccc(-c2ccc(S(=O)(=O)[N-]c3ccccc3)cc2)c1 (protonated)
CC(C)CC[NH2+]Cc1cccc(-c2ccc(S(=O)(=O)[N-]c3ccccc3)cc2)c1 (3D coordinates assigned)
CC(C)CC[NH2+]Cc1cccc(-c2ccc(S(=O)(=O)[N-]c3ccccc3)cc2)c1 (optimized conformer: 63.176676791562656 kcal/mol)

>  <smiles>  (4) 
CC(C)CCNCc1cccc(-c2ccc(S(=O)(=O)Nc3ccccc3)cc2)c1

>  <score_type>  (4) 
oracle

>  <origin>  (4) 
adg

>  <m_score__min__energy>  (4) 
-9.2699999999999996

>  <m_primary>  (4) 
energy

$$$$
4:0
     RDKit          3D

 65 67  0  0  0  0  0  0  0  0999 V2000
   55.6190   29.7370   44.0230 C   0  0  0  0  0  0  0  0  0  0  0  0
   56.6700   30.8470   43.9750 C   0  0  0  0  0  0  0  0  0  0  0  0
   58.0970   30.3280   44.2090 C   0  0  0  0  0  0  0  0  0  0  0  0
   58.1900   28.7950   44.1440 C   0  0  0  0  0  0  0  0  0  0  0  0
   59.0970   28.2930   45.1990 N   0  0  0  0  0  0  0  0  0  0  0  0
   60.4290   28.9550   45.1590 C   0  0  0  0  0  0  0  0  0  0  0  0
   60.6190   29.9590   46.3050 C   0  0  0  0  0  0  0  0  0  0  0  0
   60.5160   29.2950   47.6290 N   0  0  0  0  0  0  0  0  0  0  0  0
   60.2900   30.3210   48.6820 C   0  0  0  0  0  0  0  0  0  0  0  0
   61.4760   30.4810   49.6640 C   0  0  0  0  0  0  0  0  0  0  0  0
   61.5440   31.8480   50.3650 C   0  0  0  0  0  0  0  0  0  0  0  0
   62.8260   32.5360   50.0800 N   0  0  0  0  0  0  0  0  0  0  0  0
   63.5350   31.9700   48.9060 C   0  0  0  0  0  0  0  0  0  0  0  0
   63.1830   32.6840   47.5840 C   0  0  0  0  0  0  0  0  0  0  0  0
   61.8560   33.3200   47.6840 N   0  0  0  0  0  0  0  0  0  0  0  0
   61.4050   33.8400   46.3790 C   0  0  0  0  0  0  0  0  0  0  0  0
   59.9100   33.7170   46.2530 C   0  0  0  0  0  0  0  0  0  0  0  0
   59.1500   33.1310   47.2800 C   0  0  0  0  0  0  0  0  0  0  0  0
   57.7600   33.0370   47.1600 C   0  0  0  0  0  0  0  0  0  0  0  0
   57.1190   33.5290   46.0190 C   0  0  0  0  0  0  0  0  0  0  0  0
   57.8690   34.1160   44.9940 C   0  0  0  0  0  0  0  0  0  0  0  0
   59.2590   34.2130   45.1110 C   0  0  0  0  0  0  0  0  0  0  0  0
   61.8770   34.3990   48.6940 C   0  0  0  0  0  0  0  0  0  0  0  0
   62.6660   33.9990   49.9610 C   0  0  0  0  0  0  0  0  0  0  0  0
   59.4780   28.2230   47.6590 C   0  0  0  0  0  0  0  0  0  0  0  0
   58.4480   28.3640   46.5270 C   0  0  0  0  0  0  0  0  0  0  0  0
   55.3894   29.4945   45.0711 H   0  0  0  0  0  0  0  0  0  0  0  0
   54.7037   30.0766   43.5162 H   0  0  0  0  0  0  0  0  0  0  0  0
   56.0080   28.8415   43.5162 H   0  0  0  0  0  0  0  0  0  0  0  0
   56.6287   31.3273   42.9863 H   0  0  0  0  0  0  0  0  0  0  0  0
   56.4393   31.5560   44.7837 H   0  0  0  0  0  0  0  0  0  0  0  0
   58.7567   30.7534   43.4384 H   0  0  0  0  0  0  0  0  0  0  0  0
   58.4004   30.6362   45.2204 H   0  0  0  0  0  0  0  0  0  0  0  0
   57.1887   28.3637   44.2903 H   0  0  0  0  0  0  0  0  0  0  0  0
   58.5857   28.5008   43.1607 H   0  0  0  0  0  0  0  0  0  0  0  0
   61.2093   28.1832   45.2327 H   0  0  0  0  0  0  0  0  0  0  0  0
   60.4990   29.5102   44.2120 H   0  0  0  0  0  0  0  0  0  0  0  0
   61.6122   30.4229   46.2135 H   0  0  0  0  0  0  0  0  0  0  0  0
   59.8259   30.7181   46.2355 H   0  0  0  0  0  0  0  0  0  0  0  0
   61.4450   28.8430   47.7970 H   0  0  0  0  0  0  0  0  0  0  0  0
   60.1137   31.2892   48.1906 H   0  0  0  0  0  0  0  0  0  0  0  0
   59.4262   29.9861   49.2751 H   0  0  0  0  0  0  0  0  0  0  0  0
   61.3897   29.7027   50.4366 H   0  0  0  0  0  0  0  0  0  0  0  0
   62.3933   30.3915   49.0636 H   0  0  0  0  0  0  0  0  0  0  0  0
   60.7137   32.4753   50.0085 H   0  0  0  0  0  0  0  0  0  0  0  0
   61.4707   31.6857   51.4505 H   0  0  0  0  0  0  0  0  0  0  0  0
   64.6183   32.0597   49.0746 H   0  0  0  0  0  0  0  0  0  0  0  0
   63.2190   30.9211   48.8064 H   0  0  0  0  0  0  0  0  0  0  0  0
   63.9399   33.4543   47.3748 H   0  0  0  0  0  0  0  0  0  0  0  0
   63.1648   31.9434   46.7709 H   0  0  0  0  0  0  0  0  0  0  0  0
   61.6900   34.8989   46.2927 H   0  0  0  0  0  0  0  0  0  0  0  0
   61.8798   33.2541   45.5782 H   0  0  0  0  0  0  0  0  0  0  0  0
   59.6501   32.7453   48.1806 H   0  0  0  0  0  0  0  0  0  0  0  0
   57.1696   32.5750   47.9650 H   0  0  0  0  0  0  0  0  0  0  0  0
   56.0254   33.4546   45.9272 H   0  0  0  0  0  0  0  0  0  0  0  0
   57.3648   34.5014   44.0955 H   0  0  0  0  0  0  0  0  0  0  0  0
   59.8452   34.6796   44.3056 H   0  0  0  0  0  0  0  0  0  0  0  0
   62.3467   35.2896   48.2509 H   0  0  0  0  0  0  0  0  0  0  0  0
   60.8380   34.6007   48.9935 H   0  0  0  0  0  0  0  0  0  0  0  0
   63.6629   34.4620   49.9184 H   0  0  0  0  0  0  0  0  0  0  0  0
   62.0990   34.3489   50.8363 H   0  0  0  0  0  0  0  0  0  0  0  0
   59.9766   27.2473   47.5618 H   0  0  0  0  0  0  0  0  0  0  0  0
   58.9376   28.3099   48.6131 H   0  0  0  0  0  0  0  0  0  0  0  0
   57.7109   27.5517   46.6097 H   0  0  0  0  0  0  0  0  0  0  0  0
   57.9583   29.3443   46.6227 H   0  0  0  0  0  0  0  0  0  0  0  0
  1  2  1  0
  2  3  1  0
  3  4  1  0
  4  5  1  0
  5  6  1  0
  6  7  1  0
  7  8  1  0
  8  9  1  0
  9 10  1  0
 10 11  1  0
 11 12  1  0
 12 13  1  0
 13 14  1  0
 14 15  1  0
 15 16  1  0
 16 17  1  0
 17 18  2  0
 18 19  1  0
 19 20  2  0
 20 21  1  0
 21 22  2  0
 15 23  1  0
 23 24  1  0
  8 25  1  0
 25 26  1  0
 26  5  1  0
 24 12  1  0
 22 17  1  0
  1 27  1  0
  1 28  1  0
  1 29  1  0
  2 30  1  0
  2 31  1  0
  3 32  1  0
  3 33  1  0
  4 34  1  0
  4 35  1  0
  6 36  1  0
  6 37  1  0
  7 38  1  0
  7 39  1  0
  8 40  1  0
  9 41  1  0
  9 42  1  0
 10 43  1  0
 10 44  1  0
 11 45  1  0
 11 46  1  0
 13 47  1  0
 13 48  1  0
 14 49  1  0
 14 50  1  0
 16 51  1  0
 16 52  1  0
 18 53  1  0
 19 54  1  0
 20 55  1  0
 21 56  1  0
 22 57  1  0
 23 58  1  0
 23 59  1  0
 24 60  1  0
 24 61  1  0
 25 62  1  0
 25 63  1  0
 26 64  1  0
 26 65  1  0
M  CHG  1   8   1
M  END
>  <UniqueID>  (5) 
5

>  <SMILES>  (5) 
CCCCN1CC[NH+](CCCN2CCN(Cc3ccccc3)CC2)CC1

>  <Energy>  (5) 
83.17251996478902

>  <Genealogy>  (5) 
CCCCN1CC[NH+](CCCN2CCN(Cc3ccccc3)CC2)CC1 (protonated)
CCCCN1CC[NH+](CCCN2CCN(Cc3ccccc3)CC2)CC1 (3D coordinates assigned)
CCCCN1CC[NH+](CCCN2CCN(Cc3ccccc3)CC2)CC1 (nonaromatic ring conformer: 83.17251996478902 kcal/mol)

>  <smiles>  (5) 
CCCCN1CCN(CCCN2CCN(Cc3ccccc3)CC2)CC1

>  <score_type>  (5) 
oracle

>  <origin>  (5) 
adg

>  <m_score__min__energy>  (5) 
-6.1500000000000004

>  <m_primary>  (5) 
energy

$$$$
5:0
     RDKit          3D

 54 57  0  0  0  0  0  0  0  0999 V2000
   57.3900   24.6570   47.4880 C   0  0  0  0  0  0  0  0  0  0  0  0
   58.3920   25.6560   47.3330 O   0  0  0  0  0  0  0  0  0  0  0  0
   58.3160   26.7200   46.4220 C   0  0  0  0  0  0  0  0  0  0  0  0
   58.0020   26.4250   45.0770 C   0  0  0  0  0  0  0  0  0  0  0  0
   57.9080   27.4460   44.1170 C   0  0  0  0  0  0  0  0  0  0  0  0
   58.1240   28.7580   44.5300 C   0  0  0  0  0  0  0  0  0  0  0  0
   58.0880   29.8600   43.7580 N   0  0  0  0  0  0  0  0  0  0  0  0
   58.3680   30.8890   44.5960 C   0  0  0  0  0  0  0  0  0  0  0  0
   58.5880   30.4400   45.8830 C   0  0  0  0  0  0  0  0  0  0  0  0
   58.8990   31.3240   46.9160 C   0  0  0  0  0  0  0  0  0  0  0  0
   58.9850   30.8640   48.2730 N   0  0  0  0  0  0  0  0  0  0  0  0
   58.5240   31.6660   49.4110 C   0  0  0  0  0  0  0  0  0  0  0  0
   58.7450   30.9540   50.7500 C   0  0  0  0  0  0  0  0  0  0  0  0
   58.9490   29.5090   50.5410 N   0  0  0  0  0  0  0  0  0  0  0  0
   60.3540   29.0520   50.5490 C   0  0  0  0  0  0  0  0  0  0  0  0
   61.3570   30.2080   50.3870 C   0  0  0  0  0  0  0  0  0  0  0  0
   60.6000   27.9340   49.5300 C   0  0  0  0  0  0  0  0  0  0  0  0
   59.1130   32.6790   46.5690 C   0  0  0  0  0  0  0  0  0  0  0  0
   59.6060   33.5960   47.5170 C   0  0  0  0  0  0  0  0  0  0  0  0
   59.8330   34.9270   47.1720 C   0  0  0  0  0  0  0  0  0  0  0  0
   59.5980   35.3610   45.8720 C   0  0  0  0  0  0  0  0  0  0  0  0
   59.1390   34.4710   44.9030 C   0  0  0  0  0  0  0  0  0  0  0  0
   58.8790   33.1150   45.2200 C   0  0  0  0  0  0  0  0  0  0  0  0
   58.4380   32.2160   44.2600 N   0  0  0  0  0  0  0  0  0  0  0  0
   58.0800   32.6580   42.8990 C   0  0  0  0  0  0  0  0  0  0  0  0
   58.4270   29.0630   45.8390 C   0  0  0  0  0  0  0  0  0  0  0  0
   58.5430   28.0630   46.8100 C   0  0  0  0  0  0  0  0  0  0  0  0
   57.2119   24.4794   48.5589 H   0  0  0  0  0  0  0  0  0  0  0  0
   56.4578   24.9958   47.0125 H   0  0  0  0  0  0  0  0  0  0  0  0
   57.7260   23.7238   47.0125 H   0  0  0  0  0  0  0  0  0  0  0  0
   57.8286   25.3810   44.7770 H   0  0  0  0  0  0  0  0  0  0  0  0
   57.6703   27.2155   43.0680 H   0  0  0  0  0  0  0  0  0  0  0  0
   57.9140   29.8760   42.7290 H   0  0  0  0  0  0  0  0  0  0  0  0
   59.3600   29.9050   48.4520 H   0  0  0  0  0  0  0  0  0  0  0  0
   59.0762   32.6173   49.4205 H   0  0  0  0  0  0  0  0  0  0  0  0
   57.4431   31.8310   49.2913 H   0  0  0  0  0  0  0  0  0  0  0  0
   59.6330   31.3771   51.2423 H   0  0  0  0  0  0  0  0  0  0  0  0
   57.8553   31.0994   51.3804 H   0  0  0  0  0  0  0  0  0  0  0  0
   58.4270   28.9820   51.2820 H   0  0  0  0  0  0  0  0  0  0  0  0
   60.5326   28.6260   51.5473 H   0  0  0  0  0  0  0  0  0  0  0  0
   61.6675   30.5659   51.3797 H   0  0  0  0  0  0  0  0  0  0  0  0
   62.2386   29.8536   49.8327 H   0  0  0  0  0  0  0  0  0  0  0  0
   60.8818   31.0308   49.8327 H   0  0  0  0  0  0  0  0  0  0  0  0
   60.8070   26.9931   50.0609 H   0  0  0  0  0  0  0  0  0  0  0  0
   59.7076   27.8102   48.8989 H   0  0  0  0  0  0  0  0  0  0  0  0
   61.4619   28.1962   48.8989 H   0  0  0  0  0  0  0  0  0  0  0  0
   59.8146   33.2576   48.5427 H   0  0  0  0  0  0  0  0  0  0  0  0
   60.1988   35.6357   47.9296 H   0  0  0  0  0  0  0  0  0  0  0  0
   59.7756   36.4137   45.6068 H   0  0  0  0  0  0  0  0  0  0  0  0
   58.9759   34.8272   43.8751 H   0  0  0  0  0  0  0  0  0  0  0  0
   57.3888   33.5115   42.9606 H   0  0  0  0  0  0  0  0  0  0  0  0
   58.9901   32.9614   42.3607 H   0  0  0  0  0  0  0  0  0  0  0  0
   57.5942   31.8308   42.3607 H   0  0  0  0  0  0  0  0  0  0  0  0
   58.8040   28.3134   47.8489 H   0  0  0  0  0  0  0  0  0  0  0  0
  1  2  1  0
  2  3  1  0
  3  4  2  0
  4  5  1  0
  5  6  2  0
  6  7  1  0
  7  8  1  0
  8  9  2  0
  9 10  1  0
 10 11  1  0
 11 12  1  0
 12 13  1  0
 13 14  1  0
 14 15  1  0
 15 16  1  0
 15 17  1  0
 10 18  2  0
 18 19  1  0
 19 20  2  0
 20 21  1  0
 21 22  2  0
 22 23  1  0
 23 24  2  0
 24 25  1  0
  9 26  1  0
 26 27  2  0
 27  3  1  0
 26  6  1  0
 24  8  1  0
 23 18  1  0
  1 28  1  0
  1 29  1  0
  1 30  1  0
  4 31  1  0
  5 32  1  0
  7 33  1  0
 11 34  1  0
 12 35  1  0
 12 36  1  0
 13 37  1  0
 13 38  1  0
 14 39  1  0
 15 40  1  0
 16 41  1  0
 16 42  1  0
 16 43  1  0
 17 44  1  0
 17 45  1  0
 17 46  1  0
 19 47  1  0
 20 48  1  0
 21 49  1  0
 22 50  1  0
 25 51  1  0
 25 52  1  0
 25 53  1  0
 27 54  1  0
M  CHG  1  24   1
M  END
>  <UniqueID>  (6) 
6

>  <SMILES>  (6) 
COc1ccc2[nH]c3c(c(NCCNC(C)C)c4ccccc4[n+]3C)c2c1

>  <Energy>  (6) 
111.16555465848276

>  <Genealogy>  (6) 
COc1ccc2[nH]c3c(c(NCCNC(C)C)c4ccccc4[n+]3C)c2c1 (3D coordinates assigned)
COc1ccc2[nH]c3c(c(NCCNC(C)C)c4ccccc4[n+]3C)c2c1 (optimized conformer: 111.16555465848276 kcal/mol)

>  <smiles>  (6) 
COc1ccc2[nH]c3c(c(NCCNC(C)C)c4ccccc4[n+]3C)c2c1

>  <score_type>  (6) 
oracle

>  <origin>  (6) 
adg

>  <m_score__min__energy>  (6) 
-6.2800000000000002

>  <m_primary>  (6) 
energy

$$$$
6:0
     RDKit          3D

 74 79  0  0  0  0  0  0  0  0999 V2000
   61.2300   30.3910   46.7360 O   0  0  0  0  0  0  0  0  0  0  0  0
   60.9500   31.5980   46.9870 C   0  0  0  0  0  0  0  0  0  0  0  0
   61.8440   32.3230   47.8390 C   0  0  0  0  0  0  0  0  0  0  0  0
   63.0020   31.6860   48.3480 C   0  0  0  0  0  0  0  0  0  0  0  0
   63.8890   32.3660   49.1880 C   0  0  0  0  0  0  0  0  0  0  0  0
   63.6410   33.6900   49.5460 C   0  0  0  0  0  0  0  0  0  0  0  0
   62.5140   34.3450   49.0550 C   0  0  0  0  0  0  0  0  0  0  0  0
   61.6270   33.6710   48.2070 C   0  0  0  0  0  0  0  0  0  0  0  0
   60.2790   34.4680   47.5970 S   0  0  0  0  0  0  0  0  0  0  0  0
   59.3540   33.4790   46.6010 C   0  0  0  0  0  0  0  0  0  0  0  0
   58.1890   33.9800   46.0140 C   0  0  0  0  0  0  0  0  0  0  0  0
   57.3830   33.1490   45.2420 C   0  0  0  0  0  0  0  0  0  0  0  0
   57.7340   31.8050   45.0510 C   0  0  0  0  0  0  0  0  0  0  0  0
   56.7560   30.8560   44.4000 C   0  0  0  0  0  0  0  0  0  0  0  0
   57.3800   30.0560   43.3290 N   0  0  0  0  0  0  0  0  0  0  0  0
   57.3690   28.6030   43.5880 C   0  0  0  0  0  0  0  0  0  0  0  0
   57.1350   28.2890   45.0780 C   0  0  0  0  0  0  0  0  0  0  0  0
   57.4100   26.8200   45.4290 C   0  0  0  0  0  0  0  0  0  0  0  0
   58.7000   26.6330   46.2530 C   0  0  0  0  0  0  0  0  0  0  0  0
   59.0740   27.8410   47.1380 C   0  0  0  0  0  0  0  0  0  0  0  0
   60.3800   27.6290   47.9360 C   0  0  0  0  0  0  0  0  0  0  0  0
   60.7710   28.8390   48.6840 N   0  0  0  0  0  0  0  0  0  0  0  0
   60.6680   28.6470   50.1400 C   0  0  0  0  0  0  0  0  0  0  0  0
   61.1930   29.8740   50.8810 C   0  0  0  0  0  0  0  0  0  0  0  0
   62.4650   29.8400   51.5320 C   0  0  0  0  0  0  0  0  0  0  0  0
   63.2290   28.6540   51.6440 C   0  0  0  0  0  0  0  0  0  0  0  0
   64.4750   28.6600   52.2760 C   0  0  0  0  0  0  0  0  0  0  0  0
   64.9850   29.8370   52.8130 C   0  0  0  0  0  0  0  0  0  0  0  0
   64.2460   31.0160   52.7330 C   0  0  0  0  0  0  0  0  0  0  0  0
   62.9880   31.0270   52.1110 C   0  0  0  0  0  0  0  0  0  0  0  0
   62.2520   32.2120   52.0790 C   0  0  0  0  0  0  0  0  0  0  0  0
   60.9680   32.2390   51.5320 C   0  0  0  0  0  0  0  0  0  0  0  0
   60.2240   33.4310   51.5810 C   0  0  0  0  0  0  0  0  0  0  0  0
   58.9250   33.4730   51.0780 C   0  0  0  0  0  0  0  0  0  0  0  0
   58.3530   32.3270   50.5310 C   0  0  0  0  0  0  0  0  0  0  0  0
   59.0810   31.1370   50.4680 C   0  0  0  0  0  0  0  0  0  0  0  0
   60.4120   31.0690   50.9490 C   0  0  0  0  0  0  0  0  0  0  0  0
   58.9320   31.3160   45.6030 C   0  0  0  0  0  0  0  0  0  0  0  0
   59.7640   32.1400   46.4000 C   0  0  0  0  0  0  0  0  0  0  0  0
   63.2068   30.6395   48.0781 H   0  0  0  0  0  0  0  0  0  0  0  0
   64.7857   31.8543   49.5677 H   0  0  0  0  0  0  0  0  0  0  0  0
   64.3353   34.2177   50.2164 H   0  0  0  0  0  0  0  0  0  0  0  0
   62.3210   35.3915   49.3334 H   0  0  0  0  0  0  0  0  0  0  0  0
   57.9086   35.0332   46.1625 H   0  0  0  0  0  0  0  0  0  0  0  0
   56.4677   33.5477   44.7802 H   0  0  0  0  0  0  0  0  0  0  0  0
   56.3615   30.1735   45.1672 H   0  0  0  0  0  0  0  0  0  0  0  0
   55.9544   31.4577   43.9468 H   0  0  0  0  0  0  0  0  0  0  0  0
   58.3520   30.4030   43.1500 H   0  0  0  0  0  0  0  0  0  0  0  0
   56.5644   28.1420   42.9964 H   0  0  0  0  0  0  0  0  0  0  0  0
   58.3512   28.1976   43.3034 H   0  0  0  0  0  0  0  0  0  0  0  0
   57.8016   28.9244   45.6796 H   0  0  0  0  0  0  0  0  0  0  0  0
   56.0750   28.4875   45.2948 H   0  0  0  0  0  0  0  0  0  0  0  0
   56.5614   26.4334   46.0124 H   0  0  0  0  0  0  0  0  0  0  0  0
   57.5390   26.2725   44.4837 H   0  0  0  0  0  0  0  0  0  0  0  0
   58.5674   25.7571   46.9051 H   0  0  0  0  0  0  0  0  0  0  0  0
   59.5189   26.5097   45.5290 H   0  0  0  0  0  0  0  0  0  0  0  0
   59.1981   28.7227   46.4920 H   0  0  0  0  0  0  0  0  0  0  0  0
   58.2625   27.9752   47.8684 H   0  0  0  0  0  0  0  0  0  0  0  0
   60.2317   26.8035   48.6477 H   0  0  0  0  0  0  0  0  0  0  0  0
   61.1825   27.3967   47.2204 H   0  0  0  0  0  0  0  0  0  0  0  0
   61.7430   29.1290   48.4220 H   0  0  0  0  0  0  0  0  0  0  0  0
   60.1260   29.6180   48.4090 H   0  0  0  0  0  0  0  0  0  0  0  0
   59.6140   28.4850   50.4098 H   0  0  0  0  0  0  0  0  0  0  0  0
   61.2721   27.7736   50.4266 H   0  0  0  0  0  0  0  0  0  0  0  0
   62.8364   27.7145   51.2277 H   0  0  0  0  0  0  0  0  0  0  0  0
   65.0557   27.7287   52.3492 H   0  0  0  0  0  0  0  0  0  0  0  0
   65.9710   29.8375   53.3006 H   0  0  0  0  0  0  0  0  0  0  0  0
   64.6518   31.9447   53.1605 H   0  0  0  0  0  0  0  0  0  0  0  0
   62.6882   33.1347   52.4892 H   0  0  0  0  0  0  0  0  0  0  0  0
   60.6700   34.3361   52.0191 H   0  0  0  0  0  0  0  0  0  0  0  0
   58.3516   34.4111   51.1130 H   0  0  0  0  0  0  0  0  0  0  0  0
   57.3228   32.3594   50.1467 H   0  0  0  0  0  0  0  0  0  0  0  0
   58.6139   30.2385   50.0383 H   0  0  0  0  0  0  0  0  0  0  0  0
   59.2283   30.2740   45.4121 H   0  0  0  0  0  0  0  0  0  0  0  0
  1  2  2  0
  2  3  1  0
  3  4  2  0
  4  5  1  0
  5  6  2  0
  6  7  1  0
  7  8  2  0
  8  9  1  0
  9 10  1  0
 10 11  2  0
 11 12  1  0
 12 13  2  0
 13 14  1  0
 14 15  1  0
 15 16  1  0
 16 17  1  0
 17 18  1  0
 18 19  1  0
 19 20  1  0
 20 21  1  0
 21 22  1  0
 22 23  1  0
 23 24  1  0
 24 25  1  0
 25 26  2  0
 26 27  1  0
 27 28  2  0
 28 29  1  0
 29 30  2  0
 30 31  1  0
 31 32  2  0
 32 33  1  0
 33 34  2  0
 34 35  1  0
 35 36  2  0
 36 37  1  0
 13 38  1  0
 38 39  2  0
 39  2  1  0
  8  3  1  0
 39 10  1  0
 37 24  2  0
 30 25  1  0
 37 32  1  0
  4 40  1  0
  5 41  1  0
  6 42  1  0
  7 43  1  0
 11 44  1  0
 12 45  1  0
 14 46  1  0
 14 47  1  0
 15 48  1  0
 16 49  1  0
 16 50  1  0
 17 51  1  0
 17 52  1  0
 18 53  1  0
 18 54  1  0
 19 55  1  0
 19 56  1  0
 20 57  1  0
 20 58  1  0
 21 59  1  0
 21 60  1  0
 22 61  1  0
 22 62  1  0
 23 63  1  0
 23 64  1  0
 26 65  1  0
 27 66  1  0
 28 67  1  0
 29 68  1  0
 31 69  1  0
 33 70  1  0
 34 71  1  0
 35 72  1  0
 36 73  1  0
 38 74  1  0
M  CHG  1  22   1
M  END
>  <UniqueID>  (7) 
7

>  <SMILES>  (7) 
O=c1c2ccccc2sc2ccc(CNCCCCCC[NH2+]Cc3c4ccccc4cc4ccccc34)cc12

>  <Energy>  (7) 
99.67113221747351

>  <Genealogy>  (7) 
O=c1c2ccccc2sc2ccc(CNCCCCCC[NH2+]Cc3c4ccccc4cc4ccccc34)cc12 (protonated)
O=c1c2ccccc2sc2ccc(CNCCCCCC[NH2+]Cc3c4ccccc4cc4ccccc34)cc12 (3D coordinates assigned)
O=c1c2ccccc2sc2ccc(CNCCCCCC[NH2+]Cc3c4ccccc4cc4ccccc34)cc12 (optimized conformer: 99.67113221747351 kcal/mol)

>  <smiles>  (7) 
O=c1c2ccccc2sc2ccc(CNCCCCCCNCc3c4ccccc4cc4ccccc34)cc12

>  <score_type>  (7) 
oracle

>  <origin>  (7) 
adg

>  <m_score__min__energy>  (7) 
-8.2100000000000009

>  <m_primary>  (7) 
energy

$$$$
7:0
     RDKit          3D

 42 43  0  0  0  0  0  0  0  0999 V2000
   58.9390   29.8440   48.5720 C   0  0  0  0  0  0  0  0  0  0  0  0
   60.4420   29.9390   48.2860 C   0  0  0  0  0  0  0  0  0  0  0  0
   60.8460   31.3110   47.8970 N   0  0  0  0  0  0  0  0  0  0  0  0
   62.1790   31.3700   47.2670 C   0  0  0  0  0  0  0  0  0  0  0  0
   62.7810   32.7900   47.3180 C   0  0  0  0  0  0  0  0  0  0  0  0
   61.7970   33.8370   46.7930 C   0  0  0  0  0  0  0  0  0  0  0  0
   60.5880   33.7670   47.5270 O   0  0  0  0  0  0  0  0  0  0  0  0
   59.6010   34.5930   46.9370 C   0  0  0  0  0  0  0  0  0  0  0  0
   58.8360   33.8080   45.9210 C   0  0  0  0  0  0  0  0  0  0  0  0
   58.8980   33.9860   44.5440 C   0  0  0  0  0  0  0  0  0  0  0  0
   58.1540   33.0360   43.8330 C   0  0  0  0  0  0  0  0  0  0  0  0
   57.5230   32.1140   44.6570 C   0  0  0  0  0  0  0  0  0  0  0  0
   56.5250   30.7360   44.1040 S   0  0  0  0  0  0  0  0  0  0  0  0
   57.6810   29.5290   44.7510 C   0  0  0  0  0  0  0  0  0  0  0  0
   59.0560   29.6800   44.5210 C   0  0  0  0  0  0  0  0  0  0  0  0
   59.9590   28.7340   45.0150 C   0  0  0  0  0  0  0  0  0  0  0  0
   59.4910   27.6360   45.7490 C   0  0  0  0  0  0  0  0  0  0  0  0
   60.6220   26.4510   46.3740 Cl  0  0  0  0  0  0  0  0  0  0  0  0
   58.1200   27.4960   45.9960 C   0  0  0  0  0  0  0  0  0  0  0  0
   57.2150   28.4380   45.4930 C   0  0  0  0  0  0  0  0  0  0  0  0
   57.8860   32.4580   46.2620 S   0  0  0  0  0  0  0  0  0  0  0  0
   58.7726   29.8335   49.6593 H   0  0  0  0  0  0  0  0  0  0  0  0
   58.4263   30.7115   48.1310 H   0  0  0  0  0  0  0  0  0  0  0  0
   58.5396   28.9188   48.1310 H   0  0  0  0  0  0  0  0  0  0  0  0
   60.9951   29.6489   49.1915 H   0  0  0  0  0  0  0  0  0  0  0  0
   60.6722   29.2656   47.4472 H   0  0  0  0  0  0  0  0  0  0  0  0
   60.1540   31.6740   47.1980 H   0  0  0  0  0  0  0  0  0  0  0  0
   60.8230   31.9700   48.7130 H   0  0  0  0  0  0  0  0  0  0  0  0
   62.8525   30.6797   47.7960 H   0  0  0  0  0  0  0  0  0  0  0  0
   62.0678   31.0862   46.2101 H   0  0  0  0  0  0  0  0  0  0  0  0
   63.0377   33.0319   48.3599 H   0  0  0  0  0  0  0  0  0  0  0  0
   63.6762   32.8077   46.6791 H   0  0  0  0  0  0  0  0  0  0  0  0
   62.2354   34.8396   46.9056 H   0  0  0  0  0  0  0  0  0  0  0  0
   61.5897   33.6413   45.7306 H   0  0  0  0  0  0  0  0  0  0  0  0
   58.9127   34.9546   47.7151 H   0  0  0  0  0  0  0  0  0  0  0  0
   60.0856   35.4510   46.4482 H   0  0  0  0  0  0  0  0  0  0  0  0
   59.4726   34.7906   44.0619 H   0  0  0  0  0  0  0  0  0  0  0  0
   58.0776   33.0219   42.7357 H   0  0  0  0  0  0  0  0  0  0  0  0
   59.4250   30.5450   43.9504 H   0  0  0  0  0  0  0  0  0  0  0  0
   61.0365   28.8516   44.8276 H   0  0  0  0  0  0  0  0  0  0  0  0
   57.7531   26.6437   46.5868 H   0  0  0  0  0  0  0  0  0  0  0  0
   56.1376   28.3206   45.6810 H   0  0  0  0  0  0  0  0  0  0  0  0
  1  2  1  0
  2  3  1  0
  3  4  1  0
  4  5  1  0
  5  6  1  0
  6  7  1  0
  7  8  1  0
  8  9  1  0
  9 10  2  0
 10 11  1  0
 11 12  2  0
 12 13  1  0
 13 14  1  0
 14 15  2  0
 15 16  1  0
 16 17  2  0
 17 18  1  0
 17 19  1  0
 19 20  2  0
 12 21  1  0
 21  9  1  0
 20 14  1  0
  1 22  1  0
  1 23  1  0
  1 24  1  0
  2 25  1  0
  2 26  1  0
  3 27  1  0
  3 28  1  0
  4 29  1  0
  4 30  1  0
  5 31  1  0
  5 32  1  0
  6 33  1  0
  6 34  1  0
  8 35  1  0
  8 36  1  0
 10 37  1  0
 11 38  1  0
 15 39  1  0
 16 40  1  0
 19 41  1  0
 20 42  1  0
M  CHG  1   3   1
M  END
>  <UniqueID>  (8) 
8

>  <SMILES>  (8) 
CC[NH2+]CCCOCc1ccc(Sc2ccc(Cl)cc2)s1

>  <Energy>  (8) 
60.783601839447364

>  <Genealogy>  (8) 
CC[NH2+]CCCOCc1ccc(Sc2ccc(Cl)cc2)s1 (protonated)
CC[NH2+]CCCOCc1ccc(Sc2ccc(Cl)cc2)s1 (3D coordinates assigned)
CC[NH2+]CCCOCc1ccc(Sc2ccc(Cl)cc2)s1 (optimized conformer: 60.783601839447364 kcal/mol)

>  <smiles>  (8) 
CCNCCCOCc1ccc(Sc2ccc(Cl)cc2)s1

>  <score_type>  (8) 
oracle

>  <origin>  (8) 
adg

>  <m_score__min__energy>  (8) 
-5.8099999999999996

>  <m_primary>  (8) 
energy

$$$$
8:0
     RDKit          3D

 45 46  0  0  0  0  0  0  0  0999 V2000
   62.6320   34.4010   49.7720 C   0  0  0  0  0  0  0  0  0  0  0  0
   61.9020   33.4030   48.8530 C   0  0  0  0  0  0  0  0  0  0  0  0
   62.7420   32.2690   48.3410 N   0  0  0  0  0  0  0  0  0  0  0  0
   63.4280   31.5970   49.4790 C   0  0  0  0  0  0  0  0  0  0  0  0
   63.7720   32.7970   47.3810 C   0  0  0  0  0  0  0  0  0  0  0  0
   63.2690   33.8510   46.3760 C   0  0  0  0  0  0  0  0  0  0  0  0
   61.9250   31.2220   47.6400 C   0  0  0  0  0  0  0  0  0  0  0  0
   60.4500   31.1070   48.0960 C   0  0  0  0  0  0  0  0  0  0  0  0
   59.5580   31.0470   46.9190 N   0  0  0  0  0  0  0  0  0  0  0  0
   59.2220   29.8050   46.4580 C   0  0  0  0  0  0  0  0  0  0  0  0
   58.3850   29.6410   45.3620 C   0  0  0  0  0  0  0  0  0  0  0  0
   57.8710   30.7550   44.6960 C   0  0  0  0  0  0  0  0  0  0  0  0
   56.9590   30.5360   43.5130 C   0  0  0  0  0  0  0  0  0  0  0  0
   58.2320   32.0460   45.1410 C   0  0  0  0  0  0  0  0  0  0  0  0
   57.7580   33.2060   44.4890 C   0  0  0  0  0  0  0  0  0  0  0  0
   58.1360   34.4730   44.9280 C   0  0  0  0  0  0  0  0  0  0  0  0
   58.9910   34.6100   46.0130 C   0  0  0  0  0  0  0  0  0  0  0  0
   59.4720   33.4830   46.6780 C   0  0  0  0  0  0  0  0  0  0  0  0
   59.1000   32.1790   46.2660 C   0  0  0  0  0  0  0  0  0  0  0  0
   62.4405   34.1392   50.8231 H   0  0  0  0  0  0  0  0  0  0  0  0
   63.7133   34.3579   49.5745 H   0  0  0  0  0  0  0  0  0  0  0  0
   62.2634   35.4184   49.5745 H   0  0  0  0  0  0  0  0  0  0  0  0
   61.0604   32.9747   49.4171 H   0  0  0  0  0  0  0  0  0  0  0  0
   61.5925   33.9763   47.9667 H   0  0  0  0  0  0  0  0  0  0  0  0
   63.0307   31.9862   50.4281 H   0  0  0  0  0  0  0  0  0  0  0  0
   63.2515   30.5126   49.4248 H   0  0  0  0  0  0  0  0  0  0  0  0
   64.5085   31.7958   49.4248 H   0  0  0  0  0  0  0  0  0  0  0  0
   64.5821   33.2513   47.9704 H   0  0  0  0  0  0  0  0  0  0  0  0
   64.0900   31.9342   46.7773 H   0  0  0  0  0  0  0  0  0  0  0  0
   62.8579   34.7123   46.9229 H   0  0  0  0  0  0  0  0  0  0  0  0
   64.1055   34.1834   45.7438 H   0  0  0  0  0  0  0  0  0  0  0  0
   62.4844   33.4097   45.7438 H   0  0  0  0  0  0  0  0  0  0  0  0
   61.9295   31.4533   46.5646 H   0  0  0  0  0  0  0  0  0  0  0  0
   62.3929   30.2584   47.8901 H   0  0  0  0  0  0  0  0  0  0  0  0
   60.3244   30.1928   48.6947 H   0  0  0  0  0  0  0  0  0  0  0  0
   60.1901   31.9886   48.7003 H   0  0  0  0  0  0  0  0  0  0  0  0
   59.6233   28.9158   46.9662 H   0  0  0  0  0  0  0  0  0  0  0  0
   58.1260   28.6290   45.0172 H   0  0  0  0  0  0  0  0  0  0  0  0
   55.9473   30.2931   43.8700 H   0  0  0  0  0  0  0  0  0  0  0  0
   56.9229   31.4510   42.9035 H   0  0  0  0  0  0  0  0  0  0  0  0
   57.3423   29.7044   42.9035 H   0  0  0  0  0  0  0  0  0  0  0  0
   57.0834   33.1079   43.6257 H   0  0  0  0  0  0  0  0  0  0  0  0
   57.7557   35.3677   44.4132 H   0  0  0  0  0  0  0  0  0  0  0  0
   59.2907   35.6133   46.3499 H   0  0  0  0  0  0  0  0  0  0  0  0
   60.1502   33.6077   47.5350 H   0  0  0  0  0  0  0  0  0  0  0  0
  1  2  1  0
  2  3  1  0
  3  4  1  0
  3  5  1  0
  5  6  1  0
  3  7  1  0
  7  8  1  0
  8  9  1  0
  9 10  2  0
 10 11  1  0
 11 12  2  0
 12 13  1  0
 12 14  1  0
 14 15  2  0
 15 16  1  0
 16 17  2  0
 17 18  1  0
 18 19  2  0
 19  9  1  0
 19 14  1  0
  1 20  1  0
  1 21  1  0
  1 22  1  0
  2 23  1  0
  2 24  1  0
  4 25  1  0
  4 26  1  0
  4 27  1  0
  5 28  1  0
  5 29  1  0
  6 30  1  0
  6 31  1  0
  6 32  1  0
  7 33  1  0
  7 34  1  0
  8 35  1  0
  8 36  1  0
 10 37  1  0
 11 38  1  0
 13 39  1  0
 13 40  1  0
 13 41  1  0
 15 42  1  0
 16 43  1  0
 17 44  1  0
 18 45  1  0
M  CHG  2   3   1   9   1
M  END
>  <UniqueID>  (9) 
9

>  <SMILES>  (9) 
CC[N+](C)(CC)CC[n+]1ccc(C)c2ccccc21

>  <Energy>  (9) 
65.46614506900288

>  <Genealogy>  (9) 
CC[N+](C)(CC)CC[n+]1ccc(C)c2ccccc21 (3D coordinates assigned)
CC[N+](C)(CC)CC[n+]1ccc(C)c2ccccc21 (optimized conformer: 65.46614506900288 kcal/mol)

>  <smiles>  (9) 
CC[N+](C)(CC)CC[n+]1ccc(C)c2ccccc21

>  <score_type>  (9) 
oracle

>  <origin>  (9) 
adg

>  <m_score__min__energy>  (9) 
-3.5499999999999998

>  <m_primary>  (9) 
energy

$$$$
9:0
     RDKit          3D

 45 46  0  0  0  0  0  0  0  0999 V2000
   57.7620   26.9380   46.6930 C   0  0  0  0  0  0  0  0  0  0  0  0
   57.2780   27.1310   45.2610 C   0  0  0  0  0  0  0  0  0  0  0  0
   57.9200   28.3380   44.6770 N   0  0  0  0  0  0  0  0  0  0  0  0
   59.2680   28.0360   44.1410 C   0  0  0  0  0  0  0  0  0  0  0  0
   60.3460   28.8300   44.8790 C   0  0  0  0  0  0  0  0  0  0  0  0
   57.0730   28.9750   43.6400 C   0  0  0  0  0  0  0  0  0  0  0  0
   57.0350   30.4970   43.8110 C   0  0  0  0  0  0  0  0  0  0  0  0
   56.6650   30.8320   45.1270 O   0  0  0  0  0  0  0  0  0  0  0  0
   57.7490   30.5890   45.9120 N   0  0  0  0  0  0  0  0  0  0  0  0
   58.6310   31.6490   46.3290 C   0  0  0  0  0  0  0  0  0  0  0  0
   58.4220   32.8660   45.9040 N   0  0  0  0  0  0  0  0  0  0  0  0
   59.4670   34.1700   46.3270 S   0  0  0  0  0  0  0  0  0  0  0  0
   59.6580   35.0650   45.1350 O   0  0  0  0  0  0  0  0  0  0  0  0
   58.8920   34.9450   47.4790 O   0  0  0  0  0  0  0  0  0  0  0  0
   60.9820   33.4410   46.7770 C   0  0  0  0  0  0  0  0  0  0  0  0
   62.1720   34.1790   46.7450 C   0  0  0  0  0  0  0  0  0  0  0  0
   63.3800   33.5660   47.0870 C   0  0  0  0  0  0  0  0  0  0  0  0
   63.3980   32.2200   47.4570 C   0  0  0  0  0  0  0  0  0  0  0  0
   62.2100   31.4840   47.4940 C   0  0  0  0  0  0  0  0  0  0  0  0
   60.9820   32.0920   47.1610 C   0  0  0  0  0  0  0  0  0  0  0  0
   59.7380   31.3500   47.2210 N   0  0  0  0  0  0  0  0  0  0  0  0
   59.6000   30.2460   48.1790 C   0  0  0  0  0  0  0  0  0  0  0  0
   56.9732   27.2525   47.3922 H   0  0  0  0  0  0  0  0  0  0  0  0
   57.9984   25.8768   46.8603 H   0  0  0  0  0  0  0  0  0  0  0  0
   58.6638   27.5453   46.8603 H   0  0  0  0  0  0  0  0  0  0  0  0
   57.5451   26.2480   44.6619 H   0  0  0  0  0  0  0  0  0  0  0  0
   56.1856   27.2604   45.2585 H   0  0  0  0  0  0  0  0  0  0  0  0
   59.4691   26.9611   44.2600 H   0  0  0  0  0  0  0  0  0  0  0  0
   59.2923   28.3193   43.0784 H   0  0  0  0  0  0  0  0  0  0  0  0
   60.2014   28.7235   45.9643 H   0  0  0  0  0  0  0  0  0  0  0  0
   61.3387   28.4457   44.6019 H   0  0  0  0  0  0  0  0  0  0  0  0
   60.2735   29.8920   44.6019 H   0  0  0  0  0  0  0  0  0  0  0  0
   57.4815   28.7360   42.6470 H   0  0  0  0  0  0  0  0  0  0  0  0
   56.0484   28.5881   43.7424 H   0  0  0  0  0  0  0  0  0  0  0  0
   58.0316   30.9110   43.5978 H   0  0  0  0  0  0  0  0  0  0  0  0
   56.2952   30.9169   43.1136 H   0  0  0  0  0  0  0  0  0  0  0  0
   57.9090   29.6120   46.2430 H   0  0  0  0  0  0  0  0  0  0  0  0
   57.6160   33.0850   45.2760 H   0  0  0  0  0  0  0  0  0  0  0  0
   62.1555   35.2389   46.4512 H   0  0  0  0  0  0  0  0  0  0  0  0
   64.3160   34.1434   47.0648 H   0  0  0  0  0  0  0  0  0  0  0  0
   64.3504   31.7368   47.7204 H   0  0  0  0  0  0  0  0  0  0  0  0
   62.2333   30.4234   47.7848 H   0  0  0  0  0  0  0  0  0  0  0  0
   59.6495   30.6418   49.2041 H   0  0  0  0  0  0  0  0  0  0  0  0
   58.6324   29.7460   48.0253 H   0  0  0  0  0  0  0  0  0  0  0  0
   60.4148   29.5231   48.0253 H   0  0  0  0  0  0  0  0  0  0  0  0
  1  2  1  0
  2  3  1  0
  3  4  1  0
  4  5  1  0
  3  6  1  0
  6  7  1  0
  7  8  1  0
  8  9  1  0
  9 10  1  0
 10 11  2  0
 11 12  1  0
 12 13  2  0
 12 14  2  0
 12 15  1  0
 15 16  2  0
 16 17  1  0
 17 18  2  0
 18 19  1  0
 19 20  2  0
 20 21  1  0
 21 22  1  0
 21 10  1  0
 20 15  1  0
  1 23  1  0
  1 24  1  0
  1 25  1  0
  2 26  1  0
  2 27  1  0
  4 28  1  0
  4 29  1  0
  5 30  1  0
  5 31  1  0
  5 32  1  0
  6 33  1  0
  6 34  1  0
  7 35  1  0
  7 36  1  0
  9 37  1  0
 11 38  1  0
 16 39  1  0
 17 40  1  0
 18 41  1  0
 19 42  1  0
 22 43  1  0
 22 44  1  0
 22 45  1  0
M  CHG  1  11   1
M  END
>  <UniqueID>  (10) 
10

>  <SMILES>  (10) 
CCN(CC)CCONC1=[NH+]S(=O)(=O)c2ccccc2N1C

>  <Energy>  (10) 
51.8961816640462

>  <Genealogy>  (10) 
CCN(CC)CCONC1=[NH+]S(=O)(=O)c2ccccc2N1C (protonated)
CCN(CC)CCONC1=[NH+]S(=O)(=O)c2ccccc2N1C (3D coordinates assigned)
CCN(CC)CCONC1=[NH+]S(=O)(=O)c2ccccc2N1C (nonaromatic ring conformer: 51.8961816640462 kcal/mol)

>  <smiles>  (10) 
CCN(CC)CCONC1=NS(=O)(=O)c2ccccc2N1C

>  <score_type>  (10) 
oracle

>  <origin>  (10) 
adg

>  <m_score__min__energy>  (10) 
-5.7300000000000004

>  <m_primary>  (10) 
energy

$$$$
10:0
     RDKit          3D

 31 32  0  0  0  0  0  0  0  0999 V2000
   54.7440   24.8690   45.5770 C   0  0  0  0  0  0  0  0  0  0  0  0
   55.1100   26.1790   45.9960 O   0  0  0  0  0  0  0  0  0  0  0  0
   56.4330   26.6140   46.1740 C   0  0  0  0  0  0  0  0  0  0  0  0
   57.2750   25.8580   46.9990 C   0  0  0  0  0  0  0  0  0  0  0  0
   58.6020   26.2450   47.2010 C   0  0  0  0  0  0  0  0  0  0  0  0
   59.1000   27.3940   46.5830 C   0  0  0  0  0  0  0  0  0  0  0  0
   58.2670   28.1730   45.7660 C   0  0  0  0  0  0  0  0  0  0  0  0
   58.8060   29.3910   45.0690 C   0  0  0  0  0  0  0  0  0  0  0  0
   58.1600   29.5260   43.7620 N   0  0  0  0  0  0  0  0  0  0  0  0
   57.0420   30.8570   43.7910 S   0  0  0  0  0  0  0  0  0  0  0  0
   56.6730   31.2410   42.3850 O   0  0  0  0  0  0  0  0  0  0  0  0
   55.8020   30.4490   44.5360 O   0  0  0  0  0  0  0  0  0  0  0  0
   57.7750   32.2270   44.6050 C   0  0  0  0  0  0  0  0  0  0  0  0
   58.4180   33.2850   43.9830 C   0  0  0  0  0  0  0  0  0  0  0  0
   58.8980   34.2390   44.8880 C   0  0  0  0  0  0  0  0  0  0  0  0
   58.6320   33.9280   46.2170 C   0  0  0  0  0  0  0  0  0  0  0  0
   57.7980   32.4670   46.2660 S   0  0  0  0  0  0  0  0  0  0  0  0
   56.9370   27.7740   45.5540 C   0  0  0  0  0  0  0  0  0  0  0  0
   54.5676   24.2375   46.4602 H   0  0  0  0  0  0  0  0  0  0  0  0
   53.8258   24.9202   44.9735 H   0  0  0  0  0  0  0  0  0  0  0  0
   55.5558   24.4369   44.9735 H   0  0  0  0  0  0  0  0  0  0  0  0
   56.8888   24.9533   47.4913 H   0  0  0  0  0  0  0  0  0  0  0  0
   59.2564   25.6430   47.8486 H   0  0  0  0  0  0  0  0  0  0  0  0
   60.1484   27.6891   46.7372 H   0  0  0  0  0  0  0  0  0  0  0  0
   58.5973   30.2843   45.6761 H   0  0  0  0  0  0  0  0  0  0  0  0
   59.8928   29.2877   44.9340 H   0  0  0  0  0  0  0  0  0  0  0  0
   58.8970   29.7600   43.0580 H   0  0  0  0  0  0  0  0  0  0  0  0
   58.5386   33.3667   42.8927 H   0  0  0  0  0  0  0  0  0  0  0  0
   59.4343   35.1478   44.5775 H   0  0  0  0  0  0  0  0  0  0  0  0
   58.9183   34.5344   47.0889 H   0  0  0  0  0  0  0  0  0  0  0  0
   56.2849   28.3712   44.8997 H   0  0  0  0  0  0  0  0  0  0  0  0
  1  2  1  0
  2  3  1  0
  3  4  2  0
  4  5  1  0
  5  6  2  0
  6  7  1  0
  7  8  1  0
  8  9  1  0
  9 10  1  0
 10 11  2  0
 10 12  2  0
 10 13  1  0
 13 14  2  0
 14 15  1  0
 15 16  2  0
 16 17  1  0
  7 18  2  0
 18  3  1  0
 17 13  1  0
  1 19  1  0
  1 20  1  0
  1 21  1  0
  4 22  1  0
  5 23  1  0
  6 24  1  0
  8 25  1  0
  8 26  1  0
  9 27  1  0
 14 28  1  0
 15 29  1  0
 16 30  1  0
 18 31  1  0
M  END
>  <UniqueID>  (11) 
11

>  <SMILES>  (11) 
COc1cccc(CNS(=O)(=O)c2cccs2)c1

>  <Energy>  (11) 
53.20679714909471

>  <Genealogy>  (11) 
COc1cccc(CNS(=O)(=O)c2cccs2)c1 (3D coordinates assigned)
COc1cccc(CNS(=O)(=O)c2cccs2)c1 (optimized conformer: 53.20679714909471 kcal/mol)

>  <smiles>  (11) 
COc1cccc(CNS(=O)(=O)c2cccs2)c1

>  <score_type>  (11) 
oracle

>  <origin>  (11) 
adg

>  <m_score__min__energy>  (11) 
-7.8399999999999999

>  <m_primary>  (11) 
energy

$$$$
11:0
     RDKit          3D

 66 69  0  0  0  0  0  0  0  0999 V2000
   58.7960   33.9160   52.0150 C   0  0  0  0  0  0  0  0  0  0  0  0
   60.1930   33.5640   51.5170 C   0  0  0  0  0  0  0  0  0  0  0  0
   60.1810   32.1990   50.9700 N   0  0  0  0  0  0  0  0  0  0  0  0
   58.8450   31.5880   51.0160 C   0  0  0  0  0  0  0  0  0  0  0  0
   58.5210   30.8820   49.6920 C   0  0  0  0  0  0  0  0  0  0  0  0
   59.6130   31.0210   48.7280 N   0  0  0  0  0  0  0  0  0  0  0  0
   59.3620   30.9970   47.3150 C   0  0  0  0  0  0  0  0  0  0  0  0
   59.3910   29.7690   46.6350 C   0  0  0  0  0  0  0  0  0  0  0  0
   60.0240   28.6420   47.2020 C   0  0  0  0  0  0  0  0  0  0  0  0
   60.0740   27.4330   46.5120 C   0  0  0  0  0  0  0  0  0  0  0  0
   59.5070   27.3300   45.2460 C   0  0  0  0  0  0  0  0  0  0  0  0
   58.8640   28.4270   44.6750 C   0  0  0  0  0  0  0  0  0  0  0  0
   58.7630   29.6590   45.3710 C   0  0  0  0  0  0  0  0  0  0  0  0
   58.0630   30.7320   44.8600 N   0  0  0  0  0  0  0  0  0  0  0  0
   57.1020   30.5290   43.7530 C   0  0  0  0  0  0  0  0  0  0  0  0
   58.2510   31.9950   45.3920 C   0  0  0  0  0  0  0  0  0  0  0  0
   57.7800   33.1470   44.7210 C   0  0  0  0  0  0  0  0  0  0  0  0
   57.9940   34.4160   45.2360 C   0  0  0  0  0  0  0  0  0  0  0  0
   58.7200   34.5840   46.4040 C   0  0  0  0  0  0  0  0  0  0  0  0
   59.2150   33.4800   47.1170 C   0  0  0  0  0  0  0  0  0  0  0  0
   60.1610   33.6990   48.1900 N   0  0  0  0  0  0  0  0  0  0  0  0
   61.5270   34.2230   48.0430 C   0  0  0  0  0  0  0  0  0  0  0  0
   62.2330   33.6410   46.8130 C   0  0  0  0  0  0  0  0  0  0  0  0
   63.6320   33.0720   47.1100 C   0  0  0  0  0  0  0  0  0  0  0  0
   63.7290   32.5340   48.4780 N   0  0  0  0  0  0  0  0  0  0  0  0
   64.6140   33.0800   49.3690 C   0  0  0  0  0  0  0  0  0  0  0  0
   64.7130   32.5840   50.6710 C   0  0  0  0  0  0  0  0  0  0  0  0
   63.8830   31.5350   51.0740 C   0  0  0  0  0  0  0  0  0  0  0  0
   63.9660   31.0170   52.4040 N   0  0  0  0  0  0  0  0  0  0  0  0
   62.9650   31.0020   50.1640 C   0  0  0  0  0  0  0  0  0  0  0  0
   62.8980   31.5180   48.8690 C   0  0  0  0  0  0  0  0  0  0  0  0
   58.9440   32.1620   46.6270 C   0  0  0  0  0  0  0  0  0  0  0  0
   58.7885   33.9179   53.1150 H   0  0  0  0  0  0  0  0  0  0  0  0
   58.5151   34.9130   51.6447 H   0  0  0  0  0  0  0  0  0  0  0  0
   58.0762   33.1711   51.6447 H   0  0  0  0  0  0  0  0  0  0  0  0
   60.4930   34.2728   50.7311 H   0  0  0  0  0  0  0  0  0  0  0  0
   60.9083   33.6221   52.3506 H   0  0  0  0  0  0  0  0  0  0  0  0
   60.8280   31.6110   51.5490 H   0  0  0  0  0  0  0  0  0  0  0  0
   58.8129   30.8529   51.8337 H   0  0  0  0  0  0  0  0  0  0  0  0
   58.1010   32.3807   51.1834 H   0  0  0  0  0  0  0  0  0  0  0  0
   58.3523   29.8130   49.8891 H   0  0  0  0  0  0  0  0  0  0  0  0
   57.6215   31.3484   49.2637 H   0  0  0  0  0  0  0  0  0  0  0  0
   60.5980   31.0200   49.0800 H   0  0  0  0  0  0  0  0  0  0  0  0
   60.4825   28.7192   48.1989 H   0  0  0  0  0  0  0  0  0  0  0  0
   60.5621   26.5593   46.9685 H   0  0  0  0  0  0  0  0  0  0  0  0
   59.5662   26.3804   44.6940 H   0  0  0  0  0  0  0  0  0  0  0  0
   58.4281   28.3360   43.6691 H   0  0  0  0  0  0  0  0  0  0  0  0
   56.1049   30.3184   44.1670 H   0  0  0  0  0  0  0  0  0  0  0  0
   57.0578   31.4376   43.1346 H   0  0  0  0  0  0  0  0  0  0  0  0
   57.4290   29.6801   43.1346 H   0  0  0  0  0  0  0  0  0  0  0  0
   57.2337   33.0341   43.7729 H   0  0  0  0  0  0  0  0  0  0  0  0
   57.5853   35.2942   44.7147 H   0  0  0  0  0  0  0  0  0  0  0  0
   58.9121   35.5999   46.7794 H   0  0  0  0  0  0  0  0  0  0  0  0
   59.9260   33.3000   49.1260 H   0  0  0  0  0  0  0  0  0  0  0  0
   61.4791   35.3172   47.9410 H   0  0  0  0  0  0  0  0  0  0  0  0
   62.1014   33.9327   48.9351 H   0  0  0  0  0  0  0  0  0  0  0  0
   61.6090   32.8319   46.4056 H   0  0  0  0  0  0  0  0  0  0  0  0
   62.3685   34.4681   46.1006 H   0  0  0  0  0  0  0  0  0  0  0  0
   63.8463   32.2644   46.3946 H   0  0  0  0  0  0  0  0  0  0  0  0
   64.3598   33.8913   47.0143 H   0  0  0  0  0  0  0  0  0  0  0  0
   65.2538   33.9182   49.0560 H   0  0  0  0  0  0  0  0  0  0  0  0
   65.4397   33.0165   51.3744 H   0  0  0  0  0  0  0  0  0  0  0  0
   64.5480   31.4940   53.1290 H   0  0  0  0  0  0  0  0  0  0  0  0
   63.3940   30.1950   52.6940 H   0  0  0  0  0  0  0  0  0  0  0  0
   62.2992   30.1805   50.4671 H   0  0  0  0  0  0  0  0  0  0  0  0
   62.1704   31.1045   48.1551 H   0  0  0  0  0  0  0  0  0  0  0  0
  1  2  1  0
  2  3  1  0
  3  4  1  0
  4  5  1  0
  5  6  1  0
  6  7  1  0
  7  8  2  0
  8  9  1  0
  9 10  2  0
 10 11  1  0
 11 12  2  0
 12 13  1  0
 13 14  2  0
 14 15  1  0
 14 16  1  0
 16 17  2  0
 17 18  1  0
 18 19  2  0
 19 20  1  0
 20 21  1  0
 21 22  1  0
 22 23  1  0
 23 24  1  0
 24 25  1  0
 25 26  2  0
 26 27  1  0
 27 28  2  0
 28 29  1  0
 28 30  1  0
 30 31  2  0
 20 32  2  0
 32  7  1  0
 13  8  1  0
 32 16  1  0
 31 25  1  0
  1 33  1  0
  1 34  1  0
  1 35  1  0
  2 36  1  0
  2 37  1  0
  3 38  1  0
  4 39  1  0
  4 40  1  0
  5 41  1  0
  5 42  1  0
  6 43  1  0
  9 44  1  0
 10 45  1  0
 11 46  1  0
 12 47  1  0
 15 48  1  0
 15 49  1  0
 15 50  1  0
 17 51  1  0
 18 52  1  0
 19 53  1  0
 21 54  1  0
 22 55  1  0
 22 56  1  0
 23 57  1  0
 23 58  1  0
 24 59  1  0
 24 60  1  0
 26 61  1  0
 27 62  1  0
 29 63  1  0
 29 64  1  0
 30 65  1  0
 31 66  1  0
M  CHG  2  14   1  25   1
M  END
>  <UniqueID>  (12) 
12

>  <SMILES>  (12) 
CCNCCNc1c2ccccc2[n+](C)c2cccc(NCCC[n+]3ccc(N)cc3)c12

>  <Energy>  (12) 
97.32164079724551

>  <Genealogy>  (12) 
CCNCCNc1c2ccccc2[n+](C)c2cccc(NCCC[n+]3ccc(N)cc3)c12 (3D coordinates assigned)
CCNCCNc1c2ccccc2[n+](C)c2cccc(NCCC[n+]3ccc(N)cc3)c12 (optimized conformer: 97.32164079724551 kcal/mol)

>  <smiles>  (12) 
CCNCCNc1c2ccccc2[n+](C)c2cccc(NCCC[n+]3ccc(N)cc3)c12

>  <score_type>  (12) 
oracle

>  <origin>  (12) 
adg

>  <m_score__min__energy>  (12) 
-5.25

>  <m_primary>  (12) 
energy

$$$$
12:0
     RDKit          3D

 54 57  0  0  0  0  0  0  0  0999 V2000
   63.8350   33.8650   50.8120 C   0  0  0  0  0  0  0  0  0  0  0  0
   62.4190   33.7500   50.2630 C   0  0  0  0  0  0  0  0  0  0  0  0
   62.4590   33.1210   48.9210 N   0  0  0  0  0  0  0  0  0  0  0  0
   63.2710   33.8920   47.9500 C   0  0  0  0  0  0  0  0  0  0  0  0
   63.7320   33.0680   46.7380 C   0  0  0  0  0  0  0  0  0  0  0  0
   62.8210   31.6870   48.9520 C   0  0  0  0  0  0  0  0  0  0  0  0
   61.5810   30.8100   48.7190 C   0  0  0  0  0  0  0  0  0  0  0  0
   60.3230   31.5830   48.7320 N   0  0  0  0  0  0  0  0  0  0  0  0
   59.7030   31.6400   47.4180 C   0  0  0  0  0  0  0  0  0  0  0  0
   59.3140   30.4490   46.7890 C   0  0  0  0  0  0  0  0  0  0  0  0
   58.7430   30.4600   45.5310 C   0  0  0  0  0  0  0  0  0  0  0  0
   58.4790   31.6160   44.8480 N   0  0  0  0  0  0  0  0  0  0  0  0
   57.7160   31.5660   43.5880 C   0  0  0  0  0  0  0  0  0  0  0  0
   58.9320   32.8130   45.3780 C   0  0  0  0  0  0  0  0  0  0  0  0
   58.8560   34.0180   44.6360 C   0  0  0  0  0  0  0  0  0  0  0  0
   59.2570   35.2320   45.1880 C   0  0  0  0  0  0  0  0  0  0  0  0
   59.7480   35.2810   46.4840 C   0  0  0  0  0  0  0  0  0  0  0  0
   59.8780   34.1140   47.2320 C   0  0  0  0  0  0  0  0  0  0  0  0
   59.5100   32.8570   46.6950 C   0  0  0  0  0  0  0  0  0  0  0  0
   58.5040   29.0740   45.1460 C   0  0  0  0  0  0  0  0  0  0  0  0
   58.0870   28.5730   43.9550 N   0  0  0  0  0  0  0  0  0  0  0  0
   57.9970   27.2220   43.7810 C   0  0  0  0  0  0  0  0  0  0  0  0
   58.3590   26.3450   44.8220 C   0  0  0  0  0  0  0  0  0  0  0  0
   58.8230   26.8670   46.0390 C   0  0  0  0  0  0  0  0  0  0  0  0
   58.8910   28.2510   46.1780 C   0  0  0  0  0  0  0  0  0  0  0  0
   59.4210   29.0410   47.3310 C   0  0  0  0  0  0  0  0  0  0  0  0
   63.8033   33.8624   51.9115 H   0  0  0  0  0  0  0  0  0  0  0  0
   64.4349   33.0126   50.4605 H   0  0  0  0  0  0  0  0  0  0  0  0
   64.2895   34.8030   50.4605 H   0  0  0  0  0  0  0  0  0  0  0  0
   61.8123   33.1309   50.9402 H   0  0  0  0  0  0  0  0  0  0  0  0
   61.9734   34.7527   50.1849 H   0  0  0  0  0  0  0  0  0  0  0  0
   62.6677   34.7368   47.5863 H   0  0  0  0  0  0  0  0  0  0  0  0
   64.1778   34.2206   48.4788 H   0  0  0  0  0  0  0  0  0  0  0  0
   64.2415   32.1574   47.0861 H   0  0  0  0  0  0  0  0  0  0  0  0
   62.8585   32.7898   46.1301 H   0  0  0  0  0  0  0  0  0  0  0  0
   64.4261   33.6669   46.1301 H   0  0  0  0  0  0  0  0  0  0  0  0
   63.5606   31.4839   48.1634 H   0  0  0  0  0  0  0  0  0  0  0  0
   63.2424   31.4493   49.9399 H   0  0  0  0  0  0  0  0  0  0  0  0
   61.6793   30.3149   47.7416 H   0  0  0  0  0  0  0  0  0  0  0  0
   61.5309   30.0818   49.5420 H   0  0  0  0  0  0  0  0  0  0  0  0
   60.4660   32.5260   49.1530 H   0  0  0  0  0  0  0  0  0  0  0  0
   59.6650   31.1070   49.3920 H   0  0  0  0  0  0  0  0  0  0  0  0
   56.6415   31.4956   43.8126 H   0  0  0  0  0  0  0  0  0  0  0  0
   57.9098   32.4788   43.0055 H   0  0  0  0  0  0  0  0  0  0  0  0
   58.0273   30.6863   43.0055 H   0  0  0  0  0  0  0  0  0  0  0  0
   58.4732   33.9939   43.6050 H   0  0  0  0  0  0  0  0  0  0  0  0
   59.1840   36.1550   44.5941 H   0  0  0  0  0  0  0  0  0  0  0  0
   60.0364   36.2473   46.9235 H   0  0  0  0  0  0  0  0  0  0  0  0
   60.2731   34.1696   48.2571 H   0  0  0  0  0  0  0  0  0  0  0  0
   57.6400   26.8162   42.8229 H   0  0  0  0  0  0  0  0  0  0  0  0
   58.2784   25.2570   44.6817 H   0  0  0  0  0  0  0  0  0  0  0  0
   59.1248   26.2011   46.8609 H   0  0  0  0  0  0  0  0  0  0  0  0
   58.8031   28.9065   48.2310 H   0  0  0  0  0  0  0  0  0  0  0  0
   60.4336   28.7537   47.6505 H   0  0  0  0  0  0  0  0  0  0  0  0
  1  2  1  0
  2  3  1  0
  3  4  1  0
  4  5  1  0
  3  6  1  0
  6  7  1  0
  7  8  1  0
  8  9  1  0
  9 10  2  0
 10 11  1  0
 11 12  2  0
 12 13  1  0
 12 14  1  0
 14 15  2  0
 15 16  1  0
 16 17  2  0
 17 18  1  0
 18 19  2  0
 11 20  1  0
 20 21  2  0
 21 22  1  0
 22 23  2  0
 23 24  1  0
 24 25  2  0
 25 26  1  0
 19  9  1  0
 25 20  1  0
 26 10  1  0
 19 14  1  0
  1 27  1  0
  1 28  1  0
  1 29  1  0
  2 30  1  0
  2 31  1  0
  4 32  1  0
  4 33  1  0
  5 34  1  0
  5 35  1  0
  5 36  1  0
  6 37  1  0
  6 38  1  0
  7 39  1  0
  7 40  1  0
  8 41  1  0
  8 42  1  0
 13 43  1  0
 13 44  1  0
 13 45  1  0
 15 46  1  0
 16 47  1  0
 17 48  1  0
 18 49  1  0
 22 50  1  0
 23 51  1  0
 24 52  1  0
 26 53  1  0
 26 54  1  0
M  CHG  2   8   1  12   1
M  END
>  <UniqueID>  (13) 
13

>  <SMILES>  (13) 
CCN(CC)CC[NH2+]c1c2c([n+](C)c3ccccc13)-c1ncccc1C2

>  <Energy>  (13) 
99.02845570028512

>  <Genealogy>  (13) 
CCN(CC)CC[NH2+]c1c2c([n+](C)c3ccccc13)-c1ncccc1C2 (protonated)
CCN(CC)CC[NH2+]c1c2c([n+](C)c3ccccc13)-c1ncccc1C2 (3D coordinates assigned)
CCN(CC)CC[NH2+]c1c2c([n+](C)c3ccccc13)-c1ncccc1C2 (nonaromatic ring conformer: 99.02845570028512 kcal/mol)

>  <smiles>  (13) 
CCN(CC)CCNc1c2c([n+](C)c3ccccc13)-c1ncccc1C2

>  <score_type>  (13) 
oracle

>  <origin>  (13) 
adg

>  <m_score__min__energy>  (13) 
-4.71

>  <m_primary>  (13) 
energy

$$$$
13:0
     RDKit          3D

 49 52  0  0  0  0  0  0  0  0999 V2000
   62.9110   33.8540   46.3720 C   0  0  0  0  0  0  0  0  0  0  0  0
   63.7650   33.2110   47.4520 C   0  0  0  0  0  0  0  0  0  0  0  0
   63.0870   32.0960   47.9900 O   0  0  0  0  0  0  0  0  0  0  0  0
   62.6950   32.3840   49.3170 C   0  0  0  0  0  0  0  0  0  0  0  0
   61.4640   33.2930   49.3210 C   0  0  0  0  0  0  0  0  0  0  0  0
   60.2580   32.5540   49.7110 N   0  0  0  0  0  0  0  0  0  0  0  0
   59.6700   31.4840   49.1010 C   0  0  0  0  0  0  0  0  0  0  0  0
   60.1260   30.8550   47.8030 C   0  0  0  0  0  0  0  0  0  0  0  0
   59.1010   30.9570   46.7330 N   0  0  0  0  0  0  0  0  0  0  0  0
   58.4600   29.8150   46.2980 C   0  0  0  0  0  0  0  0  0  0  0  0
   58.7930   28.6810   46.7400 O   0  0  0  0  0  0  0  0  0  0  0  0
   57.4340   29.8940   45.3400 C   0  0  0  0  0  0  0  0  0  0  0  0
   56.6840   28.6680   44.8920 C   0  0  0  0  0  0  0  0  0  0  0  0
   55.3790   29.0060   44.5830 F   0  0  0  0  0  0  0  0  0  0  0  0
   56.6730   27.7120   45.8920 F   0  0  0  0  0  0  0  0  0  0  0  0
   57.2940   28.1320   43.7720 F   0  0  0  0  0  0  0  0  0  0  0  0
   57.1220   31.0950   44.8020 N   0  0  0  0  0  0  0  0  0  0  0  0
   57.7730   32.2250   45.1600 C   0  0  0  0  0  0  0  0  0  0  0  0
   57.4210   33.4380   44.5550 C   0  0  0  0  0  0  0  0  0  0  0  0
   58.0980   34.6090   44.8890 C   0  0  0  0  0  0  0  0  0  0  0  0
   59.1420   34.5710   45.8130 C   0  0  0  0  0  0  0  0  0  0  0  0
   59.5000   33.3650   46.4230 C   0  0  0  0  0  0  0  0  0  0  0  0
   58.8020   32.1690   46.1320 C   0  0  0  0  0  0  0  0  0  0  0  0
   58.5330   31.0760   49.7260 N   0  0  0  0  0  0  0  0  0  0  0  0
   58.4290   31.9170   50.7670 C   0  0  0  0  0  0  0  0  0  0  0  0
   57.4240   31.9510   51.7300 C   0  0  0  0  0  0  0  0  0  0  0  0
   57.4930   32.9540   52.7140 C   0  0  0  0  0  0  0  0  0  0  0  0
   58.5470   33.8950   52.7020 C   0  0  0  0  0  0  0  0  0  0  0  0
   59.5440   33.8350   51.7120 C   0  0  0  0  0  0  0  0  0  0  0  0
   59.4550   32.8150   50.7600 C   0  0  0  0  0  0  0  0  0  0  0  0
   62.1161   34.4525   46.8410 H   0  0  0  0  0  0  0  0  0  0  0  0
   63.5396   34.5050   45.7466 H   0  0  0  0  0  0  0  0  0  0  0  0
   62.4591   33.0700   45.7466 H   0  0  0  0  0  0  0  0  0  0  0  0
   64.7205   32.8834   47.0166 H   0  0  0  0  0  0  0  0  0  0  0  0
   63.9562   33.9428   48.2507 H   0  0  0  0  0  0  0  0  0  0  0  0
   62.4543   31.4447   49.8364 H   0  0  0  0  0  0  0  0  0  0  0  0
   63.5210   32.8974   49.8310 H   0  0  0  0  0  0  0  0  0  0  0  0
   61.6273   34.1145   50.0340 H   0  0  0  0  0  0  0  0  0  0  0  0
   61.3178   33.6847   48.3035 H   0  0  0  0  0  0  0  0  0  0  0  0
   61.0406   31.3647   47.4657 H   0  0  0  0  0  0  0  0  0  0  0  0
   60.3065   29.7868   47.9935 H   0  0  0  0  0  0  0  0  0  0  0  0
   56.6082   33.4663   43.8144 H   0  0  0  0  0  0  0  0  0  0  0  0
   57.8092   35.5632   44.4241 H   0  0  0  0  0  0  0  0  0  0  0  0
   59.6861   35.4938   46.0629 H   0  0  0  0  0  0  0  0  0  0  0  0
   60.3352   33.3456   47.1385 H   0  0  0  0  0  0  0  0  0  0  0  0
   56.6036   31.2182   51.7217 H   0  0  0  0  0  0  0  0  0  0  0  0
   56.7222   33.0060   53.4971 H   0  0  0  0  0  0  0  0  0  0  0  0
   58.5880   34.6795   53.4720 H   0  0  0  0  0  0  0  0  0  0  0  0
   60.3659   34.5657   51.6875 H   0  0  0  0  0  0  0  0  0  0  0  0
  1  2  1  0
  2  3  1  0
  3  4  1  0
  4  5  1  0
  5  6  1  0
  6  7  1  0
  7  8  1  0
  8  9  1  0
  9 10  1  0
 10 11  2  0
 10 12  1  0
 12 13  1  0
 13 14  1  0
 13 15  1  0
 13 16  1  0
 12 17  2  0
 17 18  1  0
 18 19  2  0
 19 20  1  0
 20 21  2  0
 21 22  1  0
 22 23  2  0
  7 24  2  0
 24 25  1  0
 25 26  2  0
 26 27  1  0
 27 28  2  0
 28 29  1  0
 29 30  2  0
 30  6  1  0
 23  9  1  0
 30 25  1  0
 23 18  1  0
  1 31  1  0
  1 32  1  0
  1 33  1  0
  2 34  1  0
  2 35  1  0
  4 36  1  0
  4 37  1  0
  5 38  1  0
  5 39  1  0
  8 40  1  0
  8 41  1  0
 19 42  1  0
 20 43  1  0
 21 44  1  0
 22 45  1  0
 26 46  1  0
 27 47  1  0
 28 48  1  0
 29 49  1  0
M  END
>  <UniqueID>  (14) 
14

>  <SMILES>  (14) 
CCOCCn1c(Cn2c(=O)c(C(F)(F)F)nc3ccccc32)nc2ccccc21

>  <Energy>  (14) 
94.91518915083428

>  <Genealogy>  (14) 
CCOCCn1c(Cn2c(=O)c(C(F)(F)F)nc3ccccc32)nc2ccccc21 (3D coordinates assigned)
CCOCCn1c(Cn2c(=O)c(C(F)(F)F)nc3ccccc32)nc2ccccc21 (optimized conformer: 94.91518915083428 kcal/mol)

>  <smiles>  (14) 
CCOCCn1c(Cn2c(=O)c(C(F)(F)F)nc3ccccc32)nc2ccccc21

>  <score_type>  (14) 
oracle

>  <origin>  (14) 
adg

>  <m_score__min__energy>  (14) 
-7.5599999999999996

>  <m_primary>  (14) 
energy

$$$$
14:0
     RDKit          3D

 45 47  0  0  0  0  0  0  0  0999 V2000
   57.1620   30.5720   43.3640 C   0  0  0  0  0  0  0  0  0  0  0  0
   57.7440   31.9570   43.1130 C   0  0  0  0  0  0  0  0  0  0  0  0
   57.8660   32.6890   44.3680 N   0  0  0  0  0  0  0  0  0  0  0  0
   58.8590   33.5370   44.6950 C   0  0  0  0  0  0  0  0  0  0  0  0
   58.5790   34.0490   45.9440 C   0  0  0  0  0  0  0  0  0  0  0  0
   59.4270   34.9880   46.7500 C   0  0  0  0  0  0  0  0  0  0  0  0
   59.9040   34.3700   47.9970 N   0  0  0  0  0  0  0  0  0  0  0  0
   61.1620   33.6090   47.8380 C   0  0  1  0  0  0  0  0  0  0  0  0
   61.9660   34.2140   46.6770 C   0  0  0  0  0  0  0  0  0  0  0  0
   63.2970   33.4720   46.4150 C   0  0  0  0  0  0  0  0  0  0  0  0
   63.7300   32.5640   47.5760 C   0  0  0  0  0  0  0  0  0  0  0  0
   63.4000   33.1870   48.8640 N   0  0  0  0  0  0  0  0  0  0  0  0
   64.4200   33.3860   49.8610 C   0  0  0  0  0  0  0  0  0  0  0  0
   64.0900   33.9060   51.1240 C   0  0  0  0  0  0  0  0  0  0  0  0
   65.0940   34.0960   52.0740 C   0  0  0  0  0  0  0  0  0  0  0  0
   66.4140   33.7750   51.7640 C   0  0  0  0  0  0  0  0  0  0  0  0
   66.7130   33.2680   50.4980 C   0  0  0  0  0  0  0  0  0  0  0  0
   65.7250   33.0860   49.5800 N   0  0  0  0  0  0  0  0  0  0  0  0
   62.0240   33.6360   49.1260 C   0  0  0  0  0  0  0  0  0  0  0  0
   57.3840   33.4660   46.3210 C   0  0  0  0  0  0  0  0  0  0  0  0
   56.9650   32.6450   45.3390 N   0  0  0  0  0  0  0  0  0  0  0  0
   57.0881   30.3961   44.4473 H   0  0  0  0  0  0  0  0  0  0  0  0
   56.1608   30.5078   42.9130 H   0  0  0  0  0  0  0  0  0  0  0  0
   57.8168   29.8119   42.9130 H   0  0  0  0  0  0  0  0  0  0  0  0
   58.7385   31.8551   42.6540 H   0  0  0  0  0  0  0  0  0  0  0  0
   57.0733   32.5105   42.4393 H   0  0  0  0  0  0  0  0  0  0  0  0
   59.7363   33.7781   44.0767 H   0  0  0  0  0  0  0  0  0  0  0  0
   60.2969   35.2870   46.1468 H   0  0  0  0  0  0  0  0  0  0  0  0
   58.8092   35.8579   47.0175 H   0  0  0  0  0  0  0  0  0  0  0  0
   59.1440   33.7890   48.4240 H   0  0  0  0  0  0  0  0  0  0  0  0
   60.9029   32.5602   47.6310 H   0  0  0  0  0  0  0  0  0  0  0  0
   61.3533   34.1683   45.7646 H   0  0  0  0  0  0  0  0  0  0  0  0
   62.2144   35.2496   46.9522 H   0  0  0  0  0  0  0  0  0  0  0  0
   63.1790   32.8526   45.5137 H   0  0  0  0  0  0  0  0  0  0  0  0
   64.0769   34.2383   46.2948 H   0  0  0  0  0  0  0  0  0  0  0  0
   63.2077   31.5992   47.4957 H   0  0  0  0  0  0  0  0  0  0  0  0
   64.8179   32.4107   47.5223 H   0  0  0  0  0  0  0  0  0  0  0  0
   63.0469   34.1616   51.3622 H   0  0  0  0  0  0  0  0  0  0  0  0
   64.8438   34.4987   53.0666 H   0  0  0  0  0  0  0  0  0  0  0  0
   67.2112   33.9194   52.5081 H   0  0  0  0  0  0  0  0  0  0  0  0
   67.7521   33.0144   50.2413 H   0  0  0  0  0  0  0  0  0  0  0  0
   65.9860   32.7310   48.6330 H   0  0  0  0  0  0  0  0  0  0  0  0
   61.5680   32.9720   49.8751 H   0  0  0  0  0  0  0  0  0  0  0  0
   62.0634   34.6722   49.4930 H   0  0  0  0  0  0  0  0  0  0  0  0
   56.8591   33.6440   47.2711 H   0  0  0  0  0  0  0  0  0  0  0  0
  1  2  1  0
  2  3  1  0
  3  4  1  0
  4  5  2  0
  5  6  1  0
  6  7  1  0
  7  8  1  0
  8  9  1  0
  9 10  1  0
 10 11  1  0
 11 12  1  0
 12 13  1  0
 13 14  2  0
 14 15  1  0
 15 16  2  0
 16 17  1  0
 17 18  2  0
 12 19  1  0
  5 20  1  0
 20 21  2  0
 21  3  1  0
 19  8  1  0
 18 13  1  0
  1 22  1  0
  1 23  1  0
  1 24  1  0
  2 25  1  0
  2 26  1  0
  4 27  1  0
  6 28  1  0
  6 29  1  0
  7 30  1  0
  8 31  1  6
  9 32  1  0
  9 33  1  0
 10 34  1  0
 10 35  1  0
 11 36  1  0
 11 37  1  0
 14 38  1  0
 15 39  1  0
 16 40  1  0
 17 41  1  0
 18 42  1  0
 19 43  1  0
 19 44  1  0
 20 45  1  0
M  CHG  1  18   1
M  END
>  <UniqueID>  (15) 
15

>  <SMILES>  (15) 
CCn1cc(CN[C@H]2CCCN(c3cccc[nH+]3)C2)cn1

>  <Energy>  (15) 
78.45704957909459

>  <Genealogy>  (15) 
CCn1cc(CNC2CCCN(c3cccc[nH+]3)C2)cn1 (protonated)
CCn1cc(CN[C@H]2CCCN(c3cccc[nH+]3)C2)cn1 (chirality)
CCn1cc(CN[C@H]2CCCN(c3cccc[nH+]3)C2)cn1 (3D coordinates assigned)
CCn1cc(CN[C@H]2CCCN(c3cccc[nH+]3)C2)cn1 (nonaromatic ring conformer: 78.45704957909459 kcal/mol)

>  <smiles>  (15) 
CCn1cc(CNC2CCCN(c3ccccn3)C2)cn1

>  <score_type>  (15) 
oracle

>  <origin>  (15) 
adg

>  <m_score__min__energy>  (15) 
-5.7199999999999998

>  <m_primary>  (15) 
energy

$$$$
15:0
     RDKit          3D

 48 49  0  0  0  0  0  0  0  0999 V2000
   57.3800   31.4430   42.6540 C   0  0  0  0  0  0  0  0  0  0  0  0
   56.5010   30.2250   42.9380 C   0  0  0  0  0  0  0  0  0  0  0  0
   57.1740   29.3450   43.7680 O   0  0  0  0  0  0  0  0  0  0  0  0
   57.4620   28.2240   43.0650 N   0  0  0  0  0  0  0  0  0  0  0  0
   58.5160   27.4700   43.7660 C   0  0  0  0  0  0  0  0  0  0  0  0
   57.8550   26.6810   44.8490 C   0  0  0  0  0  0  0  0  0  0  0  0
   58.1980   27.1790   46.2290 C   0  0  0  0  0  0  0  0  0  0  0  0
   57.7550   28.6260   46.4450 C   0  0  0  0  0  0  0  0  0  0  0  0
   58.7240   29.5530   46.5700 N   0  0  0  0  0  0  0  0  0  0  0  0
   59.7160   30.5050   46.6990 C   0  0  0  0  0  0  0  0  0  0  0  0
   61.0150   30.4260   47.1030 C   0  0  0  0  0  0  0  0  0  0  0  0
   61.8800   31.5060   47.1790 C   0  0  0  0  0  0  0  0  0  0  0  0
   61.3920   32.6990   46.8310 N   0  0  0  0  0  0  0  0  0  0  0  0
   62.2590   33.8410   46.9300 C   0  0  0  0  0  0  0  0  0  0  0  0
   63.6790   33.4340   47.0980 C   0  0  0  0  0  0  0  0  0  0  0  0
   60.1380   32.8970   46.4200 C   0  0  0  0  0  0  0  0  0  0  0  0
   59.6630   34.1650   46.0610 C   0  0  0  0  0  0  0  0  0  0  0  0
   58.3620   34.3600   45.6370 C   0  0  0  0  0  0  0  0  0  0  0  0
   57.5140   33.2800   45.5650 C   0  0  0  0  0  0  0  0  0  0  0  0
   58.0070   32.0520   45.9220 C   0  0  0  0  0  0  0  0  0  0  0  0
   59.2960   31.8240   46.3490 C   0  0  0  0  0  0  0  0  0  0  0  0
   57.7036   31.8914   43.6049 H   0  0  0  0  0  0  0  0  0  0  0  0
   58.2628   31.1314   42.0764 H   0  0  0  0  0  0  0  0  0  0  0  0
   56.8062   32.1826   42.0764 H   0  0  0  0  0  0  0  0  0  0  0  0
   55.5719   30.5514   43.4281 H   0  0  0  0  0  0  0  0  0  0  0  0
   56.2622   29.7202   41.9903 H   0  0  0  0  0  0  0  0  0  0  0  0
   57.7740   28.4020   42.0970 H   0  0  0  0  0  0  0  0  0  0  0  0
   56.6450   27.5520   43.0200 H   0  0  0  0  0  0  0  0  0  0  0  0
   59.0242   26.7927   43.0639 H   0  0  0  0  0  0  0  0  0  0  0  0
   59.2683   28.1534   44.1868 H   0  0  0  0  0  0  0  0  0  0  0  0
   56.7651   26.7437   44.7139 H   0  0  0  0  0  0  0  0  0  0  0  0
   58.2178   25.6454   44.7718 H   0  0  0  0  0  0  0  0  0  0  0  0
   57.6970   26.5402   46.9712 H   0  0  0  0  0  0  0  0  0  0  0  0
   59.2915   27.1393   46.3412 H   0  0  0  0  0  0  0  0  0  0  0  0
   57.1309   28.9130   45.5859 H   0  0  0  0  0  0  0  0  0  0  0  0
   57.2378   28.6229   47.4158 H   0  0  0  0  0  0  0  0  0  0  0  0
   58.6830   29.7550   45.2440 H   0  0  0  0  0  0  0  0  0  0  0  0
   61.4036   29.4373   47.3883 H   0  0  0  0  0  0  0  0  0  0  0  0
   62.9218   31.3858   47.5111 H   0  0  0  0  0  0  0  0  0  0  0  0
   62.1653   34.4414   46.0131 H   0  0  0  0  0  0  0  0  0  0  0  0
   61.9607   34.4254   47.8129 H   0  0  0  0  0  0  0  0  0  0  0  0
   63.9166   33.3659   48.1699 H   0  0  0  0  0  0  0  0  0  0  0  0
   63.8381   32.4541   46.6242 H   0  0  0  0  0  0  0  0  0  0  0  0
   64.3330   34.1809   46.6242 H   0  0  0  0  0  0  0  0  0  0  0  0
   60.3430   35.0278   46.1180 H   0  0  0  0  0  0  0  0  0  0  0  0
   58.0100   35.3650   45.3611 H   0  0  0  0  0  0  0  0  0  0  0  0
   56.4725   33.3979   45.2313 H   0  0  0  0  0  0  0  0  0  0  0  0
   57.3265   31.1898   45.8634 H   0  0  0  0  0  0  0  0  0  0  0  0
  1  2  1  0
  2  3  1  0
  3  4  1  0
  4  5  1  0
  5  6  1  0
  6  7  1  0
  7  8  1  0
  8  9  1  0
  9 10  1  0
 10 11  2  0
 11 12  1  0
 12 13  2  0
 13 14  1  0
 14 15  1  0
 13 16  1  0
 16 17  2  0
 17 18  1  0
 18 19  2  0
 19 20  1  0
 20 21  2  0
 21 10  1  0
 21 16  1  0
  1 22  1  0
  1 23  1  0
  1 24  1  0
  2 25  1  0
  2 26  1  0
  4 27  1  0
  4 28  1  0
  5 29  1  0
  5 30  1  0
  6 31  1  0
  6 32  1  0
  7 33  1  0
  7 34  1  0
  8 35  1  0
  8 36  1  0
  9 37  1  0
 11 38  1  0
 12 39  1  0
 14 40  1  0
 14 41  1  0
 15 42  1  0
 15 43  1  0
 15 44  1  0
 17 45  1  0
 18 46  1  0
 19 47  1  0
 20 48  1  0
M  CHG  2   4   1  13   1
M  END
>  <UniqueID>  (16) 
16

>  <SMILES>  (16) 
CCO[NH2+]CCCCNc1cc[n+](CC)c2ccccc12

>  <Energy>  (16) 
247.34296419509178

>  <Genealogy>  (16) 
CCO[NH2+]CCCCNc1cc[n+](CC)c2ccccc12 (protonated)
CCO[NH2+]CCCCNc1cc[n+](CC)c2ccccc12 (3D coordinates assigned)
CCO[NH2+]CCCCNc1cc[n+](CC)c2ccccc12 (optimized conformer: 247.34296419509178 kcal/mol)

>  <smiles>  (16) 
CCONCCCCNc1cc[n+](CC)c2ccccc12

>  <score_type>  (16) 
oracle

>  <origin>  (16) 
adg

>  <m_score__min__energy>  (16) 
-3.9399999999999999

>  <m_primary>  (16) 
energy

$$$$
16:0
     RDKit          3D

 33 34  0  0  0  0  0  0  0  0999 V2000
   60.4780   34.2580   49.4990 C   0  0  0  0  0  0  0  0  0  0  0  0
   59.9900   33.4930   48.3010 C   0  0  0  0  0  0  0  0  0  0  0  0
   58.6270   33.5130   47.9640 C   0  0  0  0  0  0  0  0  0  0  0  0
   58.1600   32.8050   46.8530 C   0  0  0  0  0  0  0  0  0  0  0  0
   59.0490   32.0650   46.0620 C   0  0  0  0  0  0  0  0  0  0  0  0
   58.5520   31.2870   44.8710 C   0  0  0  0  0  0  0  0  0  0  0  0
   57.2310   30.6910   45.1670 N   0  0  0  0  0  0  0  0  0  0  0  0
   57.3430   29.2990   45.6440 C   0  0  0  0  0  0  0  0  0  0  0  0
   57.7550   28.3280   44.5150 C   0  0  0  0  0  0  0  0  0  0  0  0
   57.2170   28.7100   43.1920 N   0  0  0  0  0  0  0  0  0  0  0  0
   55.9940   29.5150   43.2950 C   0  0  0  0  0  0  0  0  0  0  0  0
   56.2660   30.8340   44.0460 C   0  0  0  0  0  0  0  0  0  0  0  0
   60.4110   32.0390   46.3960 C   0  0  0  0  0  0  0  0  0  0  0  0
   60.8850   32.7470   47.5060 C   0  0  0  0  0  0  0  0  0  0  0  0
   62.6050   32.6770   47.8780 Cl  0  0  0  0  0  0  0  0  0  0  0  0
   60.1525   33.7477   50.4175 H   0  0  0  0  0  0  0  0  0  0  0  0
   61.5766   34.3101   49.4782 H   0  0  0  0  0  0  0  0  0  0  0  0
   60.0622   35.2762   49.4782 H   0  0  0  0  0  0  0  0  0  0  0  0
   57.9212   34.0904   48.5792 H   0  0  0  0  0  0  0  0  0  0  0  0
   57.0901   32.8288   46.5985 H   0  0  0  0  0  0  0  0  0  0  0  0
   58.4609   31.9626   44.0077 H   0  0  0  0  0  0  0  0  0  0  0  0
   59.2667   30.4823   44.6435 H   0  0  0  0  0  0  0  0  0  0  0  0
   58.0998   29.2573   46.4412 H   0  0  0  0  0  0  0  0  0  0  0  0
   56.3550   28.9877   46.0141 H   0  0  0  0  0  0  0  0  0  0  0  0
   58.8531   28.3093   44.4536 H   0  0  0  0  0  0  0  0  0  0  0  0
   57.3379   27.3412   44.7646 H   0  0  0  0  0  0  0  0  0  0  0  0
   57.9370   29.2450   42.6530 H   0  0  0  0  0  0  0  0  0  0  0  0
   57.0010   27.8410   42.6490 H   0  0  0  0  0  0  0  0  0  0  0  0
   55.6279   29.7452   42.2836 H   0  0  0  0  0  0  0  0  0  0  0  0
   55.2408   28.9406   43.8543 H   0  0  0  0  0  0  0  0  0  0  0  0
   56.6700   31.5650   43.3302 H   0  0  0  0  0  0  0  0  0  0  0  0
   55.3103   31.1605   44.4821 H   0  0  0  0  0  0  0  0  0  0  0  0
   61.1125   31.4571   45.7801 H   0  0  0  0  0  0  0  0  0  0  0  0
  1  2  1  0
  2  3  2  0
  3  4  1  0
  4  5  2  0
  5  6  1  0
  6  7  1  0
  7  8  1  0
  8  9  1  0
  9 10  1  0
 10 11  1  0
 11 12  1  0
  5 13  1  0
 13 14  2  0
 14 15  1  0
 14  2  1  0
 12  7  1  0
  1 16  1  0
  1 17  1  0
  1 18  1  0
  3 19  1  0
  4 20  1  0
  6 21  1  0
  6 22  1  0
  8 23  1  0
  8 24  1  0
  9 25  1  0
  9 26  1  0
 10 27  1  0
 10 28  1  0
 11 29  1  0
 11 30  1  0
 12 31  1  0
 12 32  1  0
 13 33  1  0
M  CHG  1  10   1
M  END
>  <UniqueID>  (17) 
17

>  <SMILES>  (17) 
Cc1ccc(CN2CC[NH2+]CC2)cc1Cl

>  <Energy>  (17) 
42.59229558740115

>  <Genealogy>  (17) 
Cc1ccc(CN2CC[NH2+]CC2)cc1Cl (protonated)
Cc1ccc(CN2CC[NH2+]CC2)cc1Cl (3D coordinates assigned)
Cc1ccc(CN2CC[NH2+]CC2)cc1Cl (nonaromatic ring conformer: 42.59229558740115 kcal/mol)

>  <smiles>  (17) 
Cc1ccc(CN2CCNCC2)cc1Cl

>  <score_type>  (17) 
oracle

>  <origin>  (17) 
adg

>  <m_score__min__energy>  (17) 
-4.7800000000000002

>  <m_primary>  (17) 
energy

$$$$
17:0
     RDKit          3D

 45 47  0  0  0  0  0  0  0  0999 V2000
   57.9460   32.3810   41.1110 C   0  0  0  0  0  0  0  0  0  0  0  0
   57.0220   31.5680   42.0130 C   0  0  0  0  0  0  0  0  0  0  0  0
   57.5050   31.6000   43.4380 C   0  0  0  0  0  0  0  0  0  0  0  0
   57.7740   32.8260   44.0640 C   0  0  0  0  0  0  0  0  0  0  0  0
   58.2590   32.8610   45.3780 C   0  0  0  0  0  0  0  0  0  0  0  0
   58.4940   34.1800   46.0620 C   0  0  0  0  0  0  0  0  0  0  0  0
   59.7370   34.1120   46.9070 C   0  0  0  0  0  0  0  0  0  0  0  0
   59.6510   34.2300   48.3050 C   0  0  0  0  0  0  0  0  0  0  0  0
   60.8030   34.1290   49.0920 C   0  0  0  0  0  0  0  0  0  0  0  0
   62.0440   33.9020   48.4920 C   0  0  0  0  0  0  0  0  0  0  0  0
   62.1360   33.7730   47.1030 C   0  0  0  0  0  0  0  0  0  0  0  0
   60.9870   33.8730   46.3110 C   0  0  0  0  0  0  0  0  0  0  0  0
   58.4650   31.6600   46.0720 C   0  0  0  0  0  0  0  0  0  0  0  0
   58.2170   30.4200   45.4540 C   0  0  0  0  0  0  0  0  0  0  0  0
   58.4390   29.1850   46.1700 N   0  0  0  0  0  0  0  0  0  0  0  0
   58.8920   29.2050   47.5670 C   0  0  0  0  0  0  0  0  0  0  0  0
   59.6170   27.8990   47.9090 C   0  0  0  0  0  0  0  0  0  0  0  0
   58.7770   26.7120   47.6700 N   0  0  0  0  0  0  0  0  0  0  0  0
   57.8500   26.8220   46.5250 C   0  0  0  0  0  0  0  0  0  0  0  0
   58.2650   27.8890   45.5020 C   0  0  0  0  0  0  0  0  0  0  0  0
   57.7400   30.4040   44.1320 C   0  0  0  0  0  0  0  0  0  0  0  0
   58.6283   32.9813   41.7307 H   0  0  0  0  0  0  0  0  0  0  0  0
   58.5312   31.6996   40.4760 H   0  0  0  0  0  0  0  0  0  0  0  0
   57.3446   33.0482   40.4760 H   0  0  0  0  0  0  0  0  0  0  0  0
   56.0078   31.9912   41.9661 H   0  0  0  0  0  0  0  0  0  0  0  0
   57.0170   30.5245   41.6650 H   0  0  0  0  0  0  0  0  0  0  0  0
   57.6030   33.7664   43.5196 H   0  0  0  0  0  0  0  0  0  0  0  0
   58.6132   34.9670   45.3028 H   0  0  0  0  0  0  0  0  0  0  0  0
   57.6330   34.4085   46.7073 H   0  0  0  0  0  0  0  0  0  0  0  0
   58.6747   34.4023   48.7817 H   0  0  0  0  0  0  0  0  0  0  0  0
   60.7316   34.2285   50.1852 H   0  0  0  0  0  0  0  0  0  0  0  0
   62.9489   33.8247   49.1126 H   0  0  0  0  0  0  0  0  0  0  0  0
   63.1135   33.5925   46.6319 H   0  0  0  0  0  0  0  0  0  0  0  0
   61.0623   33.7643   45.2190 H   0  0  0  0  0  0  0  0  0  0  0  0
   58.8245   31.6873   47.1112 H   0  0  0  0  0  0  0  0  0  0  0  0
   59.5796   30.0510   47.7136 H   0  0  0  0  0  0  0  0  0  0  0  0
   58.0175   29.3122   48.2256 H   0  0  0  0  0  0  0  0  0  0  0  0
   60.5211   27.8233   47.2869 H   0  0  0  0  0  0  0  0  0  0  0  0
   59.8662   27.9238   48.9801 H   0  0  0  0  0  0  0  0  0  0  0  0
   59.4130   25.8960   47.5100 H   0  0  0  0  0  0  0  0  0  0  0  0
   57.8090   25.8481   46.0153 H   0  0  0  0  0  0  0  0  0  0  0  0
   56.8718   27.1231   46.9281 H   0  0  0  0  0  0  0  0  0  0  0  0
   59.2134   27.5921   45.0305 H   0  0  0  0  0  0  0  0  0  0  0  0
   57.4801   27.9799   44.7368 H   0  0  0  0  0  0  0  0  0  0  0  0
   57.5486   29.4413   43.6354 H   0  0  0  0  0  0  0  0  0  0  0  0
  1  2  1  0
  2  3  1  0
  3  4  2  0
  4  5  1  0
  5  6  1  0
  6  7  1  0
  7  8  2  0
  8  9  1  0
  9 10  2  0
 10 11  1  0
 11 12  2  0
  5 13  2  0
 13 14  1  0
 14 15  1  0
 15 16  1  0
 16 17  1  0
 17 18  1  0
 18 19  1  0
 19 20  1  0
 14 21  2  0
 21  3  1  0
 12  7  1  0
 20 15  1  0
  1 22  1  0
  1 23  1  0
  1 24  1  0
  2 25  1  0
  2 26  1  0
  4 27  1  0
  6 28  1  0
  6 29  1  0
  8 30  1  0
  9 31  1  0
 10 32  1  0
 11 33  1  0
 12 34  1  0
 13 35  1  0
 16 36  1  0
 16 37  1  0
 17 38  1  0
 17 39  1  0
 18 40  1  0
 19 41  1  0
 19 42  1  0
 20 43  1  0
 20 44  1  0
 21 45  1  0
M  END
>  <UniqueID>  (18) 
18

>  <SMILES>  (18) 
CCc1cc(Cc2ccccc2)cc(N2CCNCC2)c1

>  <Energy>  (18) 
48.319220601338095

>  <Genealogy>  (18) 
CCc1cc(Cc2ccccc2)cc(N2CCNCC2)c1 (3D coordinates assigned)
CCc1cc(Cc2ccccc2)cc(N2CCNCC2)c1 (nonaromatic ring conformer: 48.319220601338095 kcal/mol)

>  <smiles>  (18) 
CCc1cc(Cc2ccccc2)cc(N2CCNCC2)c1

>  <score_type>  (18) 
oracle

>  <origin>  (18) 
adg

>  <m_score__min__energy>  (18) 
-7.29

>  <m_primary>  (18) 
energy

$$$$
18:0
     RDKit          3D

 56 59  0  0  0  0  0  0  0  0999 V2000
   56.6210   30.1270   43.0150 C   0  0  0  0  0  0  0  0  0  0  0  0
   57.3480   31.2800   43.6890 C   0  0  0  0  0  0  0  0  0  0  0  0
   56.7360   31.5580   44.9380 O   0  0  0  0  0  0  0  0  0  0  0  0
   57.0250   32.8810   45.3500 C   0  0  0  0  0  0  0  0  0  0  0  0
   58.2100   33.4360   44.5510 C   0  0  0  0  0  0  0  0  0  0  0  0
   58.9240   34.4310   45.2710 O   0  0  0  0  0  0  0  0  0  0  0  0
   58.7880   34.2670   46.6720 C   0  0  0  0  0  0  0  0  0  0  0  0
   60.1560   34.1070   47.3510 C   0  0  0  0  0  0  0  0  0  0  0  0
   61.3020   33.9250   46.3400 C   0  0  0  0  0  0  0  0  0  0  0  0
   62.3360   32.9800   46.7910 N   0  0  0  0  0  0  0  0  0  0  0  0
   62.1070   31.9310   47.7530 C   0  0  0  0  0  0  0  0  0  0  0  0
   62.9160   31.8460   48.8850 C   0  0  0  0  0  0  0  0  0  0  0  0
   62.5950   31.0070   49.9390 C   0  0  0  0  0  0  0  0  0  0  0  0
   61.5840   30.0850   49.8470 N   0  0  0  0  0  0  0  0  0  0  0  0
   61.4830   29.0040   50.8410 C   0  0  0  0  0  0  0  0  0  0  0  0
   60.7420   30.1330   48.7460 C   0  0  0  0  0  0  0  0  0  0  0  0
   59.5870   29.3170   48.6610 C   0  0  0  0  0  0  0  0  0  0  0  0
   58.8020   29.3030   47.5090 C   0  0  0  0  0  0  0  0  0  0  0  0
   59.1470   30.0900   46.4160 C   0  0  0  0  0  0  0  0  0  0  0  0
   60.2480   30.9420   46.4840 C   0  0  0  0  0  0  0  0  0  0  0  0
   61.0240   31.0240   47.6560 C   0  0  0  0  0  0  0  0  0  0  0  0
   63.5350   31.2930   51.0490 C   0  0  0  0  0  0  0  0  0  0  0  0
   63.4370   30.9800   52.3730 N   0  0  0  0  0  0  0  0  0  0  0  0
   64.3460   31.4890   53.2570 C   0  0  0  0  0  0  0  0  0  0  0  0
   65.3430   32.3870   52.8270 C   0  0  0  0  0  0  0  0  0  0  0  0
   65.3790   32.7920   51.4860 C   0  0  0  0  0  0  0  0  0  0  0  0
   64.4520   32.2300   50.6140 C   0  0  0  0  0  0  0  0  0  0  0  0
   64.1110   32.6120   49.2540 C   0  0  0  0  0  0  0  0  0  0  0  0
   64.7110   33.4690   48.5530 O   0  0  0  0  0  0  0  0  0  0  0  0
   56.2005   29.4601   43.7821 H   0  0  0  0  0  0  0  0  0  0  0  0
   55.8086   30.5224   42.3877 H   0  0  0  0  0  0  0  0  0  0  0  0
   57.3280   29.5644   42.3877 H   0  0  0  0  0  0  0  0  0  0  0  0
   58.4012   31.0060   43.8494 H   0  0  0  0  0  0  0  0  0  0  0  0
   57.2954   32.1722   43.0477 H   0  0  0  0  0  0  0  0  0  0  0  0
   56.1428   33.5156   45.1801 H   0  0  0  0  0  0  0  0  0  0  0  0
   57.2831   32.8763   46.4193 H   0  0  0  0  0  0  0  0  0  0  0  0
   58.8959   32.6093   44.3144 H   0  0  0  0  0  0  0  0  0  0  0  0
   57.8126   33.9008   43.6366 H   0  0  0  0  0  0  0  0  0  0  0  0
   58.2824   35.1506   47.0887 H   0  0  0  0  0  0  0  0  0  0  0  0
   58.1992   33.3569   46.8592 H   0  0  0  0  0  0  0  0  0  0  0  0
   60.3573   35.0051   47.9535 H   0  0  0  0  0  0  0  0  0  0  0  0
   60.1145   33.2011   47.9736 H   0  0  0  0  0  0  0  0  0  0  0  0
   60.8779   33.5529   45.3957 H   0  0  0  0  0  0  0  0  0  0  0  0
   61.7878   34.9047   46.2207 H   0  0  0  0  0  0  0  0  0  0  0  0
   63.3260   33.2360   46.5820 H   0  0  0  0  0  0  0  0  0  0  0  0
   61.5230   29.4320   51.8535 H   0  0  0  0  0  0  0  0  0  0  0  0
   60.5310   28.4696   50.7061 H   0  0  0  0  0  0  0  0  0  0  0  0
   62.3195   28.3025   50.7061 H   0  0  0  0  0  0  0  0  0  0  0  0
   59.3055   28.6853   49.5164 H   0  0  0  0  0  0  0  0  0  0  0  0
   57.9059   28.6666   47.4646 H   0  0  0  0  0  0  0  0  0  0  0  0
   58.5488   30.0401   45.4942 H   0  0  0  0  0  0  0  0  0  0  0  0
   60.5138   31.5575   45.6119 H   0  0  0  0  0  0  0  0  0  0  0  0
   62.6560   30.4010   52.7460 H   0  0  0  0  0  0  0  0  0  0  0  0
   64.2990   31.1946   54.3158 H   0  0  0  0  0  0  0  0  0  0  0  0
   66.0889   32.7680   53.5400 H   0  0  0  0  0  0  0  0  0  0  0  0
   66.1155   33.5296   51.1346 H   0  0  0  0  0  0  0  0  0  0  0  0
  1  2  1  0
  2  3  1  0
  3  4  1  0
  4  5  1  0
  5  6  1  0
  6  7  1  0
  7  8  1  0
  8  9  1  0
  9 10  1  0
 10 11  1  0
 11 12  2  0
 12 13  1  0
 13 14  2  0
 14 15  1  0
 14 16  1  0
 16 17  2  0
 17 18  1  0
 18 19  2  0
 19 20  1  0
 20 21  2  0
 13 22  1  0
 22 23  2  0
 23 24  1  0
 24 25  2  0
 25 26  1  0
 26 27  2  0
 27 28  1  0
 28 29  2  0
 21 11  1  0
 27 22  1  0
 28 12  1  0
 21 16  1  0
  1 30  1  0
  1 31  1  0
  1 32  1  0
  2 33  1  0
  2 34  1  0
  4 35  1  0
  4 36  1  0
  5 37  1  0
  5 38  1  0
  7 39  1  0
  7 40  1  0
  8 41  1  0
  8 42  1  0
  9 43  1  0
  9 44  1  0
 10 45  1  0
 15 46  1  0
 15 47  1  0
 15 48  1  0
 17 49  1  0
 18 50  1  0
 19 51  1  0
 20 52  1  0
 23 53  1  0
 24 54  1  0
 25 55  1  0
 26 56  1  0
M  CHG  2  14   1  23   1
M  END
>  <UniqueID>  (19) 
19

>  <SMILES>  (19) 
CCOCCOCCCNc1c2c([n+](C)c3ccccc13)-c1[nH+]cccc1C2=O

>  <Energy>  (19) 
112.08461125492353

>  <Genealogy>  (19) 
CCOCCOCCCNc1c2c([n+](C)c3ccccc13)-c1[nH+]cccc1C2=O (protonated)
CCOCCOCCCNc1c2c([n+](C)c3ccccc13)-c1[nH+]cccc1C2=O (3D coordinates assigned)
CCOCCOCCCNc1c2c([n+](C)c3ccccc13)-c1[nH+]cccc1C2=O (nonaromatic ring conformer: 112.08461125492353 kcal/mol)

>  <smiles>  (19) 
CCOCCOCCCNc1c2c([n+](C)c3ccccc13)-c1ncccc1C2=O

>  <score_type>  (19) 
oracle

>  <origin>  (19) 
adg

>  <m_score__min__energy>  (19) 
-5.71

>  <m_primary>  (19) 
energy

$$$$
19:0
     RDKit          3D

 34 35  0  0  0  0  0  0  0  0999 V2000
   56.3340   29.7330   43.3250 C   0  0  0  0  0  0  0  0  0  0  0  0
   57.3990   30.4170   44.1760 C   0  0  0  0  0  0  0  0  0  0  0  0
   56.8020   31.4820   44.9950 N   0  0  0  0  0  0  0  0  0  0  0  0
   57.3870   32.7920   44.6830 C   0  0  0  0  0  0  0  0  0  0  0  0
   57.9870   33.4110   45.9470 C   0  0  0  0  0  0  0  0  0  0  0  0
   58.5050   32.3740   46.8430 N   0  0  0  0  0  0  0  0  0  0  0  0
   59.2430   32.6890   48.0420 C   0  0  0  0  0  0  0  0  0  0  0  0
   58.5940   32.6550   49.2900 C   0  0  0  0  0  0  0  0  0  0  0  0
   59.2680   33.0100   50.4590 C   0  0  0  0  0  0  0  0  0  0  0  0
   58.3540   32.9680   52.1370 Br  0  0  0  0  0  0  0  0  0  0  0  0
   60.6020   33.4070   50.4060 C   0  0  0  0  0  0  0  0  0  0  0  0
   61.2830   33.4380   49.1820 C   0  0  0  0  0  0  0  0  0  0  0  0
   62.5960   33.8130   49.1430 N   0  0  0  0  0  0  0  0  0  0  0  0
   63.2990   33.8310   47.9800 C   0  0  0  0  0  0  0  0  0  0  0  0
   62.6880   33.4540   46.7860 C   0  0  0  0  0  0  0  0  0  0  0  0
   61.3500   33.0680   46.7880 C   0  0  0  0  0  0  0  0  0  0  0  0
   60.6110   33.0690   47.9870 C   0  0  0  0  0  0  0  0  0  0  0  0
   55.5911   29.2559   43.9811 H   0  0  0  0  0  0  0  0  0  0  0  0
   55.8361   30.4806   42.6901 H   0  0  0  0  0  0  0  0  0  0  0  0
   56.8068   28.9692   42.6901 H   0  0  0  0  0  0  0  0  0  0  0  0
   57.8670   29.6723   44.8366 H   0  0  0  0  0  0  0  0  0  0  0  0
   58.1528   30.8623   43.5101 H   0  0  0  0  0  0  0  0  0  0  0  0
   57.0210   31.2700   45.9980 H   0  0  0  0  0  0  0  0  0  0  0  0
   58.1771   32.6677   43.9278 H   0  0  0  0  0  0  0  0  0  0  0  0
   56.6006   33.4555   44.2941 H   0  0  0  0  0  0  0  0  0  0  0  0
   58.8089   34.0845   45.6627 H   0  0  0  0  0  0  0  0  0  0  0  0
   57.1980   33.9678   46.4737 H   0  0  0  0  0  0  0  0  0  0  0  0
   58.3280   31.3750   46.6010 H   0  0  0  0  0  0  0  0  0  0  0  0
   57.5403   32.3441   49.3448 H   0  0  0  0  0  0  0  0  0  0  0  0
   61.1235   33.6977   51.3299 H   0  0  0  0  0  0  0  0  0  0  0  0
   63.0900   34.0910   50.0220 H   0  0  0  0  0  0  0  0  0  0  0  0
   64.3535   34.1441   47.9814 H   0  0  0  0  0  0  0  0  0  0  0  0
   63.2597   33.4612   45.8463 H   0  0  0  0  0  0  0  0  0  0  0  0
   60.8678   32.7607   45.8483 H   0  0  0  0  0  0  0  0  0  0  0  0
  1  2  1  0
  2  3  1  0
  3  4  1  0
  4  5  1  0
  5  6  1  0
  6  7  1  0
  7  8  2  0
  8  9  1  0
  9 10  1  0
  9 11  2  0
 11 12  1  0
 12 13  2  0
 13 14  1  0
 14 15  2  0
 15 16  1  0
 16 17  2  0
 17  7  1  0
 17 12  1  0
  1 18  1  0
  1 19  1  0
  1 20  1  0
  2 21  1  0
  2 22  1  0
  3 23  1  0
  4 24  1  0
  4 25  1  0
  5 26  1  0
  5 27  1  0
  6 28  1  0
  8 29  1  0
 11 30  1  0
 13 31  1  0
 14 32  1  0
 15 33  1  0
 16 34  1  0
M  CHG  1  13   1
M  END
>  <UniqueID>  (20) 
20

>  <SMILES>  (20) 
CCNCCNc1cc(Br)cc2[nH+]cccc12

>  <Energy>  (20) 
35.47215898579545

>  <Genealogy>  (20) 
CCNCCNc1cc(Br)cc2[nH+]cccc12 (protonated)
CCNCCNc1cc(Br)cc2[nH+]cccc12 (3D coordinates assigned)
CCNCCNc1cc(Br)cc2[nH+]cccc12 (optimized conformer: 35.47215898579545 kcal/mol)

>  <smiles>  (20) 
CCNCCNc1cc(Br)cc2ncccc12

>  <score_type>  (20) 
oracle

>  <origin>  (20) 
adg

>  <m_score__min__energy>  (20) 
-4.79

>  <m_primary>  (20) 
energy

$$$$
20:0
     RDKit          3D

 69 72  0  0  0  0  0  0  0  0999 V2000
   57.2560   22.1740   43.7630 C   0  0  0  0  0  0  0  0  0  0  0  0
   57.5890   23.6660   43.9400 C   0  0  0  0  0  0  0  0  0  0  0  0
   58.2550   23.9020   45.2980 C   0  0  0  0  0  0  0  0  0  0  0  0
   56.3880   24.5130   43.8440 N   0  0  0  0  0  0  0  0  0  0  0  0
   55.3270   24.1010   44.7730 C   0  0  0  0  0  0  0  0  0  0  0  0
   55.2630   25.0440   45.9770 C   0  0  0  0  0  0  0  0  0  0  0  0
   55.6770   26.3690   45.6300 O   0  0  0  0  0  0  0  0  0  0  0  0
   56.7610   27.0720   46.1820 C   0  0  0  0  0  0  0  0  0  0  0  0
   57.0820   28.3180   45.6340 C   0  0  0  0  0  0  0  0  0  0  0  0
   58.1490   29.0670   46.1390 C   0  0  0  0  0  0  0  0  0  0  0  0
   58.9200   28.5820   47.2100 C   0  0  0  0  0  0  0  0  0  0  0  0
   60.0480   29.3740   47.7610 C   0  0  0  0  0  0  0  0  0  0  0  0
   60.4550   29.4240   49.0970 C   0  0  0  0  0  0  0  0  0  0  0  0
   61.5620   30.2750   49.3170 C   0  0  0  0  0  0  0  0  0  0  0  0
   61.9910   30.9090   48.1620 C   0  0  0  0  0  0  0  0  0  0  0  0
   61.0460   30.3980   46.8670 S   0  0  0  0  0  0  0  0  0  0  0  0
   63.0380   31.8340   48.1540 C   0  0  0  0  0  0  0  0  0  0  0  0
   63.4240   32.4670   46.9040 N   0  0  0  0  0  0  0  0  0  0  0  0
   62.8760   33.8320   46.7800 C   0  0  0  0  0  0  0  0  0  0  0  0
   61.3910   33.8430   46.3690 C   0  0  0  0  0  0  0  0  0  0  0  0
   60.5020   33.6700   47.5390 N   0  0  0  0  0  0  0  0  0  0  0  0
   61.0680   34.3100   48.7420 C   0  0  0  0  0  0  0  0  0  0  0  0
   59.1840   34.2620   47.2500 C   0  0  0  0  0  0  0  0  0  0  0  0
   63.6310   32.1470   49.4120 C   0  0  0  0  0  0  0  0  0  0  0  0
   64.6720   33.0960   49.5340 C   0  0  0  0  0  0  0  0  0  0  0  0
   65.1940   33.4390   50.7790 C   0  0  0  0  0  0  0  0  0  0  0  0
   64.6870   32.8590   51.9340 C   0  0  0  0  0  0  0  0  0  0  0  0
   65.3780   33.3780   53.6390 Br  0  0  0  0  0  0  0  0  0  0  0  0
   63.6770   31.9030   51.8520 C   0  0  0  0  0  0  0  0  0  0  0  0
   63.1500   31.4950   50.6000 C   0  0  0  0  0  0  0  0  0  0  0  0
   62.1810   30.5060   50.5210 N   0  0  0  0  0  0  0  0  0  0  0  0
   61.8130   29.7010   51.7040 C   0  0  0  0  0  0  0  0  0  0  0  0
   58.5960   27.3280   47.7600 C   0  0  0  0  0  0  0  0  0  0  0  0
   57.5330   26.5780   47.2500 C   0  0  0  0  0  0  0  0  0  0  0  0
   57.1507   21.7021   44.7510 H   0  0  0  0  0  0  0  0  0  0  0  0
   56.3131   22.0724   43.2057 H   0  0  0  0  0  0  0  0  0  0  0  0
   58.0662   21.6811   43.2057 H   0  0  0  0  0  0  0  0  0  0  0  0
   58.2758   23.9425   43.1265 H   0  0  0  0  0  0  0  0  0  0  0  0
   57.5473   23.6512   46.1020 H   0  0  0  0  0  0  0  0  0  0  0  0
   59.1481   23.2656   45.3839 H   0  0  0  0  0  0  0  0  0  0  0  0
   58.5481   24.9587   45.3839 H   0  0  0  0  0  0  0  0  0  0  0  0
   56.6510   25.5060   44.0530 H   0  0  0  0  0  0  0  0  0  0  0  0
   54.3605   24.1201   44.2481 H   0  0  0  0  0  0  0  0  0  0  0  0
   55.5475   23.0849   45.1321 H   0  0  0  0  0  0  0  0  0  0  0  0
   54.2283   25.0790   46.3486 H   0  0  0  0  0  0  0  0  0  0  0  0
   55.9451   24.6616   46.7506 H   0  0  0  0  0  0  0  0  0  0  0  0
   56.4884   28.7131   44.7964 H   0  0  0  0  0  0  0  0  0  0  0  0
   58.3874   30.0445   45.6944 H   0  0  0  0  0  0  0  0  0  0  0  0
   59.9617   28.8561   49.8996 H   0  0  0  0  0  0  0  0  0  0  0  0
   63.0440   31.8970   46.1140 H   0  0  0  0  0  0  0  0  0  0  0  0
   64.4540   32.4650   46.7460 H   0  0  0  0  0  0  0  0  0  0  0  0
   62.9761   34.3406   47.7502 H   0  0  0  0  0  0  0  0  0  0  0  0
   63.4426   34.3464   45.9898 H   0  0  0  0  0  0  0  0  0  0  0  0
   61.1615   34.8037   45.8849 H   0  0  0  0  0  0  0  0  0  0  0  0
   61.2184   33.0046   45.6782 H   0  0  0  0  0  0  0  0  0  0  0  0
   60.6485   33.8357   49.6415 H   0  0  0  0  0  0  0  0  0  0  0  0
   62.1615   34.1907   48.7407 H   0  0  0  0  0  0  0  0  0  0  0  0
   60.8159   35.3807   48.7407 H   0  0  0  0  0  0  0  0  0  0  0  0
   58.6705   34.4927   48.1950 H   0  0  0  0  0  0  0  0  0  0  0  0
   59.3168   35.1869   46.6696 H   0  0  0  0  0  0  0  0  0  0  0  0
   58.5808   33.5484   46.6696 H   0  0  0  0  0  0  0  0  0  0  0  0
   65.0771   33.5722   48.6290 H   0  0  0  0  0  0  0  0  0  0  0  0
   66.0111   34.1723   50.8473 H   0  0  0  0  0  0  0  0  0  0  0  0
   63.2807   31.4561   52.7757 H   0  0  0  0  0  0  0  0  0  0  0  0
   62.0669   30.2564   52.6189 H   0  0  0  0  0  0  0  0  0  0  0  0
   60.7322   29.4970   51.6869 H   0  0  0  0  0  0  0  0  0  0  0  0
   62.3659   28.7502   51.6869 H   0  0  0  0  0  0  0  0  0  0  0  0
   59.1859   26.9338   48.6006 H   0  0  0  0  0  0  0  0  0  0  0  0
   57.2982   25.5957   47.6858 H   0  0  0  0  0  0  0  0  0  0  0  0
  1  2  1  0
  2  3  1  0
  2  4  1  0
  4  5  1  0
  5  6  1  0
  6  7  1  0
  7  8  1  0
  8  9  2  0
  9 10  1  0
 10 11  2  0
 11 12  1  0
 12 13  2  0
 13 14  1  0
 14 15  2  0
 15 16  1  0
 15 17  1  0
 17 18  1  0
 18 19  1  0
 19 20  1  0
 20 21  1  0
 21 22  1  0
 21 23  1  0
 17 24  2  0
 24 25  1  0
 25 26  2  0
 26 27  1  0
 27 28  1  0
 27 29  2  0
 29 30  1  0
 30 31  2  0
 31 32  1  0
 11 33  1  0
 33 34  2  0
 34  8  1  0
 16 12  1  0
 30 24  1  0
 31 14  1  0
  1 35  1  0
  1 36  1  0
  1 37  1  0
  2 38  1  0
  3 39  1  0
  3 40  1  0
  3 41  1  0
  4 42  1  0
  5 43  1  0
  5 44  1  0
  6 45  1  0
  6 46  1  0
  9 47  1  0
 10 48  1  0
 13 49  1  0
 18 50  1  0
 18 51  1  0
 19 52  1  0
 19 53  1  0
 20 54  1  0
 20 55  1  0
 22 56  1  0
 22 57  1  0
 22 58  1  0
 23 59  1  0
 23 60  1  0
 23 61  1  0
 25 62  1  0
 26 63  1  0
 29 64  1  0
 32 65  1  0
 32 66  1  0
 32 67  1  0
 33 68  1  0
 34 69  1  0
M  CHG  2  18   1  31   1
M  END
>  <UniqueID>  (21) 
21

>  <SMILES>  (21) 
CC(C)NCCOc1ccc(-c2cc3c(s2)c([NH2+]CCN(C)C)c2ccc(Br)cc2[n+]3C)cc1

>  <Energy>  (21) 
117.86404404250686

>  <Genealogy>  (21) 
CC(C)NCCOc1ccc(-c2cc3c(s2)c([NH2+]CCN(C)C)c2ccc(Br)cc2[n+]3C)cc1 (protonated)
CC(C)NCCOc1ccc(-c2cc3c(s2)c([NH2+]CCN(C)C)c2ccc(Br)cc2[n+]3C)cc1 (3D coordinates assigned)
CC(C)NCCOc1ccc(-c2cc3c(s2)c([NH2+]CCN(C)C)c2ccc(Br)cc2[n+]3C)cc1 (optimized conformer: 117.86404404250686 kcal/mol)

>  <smiles>  (21) 
CC(C)NCCOc1ccc(-c2cc3c(s2)c(NCCN(C)C)c2ccc(Br)cc2[n+]3C)cc1

>  <score_type>  (21) 
oracle

>  <origin>  (21) 
adg

>  <m_score__min__energy>  (21) 
-5.3899999999999997

>  <m_primary>  (21) 
energy

$$$$
21:0
     RDKit          3D

 63 64  0  0  0  0  0  0  0  0999 V2000
   60.3400   28.1680   45.3630 C   0  0  0  0  0  0  0  0  0  0  0  0
   59.6630   29.3100   44.6140 C   0  0  0  0  0  0  0  0  0  0  0  0
   58.2180   29.3380   44.9470 N   0  0  0  0  0  0  0  0  0  0  0  0
   57.4540   30.2980   44.1160 C   0  0  0  0  0  0  0  0  0  0  0  0
   55.9420   30.0280   44.0960 C   0  0  0  0  0  0  0  0  0  0  0  0
   57.9480   29.4990   46.3930 C   0  0  0  0  0  0  0  0  0  0  0  0
   58.9130   30.4370   46.9810 N   0  0  0  0  0  0  0  0  0  0  0  0
   59.4240   29.9290   48.2590 C   0  0  0  0  0  0  0  0  0  0  0  0
   58.9370   30.7840   49.3450 C   0  0  0  0  0  0  0  0  0  0  0  0
   58.5670   31.4800   50.2560 C   0  0  0  0  0  0  0  0  0  0  0  0
   58.1410   32.3030   51.3950 C   0  0  0  0  0  0  0  0  0  0  0  0
   59.1440   33.4340   51.6560 C   0  0  0  0  0  0  0  0  0  0  0  0
   60.3670   33.3520   50.7240 C   0  0  0  0  0  0  0  0  0  0  0  0
   60.1600   34.1680   49.4250 C   0  0  0  0  0  0  0  0  0  0  0  0
   61.3270   34.2410   48.3960 C   0  0  1  0  0  0  0  0  0  0  0  0
   62.7370   33.7880   48.8690 C   0  0  1  0  0  0  0  0  0  0  0  0
   62.7770   32.2990   49.2380 C   0  0  0  0  0  0  0  0  0  0  0  0
   62.5650   31.6060   47.8850 C   0  0  0  0  0  0  0  0  0  0  0  0
   62.5230   32.7860   46.8900 C   0  0  2  0  0  0  0  0  0  0  0  0
   63.4850   33.7570   47.5490 C   0  0  0  0  0  0  0  0  0  0  0  0
   61.1870   33.5700   46.9960 C   0  0  1  0  0  0  0  0  0  0  0  0
   59.9830   32.7310   46.8300 N   0  0  0  0  0  0  0  0  0  0  0  0
   58.6190   33.6710   46.2910 S   0  0  0  0  0  0  0  0  0  0  0  0
   58.3900   33.5800   44.5240 C   0  0  0  0  0  0  0  0  0  0  0  0
   58.8440   35.1080   46.6680 O   0  0  0  0  0  0  0  0  0  0  0  0
   57.3730   33.1800   46.9710 O   0  0  0  0  0  0  0  0  0  0  0  0
   60.2430   28.3317   46.4464 H   0  0  0  0  0  0  0  0  0  0  0  0
   59.8602   27.2161   45.0915 H   0  0  0  0  0  0  0  0  0  0  0  0
   61.4054   28.1321   45.0915 H   0  0  0  0  0  0  0  0  0  0  0  0
   60.1246   30.2644   44.9075 H   0  0  0  0  0  0  0  0  0  0  0  0
   59.7848   29.1587   43.5313 H   0  0  0  0  0  0  0  0  0  0  0  0
   57.6211   31.3105   44.5122 H   0  0  0  0  0  0  0  0  0  0  0  0
   57.8146   30.1878   43.0827 H   0  0  0  0  0  0  0  0  0  0  0  0
   55.5678   29.9612   45.1282 H   0  0  0  0  0  0  0  0  0  0  0  0
   55.4298   30.8489   43.5727 H   0  0  0  0  0  0  0  0  0  0  0  0
   55.7456   29.0806   43.5727 H   0  0  0  0  0  0  0  0  0  0  0  0
   56.9290   29.8891   46.5324 H   0  0  0  0  0  0  0  0  0  0  0  0
   58.0439   28.5223   46.8899 H   0  0  0  0  0  0  0  0  0  0  0  0
   58.4040   31.3270   47.1840 H   0  0  0  0  0  0  0  0  0  0  0  0
   59.0697   28.8992   48.4140 H   0  0  0  0  0  0  0  0  0  0  0  0
   60.5239   29.9361   48.2470 H   0  0  0  0  0  0  0  0  0  0  0  0
   57.1551   32.7389   51.1761 H   0  0  0  0  0  0  0  0  0  0  0  0
   58.0880   31.6656   52.2899 H   0  0  0  0  0  0  0  0  0  0  0  0
   58.6402   34.3986   51.4956 H   0  0  0  0  0  0  0  0  0  0  0  0
   59.5011   33.3369   52.6919 H   0  0  0  0  0  0  0  0  0  0  0  0
   61.2458   33.7464   51.2552 H   0  0  0  0  0  0  0  0  0  0  0  0
   60.5119   32.2980   50.4445 H   0  0  0  0  0  0  0  0  0  0  0  0
   59.2946   33.7331   48.9034 H   0  0  0  0  0  0  0  0  0  0  0  0
   60.0460   35.2046   49.7750 H   0  0  0  0  0  0  0  0  0  0  0  0
   61.2306   35.3327   48.3012 H   0  0  0  0  0  0  0  0  0  0  0  0
   63.0841   34.4138   49.7044 H   0  0  0  0  0  0  0  0  0  0  0  0
   63.7486   32.0253   49.6751 H   0  0  0  0  0  0  0  0  0  0  0  0
   62.0279   32.0177   49.9928 H   0  0  0  0  0  0  0  0  0  0  0  0
   63.3979   30.9252   47.6552 H   0  0  0  0  0  0  0  0  0  0  0  0
   61.6589   30.9831   47.8555 H   0  0  0  0  0  0  0  0  0  0  0  0
   62.7020   32.4441   45.8599 H   0  0  0  0  0  0  0  0  0  0  0  0
   64.5056   33.3571   47.6411 H   0  0  0  0  0  0  0  0  0  0  0  0
   63.6789   34.7144   47.0433 H   0  0  0  0  0  0  0  0  0  0  0  0
   61.0343   34.2968   46.1845 H   0  0  0  0  0  0  0  0  0  0  0  0
   60.1420   32.0410   46.0620 H   0  0  0  0  0  0  0  0  0  0  0  0
   57.3884   33.1820   44.3041 H   0  0  0  0  0  0  0  0  0  0  0  0
   58.4885   34.5856   44.0892 H   0  0  0  0  0  0  0  0  0  0  0  0
   59.1519   32.9163   44.0892 H   0  0  0  0  0  0  0  0  0  0  0  0
  1  2  1  0
  2  3  1  0
  3  4  1  0
  4  5  1  0
  3  6  1  0
  6  7  1  0
  7  8  1  0
  8  9  1  0
  9 10  3  0
 10 11  1  0
 11 12  1  0
 12 13  1  0
 13 14  1  0
 14 15  1  0
 15 16  1  0
 16 17  1  0
 17 18  1  0
 18 19  1  0
 19 20  1  0
 19 21  1  0
 21 22  1  0
 22 23  1  0
 23 24  1  0
 23 25  2  0
 23 26  2  0
 21 15  1  0
 20 16  1  0
  1 27  1  0
  1 28  1  0
  1 29  1  0
  2 30  1  0
  2 31  1  0
  4 32  1  0
  4 33  1  0
  5 34  1  0
  5 35  1  0
  5 36  1  0
  6 37  1  0
  6 38  1  0
  7 39  1  0
  8 40  1  0
  8 41  1  0
 11 42  1  0
 11 43  1  0
 12 44  1  0
 12 45  1  0
 13 46  1  0
 13 47  1  0
 14 48  1  0
 14 49  1  0
 15 50  1  6
 16 51  1  1
 17 52  1  0
 17 53  1  0
 18 54  1  0
 18 55  1  0
 19 56  1  6
 20 57  1  0
 20 58  1  0
 21 59  1  6
 22 60  1  0
 24 61  1  0
 24 62  1  0
 24 63  1  0
M  END
>  <UniqueID>  (22) 
22

>  <SMILES>  (22) 
CCN(CC)CNCC#CCCCC[C@@H]1C(NS(C)(=O)=O)C2CC[C@H]1C2

>  <Energy>  (22) 
82.2686324237876

>  <Genealogy>  (22) 
CCN(CC)CNCC#CCCCC[C@@H]1C(NS(C)(=O)=O)C2CC[C@H]1C2 (chirality)
CCN(CC)CNCC#CCCCC[C@@H]1C(NS(C)(=O)=O)C2CC[C@H]1C2 (3D coordinates assigned)
CCN(CC)CNCC#CCCCC[C@@H]1C(NS(C)(=O)=O)C2CC[C@H]1C2 (nonaromatic ring conformer: 82.2686324237876 kcal/mol)

>  <smiles>  (22) 
CCN(CC)CNCC#CCCCCC1C2CCC(C2)C1NS(C)(=O)=O

>  <score_type>  (22) 
oracle

>  <origin>  (22) 
adg

>  <m_score__min__energy>  (22) 
-8.1699999999999999

>  <m_primary>  (22) 
energy

$$$$
22:0
     RDKit          3D

 46 48  0  0  0  0  0  0  0  0999 V2000
   58.1030   26.8300   42.6450 C   0  0  0  0  0  0  0  0  0  0  0  0
   58.5100   27.7970   43.7550 C   0  0  0  0  0  0  0  0  0  0  0  0
   57.3700   28.1160   44.6260 N   0  0  0  0  0  0  0  0  0  0  0  0
   57.7180   28.0950   46.0590 C   0  0  0  0  0  0  0  0  0  0  0  0
   59.0330   28.8420   46.2980 C   0  0  0  0  0  0  0  0  0  0  0  0
   58.8000   30.3050   46.5390 C   0  0  0  0  0  0  0  0  0  0  0  0
   58.9640   30.9790   47.7450 C   0  0  0  0  0  0  0  0  0  0  0  0
   58.7430   32.3040   47.5750 N   0  0  0  0  0  0  0  0  0  0  0  0
   58.9170   33.3310   48.6060 C   0  0  0  0  0  0  0  0  0  0  0  0
   59.9550   34.3770   48.1760 C   0  0  0  0  0  0  0  0  0  0  0  0
   61.3640   33.8900   48.4040 C   0  0  0  0  0  0  0  0  0  0  0  0
   61.9040   33.8970   49.7010 C   0  0  0  0  0  0  0  0  0  0  0  0
   63.2310   33.5130   49.9150 C   0  0  0  0  0  0  0  0  0  0  0  0
   64.0310   33.1230   48.8370 C   0  0  0  0  0  0  0  0  0  0  0  0
   65.3190   32.7570   49.0460 F   0  0  0  0  0  0  0  0  0  0  0  0
   63.5030   33.1130   47.5440 C   0  0  0  0  0  0  0  0  0  0  0  0
   62.1750   33.4930   47.3230 C   0  0  0  0  0  0  0  0  0  0  0  0
   61.6900   33.4920   46.0560 F   0  0  0  0  0  0  0  0  0  0  0  0
   58.4600   32.4770   46.2640 C   0  0  0  0  0  0  0  0  0  0  0  0
   58.2040   33.6720   45.5830 C   0  0  0  0  0  0  0  0  0  0  0  0
   57.9860   33.6090   44.1960 C   0  0  0  0  0  0  0  0  0  0  0  0
   58.0250   32.3700   43.5200 C   0  0  0  0  0  0  0  0  0  0  0  0
   57.7360   32.3060   41.6350 Br  0  0  0  0  0  0  0  0  0  0  0  0
   58.2830   31.1820   44.2280 C   0  0  0  0  0  0  0  0  0  0  0  0
   58.4930   31.2740   45.6030 C   0  0  0  0  0  0  0  0  0  0  0  0
   57.7129   25.9032   43.0909 H   0  0  0  0  0  0  0  0  0  0  0  0
   57.3237   27.2936   42.0223 H   0  0  0  0  0  0  0  0  0  0  0  0
   58.9793   26.5968   42.0223 H   0  0  0  0  0  0  0  0  0  0  0  0
   59.3051   27.3357   44.3591 H   0  0  0  0  0  0  0  0  0  0  0  0
   58.8662   28.7290   43.2919 H   0  0  0  0  0  0  0  0  0  0  0  0
   56.6390   27.3830   44.4600 H   0  0  0  0  0  0  0  0  0  0  0  0
   56.9156   28.5799   46.6343 H   0  0  0  0  0  0  0  0  0  0  0  0
   57.8361   27.0505   46.3831 H   0  0  0  0  0  0  0  0  0  0  0  0
   59.5342   28.4106   47.1770 H   0  0  0  0  0  0  0  0  0  0  0  0
   59.6578   28.7361   45.3989 H   0  0  0  0  0  0  0  0  0  0  0  0
   59.2344   30.5038   48.6995 H   0  0  0  0  0  0  0  0  0  0  0  0
   57.9533   33.8320   48.7800 H   0  0  0  0  0  0  0  0  0  0  0  0
   59.2724   32.8447   49.5264 H   0  0  0  0  0  0  0  0  0  0  0  0
   59.8212   34.5932   47.1058 H   0  0  0  0  0  0  0  0  0  0  0  0
   59.8022   35.2818   48.7827 H   0  0  0  0  0  0  0  0  0  0  0  0
   61.2796   34.2061   50.5522 H   0  0  0  0  0  0  0  0  0  0  0  0
   63.6464   33.5177   50.9335 H   0  0  0  0  0  0  0  0  0  0  0  0
   64.1335   32.8053   46.6967 H   0  0  0  0  0  0  0  0  0  0  0  0
   58.1742   34.6329   46.1176 H   0  0  0  0  0  0  0  0  0  0  0  0
   57.7835   34.5319   43.6328 H   0  0  0  0  0  0  0  0  0  0  0  0
   58.3179   30.2108   43.7127 H   0  0  0  0  0  0  0  0  0  0  0  0
  1  2  1  0
  2  3  1  0
  3  4  1  0
  4  5  1  0
  5  6  1  0
  6  7  2  0
  7  8  1  0
  8  9  1  0
  9 10  1  0
 10 11  1  0
 11 12  2  0
 12 13  1  0
 13 14  2  0
 14 15  1  0
 14 16  1  0
 16 17  2  0
 17 18  1  0
  8 19  1  0
 19 20  2  0
 20 21  1  0
 21 22  2  0
 22 23  1  0
 22 24  1  0
 24 25  2  0
 25  6  1  0
 17 11  1  0
 25 19  1  0
  1 26  1  0
  1 27  1  0
  1 28  1  0
  2 29  1  0
  2 30  1  0
  3 31  1  0
  4 32  1  0
  4 33  1  0
  5 34  1  0
  5 35  1  0
  7 36  1  0
  9 37  1  0
  9 38  1  0
 10 39  1  0
 10 40  1  0
 12 41  1  0
 13 42  1  0
 16 43  1  0
 20 44  1  0
 21 45  1  0
 24 46  1  0
M  END
>  <UniqueID>  (23) 
23

>  <SMILES>  (23) 
CCNCCc1cn(CCc2ccc(F)cc2F)c2ccc(Br)cc12

>  <Energy>  (23) 
71.07163274590296

>  <Genealogy>  (23) 
CCNCCc1cn(CCc2ccc(F)cc2F)c2ccc(Br)cc12 (3D coordinates assigned)
CCNCCc1cn(CCc2ccc(F)cc2F)c2ccc(Br)cc12 (optimized conformer: 71.07163274590296 kcal/mol)

>  <smiles>  (23) 
CCNCCc1cn(CCc2ccc(F)cc2F)c2ccc(Br)cc12

>  <score_type>  (23) 
oracle

>  <origin>  (23) 
adg

>  <m_score__min__energy>  (23) 
-8

>  <m_primary>  (23) 
energy

$$$$
23:0
     RDKit          3D

 56 58  0  0  0  0  0  0  0  0999 V2000
   57.7710   32.3150   42.6130 C   0  0  0  0  0  0  0  0  0  0  0  0
   58.0360   32.0480   44.0720 C   0  0  0  0  0  0  0  0  0  0  0  0
   58.8040   32.9800   44.7910 C   0  0  0  0  0  0  0  0  0  0  0  0
   59.0100   32.8310   46.1700 C   0  0  0  0  0  0  0  0  0  0  0  0
   59.6930   33.7950   46.9270 O   0  0  0  0  0  0  0  0  0  0  0  0
   61.0000   33.6560   47.4210 C   0  0  0  0  0  0  0  0  0  0  0  0
   62.0600   33.8650   46.5300 C   0  0  0  0  0  0  0  0  0  0  0  0
   63.3830   33.7810   46.9670 C   0  0  0  0  0  0  0  0  0  0  0  0
   63.6620   33.4710   48.2990 C   0  0  0  0  0  0  0  0  0  0  0  0
   64.9480   33.3900   48.7200 F   0  0  0  0  0  0  0  0  0  0  0  0
   62.6180   33.2270   49.1930 C   0  0  0  0  0  0  0  0  0  0  0  0
   61.2790   33.2950   48.7670 C   0  0  0  0  0  0  0  0  0  0  0  0
   60.2050   32.9500   49.7270 C   0  0  0  0  0  0  0  0  0  0  0  0
   59.5480   31.7110   49.6360 C   0  0  0  0  0  0  0  0  0  0  0  0
   58.5850   31.3540   50.5850 C   0  0  0  0  0  0  0  0  0  0  0  0
   58.2640   32.2310   51.6230 C   0  0  0  0  0  0  0  0  0  0  0  0
   58.8990   33.4730   51.7110 C   0  0  0  0  0  0  0  0  0  0  0  0
   58.5040   34.5700   53.0220 Cl  0  0  0  0  0  0  0  0  0  0  0  0
   59.8590   33.8370   50.7610 C   0  0  0  0  0  0  0  0  0  0  0  0
   58.5130   31.7000   46.8170 C   0  0  0  0  0  0  0  0  0  0  0  0
   57.7720   30.7520   46.1120 C   0  0  0  0  0  0  0  0  0  0  0  0
   57.5360   30.8970   44.7350 C   0  0  0  0  0  0  0  0  0  0  0  0
   56.5560   29.6690   43.8950 S   0  0  0  0  0  0  0  0  0  0  0  0
   55.8990   30.2630   42.6810 O   0  0  0  0  0  0  0  0  0  0  0  0
   55.4880   29.2000   44.8420 O   0  0  0  0  0  0  0  0  0  0  0  0
   57.4950   28.2380   43.3460 C   0  0  0  0  0  0  0  0  0  0  0  0
   58.4240   27.6690   44.4290 C   0  0  0  0  0  0  0  0  0  0  0  0
   59.7500   28.4520   44.5510 C   0  0  0  0  0  0  0  0  0  0  0  0
   60.3500   28.4260   45.9050 N   0  0  0  0  0  0  0  0  0  0  0  0
   59.4330   27.9010   46.9290 C   0  0  0  0  0  0  0  0  0  0  0  0
   60.9170   29.7220   46.3090 C   0  0  0  0  0  0  0  0  0  0  0  0
   56.9991   33.0927   42.5169 H   0  0  0  0  0  0  0  0  0  0  0  0
   58.6977   32.6563   42.1285 H   0  0  0  0  0  0  0  0  0  0  0  0
   57.4228   31.3909   42.1285 H   0  0  0  0  0  0  0  0  0  0  0  0
   59.2493   33.8374   44.2651 H   0  0  0  0  0  0  0  0  0  0  0  0
   61.8480   34.0975   45.4760 H   0  0  0  0  0  0  0  0  0  0  0  0
   64.2070   33.9594   46.2605 H   0  0  0  0  0  0  0  0  0  0  0  0
   62.8445   32.9792   50.2405 H   0  0  0  0  0  0  0  0  0  0  0  0
   59.7920   31.0199   48.8157 H   0  0  0  0  0  0  0  0  0  0  0  0
   58.0791   30.3799   50.5136 H   0  0  0  0  0  0  0  0  0  0  0  0
   57.5110   31.9443   52.3719 H   0  0  0  0  0  0  0  0  0  0  0  0
   60.3453   34.8217   50.8234 H   0  0  0  0  0  0  0  0  0  0  0  0
   58.7067   31.5548   47.8900 H   0  0  0  0  0  0  0  0  0  0  0  0
   57.3663   29.8777   46.6422 H   0  0  0  0  0  0  0  0  0  0  0  0
   56.7879   27.4513   43.0440 H   0  0  0  0  0  0  0  0  0  0  0  0
   58.1310   28.5665   42.5108 H   0  0  0  0  0  0  0  0  0  0  0  0
   57.9019   27.7088   45.3964 H   0  0  0  0  0  0  0  0  0  0  0  0
   58.6737   26.6367   44.1426 H   0  0  0  0  0  0  0  0  0  0  0  0
   60.4731   28.0173   43.8452 H   0  0  0  0  0  0  0  0  0  0  0  0
   59.5166   29.5039   44.3297 H   0  0  0  0  0  0  0  0  0  0  0  0
   59.8308   28.1288   47.9289 H   0  0  0  0  0  0  0  0  0  0  0  0
   58.4451   28.3703   46.8118 H   0  0  0  0  0  0  0  0  0  0  0  0
   59.3376   26.8114   46.8118 H   0  0  0  0  0  0  0  0  0  0  0  0
   60.9442   29.7841   47.4069 H   0  0  0  0  0  0  0  0  0  0  0  0
   61.9382   29.8155   45.9111 H   0  0  0  0  0  0  0  0  0  0  0  0
   60.2926   30.5355   45.9111 H   0  0  0  0  0  0  0  0  0  0  0  0
  1  2  1  0
  2  3  2  0
  3  4  1  0
  4  5  1  0
  5  6  1  0
  6  7  2  0
  7  8  1  0
  8  9  2  0
  9 10  1  0
  9 11  1  0
 11 12  2  0
 12 13  1  0
 13 14  2  0
 14 15  1  0
 15 16  2  0
 16 17  1  0
 17 18  1  0
 17 19  2  0
  4 20  2  0
 20 21  1  0
 21 22  2  0
 22 23  1  0
 23 24  2  0
 23 25  2  0
 23 26  1  0
 26 27  1  0
 27 28  1  0
 28 29  1  0
 29 30  1  0
 29 31  1  0
 22  2  1  0
 12  6  1  0
 19 13  1  0
  1 32  1  0
  1 33  1  0
  1 34  1  0
  3 35  1  0
  7 36  1  0
  8 37  1  0
 11 38  1  0
 14 39  1  0
 15 40  1  0
 16 41  1  0
 19 42  1  0
 20 43  1  0
 21 44  1  0
 26 45  1  0
 26 46  1  0
 27 47  1  0
 27 48  1  0
 28 49  1  0
 28 50  1  0
 30 51  1  0
 30 52  1  0
 30 53  1  0
 31 54  1  0
 31 55  1  0
 31 56  1  0
M  END
>  <UniqueID>  (24) 
24

>  <SMILES>  (24) 
Cc1cc(Oc2ccc(F)cc2-c2cccc(Cl)c2)ccc1S(=O)(=O)CCCN(C)C

>  <Energy>  (24) 
70.10301857980973

>  <Genealogy>  (24) 
Cc1cc(Oc2ccc(F)cc2-c2cccc(Cl)c2)ccc1S(=O)(=O)CCCN(C)C (3D coordinates assigned)
Cc1cc(Oc2ccc(F)cc2-c2cccc(Cl)c2)ccc1S(=O)(=O)CCCN(C)C (optimized conformer: 70.10301857980973 kcal/mol)

>  <smiles>  (24) 
Cc1cc(Oc2ccc(F)cc2-c2cccc(Cl)c2)ccc1S(=O)(=O)CCCN(C)C

>  <score_type>  (24) 
oracle

>  <origin>  (24) 
adg

>  <m_score__min__energy>  (24) 
-9.7400000000000002

>  <m_primary>  (24) 
energy

$$$$
