0:0
     RDKit          3D

 41 44  0  0  0  0  0  0  0  0999 V2000
   62.6930   31.6840   47.8810 C   0  0  0  0  0  0  0  0  0  0  0  0
   61.3680   30.9910   47.9130 C   0  0  0  0  0  0  0  0  0  0  0  0
   60.7610   30.5750   49.0960 C   0  0  0  0  0  0  0  0  0  0  0  0
   59.3240   29.8000   48.6890 S   0  0  0  0  0  0  0  0  0  0  0  0
   59.5470   29.9930   47.0280 C   0  0  0  0  0  0  0  0  0  0  0  0
   58.5840   29.5910   45.9700 C   0  0  0  0  0  0  0  0  0  0  0  0
   58.0120   30.5300   45.1730 C   0  0  0  0  0  0  0  0  0  0  0  0
   58.2010   31.9820   45.4110 C   0  0  0  0  0  0  0  0  0  0  0  0
   58.0140   32.5270   46.6940 C   0  0  0  0  0  0  0  0  0  0  0  0
   58.1860   33.8980   46.9070 C   0  0  0  0  0  0  0  0  0  0  0  0
   58.5340   34.7340   45.8420 C   0  0  0  0  0  0  0  0  0  0  0  0
   58.7060   34.2010   44.5610 C   0  0  0  0  0  0  0  0  0  0  0  0
   58.5360   32.8310   44.3440 C   0  0  0  0  0  0  0  0  0  0  0  0
   56.9870   30.1500   44.1470 C   0  0  0  0  0  0  0  0  0  0  0  0
   55.7630   29.6190   44.8840 C   0  0  0  0  0  0  0  0  0  0  0  0
   55.8950   28.2350   45.1820 O   0  0  0  0  0  0  0  0  0  0  0  0
   57.0680   27.5290   45.5000 C   0  0  0  0  0  0  0  0  0  0  0  0
   56.9460   26.1320   45.4860 C   0  0  0  0  0  0  0  0  0  0  0  0
   58.0430   25.3070   45.7210 C   0  0  0  0  0  0  0  0  0  0  0  0
   59.2880   25.8680   45.9750 C   0  0  0  0  0  0  0  0  0  0  0  0
   59.4350   27.2530   46.0160 C   0  0  0  0  0  0  0  0  0  0  0  0
   58.3360   28.1180   45.8060 C   0  0  0  0  0  0  0  0  0  0  0  0
   60.6930   30.6640   46.7780 N   0  0  0  0  0  0  0  0  0  0  0  0
   63.0375   31.8642   48.9100 H   0  0  0  0  0  0  0  0  0  0  0  0
   63.4243   31.0529   47.3547 H   0  0  0  0  0  0  0  0  0  0  0  0
   62.5918   32.6446   47.3547 H   0  0  0  0  0  0  0  0  0  0  0  0
   61.1511   30.7261   50.1134 H   0  0  0  0  0  0  0  0  0  0  0  0
   57.7317   31.8728   47.5321 H   0  0  0  0  0  0  0  0  0  0  0  0
   58.0474   34.3193   47.9136 H   0  0  0  0  0  0  0  0  0  0  0  0
   58.6726   35.8119   46.0120 H   0  0  0  0  0  0  0  0  0  0  0  0
   58.9754   34.8607   43.7230 H   0  0  0  0  0  0  0  0  0  0  0  0
   58.6651   32.4162   43.3334 H   0  0  0  0  0  0  0  0  0  0  0  0
   56.7108   31.0316   43.5499 H   0  0  0  0  0  0  0  0  0  0  0  0
   57.3891   29.3832   43.4686 H   0  0  0  0  0  0  0  0  0  0  0  0
   55.6415   30.1772   45.8240 H   0  0  0  0  0  0  0  0  0  0  0  0
   54.8848   29.7504   44.2348 H   0  0  0  0  0  0  0  0  0  0  0  0
   55.9640   25.6788   45.2853 H   0  0  0  0  0  0  0  0  0  0  0  0
   57.9238   24.2136   45.7055 H   0  0  0  0  0  0  0  0  0  0  0  0
   60.1592   25.2180   46.1440 H   0  0  0  0  0  0  0  0  0  0  0  0
   60.4275   27.6830   46.2161 H   0  0  0  0  0  0  0  0  0  0  0  0
   61.0250   30.9020   45.8160 H   0  0  0  0  0  0  0  0  0  0  0  0
  1  2  1  0
  2  3  2  0
  3  4  1  0
  4  5  1  0
  5  6  1  0
  6  7  2  0
  7  8  1  0
  8  9  2  0
  9 10  1  0
 10 11  2  0
 11 12  1  0
 12 13  2  0
  7 14  1  0
 14 15  1  0
 15 16  1  0
 16 17  1  0
 17 18  2  0
 18 19  1  0
 19 20  2  0
 20 21  1  0
 21 22  2  0
  5 23  2  0
 23  2  1  0
 22  6  1  0
 13  8  1  0
 22 17  1  0
  1 24  1  0
  1 25  1  0
  1 26  1  0
  3 27  1  0
  9 28  1  0
 10 29  1  0
 11 30  1  0
 12 31  1  0
 13 32  1  0
 14 33  1  0
 14 34  1  0
 15 35  1  0
 15 36  1  0
 18 37  1  0
 19 38  1  0
 20 39  1  0
 21 40  1  0
 23 41  1  0
M  CHG  1  23   1
M  END
>  <UniqueID>  (1) 
1

>  <SMILES>  (1) 
Cc1csc(C2=C(c3ccccc3)CCOc3ccccc32)[nH+]1

>  <Energy>  (1) 
99.0889677953021

>  <Genealogy>  (1) 
Cc1csc(C2=C(c3ccccc3)CCOc3ccccc32)[nH+]1 (protonated)
Cc1csc(C2=C(c3ccccc3)CCOc3ccccc32)[nH+]1 (3D coordinates assigned)
Cc1csc(C2=C(c3ccccc3)CCOc3ccccc32)[nH+]1 (nonaromatic ring conformer: 99.0889677953021 kcal/mol)

>  <smiles>  (1) 
Cc1csc(C2=C(c3ccccc3)CCOc3ccccc32)n1

>  <score_type>  (1) 
oracle

>  <origin>  (1) 
adg

>  <m_score__min__energy>  (1) 
-4.9100000000000001

>  <m_primary>  (1) 
energy

$$$$
1:0
     RDKit          3D

 52 54  0  0  0  0  0  0  0  0999 V2000
   57.3310   30.9950   51.5410 C   0  0  0  0  0  0  0  0  0  0  0  0
   57.7720   31.9790   50.4610 C   0  0  0  0  0  0  0  0  0  0  0  0
   59.2390   31.9260   50.2770 N   0  0  0  0  0  0  0  0  0  0  0  0
   59.9510   32.5720   51.4040 C   0  0  0  0  0  0  0  0  0  0  0  0
   59.1980   33.8220   51.8510 C   0  0  0  0  0  0  0  0  0  0  0  0
   59.7040   30.5310   50.0800 C   0  0  0  0  0  0  0  0  0  0  0  0
   60.7920   30.4680   49.0030 C   0  0  0  0  0  0  0  0  0  0  0  0
   60.2060   30.6520   47.6330 C   0  0  0  0  0  0  0  0  0  0  0  0
   60.6260   29.9420   46.6800 O   0  0  0  0  0  0  0  0  0  0  0  0
   59.2250   31.6740   47.4020 N   0  0  0  0  0  0  0  0  0  0  0  0
   58.5900   31.8730   46.1310 C   0  0  0  0  0  0  0  0  0  0  0  0
   58.4530   33.0570   45.4010 C   0  0  0  0  0  0  0  0  0  0  0  0
   58.9930   34.3830   45.7310 C   0  0  0  0  0  0  0  0  0  0  0  0
   58.9620   35.3110   44.8790 O   0  0  0  0  0  0  0  0  0  0  0  0
   59.4770   34.6280   47.0570 N   0  0  0  0  0  0  0  0  0  0  0  0
   60.7500   34.2250   47.5850 C   0  0  0  0  0  0  0  0  0  0  0  0
   61.7250   33.5970   46.7870 C   0  0  0  0  0  0  0  0  0  0  0  0
   62.9350   33.1820   47.3510 C   0  0  0  0  0  0  0  0  0  0  0  0
   63.1740   33.3690   48.7160 C   0  0  0  0  0  0  0  0  0  0  0  0
   64.8170   32.7720   49.4890 Br  0  0  0  0  0  0  0  0  0  0  0  0
   62.1980   33.9650   49.5200 C   0  0  0  0  0  0  0  0  0  0  0  0
   60.9880   34.3850   48.9570 C   0  0  0  0  0  0  0  0  0  0  0  0
   57.7730   32.8160   44.2920 O   0  0  0  0  0  0  0  0  0  0  0  0
   57.4910   31.5330   44.2620 C   0  0  0  0  0  0  0  0  0  0  0  0
   56.7990   30.8400   43.2720 C   0  0  0  0  0  0  0  0  0  0  0  0
   56.6130   29.4550   43.4480 C   0  0  0  0  0  0  0  0  0  0  0  0
   57.1130   28.8060   44.6000 C   0  0  0  0  0  0  0  0  0  0  0  0
   57.8060   29.5330   45.5840 C   0  0  0  0  0  0  0  0  0  0  0  0
   57.9840   30.8990   45.3740 C   0  0  0  0  0  0  0  0  0  0  0  0
   57.5252   31.4283   52.5332 H   0  0  0  0  0  0  0  0  0  0  0  0
   56.2554   30.7910   51.4341 H   0  0  0  0  0  0  0  0  0  0  0  0
   57.8946   30.0564   51.4341 H   0  0  0  0  0  0  0  0  0  0  0  0
   57.2789   31.7198   49.5125 H   0  0  0  0  0  0  0  0  0  0  0  0
   57.4896   32.9960   50.7707 H   0  0  0  0  0  0  0  0  0  0  0  0
   60.0169   31.8664   52.2453 H   0  0  0  0  0  0  0  0  0  0  0  0
   60.9613   32.8577   51.0758 H   0  0  0  0  0  0  0  0  0  0  0  0
   59.1738   33.8621   52.9500 H   0  0  0  0  0  0  0  0  0  0  0  0
   59.7081   34.7158   51.4626 H   0  0  0  0  0  0  0  0  0  0  0  0
   58.1694   33.7890   51.4626 H   0  0  0  0  0  0  0  0  0  0  0  0
   60.1119   30.1494   51.0277 H   0  0  0  0  0  0  0  0  0  0  0  0
   58.8507   29.9170   49.7561 H   0  0  0  0  0  0  0  0  0  0  0  0
   61.5283   31.2638   49.1889 H   0  0  0  0  0  0  0  0  0  0  0  0
   61.2723   29.4794   49.0482 H   0  0  0  0  0  0  0  0  0  0  0  0
   59.1000   32.4130   48.1300 H   0  0  0  0  0  0  0  0  0  0  0  0
   61.5342   33.4323   45.7163 H   0  0  0  0  0  0  0  0  0  0  0  0
   63.7006   32.7074   46.7197 H   0  0  0  0  0  0  0  0  0  0  0  0
   62.3814   34.1038   50.5957 H   0  0  0  0  0  0  0  0  0  0  0  0
   60.2185   34.8438   49.5952 H   0  0  0  0  0  0  0  0  0  0  0  0
   56.4106   31.3570   42.3822 H   0  0  0  0  0  0  0  0  0  0  0  0
   56.0751   28.8745   42.6840 H   0  0  0  0  0  0  0  0  0  0  0  0
   56.9588   27.7244   44.7275 H   0  0  0  0  0  0  0  0  0  0  0  0
   58.1940   29.0407   46.4879 H   0  0  0  0  0  0  0  0  0  0  0  0
  1  2  1  0
  2  3  1  0
  3  4  1  0
  4  5  1  0
  3  6  1  0
  6  7  1  0
  7  8  1  0
  8  9  2  0
  8 10  1  0
 10 11  1  0
 11 12  2  0
 12 13  1  0
 13 14  2  0
 13 15  1  0
 15 16  1  0
 16 17  2  0
 17 18  1  0
 18 19  2  0
 19 20  1  0
 19 21  1  0
 21 22  2  0
 12 23  1  0
 23 24  1  0
 24 25  2  0
 25 26  1  0
 26 27  2  0
 27 28  1  0
 28 29  2  0
 29 11  1  0
 22 16  1  0
 29 24  1  0
  1 30  1  0
  1 31  1  0
  1 32  1  0
  2 33  1  0
  2 34  1  0
  4 35  1  0
  4 36  1  0
  5 37  1  0
  5 38  1  0
  5 39  1  0
  6 40  1  0
  6 41  1  0
  7 42  1  0
  7 43  1  0
 10 44  1  0
 17 45  1  0
 18 46  1  0
 21 47  1  0
 22 48  1  0
 25 49  1  0
 26 50  1  0
 27 51  1  0
 28 52  1  0
M  CHG  1  15  -1
M  END
>  <UniqueID>  (2) 
2

>  <SMILES>  (2) 
CCN(CC)CCC(=O)Nc1c(C(=O)[N-]c2ccc(Br)cc2)oc2ccccc12

>  <Energy>  (2) 
91.16103312161512

>  <Genealogy>  (2) 
CCN(CC)CCC(=O)Nc1c(C(=O)[N-]c2ccc(Br)cc2)oc2ccccc12 (protonated)
CCN(CC)CCC(=O)Nc1c(C(=O)[N-]c2ccc(Br)cc2)oc2ccccc12 (3D coordinates assigned)
CCN(CC)CCC(=O)Nc1c(C(=O)[N-]c2ccc(Br)cc2)oc2ccccc12 (optimized conformer: 91.16103312161512 kcal/mol)

>  <smiles>  (2) 
CCN(CC)CCC(=O)Nc1c(C(=O)Nc2ccc(Br)cc2)oc2ccccc12

>  <score_type>  (2) 
oracle

>  <origin>  (2) 
adg

>  <m_score__min__energy>  (2) 
-9.4499999999999993

>  <m_primary>  (2) 
energy

$$$$
2:0
     RDKit          3D

 48 51  0  0  0  0  0  0  0  0999 V2000
   57.4330   31.6830   42.2380 C   0  0  0  0  0  0  0  0  0  0  0  0
   56.6410   30.4130   42.5190 C   0  0  0  0  0  0  0  0  0  0  0  0
   55.9170   30.4460   44.1980 S   0  0  0  0  0  0  0  0  0  0  0  0
   57.4750   30.8030   45.0390 C   0  0  0  0  0  0  0  0  0  0  0  0
   57.7900   32.1050   45.2930 N   0  0  0  0  0  0  0  0  0  0  0  0
   58.9340   32.3970   45.9500 C   0  0  0  0  0  0  0  0  0  0  0  0
   59.4820   33.9250   46.3840 S   0  0  0  0  0  0  0  0  0  0  0  0
   60.8720   33.3370   47.1420 C   0  0  0  0  0  0  0  0  0  0  0  0
   60.9360   31.9510   47.0300 C   0  0  0  0  0  0  0  0  0  0  0  0
   59.8120   31.4190   46.3690 C   0  0  0  0  0  0  0  0  0  0  0  0
   59.4940   30.0820   46.1020 C   0  0  0  0  0  0  0  0  0  0  0  0
   60.2710   29.1570   46.4680 O   0  0  0  0  0  0  0  0  0  0  0  0
   58.3300   29.7910   45.4300 N   0  0  0  0  0  0  0  0  0  0  0  0
   58.0110   28.4180   45.1350 C   0  0  0  0  0  0  0  0  0  0  0  0
   58.4540   27.8310   43.9430 C   0  0  0  0  0  0  0  0  0  0  0  0
   58.1460   26.4990   43.6590 C   0  0  0  0  0  0  0  0  0  0  0  0
   57.3880   25.7460   44.5600 C   0  0  0  0  0  0  0  0  0  0  0  0
   56.9280   26.3260   45.7580 C   0  0  0  0  0  0  0  0  0  0  0  0
   56.1620   25.6150   46.6930 O   0  0  0  0  0  0  0  0  0  0  0  0
   56.4410   24.2840   47.1160 C   0  0  0  0  0  0  0  0  0  0  0  0
   57.2430   27.6620   46.0360 C   0  0  0  0  0  0  0  0  0  0  0  0
   62.0610   31.1700   47.6510 C   0  0  0  0  0  0  0  0  0  0  0  0
   63.2370   32.0900   48.0450 C   0  0  0  0  0  0  0  0  0  0  0  0
   62.8000   33.3590   48.6750 N   0  0  0  0  0  0  0  0  0  0  0  0
   62.1550   33.1430   49.9810 C   0  0  0  0  0  0  0  0  0  0  0  0
   61.9530   34.1640   47.7660 C   0  0  0  0  0  0  0  0  0  0  0  0
   57.7250   32.1512   43.1896 H   0  0  0  0  0  0  0  0  0  0  0  0
   58.3352   31.4323   41.6607 H   0  0  0  0  0  0  0  0  0  0  0  0
   56.8110   32.3829   41.6607 H   0  0  0  0  0  0  0  0  0  0  0  0
   55.8309   30.3240   41.7802 H   0  0  0  0  0  0  0  0  0  0  0  0
   57.3237   29.5532   42.4499 H   0  0  0  0  0  0  0  0  0  0  0  0
   57.1500   32.8750   44.9930 H   0  0  0  0  0  0  0  0  0  0  0  0
   59.0464   28.4212   43.2283 H   0  0  0  0  0  0  0  0  0  0  0  0
   58.5008   26.0412   42.7238 H   0  0  0  0  0  0  0  0  0  0  0  0
   57.1499   24.6965   44.3325 H   0  0  0  0  0  0  0  0  0  0  0  0
   56.4496   24.2428   48.2152 H   0  0  0  0  0  0  0  0  0  0  0  0
   55.6654   23.6063   46.7298 H   0  0  0  0  0  0  0  0  0  0  0  0
   57.4235   23.9749   46.7298 H   0  0  0  0  0  0  0  0  0  0  0  0
   56.8857   28.1235   46.9684 H   0  0  0  0  0  0  0  0  0  0  0  0
   61.6881   30.6605   48.5518 H   0  0  0  0  0  0  0  0  0  0  0  0
   62.4250   30.4411   46.9119 H   0  0  0  0  0  0  0  0  0  0  0  0
   63.8803   31.5503   48.7556 H   0  0  0  0  0  0  0  0  0  0  0  0
   63.7717   32.3514   47.1199 H   0  0  0  0  0  0  0  0  0  0  0  0
   62.8666   33.3813   50.7853 H   0  0  0  0  0  0  0  0  0  0  0  0
   61.2731   33.7948   50.0667 H   0  0  0  0  0  0  0  0  0  0  0  0
   61.8435   32.0915   50.0667 H   0  0  0  0  0  0  0  0  0  0  0  0
   61.4911   34.9814   48.3391 H   0  0  0  0  0  0  0  0  0  0  0  0
   62.5910   34.5592   46.9618 H   0  0  0  0  0  0  0  0  0  0  0  0
  1  2  1  0
  2  3  1  0
  3  4  1  0
  4  5  2  0
  5  6  1  0
  6  7  1  0
  7  8  1  0
  8  9  2  0
  9 10  1  0
 10 11  1  0
 11 12  2  0
 11 13  1  0
 13 14  1  0
 14 15  2  0
 15 16  1  0
 16 17  2  0
 17 18  1  0
 18 19  1  0
 19 20  1  0
 18 21  2  0
  9 22  1  0
 22 23  1  0
 23 24  1  0
 24 25  1  0
 24 26  1  0
 13  4  1  0
 21 14  1  0
 10  6  2  0
 26  8  1  0
  1 27  1  0
  1 28  1  0
  1 29  1  0
  2 30  1  0
  2 31  1  0
  5 32  1  0
 15 33  1  0
 16 34  1  0
 17 35  1  0
 20 36  1  0
 20 37  1  0
 20 38  1  0
 21 39  1  0
 22 40  1  0
 22 41  1  0
 23 42  1  0
 23 43  1  0
 25 44  1  0
 25 45  1  0
 25 46  1  0
 26 47  1  0
 26 48  1  0
M  CHG  1   5   1
M  END
>  <UniqueID>  (3) 
3

>  <SMILES>  (3) 
CCSc1[nH+]c2sc3c(c2c(=O)n1-c1cccc(OC)c1)CCN(C)C3

>  <Energy>  (3) 
92.40204372776192

>  <Genealogy>  (3) 
CCSc1[nH+]c2sc3c(c2c(=O)n1-c1cccc(OC)c1)CCN(C)C3 (protonated)
CCSc1[nH+]c2sc3c(c2c(=O)n1-c1cccc(OC)c1)CCN(C)C3 (3D coordinates assigned)
CCSc1[nH+]c2sc3c(c2c(=O)n1-c1cccc(OC)c1)CCN(C)C3 (nonaromatic ring conformer: 92.40204372776192 kcal/mol)

>  <smiles>  (3) 
CCSc1nc2sc3c(c2c(=O)n1-c1cccc(OC)c1)CCN(C)C3

>  <score_type>  (3) 
oracle

>  <origin>  (3) 
adg

>  <m_score__min__energy>  (3) 
-6.6900000000000004

>  <m_primary>  (3) 
energy

$$$$
3:0
     RDKit          3D

 46 48  0  0  0  0  0  0  0  0999 V2000
   64.0200   34.1980   51.1210 C   0  0  0  0  0  0  0  0  0  0  0  0
   65.2610   33.4480   50.6440 C   0  0  0  0  0  0  0  0  0  0  0  0
   65.1190   33.0530   49.2410 N   0  0  0  0  0  0  0  0  0  0  0  0
   63.8850   32.6350   48.6250 C   0  0  0  0  0  0  0  0  0  0  0  0
   63.0470   31.6660   49.2110 C   0  0  0  0  0  0  0  0  0  0  0  0
   61.8550   31.2890   48.5850 C   0  0  0  0  0  0  0  0  0  0  0  0
   61.4850   31.8620   47.3600 C   0  0  0  0  0  0  0  0  0  0  0  0
   60.2020   31.4830   46.7300 C   0  0  0  0  0  0  0  0  0  0  0  0
   59.9100   30.1590   46.6340 N   0  0  0  0  0  0  0  0  0  0  0  0
   58.7450   29.7090   46.0920 C   0  0  0  0  0  0  0  0  0  0  0  0
   58.4370   28.2200   46.0710 C   0  0  0  0  0  0  0  0  0  0  0  0
   59.4580   27.5170   45.1600 C   0  0  0  0  0  0  0  0  0  0  0  0
   57.0120   27.9740   45.5290 C   0  0  0  0  0  0  0  0  0  0  0  0
   58.5270   27.6290   47.4940 C   0  0  0  0  0  0  0  0  0  0  0  0
   57.8190   30.6090   45.6680 N   0  0  0  0  0  0  0  0  0  0  0  0
   58.0530   31.9450   45.7200 C   0  0  0  0  0  0  0  0  0  0  0  0
   57.0870   32.8360   45.2400 C   0  0  0  0  0  0  0  0  0  0  0  0
   57.3330   34.2120   45.2560 C   0  0  0  0  0  0  0  0  0  0  0  0
   58.5470   34.7000   45.7440 C   0  0  0  0  0  0  0  0  0  0  0  0
   59.5170   33.8190   46.2310 C   0  0  0  0  0  0  0  0  0  0  0  0
   59.2730   32.4300   46.2440 C   0  0  0  0  0  0  0  0  0  0  0  0
   62.3000   32.8500   46.7900 C   0  0  0  0  0  0  0  0  0  0  0  0
   63.4920   33.2270   47.4150 C   0  0  0  0  0  0  0  0  0  0  0  0
   63.9993   34.2105   52.2207 H   0  0  0  0  0  0  0  0  0  0  0  0
   64.0478   35.2306   50.7430 H   0  0  0  0  0  0  0  0  0  0  0  0
   63.1187   33.6933   50.7430 H   0  0  0  0  0  0  0  0  0  0  0  0
   66.1400   34.1011   50.7482 H   0  0  0  0  0  0  0  0  0  0  0  0
   65.3842   32.5423   51.2559 H   0  0  0  0  0  0  0  0  0  0  0  0
   65.9820   33.0880   48.6510 H   0  0  0  0  0  0  0  0  0  0  0  0
   63.3323   31.2030   50.1672 H   0  0  0  0  0  0  0  0  0  0  0  0
   61.2036   30.5384   49.0564 H   0  0  0  0  0  0  0  0  0  0  0  0
   60.2072   27.0012   45.7786 H   0  0  0  0  0  0  0  0  0  0  0  0
   58.9391   26.7838   44.5250 H   0  0  0  0  0  0  0  0  0  0  0  0
   59.9578   28.2633   44.5250 H   0  0  0  0  0  0  0  0  0  0  0  0
   56.3150   27.8537   46.3714 H   0  0  0  0  0  0  0  0  0  0  0  0
   56.7002   28.8316   44.9148 H   0  0  0  0  0  0  0  0  0  0  0  0
   57.0058   27.0615   44.9148 H   0  0  0  0  0  0  0  0  0  0  0  0
   58.4044   28.4338   48.2337 H   0  0  0  0  0  0  0  0  0  0  0  0
   57.7324   26.8808   47.6312 H   0  0  0  0  0  0  0  0  0  0  0  0
   59.5083   27.1512   47.6312 H   0  0  0  0  0  0  0  0  0  0  0  0
   56.1326   32.4532   44.8495 H   0  0  0  0  0  0  0  0  0  0  0  0
   56.5696   34.9110   44.8838 H   0  0  0  0  0  0  0  0  0  0  0  0
   58.7409   35.7828   45.7452 H   0  0  0  0  0  0  0  0  0  0  0  0
   60.4743   34.2106   46.6055 H   0  0  0  0  0  0  0  0  0  0  0  0
   62.0002   33.3305   45.8470 H   0  0  0  0  0  0  0  0  0  0  0  0
   64.1288   33.9960   46.9534 H   0  0  0  0  0  0  0  0  0  0  0  0
  1  2  1  0
  2  3  1  0
  3  4  1  0
  4  5  2  0
  5  6  1  0
  6  7  2  0
  7  8  1  0
  8  9  2  0
  9 10  1  0
 10 11  1  0
 11 12  1  0
 11 13  1  0
 11 14  1  0
 10 15  2  0
 15 16  1  0
 16 17  2  0
 17 18  1  0
 18 19  2  0
 19 20  1  0
 20 21  2  0
  7 22  1  0
 22 23  2  0
 23  4  1  0
 21  8  1  0
 21 16  1  0
  1 24  1  0
  1 25  1  0
  1 26  1  0
  2 27  1  0
  2 28  1  0
  3 29  1  0
  5 30  1  0
  6 31  1  0
 12 32  1  0
 12 33  1  0
 12 34  1  0
 13 35  1  0
 13 36  1  0
 13 37  1  0
 14 38  1  0
 14 39  1  0
 14 40  1  0
 17 41  1  0
 18 42  1  0
 19 43  1  0
 20 44  1  0
 22 45  1  0
 23 46  1  0
M  END
>  <UniqueID>  (4) 
4

>  <SMILES>  (4) 
CCNc1ccc(-c2nc(C(C)(C)C)nc3ccccc23)cc1

>  <Energy>  (4) 
52.47223564152592

>  <Genealogy>  (4) 
CCNc1ccc(-c2nc(C(C)(C)C)nc3ccccc23)cc1 (3D coordinates assigned)
CCNc1ccc(-c2nc(C(C)(C)C)nc3ccccc23)cc1 (optimized conformer: 52.47223564152592 kcal/mol)

>  <smiles>  (4) 
CCNc1ccc(-c2nc(C(C)(C)C)nc3ccccc23)cc1

>  <score_type>  (4) 
oracle

>  <origin>  (4) 
adg

>  <m_score__min__energy>  (4) 
-7.6299999999999999

>  <m_primary>  (4) 
energy

$$$$
4:0
     RDKit          3D

 49 52  0  0  0  0  0  0  0  0999 V2000
   59.6790   34.2440   49.5660 C   0  0  0  0  0  0  0  0  0  0  0  0
   60.9220   33.8510   48.8020 C   0  0  0  0  0  0  0  0  0  0  0  0
   61.9960   33.3660   49.4970 N   0  0  0  0  0  0  0  0  0  0  0  0
   63.1520   32.9730   48.8830 C   0  0  0  0  0  0  0  0  0  0  0  0
   64.2770   32.5140   49.6650 N   0  0  0  0  0  0  0  0  0  0  0  0
   64.2950   31.4490   50.4970 C   0  0  0  0  0  0  0  0  0  0  0  0
   65.5400   31.3280   51.0830 C   0  0  0  0  0  0  0  0  0  0  0  0
   66.3090   32.3640   50.5950 C   0  0  0  0  0  0  0  0  0  0  0  0
   65.5060   33.0770   49.7290 C   0  0  0  0  0  0  0  0  0  0  0  0
   63.2300   33.0190   47.4860 C   0  0  0  0  0  0  0  0  0  0  0  0
   62.1490   33.4860   46.7510 C   0  0  0  0  0  0  0  0  0  0  0  0
   60.9910   33.9550   47.3870 C   0  0  0  0  0  0  0  0  0  0  0  0
   59.8640   34.5000   46.5730 C   0  0  0  0  0  0  0  0  0  0  0  0
   59.9960   35.6270   46.0240 O   0  0  0  0  0  0  0  0  0  0  0  0
   58.5990   33.8200   46.4260 N   0  0  0  0  0  0  0  0  0  0  0  0
   58.3260   32.7170   45.5480 C   0  0  0  0  0  0  0  0  0  0  0  0
   57.7980   32.9890   44.2770 C   0  0  0  0  0  0  0  0  0  0  0  0
   57.4920   31.9390   43.4010 C   0  0  0  0  0  0  0  0  0  0  0  0
   57.7270   30.6090   43.7850 C   0  0  0  0  0  0  0  0  0  0  0  0
   58.2840   30.3310   45.0390 C   0  0  0  0  0  0  0  0  0  0  0  0
   58.6000   31.3780   45.9200 C   0  0  0  0  0  0  0  0  0  0  0  0
   59.3060   31.0760   47.1300 N   0  0  0  0  0  0  0  0  0  0  0  0
   58.7590   31.4560   48.4330 C   0  0  0  0  0  0  0  0  0  0  0  0
   59.0250   30.3320   49.4420 C   0  0  0  0  0  0  0  0  0  0  0  0
   60.3980   29.9800   49.4470 O   0  0  0  0  0  0  0  0  0  0  0  0
   60.7650   29.4280   48.1920 C   0  0  0  0  0  0  0  0  0  0  0  0
   60.6400   30.4780   47.0750 C   0  0  0  0  0  0  0  0  0  0  0  0
   59.8774   34.1813   50.6462 H   0  0  0  0  0  0  0  0  0  0  0  0
   59.3981   35.2748   49.3040 H   0  0  0  0  0  0  0  0  0  0  0  0
   58.8566   33.5620   49.3040 H   0  0  0  0  0  0  0  0  0  0  0  0
   61.9210   33.2800   50.5350 H   0  0  0  0  0  0  0  0  0  0  0  0
   63.4434   30.7773   50.6805 H   0  0  0  0  0  0  0  0  0  0  0  0
   65.8566   30.5557   51.7995 H   0  0  0  0  0  0  0  0  0  0  0  0
   67.3578   32.5795   50.8472 H   0  0  0  0  0  0  0  0  0  0  0  0
   65.8189   33.9724   49.1719 H   0  0  0  0  0  0  0  0  0  0  0  0
   64.1443   32.6864   46.9728 H   0  0  0  0  0  0  0  0  0  0  0  0
   62.2018   33.4881   45.6523 H   0  0  0  0  0  0  0  0  0  0  0  0
   57.6237   34.0299   43.9671 H   0  0  0  0  0  0  0  0  0  0  0  0
   57.0667   32.1572   42.4103 H   0  0  0  0  0  0  0  0  0  0  0  0
   57.4736   29.7858   43.1008 H   0  0  0  0  0  0  0  0  0  0  0  0
   58.4748   29.2890   45.3352 H   0  0  0  0  0  0  0  0  0  0  0  0
   59.2422   32.3818   48.7785 H   0  0  0  0  0  0  0  0  0  0  0  0
   57.6753   31.6218   48.3434 H   0  0  0  0  0  0  0  0  0  0  0  0
   58.7356   30.6726   50.4471 H   0  0  0  0  0  0  0  0  0  0  0  0
   58.4341   29.4500   49.1540 H   0  0  0  0  0  0  0  0  0  0  0  0
   61.8066   29.0780   48.2429 H   0  0  0  0  0  0  0  0  0  0  0  0
   60.0897   28.5899   47.9648 H   0  0  0  0  0  0  0  0  0  0  0  0
   61.4007   31.2598   47.2170 H   0  0  0  0  0  0  0  0  0  0  0  0
   60.7924   29.9993   46.0964 H   0  0  0  0  0  0  0  0  0  0  0  0
  1  2  1  0
  2  3  2  0
  3  4  1  0
  4  5  1  0
  5  6  1  0
  6  7  2  0
  7  8  1  0
  8  9  2  0
  4 10  2  0
 10 11  1  0
 11 12  2  0
 12 13  1  0
 13 14  2  0
 13 15  1  0
 15 16  1  0
 16 17  2  0
 17 18  1  0
 18 19  2  0
 19 20  1  0
 20 21  2  0
 21 22  1  0
 22 23  1  0
 23 24  1  0
 24 25  1  0
 25 26  1  0
 26 27  1  0
 12  2  1  0
 21 16  1  0
 27 22  1  0
  9  5  1  0
  1 28  1  0
  1 29  1  0
  1 30  1  0
  3 31  1  0
  6 32  1  0
  7 33  1  0
  8 34  1  0
  9 35  1  0
 10 36  1  0
 11 37  1  0
 17 38  1  0
 18 39  1  0
 19 40  1  0
 20 41  1  0
 23 42  1  0
 23 43  1  0
 24 44  1  0
 24 45  1  0
 26 46  1  0
 26 47  1  0
 27 48  1  0
 27 49  1  0
M  CHG  2   3   1  15  -1
M  END
>  <UniqueID>  (5) 
5

>  <SMILES>  (5) 
Cc1[nH+]c(-n2cccc2)ccc1C(=O)[N-]c1ccccc1N1CCOCC1

>  <Energy>  (5) 
101.48226438196515

>  <Genealogy>  (5) 
Cc1[nH+]c(-n2cccc2)ccc1C(=O)[N-]c1ccccc1N1CCOCC1 (protonated)
Cc1[nH+]c(-n2cccc2)ccc1C(=O)[N-]c1ccccc1N1CCOCC1 (3D coordinates assigned)
Cc1[nH+]c(-n2cccc2)ccc1C(=O)[N-]c1ccccc1N1CCOCC1 (nonaromatic ring conformer: 101.48226438196515 kcal/mol)

>  <smiles>  (5) 
Cc1nc(-n2cccc2)ccc1C(=O)Nc1ccccc1N1CCOCC1

>  <score_type>  (5) 
oracle

>  <origin>  (5) 
adg

>  <m_score__min__energy>  (5) 
-7.3600000000000003

>  <m_primary>  (5) 
energy

$$$$
5:0
     RDKit          3D

 42 44  0  0  0  0  0  0  0  0999 V2000
   57.7295   33.8495   45.1266 H   0  0  0  0  0  0  0  0  0  0  0  0
   57.5210   32.9010   44.6100 C   0  0  0  0  0  0  0  0  0  0  0  0
   57.0000   31.8210   45.2500 N   0  0  0  0  0  0  0  0  0  0  0  0
   56.8320   30.7800   44.4050 C   0  0  0  0  0  0  0  0  0  0  0  0
   56.3320   29.6350   44.7530 N   0  0  0  0  0  0  0  0  0  0  0  0
   57.3000   28.2650   45.1970 S   0  0  0  0  0  0  0  0  0  0  0  0
   56.4600   27.2890   45.9700 O   0  0  0  0  0  0  0  0  0  0  0  0
   57.8040   27.5960   43.9490 O   0  0  0  0  0  0  0  0  0  0  0  0
   58.6430   28.7930   46.2100 C   0  0  0  0  0  0  0  0  0  0  0  0
   59.6080   29.6760   45.7050 C   0  0  0  0  0  0  0  0  0  0  0  0
   59.5883   29.9601   44.6425 H   0  0  0  0  0  0  0  0  0  0  0  0
   60.5940   30.1960   46.5460 C   0  0  0  0  0  0  0  0  0  0  0  0
   61.3553   30.8783   46.1399 H   0  0  0  0  0  0  0  0  0  0  0  0
   60.6190   29.8530   47.9060 C   0  0  0  0  0  0  0  0  0  0  0  0
   61.5640   30.4950   48.7800 N   0  0  0  0  0  0  0  0  0  0  0  0
   62.5230   30.0870   48.8620 H   0  0  0  0  0  0  0  0  0  0  0  0
   61.3370   31.8160   49.3700 C   0  0  0  0  0  0  0  0  0  0  0  0
   62.2815   32.1889   49.7930 H   0  0  0  0  0  0  0  0  0  0  0  0
   60.5742   31.7235   50.1571 H   0  0  0  0  0  0  0  0  0  0  0  0
   60.8400   32.7950   48.3260 C   0  0  0  0  0  0  0  0  0  0  0  0
   61.6860   33.3310   47.3250 C   0  0  0  0  0  0  0  0  0  0  0  0
   63.1460   32.9920   47.2470 C   0  0  0  0  0  0  0  0  0  0  0  0
   63.5552   32.8970   48.2636 H   0  0  0  0  0  0  0  0  0  0  0  0
   63.2733   32.0404   46.7101 H   0  0  0  0  0  0  0  0  0  0  0  0
   63.6796   33.7901   46.7101 H   0  0  0  0  0  0  0  0  0  0  0  0
   61.1620   34.1510   46.3720 N   0  0  0  0  0  0  0  0  0  0  0  0
   59.8470   34.4900   46.3410 C   0  0  0  0  0  0  0  0  0  0  0  0
   59.3460   35.4210   45.2830 C   0  0  0  0  0  0  0  0  0  0  0  0
   58.8756   36.2952   45.7567 H   0  0  0  0  0  0  0  0  0  0  0  0
   60.1879   35.7518   44.6571 H   0  0  0  0  0  0  0  0  0  0  0  0
   58.6061   34.9006   44.6571 H   0  0  0  0  0  0  0  0  0  0  0  0
   58.9860   34.0120   47.3320 C   0  0  0  0  0  0  0  0  0  0  0  0
   57.9250   34.3024   47.3326 H   0  0  0  0  0  0  0  0  0  0  0  0
   59.4840   33.1630   48.3210 C   0  0  0  0  0  0  0  0  0  0  0  0
   58.8107   32.7794   49.1017 H   0  0  0  0  0  0  0  0  0  0  0  0
   59.6860   28.9230   48.3960 C   0  0  0  0  0  0  0  0  0  0  0  0
   59.7312   28.6057   49.4483 H   0  0  0  0  0  0  0  0  0  0  0  0
   58.7010   28.3990   47.5540 C   0  0  0  0  0  0  0  0  0  0  0  0
   57.7860   27.5360   48.0610 F   0  0  0  0  0  0  0  0  0  0  0  0
   57.3200   31.1500   42.8430 S   0  0  0  0  0  0  0  0  0  0  0  0
   57.7710   32.7190   43.2550 C   0  0  0  0  0  0  0  0  0  0  0  0
   58.1910   33.4703   42.5700 H   0  0  0  0  0  0  0  0  0  0  0  0
  1  2  1  0
  2  3  1  0
  3  4  1  0
  4  5  2  0
  5  6  1  0
  6  7  2  0
  6  8  2  0
  6  9  1  0
  9 10  2  0
 10 11  1  0
 10 12  1  0
 12 13  1  0
 12 14  2  0
 14 15  1  0
 15 16  1  0
 15 17  1  0
 17 18  1  0
 17 19  1  0
 17 20  1  0
 20 21  2  0
 21 22  1  0
 22 23  1  0
 22 24  1  0
 22 25  1  0
 21 26  1  0
 26 27  2  0
 27 28  1  0
 28 29  1  0
 28 30  1  0
 28 31  1  0
 27 32  1  0
 32 33  1  0
 32 34  2  0
 34 35  1  0
 14 36  1  0
 36 37  1  0
 36 38  2  0
 38 39  1  0
  4 40  1  0
 40 41  1  0
 41 42  1  0
 41  2  2  0
 38  9  1  0
 34 20  1  0
M  CHG  1   3  -1
M  END
>  <UniqueID>  (6) 
6

>  <SMILES>  (6) 
Cc1ccc(CNc2ccc(S(=O)(=O)/N=c3\[n-]ccs3)c(F)c2)c(C)n1

>  <Energy>  (6) 
74.75121102454496

>  <Genealogy>  (6) 
Cc1ccc(CNc2ccc(S(=O)(=O)N=c3[n-]ccs3)c(F)c2)c(C)n1 (protonated)
Cc1ccc(CNc2ccc(S(=O)(=O)/N=c3\[n-]ccs3)c(F)c2)c(C)n1 (cis-trans isomerization)
Cc1ccc(CNc2ccc(S(=O)(=O)/N=c3\[n-]ccs3)c(F)c2)c(C)n1 (3D coordinates assigned)
Cc1ccc(CNc2ccc(S(=O)(=O)/N=c3\[n-]ccs3)c(F)c2)c(C)n1 (optimized conformer: 74.75121102454496 kcal/mol)

>  <smiles>  (6) 
Cc1ccc(CNc2ccc(S(=O)(=O)N=c3[nH]ccs3)c(F)c2)c(C)n1

>  <score_type>  (6) 
oracle

>  <origin>  (6) 
adg

>  <m_score__min__energy>  (6) 
-10.69

>  <m_primary>  (6) 
energy

$$$$
6:0
     RDKit          3D

 62 65  0  0  0  0  0  0  0  0999 V2000
   57.0390   31.1580   42.3790 C   0  0  0  0  0  0  0  0  0  0  0  0
   56.2710   29.8620   42.6280 C   0  0  0  0  0  0  0  0  0  0  0  0
   55.8190   29.7070   44.0880 C   0  0  0  0  0  0  0  0  0  0  0  0
   56.9770   29.8140   45.0550 C   0  0  0  0  0  0  0  0  0  0  0  0
   57.4400   31.0630   45.3070 N   0  0  0  0  0  0  0  0  0  0  0  0
   58.4680   31.3270   46.1480 C   0  0  0  0  0  0  0  0  0  0  0  0
   58.8460   32.7380   46.3330 C   0  0  0  0  0  0  0  0  0  0  0  0
   58.9020   33.2940   47.6200 C   0  0  0  0  0  0  0  0  0  0  0  0
   59.2710   34.6320   47.7890 C   0  0  0  0  0  0  0  0  0  0  0  0
   59.5980   35.4140   46.6780 C   0  0  0  0  0  0  0  0  0  0  0  0
   59.5590   34.8590   45.3960 C   0  0  0  0  0  0  0  0  0  0  0  0
   59.1890   33.5220   45.2220 C   0  0  0  0  0  0  0  0  0  0  0  0
   59.1220   30.2720   46.8270 C   0  0  0  0  0  0  0  0  0  0  0  0
   60.2220   30.5590   47.7320 N   0  0  0  0  0  0  0  0  0  0  0  0
   61.5120   30.4070   47.0400 C   0  0  0  0  0  0  0  0  0  0  0  0
   62.5360   31.4380   47.5390 C   0  0  0  0  0  0  0  0  0  0  0  0
   61.9020   32.4060   48.4590 N   0  0  0  0  0  0  0  0  0  0  0  0
   62.0580   31.9770   49.8680 C   0  0  0  0  0  0  0  0  0  0  0  0
   61.8040   33.1410   50.8350 C   0  0  0  0  0  0  0  0  0  0  0  0
   62.7490   34.2660   50.6240 N   0  0  0  0  0  0  0  0  0  0  0  0
   63.8060   34.2760   51.6480 C   0  0  0  0  0  0  0  0  0  0  0  0
   63.3450   34.2940   49.2700 C   0  0  0  0  0  0  0  0  0  0  0  0
   62.3470   33.8030   48.2100 C   0  0  0  0  0  0  0  0  0  0  0  0
   58.6360   28.9460   46.6370 C   0  0  0  0  0  0  0  0  0  0  0  0
   59.1860   27.8460   47.3370 C   0  0  0  0  0  0  0  0  0  0  0  0
   58.7080   26.5540   47.1320 C   0  0  0  0  0  0  0  0  0  0  0  0
   57.6710   26.3240   46.2370 C   0  0  0  0  0  0  0  0  0  0  0  0
   57.0970   27.3870   45.5430 C   0  0  0  0  0  0  0  0  0  0  0  0
   57.5600   28.7100   45.7300 C   0  0  0  0  0  0  0  0  0  0  0  0
   57.3096   31.6147   43.3424 H   0  0  0  0  0  0  0  0  0  0  0  0
   57.9530   30.9386   41.8076 H   0  0  0  0  0  0  0  0  0  0  0  0
   56.4077   31.8544   41.8076 H   0  0  0  0  0  0  0  0  0  0  0  0
   55.3808   29.8517   41.9819 H   0  0  0  0  0  0  0  0  0  0  0  0
   56.9502   29.0268   42.4019 H   0  0  0  0  0  0  0  0  0  0  0  0
   55.0892   30.4968   44.3194 H   0  0  0  0  0  0  0  0  0  0  0  0
   55.3737   28.7076   44.2011 H   0  0  0  0  0  0  0  0  0  0  0  0
   58.6555   32.6769   48.4966 H   0  0  0  0  0  0  0  0  0  0  0  0
   59.3039   35.0696   48.7977 H   0  0  0  0  0  0  0  0  0  0  0  0
   59.8863   36.4670   46.8126 H   0  0  0  0  0  0  0  0  0  0  0  0
   59.8197   35.4749   44.5227 H   0  0  0  0  0  0  0  0  0  0  0  0
   59.1669   33.0847   44.2129 H   0  0  0  0  0  0  0  0  0  0  0  0
   60.2000   29.9190   48.5550 H   0  0  0  0  0  0  0  0  0  0  0  0
   60.1220   31.5150   48.1390 H   0  0  0  0  0  0  0  0  0  0  0  0
   61.9018   29.3953   47.2261 H   0  0  0  0  0  0  0  0  0  0  0  0
   61.3509   30.5692   45.9640 H   0  0  0  0  0  0  0  0  0  0  0  0
   63.3458   30.9146   48.0685 H   0  0  0  0  0  0  0  0  0  0  0  0
   62.9356   31.9853   46.6725 H   0  0  0  0  0  0  0  0  0  0  0  0
   61.3390   31.1718   50.0794 H   0  0  0  0  0  0  0  0  0  0  0  0
   63.0898   31.6241   50.0119 H   0  0  0  0  0  0  0  0  0  0  0  0
   60.7780   33.5081   50.6847 H   0  0  0  0  0  0  0  0  0  0  0  0
   61.9510   32.7659   51.8586 H   0  0  0  0  0  0  0  0  0  0  0  0
   63.3478   34.2717   52.6480 H   0  0  0  0  0  0  0  0  0  0  0  0
   64.4386   33.3838   51.5307 H   0  0  0  0  0  0  0  0  0  0  0  0
   64.4216   35.1800   51.5307 H   0  0  0  0  0  0  0  0  0  0  0  0
   63.6429   35.3256   49.0310 H   0  0  0  0  0  0  0  0  0  0  0  0
   64.2179   33.6247   49.2612 H   0  0  0  0  0  0  0  0  0  0  0  0
   61.4664   34.4621   48.2208 H   0  0  0  0  0  0  0  0  0  0  0  0
   62.8537   33.8262   47.2339 H   0  0  0  0  0  0  0  0  0  0  0  0
   60.0033   28.0139   48.0538 H   0  0  0  0  0  0  0  0  0  0  0  0
   59.1538   25.7118   47.6815 H   0  0  0  0  0  0  0  0  0  0  0  0
   57.3021   25.3003   46.0758 H   0  0  0  0  0  0  0  0  0  0  0  0
   56.2728   27.1946   44.8404 H   0  0  0  0  0  0  0  0  0  0  0  0
  1  2  1  0
  2  3  1  0
  3  4  1  0
  4  5  2  0
  5  6  1  0
  6  7  1  0
  7  8  2  0
  8  9  1  0
  9 10  2  0
 10 11  1  0
 11 12  2  0
  6 13  2  0
 13 14  1  0
 14 15  1  0
 15 16  1  0
 16 17  1  0
 17 18  1  0
 18 19  1  0
 19 20  1  0
 20 21  1  0
 20 22  1  0
 22 23  1  0
 13 24  1  0
 24 25  2  0
 25 26  1  0
 26 27  2  0
 27 28  1  0
 28 29  2  0
 29  4  1  0
 12  7  1  0
 23 17  1  0
 29 24  1  0
  1 30  1  0
  1 31  1  0
  1 32  1  0
  2 33  1  0
  2 34  1  0
  3 35  1  0
  3 36  1  0
  8 37  1  0
  9 38  1  0
 10 39  1  0
 11 40  1  0
 12 41  1  0
 14 42  1  0
 14 43  1  0
 15 44  1  0
 15 45  1  0
 16 46  1  0
 16 47  1  0
 18 48  1  0
 18 49  1  0
 19 50  1  0
 19 51  1  0
 21 52  1  0
 21 53  1  0
 21 54  1  0
 22 55  1  0
 22 56  1  0
 23 57  1  0
 23 58  1  0
 25 59  1  0
 26 60  1  0
 27 61  1  0
 28 62  1  0
M  CHG  1  14   1
M  END
>  <UniqueID>  (7) 
7

>  <SMILES>  (7) 
CCCc1nc(-c2ccccc2)c([NH2+]CCN2CCN(C)CC2)c2ccccc12

>  <Energy>  (7) 
89.36531384468522

>  <Genealogy>  (7) 
CCCc1nc(-c2ccccc2)c([NH2+]CCN2CCN(C)CC2)c2ccccc12 (protonated)
CCCc1nc(-c2ccccc2)c([NH2+]CCN2CCN(C)CC2)c2ccccc12 (3D coordinates assigned)
CCCc1nc(-c2ccccc2)c([NH2+]CCN2CCN(C)CC2)c2ccccc12 (nonaromatic ring conformer: 89.36531384468522 kcal/mol)

>  <smiles>  (7) 
CCCc1nc(-c2ccccc2)c(NCCN2CCN(C)CC2)c2ccccc12

>  <score_type>  (7) 
oracle

>  <origin>  (7) 
adg

>  <m_score__min__energy>  (7) 
-7.0300000000000002

>  <m_primary>  (7) 
energy

$$$$
7:0
     RDKit          3D

 38 39  0  0  0  0  0  0  0  0999 V2000
   59.6660   34.2420   48.3460 C   0  0  0  0  0  0  0  0  0  0  0  0
   60.2680   33.8100   47.1460 O   0  0  0  0  0  0  0  0  0  0  0  0
   60.0570   34.7600   46.1160 C   0  0  0  0  0  0  0  0  0  0  0  0
   58.6760   34.5690   45.4750 C   0  0  0  0  0  0  0  0  0  0  0  0
   58.4880   33.1630   45.0520 N   0  0  0  0  0  0  0  0  0  0  0  0
   57.7750   33.1080   43.7570 C   0  0  0  0  0  0  0  0  0  0  0  0
   58.1050   31.8330   42.9710 C   0  0  0  0  0  0  0  0  0  0  0  0
   57.5030   30.6610   43.6130 N   0  0  0  0  0  0  0  0  0  0  0  0
   56.3530   30.0060   42.9830 C   0  0  0  0  0  0  0  0  0  0  0  0
   58.0720   30.1260   44.8310 C   0  0  0  0  0  0  0  0  0  0  0  0
   58.5090   28.7910   44.8710 C   0  0  0  0  0  0  0  0  0  0  0  0
   59.0460   28.2530   46.0390 C   0  0  0  0  0  0  0  0  0  0  0  0
   59.1480   29.0540   47.1770 C   0  0  0  0  0  0  0  0  0  0  0  0
   59.7180   28.5000   48.4440 C   0  0  0  0  0  0  0  0  0  0  0  0
   58.7340   30.3470   47.1300 N   0  0  0  0  0  0  0  0  0  0  0  0
   58.2140   30.9130   46.0050 C   0  0  0  0  0  0  0  0  0  0  0  0
   57.7950   32.3610   46.0860 C   0  0  0  0  0  0  0  0  0  0  0  0
   60.2264   33.8398   49.2029 H   0  0  0  0  0  0  0  0  0  0  0  0
   59.6747   35.3413   48.3856 H   0  0  0  0  0  0  0  0  0  0  0  0
   58.6274   33.8818   48.3856 H   0  0  0  0  0  0  0  0  0  0  0  0
   60.1209   35.7728   46.5405 H   0  0  0  0  0  0  0  0  0  0  0  0
   60.8274   34.6202   45.3434 H   0  0  0  0  0  0  0  0  0  0  0  0
   57.8982   34.8335   46.2065 H   0  0  0  0  0  0  0  0  0  0  0  0
   58.6028   35.2184   44.5902 H   0  0  0  0  0  0  0  0  0  0  0  0
   56.6919   33.1375   43.9468 H   0  0  0  0  0  0  0  0  0  0  0  0
   58.0981   33.9703   43.1553 H   0  0  0  0  0  0  0  0  0  0  0  0
   57.7115   31.9269   41.9481 H   0  0  0  0  0  0  0  0  0  0  0  0
   59.1971   31.7031   42.9482 H   0  0  0  0  0  0  0  0  0  0  0  0
   55.6780   29.6215   43.7618 H   0  0  0  0  0  0  0  0  0  0  0  0
   55.8145   30.7329   42.3572 H   0  0  0  0  0  0  0  0  0  0  0  0
   56.7035   29.1720   42.3572 H   0  0  0  0  0  0  0  0  0  0  0  0
   58.4263   28.1641   43.9709 H   0  0  0  0  0  0  0  0  0  0  0  0
   59.3861   27.2072   46.0636 H   0  0  0  0  0  0  0  0  0  0  0  0
   59.2277   28.9765   49.3057 H   0  0  0  0  0  0  0  0  0  0  0  0
   59.5467   27.4140   48.4790 H   0  0  0  0  0  0  0  0  0  0  0  0
   60.7987   28.7021   48.4790 H   0  0  0  0  0  0  0  0  0  0  0  0
   56.7084   32.4321   45.9305 H   0  0  0  0  0  0  0  0  0  0  0  0
   58.0640   32.7529   47.0780 H   0  0  0  0  0  0  0  0  0  0  0  0
  1  2  1  0
  2  3  1  0
  3  4  1  0
  4  5  1  0
  5  6  1  0
  6  7  1  0
  7  8  1  0
  8  9  1  0
  8 10  1  0
 10 11  2  0
 11 12  1  0
 12 13  2  0
 13 14  1  0
 13 15  1  0
 15 16  2  0
 16 17  1  0
 17  5  1  0
 16 10  1  0
  1 18  1  0
  1 19  1  0
  1 20  1  0
  3 21  1  0
  3 22  1  0
  4 23  1  0
  4 24  1  0
  6 25  1  0
  6 26  1  0
  7 27  1  0
  7 28  1  0
  9 29  1  0
  9 30  1  0
  9 31  1  0
 11 32  1  0
 12 33  1  0
 14 34  1  0
 14 35  1  0
 14 36  1  0
 17 37  1  0
 17 38  1  0
M  END
>  <UniqueID>  (8) 
8

>  <SMILES>  (8) 
COCCN1CCN(C)c2ccc(C)nc2C1

>  <Energy>  (8) 
46.53364744414429

>  <Genealogy>  (8) 
COCCN1CCN(C)c2ccc(C)nc2C1 (3D coordinates assigned)
COCCN1CCN(C)c2ccc(C)nc2C1 (nonaromatic ring conformer: 46.53364744414429 kcal/mol)

>  <smiles>  (8) 
COCCN1CCN(C)c2ccc(C)nc2C1

>  <score_type>  (8) 
oracle

>  <origin>  (8) 
adg

>  <m_score__min__energy>  (8) 
-4.54

>  <m_primary>  (8) 
energy

$$$$
8:0
     RDKit          3D

 44 46  0  0  0  0  0  0  0  0999 V2000
   60.3350   30.2160   47.1250 C   0  0  0  0  0  0  0  0  0  0  0  0
   60.3820   29.6940   45.6920 C   0  0  0  0  0  0  0  0  0  0  0  0
   59.7710   28.3140   45.5970 C   0  0  0  0  0  0  0  0  0  0  0  0
   60.4360   27.2340   46.2070 C   0  0  0  0  0  0  0  0  0  0  0  0
   59.9270   25.9380   46.1120 C   0  0  0  0  0  0  0  0  0  0  0  0
   58.7540   25.6990   45.3970 C   0  0  0  0  0  0  0  0  0  0  0  0
   58.0910   26.7530   44.7690 C   0  0  0  0  0  0  0  0  0  0  0  0
   58.5900   28.0670   44.8520 C   0  0  0  0  0  0  0  0  0  0  0  0
   57.8780   29.1410   44.2150 N   0  0  0  0  0  0  0  0  0  0  0  0
   56.5370   29.5110   44.5730 C   0  0  0  0  0  0  0  0  0  0  0  0
   55.8180   28.7240   45.2450 O   0  0  0  0  0  0  0  0  0  0  0  0
   55.9560   30.8100   44.0950 C   0  0  0  0  0  0  0  0  0  0  0  0
   56.8630   31.4940   43.1710 N   0  0  0  0  0  0  0  0  0  0  0  0
   56.9280   31.2310   41.8780 N   0  0  0  0  0  0  0  0  0  0  0  0
   57.8860   31.9680   41.3370 N   0  0  0  0  0  0  0  0  0  0  0  0
   58.4620   32.7180   42.2670 N   0  0  0  0  0  0  0  0  0  0  0  0
   57.8110   32.4280   43.4090 C   0  0  0  0  0  0  0  0  0  0  0  0
   58.1720   33.0010   44.7210 C   0  0  0  0  0  0  0  0  0  0  0  0
   58.8680   34.2190   44.7770 C   0  0  0  0  0  0  0  0  0  0  0  0
   59.2350   34.7690   46.0090 C   0  0  0  0  0  0  0  0  0  0  0  0
   58.8990   34.1120   47.2070 C   0  0  0  0  0  0  0  0  0  0  0  0
   59.2630   34.6100   48.4660 O   0  0  0  0  0  0  0  0  0  0  0  0
   60.0490   33.8960   49.4150 C   0  0  0  0  0  0  0  0  0  0  0  0
   58.1770   32.9150   47.1490 C   0  0  0  0  0  0  0  0  0  0  0  0
   57.8090   32.3650   45.9180 C   0  0  0  0  0  0  0  0  0  0  0  0
   60.4110   29.3714   47.8256 H   0  0  0  0  0  0  0  0  0  0  0  0
   61.1746   30.9070   47.2912 H   0  0  0  0  0  0  0  0  0  0  0  0
   59.3855   30.7459   47.2912 H   0  0  0  0  0  0  0  0  0  0  0  0
   59.8219   30.3809   45.0405 H   0  0  0  0  0  0  0  0  0  0  0  0
   61.4338   29.6339   45.3755 H   0  0  0  0  0  0  0  0  0  0  0  0
   61.3670   27.4133   46.7647 H   0  0  0  0  0  0  0  0  0  0  0  0
   60.4516   25.1043   46.6016 H   0  0  0  0  0  0  0  0  0  0  0  0
   58.3511   24.6778   45.3282 H   0  0  0  0  0  0  0  0  0  0  0  0
   57.1687   26.5558   44.2030 H   0  0  0  0  0  0  0  0  0  0  0  0
   58.3460   29.6850   43.4580 H   0  0  0  0  0  0  0  0  0  0  0  0
   55.0053   30.6086   43.5796 H   0  0  0  0  0  0  0  0  0  0  0  0
   55.7971   31.4599   44.9682 H   0  0  0  0  0  0  0  0  0  0  0  0
   59.1263   34.7441   43.8455 H   0  0  0  0  0  0  0  0  0  0  0  0
   59.7886   35.7190   46.0418 H   0  0  0  0  0  0  0  0  0  0  0  0
   59.7398   34.1768   50.4326 H   0  0  0  0  0  0  0  0  0  0  0  0
   59.9032   32.8150   49.2727 H   0  0  0  0  0  0  0  0  0  0  0  0
   61.1110   34.1446   49.2727 H   0  0  0  0  0  0  0  0  0  0  0  0
   57.8964   32.4021   48.0808 H   0  0  0  0  0  0  0  0  0  0  0  0
   57.2320   31.4290   45.8873 H   0  0  0  0  0  0  0  0  0  0  0  0
  1  2  1  0
  2  3  1  0
  3  4  2  0
  4  5  1  0
  5  6  2  0
  6  7  1  0
  7  8  2  0
  8  9  1  0
  9 10  1  0
 10 11  2  0
 10 12  1  0
 12 13  1  0
 13 14  1  0
 14 15  2  0
 15 16  1  0
 16 17  2  0
 17 18  1  0
 18 19  2  0
 19 20  1  0
 20 21  2  0
 21 22  1  0
 22 23  1  0
 21 24  1  0
 24 25  2  0
  8  3  1  0
 17 13  1  0
 25 18  1  0
  1 26  1  0
  1 27  1  0
  1 28  1  0
  2 29  1  0
  2 30  1  0
  4 31  1  0
  5 32  1  0
  6 33  1  0
  7 34  1  0
  9 35  1  0
 12 36  1  0
 12 37  1  0
 19 38  1  0
 20 39  1  0
 23 40  1  0
 23 41  1  0
 23 42  1  0
 24 43  1  0
 25 44  1  0
M  END
>  <UniqueID>  (9) 
9

>  <SMILES>  (9) 
CCc1ccccc1NC(=O)Cn1nnnc1-c1ccc(OC)cc1

>  <Energy>  (9) 
88.39531783787898

>  <Genealogy>  (9) 
CCc1ccccc1NC(=O)Cn1nnnc1-c1ccc(OC)cc1 (3D coordinates assigned)
CCc1ccccc1NC(=O)Cn1nnnc1-c1ccc(OC)cc1 (optimized conformer: 88.39531783787898 kcal/mol)

>  <smiles>  (9) 
CCc1ccccc1NC(=O)Cn1nnnc1-c1ccc(OC)cc1

>  <score_type>  (9) 
oracle

>  <origin>  (9) 
adg

>  <m_score__min__energy>  (9) 
-8.2799999999999994

>  <m_primary>  (9) 
energy

$$$$
9:0
     RDKit          3D

 49 51  0  0  0  0  0  0  0  0999 V2000
   57.7870   32.1400   51.6750 C   0  0  0  0  0  0  0  0  0  0  0  0
   58.5550   33.3380   51.5580 O   0  0  0  0  0  0  0  0  0  0  0  0
   59.6490   33.4910   50.7000 C   0  0  0  0  0  0  0  0  0  0  0  0
   60.9320   33.2960   51.2240 C   0  0  0  0  0  0  0  0  0  0  0  0
   62.0590   33.4290   50.4150 C   0  0  0  0  0  0  0  0  0  0  0  0
   61.9230   33.7290   49.0460 C   0  0  0  0  0  0  0  0  0  0  0  0
   63.0320   33.8200   48.1900 O   0  0  0  0  0  0  0  0  0  0  0  0
   63.7160   32.6980   47.6390 C   0  0  0  0  0  0  0  0  0  0  0  0
   60.6350   33.9510   48.5160 C   0  0  0  0  0  0  0  0  0  0  0  0
   60.4500   34.4050   46.8220 S   0  0  0  0  0  0  0  0  0  0  0  0
   61.7500   34.2500   46.0790 O   0  0  0  0  0  0  0  0  0  0  0  0
   60.0210   35.8380   46.7360 O   0  0  0  0  0  0  0  0  0  0  0  0
   59.2480   33.3520   46.0840 C   0  0  0  0  0  0  0  0  0  0  0  0
   58.4360   33.8040   45.0370 C   0  0  0  0  0  0  0  0  0  0  0  0
   57.4530   32.9720   44.4920 C   0  0  0  0  0  0  0  0  0  0  0  0
   57.2620   31.6720   45.0030 C   0  0  0  0  0  0  0  0  0  0  0  0
   56.2670   30.7740   44.4870 N   0  0  0  0  0  0  0  0  0  0  0  0
   56.2950   29.3380   44.4870 C   0  0  0  0  0  0  0  0  0  0  0  0
   55.5410   28.6760   45.2520 O   0  0  0  0  0  0  0  0  0  0  0  0
   57.2850   28.6520   43.6420 C   0  0  0  0  0  0  0  0  0  0  0  0
   58.3350   27.9520   44.0970 C   0  0  0  0  0  0  0  0  0  0  0  0
   59.0770   28.2350   45.3460 C   0  0  0  0  0  0  0  0  0  0  0  0
   58.5520   27.8100   46.5790 C   0  0  0  0  0  0  0  0  0  0  0  0
   59.2120   28.1260   47.7690 C   0  0  0  0  0  0  0  0  0  0  0  0
   60.3800   28.8860   47.7230 C   0  0  0  0  0  0  0  0  0  0  0  0
   60.8640   29.3140   46.5260 N   0  0  0  0  0  0  0  0  0  0  0  0
   60.2430   29.0170   45.3520 C   0  0  0  0  0  0  0  0  0  0  0  0
   58.0950   31.2180   46.0310 C   0  0  0  0  0  0  0  0  0  0  0  0
   59.0770   32.0510   46.5720 C   0  0  0  0  0  0  0  0  0  0  0  0
   59.5060   33.8310   49.3410 C   0  0  0  0  0  0  0  0  0  0  0  0
   57.6356   31.9039   52.7386 H   0  0  0  0  0  0  0  0  0  0  0  0
   56.8107   32.2813   51.1882 H   0  0  0  0  0  0  0  0  0  0  0  0
   58.3230   31.3119   51.1882 H   0  0  0  0  0  0  0  0  0  0  0  0
   61.0522   33.0350   52.2858 H   0  0  0  0  0  0  0  0  0  0  0  0
   63.0614   33.2987   50.8488 H   0  0  0  0  0  0  0  0  0  0  0  0
   64.1008   32.0669   48.4536 H   0  0  0  0  0  0  0  0  0  0  0  0
   63.0208   32.1130   47.0190 H   0  0  0  0  0  0  0  0  0  0  0  0
   64.5545   33.0480   47.0190 H   0  0  0  0  0  0  0  0  0  0  0  0
   58.5722   34.8209   44.6402 H   0  0  0  0  0  0  0  0  0  0  0  0
   56.8272   33.3328   43.6624 H   0  0  0  0  0  0  0  0  0  0  0  0
   57.1539   28.7183   42.5519 H   0  0  0  0  0  0  0  0  0  0  0  0
   58.6723   27.0974   43.4921 H   0  0  0  0  0  0  0  0  0  0  0  0
   57.6194   27.2273   46.6068 H   0  0  0  0  0  0  0  0  0  0  0  0
   58.8138   27.7783   48.7336 H   0  0  0  0  0  0  0  0  0  0  0  0
   60.9094   29.1391   48.6534 H   0  0  0  0  0  0  0  0  0  0  0  0
   60.6564   29.3912   44.4038 H   0  0  0  0  0  0  0  0  0  0  0  0
   57.9755   30.1949   46.4171 H   0  0  0  0  0  0  0  0  0  0  0  0
   59.7193   31.6829   47.3856 H   0  0  0  0  0  0  0  0  0  0  0  0
   58.5031   34.0036   48.9234 H   0  0  0  0  0  0  0  0  0  0  0  0
  1  2  1  0
  2  3  1  0
  3  4  2  0
  4  5  1  0
  5  6  2  0
  6  7  1  0
  7  8  1  0
  6  9  1  0
  9 10  1  0
 10 11  2  0
 10 12  2  0
 10 13  1  0
 13 14  2  0
 14 15  1  0
 15 16  2  0
 16 17  1  0
 17 18  1  0
 18 19  2  0
 18 20  1  0
 20 21  2  3
 21 22  1  0
 22 23  2  0
 23 24  1  0
 24 25  2  0
 25 26  1  0
 26 27  2  0
 16 28  1  0
 28 29  2  0
  9 30  2  0
 30  3  1  0
 29 13  1  0
 27 22  1  0
  1 31  1  0
  1 32  1  0
  1 33  1  0
  4 34  1  0
  5 35  1  0
  8 36  1  0
  8 37  1  0
  8 38  1  0
 14 39  1  0
 15 40  1  0
 20 41  1  0
 21 42  1  0
 23 43  1  0
 24 44  1  0
 25 45  1  0
 27 46  1  0
 28 47  1  0
 29 48  1  0
 30 49  1  0
M  CHG  1  17  -1
M  END
>  <UniqueID>  (10) 
10

>  <SMILES>  (10) 
COc1ccc(OC)c(S(=O)(=O)c2ccc([N-]C(=O)C=Cc3cccnc3)cc2)c1

>  <Energy>  (10) 
65.10624531304438

>  <Genealogy>  (10) 
COc1ccc(OC)c(S(=O)(=O)c2ccc([N-]C(=O)C=Cc3cccnc3)cc2)c1 (protonated)
COc1ccc(OC)c(S(=O)(=O)c2ccc([N-]C(=O)C=Cc3cccnc3)cc2)c1 (3D coordinates assigned)
COc1ccc(OC)c(S(=O)(=O)c2ccc([N-]C(=O)C=Cc3cccnc3)cc2)c1 (optimized conformer: 65.10624531304438 kcal/mol)

>  <smiles>  (10) 
COc1ccc(OC)c(S(=O)(=O)c2ccc(NC(=O)C=Cc3cccnc3)cc2)c1

>  <score_type>  (10) 
oracle

>  <origin>  (10) 
adg

>  <m_score__min__energy>  (10) 
-10.33

>  <m_primary>  (10) 
energy

$$$$
10:0
     RDKit          3D

 38 40  0  0  0  0  0  0  0  0999 V2000
   62.5750   31.9180   48.1270 C   0  0  0  0  0  0  0  0  0  0  0  0
   61.4850   31.1000   48.5340 O   0  0  0  0  0  0  0  0  0  0  0  0
   60.6680   30.3740   47.6540 C   0  0  0  0  0  0  0  0  0  0  0  0
   61.1350   30.1380   46.3560 C   0  0  0  0  0  0  0  0  0  0  0  0
   60.3590   29.4190   45.4410 C   0  0  0  0  0  0  0  0  0  0  0  0
   59.1040   28.9170   45.8190 C   0  0  0  0  0  0  0  0  0  0  0  0
   58.2520   28.1770   44.8220 C   0  0  0  0  0  0  0  0  0  0  0  0
   56.8080   28.0930   45.3110 C   0  0  0  0  0  0  0  0  0  0  0  0
   56.1930   29.4140   45.2490 N   0  0  0  0  0  0  0  0  0  0  0  0
   56.0830   30.1930   44.0530 C   0  0  0  0  0  0  0  0  0  0  0  0
   55.1460   29.9490   43.2500 O   0  0  0  0  0  0  0  0  0  0  0  0
   57.0100   31.2960   43.7570 C   0  0  0  0  0  0  0  0  0  0  0  0
   57.5770   31.5990   42.5250 C   0  0  0  0  0  0  0  0  0  0  0  0
   58.4140   32.6550   42.6520 N   0  0  0  0  0  0  0  0  0  0  0  0
   58.3960   33.0070   43.9280 N   0  0  0  0  0  0  0  0  0  0  0  0
   59.1230   34.0040   44.4950 C   0  0  0  0  0  0  0  0  0  0  0  0
   59.0160   34.1980   45.8800 C   0  0  0  0  0  0  0  0  0  0  0  0
   58.1790   33.3560   46.6370 C   0  0  0  0  0  0  0  0  0  0  0  0
   57.4480   32.3340   46.0100 C   0  0  0  0  0  0  0  0  0  0  0  0
   57.5730   32.2080   44.6250 C   0  0  0  0  0  0  0  0  0  0  0  0
   58.6270   29.1630   47.1140 C   0  0  0  0  0  0  0  0  0  0  0  0
   59.4030   29.8820   48.0290 C   0  0  0  0  0  0  0  0  0  0  0  0
   63.0934   32.3070   49.0158 H   0  0  0  0  0  0  0  0  0  0  0  0
   63.2764   31.3215   47.5252 H   0  0  0  0  0  0  0  0  0  0  0  0
   62.1982   32.7582   47.5252 H   0  0  0  0  0  0  0  0  0  0  0  0
   62.1205   30.5211   46.0528 H   0  0  0  0  0  0  0  0  0  0  0  0
   60.7337   29.2463   44.4213 H   0  0  0  0  0  0  0  0  0  0  0  0
   58.2778   28.7080   43.8590 H   0  0  0  0  0  0  0  0  0  0  0  0
   58.6474   27.1574   44.7034 H   0  0  0  0  0  0  0  0  0  0  0  0
   56.2450   27.3967   44.6721 H   0  0  0  0  0  0  0  0  0  0  0  0
   56.7945   27.7321   46.3500 H   0  0  0  0  0  0  0  0  0  0  0  0
   57.3757   31.0611   41.5869 H   0  0  0  0  0  0  0  0  0  0  0  0
   59.7784   34.6425   43.8844 H   0  0  0  0  0  0  0  0  0  0  0  0
   59.5823   35.0027   46.3716 H   0  0  0  0  0  0  0  0  0  0  0  0
   58.0973   33.4994   47.7245 H   0  0  0  0  0  0  0  0  0  0  0  0
   56.8011   31.6580   46.5883 H   0  0  0  0  0  0  0  0  0  0  0  0
   57.6367   28.7884   47.4123 H   0  0  0  0  0  0  0  0  0  0  0  0
   59.0237   30.0638   49.0454 H   0  0  0  0  0  0  0  0  0  0  0  0
  1  2  1  0
  2  3  1  0
  3  4  2  0
  4  5  1  0
  5  6  2  0
  6  7  1  0
  7  8  1  0
  8  9  1  0
  9 10  1  0
 10 11  2  0
 10 12  1  0
 12 13  1  0
 13 14  2  0
 14 15  1  0
 15 16  1  0
 16 17  2  0
 17 18  1  0
 18 19  2  0
 19 20  1  0
  6 21  1  0
 21 22  2  0
 22  3  1  0
 20 12  2  0
 20 15  1  0
  1 23  1  0
  1 24  1  0
  1 25  1  0
  4 26  1  0
  5 27  1  0
  7 28  1  0
  7 29  1  0
  8 30  1  0
  8 31  1  0
 13 32  1  0
 16 33  1  0
 17 34  1  0
 18 35  1  0
 19 36  1  0
 21 37  1  0
 22 38  1  0
M  CHG  1   9  -1
M  END
>  <UniqueID>  (11) 
11

>  <SMILES>  (11) 
COc1ccc(CC[N-]C(=O)c2cnn3ccccc23)cc1

>  <Energy>  (11) 
76.37082014058527

>  <Genealogy>  (11) 
COc1ccc(CC[N-]C(=O)c2cnn3ccccc23)cc1 (protonated)
COc1ccc(CC[N-]C(=O)c2cnn3ccccc23)cc1 (3D coordinates assigned)
COc1ccc(CC[N-]C(=O)c2cnn3ccccc23)cc1 (optimized conformer: 76.37082014058527 kcal/mol)

>  <smiles>  (11) 
COc1ccc(CCNC(=O)c2cnn3ccccc23)cc1

>  <score_type>  (11) 
oracle

>  <origin>  (11) 
adg

>  <m_score__min__energy>  (11) 
-9.2200000000000006

>  <m_primary>  (11) 
energy

$$$$
11:0
     RDKit          3D

 62 66  0  0  0  0  0  0  0  0999 V2000
   63.7660   33.0590   46.7470 C   0  0  0  0  0  0  0  0  0  0  0  0
   62.8770   33.9170   47.4230 O   0  0  0  0  0  0  0  0  0  0  0  0
   63.0910   33.8510   48.8210 C   0  0  0  0  0  0  0  0  0  0  0  0
   63.6630   32.4730   49.1960 C   0  0  1  0  0  0  0  0  0  0  0  0
   64.7970   32.6090   50.2320 C   0  0  0  0  0  0  0  0  0  0  0  0
   65.1370   31.2360   50.8120 C   0  0  0  0  0  0  0  0  0  0  0  0
   63.9350   30.6040   51.5400 C   0  0  0  0  0  0  0  0  0  0  0  0
   62.5700   31.1610   51.0960 C   0  0  0  0  0  0  0  0  0  0  0  0
   62.5900   31.5830   49.6880 N   0  0  0  0  0  0  0  0  0  0  0  0
   61.4900   31.2600   48.8150 C   0  0  0  0  0  0  0  0  0  0  0  0
   61.1560   29.9510   48.6090 N   0  0  0  0  0  0  0  0  0  0  0  0
   60.1640   29.6360   47.7430 C   0  0  0  0  0  0  0  0  0  0  0  0
   59.7600   28.3350   47.4290 C   0  0  0  0  0  0  0  0  0  0  0  0
   58.7530   28.3120   46.4560 C   0  0  0  0  0  0  0  0  0  0  0  0
   58.0940   27.1240   45.8770 C   0  0  0  0  0  0  0  0  0  0  0  0
   58.3710   26.6780   44.5750 C   0  0  0  0  0  0  0  0  0  0  0  0
   57.7110   25.5510   44.0790 C   0  0  0  0  0  0  0  0  0  0  0  0
   56.7810   24.8710   44.8680 C   0  0  0  0  0  0  0  0  0  0  0  0
   56.1270   23.7530   44.3310 O   0  0  0  0  0  0  0  0  0  0  0  0
   56.4370   23.1770   43.0650 C   0  0  0  0  0  0  0  0  0  0  0  0
   56.5360   25.3420   46.1700 C   0  0  0  0  0  0  0  0  0  0  0  0
   57.1900   26.4410   46.6320 N   0  0  0  0  0  0  0  0  0  0  0  0
   58.3950   29.9070   46.0060 S   0  0  0  0  0  0  0  0  0  0  0  0
   59.4920   30.6220   47.0560 C   0  0  0  0  0  0  0  0  0  0  0  0
   59.8230   31.9630   47.2510 C   0  0  0  0  0  0  0  0  0  0  0  0
   59.1720   33.0140   46.5170 N   0  0  0  0  0  0  0  0  0  0  0  0
   57.7040   33.0370   46.4570 C   0  0  0  0  0  0  0  0  0  0  0  0
   57.2060   34.1880   45.5850 C   0  0  0  0  0  0  0  0  0  0  0  0
   58.0850   34.3710   44.4960 O   0  0  0  0  0  0  0  0  0  0  0  0
   59.2740   34.9800   44.9590 C   0  0  0  0  0  0  0  0  0  0  0  0
   59.9780   34.1600   46.0630 C   0  0  0  0  0  0  0  0  0  0  0  0
   60.8290   32.2520   48.1320 N   0  0  0  0  0  0  0  0  0  0  0  0
   64.3556   32.4899   47.4808 H   0  0  0  0  0  0  0  0  0  0  0  0
   63.1946   32.3622   46.1161 H   0  0  0  0  0  0  0  0  0  0  0  0
   64.4421   33.6547   46.1161 H   0  0  0  0  0  0  0  0  0  0  0  0
   63.8026   34.6352   49.1190 H   0  0  0  0  0  0  0  0  0  0  0  0
   62.1342   34.0013   49.3424 H   0  0  0  0  0  0  0  0  0  0  0  0
   64.0936   32.0189   48.2914 H   0  0  0  0  0  0  0  0  0  0  0  0
   65.6885   33.0302   49.7442 H   0  0  0  0  0  0  0  0  0  0  0  0
   64.4689   33.2747   51.0439 H   0  0  0  0  0  0  0  0  0  0  0  0
   65.4458   30.5706   49.9923 H   0  0  0  0  0  0  0  0  0  0  0  0
   65.9474   31.3673   51.5442 H   0  0  0  0  0  0  0  0  0  0  0  0
   63.9453   29.5208   51.3487 H   0  0  0  0  0  0  0  0  0  0  0  0
   64.0458   30.8469   52.6071 H   0  0  0  0  0  0  0  0  0  0  0  0
   61.8068   30.3792   51.2236 H   0  0  0  0  0  0  0  0  0  0  0  0
   62.3391   32.0401   51.7155 H   0  0  0  0  0  0  0  0  0  0  0  0
   60.1845   27.4326   47.8931 H   0  0  0  0  0  0  0  0  0  0  0  0
   59.1021   27.2118   43.9501 H   0  0  0  0  0  0  0  0  0  0  0  0
   57.9254   25.1969   43.0599 H   0  0  0  0  0  0  0  0  0  0  0  0
   56.9534   22.2175   43.2153 H   0  0  0  0  0  0  0  0  0  0  0  0
   55.5076   23.0088   42.5012 H   0  0  0  0  0  0  0  0  0  0  0  0
   57.0893   23.8601   42.5012 H   0  0  0  0  0  0  0  0  0  0  0  0
   55.8142   24.8206   46.8158 H   0  0  0  0  0  0  0  0  0  0  0  0
   57.3470   32.0861   46.0347 H   0  0  0  0  0  0  0  0  0  0  0  0
   57.3154   33.1782   47.4763 H   0  0  0  0  0  0  0  0  0  0  0  0
   56.1998   33.9529   45.2079 H   0  0  0  0  0  0  0  0  0  0  0  0
   57.1685   35.1102   46.1834 H   0  0  0  0  0  0  0  0  0  0  0  0
   59.9647   35.0919   44.1103 H   0  0  0  0  0  0  0  0  0  0  0  0
   58.9996   35.9524   45.3938 H   0  0  0  0  0  0  0  0  0  0  0  0
   60.9335   33.7845   45.6681 H   0  0  0  0  0  0  0  0  0  0  0  0
   60.1295   34.8243   46.9266 H   0  0  0  0  0  0  0  0  0  0  0  0
   61.1170   33.2460   48.2610 H   0  0  0  0  0  0  0  0  0  0  0  0
  1  2  1  0
  2  3  1  0
  3  4  1  0
  4  5  1  0
  5  6  1  0
  6  7  1  0
  7  8  1  0
  8  9  1  0
  9 10  1  0
 10 11  2  0
 11 12  1  0
 12 13  1  0
 13 14  2  0
 14 15  1  0
 15 16  2  0
 16 17  1  0
 17 18  2  0
 18 19  1  0
 19 20  1  0
 18 21  1  0
 21 22  2  0
 14 23  1  0
 23 24  1  0
 24 25  1  0
 25 26  1  0
 26 27  1  0
 27 28  1  0
 28 29  1  0
 29 30  1  0
 30 31  1  0
 25 32  2  0
  9  4  1  0
 32 10  1  0
 24 12  2  0
 31 26  1  0
 22 15  1  0
  1 33  1  0
  1 34  1  0
  1 35  1  0
  3 36  1  0
  3 37  1  0
  4 38  1  6
  5 39  1  0
  5 40  1  0
  6 41  1  0
  6 42  1  0
  7 43  1  0
  7 44  1  0
  8 45  1  0
  8 46  1  0
 13 47  1  0
 16 48  1  0
 17 49  1  0
 20 50  1  0
 20 51  1  0
 20 52  1  0
 21 53  1  0
 27 54  1  0
 27 55  1  0
 28 56  1  0
 28 57  1  0
 30 58  1  0
 30 59  1  0
 31 60  1  0
 31 61  1  0
 32 62  1  0
M  CHG  1  32   1
M  END
>  <UniqueID>  (12) 
12

>  <SMILES>  (12) 
COC[C@H]1CCCCN1c1nc2cc(-c3ccc(OC)cn3)sc2c(N2CCOCC2)[nH+]1

>  <Energy>  (12) 
113.13851143554845

>  <Genealogy>  (12) 
COCC1CCCCN1c1nc2cc(-c3ccc(OC)cn3)sc2c(N2CCOCC2)[nH+]1 (protonated)
COC[C@H]1CCCCN1c1nc2cc(-c3ccc(OC)cn3)sc2c(N2CCOCC2)[nH+]1 (chirality)
COC[C@H]1CCCCN1c1nc2cc(-c3ccc(OC)cn3)sc2c(N2CCOCC2)[nH+]1 (3D coordinates assigned)
COC[C@H]1CCCCN1c1nc2cc(-c3ccc(OC)cn3)sc2c(N2CCOCC2)[nH+]1 (nonaromatic ring conformer: 113.13851143554845 kcal/mol)

>  <smiles>  (12) 
COCC1CCCCN1c1nc(N2CCOCC2)c2sc(-c3ccc(OC)cn3)cc2n1

>  <score_type>  (12) 
oracle

>  <origin>  (12) 
adg

>  <m_score__min__energy>  (12) 
-7.21

>  <m_primary>  (12) 
energy

$$$$
12:0
     RDKit          3D

 47 50  0  0  0  0  0  0  0  0999 V2000
   63.0630   33.6100   46.7420 C   0  0  0  0  0  0  0  0  0  0  0  0
   63.0870   33.8630   48.2500 C   0  0  0  0  0  0  0  0  0  0  0  0
   64.2900   33.1730   48.8910 C   0  0  0  0  0  0  0  0  0  0  0  0
   61.5480   33.2140   49.0110 S   0  0  0  0  0  0  0  0  0  0  0  0
   60.4180   34.5290   48.4250 C   0  0  0  0  0  0  0  0  0  0  0  0
   59.6900   34.0950   47.1830 C   0  0  0  0  0  0  0  0  0  0  0  0
   59.4930   34.9960   46.1280 C   0  0  0  0  0  0  0  0  0  0  0  0
   58.8460   34.5670   44.9720 C   0  0  0  0  0  0  0  0  0  0  0  0
   58.4020   33.2500   44.8720 C   0  0  0  0  0  0  0  0  0  0  0  0
   58.6090   32.3630   45.9420 C   0  0  0  0  0  0  0  0  0  0  0  0
   58.1400   30.9570   45.8540 C   0  0  0  0  0  0  0  0  0  0  0  0
   58.5790   29.9950   46.7800 C   0  0  0  0  0  0  0  0  0  0  0  0
   58.1320   28.6740   46.6970 C   0  0  0  0  0  0  0  0  0  0  0  0
   57.2350   28.2870   45.6870 C   0  0  0  0  0  0  0  0  0  0  0  0
   56.7620   26.8880   45.5980 C   0  0  0  0  0  0  0  0  0  0  0  0
   57.5310   25.8760   45.1120 N   0  0  0  0  0  0  0  0  0  0  0  0
   56.7200   24.8130   45.2150 C   0  0  0  0  0  0  0  0  0  0  0  0
   56.9920   23.4940   44.8600 C   0  0  0  0  0  0  0  0  0  0  0  0
   55.9760   22.5400   45.0610 C   0  0  0  0  0  0  0  0  0  0  0  0
   54.7300   22.9290   45.6060 C   0  0  0  0  0  0  0  0  0  0  0  0
   54.4920   24.2720   45.9530 C   0  0  0  0  0  0  0  0  0  0  0  0
   55.5220   25.1860   45.7400 C   0  0  0  0  0  0  0  0  0  0  0  0
   55.5180   26.5020   45.9940 N   0  0  0  0  0  0  0  0  0  0  0  0
   56.7960   29.2480   44.7610 C   0  0  0  0  0  0  0  0  0  0  0  0
   57.2430   30.5700   44.8460 C   0  0  0  0  0  0  0  0  0  0  0  0
   59.2440   32.8100   47.0680 N   0  0  0  0  0  0  0  0  0  0  0  0
   62.9607   32.5312   46.5528 H   0  0  0  0  0  0  0  0  0  0  0  0
   62.2114   34.1432   46.2943 H   0  0  0  0  0  0  0  0  0  0  0  0
   63.9997   33.9736   46.2943 H   0  0  0  0  0  0  0  0  0  0  0  0
   63.1616   34.9473   48.4197 H   0  0  0  0  0  0  0  0  0  0  0  0
   64.2013   33.2239   49.9862 H   0  0  0  0  0  0  0  0  0  0  0  0
   64.3206   32.1201   48.5741 H   0  0  0  0  0  0  0  0  0  0  0  0
   65.2143   33.6782   48.5741 H   0  0  0  0  0  0  0  0  0  0  0  0
   59.6842   34.7514   49.2137 H   0  0  0  0  0  0  0  0  0  0  0  0
   61.0119   35.4246   48.1900 H   0  0  0  0  0  0  0  0  0  0  0  0
   59.8467   36.0341   46.2124 H   0  0  0  0  0  0  0  0  0  0  0  0
   58.6856   35.2670   44.1387 H   0  0  0  0  0  0  0  0  0  0  0  0
   57.8920   32.9064   43.9600 H   0  0  0  0  0  0  0  0  0  0  0  0
   59.2802   30.2846   47.5765 H   0  0  0  0  0  0  0  0  0  0  0  0
   58.4849   27.9313   47.4277 H   0  0  0  0  0  0  0  0  0  0  0  0
   57.9664   23.2075   44.4374 H   0  0  0  0  0  0  0  0  0  0  0  0
   56.1520   21.4878   44.7931 H   0  0  0  0  0  0  0  0  0  0  0  0
   53.9420   22.1770   45.7596 H   0  0  0  0  0  0  0  0  0  0  0  0
   53.5277   24.5887   46.3770 H   0  0  0  0  0  0  0  0  0  0  0  0
   56.0958   28.9583   43.9636 H   0  0  0  0  0  0  0  0  0  0  0  0
   56.8887   31.3133   44.1166 H   0  0  0  0  0  0  0  0  0  0  0  0
   59.4220   32.1460   47.8560 H   0  0  0  0  0  0  0  0  0  0  0  0
  1  2  1  0
  2  3  1  0
  2  4  1  0
  4  5  1  0
  5  6  1  0
  6  7  2  0
  7  8  1  0
  8  9  2  0
  9 10  1  0
 10 11  1  0
 11 12  2  0
 12 13  1  0
 13 14  2  0
 14 15  1  0
 15 16  2  0
 16 17  1  0
 17 18  2  0
 18 19  1  0
 19 20  2  0
 20 21  1  0
 21 22  2  0
 22 23  1  0
 14 24  1  0
 24 25  2  0
 10 26  2  0
 26  6  1  0
 25 11  1  0
 23 15  1  0
 22 17  1  0
  1 27  1  0
  1 28  1  0
  1 29  1  0
  2 30  1  0
  3 31  1  0
  3 32  1  0
  3 33  1  0
  5 34  1  0
  5 35  1  0
  7 36  1  0
  8 37  1  0
  9 38  1  0
 12 39  1  0
 13 40  1  0
 18 41  1  0
 19 42  1  0
 20 43  1  0
 21 44  1  0
 24 45  1  0
 25 46  1  0
 26 47  1  0
M  CHG  2  23  -1  26   1
M  END
>  <UniqueID>  (13) 
13

>  <SMILES>  (13) 
CC(C)SCc1cccc(-c2ccc(-c3nc4ccccc4[n-]3)cc2)[nH+]1

>  <Energy>  (13) 
83.54577596266547

>  <Genealogy>  (13) 
CC(C)SCc1cccc(-c2ccc(-c3nc4ccccc4[n-]3)cc2)[nH+]1 (protonated)
CC(C)SCc1cccc(-c2ccc(-c3nc4ccccc4[n-]3)cc2)[nH+]1 (3D coordinates assigned)
CC(C)SCc1cccc(-c2ccc(-c3nc4ccccc4[n-]3)cc2)[nH+]1 (optimized conformer: 83.54577596266547 kcal/mol)

>  <smiles>  (13) 
CC(C)SCc1cccc(-c2ccc(-c3nc4ccccc4[nH]3)cc2)n1

>  <score_type>  (13) 
oracle

>  <origin>  (13) 
adg

>  <m_score__min__energy>  (13) 
-8.9199999999999999

>  <m_primary>  (13) 
energy

$$$$
13:0
     RDKit          3D

 46 49  0  0  0  0  0  0  0  0999 V2000
   58.2978   21.9007   44.1083 H   0  0  0  0  0  0  0  0  0  0  0  0
   57.5630   22.6760   44.3710 C   0  0  0  0  0  0  0  0  0  0  0  0
   57.9880   23.9870   44.5940 C   0  0  0  0  0  0  0  0  0  0  0  0
   59.0547   24.2377   44.4970 H   0  0  0  0  0  0  0  0  0  0  0  0
   57.0670   24.9890   44.9410 C   0  0  0  0  0  0  0  0  0  0  0  0
   57.5380   26.3790   45.1690 C   0  0  0  0  0  0  0  0  0  0  0  0
   56.6280   27.3840   45.2540 N   0  0  0  0  0  0  0  0  0  0  0  0
   56.9580   28.6870   45.4560 C   0  0  0  0  0  0  0  0  0  0  0  0
   56.0090   29.5580   45.2360 N   0  0  0  0  0  0  0  0  0  0  0  0
   55.6750   30.2970   44.0230 C   0  0  0  0  0  0  0  0  0  0  0  0
   54.6693   30.6335   44.3150 H   0  0  0  0  0  0  0  0  0  0  0  0
   56.9130   30.9220   43.4010 C   0  0  0  0  0  0  0  0  0  0  0  0
   56.8477   31.9082   42.9181 H   0  0  0  0  0  0  0  0  0  0  0  0
   57.9250   31.1637   43.7579 H   0  0  0  0  0  0  0  0  0  0  0  0
   56.2650   29.7140   42.7500 C   0  0  0  0  0  0  0  0  0  0  0  0
   55.7302   29.8247   41.7952 H   0  0  0  0  0  0  0  0  0  0  0  0
   56.6132   28.7178   42.4397 H   0  0  0  0  0  0  0  0  0  0  0  0
   58.3270   29.0110   45.7280 C   0  0  0  0  0  0  0  0  0  0  0  0
   58.7960   30.2110   46.3210 C   0  0  0  0  0  0  0  0  0  0  0  0
   57.9960   30.9950   46.8980 O   0  0  0  0  0  0  0  0  0  0  0  0
   60.1390   30.4780   46.3700 N   0  0  0  0  0  0  0  0  0  0  0  0
   60.6270   31.7490   46.9210 C   0  0  0  0  0  0  0  0  0  0  0  0
   60.6094   31.7031   48.0199 H   0  0  0  0  0  0  0  0  0  0  0  0
   61.6570   31.9260   46.5779 H   0  0  0  0  0  0  0  0  0  0  0  0
   59.9801   32.5698   46.5779 H   0  0  0  0  0  0  0  0  0  0  0  0
   61.0400   29.5230   46.0060 C   0  0  0  0  0  0  0  0  0  0  0  0
   62.1158   29.7511   46.0290 H   0  0  0  0  0  0  0  0  0  0  0  0
   60.6220   28.2950   45.6160 N   0  0  0  0  0  0  0  0  0  0  0  0
   61.3430   27.5640   45.4160 H   0  0  0  0  0  0  0  0  0  0  0  0
   59.2970   28.0050   45.5050 C   0  0  0  0  0  0  0  0  0  0  0  0
   58.8980   26.6950   45.2190 C   0  0  0  0  0  0  0  0  0  0  0  0
   59.6526   25.9163   45.0341 H   0  0  0  0  0  0  0  0  0  0  0  0
   55.7040   24.6530   45.0370 C   0  0  0  0  0  0  0  0  0  0  0  0
   54.9694   25.4314   45.2909 H   0  0  0  0  0  0  0  0  0  0  0  0
   55.2680   23.3320   44.8120 C   0  0  0  0  0  0  0  0  0  0  0  0
   53.9160   22.9670   44.9060 O   0  0  0  0  0  0  0  0  0  0  0  0
   52.8300   23.8880   44.9390 C   0  0  0  0  0  0  0  0  0  0  0  0
   52.5688   24.1096   45.9843 H   0  0  0  0  0  0  0  0  0  0  0  0
   53.1222   24.8179   44.4291 H   0  0  0  0  0  0  0  0  0  0  0  0
   51.9604   23.4479   44.4291 H   0  0  0  0  0  0  0  0  0  0  0  0
   56.2020   22.3400   44.4800 C   0  0  0  0  0  0  0  0  0  0  0  0
   55.7380   21.0320   44.2650 O   0  0  0  0  0  0  0  0  0  0  0  0
   56.2470   19.8780   44.9240 C   0  0  0  0  0  0  0  0  0  0  0  0
   56.1843   20.0201   46.0130 H   0  0  0  0  0  0  0  0  0  0  0  0
   55.6533   18.9985   44.6342 H   0  0  0  0  0  0  0  0  0  0  0  0
   57.2968   19.7234   44.6342 H   0  0  0  0  0  0  0  0  0  0  0  0
  1  2  1  0
  2  3  2  0
  3  4  1  0
  3  5  1  0
  5  6  1  0
  6  7  1  0
  7  8  1  0
  8  9  2  0
  9 10  1  0
 10 11  1  0
 10 12  1  0
 12 13  1  0
 12 14  1  0
 12 15  1  0
 15 16  1  0
 15 17  1  0
  8 18  1  0
 18 19  1  0
 19 20  2  0
 19 21  1  0
 21 22  1  0
 22 23  1  0
 22 24  1  0
 22 25  1  0
 21 26  1  0
 26 27  1  0
 26 28  2  0
 28 29  1  0
 28 30  1  0
 30 31  1  0
 31 32  1  0
  5 33  2  0
 33 34  1  0
 33 35  1  0
 35 36  1  0
 36 37  1  0
 37 38  1  0
 37 39  1  0
 37 40  1  0
 35 41  2  0
 41 42  1  0
 42 43  1  0
 43 44  1  0
 43 45  1  0
 43 46  1  0
 41  2  1  0
 31  6  2  0
 15 10  1  0
 30 18  2  0
M  CHG  2   7  -1  28   1
M  END
>  <UniqueID>  (14) 
14

>  <SMILES>  (14) 
COc1ccc(-c2cc3[nH+]cn(C)c(=O)c3/c(=N\C3CC3)[n-]2)cc1OC

>  <Energy>  (14) 
343.0333376732474

>  <Genealogy>  (14) 
COc1ccc(-c2cc3[nH+]cn(C)c(=O)c3c(=NC3CC3)[n-]2)cc1OC (protonated)
COc1ccc(-c2cc3[nH+]cn(C)c(=O)c3/c(=N\C3CC3)[n-]2)cc1OC (cis-trans isomerization)
COc1ccc(-c2cc3[nH+]cn(C)c(=O)c3/c(=N\C3CC3)[n-]2)cc1OC (3D coordinates assigned)
COc1ccc(-c2cc3[nH+]cn(C)c(=O)c3/c(=N\C3CC3)[n-]2)cc1OC (nonaromatic ring conformer: 343.0333376732474 kcal/mol)

>  <smiles>  (14) 
COc1ccc(-c2cc3ncn(C)c(=O)c3c(=NC3CC3)[nH]2)cc1OC

>  <score_type>  (14) 
oracle

>  <origin>  (14) 
adg

>  <m_score__min__energy>  (14) 
-7.5999999999999996

>  <m_primary>  (14) 
energy

$$$$
14:0
     RDKit          3D

 28 30  0  0  0  0  0  0  0  0999 V2000
   63.7510   33.4130   47.1910 C   0  0  0  0  0  0  0  0  0  0  0  0
   62.3240   33.0940   46.7630 C   0  0  0  0  0  0  0  0  0  0  0  0
   61.6610   31.6540   47.6750 S   0  0  0  0  0  0  0  0  0  0  0  0
   60.1460   31.5340   46.7140 C   0  0  0  0  0  0  0  0  0  0  0  0
   59.8090   30.3580   46.1040 N   0  0  0  0  0  0  0  0  0  0  0  0
   58.6590   30.2410   45.3690 C   0  0  0  0  0  0  0  0  0  0  0  0
   58.3130   29.0420   44.7340 C   0  0  0  0  0  0  0  0  0  0  0  0
   57.1290   28.9670   43.9940 C   0  0  0  0  0  0  0  0  0  0  0  0
   56.3030   30.0910   43.8960 C   0  0  0  0  0  0  0  0  0  0  0  0
   56.6470   31.2520   44.5160 N   0  0  0  0  0  0  0  0  0  0  0  0
   57.7950   31.3520   45.2420 C   0  0  0  0  0  0  0  0  0  0  0  0
   58.1450   32.5050   45.8660 N   0  0  0  0  0  0  0  0  0  0  0  0
   57.5030   33.6880   45.9120 C   0  0  0  0  0  0  0  0  0  0  0  0
   58.2440   34.5710   46.6820 C   0  0  0  0  0  0  0  0  0  0  0  0
   59.3750   33.8930   47.1160 C   0  0  0  0  0  0  0  0  0  0  0  0
   59.2720   32.6210   46.5860 C   0  0  0  0  0  0  0  0  0  0  0  0
   63.8101   33.4262   48.2893 H   0  0  0  0  0  0  0  0  0  0  0  0
   64.4325   32.6450   46.7963 H   0  0  0  0  0  0  0  0  0  0  0  0
   64.0406   34.3981   46.7963 H   0  0  0  0  0  0  0  0  0  0  0  0
   61.6866   33.9682   46.9619 H   0  0  0  0  0  0  0  0  0  0  0  0
   62.3299   32.8519   45.6900 H   0  0  0  0  0  0  0  0  0  0  0  0
   60.4500   29.5370   46.2000 H   0  0  0  0  0  0  0  0  0  0  0  0
   58.9695   28.1633   44.8169 H   0  0  0  0  0  0  0  0  0  0  0  0
   56.8490   28.0292   43.4918 H   0  0  0  0  0  0  0  0  0  0  0  0
   55.3707   30.0362   43.3148 H   0  0  0  0  0  0  0  0  0  0  0  0
   56.5466   33.9163   45.4189 H   0  0  0  0  0  0  0  0  0  0  0  0
   57.9839   35.6158   46.9074 H   0  0  0  0  0  0  0  0  0  0  0  0
   60.1839   34.2861   47.7493 H   0  0  0  0  0  0  0  0  0  0  0  0
  1  2  1  0
  2  3  1  0
  3  4  1  0
  4  5  2  0
  5  6  1  0
  6  7  2  0
  7  8  1  0
  8  9  2  0
  9 10  1  0
 10 11  2  0
 11 12  1  0
 12 13  1  0
 13 14  2  0
 14 15  1  0
 15 16  2  0
 16  4  1  0
 11  6  1  0
 16 12  1  0
  1 17  1  0
  1 18  1  0
  1 19  1  0
  2 20  1  0
  2 21  1  0
  5 22  1  0
  7 23  1  0
  8 24  1  0
  9 25  1  0
 13 26  1  0
 14 27  1  0
 15 28  1  0
M  CHG  1   5   1
M  END
>  <UniqueID>  (15) 
15

>  <SMILES>  (15) 
CCSc1[nH+]c2cccnc2n2cccc12

>  <Energy>  (15) 
59.52288024722027

>  <Genealogy>  (15) 
CCSc1[nH+]c2cccnc2n2cccc12 (protonated)
CCSc1[nH+]c2cccnc2n2cccc12 (3D coordinates assigned)
CCSc1[nH+]c2cccnc2n2cccc12 (optimized conformer: 59.52288024722027 kcal/mol)

>  <smiles>  (15) 
CCSc1nc2cccnc2n2cccc12

>  <score_type>  (15) 
oracle

>  <origin>  (15) 
adg

>  <m_score__min__energy>  (15) 
-4.6900000000000004

>  <m_primary>  (15) 
energy

$$$$
15:0
     RDKit          3D

 47 50  0  0  0  0  0  0  0  0999 V2000
   59.6000   30.1380   50.6120 C   0  0  0  0  0  0  0  0  0  0  0  0
   60.9150   29.5260   50.1400 C   0  0  0  0  0  0  0  0  0  0  0  0
   61.5100   30.3370   49.0730 N   0  0  0  0  0  0  0  0  0  0  0  0
   61.1470   30.4160   47.7620 C   0  0  0  0  0  0  0  0  0  0  0  0
   60.0240   29.6350   47.1350 C   0  0  0  0  0  0  0  0  0  0  0  0
   58.9350   30.5210   46.6780 N   0  0  0  0  0  0  0  0  0  0  0  0
   58.6600   31.7840   47.3330 C   0  0  0  0  0  0  0  0  0  0  0  0
   58.1480   31.7980   48.4850 O   0  0  0  0  0  0  0  0  0  0  0  0
   58.9750   33.0770   46.6950 C   0  0  0  0  0  0  0  0  0  0  0  0
   59.6930   34.0520   47.4070 C   0  0  0  0  0  0  0  0  0  0  0  0
   60.0190   35.2690   46.8030 C   0  0  0  0  0  0  0  0  0  0  0  0
   59.6150   35.5300   45.4900 C   0  0  0  0  0  0  0  0  0  0  0  0
   58.8800   34.5740   44.7830 C   0  0  0  0  0  0  0  0  0  0  0  0
   58.5550   33.3530   45.3830 C   0  0  0  0  0  0  0  0  0  0  0  0
   58.1330   30.1130   45.5520 C   0  0  0  0  0  0  0  0  0  0  0  0
   58.4640   28.9640   44.8140 C   0  0  0  0  0  0  0  0  0  0  0  0
   57.6620   28.5850   43.7350 C   0  0  0  0  0  0  0  0  0  0  0  0
   56.5430   29.3470   43.3990 C   0  0  0  0  0  0  0  0  0  0  0  0
   56.2420   30.4850   44.1490 C   0  0  0  0  0  0  0  0  0  0  0  0
   57.0350   30.8390   45.1960 N   0  0  0  0  0  0  0  0  0  0  0  0
   61.8930   31.3020   47.0500 N   0  0  0  0  0  0  0  0  0  0  0  0
   62.7430   31.7940   47.9670 C   0  0  0  0  0  0  0  0  0  0  0  0
   63.7250   32.7610   47.7770 C   0  0  0  0  0  0  0  0  0  0  0  0
   64.5000   33.1350   48.8910 C   0  0  0  0  0  0  0  0  0  0  0  0
   64.2740   32.5380   50.1530 C   0  0  0  0  0  0  0  0  0  0  0  0
   63.2710   31.5640   50.3100 C   0  0  0  0  0  0  0  0  0  0  0  0
   62.5190   31.2190   49.1850 C   0  0  0  0  0  0  0  0  0  0  0  0
   59.5748   30.1497   51.7116 H   0  0  0  0  0  0  0  0  0  0  0  0
   59.5174   31.1671   50.2324 H   0  0  0  0  0  0  0  0  0  0  0  0
   58.7594   29.5385   50.2324 H   0  0  0  0  0  0  0  0  0  0  0  0
   61.6144   29.4749   50.9875 H   0  0  0  0  0  0  0  0  0  0  0  0
   60.7157   28.5175   49.7487 H   0  0  0  0  0  0  0  0  0  0  0  0
   60.4158   29.0766   46.2721 H   0  0  0  0  0  0  0  0  0  0  0  0
   59.6156   28.9506   47.8931 H   0  0  0  0  0  0  0  0  0  0  0  0
   60.0001   33.8565   48.4450 H   0  0  0  0  0  0  0  0  0  0  0  0
   60.5941   36.0226   47.3610 H   0  0  0  0  0  0  0  0  0  0  0  0
   59.8754   36.4868   45.0139 H   0  0  0  0  0  0  0  0  0  0  0  0
   58.5565   34.7824   43.7525 H   0  0  0  0  0  0  0  0  0  0  0  0
   57.9691   32.6069   44.8262 H   0  0  0  0  0  0  0  0  0  0  0  0
   59.3480   28.3675   45.0839 H   0  0  0  0  0  0  0  0  0  0  0  0
   57.9125   27.6870   43.1512 H   0  0  0  0  0  0  0  0  0  0  0  0
   55.9048   29.0543   42.5522 H   0  0  0  0  0  0  0  0  0  0  0  0
   55.3635   31.0956   43.8934 H   0  0  0  0  0  0  0  0  0  0  0  0
   63.8902   33.2177   46.7900 H   0  0  0  0  0  0  0  0  0  0  0  0
   65.2862   33.8962   48.7793 H   0  0  0  0  0  0  0  0  0  0  0  0
   64.8860   32.8369   51.0168 H   0  0  0  0  0  0  0  0  0  0  0  0
   63.0855   31.0905   51.2854 H   0  0  0  0  0  0  0  0  0  0  0  0
  1  2  1  0
  2  3  1  0
  3  4  1  0
  4  5  1  0
  5  6  1  0
  6  7  1  0
  7  8  2  0
  7  9  1  0
  9 10  2  0
 10 11  1  0
 11 12  2  0
 12 13  1  0
 13 14  2  0
  6 15  1  0
 15 16  2  0
 16 17  1  0
 17 18  2  0
 18 19  1  0
 19 20  2  0
  4 21  2  0
 21 22  1  0
 22 23  2  0
 23 24  1  0
 24 25  2  0
 25 26  1  0
 26 27  2  0
 27  3  1  0
 14  9  1  0
 20 15  1  0
 27 22  1  0
  1 28  1  0
  1 29  1  0
  1 30  1  0
  2 31  1  0
  2 32  1  0
  5 33  1  0
  5 34  1  0
 10 35  1  0
 11 36  1  0
 12 37  1  0
 13 38  1  0
 14 39  1  0
 16 40  1  0
 17 41  1  0
 18 42  1  0
 19 43  1  0
 23 44  1  0
 24 45  1  0
 25 46  1  0
 26 47  1  0
M  END
>  <UniqueID>  (16) 
16

>  <SMILES>  (16) 
CCn1c(CN(C(=O)c2ccccc2)c2ccccn2)nc2ccccc21

>  <Energy>  (16) 
93.96977730298778

>  <Genealogy>  (16) 
CCn1c(CN(C(=O)c2ccccc2)c2ccccn2)nc2ccccc21 (3D coordinates assigned)
CCn1c(CN(C(=O)c2ccccc2)c2ccccn2)nc2ccccc21 (optimized conformer: 93.96977730298778 kcal/mol)

>  <smiles>  (16) 
CCn1c(CN(C(=O)c2ccccc2)c2ccccn2)nc2ccccc21

>  <score_type>  (16) 
oracle

>  <origin>  (16) 
adg

>  <m_score__min__energy>  (16) 
-7.9299999999999997

>  <m_primary>  (16) 
energy

$$$$
16:0
     RDKit          3D

 54 56  0  0  0  0  0  0  0  0999 V2000
   62.9730   33.4550   46.7150 C   0  0  0  0  0  0  0  0  0  0  0  0
   63.3950   32.4190   47.6750 N   0  0  0  0  0  0  0  0  0  0  0  0
   64.1530   33.0480   48.7700 C   0  0  0  0  0  0  0  0  0  0  0  0
   62.2290   31.6940   48.2250 C   0  0  0  0  0  0  0  0  0  0  0  0
   61.4270   31.0120   47.1080 C   0  0  0  0  0  0  0  0  0  0  0  0
   60.2130   30.4070   47.6440 N   0  0  0  0  0  0  0  0  0  0  0  0
   60.1580   29.0900   48.2050 C   0  0  0  0  0  0  0  0  0  0  0  0
   60.7340   28.8520   49.3030 O   0  0  0  0  0  0  0  0  0  0  0  0
   59.4410   28.0050   47.4940 C   0  0  0  0  0  0  0  0  0  0  0  0
   59.3950   26.7090   48.0300 C   0  0  0  0  0  0  0  0  0  0  0  0
   58.7000   25.6940   47.3710 C   0  0  0  0  0  0  0  0  0  0  0  0
   58.0440   25.9500   46.1640 C   0  0  0  0  0  0  0  0  0  0  0  0
   57.1620   24.6300   45.3980 Cl  0  0  0  0  0  0  0  0  0  0  0  0
   58.0930   27.2420   45.5950 C   0  0  0  0  0  0  0  0  0  0  0  0
   57.3950   27.5520   44.3670 N   0  0  0  0  0  0  0  0  0  0  0  0
   58.0900   28.6330   43.6520 C   0  0  0  0  0  0  0  0  0  0  0  0
   57.5080   29.9770   43.9860 C   0  0  0  0  0  0  0  0  0  0  0  0
   58.1480   31.1890   43.8550 C   0  0  0  0  0  0  0  0  0  0  0  0
   57.3160   32.1060   44.3770 N   0  0  0  0  0  0  0  0  0  0  0  0
   57.5940   33.5240   44.5680 C   0  0  0  0  0  0  0  0  0  0  0  0
   58.3840   33.7190   45.8330 C   0  0  0  0  0  0  0  0  0  0  0  0
   58.1190   32.9300   46.9620 C   0  0  0  0  0  0  0  0  0  0  0  0
   58.8110   33.1550   48.1580 C   0  0  0  0  0  0  0  0  0  0  0  0
   59.7610   34.1790   48.2350 C   0  0  0  0  0  0  0  0  0  0  0  0
   60.4240   34.4030   49.3980 F   0  0  0  0  0  0  0  0  0  0  0  0
   60.0190   34.9780   47.1180 C   0  0  0  0  0  0  0  0  0  0  0  0
   59.3310   34.7540   45.9210 C   0  0  0  0  0  0  0  0  0  0  0  0
   56.2390   31.4870   44.8320 N   0  0  0  0  0  0  0  0  0  0  0  0
   56.3300   30.1840   44.6090 N   0  0  0  0  0  0  0  0  0  0  0  0
   58.7850   28.2620   46.2770 C   0  0  0  0  0  0  0  0  0  0  0  0
   62.6132   34.3382   47.2632 H   0  0  0  0  0  0  0  0  0  0  0  0
   63.8272   33.7388   46.0827 H   0  0  0  0  0  0  0  0  0  0  0  0
   62.1636   33.0611   46.0827 H   0  0  0  0  0  0  0  0  0  0  0  0
   63.7483   32.7122   49.7362 H   0  0  0  0  0  0  0  0  0  0  0  0
   65.2119   32.7596   48.6958 H   0  0  0  0  0  0  0  0  0  0  0  0
   64.0648   34.1419   48.6958 H   0  0  0  0  0  0  0  0  0  0  0  0
   62.5822   30.9292   48.9324 H   0  0  0  0  0  0  0  0  0  0  0  0
   61.5750   32.4176   48.7336 H   0  0  0  0  0  0  0  0  0  0  0  0
   61.1535   31.7610   46.3502 H   0  0  0  0  0  0  0  0  0  0  0  0
   62.0470   30.2233   46.6569 H   0  0  0  0  0  0  0  0  0  0  0  0
   59.9107   26.4914   48.9769 H   0  0  0  0  0  0  0  0  0  0  0  0
   58.6683   24.6839   47.8054 H   0  0  0  0  0  0  0  0  0  0  0  0
   57.3570   26.6990   43.7590 H   0  0  0  0  0  0  0  0  0  0  0  0
   56.4080   27.8270   44.5750 H   0  0  0  0  0  0  0  0  0  0  0  0
   59.1529   28.6233   43.9353 H   0  0  0  0  0  0  0  0  0  0  0  0
   57.9712   28.4643   42.5715 H   0  0  0  0  0  0  0  0  0  0  0  0
   59.1389   31.3698   43.4129 H   0  0  0  0  0  0  0  0  0  0  0  0
   58.1738   33.9015   43.7128 H   0  0  0  0  0  0  0  0  0  0  0  0
   56.6448   34.0749   44.6423 H   0  0  0  0  0  0  0  0  0  0  0  0
   57.3645   32.1314   46.9075 H   0  0  0  0  0  0  0  0  0  0  0  0
   58.6077   32.5264   49.0375 H   0  0  0  0  0  0  0  0  0  0  0  0
   60.7644   35.7845   47.1802 H   0  0  0  0  0  0  0  0  0  0  0  0
   59.5316   35.3896   45.0459 H   0  0  0  0  0  0  0  0  0  0  0  0
   58.8127   29.2757   45.8508 H   0  0  0  0  0  0  0  0  0  0  0  0
  1  2  1  0
  2  3  1  0
  2  4  1  0
  4  5  1  0
  5  6  1  0
  6  7  1  0
  7  8  2  0
  7  9  1  0
  9 10  2  0
 10 11  1  0
 11 12  2  0
 12 13  1  0
 12 14  1  0
 14 15  1  0
 15 16  1  0
 16 17  1  0
 17 18  2  0
 18 19  1  0
 19 20  1  0
 20 21  1  0
 21 22  2  0
 22 23  1  0
 23 24  2  0
 24 25  1  0
 24 26  1  0
 26 27  2  0
 19 28  1  0
 28 29  2  0
 14 30  2  0
 30  9  1  0
 29 17  1  0
 27 21  1  0
  1 31  1  0
  1 32  1  0
  1 33  1  0
  3 34  1  0
  3 35  1  0
  3 36  1  0
  4 37  1  0
  4 38  1  0
  5 39  1  0
  5 40  1  0
 10 41  1  0
 11 42  1  0
 15 43  1  0
 15 44  1  0
 16 45  1  0
 16 46  1  0
 18 47  1  0
 20 48  1  0
 20 49  1  0
 22 50  1  0
 23 51  1  0
 26 52  1  0
 27 53  1  0
 30 54  1  0
M  CHG  2   6  -1  15   1
M  END
>  <UniqueID>  (17) 
17

>  <SMILES>  (17) 
CN(C)CC[N-]C(=O)c1ccc(Cl)c([NH2+]Cc2cn(Cc3ccc(F)cc3)nn2)c1

>  <Energy>  (17) 
88.85864332695937

>  <Genealogy>  (17) 
CN(C)CC[N-]C(=O)c1ccc(Cl)c([NH2+]Cc2cn(Cc3ccc(F)cc3)nn2)c1 (protonated)
CN(C)CC[N-]C(=O)c1ccc(Cl)c([NH2+]Cc2cn(Cc3ccc(F)cc3)nn2)c1 (3D coordinates assigned)
CN(C)CC[N-]C(=O)c1ccc(Cl)c([NH2+]Cc2cn(Cc3ccc(F)cc3)nn2)c1 (optimized conformer: 88.85864332695937 kcal/mol)

>  <smiles>  (17) 
CN(C)CCNC(=O)c1ccc(Cl)c(NCc2cn(Cc3ccc(F)cc3)nn2)c1

>  <score_type>  (17) 
oracle

>  <origin>  (17) 
adg

>  <m_score__min__energy>  (17) 
-9.9499999999999993

>  <m_primary>  (17) 
energy

$$$$
17:0
     RDKit          3D

 47 49  0  0  0  0  0  0  0  0999 V2000
   56.8150   29.9250   44.4840 C   0  0  0  0  0  0  0  0  0  0  0  0
   57.3810   28.9710   45.5350 C   0  0  0  0  0  0  0  0  0  0  0  0
   58.3270   29.6620   46.4430 N   0  0  0  0  0  0  0  0  0  0  0  0
   59.4450   30.3000   45.6960 C   0  0  0  0  0  0  0  0  0  0  0  0
   60.6240   29.3390   45.5900 C   0  0  0  0  0  0  0  0  0  0  0  0
   58.8280   28.7270   47.4780 C   0  0  0  0  0  0  0  0  0  0  0  0
   59.1880   29.4870   48.7590 C   0  0  0  0  0  0  0  0  0  0  0  0
   58.5180   30.7890   48.7800 N   0  0  0  0  0  0  0  0  0  0  0  0
   58.7040   31.7360   49.8470 C   0  0  0  0  0  0  0  0  0  0  0  0
   58.2130   31.4490   51.1330 C   0  0  0  0  0  0  0  0  0  0  0  0
   58.4430   32.3270   52.1940 C   0  0  0  0  0  0  0  0  0  0  0  0
   59.1570   33.5060   51.9850 C   0  0  0  0  0  0  0  0  0  0  0  0
   59.6240   33.8230   50.7090 C   0  0  0  0  0  0  0  0  0  0  0  0
   59.3860   32.9590   49.6290 C   0  0  0  0  0  0  0  0  0  0  0  0
   59.8840   33.3460   48.2940 C   0  0  0  0  0  0  0  0  0  0  0  0
   61.2340   33.5970   48.0390 C   0  0  0  0  0  0  0  0  0  0  0  0
   61.4150   34.0420   46.4180 S   0  0  0  0  0  0  0  0  0  0  0  0
   59.7850   33.9410   46.0420 C   0  0  0  0  0  0  0  0  0  0  0  0
   59.1650   34.2060   44.8220 C   0  0  0  0  0  0  0  0  0  0  0  0
   57.7700   34.0850   44.7480 C   0  0  0  0  0  0  0  0  0  0  0  0
   57.0260   33.7130   45.8840 C   0  0  0  0  0  0  0  0  0  0  0  0
   57.6730   33.4530   47.1040 C   0  0  0  0  0  0  0  0  0  0  0  0
   59.0690   33.5610   47.1680 C   0  0  0  0  0  0  0  0  0  0  0  0
   56.3152   30.7674   44.9847 H   0  0  0  0  0  0  0  0  0  0  0  0
   57.6336   30.3055   43.8554 H   0  0  0  0  0  0  0  0  0  0  0  0
   56.0887   29.3889   43.8554 H   0  0  0  0  0  0  0  0  0  0  0  0
   56.5511   28.5604   46.1288 H   0  0  0  0  0  0  0  0  0  0  0  0
   57.9253   28.1688   45.0153 H   0  0  0  0  0  0  0  0  0  0  0  0
   59.1015   30.5664   44.6855 H   0  0  0  0  0  0  0  0  0  0  0  0
   59.7663   31.2040   46.2341 H   0  0  0  0  0  0  0  0  0  0  0  0
   60.9634   29.0624   46.5991 H   0  0  0  0  0  0  0  0  0  0  0  0
   60.3121   28.4345   45.0472 H   0  0  0  0  0  0  0  0  0  0  0  0
   61.4470   29.8269   45.0472 H   0  0  0  0  0  0  0  0  0  0  0  0
   58.0476   27.9855   47.7042 H   0  0  0  0  0  0  0  0  0  0  0  0
   59.7295   28.2247   47.0972 H   0  0  0  0  0  0  0  0  0  0  0  0
   58.8678   28.8995   49.6321 H   0  0  0  0  0  0  0  0  0  0  0  0
   60.2764   29.6430   48.7898 H   0  0  0  0  0  0  0  0  0  0  0  0
   58.1420   31.1210   47.8660 H   0  0  0  0  0  0  0  0  0  0  0  0
   57.6425   30.5243   51.3047 H   0  0  0  0  0  0  0  0  0  0  0  0
   58.0600   32.0879   53.1971 H   0  0  0  0  0  0  0  0  0  0  0  0
   59.3523   34.1868   52.8266 H   0  0  0  0  0  0  0  0  0  0  0  0
   60.1827   34.7568   50.5484 H   0  0  0  0  0  0  0  0  0  0  0  0
   62.0483   33.5179   48.7743 H   0  0  0  0  0  0  0  0  0  0  0  0
   59.7540   34.5020   43.9414 H   0  0  0  0  0  0  0  0  0  0  0  0
   57.2538   34.2819   43.7968 H   0  0  0  0  0  0  0  0  0  0  0  0
   55.9316   33.6254   45.8161 H   0  0  0  0  0  0  0  0  0  0  0  0
   57.0931   33.1692   47.9946 H   0  0  0  0  0  0  0  0  0  0  0  0
  1  2  1  0
  2  3  1  0
  3  4  1  0
  4  5  1  0
  3  6  1  0
  6  7  1  0
  7  8  1  0
  8  9  1  0
  9 10  2  0
 10 11  1  0
 11 12  2  0
 12 13  1  0
 13 14  2  0
 14 15  1  0
 15 16  2  0
 16 17  1  0
 17 18  1  0
 18 19  2  0
 19 20  1  0
 20 21  2  0
 21 22  1  0
 22 23  2  0
 14  9  1  0
 23 15  1  0
 23 18  1  0
  1 24  1  0
  1 25  1  0
  1 26  1  0
  2 27  1  0
  2 28  1  0
  4 29  1  0
  4 30  1  0
  5 31  1  0
  5 32  1  0
  5 33  1  0
  6 34  1  0
  6 35  1  0
  7 36  1  0
  7 37  1  0
  8 38  1  0
 10 39  1  0
 11 40  1  0
 12 41  1  0
 13 42  1  0
 16 43  1  0
 19 44  1  0
 20 45  1  0
 21 46  1  0
 22 47  1  0
M  END
>  <UniqueID>  (18) 
18

>  <SMILES>  (18) 
CCN(CC)CCNc1ccccc1-c1csc2ccccc12

>  <Energy>  (18) 
84.99112780304888

>  <Genealogy>  (18) 
CCN(CC)CCNc1ccccc1-c1csc2ccccc12 (3D coordinates assigned)
CCN(CC)CCNc1ccccc1-c1csc2ccccc12 (optimized conformer: 84.99112780304888 kcal/mol)

>  <smiles>  (18) 
CCN(CC)CCNc1ccccc1-c1csc2ccccc12

>  <score_type>  (18) 
oracle

>  <origin>  (18) 
adg

>  <m_score__min__energy>  (18) 
-6.9699999999999998

>  <m_primary>  (18) 
energy

$$$$
18:0
     RDKit          3D

 53 53  0  0  0  0  0  0  0  0999 V2000
   55.0740   25.1340   45.6460 C   0  0  0  0  0  0  0  0  0  0  0  0
   55.3840   26.4810   45.9880 O   0  0  0  0  0  0  0  0  0  0  0  0
   56.6160   27.1110   45.7410 C   0  0  0  0  0  0  0  0  0  0  0  0
   57.8300   26.4600   46.0370 C   0  0  0  0  0  0  0  0  0  0  0  0
   59.0510   27.0870   45.7980 C   0  0  0  0  0  0  0  0  0  0  0  0
   59.0850   28.3650   45.2520 C   0  0  0  0  0  0  0  0  0  0  0  0
   57.8960   29.0310   44.9270 C   0  0  0  0  0  0  0  0  0  0  0  0
   57.9700   30.4270   44.3540 C   0  0  0  0  0  0  0  0  0  0  0  0
   58.7620   31.3580   45.3040 C   0  0  0  0  0  0  0  0  0  0  0  0
   57.9830   31.8540   46.4740 N   0  0  0  0  0  0  0  0  0  0  0  0
   57.8520   33.3420   46.4360 C   0  0  0  0  0  0  0  0  0  0  0  0
   59.1790   34.1400   46.2660 C   0  0  0  0  0  0  0  0  0  0  0  0
   59.5980   34.9280   47.5120 C   0  0  0  0  0  0  0  0  0  0  0  0
   59.2080   35.0250   45.0120 C   0  0  0  0  0  0  0  0  0  0  0  0
   58.5530   31.3460   47.7600 C   0  0  0  0  0  0  0  0  0  0  0  0
   59.8840   30.5700   47.5680 C   0  0  0  0  0  0  0  0  0  0  0  0
   59.9370   29.3650   48.5170 C   0  0  0  0  0  0  0  0  0  0  0  0
   61.1040   31.4730   47.8010 C   0  0  0  0  0  0  0  0  0  0  0  0
   56.6470   28.4190   45.1880 C   0  0  0  0  0  0  0  0  0  0  0  0
   55.4880   29.1580   44.8750 O   0  0  0  0  0  0  0  0  0  0  0  0
   55.1560   29.7330   43.6160 C   0  0  0  0  0  0  0  0  0  0  0  0
   54.9383   24.5444   46.5647 H   0  0  0  0  0  0  0  0  0  0  0  0
   54.1468   25.1099   45.0546 H   0  0  0  0  0  0  0  0  0  0  0  0
   55.8974   24.7071   45.0546 H   0  0  0  0  0  0  0  0  0  0  0  0
   57.8136   25.4454   46.4615 H   0  0  0  0  0  0  0  0  0  0  0  0
   59.9905   26.5695   46.0420 H   0  0  0  0  0  0  0  0  0  0  0  0
   60.0526   28.8570   45.0738 H   0  0  0  0  0  0  0  0  0  0  0  0
   58.4744   30.3917   43.3771 H   0  0  0  0  0  0  0  0  0  0  0  0
   56.9492   30.8200   44.2378 H   0  0  0  0  0  0  0  0  0  0  0  0
   59.6333   30.8028   45.6817 H   0  0  0  0  0  0  0  0  0  0  0  0
   59.0395   32.2442   44.7143 H   0  0  0  0  0  0  0  0  0  0  0  0
   57.0290   31.4500   46.3380 H   0  0  0  0  0  0  0  0  0  0  0  0
   57.1935   33.6005   45.5937 H   0  0  0  0  0  0  0  0  0  0  0  0
   57.4566   33.6302   47.4212 H   0  0  0  0  0  0  0  0  0  0  0  0
   59.9374   33.3561   46.1234 H   0  0  0  0  0  0  0  0  0  0  0  0
   59.3024   34.3721   48.4140 H   0  0  0  0  0  0  0  0  0  0  0  0
   60.6892   35.0671   47.5081 H   0  0  0  0  0  0  0  0  0  0  0  0
   59.1031   35.9104   47.5081 H   0  0  0  0  0  0  0  0  0  0  0  0
   59.2427   36.0831   45.3107 H   0  0  0  0  0  0  0  0  0  0  0  0
   60.0987   34.7836   44.4134 H   0  0  0  0  0  0  0  0  0  0  0  0
   58.3034   34.8424   44.4134 H   0  0  0  0  0  0  0  0  0  0  0  0
   58.7394   32.2031   48.4238 H   0  0  0  0  0  0  0  0  0  0  0  0
   57.8223   30.6453   48.1902 H   0  0  0  0  0  0  0  0  0  0  0  0
   59.9169   30.2173   46.5266 H   0  0  0  0  0  0  0  0  0  0  0  0
   59.9215   29.7178   49.5588 H   0  0  0  0  0  0  0  0  0  0  0  0
   59.0665   28.7173   48.3362 H   0  0  0  0  0  0  0  0  0  0  0  0
   60.8610   28.7962   48.3362 H   0  0  0  0  0  0  0  0  0  0  0  0
   61.2688   31.5950   48.8817 H   0  0  0  0  0  0  0  0  0  0  0  0
   61.9929   31.0135   47.3441 H   0  0  0  0  0  0  0  0  0  0  0  0
   60.9242   32.4573   47.3441 H   0  0  0  0  0  0  0  0  0  0  0  0
   54.6118   30.6755   43.7755 H   0  0  0  0  0  0  0  0  0  0  0  0
   56.0776   29.9330   43.0498 H   0  0  0  0  0  0  0  0  0  0  0  0
   54.5220   29.0348   43.0498 H   0  0  0  0  0  0  0  0  0  0  0  0
  1  2  1  0
  2  3  1  0
  3  4  2  0
  4  5  1  0
  5  6  2  0
  6  7  1  0
  7  8  1  0
  8  9  1  0
  9 10  1  0
 10 11  1  0
 11 12  1  0
 12 13  1  0
 12 14  1  0
 10 15  1  0
 15 16  1  0
 16 17  1  0
 16 18  1  0
  7 19  2  0
 19 20  1  0
 20 21  1  0
 19  3  1  0
  1 22  1  0
  1 23  1  0
  1 24  1  0
  4 25  1  0
  5 26  1  0
  6 27  1  0
  8 28  1  0
  8 29  1  0
  9 30  1  0
  9 31  1  0
 10 32  1  0
 11 33  1  0
 11 34  1  0
 12 35  1  0
 13 36  1  0
 13 37  1  0
 13 38  1  0
 14 39  1  0
 14 40  1  0
 14 41  1  0
 15 42  1  0
 15 43  1  0
 16 44  1  0
 17 45  1  0
 17 46  1  0
 17 47  1  0
 18 48  1  0
 18 49  1  0
 18 50  1  0
 21 51  1  0
 21 52  1  0
 21 53  1  0
M  CHG  1  10   1
M  END
>  <UniqueID>  (19) 
19

>  <SMILES>  (19) 
COc1cccc(CC[NH+](CC(C)C)CC(C)C)c1OC

>  <Energy>  (19) 
53.76285444371498

>  <Genealogy>  (19) 
COc1cccc(CC[NH+](CC(C)C)CC(C)C)c1OC (protonated)
COc1cccc(CC[NH+](CC(C)C)CC(C)C)c1OC (3D coordinates assigned)
COc1cccc(CC[NH+](CC(C)C)CC(C)C)c1OC (optimized conformer: 53.76285444371498 kcal/mol)

>  <smiles>  (19) 
COc1cccc(CCN(CC(C)C)CC(C)C)c1OC

>  <score_type>  (19) 
oracle

>  <origin>  (19) 
adg

>  <m_score__min__energy>  (19) 
-5.7699999999999996

>  <m_primary>  (19) 
energy

$$$$
19:0
     RDKit          3D

 44 46  0  0  0  0  0  0  0  0999 V2000
   58.5250   29.4660   48.7830 O   0  0  0  0  0  0  0  0  0  0  0  0
   59.3610   30.4100   48.8060 C   0  0  0  0  0  0  0  0  0  0  0  0
   59.3030   31.4090   49.9200 C   0  0  0  0  0  0  0  0  0  0  0  0
   59.6920   32.7940   49.4050 C   0  0  0  0  0  0  0  0  0  0  0  0
   61.0020   32.7450   48.6630 C   0  0  0  0  0  0  0  0  0  0  0  0
   61.8720   33.8450   48.7170 C   0  0  0  0  0  0  0  0  0  0  0  0
   63.0710   33.8300   48.0040 C   0  0  0  0  0  0  0  0  0  0  0  0
   63.4050   32.7240   47.2260 C   0  0  0  0  0  0  0  0  0  0  0  0
   62.5400   31.6300   47.1470 C   0  0  0  0  0  0  0  0  0  0  0  0
   61.3170   31.6270   47.8550 C   0  0  0  0  0  0  0  0  0  0  0  0
   60.3970   30.5020   47.8030 N   0  0  0  0  0  0  0  0  0  0  0  0
   60.4780   29.4600   46.7650 C   0  0  0  0  0  0  0  0  0  0  0  0
   59.6300   29.8220   45.5410 C   0  0  0  0  0  0  0  0  0  0  0  0
   58.3230   30.3570   45.9550 N   0  0  0  0  0  0  0  0  0  0  0  0
   57.3260   30.3590   44.8700 C   0  0  0  0  0  0  0  0  0  0  0  0
   57.0420   31.7680   44.3150 C   0  0  0  0  0  0  0  0  0  0  0  0
   57.8010   32.8360   45.0610 C   0  0  0  0  0  0  0  0  0  0  0  0
   57.4390   33.1840   46.3730 C   0  0  0  0  0  0  0  0  0  0  0  0
   58.1580   34.1620   47.0680 C   0  0  0  0  0  0  0  0  0  0  0  0
   59.2430   34.7980   46.4580 C   0  0  0  0  0  0  0  0  0  0  0  0
   59.6120   34.4550   45.1550 C   0  0  0  0  0  0  0  0  0  0  0  0
   58.8960   33.4770   44.4570 C   0  0  0  0  0  0  0  0  0  0  0  0
   58.2803   31.4450   50.3234 H   0  0  0  0  0  0  0  0  0  0  0  0
   60.0069   31.1082   50.7100 H   0  0  0  0  0  0  0  0  0  0  0  0
   58.9073   33.1589   48.7260 H   0  0  0  0  0  0  0  0  0  0  0  0
   59.8015   33.4702   50.2657 H   0  0  0  0  0  0  0  0  0  0  0  0
   61.6072   34.7231   49.3244 H   0  0  0  0  0  0  0  0  0  0  0  0
   63.7527   34.6917   48.0562 H   0  0  0  0  0  0  0  0  0  0  0  0
   64.3547   32.7120   46.6710 H   0  0  0  0  0  0  0  0  0  0  0  0
   62.8134   30.7628   46.5279 H   0  0  0  0  0  0  0  0  0  0  0  0
   61.5267   29.3467   46.4529 H   0  0  0  0  0  0  0  0  0  0  0  0
   60.0924   28.5204   47.1873 H   0  0  0  0  0  0  0  0  0  0  0  0
   60.1593   30.5812   44.9465 H   0  0  0  0  0  0  0  0  0  0  0  0
   59.4673   28.9140   44.9417 H   0  0  0  0  0  0  0  0  0  0  0  0
   57.9630   29.8240   46.7790 H   0  0  0  0  0  0  0  0  0  0  0  0
   57.6993   29.7281   44.0499 H   0  0  0  0  0  0  0  0  0  0  0  0
   56.3841   29.9745   45.2883 H   0  0  0  0  0  0  0  0  0  0  0  0
   57.3369   31.7979   43.2557 H   0  0  0  0  0  0  0  0  0  0  0  0
   55.9674   31.9692   44.4364 H   0  0  0  0  0  0  0  0  0  0  0  0
   56.5860   32.6850   46.8561 H   0  0  0  0  0  0  0  0  0  0  0  0
   57.8695   34.4307   48.0949 H   0  0  0  0  0  0  0  0  0  0  0  0
   59.8065   35.5689   47.0041 H   0  0  0  0  0  0  0  0  0  0  0  0
   60.4673   34.9550   44.6770 H   0  0  0  0  0  0  0  0  0  0  0  0
   59.1910   33.2087   43.4318 H   0  0  0  0  0  0  0  0  0  0  0  0
  1  2  2  0
  2  3  1  0
  3  4  1  0
  4  5  1  0
  5  6  2  0
  6  7  1  0
  7  8  2  0
  8  9  1  0
  9 10  2  0
 10 11  1  0
 11 12  1  0
 12 13  1  0
 13 14  1  0
 14 15  1  0
 15 16  1  0
 16 17  1  0
 17 18  2  0
 18 19  1  0
 19 20  2  0
 20 21  1  0
 21 22  2  0
 11  2  1  0
 22 17  1  0
 10  5  1  0
  3 23  1  0
  3 24  1  0
  4 25  1  0
  4 26  1  0
  6 27  1  0
  7 28  1  0
  8 29  1  0
  9 30  1  0
 12 31  1  0
 12 32  1  0
 13 33  1  0
 13 34  1  0
 14 35  1  0
 15 36  1  0
 15 37  1  0
 16 38  1  0
 16 39  1  0
 18 40  1  0
 19 41  1  0
 20 42  1  0
 21 43  1  0
 22 44  1  0
M  END
>  <UniqueID>  (20) 
20

>  <SMILES>  (20) 
O=C1CCc2ccccc2N1CCNCCc1ccccc1

>  <Energy>  (20) 
46.39909646136831

>  <Genealogy>  (20) 
O=C1CCc2ccccc2N1CCNCCc1ccccc1 (3D coordinates assigned)
O=C1CCc2ccccc2N1CCNCCc1ccccc1 (nonaromatic ring conformer: 46.39909646136831 kcal/mol)

>  <smiles>  (20) 
O=C1CCc2ccccc2N1CCNCCc1ccccc1

>  <score_type>  (20) 
oracle

>  <origin>  (20) 
adg

>  <m_score__min__energy>  (20) 
-7.2999999999999998

>  <m_primary>  (20) 
energy

$$$$
20:0
     RDKit          3D

 33 36  0  0  0  0  0  0  0  0999 V2000
   56.6890   34.2010   45.2480 C   0  0  0  0  0  0  0  0  0  0  0  0
   58.0390   33.9750   45.8600 C   0  0  0  0  0  0  0  0  0  0  0  0
   59.1130   34.8140   45.5330 C   0  0  0  0  0  0  0  0  0  0  0  0
   60.3620   34.6280   46.1310 C   0  0  0  0  0  0  0  0  0  0  0  0
   60.5600   33.6000   47.0730 C   0  0  0  0  0  0  0  0  0  0  0  0
   61.8940   33.4220   47.7020 C   0  0  0  0  0  0  0  0  0  0  0  0
   62.1410   33.8160   49.0390 C   0  0  0  0  0  0  0  0  0  0  0  0
   63.4200   33.6000   49.5290 C   0  0  0  0  0  0  0  0  0  0  0  0
   64.3910   33.0250   48.7550 C   0  0  0  0  0  0  0  0  0  0  0  0
   64.1340   32.6480   47.4810 N   0  0  0  0  0  0  0  0  0  0  0  0
   62.9090   32.8440   46.9760 N   0  0  0  0  0  0  0  0  0  0  0  0
   65.5320   32.9000   49.4020 O   0  0  0  0  0  0  0  0  0  0  0  0
   65.3170   33.3920   50.6070 C   0  0  0  0  0  0  0  0  0  0  0  0
   66.2240   33.4820   51.6600 C   0  0  0  0  0  0  0  0  0  0  0  0
   65.7760   34.0450   52.8700 C   0  0  0  0  0  0  0  0  0  0  0  0
   64.4450   34.5020   53.0010 C   0  0  0  0  0  0  0  0  0  0  0  0
   63.5440   34.4020   51.9240 C   0  0  0  0  0  0  0  0  0  0  0  0
   64.0170   33.8410   50.7410 C   0  0  0  0  0  0  0  0  0  0  0  0
   59.4690   32.7800   47.4180 C   0  0  0  0  0  0  0  0  0  0  0  0
   58.2200   32.9690   46.8190 C   0  0  0  0  0  0  0  0  0  0  0  0
   55.9414   34.3262   46.0451 H   0  0  0  0  0  0  0  0  0  0  0  0
   56.7159   35.1071   44.6250 H   0  0  0  0  0  0  0  0  0  0  0  0
   56.4193   33.3355   44.6250 H   0  0  0  0  0  0  0  0  0  0  0  0
   58.9718   35.6234   44.8016 H   0  0  0  0  0  0  0  0  0  0  0  0
   61.1983   35.2906   45.8636 H   0  0  0  0  0  0  0  0  0  0  0  0
   61.3556   34.2719   49.6597 H   0  0  0  0  0  0  0  0  0  0  0  0
   64.8780   32.2060   46.8960 H   0  0  0  0  0  0  0  0  0  0  0  0
   67.2583   33.1243   51.5497 H   0  0  0  0  0  0  0  0  0  0  0  0
   66.4679   34.1300   53.7209 H   0  0  0  0  0  0  0  0  0  0  0  0
   64.1102   34.9397   53.9530 H   0  0  0  0  0  0  0  0  0  0  0  0
   62.5056   34.7538   52.0138 H   0  0  0  0  0  0  0  0  0  0  0  0
   59.6004   31.9836   48.1654 H   0  0  0  0  0  0  0  0  0  0  0  0
   57.3746   32.3246   47.1019 H   0  0  0  0  0  0  0  0  0  0  0  0
  1  2  1  0
  2  3  2  0
  3  4  1  0
  4  5  2  0
  5  6  1  0
  6  7  2  0
  7  8  1  0
  8  9  2  0
  9 10  1  0
 10 11  2  0
  9 12  1  0
 12 13  1  0
 13 14  2  0
 14 15  1  0
 15 16  2  0
 16 17  1  0
 17 18  2  0
  5 19  1  0
 19 20  2  0
 20  2  1  0
 11  6  1  0
 18 13  1  0
 18  8  1  0
  1 21  1  0
  1 22  1  0
  1 23  1  0
  3 24  1  0
  4 25  1  0
  7 26  1  0
 10 27  1  0
 14 28  1  0
 15 29  1  0
 16 30  1  0
 17 31  1  0
 19 32  1  0
 20 33  1  0
M  CHG  1  10   1
M  END
>  <UniqueID>  (21) 
21

>  <SMILES>  (21) 
Cc1ccc(-c2cc3c([nH+]n2)oc2ccccc23)cc1

>  <Energy>  (21) 
84.86048234942432

>  <Genealogy>  (21) 
Cc1ccc(-c2cc3c([nH+]n2)oc2ccccc23)cc1 (protonated)
Cc1ccc(-c2cc3c([nH+]n2)oc2ccccc23)cc1 (3D coordinates assigned)
Cc1ccc(-c2cc3c([nH+]n2)oc2ccccc23)cc1 (optimized conformer: 84.86048234942432 kcal/mol)

>  <smiles>  (21) 
Cc1ccc(-c2cc3c(nn2)oc2ccccc23)cc1

>  <score_type>  (21) 
oracle

>  <origin>  (21) 
adg

>  <m_score__min__energy>  (21) 
-6.21

>  <m_primary>  (21) 
energy

$$$$
21:0
     RDKit          3D

 44 46  0  0  0  0  0  0  0  0999 V2000
   57.9200   31.0830   44.0080 C   0  0  0  0  0  0  0  0  0  0  0  0
   57.2130   29.8760   44.5350 C   0  0  0  0  0  0  0  0  0  0  0  0
   55.8720   29.7730   44.6090 N   0  0  0  0  0  0  0  0  0  0  0  0
   55.6060   28.6420   45.1950 O   0  0  0  0  0  0  0  0  0  0  0  0
   56.7060   28.0040   45.5230 C   0  0  0  0  0  0  0  0  0  0  0  0
   56.7230   26.6880   46.2290 C   0  0  0  0  0  0  0  0  0  0  0  0
   57.7930   28.7520   45.1000 C   0  0  0  0  0  0  0  0  0  0  0  0
   59.2640   28.4680   45.3010 C   0  0  0  0  0  0  0  0  0  0  0  0
   59.7590   28.9340   46.6210 N   0  0  2  0  0  0  0  0  0  0  0  0
   58.7860   28.5670   47.6750 C   0  0  0  0  0  0  0  0  0  0  0  0
   59.2570   28.9640   49.0980 C   0  0  0  0  0  0  0  0  0  0  0  0
   60.3120   30.0840   49.1170 C   0  0  0  0  0  0  0  0  0  0  0  0
   60.1460   30.9790   47.9700 N   0  0  0  0  0  0  0  0  0  0  0  0
   60.2510   32.4350   48.1210 C   0  0  0  0  0  0  0  0  0  0  0  0
   59.2990   33.1250   47.1820 C   0  0  0  0  0  0  0  0  0  0  0  0
   59.7890   34.0200   46.2170 C   0  0  0  0  0  0  0  0  0  0  0  0
   58.9120   34.6400   45.3210 C   0  0  0  0  0  0  0  0  0  0  0  0
   57.5420   34.3660   45.3790 C   0  0  0  0  0  0  0  0  0  0  0  0
   56.6940   34.9660   44.5080 F   0  0  0  0  0  0  0  0  0  0  0  0
   57.0480   33.4720   46.3330 C   0  0  0  0  0  0  0  0  0  0  0  0
   57.9220   32.8500   47.2310 C   0  0  0  0  0  0  0  0  0  0  0  0
   59.9700   30.3670   46.6830 C   0  0  0  0  0  0  0  0  0  0  0  0
   60.0290   31.0710   45.6370 O   0  0  0  0  0  0  0  0  0  0  0  0
   58.2782   31.6946   44.8492 H   0  0  0  0  0  0  0  0  0  0  0  0
   58.7760   30.7674   43.3935 H   0  0  0  0  0  0  0  0  0  0  0  0
   57.2260   31.6753   43.3935 H   0  0  0  0  0  0  0  0  0  0  0  0
   56.7208   26.8551   47.3162 H   0  0  0  0  0  0  0  0  0  0  0  0
   55.8323   26.1082   45.9454 H   0  0  0  0  0  0  0  0  0  0  0  0
   57.6284   26.1314   45.9454 H   0  0  0  0  0  0  0  0  0  0  0  0
   59.4269   27.3827   45.2265 H   0  0  0  0  0  0  0  0  0  0  0  0
   59.8187   29.0151   44.5244 H   0  0  0  0  0  0  0  0  0  0  0  0
   60.6650   28.4610   46.8400 H   0  0  0  0  0  0  0  0  0  0  0  0
   57.8337   29.0764   47.4659 H   0  0  0  0  0  0  0  0  0  0  0  0
   58.6782   27.4724   47.6571 H   0  0  0  0  0  0  0  0  0  0  0  0
   58.3812   29.3038   49.6703 H   0  0  0  0  0  0  0  0  0  0  0  0
   59.7298   28.0733   49.5374 H   0  0  0  0  0  0  0  0  0  0  0  0
   60.2041   30.6645   50.0451 H   0  0  0  0  0  0  0  0  0  0  0  0
   61.3108   29.6263   49.0635 H   0  0  0  0  0  0  0  0  0  0  0  0
   60.0042   32.7116   49.1567 H   0  0  0  0  0  0  0  0  0  0  0  0
   61.2787   32.7472   47.8835 H   0  0  0  0  0  0  0  0  0  0  0  0
   60.8667   34.2342   46.1656 H   0  0  0  0  0  0  0  0  0  0  0  0
   59.3003   35.3438   44.5701 H   0  0  0  0  0  0  0  0  0  0  0  0
   55.9701   33.2571   46.3778 H   0  0  0  0  0  0  0  0  0  0  0  0
   57.5300   32.1436   47.9776 H   0  0  0  0  0  0  0  0  0  0  0  0
  1  2  1  0
  2  3  2  0
  3  4  1  0
  4  5  1  0
  5  6  1  0
  5  7  2  0
  7  8  1  0
  8  9  1  0
  9 10  1  0
 10 11  1  0
 11 12  1  0
 12 13  1  0
 13 14  1  0
 14 15  1  0
 15 16  2  0
 16 17  1  0
 17 18  2  0
 18 19  1  0
 18 20  1  0
 20 21  2  0
 13 22  1  0
 22 23  2  0
  7  2  1  0
 22  9  1  0
 21 15  1  0
  1 24  1  0
  1 25  1  0
  1 26  1  0
  6 27  1  0
  6 28  1  0
  6 29  1  0
  8 30  1  0
  8 31  1  0
  9 32  1  1
 10 33  1  0
 10 34  1  0
 11 35  1  0
 11 36  1  0
 12 37  1  0
 12 38  1  0
 14 39  1  0
 14 40  1  0
 16 41  1  0
 17 42  1  0
 20 43  1  0
 21 44  1  0
M  CHG  1   9   1
M  END
>  <UniqueID>  (22) 
22

>  <SMILES>  (22) 
Cc1noc(C)c1C[N@@H+]1CCCN(Cc2ccc(F)cc2)C1=O

>  <Energy>  (22) 
79.87139257134515

>  <Genealogy>  (22) 
Cc1noc(C)c1C[NH+]1CCCN(Cc2ccc(F)cc2)C1=O (protonated)
Cc1noc(C)c1C[N@@H+]1CCCN(Cc2ccc(F)cc2)C1=O (chirality)
Cc1noc(C)c1C[N@@H+]1CCCN(Cc2ccc(F)cc2)C1=O (3D coordinates assigned)
Cc1noc(C)c1C[N@@H+]1CCCN(Cc2ccc(F)cc2)C1=O (nonaromatic ring conformer: 79.87139257134515 kcal/mol)

>  <smiles>  (22) 
Cc1noc(C)c1CN1CCCN(Cc2ccc(F)cc2)C1=O

>  <score_type>  (22) 
oracle

>  <origin>  (22) 
adg

>  <m_score__min__energy>  (22) 
-6.6200000000000001

>  <m_primary>  (22) 
energy

$$$$
22:0
     RDKit          3D

 42 44  0  0  0  0  0  0  0  0999 V2000
   56.5330   30.0370   43.4100 C   0  0  0  0  0  0  0  0  0  0  0  0
   56.4710   30.7250   44.6540 O   0  0  0  0  0  0  0  0  0  0  0  0
   57.3760   31.7210   45.0540 C   0  0  0  0  0  0  0  0  0  0  0  0
   58.2720   31.4290   46.0890 C   0  0  0  0  0  0  0  0  0  0  0  0
   59.1930   32.3870   46.5230 C   0  0  0  0  0  0  0  0  0  0  0  0
   59.2240   33.6590   45.9290 C   0  0  0  0  0  0  0  0  0  0  0  0
   60.2420   34.6810   46.3730 C   0  0  0  0  0  0  0  0  0  0  0  0
   61.4660   34.1110   47.0820 C   0  0  0  0  0  0  0  0  0  0  0  0
   62.6590   33.8320   46.3790 C   0  0  0  0  0  0  0  0  0  0  0  0
   63.7420   33.3250   47.0190 N   0  0  0  0  0  0  0  0  0  0  0  0
   63.7360   33.0640   48.3480 C   0  0  0  0  0  0  0  0  0  0  0  0
   62.5910   33.3140   49.1090 C   0  0  0  0  0  0  0  0  0  0  0  0
   62.5870   33.0430   50.4840 C   0  0  0  0  0  0  0  0  0  0  0  0
   61.4420   33.2900   51.2580 C   0  0  0  0  0  0  0  0  0  0  0  0
   61.4050   33.0290   52.6380 O   0  0  0  0  0  0  0  0  0  0  0  0
   62.4500   32.3970   53.3700 C   0  0  0  0  0  0  0  0  0  0  0  0
   60.2940   33.8130   50.6520 C   0  0  0  0  0  0  0  0  0  0  0  0
   59.1670   34.0480   51.4580 O   0  0  0  0  0  0  0  0  0  0  0  0
   58.3740   33.0280   52.0590 C   0  0  0  0  0  0  0  0  0  0  0  0
   60.2940   34.0870   49.2700 C   0  0  0  0  0  0  0  0  0  0  0  0
   61.4380   33.8430   48.4790 C   0  0  0  0  0  0  0  0  0  0  0  0
   58.3320   33.9520   44.8850 C   0  0  0  0  0  0  0  0  0  0  0  0
   57.4120   32.9930   44.4510 C   0  0  0  0  0  0  0  0  0  0  0  0
   56.6304   28.9567   43.5929 H   0  0  0  0  0  0  0  0  0  0  0  0
   55.6138   30.2306   42.8377 H   0  0  0  0  0  0  0  0  0  0  0  0
   57.4028   30.3918   42.8377 H   0  0  0  0  0  0  0  0  0  0  0  0
   58.2513   30.4375   46.5648 H   0  0  0  0  0  0  0  0  0  0  0  0
   59.8962   32.1434   47.3330 H   0  0  0  0  0  0  0  0  0  0  0  0
   60.5876   35.2265   45.4825 H   0  0  0  0  0  0  0  0  0  0  0  0
   59.7325   35.3204   47.1089 H   0  0  0  0  0  0  0  0  0  0  0  0
   62.7104   34.0286   45.2979 H   0  0  0  0  0  0  0  0  0  0  0  0
   64.6356   32.6538   48.8300 H   0  0  0  0  0  0  0  0  0  0  0  0
   63.4893   32.6330   50.9612 H   0  0  0  0  0  0  0  0  0  0  0  0
   62.2629   32.5102   54.4480 H   0  0  0  0  0  0  0  0  0  0  0  0
   62.4824   31.3278   53.1137 H   0  0  0  0  0  0  0  0  0  0  0  0
   63.4120   32.8648   53.1137 H   0  0  0  0  0  0  0  0  0  0  0  0
   58.4384   33.1109   53.1540 H   0  0  0  0  0  0  0  0  0  0  0  0
   57.3266   33.1441   51.7435 H   0  0  0  0  0  0  0  0  0  0  0  0
   58.7448   32.0416   51.7435 H   0  0  0  0  0  0  0  0  0  0  0  0
   59.3883   34.4976   48.7997 H   0  0  0  0  0  0  0  0  0  0  0  0
   58.3572   34.9418   44.4058 H   0  0  0  0  0  0  0  0  0  0  0  0
   56.7138   33.2329   43.6356 H   0  0  0  0  0  0  0  0  0  0  0  0
  1  2  1  0
  2  3  1  0
  3  4  2  0
  4  5  1  0
  5  6  2  0
  6  7  1  0
  7  8  1  0
  8  9  2  0
  9 10  1  0
 10 11  2  0
 11 12  1  0
 12 13  2  0
 13 14  1  0
 14 15  1  0
 15 16  1  0
 14 17  2  0
 17 18  1  0
 18 19  1  0
 17 20  1  0
 20 21  2  0
  6 22  1  0
 22 23  2  0
 23  3  1  0
 21  8  1  0
 21 12  1  0
  1 24  1  0
  1 25  1  0
  1 26  1  0
  4 27  1  0
  5 28  1  0
  7 29  1  0
  7 30  1  0
  9 31  1  0
 11 32  1  0
 13 33  1  0
 16 34  1  0
 16 35  1  0
 16 36  1  0
 19 37  1  0
 19 38  1  0
 19 39  1  0
 20 40  1  0
 22 41  1  0
 23 42  1  0
M  END
>  <UniqueID>  (23) 
23

>  <SMILES>  (23) 
COc1ccc(Cc2cncc3cc(OC)c(OC)cc23)cc1

>  <Energy>  (23) 
51.6694768947196

>  <Genealogy>  (23) 
COc1ccc(Cc2cncc3cc(OC)c(OC)cc23)cc1 (3D coordinates assigned)
COc1ccc(Cc2cncc3cc(OC)c(OC)cc23)cc1 (optimized conformer: 51.6694768947196 kcal/mol)

>  <smiles>  (23) 
COc1ccc(Cc2cncc3cc(OC)c(OC)cc23)cc1

>  <score_type>  (23) 
oracle

>  <origin>  (23) 
adg

>  <m_score__min__energy>  (23) 
-6.8899999999999997

>  <m_primary>  (23) 
energy

$$$$
23:0
     RDKit          3D

 41 41  0  0  0  0  0  0  0  0999 V2000
   58.9770   21.9470   44.1640 C   0  0  0  0  0  0  0  0  0  0  0  0
   57.7520   22.4570   44.6770 O   0  0  0  0  0  0  0  0  0  0  0  0
   56.6740   22.7950   43.8530 C   0  0  0  0  0  0  0  0  0  0  0  0
   56.2250   21.9710   43.0080 O   0  0  0  0  0  0  0  0  0  0  0  0
   56.0640   24.1600   43.9560 C   0  0  0  0  0  0  0  0  0  0  0  0
   54.8820   24.1810   44.9340 C   0  0  0  0  0  0  0  0  0  0  0  0
   54.7190   25.5430   45.6220 C   0  0  0  0  0  0  0  0  0  0  0  0
   56.0240   26.1700   45.8290 N   0  0  0  0  0  0  0  0  0  0  0  0
   56.9710   25.6840   46.7890 C   0  0  0  0  0  0  0  0  0  0  0  0
   56.7210   24.6490   47.4650 O   0  0  0  0  0  0  0  0  0  0  0  0
   58.2910   26.3740   46.9580 C   0  0  0  0  0  0  0  0  0  0  0  0
   58.4110   27.5480   45.9860 C   0  0  0  0  0  0  0  0  0  0  0  0
   57.3890   28.5540   46.2800 N   0  0  0  0  0  0  0  0  0  0  0  0
   56.7430   29.2410   44.8170 S   0  0  0  0  0  0  0  0  0  0  0  0
   57.1090   28.3960   43.6310 O   0  0  0  0  0  0  0  0  0  0  0  0
   55.2440   29.3160   44.9300 O   0  0  0  0  0  0  0  0  0  0  0  0
   57.4080   30.8580   44.5970 C   0  0  0  0  0  0  0  0  0  0  0  0
   57.9010   31.5760   45.6970 C   0  0  0  0  0  0  0  0  0  0  0  0
   58.4200   32.8630   45.5230 C   0  0  0  0  0  0  0  0  0  0  0  0
   58.4460   33.4410   44.2500 C   0  0  0  0  0  0  0  0  0  0  0  0
   57.9520   32.7330   43.1510 C   0  0  0  0  0  0  0  0  0  0  0  0
   57.4320   31.4460   43.3200 C   0  0  0  0  0  0  0  0  0  0  0  0
   56.9470   30.7790   42.2420 F   0  0  0  0  0  0  0  0  0  0  0  0
   59.6380   21.6718   44.9991 H   0  0  0  0  0  0  0  0  0  0  0  0
   58.7749   21.0583   43.5481 H   0  0  0  0  0  0  0  0  0  0  0  0
   59.4653   22.7166   43.5481 H   0  0  0  0  0  0  0  0  0  0  0  0
   56.8299   24.8672   44.3072 H   0  0  0  0  0  0  0  0  0  0  0  0
   55.6910   24.4449   42.9611 H   0  0  0  0  0  0  0  0  0  0  0  0
   53.9600   23.9523   44.3794 H   0  0  0  0  0  0  0  0  0  0  0  0
   55.0780   23.4312   45.7146 H   0  0  0  0  0  0  0  0  0  0  0  0
   54.0994   26.1962   44.9901 H   0  0  0  0  0  0  0  0  0  0  0  0
   54.2365   25.3933   46.5991 H   0  0  0  0  0  0  0  0  0  0  0  0
   56.2940   26.9700   45.2120 H   0  0  0  0  0  0  0  0  0  0  0  0
   58.3744   26.7480   47.9891 H   0  0  0  0  0  0  0  0  0  0  0  0
   59.0970   25.6554   46.7484 H   0  0  0  0  0  0  0  0  0  0  0  0
   59.4077   28.0024   46.0864 H   0  0  0  0  0  0  0  0  0  0  0  0
   58.2677   27.1801   44.9593 H   0  0  0  0  0  0  0  0  0  0  0  0
   57.8792   31.1250   46.7000 H   0  0  0  0  0  0  0  0  0  0  0  0
   58.8080   33.4209   46.3880 H   0  0  0  0  0  0  0  0  0  0  0  0
   58.8553   34.4529   44.1136 H   0  0  0  0  0  0  0  0  0  0  0  0
   57.9723   33.1894   42.1503 H   0  0  0  0  0  0  0  0  0  0  0  0
  1  2  1  0
  2  3  1  0
  3  4  2  0
  3  5  1  0
  5  6  1  0
  6  7  1  0
  7  8  1  0
  8  9  1  0
  9 10  2  0
  9 11  1  0
 11 12  1  0
 12 13  1  0
 13 14  1  0
 14 15  2  0
 14 16  2  0
 14 17  1  0
 17 18  2  0
 18 19  1  0
 19 20  2  0
 20 21  1  0
 21 22  2  0
 22 23  1  0
 22 17  1  0
  1 24  1  0
  1 25  1  0
  1 26  1  0
  5 27  1  0
  5 28  1  0
  6 29  1  0
  6 30  1  0
  7 31  1  0
  7 32  1  0
  8 33  1  0
 11 34  1  0
 11 35  1  0
 12 36  1  0
 12 37  1  0
 18 38  1  0
 19 39  1  0
 20 40  1  0
 21 41  1  0
M  CHG  1  13  -1
M  END
>  <UniqueID>  (24) 
24

>  <SMILES>  (24) 
COC(=O)CCCNC(=O)CC[N-]S(=O)(=O)c1ccccc1F

>  <Energy>  (24) 
26.513598263616814

>  <Genealogy>  (24) 
COC(=O)CCCNC(=O)CC[N-]S(=O)(=O)c1ccccc1F (protonated)
COC(=O)CCCNC(=O)CC[N-]S(=O)(=O)c1ccccc1F (3D coordinates assigned)
COC(=O)CCCNC(=O)CC[N-]S(=O)(=O)c1ccccc1F (optimized conformer: 26.513598263616814 kcal/mol)

>  <smiles>  (24) 
COC(=O)CCCNC(=O)CCNS(=O)(=O)c1ccccc1F

>  <score_type>  (24) 
oracle

>  <origin>  (24) 
adg

>  <m_score__min__energy>  (24) 
-8.9100000000000001

>  <m_primary>  (24) 
energy

$$$$
24:0
     RDKit          3D

 65 68  0  0  0  0  0  0  0  0999 V2000
   63.7460   33.2040   47.0540 C   0  0  0  0  0  0  0  0  0  0  0  0
   62.9670   34.1800   47.7390 O   0  0  0  0  0  0  0  0  0  0  0  0
   62.1890   33.9250   48.8800 C   0  0  0  0  0  0  0  0  0  0  0  0
   62.7860   33.6840   50.1350 C   0  0  0  0  0  0  0  0  0  0  0  0
   61.9970   33.4670   51.2650 C   0  0  0  0  0  0  0  0  0  0  0  0
   60.6070   33.4820   51.1610 C   0  0  0  0  0  0  0  0  0  0  0  0
   60.0010   33.7120   49.9250 C   0  0  0  0  0  0  0  0  0  0  0  0
   60.7770   33.9300   48.7730 C   0  0  0  0  0  0  0  0  0  0  0  0
   60.1220   34.1880   47.5120 N   0  0  0  0  0  0  0  0  0  0  0  0
   58.9100   35.0110   47.4290 C   0  0  0  0  0  0  0  0  0  0  0  0
   57.7960   34.1990   46.7550 C   0  0  0  0  0  0  0  0  0  0  0  0
   58.2950   33.4480   45.5870 N   0  0  0  0  0  0  0  0  0  0  0  0
   57.3830   32.5360   44.9230 C   0  0  0  0  0  0  0  0  0  0  0  0
   56.1790   32.5040   45.3010 O   0  0  0  0  0  0  0  0  0  0  0  0
   57.8290   31.5930   43.8140 C   0  0  2  0  0  0  0  0  0  0  0  0
   56.6670   30.8300   43.1350 C   0  0  0  0  0  0  0  0  0  0  0  0
   56.0250   29.7450   44.0180 C   0  0  0  0  0  0  0  0  0  0  0  0
   57.0300   28.9850   44.8370 C   0  0  0  0  0  0  0  0  0  0  0  0
   56.7350   27.8290   45.2470 O   0  0  0  0  0  0  0  0  0  0  0  0
   58.2730   29.5990   45.2240 N   0  0  0  0  0  0  0  0  0  0  0  0
   58.9310   29.2370   46.4970 C   0  0  0  0  0  0  0  0  0  0  0  0
   59.5740   30.4970   47.1260 C   0  0  0  0  0  0  0  0  0  0  0  0
   60.3870   30.2210   48.4020 C   0  0  0  0  0  0  0  0  0  0  0  0
   59.7670   29.2070   49.3740 C   0  0  0  0  0  0  0  0  0  0  0  0
   59.8570   27.7470   48.8980 C   0  0  0  0  0  0  0  0  0  0  0  0
   60.6080   27.5150   47.5610 C   0  0  0  0  0  0  0  0  0  0  0  0
   59.8900   28.0220   46.2940 C   0  0  0  0  0  0  0  0  0  0  0  0
   58.8750   30.5830   44.3150 C   0  0  0  0  0  0  0  0  0  0  0  0
   59.6650   33.7160   45.1120 C   0  0  0  0  0  0  0  0  0  0  0  0
   60.6610   33.5980   46.2760 C   0  0  0  0  0  0  0  0  0  0  0  0
   64.2577   32.5629   47.7869 H   0  0  0  0  0  0  0  0  0  0  0  0
   63.0890   32.5874   46.4230 H   0  0  0  0  0  0  0  0  0  0  0  0
   64.4929   33.7079   46.4230 H   0  0  0  0  0  0  0  0  0  0  0  0
   63.8823   33.6670   50.2235 H   0  0  0  0  0  0  0  0  0  0  0  0
   62.4727   33.2837   52.2398 H   0  0  0  0  0  0  0  0  0  0  0  0
   59.9872   33.3124   52.0538 H   0  0  0  0  0  0  0  0  0  0  0  0
   58.9035   33.7229   49.8513 H   0  0  0  0  0  0  0  0  0  0  0  0
   58.5926   35.3022   48.4412 H   0  0  0  0  0  0  0  0  0  0  0  0
   59.1168   35.9163   46.8394 H   0  0  0  0  0  0  0  0  0  0  0  0
   57.3821   33.4879   47.4851 H   0  0  0  0  0  0  0  0  0  0  0  0
   57.0246   34.9012   46.4058 H   0  0  0  0  0  0  0  0  0  0  0  0
   58.2787   32.2486   43.0537 H   0  0  0  0  0  0  0  0  0  0  0  0
   55.8889   31.5580   42.8621 H   0  0  0  0  0  0  0  0  0  0  0  0
   57.0938   30.3156   42.2613 H   0  0  0  0  0  0  0  0  0  0  0  0
   55.3088   30.2264   44.7001 H   0  0  0  0  0  0  0  0  0  0  0  0
   55.5329   29.0241   43.3486 H   0  0  0  0  0  0  0  0  0  0  0  0
   58.1948   28.8836   47.2340 H   0  0  0  0  0  0  0  0  0  0  0  0
   60.2447   30.9502   46.3811 H   0  0  0  0  0  0  0  0  0  0  0  0
   58.7471   31.1619   47.4162 H   0  0  0  0  0  0  0  0  0  0  0  0
   61.3739   29.8408   48.0995 H   0  0  0  0  0  0  0  0  0  0  0  0
   60.4277   31.1758   48.9467 H   0  0  0  0  0  0  0  0  0  0  0  0
   60.2892   29.2889   50.3387 H   0  0  0  0  0  0  0  0  0  0  0  0
   58.6971   29.4516   49.4488 H   0  0  0  0  0  0  0  0  0  0  0  0
   60.3730   27.1692   49.6790 H   0  0  0  0  0  0  0  0  0  0  0  0
   58.8198   27.4291   48.7156 H   0  0  0  0  0  0  0  0  0  0  0  0
   61.5798   28.0262   47.6261 H   0  0  0  0  0  0  0  0  0  0  0  0
   60.6848   26.4238   47.4457 H   0  0  0  0  0  0  0  0  0  0  0  0
   60.6594   28.3173   45.5654 H   0  0  0  0  0  0  0  0  0  0  0  0
   59.2523   27.1907   45.9590 H   0  0  0  0  0  0  0  0  0  0  0  0
   59.6697   31.1249   44.8487 H   0  0  0  0  0  0  0  0  0  0  0  0
   59.2854   30.0478   43.4460 H   0  0  0  0  0  0  0  0  0  0  0  0
   59.9288   32.9863   44.3323 H   0  0  0  0  0  0  0  0  0  0  0  0
   59.7104   34.7357   44.7018 H   0  0  0  0  0  0  0  0  0  0  0  0
   60.8784   32.5344   46.4534 H   0  0  0  0  0  0  0  0  0  0  0  0
   61.5752   34.1456   46.0035 H   0  0  0  0  0  0  0  0  0  0  0  0
  1  2  1  0
  2  3  1  0
  3  4  2  0
  4  5  1  0
  5  6  2  0
  6  7  1  0
  7  8  2  0
  8  9  1  0
  9 10  1  0
 10 11  1  0
 11 12  1  0
 12 13  1  0
 13 14  2  0
 13 15  1  0
 15 16  1  0
 16 17  1  0
 17 18  1  0
 18 19  2  0
 18 20  1  0
 20 21  1  0
 21 22  1  0
 22 23  1  0
 23 24  1  0
 24 25  1  0
 25 26  1  0
 26 27  1  0
 20 28  1  0
 12 29  1  0
 29 30  1  0
  8  3  1  0
 30  9  1  0
 28 15  1  0
 27 21  1  0
  1 31  1  0
  1 32  1  0
  1 33  1  0
  4 34  1  0
  5 35  1  0
  6 36  1  0
  7 37  1  0
 10 38  1  0
 10 39  1  0
 11 40  1  0
 11 41  1  0
 15 42  1  6
 16 43  1  0
 16 44  1  0
 17 45  1  0
 17 46  1  0
 21 47  1  0
 22 48  1  0
 22 49  1  0
 23 50  1  0
 23 51  1  0
 24 52  1  0
 24 53  1  0
 25 54  1  0
 25 55  1  0
 26 56  1  0
 26 57  1  0
 27 58  1  0
 27 59  1  0
 28 60  1  0
 28 61  1  0
 29 62  1  0
 29 63  1  0
 30 64  1  0
 30 65  1  0
M  END
>  <UniqueID>  (25) 
25

>  <SMILES>  (25) 
COc1ccccc1N1CCN(C(=O)[C@@H]2CCC(=O)N(C3CCCCCC3)C2)CC1

>  <Energy>  (25) 
77.5730166050534

>  <Genealogy>  (25) 
COc1ccccc1N1CCN(C(=O)[C@@H]2CCC(=O)N(C3CCCCCC3)C2)CC1 (chirality)
COc1ccccc1N1CCN(C(=O)[C@@H]2CCC(=O)N(C3CCCCCC3)C2)CC1 (3D coordinates assigned)
COc1ccccc1N1CCN(C(=O)[C@@H]2CCC(=O)N(C3CCCCCC3)C2)CC1 (nonaromatic ring conformer: 77.5730166050534 kcal/mol)

>  <smiles>  (25) 
COc1ccccc1N1CCN(C(=O)C2CCC(=O)N(C3CCCCCC3)C2)CC1

>  <score_type>  (25) 
oracle

>  <origin>  (25) 
adg

>  <m_score__min__energy>  (25) 
-7.1100000000000003

>  <m_primary>  (25) 
energy

$$$$
25:0
     RDKit          3D

 39 42  0  0  0  0  0  0  0  0999 V2000
   58.5220   34.1810   45.3800 C   0  0  0  0  0  0  0  0  0  0  0  0
   58.1770   32.9040   44.6820 C   0  0  0  0  0  0  0  0  0  0  0  0
   58.2570   31.6810   45.3620 C   0  0  0  0  0  0  0  0  0  0  0  0
   57.9130   30.4880   44.6990 C   0  0  0  0  0  0  0  0  0  0  0  0
   57.9790   29.1720   45.3840 C   0  0  0  0  0  0  0  0  0  0  0  0
   58.3820   29.0560   46.7280 C   0  0  0  0  0  0  0  0  0  0  0  0
   58.4340   27.7980   47.3310 C   0  0  0  0  0  0  0  0  0  0  0  0
   58.0900   26.6600   46.5950 C   0  0  0  0  0  0  0  0  0  0  0  0
   58.1340   25.3810   47.1570 C   0  0  0  0  0  0  0  0  0  0  0  0
   57.7870   24.2730   46.3830 C   0  0  0  0  0  0  0  0  0  0  0  0
   57.3900   24.4500   45.0470 C   0  0  0  0  0  0  0  0  0  0  0  0
   57.0330   23.2870   44.2030 C   0  0  0  0  0  0  0  0  0  0  0  0
   57.9080   22.3070   43.7770 C   0  0  0  0  0  0  0  0  0  0  0  0
   57.1590   21.4300   43.0190 C   0  0  0  0  0  0  0  0  0  0  0  0
   55.9130   21.8410   42.9640 O   0  0  0  0  0  0  0  0  0  0  0  0
   55.8020   22.9550   43.6530 C   0  0  0  0  0  0  0  0  0  0  0  0
   54.5160   23.7080   43.7780 C   0  0  0  0  0  0  0  0  0  0  0  0
   57.3710   25.7080   44.5130 N   0  0  0  0  0  0  0  0  0  0  0  0
   57.7030   26.8040   45.2490 C   0  0  0  0  0  0  0  0  0  0  0  0
   57.6610   28.0430   44.6880 N   0  0  0  0  0  0  0  0  0  0  0  0
   57.4730   30.5620   43.3660 C   0  0  0  0  0  0  0  0  0  0  0  0
   57.4020   31.8010   42.7270 C   0  0  0  0  0  0  0  0  0  0  0  0
   57.7500   32.9330   43.3900 N   0  0  0  0  0  0  0  0  0  0  0  0
   58.4803   34.0268   46.4683 H   0  0  0  0  0  0  0  0  0  0  0  0
   59.5368   34.4934   45.0925 H   0  0  0  0  0  0  0  0  0  0  0  0
   57.8026   34.9619   45.0925 H   0  0  0  0  0  0  0  0  0  0  0  0
   58.5877   31.6536   46.4108 H   0  0  0  0  0  0  0  0  0  0  0  0
   58.6551   29.9541   47.3014 H   0  0  0  0  0  0  0  0  0  0  0  0
   58.7446   27.7023   48.3819 H   0  0  0  0  0  0  0  0  0  0  0  0
   58.4409   25.2484   48.2050 H   0  0  0  0  0  0  0  0  0  0  0  0
   57.8242   23.2633   46.8179 H   0  0  0  0  0  0  0  0  0  0  0  0
   58.9836   22.2392   43.9972 H   0  0  0  0  0  0  0  0  0  0  0  0
   57.5476   20.5226   42.5336 H   0  0  0  0  0  0  0  0  0  0  0  0
   54.2755   23.8488   44.8421 H   0  0  0  0  0  0  0  0  0  0  0  0
   54.6171   24.6896   43.2919 H   0  0  0  0  0  0  0  0  0  0  0  0
   53.7095   23.1395   43.2919 H   0  0  0  0  0  0  0  0  0  0  0  0
   57.0780   25.8430   43.5180 H   0  0  0  0  0  0  0  0  0  0  0  0
   57.1856   29.6465   42.8282 H   0  0  0  0  0  0  0  0  0  0  0  0
   57.0628   31.8601   41.6823 H   0  0  0  0  0  0  0  0  0  0  0  0
  1  2  1  0
  2  3  2  0
  3  4  1  0
  4  5  1  0
  5  6  2  0
  6  7  1  0
  7  8  2  0
  8  9  1  0
  9 10  2  0
 10 11  1  0
 11 12  1  0
 12 13  1  0
 13 14  2  0
 14 15  1  0
 15 16  1  0
 16 17  1  0
 11 18  2  0
 18 19  1  0
 19 20  2  0
  4 21  2  0
 21 22  1  0
 22 23  2  0
 23  2  1  0
 20  5  1  0
 19  8  1  0
 16 12  2  0
  1 24  1  0
  1 25  1  0
  1 26  1  0
  3 27  1  0
  6 28  1  0
  7 29  1  0
  9 30  1  0
 10 31  1  0
 13 32  1  0
 14 33  1  0
 17 34  1  0
 17 35  1  0
 17 36  1  0
 18 37  1  0
 21 38  1  0
 22 39  1  0
M  CHG  1  18   1
M  END
>  <UniqueID>  (26) 
26

>  <SMILES>  (26) 
Cc1cc(-c2ccc3ccc(-c4ccoc4C)[nH+]c3n2)ccn1

>  <Energy>  (26) 
79.75534583759962

>  <Genealogy>  (26) 
Cc1cc(-c2ccc3ccc(-c4ccoc4C)[nH+]c3n2)ccn1 (protonated)
Cc1cc(-c2ccc3ccc(-c4ccoc4C)[nH+]c3n2)ccn1 (3D coordinates assigned)
Cc1cc(-c2ccc3ccc(-c4ccoc4C)[nH+]c3n2)ccn1 (optimized conformer: 79.75534583759962 kcal/mol)

>  <smiles>  (26) 
Cc1cc(-c2ccc3ccc(-c4ccoc4C)nc3n2)ccn1

>  <score_type>  (26) 
oracle

>  <origin>  (26) 
adg

>  <m_score__min__energy>  (26) 
-6.5499999999999998

>  <m_primary>  (26) 
energy

$$$$
26:0
     RDKit          3D

 42 46  0  0  0  0  0  0  0  0999 V2000
   58.5820   29.4610   49.8210 C   0  0  0  0  0  0  0  0  0  0  0  0
   58.1690   29.4160   48.4600 O   0  0  0  0  0  0  0  0  0  0  0  0
   58.9890   29.0210   47.3890 C   0  0  0  0  0  0  0  0  0  0  0  0
   59.9600   28.0110   47.5380 C   0  0  0  0  0  0  0  0  0  0  0  0
   60.7510   27.6220   46.4570 C   0  0  0  0  0  0  0  0  0  0  0  0
   60.5800   28.2250   45.2130 C   0  0  0  0  0  0  0  0  0  0  0  0
   59.6250   29.2280   45.0460 C   0  0  0  0  0  0  0  0  0  0  0  0
   58.8320   29.6520   46.1320 C   0  0  0  0  0  0  0  0  0  0  0  0
   57.7790   30.7310   45.9220 C   0  0  2  0  0  0  0  0  0  0  0  0
   56.9940   30.4020   44.6860 C   0  0  0  0  0  0  0  0  0  0  0  0
   57.0610   31.1190   43.5380 C   0  0  0  0  0  0  0  0  0  0  0  0
   56.2680   30.4990   42.5960 C   0  0  0  0  0  0  0  0  0  0  0  0
   55.7370   29.4260   43.1490 O   0  0  0  0  0  0  0  0  0  0  0  0
   56.1580   29.3450   44.3950 C   0  0  0  0  0  0  0  0  0  0  0  0
   55.8040   28.3270   45.2710 O   0  0  0  0  0  0  0  0  0  0  0  0
   57.8180   32.3130   43.4220 N   0  0  0  0  0  0  0  0  0  0  0  0
   58.4680   32.8360   44.5950 C   0  0  0  0  0  0  0  0  0  0  0  0
   59.1240   34.0670   44.5050 C   0  0  0  0  0  0  0  0  0  0  0  0
   59.7360   34.6300   45.6170 C   0  0  0  0  0  0  0  0  0  0  0  0
   59.6980   33.9790   46.8540 C   0  0  0  0  0  0  0  0  0  0  0  0
   60.3160   34.5710   47.9670 C   0  0  0  0  0  0  0  0  0  0  0  0
   60.2840   33.9400   49.2090 C   0  0  0  0  0  0  0  0  0  0  0  0
   59.6350   32.7160   49.3530 C   0  0  0  0  0  0  0  0  0  0  0  0
   59.0170   32.1120   48.2570 C   0  0  0  0  0  0  0  0  0  0  0  0
   59.0400   32.7250   46.9830 C   0  0  0  0  0  0  0  0  0  0  0  0
   58.4270   32.1310   45.8390 C   0  0  0  0  0  0  0  0  0  0  0  0
   57.7023   29.3652   50.4745 H   0  0  0  0  0  0  0  0  0  0  0  0
   59.2787   28.6335   50.0203 H   0  0  0  0  0  0  0  0  0  0  0  0
   59.0842   30.4192   50.0203 H   0  0  0  0  0  0  0  0  0  0  0  0
   60.0955   27.5250   48.5154 H   0  0  0  0  0  0  0  0  0  0  0  0
   61.5112   26.8377   46.5871 H   0  0  0  0  0  0  0  0  0  0  0  0
   61.1994   27.9096   44.3605 H   0  0  0  0  0  0  0  0  0  0  0  0
   59.4894   29.6924   44.0581 H   0  0  0  0  0  0  0  0  0  0  0  0
   57.0944   30.7565   46.7826 H   0  0  0  0  0  0  0  0  0  0  0  0
   56.1063   30.8400   41.5628 H   0  0  0  0  0  0  0  0  0  0  0  0
   57.8500   32.8240   42.5100 H   0  0  0  0  0  0  0  0  0  0  0  0
   59.1558   34.5963   43.5413 H   0  0  0  0  0  0  0  0  0  0  0  0
   60.2547   35.5956   45.5241 H   0  0  0  0  0  0  0  0  0  0  0  0
   60.8283   35.5383   47.8580 H   0  0  0  0  0  0  0  0  0  0  0  0
   60.7717   34.4089   50.0764 H   0  0  0  0  0  0  0  0  0  0  0  0
   59.6094   32.2227   50.3359 H   0  0  0  0  0  0  0  0  0  0  0  0
   58.5055   31.1467   48.3859 H   0  0  0  0  0  0  0  0  0  0  0  0
  1  2  1  0
  2  3  1  0
  3  4  2  0
  4  5  1  0
  5  6  2  0
  6  7  1  0
  7  8  2  0
  8  9  1  0
  9 10  1  0
 10 11  1  0
 11 12  2  0
 12 13  1  0
 13 14  1  0
 14 15  1  0
 11 16  1  0
 16 17  1  0
 17 18  2  0
 18 19  1  0
 19 20  2  0
 20 21  1  0
 21 22  2  0
 22 23  1  0
 23 24  2  0
 24 25  1  0
 25 26  2  0
  8  3  1  0
 26  9  1  0
 14 10  2  0
 26 17  1  0
 25 20  1  0
  1 27  1  0
  1 28  1  0
  1 29  1  0
  4 30  1  0
  5 31  1  0
  6 32  1  0
  7 33  1  0
  9 34  1  1
 12 35  1  0
 16 36  1  0
 18 37  1  0
 19 38  1  0
 21 39  1  0
 22 40  1  0
 23 41  1  0
 24 42  1  0
M  CHG  1  15  -1
M  END
>  <UniqueID>  (27) 
27

>  <SMILES>  (27) 
COc1ccccc1[C@@H]1c2c(coc2[O-])Nc2ccc3ccccc3c21

>  <Energy>  (27) 
88.76070236756163

>  <Genealogy>  (27) 
COc1ccccc1C1c2c(coc2[O-])Nc2ccc3ccccc3c21 (protonated)
COc1ccccc1[C@@H]1c2c(coc2[O-])Nc2ccc3ccccc3c21 (chirality)
COc1ccccc1[C@@H]1c2c(coc2[O-])Nc2ccc3ccccc3c21 (3D coordinates assigned)
COc1ccccc1[C@@H]1c2c(coc2[O-])Nc2ccc3ccccc3c21 (nonaromatic ring conformer: 88.76070236756163 kcal/mol)

>  <smiles>  (27) 
COc1ccccc1C1c2c(coc2O)Nc2ccc3ccccc3c21

>  <score_type>  (27) 
oracle

>  <origin>  (27) 
adg

>  <m_score__min__energy>  (27) 
-10.31

>  <m_primary>  (27) 
energy

$$$$
27:0
     RDKit          3D

 65 68  0  0  0  0  0  0  0  0999 V2000
   63.9450   31.5820   49.8900 C   0  0  0  0  0  0  0  0  0  0  0  0
   63.8370   31.1680   51.3130 N   0  0  0  0  0  0  0  0  0  0  0  0
   65.0460   30.3680   51.6350 C   0  0  0  0  0  0  0  0  0  0  0  0
   62.6150   30.3220   51.5270 C   0  0  0  0  0  0  0  0  0  0  0  0
   61.4640   31.0480   52.2580 C   0  0  0  0  0  0  0  0  0  0  0  0
   61.3210   32.4370   51.7770 N   0  0  0  0  0  0  0  0  0  0  0  0
   60.1520   33.1180   52.3940 C   0  0  0  0  0  0  0  0  0  0  0  0
   58.9540   33.3430   51.4430 C   0  0  0  0  0  0  0  0  0  0  0  0
   58.5700   32.0960   50.6340 C   0  0  0  0  0  0  0  0  0  0  0  0
   59.4620   31.9260   49.5320 O   0  0  0  0  0  0  0  0  0  0  0  0
   59.2100   31.1610   48.3780 C   0  0  0  0  0  0  0  0  0  0  0  0
   59.7700   29.8810   48.1960 C   0  0  0  0  0  0  0  0  0  0  0  0
   59.5200   29.1540   47.0320 C   0  0  0  0  0  0  0  0  0  0  0  0
   58.7160   29.6940   46.0190 C   0  0  0  0  0  0  0  0  0  0  0  0
   58.4560   28.9990   44.8250 C   0  0  0  0  0  0  0  0  0  0  0  0
   58.9340   27.8500   44.6210 O   0  0  0  0  0  0  0  0  0  0  0  0
   57.6560   29.5930   43.8490 C   0  0  0  0  0  0  0  0  0  0  0  0
   57.1340   30.8650   44.0840 C   0  0  0  0  0  0  0  0  0  0  0  0
   57.3930   31.5010   45.2210 O   0  0  0  0  0  0  0  0  0  0  0  0
   58.1480   30.9780   46.1870 C   0  0  0  0  0  0  0  0  0  0  0  0
   58.3810   31.7050   47.3740 C   0  0  0  0  0  0  0  0  0  0  0  0
   57.7960   33.0900   47.5430 C   0  0  0  0  0  0  0  0  0  0  0  0
   58.6420   34.1250   46.7930 C   0  0  0  0  0  0  0  0  0  0  0  0
   60.0780   34.0550   47.2350 C   0  0  0  0  0  0  0  0  0  0  0  0
   61.0650   33.5680   46.3610 C   0  0  0  0  0  0  0  0  0  0  0  0
   62.3950   33.4740   46.7830 C   0  0  0  0  0  0  0  0  0  0  0  0
   62.7460   33.8550   48.0820 C   0  0  0  0  0  0  0  0  0  0  0  0
   61.7660   34.3270   48.9610 C   0  0  0  0  0  0  0  0  0  0  0  0
   60.4360   34.4220   48.5430 C   0  0  0  0  0  0  0  0  0  0  0  0
   62.5540   33.2280   52.0420 C   0  0  0  0  0  0  0  0  0  0  0  0
   63.8320   32.3690   52.1910 C   0  0  0  0  0  0  0  0  0  0  0  0
   64.2223   32.6452   49.8375 H   0  0  0  0  0  0  0  0  0  0  0  0
   64.7154   30.9769   49.3896 H   0  0  0  0  0  0  0  0  0  0  0  0
   62.9772   31.4304   49.3896 H   0  0  0  0  0  0  0  0  0  0  0  0
   65.1570   30.2946   52.7269 H   0  0  0  0  0  0  0  0  0  0  0  0
   64.9426   29.3594   51.2083 H   0  0  0  0  0  0  0  0  0  0  0  0
   65.9339   30.8574   51.2083 H   0  0  0  0  0  0  0  0  0  0  0  0
   62.2465   29.9929   50.5442 H   0  0  0  0  0  0  0  0  0  0  0  0
   62.9193   29.4830   52.1701 H   0  0  0  0  0  0  0  0  0  0  0  0
   60.5243   30.5061   52.0756 H   0  0  0  0  0  0  0  0  0  0  0  0
   61.6937   31.0726   53.3335 H   0  0  0  0  0  0  0  0  0  0  0  0
   61.1760   32.4140   50.7430 H   0  0  0  0  0  0  0  0  0  0  0  0
   59.8067   32.5053   53.2398 H   0  0  0  0  0  0  0  0  0  0  0  0
   60.4999   34.1174   52.6942 H   0  0  0  0  0  0  0  0  0  0  0  0
   58.0851   33.6488   52.0443 H   0  0  0  0  0  0  0  0  0  0  0  0
   59.2555   34.1162   50.7210 H   0  0  0  0  0  0  0  0  0  0  0  0
   58.6241   31.2106   51.2845 H   0  0  0  0  0  0  0  0  0  0  0  0
   57.5466   32.2197   50.2501 H   0  0  0  0  0  0  0  0  0  0  0  0
   60.4108   29.4506   48.9797 H   0  0  0  0  0  0  0  0  0  0  0  0
   59.9561   28.1517   46.9086 H   0  0  0  0  0  0  0  0  0  0  0  0
   57.4399   29.0662   42.9079 H   0  0  0  0  0  0  0  0  0  0  0  0
   56.5029   31.3452   43.3217 H   0  0  0  0  0  0  0  0  0  0  0  0
   56.7714   33.1015   47.1430 H   0  0  0  0  0  0  0  0  0  0  0  0
   57.7881   33.3448   48.6130 H   0  0  0  0  0  0  0  0  0  0  0  0
   58.5859   33.9238   45.7130 H   0  0  0  0  0  0  0  0  0  0  0  0
   58.2515   35.1294   47.0135 H   0  0  0  0  0  0  0  0  0  0  0  0
   60.7904   33.2597   45.3414 H   0  0  0  0  0  0  0  0  0  0  0  0
   63.1655   33.1001   46.0927 H   0  0  0  0  0  0  0  0  0  0  0  0
   63.7928   33.7834   48.4123 H   0  0  0  0  0  0  0  0  0  0  0  0
   62.0427   34.6240   49.9834 H   0  0  0  0  0  0  0  0  0  0  0  0
   59.6668   34.7853   49.2404 H   0  0  0  0  0  0  0  0  0  0  0  0
   62.7027   33.9274   51.2061 H   0  0  0  0  0  0  0  0  0  0  0  0
   62.4022   33.7424   53.0024 H   0  0  0  0  0  0  0  0  0  0  0  0
   64.7029   32.9912   51.9372 H   0  0  0  0  0  0  0  0  0  0  0  0
   63.8672   32.0133   53.2313 H   0  0  0  0  0  0  0  0  0  0  0  0
  1  2  1  0
  2  3  1  0
  2  4  1  0
  4  5  1  0
  5  6  1  0
  6  7  1  0
  7  8  1  0
  8  9  1  0
  9 10  1  0
 10 11  1  0
 11 12  2  0
 12 13  1  0
 13 14  2  0
 14 15  1  0
 15 16  2  0
 15 17  1  0
 17 18  2  0
 18 19  1  0
 19 20  1  0
 20 21  2  0
 21 22  1  0
 22 23  1  0
 23 24  1  0
 24 25  2  0
 25 26  1  0
 26 27  2  0
 27 28  1  0
 28 29  2  0
  6 30  1  0
 30 31  1  0
 31  2  1  0
 21 11  1  0
 29 24  1  0
 20 14  1  0
  1 32  1  0
  1 33  1  0
  1 34  1  0
  3 35  1  0
  3 36  1  0
  3 37  1  0
  4 38  1  0
  4 39  1  0
  5 40  1  0
  5 41  1  0
  6 42  1  0
  7 43  1  0
  7 44  1  0
  8 45  1  0
  8 46  1  0
  9 47  1  0
  9 48  1  0
 12 49  1  0
 13 50  1  0
 17 51  1  0
 18 52  1  0
 22 53  1  0
 22 54  1  0
 23 55  1  0
 23 56  1  0
 25 57  1  0
 26 58  1  0
 27 59  1  0
 28 60  1  0
 29 61  1  0
 30 62  1  0
 30 63  1  0
 31 64  1  0
 31 65  1  0
M  CHG  2   2   1   6   1
M  END
>  <UniqueID>  (28) 
28

>  <SMILES>  (28) 
C[N+]1(C)CC[NH+](CCCOc2ccc3c(=O)ccoc3c2CCc2ccccc2)CC1

>  <Energy>  (28) 
87.82583591649227

>  <Genealogy>  (28) 
C[N+]1(C)CC[NH+](CCCOc2ccc3c(=O)ccoc3c2CCc2ccccc2)CC1 (protonated)
C[N+]1(C)CC[NH+](CCCOc2ccc3c(=O)ccoc3c2CCc2ccccc2)CC1 (3D coordinates assigned)
C[N+]1(C)CC[NH+](CCCOc2ccc3c(=O)ccoc3c2CCc2ccccc2)CC1 (nonaromatic ring conformer: 87.82583591649227 kcal/mol)

>  <smiles>  (28) 
C[N+]1(C)CCN(CCCOc2ccc3c(=O)ccoc3c2CCc2ccccc2)CC1

>  <score_type>  (28) 
oracle

>  <origin>  (28) 
adg

>  <m_score__min__energy>  (28) 
-5.6799999999999997

>  <m_primary>  (28) 
energy

$$$$
28:0
     RDKit          3D

 28 29  0  0  0  0  0  0  0  0999 V2000
   60.1180   21.8380   45.5960 N   0  0  0  0  0  0  0  0  0  0  0  0
   58.7690   22.2420   45.2170 C   0  0  0  0  0  0  0  0  0  0  0  0
   58.6500   23.7020   45.2790 C   0  0  0  0  0  0  0  0  0  0  0  0
   58.5530   24.9010   45.3320 C   0  0  0  0  0  0  0  0  0  0  0  0
   58.4390   26.3350   45.3940 C   0  0  0  0  0  0  0  0  0  0  0  0
   58.1380   27.0660   44.2400 C   0  0  0  0  0  0  0  0  0  0  0  0
   58.0280   28.4590   44.2990 C   0  0  0  0  0  0  0  0  0  0  0  0
   58.2120   29.1410   45.5190 C   0  0  0  0  0  0  0  0  0  0  0  0
   58.1080   30.6200   45.6020 C   0  0  0  0  0  0  0  0  0  0  0  0
   58.9850   31.3810   46.3980 C   0  0  0  0  0  0  0  0  0  0  0  0
   58.8490   32.7710   46.4390 C   0  0  0  0  0  0  0  0  0  0  0  0
   57.8520   33.3940   45.6890 C   0  0  0  0  0  0  0  0  0  0  0  0
   57.0050   32.6160   44.9010 C   0  0  0  0  0  0  0  0  0  0  0  0
   57.1510   31.2640   44.8750 N   0  0  0  0  0  0  0  0  0  0  0  0
   58.5280   28.3950   46.6700 C   0  0  0  0  0  0  0  0  0  0  0  0
   58.6360   27.0030   46.6070 C   0  0  0  0  0  0  0  0  0  0  0  0
   60.7740   22.1990   44.8680 H   0  0  0  0  0  0  0  0  0  0  0  0
   60.1720   20.7940   45.5530 H   0  0  0  0  0  0  0  0  0  0  0  0
   58.5609   21.9022   44.1917 H   0  0  0  0  0  0  0  0  0  0  0  0
   58.0464   21.7897   45.9122 H   0  0  0  0  0  0  0  0  0  0  0  0
   57.9874   26.5439   43.2836 H   0  0  0  0  0  0  0  0  0  0  0  0
   57.7960   29.0271   43.3860 H   0  0  0  0  0  0  0  0  0  0  0  0
   59.7724   30.8844   46.9840 H   0  0  0  0  0  0  0  0  0  0  0  0
   59.5272   33.3728   47.0618 H   0  0  0  0  0  0  0  0  0  0  0  0
   57.7351   34.4874   45.7188 H   0  0  0  0  0  0  0  0  0  0  0  0
   56.2184   33.0957   44.3001 H   0  0  0  0  0  0  0  0  0  0  0  0
   58.6913   28.9119   47.6271 H   0  0  0  0  0  0  0  0  0  0  0  0
   58.8769   26.4305   47.5149 H   0  0  0  0  0  0  0  0  0  0  0  0
  1  2  1  0
  2  3  1  0
  3  4  3  0
  4  5  1  0
  5  6  2  0
  6  7  1  0
  7  8  2  0
  8  9  1  0
  9 10  2  0
 10 11  1  0
 11 12  2  0
 12 13  1  0
 13 14  2  0
  8 15  1  0
 15 16  2  0
 16  5  1  0
 14  9  1  0
  1 17  1  0
  1 18  1  0
  2 19  1  0
  2 20  1  0
  6 21  1  0
  7 22  1  0
 10 23  1  0
 11 24  1  0
 12 25  1  0
 13 26  1  0
 15 27  1  0
 16 28  1  0
M  END
>  <UniqueID>  (29) 
29

>  <SMILES>  (29) 
NCC#Cc1ccc(-c2ccccn2)cc1

>  <Energy>  (29) 
27.09219523486274

>  <Genealogy>  (29) 
NCC#Cc1ccc(-c2ccccn2)cc1 (3D coordinates assigned)
NCC#Cc1ccc(-c2ccccn2)cc1 (optimized conformer: 27.09219523486274 kcal/mol)

>  <smiles>  (29) 
NCC#Cc1ccc(-c2ccccn2)cc1

>  <score_type>  (29) 
oracle

>  <origin>  (29) 
adg

>  <m_score__min__energy>  (29) 
-6.0999999999999996

>  <m_primary>  (29) 
energy

$$$$
29:0
     RDKit          3D

 39 41  0  0  0  0  0  0  0  0999 V2000
   55.4800   30.5010   44.2900 O   0  0  0  0  0  0  0  0  0  0  0  0
   56.9550   30.2990   44.5010 S   0  0  0  0  0  0  0  0  0  0  0  0
   57.6960   30.9890   43.3920 O   0  0  0  0  0  0  0  0  0  0  0  0
   57.4010   30.9640   46.0340 N   0  0  0  0  0  0  0  0  0  0  0  0
   58.4270   31.9510   46.1470 C   0  0  0  0  0  0  0  0  0  0  0  0
   58.1510   33.2900   45.8350 C   0  0  0  0  0  0  0  0  0  0  0  0
   59.1630   34.2520   45.9020 C   0  0  0  0  0  0  0  0  0  0  0  0
   60.4550   33.8820   46.2750 C   0  0  0  0  0  0  0  0  0  0  0  0
   60.7400   32.5500   46.5850 C   0  0  0  0  0  0  0  0  0  0  0  0
   59.7310   31.5770   46.5310 C   0  0  0  0  0  0  0  0  0  0  0  0
   60.0610   30.2050   46.8070 N   0  0  0  0  0  0  0  0  0  0  0  0
   60.7620   29.3880   45.8150 C   0  0  0  0  0  0  0  0  0  0  0  0
   60.3210   27.9280   45.9590 C   0  0  0  0  0  0  0  0  0  0  0  0
   60.4710   27.4900   47.2980 O   0  0  0  0  0  0  0  0  0  0  0  0
   59.5930   28.2120   48.1420 C   0  0  0  0  0  0  0  0  0  0  0  0
   59.9650   29.6960   48.1760 C   0  0  0  0  0  0  0  0  0  0  0  0
   57.3290   28.5790   44.5060 C   0  0  0  0  0  0  0  0  0  0  0  0
   57.8840   27.9640   43.3730 C   0  0  0  0  0  0  0  0  0  0  0  0
   58.1260   26.5870   43.3700 C   0  0  0  0  0  0  0  0  0  0  0  0
   57.8090   25.8180   44.4930 C   0  0  0  0  0  0  0  0  0  0  0  0
   57.2500   26.4250   45.6220 C   0  0  0  0  0  0  0  0  0  0  0  0
   57.0090   27.8020   45.6280 C   0  0  0  0  0  0  0  0  0  0  0  0
   57.1341   33.5845   45.5363 H   0  0  0  0  0  0  0  0  0  0  0  0
   58.9402   35.3017   45.6603 H   0  0  0  0  0  0  0  0  0  0  0  0
   61.2506   34.6400   46.3251 H   0  0  0  0  0  0  0  0  0  0  0  0
   61.7619   32.2624   46.8732 H   0  0  0  0  0  0  0  0  0  0  0  0
   60.5183   29.7475   44.8044 H   0  0  0  0  0  0  0  0  0  0  0  0
   61.8475   29.4628   45.9766 H   0  0  0  0  0  0  0  0  0  0  0  0
   59.2644   27.8392   45.6661 H   0  0  0  0  0  0  0  0  0  0  0  0
   60.9506   27.3023   45.3093 H   0  0  0  0  0  0  0  0  0  0  0  0
   58.5646   28.1071   47.7660 H   0  0  0  0  0  0  0  0  0  0  0  0
   59.6728   27.8064   49.1614 H   0  0  0  0  0  0  0  0  0  0  0  0
   59.1915   30.2558   48.7222 H   0  0  0  0  0  0  0  0  0  0  0  0
   60.9333   29.8204   48.6828 H   0  0  0  0  0  0  0  0  0  0  0  0
   58.1290   28.5664   42.4859 H   0  0  0  0  0  0  0  0  0  0  0  0
   58.5663   26.1084   42.4828 H   0  0  0  0  0  0  0  0  0  0  0  0
   57.9993   24.7346   44.4889 H   0  0  0  0  0  0  0  0  0  0  0  0
   56.9999   25.8190   46.5053 H   0  0  0  0  0  0  0  0  0  0  0  0
   56.5668   28.2773   46.5160 H   0  0  0  0  0  0  0  0  0  0  0  0
  1  2  2  0
  2  3  2  0
  2  4  1  0
  4  5  1  0
  5  6  2  0
  6  7  1  0
  7  8  2  0
  8  9  1  0
  9 10  2  0
 10 11  1  0
 11 12  1  0
 12 13  1  0
 13 14  1  0
 14 15  1  0
 15 16  1  0
  2 17  1  0
 17 18  2  0
 18 19  1  0
 19 20  2  0
 20 21  1  0
 21 22  2  0
 10  5  1  0
 16 11  1  0
 22 17  1  0
  6 23  1  0
  7 24  1  0
  8 25  1  0
  9 26  1  0
 12 27  1  0
 12 28  1  0
 13 29  1  0
 13 30  1  0
 15 31  1  0
 15 32  1  0
 16 33  1  0
 16 34  1  0
 18 35  1  0
 19 36  1  0
 20 37  1  0
 21 38  1  0
 22 39  1  0
M  CHG  1   4  -1
M  END
>  <UniqueID>  (30) 
30

>  <SMILES>  (30) 
O=S(=O)([N-]c1ccccc1N1CCOCC1)c1ccccc1

>  <Energy>  (30) 
53.07032891672385

>  <Genealogy>  (30) 
O=S(=O)([N-]c1ccccc1N1CCOCC1)c1ccccc1 (protonated)
O=S(=O)([N-]c1ccccc1N1CCOCC1)c1ccccc1 (3D coordinates assigned)
O=S(=O)([N-]c1ccccc1N1CCOCC1)c1ccccc1 (nonaromatic ring conformer: 53.07032891672385 kcal/mol)

>  <smiles>  (30) 
O=S(=O)(Nc1ccccc1N1CCOCC1)c1ccccc1

>  <score_type>  (30) 
oracle

>  <origin>  (30) 
adg

>  <m_score__min__energy>  (30) 
-8.8800000000000008

>  <m_primary>  (30) 
energy

$$$$
30:0
     RDKit          3D

 43 45  0  0  0  0  0  0  0  0999 V2000
   57.7360   28.1220   44.1470 C   0  0  0  0  0  0  0  0  0  0  0  0
   56.6960   28.2170   45.2540 C   0  0  0  0  0  0  0  0  0  0  0  0
   55.7020   29.2440   44.9170 N   0  0  0  0  0  0  0  0  0  0  0  0
   55.9160   29.8160   43.5780 C   0  0  0  0  0  0  0  0  0  0  0  0
   56.7790   31.0920   43.5910 C   0  0  0  0  0  0  0  0  0  0  0  0
   56.7080   31.7620   44.8500 O   0  0  0  0  0  0  0  0  0  0  0  0
   57.7450   32.4950   45.4570 C   0  0  0  0  0  0  0  0  0  0  0  0
   57.8310   33.8930   45.3390 C   0  0  0  0  0  0  0  0  0  0  0  0
   58.8750   34.5930   45.9390 C   0  0  0  0  0  0  0  0  0  0  0  0
   59.8470   33.9180   46.6720 C   0  0  0  0  0  0  0  0  0  0  0  0
   59.7870   32.5180   46.8270 C   0  0  0  0  0  0  0  0  0  0  0  0
   60.7640   31.8060   47.5750 C   0  0  0  0  0  0  0  0  0  0  0  0
   61.8580   32.4860   48.3060 C   0  0  0  0  0  0  0  0  0  0  0  0
   61.5850   33.1860   49.4930 C   0  0  0  0  0  0  0  0  0  0  0  0
   62.6130   33.8470   50.1720 C   0  0  0  0  0  0  0  0  0  0  0  0
   63.9160   33.8200   49.6670 C   0  0  0  0  0  0  0  0  0  0  0  0
   64.1930   33.1360   48.4800 C   0  0  0  0  0  0  0  0  0  0  0  0
   63.1670   32.4740   47.7970 C   0  0  0  0  0  0  0  0  0  0  0  0
   60.6920   30.4070   47.6510 C   0  0  0  0  0  0  0  0  0  0  0  0
   59.6590   29.7140   47.0240 C   0  0  0  0  0  0  0  0  0  0  0  0
   58.6820   30.4010   46.3080 C   0  0  0  0  0  0  0  0  0  0  0  0
   58.7320   31.8020   46.1950 C   0  0  0  0  0  0  0  0  0  0  0  0
   58.7378   28.0305   44.5920 H   0  0  0  0  0  0  0  0  0  0  0  0
   57.5292   27.2390   43.5245 H   0  0  0  0  0  0  0  0  0  0  0  0
   57.6926   29.0278   43.5245 H   0  0  0  0  0  0  0  0  0  0  0  0
   56.1930   27.2452   45.3667 H   0  0  0  0  0  0  0  0  0  0  0  0
   57.1933   28.4889   46.1967 H   0  0  0  0  0  0  0  0  0  0  0  0
   55.7360   30.0060   45.6360 H   0  0  0  0  0  0  0  0  0  0  0  0
   56.4166   29.0624   42.9524 H   0  0  0  0  0  0  0  0  0  0  0  0
   54.9286   30.0947   43.1813 H   0  0  0  0  0  0  0  0  0  0  0  0
   57.8253   30.8173   43.3913 H   0  0  0  0  0  0  0  0  0  0  0  0
   56.3970   31.7735   42.8166 H   0  0  0  0  0  0  0  0  0  0  0  0
   57.0664   34.4395   44.7673 H   0  0  0  0  0  0  0  0  0  0  0  0
   58.9318   35.6864   45.8329 H   0  0  0  0  0  0  0  0  0  0  0  0
   60.6699   34.4824   47.1348 H   0  0  0  0  0  0  0  0  0  0  0  0
   60.5593   33.2141   49.8894 H   0  0  0  0  0  0  0  0  0  0  0  0
   62.3961   34.3888   51.1045 H   0  0  0  0  0  0  0  0  0  0  0  0
   64.7243   34.3376   50.2043 H   0  0  0  0  0  0  0  0  0  0  0  0
   65.2185   33.1182   48.0825 H   0  0  0  0  0  0  0  0  0  0  0  0
   63.3861   31.9428   46.8590 H   0  0  0  0  0  0  0  0  0  0  0  0
   61.4588   29.8518   48.2112 H   0  0  0  0  0  0  0  0  0  0  0  0
   59.6148   28.6172   47.0949 H   0  0  0  0  0  0  0  0  0  0  0  0
   57.8647   29.8436   45.8270 H   0  0  0  0  0  0  0  0  0  0  0  0
  1  2  1  0
  2  3  1  0
  3  4  1  0
  4  5  1  0
  5  6  1  0
  6  7  1  0
  7  8  2  0
  8  9  1  0
  9 10  2  0
 10 11  1  0
 11 12  2  0
 12 13  1  0
 13 14  2  0
 14 15  1  0
 15 16  2  0
 16 17  1  0
 17 18  2  0
 12 19  1  0
 19 20  2  0
 20 21  1  0
 21 22  2  0
 22  7  1  0
 22 11  1  0
 18 13  1  0
  1 23  1  0
  1 24  1  0
  1 25  1  0
  2 26  1  0
  2 27  1  0
  3 28  1  0
  4 29  1  0
  4 30  1  0
  5 31  1  0
  5 32  1  0
  8 33  1  0
  9 34  1  0
 10 35  1  0
 14 36  1  0
 15 37  1  0
 16 38  1  0
 17 39  1  0
 18 40  1  0
 19 41  1  0
 20 42  1  0
 21 43  1  0
M  END
>  <UniqueID>  (31) 
31

>  <SMILES>  (31) 
CCNCCOc1cccc2c(-c3ccccc3)cccc12

>  <Energy>  (31) 
54.56603567374029

>  <Genealogy>  (31) 
CCNCCOc1cccc2c(-c3ccccc3)cccc12 (3D coordinates assigned)
CCNCCOc1cccc2c(-c3ccccc3)cccc12 (optimized conformer: 54.56603567374029 kcal/mol)

>  <smiles>  (31) 
CCNCCOc1cccc2c(-c3ccccc3)cccc12

>  <score_type>  (31) 
oracle

>  <origin>  (31) 
adg

>  <m_score__min__energy>  (31) 
-8.0600000000000005

>  <m_primary>  (31) 
energy

$$$$
31:0
     RDKit          3D

 45 48  0  0  0  0  0  0  0  0999 V2000
   56.3030   30.4460   43.9180 C   0  0  0  0  0  0  0  0  0  0  0  0
   56.9350   30.6510   45.1770 O   0  0  0  0  0  0  0  0  0  0  0  0
   58.2770   30.3420   45.4560 C   0  0  0  0  0  0  0  0  0  0  0  0
   58.9530   29.3020   44.7950 C   0  0  0  0  0  0  0  0  0  0  0  0
   60.2690   28.9830   45.1260 C   0  0  0  0  0  0  0  0  0  0  0  0
   60.9580   29.7170   46.0910 C   0  0  0  0  0  0  0  0  0  0  0  0
   60.3550   30.8100   46.7350 C   0  0  0  0  0  0  0  0  0  0  0  0
   58.9510   31.0880   46.4360 C   0  0  0  0  0  0  0  0  0  0  0  0
   58.1420   32.1080   47.3220 C   0  0  0  0  0  0  0  0  0  0  0  0
   59.0960   32.6350   48.4400 C   0  0  1  0  0  0  0  0  0  0  0  0
   59.1690   32.6400   49.9120 N   0  0  0  0  0  0  0  0  0  0  0  0
   57.8960   32.3130   50.5800 C   0  0  0  0  0  0  0  0  0  0  0  0
   60.3410   31.7980   50.3890 C   0  0  0  0  0  0  0  0  0  0  0  0
   61.2050   31.0670   49.2400 C   0  0  0  0  0  0  0  0  0  0  0  0
   61.1890   31.6950   47.7560 C   0  0  1  0  0  0  0  0  0  0  0  0
   62.6460   31.8890   47.2320 C   0  0  0  0  0  0  0  0  0  0  0  0
   63.3450   33.0830   47.8240 C   0  0  0  0  0  0  0  0  0  0  0  0
   64.4700   33.3650   47.4430 O   0  0  0  0  0  0  0  0  0  0  0  0
   62.7070   33.8970   48.9120 C   0  0  0  0  0  0  0  0  0  0  0  0
   61.2220   34.1840   48.6330 C   0  0  0  0  0  0  0  0  0  0  0  0
   60.4650   33.0620   47.8200 C   0  0  2  0  0  0  0  0  0  0  0  0
   60.2510   33.5770   46.5160 O   0  0  0  0  0  0  0  0  0  0  0  0
   55.2678   30.1102   44.0778 H   0  0  0  0  0  0  0  0  0  0  0  0
   56.2993   31.3890   43.3517 H   0  0  0  0  0  0  0  0  0  0  0  0
   56.8536   29.6804   43.3517 H   0  0  0  0  0  0  0  0  0  0  0  0
   58.4375   28.7331   44.0072 H   0  0  0  0  0  0  0  0  0  0  0  0
   60.7692   28.1436   44.6208 H   0  0  0  0  0  0  0  0  0  0  0  0
   61.9890   29.4359   46.3517 H   0  0  0  0  0  0  0  0  0  0  0  0
   57.7935   32.9471   46.7020 H   0  0  0  0  0  0  0  0  0  0  0  0
   57.2646   31.6164   47.7675 H   0  0  0  0  0  0  0  0  0  0  0  0
   58.0785   32.8316   48.8089 H   0  0  0  0  0  0  0  0  0  0  0  0
   58.0345   32.3486   51.6707 H   0  0  0  0  0  0  0  0  0  0  0  0
   57.1284   33.0431   50.2839 H   0  0  0  0  0  0  0  0  0  0  0  0
   57.5753   31.3033   50.2839 H   0  0  0  0  0  0  0  0  0  0  0  0
   61.0195   32.4554   50.9524 H   0  0  0  0  0  0  0  0  0  0  0  0
   59.8981   30.9871   50.9859 H   0  0  0  0  0  0  0  0  0  0  0  0
   62.2519   31.0555   49.5775 H   0  0  0  0  0  0  0  0  0  0  0  0
   60.7254   30.0839   49.1239 H   0  0  0  0  0  0  0  0  0  0  0  0
   63.2271   30.9882   47.4786 H   0  0  0  0  0  0  0  0  0  0  0  0
   62.5788   32.0595   46.1474 H   0  0  0  0  0  0  0  0  0  0  0  0
   62.7884   33.3455   49.8602 H   0  0  0  0  0  0  0  0  0  0  0  0
   63.2323   34.8622   48.9617 H   0  0  0  0  0  0  0  0  0  0  0  0
   60.7113   34.3080   49.5994 H   0  0  0  0  0  0  0  0  0  0  0  0
   61.1968   35.0871   48.0056 H   0  0  0  0  0  0  0  0  0  0  0  0
   60.9350   33.1960   45.9060 H   0  0  0  0  0  0  0  0  0  0  0  0
  1  2  1  0
  2  3  1  0
  3  4  2  0
  4  5  1  0
  5  6  2  0
  6  7  1  0
  7  8  2  0
  8  9  1  0
  9 10  1  0
 10 11  1  0
 11 12  1  0
 11 13  1  0
 13 14  1  0
 15 14  1  1
 15 16  1  0
 16 17  1  0
 17 18  2  0
 17 19  1  0
 19 20  1  0
 20 21  1  0
 21 22  1  6
  8  3  1  0
 21 10  1  0
 15  7  1  0
 21 15  1  0
  1 23  1  0
  1 24  1  0
  1 25  1  0
  4 26  1  0
  5 27  1  0
  6 28  1  0
  9 29  1  0
  9 30  1  0
 10 31  1  1
 12 32  1  0
 12 33  1  0
 12 34  1  0
 13 35  1  0
 13 36  1  0
 14 37  1  0
 14 38  1  0
 16 39  1  0
 16 40  1  0
 19 41  1  0
 19 42  1  0
 20 43  1  0
 20 44  1  0
 22 45  1  0
M  END
>  <UniqueID>  (32) 
32

>  <SMILES>  (32) 
COc1cccc2c1C[C@@H]1N(C)CC[C@@]23CC(=O)CCC13O

>  <Energy>  (32) 
205.5138274692994

>  <Genealogy>  (32) 
COc1cccc2c1C[C@@H]1N(C)CC[C@@]23CC(=O)CCC13O (chirality)
COc1cccc2c1C[C@@H]1N(C)CC[C@@]23CC(=O)CCC13O (3D coordinates assigned)
COc1cccc2c1C[C@@H]1N(C)CC[C@@]23CC(=O)CCC13O (nonaromatic ring conformer: 205.5138274692994 kcal/mol)

>  <smiles>  (32) 
COc1cccc2c1CC1N(C)CCC23CC(=O)CCC13O

>  <score_type>  (32) 
oracle

>  <origin>  (32) 
adg

>  <m_score__min__energy>  (32) 
-6.6799999999999997

>  <m_primary>  (32) 
energy

$$$$
32:0
     RDKit          3D

 41 42  0  0  0  0  0  0  0  0999 V2000
   59.7010   34.4450   48.5840 C   0  0  0  0  0  0  0  0  0  0  0  0
   59.9240   33.9070   47.2300 N   0  0  0  0  0  0  0  0  0  0  0  0
   59.2050   32.6170   47.0400 C   0  0  0  0  0  0  0  0  0  0  0  0
   57.8510   32.8030   46.3350 C   0  0  0  0  0  0  0  0  0  0  0  0
   57.9900   33.4460   45.0010 N   0  0  0  0  0  0  0  0  0  0  0  0
   57.8560   32.4880   43.8790 C   0  0  0  0  0  0  0  0  0  0  0  0
   57.0130   31.2770   44.2960 C   0  0  0  0  0  0  0  0  0  0  0  0
   56.6510   30.3670   43.1150 C   0  0  0  0  0  0  0  0  0  0  0  0
   56.9200   28.9670   43.4440 N   0  0  0  0  0  0  0  0  0  0  0  0
   57.7920   28.5250   44.5060 C   0  0  0  0  0  0  0  0  0  0  0  0
   59.1690   28.8320   44.5130 C   0  0  0  0  0  0  0  0  0  0  0  0
   59.9870   28.3940   45.5590 C   0  0  0  0  0  0  0  0  0  0  0  0
   59.4460   27.6520   46.6100 C   0  0  0  0  0  0  0  0  0  0  0  0
   58.0850   27.3440   46.6180 C   0  0  0  0  0  0  0  0  0  0  0  0
   57.5630   26.6230   47.6420 F   0  0  0  0  0  0  0  0  0  0  0  0
   57.2580   27.7790   45.5750 C   0  0  0  0  0  0  0  0  0  0  0  0
   55.9390   27.4660   45.6030 F   0  0  0  0  0  0  0  0  0  0  0  0
   59.2100   34.2760   44.8720 C   0  0  0  0  0  0  0  0  0  0  0  0
   59.5770   34.9290   46.2090 C   0  0  0  0  0  0  0  0  0  0  0  0
   60.0103   33.6987   49.3306 H   0  0  0  0  0  0  0  0  0  0  0  0
   60.2928   35.3628   48.7159 H   0  0  0  0  0  0  0  0  0  0  0  0
   58.6334   34.6750   48.7159 H   0  0  0  0  0  0  0  0  0  0  0  0
   60.9510   33.7100   47.1470 H   0  0  0  0  0  0  0  0  0  0  0  0
   59.8320   31.9486   46.4316 H   0  0  0  0  0  0  0  0  0  0  0  0
   59.0110   32.1897   48.0349 H   0  0  0  0  0  0  0  0  0  0  0  0
   57.3822   31.8165   46.2045 H   0  0  0  0  0  0  0  0  0  0  0  0
   57.2339   33.4627   46.9627 H   0  0  0  0  0  0  0  0  0  0  0  0
   57.3693   32.9916   43.0308 H   0  0  0  0  0  0  0  0  0  0  0  0
   58.8586   32.1381   43.5919 H   0  0  0  0  0  0  0  0  0  0  0  0
   57.5826   30.6889   45.0306 H   0  0  0  0  0  0  0  0  0  0  0  0
   56.0722   31.6593   44.7189 H   0  0  0  0  0  0  0  0  0  0  0  0
   55.5825   30.4849   42.8817 H   0  0  0  0  0  0  0  0  0  0  0  0
   57.2631   30.6517   42.2465 H   0  0  0  0  0  0  0  0  0  0  0  0
   56.4220   28.2470   42.8740 H   0  0  0  0  0  0  0  0  0  0  0  0
   59.6019   29.4198   43.6902 H   0  0  0  0  0  0  0  0  0  0  0  0
   61.0603   28.6350   45.5535 H   0  0  0  0  0  0  0  0  0  0  0  0
   60.0923   27.3101   47.4318 H   0  0  0  0  0  0  0  0  0  0  0  0
   60.0443   33.6395   44.5421 H   0  0  0  0  0  0  0  0  0  0  0  0
   59.0157   35.0707   44.1367 H   0  0  0  0  0  0  0  0  0  0  0  0
   60.4408   35.5932   46.0585 H   0  0  0  0  0  0  0  0  0  0  0  0
   58.7071   35.4984   46.5684 H   0  0  0  0  0  0  0  0  0  0  0  0
  1  2  1  0
  2  3  1  0
  3  4  1  0
  4  5  1  0
  5  6  1  0
  6  7  1  0
  7  8  1  0
  8  9  1  0
  9 10  1  0
 10 11  2  0
 11 12  1  0
 12 13  2  0
 13 14  1  0
 14 15  1  0
 14 16  2  0
 16 17  1  0
  5 18  1  0
 18 19  1  0
 19  2  1  0
 16 10  1  0
  1 20  1  0
  1 21  1  0
  1 22  1  0
  2 23  1  0
  3 24  1  0
  3 25  1  0
  4 26  1  0
  4 27  1  0
  6 28  1  0
  6 29  1  0
  7 30  1  0
  7 31  1  0
  8 32  1  0
  8 33  1  0
  9 34  1  0
 11 35  1  0
 12 36  1  0
 13 37  1  0
 18 38  1  0
 18 39  1  0
 19 40  1  0
 19 41  1  0
M  CHG  1   2   1
M  END
>  <UniqueID>  (33) 
33

>  <SMILES>  (33) 
C[NH+]1CCN(CCCNc2cccc(F)c2F)CC1

>  <Energy>  (33) 
51.37895025882591

>  <Genealogy>  (33) 
C[NH+]1CCN(CCCNc2cccc(F)c2F)CC1 (protonated)
C[NH+]1CCN(CCCNc2cccc(F)c2F)CC1 (3D coordinates assigned)
C[NH+]1CCN(CCCNc2cccc(F)c2F)CC1 (nonaromatic ring conformer: 51.37895025882591 kcal/mol)

>  <smiles>  (33) 
CN1CCN(CCCNc2cccc(F)c2F)CC1

>  <score_type>  (33) 
oracle

>  <origin>  (33) 
adg

>  <m_score__min__energy>  (33) 
-4.9400000000000004

>  <m_primary>  (33) 
energy

$$$$
33:0
     RDKit          3D

 56 58  0  0  0  0  0  0  0  0999 V2000
   58.6150   29.4820   47.2710 C   0  0  0  0  0  0  0  0  0  0  0  0
   58.3380   28.9440   45.8950 C   0  0  0  0  0  0  0  0  0  0  0  0
   58.7990   27.6630   45.5600 C   0  0  0  0  0  0  0  0  0  0  0  0
   58.5230   27.1190   44.3050 C   0  0  0  0  0  0  0  0  0  0  0  0
   57.7900   27.8490   43.3700 C   0  0  0  0  0  0  0  0  0  0  0  0
   57.3180   29.1330   43.6820 C   0  0  0  0  0  0  0  0  0  0  0  0
   56.5490   29.8970   42.6410 C   0  0  0  0  0  0  0  0  0  0  0  0
   57.5570   29.6680   44.9700 C   0  0  0  0  0  0  0  0  0  0  0  0
   57.0430   30.9200   45.3340 O   0  0  0  0  0  0  0  0  0  0  0  0
   57.3910   32.1240   44.6540 C   0  0  0  0  0  0  0  0  0  0  0  0
   58.1820   33.0190   45.5530 C   0  0  0  0  0  0  0  0  0  0  0  0
   58.3850   32.7790   46.8660 N   0  0  0  0  0  0  0  0  0  0  0  0
   59.0520   33.7910   47.4830 C   0  0  0  0  0  0  0  0  0  0  0  0
   59.4250   33.7390   48.9350 C   0  0  0  0  0  0  0  0  0  0  0  0
   59.1300   32.4030   49.4910 N   0  0  0  0  0  0  0  0  0  0  0  0
   58.4770   32.4850   50.8110 C   0  0  0  0  0  0  0  0  0  0  0  0
   60.3120   31.5110   49.4970 C   0  0  0  0  0  0  0  0  0  0  0  0
   60.9770   31.3380   48.1040 C   0  0  0  0  0  0  0  0  0  0  0  0
   62.2170   32.1260   47.9200 N   0  0  0  0  0  0  0  0  0  0  0  0
   62.1630   33.0420   46.7630 C   0  0  0  0  0  0  0  0  0  0  0  0
   63.3880   33.9770   46.7510 C   0  0  0  0  0  0  0  0  0  0  0  0
   64.4440   33.4230   47.5130 O   0  0  0  0  0  0  0  0  0  0  0  0
   64.0920   33.3980   48.8880 C   0  0  0  0  0  0  0  0  0  0  0  0
   62.6850   32.8110   49.1350 C   0  0  0  0  0  0  0  0  0  0  0  0
   59.3880   34.8590   46.6530 C   0  0  0  0  0  0  0  0  0  0  0  0
   58.8080   34.5160   45.1110 S   0  0  0  0  0  0  0  0  0  0  0  0
   58.2480   28.7692   48.0241 H   0  0  0  0  0  0  0  0  0  0  0  0
   59.6984   29.6241   47.3979 H   0  0  0  0  0  0  0  0  0  0  0  0
   58.1013   30.4464   47.3979 H   0  0  0  0  0  0  0  0  0  0  0  0
   59.3818   27.0833   46.2909 H   0  0  0  0  0  0  0  0  0  0  0  0
   58.8847   26.1113   44.0525 H   0  0  0  0  0  0  0  0  0  0  0  0
   57.5804   27.4153   42.3811 H   0  0  0  0  0  0  0  0  0  0  0  0
   55.8518   30.5897   43.1350 H   0  0  0  0  0  0  0  0  0  0  0  0
   57.2492   30.4674   42.0130 H   0  0  0  0  0  0  0  0  0  0  0  0
   55.9832   29.1931   42.0130 H   0  0  0  0  0  0  0  0  0  0  0  0
   57.9924   31.8783   43.7664 H   0  0  0  0  0  0  0  0  0  0  0  0
   56.4693   32.6437   44.3534 H   0  0  0  0  0  0  0  0  0  0  0  0
   58.0570   31.9140   47.3540 H   0  0  0  0  0  0  0  0  0  0  0  0
   60.4998   33.9474   49.0415 H   0  0  0  0  0  0  0  0  0  0  0  0
   58.8397   34.4924   49.4826 H   0  0  0  0  0  0  0  0  0  0  0  0
   59.2356   32.3897   51.6019 H   0  0  0  0  0  0  0  0  0  0  0  0
   57.9661   33.4544   50.9078 H   0  0  0  0  0  0  0  0  0  0  0  0
   57.7423   31.6721   50.9078 H   0  0  0  0  0  0  0  0  0  0  0  0
   61.0586   31.9301   50.1876 H   0  0  0  0  0  0  0  0  0  0  0  0
   59.9599   30.5165   49.8085 H   0  0  0  0  0  0  0  0  0  0  0  0
   61.2213   30.2741   47.9684 H   0  0  0  0  0  0  0  0  0  0  0  0
   60.2548   31.7081   47.3614 H   0  0  0  0  0  0  0  0  0  0  0  0
   62.1504   32.4514   45.8351 H   0  0  0  0  0  0  0  0  0  0  0  0
   61.2519   33.6537   46.8384 H   0  0  0  0  0  0  0  0  0  0  0  0
   63.7256   34.1174   45.7136 H   0  0  0  0  0  0  0  0  0  0  0  0
   63.1013   34.9433   47.1916 H   0  0  0  0  0  0  0  0  0  0  0  0
   64.8284   32.7849   49.4282 H   0  0  0  0  0  0  0  0  0  0  0  0
   64.0848   34.4377   49.2470 H   0  0  0  0  0  0  0  0  0  0  0  0
   62.7287   32.0925   49.9668 H   0  0  0  0  0  0  0  0  0  0  0  0
   61.9886   33.6241   49.3877 H   0  0  0  0  0  0  0  0  0  0  0  0
   59.9351   35.7651   46.9526 H   0  0  0  0  0  0  0  0  0  0  0  0
  1  2  1  0
  2  3  2  0
  3  4  1  0
  4  5  2  0
  5  6  1  0
  6  7  1  0
  6  8  2  0
  8  9  1  0
  9 10  1  0
 10 11  1  0
 11 12  2  0
 12 13  1  0
 13 14  1  0
 14 15  1  0
 15 16  1  0
 15 17  1  0
 17 18  1  0
 18 19  1  0
 19 20  1  0
 20 21  1  0
 21 22  1  0
 22 23  1  0
 23 24  1  0
 13 25  2  0
 25 26  1  0
  8  2  1  0
 26 11  1  0
 24 19  1  0
  1 27  1  0
  1 28  1  0
  1 29  1  0
  3 30  1  0
  4 31  1  0
  5 32  1  0
  7 33  1  0
  7 34  1  0
  7 35  1  0
 10 36  1  0
 10 37  1  0
 12 38  1  0
 14 39  1  0
 14 40  1  0
 16 41  1  0
 16 42  1  0
 16 43  1  0
 17 44  1  0
 17 45  1  0
 18 46  1  0
 18 47  1  0
 20 48  1  0
 20 49  1  0
 21 50  1  0
 21 51  1  0
 23 52  1  0
 23 53  1  0
 24 54  1  0
 24 55  1  0
 25 56  1  0
M  CHG  1  12   1
M  END
>  <UniqueID>  (34) 
34

>  <SMILES>  (34) 
Cc1cccc(C)c1OCc1[nH+]c(CN(C)CCN2CCOCC2)cs1

>  <Energy>  (34) 
102.88396804124122

>  <Genealogy>  (34) 
Cc1cccc(C)c1OCc1[nH+]c(CN(C)CCN2CCOCC2)cs1 (protonated)
Cc1cccc(C)c1OCc1[nH+]c(CN(C)CCN2CCOCC2)cs1 (3D coordinates assigned)
Cc1cccc(C)c1OCc1[nH+]c(CN(C)CCN2CCOCC2)cs1 (nonaromatic ring conformer: 102.88396804124122 kcal/mol)

>  <smiles>  (34) 
Cc1cccc(C)c1OCc1nc(CN(C)CCN2CCOCC2)cs1

>  <score_type>  (34) 
oracle

>  <origin>  (34) 
adg

>  <m_score__min__energy>  (34) 
-6.2000000000000002

>  <m_primary>  (34) 
energy

$$$$
34:0
     RDKit          3D

 44 46  0  0  0  0  0  0  0  0999 V2000
   58.1810   32.6330   43.9130 C   0  0  0  0  0  0  0  0  0  0  0  0
   58.2320   33.9820   44.5020 N   0  0  0  0  0  0  0  0  0  0  0  0
   57.0130   34.2210   45.2920 C   0  0  0  0  0  0  0  0  0  0  0  0
   59.4330   34.1460   45.3500 C   0  0  0  0  0  0  0  0  0  0  0  0
   59.0460   34.3760   46.8180 C   0  0  0  0  0  0  0  0  0  0  0  0
   58.7640   33.1130   47.5080 N   0  0  0  0  0  0  0  0  0  0  0  0
   59.2470   31.8450   47.0470 C   0  0  0  0  0  0  0  0  0  0  0  0
   58.4650   30.9030   46.5880 O   0  0  0  0  0  0  0  0  0  0  0  0
   59.2450   29.9250   46.1790 C   0  0  0  0  0  0  0  0  0  0  0  0
   58.7420   28.6750   45.5770 C   0  0  0  0  0  0  0  0  0  0  0  0
   58.6340   28.5430   44.1820 C   0  0  0  0  0  0  0  0  0  0  0  0
   58.1540   27.3550   43.6200 C   0  0  0  0  0  0  0  0  0  0  0  0
   57.7780   26.2920   44.4440 C   0  0  0  0  0  0  0  0  0  0  0  0
   57.8810   26.4130   45.8320 C   0  0  0  0  0  0  0  0  0  0  0  0
   58.3610   27.5990   46.3990 C   0  0  0  0  0  0  0  0  0  0  0  0
   60.5580   30.1920   46.3710 N   0  0  0  0  0  0  0  0  0  0  0  0
   60.5570   31.4160   46.9360 C   0  0  0  0  0  0  0  0  0  0  0  0
   61.7810   32.0780   47.4210 C   0  0  0  0  0  0  0  0  0  0  0  0
   62.4050   31.6210   48.5930 C   0  0  0  0  0  0  0  0  0  0  0  0
   63.5480   32.2630   49.0770 C   0  0  0  0  0  0  0  0  0  0  0  0
   64.0670   33.3730   48.4060 C   0  0  0  0  0  0  0  0  0  0  0  0
   63.4380   33.8480   47.2520 C   0  0  0  0  0  0  0  0  0  0  0  0
   62.2940   33.2090   46.7640 C   0  0  0  0  0  0  0  0  0  0  0  0
   58.1526   31.8827   44.7169 H   0  0  0  0  0  0  0  0  0  0  0  0
   57.2786   32.5383   43.2911 H   0  0  0  0  0  0  0  0  0  0  0  0
   59.0736   32.4705   43.2911 H   0  0  0  0  0  0  0  0  0  0  0  0
   57.2555   34.1734   46.3639 H   0  0  0  0  0  0  0  0  0  0  0  0
   56.6091   35.2154   45.0512 H   0  0  0  0  0  0  0  0  0  0  0  0
   56.2635   33.4527   45.0512 H   0  0  0  0  0  0  0  0  0  0  0  0
   60.0496   33.2378   45.2791 H   0  0  0  0  0  0  0  0  0  0  0  0
   59.9941   35.0230   44.9951 H   0  0  0  0  0  0  0  0  0  0  0  0
   59.8761   34.8846   47.3302 H   0  0  0  0  0  0  0  0  0  0  0  0
   58.1339   34.9905   46.8403 H   0  0  0  0  0  0  0  0  0  0  0  0
   57.9710   33.1050   48.1880 H   0  0  0  0  0  0  0  0  0  0  0  0
   58.9283   29.3777   43.5288 H   0  0  0  0  0  0  0  0  0  0  0  0
   58.0726   27.2581   42.5273 H   0  0  0  0  0  0  0  0  0  0  0  0
   57.4006   25.3590   44.0000 H   0  0  0  0  0  0  0  0  0  0  0  0
   57.5845   25.5750   46.4800 H   0  0  0  0  0  0  0  0  0  0  0  0
   58.4407   27.6902   47.4923 H   0  0  0  0  0  0  0  0  0  0  0  0
   61.9929   30.7550   49.1317 H   0  0  0  0  0  0  0  0  0  0  0  0
   64.0403   31.8934   49.9886 H   0  0  0  0  0  0  0  0  0  0  0  0
   64.9703   33.8728   48.7858 H   0  0  0  0  0  0  0  0  0  0  0  0
   63.8433   34.7255   46.7270 H   0  0  0  0  0  0  0  0  0  0  0  0
   61.7940   33.5931   45.8626 H   0  0  0  0  0  0  0  0  0  0  0  0
  1  2  1  0
  2  3  1  0
  2  4  1  0
  4  5  1  0
  5  6  1  0
  6  7  1  0
  7  8  1  0
  8  9  1  0
  9 10  1  0
 10 11  2  0
 11 12  1  0
 12 13  2  0
 13 14  1  0
 14 15  2  0
  9 16  2  0
 16 17  1  0
 17 18  1  0
 18 19  2  0
 19 20  1  0
 20 21  2  0
 21 22  1  0
 22 23  2  0
 17  7  2  0
 23 18  1  0
 15 10  1  0
  1 24  1  0
  1 25  1  0
  1 26  1  0
  3 27  1  0
  3 28  1  0
  3 29  1  0
  4 30  1  0
  4 31  1  0
  5 32  1  0
  5 33  1  0
  6 34  1  0
 11 35  1  0
 12 36  1  0
 13 37  1  0
 14 38  1  0
 15 39  1  0
 19 40  1  0
 20 41  1  0
 21 42  1  0
 22 43  1  0
 23 44  1  0
M  END
>  <UniqueID>  (35) 
35

>  <SMILES>  (35) 
CN(C)CCNc1oc(-c2ccccc2)nc1-c1ccccc1

>  <Energy>  (35) 
80.99818717240643

>  <Genealogy>  (35) 
CN(C)CCNc1oc(-c2ccccc2)nc1-c1ccccc1 (3D coordinates assigned)
CN(C)CCNc1oc(-c2ccccc2)nc1-c1ccccc1 (optimized conformer: 80.99818717240643 kcal/mol)

>  <smiles>  (35) 
CN(C)CCNc1oc(-c2ccccc2)nc1-c1ccccc1

>  <score_type>  (35) 
oracle

>  <origin>  (35) 
adg

>  <m_score__min__energy>  (35) 
-6.9800000000000004

>  <m_primary>  (35) 
energy

$$$$
35:0
     RDKit          3D

 36 38  0  0  0  0  0  0  0  0999 V2000
   59.6930   29.9030   48.3760 C   0  0  0  0  0  0  0  0  0  0  0  0
   59.3160   30.9490   47.4090 N   0  0  0  0  0  0  0  0  0  0  0  0
   59.9370   32.1590   47.5130 C   0  0  0  0  0  0  0  0  0  0  0  0
   59.6420   33.2070   46.6420 C   0  0  0  0  0  0  0  0  0  0  0  0
   60.3070   34.4360   46.7850 C   0  0  0  0  0  0  0  0  0  0  0  0
   60.0260   35.4940   45.9250 C   0  0  0  0  0  0  0  0  0  0  0  0
   59.0820   35.3360   44.9140 C   0  0  0  0  0  0  0  0  0  0  0  0
   58.4120   34.1190   44.7580 C   0  0  0  0  0  0  0  0  0  0  0  0
   58.6790   33.0250   45.6210 C   0  0  0  0  0  0  0  0  0  0  0  0
   58.0290   31.7620   45.5100 C   0  0  0  0  0  0  0  0  0  0  0  0
   57.0530   31.4950   44.5210 C   0  0  0  0  0  0  0  0  0  0  0  0
   56.4320   30.2520   44.4350 C   0  0  0  0  0  0  0  0  0  0  0  0
   56.7590   29.2280   45.3310 C   0  0  0  0  0  0  0  0  0  0  0  0
   56.1290   27.9330   45.2610 N   0  0  0  0  0  0  0  0  0  0  0  0
   56.7860   26.6950   45.6870 C   0  0  0  0  0  0  0  0  0  0  0  0
   55.7600   25.5860   45.9320 C   0  0  0  0  0  0  0  0  0  0  0  0
   54.4710   26.0400   45.6240 O   0  0  0  0  0  0  0  0  0  0  0  0
   57.7200   29.4710   46.3170 C   0  0  0  0  0  0  0  0  0  0  0  0
   58.3690   30.7250   46.4310 C   0  0  0  0  0  0  0  0  0  0  0  0
   59.5560   30.2830   49.3992 H   0  0  0  0  0  0  0  0  0  0  0  0
   59.0573   29.0181   48.2254 H   0  0  0  0  0  0  0  0  0  0  0  0
   60.7471   29.6271   48.2254 H   0  0  0  0  0  0  0  0  0  0  0  0
   60.6879   32.3115   48.3023 H   0  0  0  0  0  0  0  0  0  0  0  0
   61.0547   34.5633   47.5817 H   0  0  0  0  0  0  0  0  0  0  0  0
   60.5494   36.4541   46.0442 H   0  0  0  0  0  0  0  0  0  0  0  0
   58.8623   36.1728   44.2347 H   0  0  0  0  0  0  0  0  0  0  0  0
   57.6679   34.0081   43.9555 H   0  0  0  0  0  0  0  0  0  0  0  0
   56.7796   32.2850   43.8061 H   0  0  0  0  0  0  0  0  0  0  0  0
   55.6770   30.0731   43.6553 H   0  0  0  0  0  0  0  0  0  0  0  0
   55.1520   27.8800   44.8870 H   0  0  0  0  0  0  0  0  0  0  0  0
   57.4858   26.3708   44.9026 H   0  0  0  0  0  0  0  0  0  0  0  0
   57.3236   26.8890   46.6268 H   0  0  0  0  0  0  0  0  0  0  0  0
   56.0017   24.7212   45.2967 H   0  0  0  0  0  0  0  0  0  0  0  0
   55.7933   25.2954   46.9924 H   0  0  0  0  0  0  0  0  0  0  0  0
   54.0630   26.3370   46.4780 H   0  0  0  0  0  0  0  0  0  0  0  0
   57.9788   28.6677   47.0225 H   0  0  0  0  0  0  0  0  0  0  0  0
  1  2  1  0
  2  3  2  0
  3  4  1  0
  4  5  2  0
  5  6  1  0
  6  7  2  0
  7  8  1  0
  8  9  2  0
  9 10  1  0
 10 11  2  0
 11 12  1  0
 12 13  2  0
 13 14  1  0
 14 15  1  0
 15 16  1  0
 16 17  1  0
 13 18  1  0
 18 19  2  0
 19  2  1  0
  9  4  1  0
 19 10  1  0
  1 20  1  0
  1 21  1  0
  1 22  1  0
  3 23  1  0
  5 24  1  0
  6 25  1  0
  7 26  1  0
  8 27  1  0
 11 28  1  0
 12 29  1  0
 14 30  1  0
 15 31  1  0
 15 32  1  0
 16 33  1  0
 16 34  1  0
 17 35  1  0
 18 36  1  0
M  CHG  1   2   1
M  END
>  <UniqueID>  (36) 
36

>  <SMILES>  (36) 
C[n+]1cc2ccccc2c2ccc(NCCO)cc21

>  <Energy>  (36) 
51.10545642389972

>  <Genealogy>  (36) 
C[n+]1cc2ccccc2c2ccc(NCCO)cc21 (3D coordinates assigned)
C[n+]1cc2ccccc2c2ccc(NCCO)cc21 (optimized conformer: 51.10545642389972 kcal/mol)

>  <smiles>  (36) 
C[n+]1cc2ccccc2c2ccc(NCCO)cc21

>  <score_type>  (36) 
oracle

>  <origin>  (36) 
adg

>  <m_score__min__energy>  (36) 
-6.9500000000000002

>  <m_primary>  (36) 
energy

$$$$
36:0
     RDKit          3D

 44 46  0  0  0  0  0  0  0  0999 V2000
   56.9820   30.8460   42.6880 C   0  0  0  0  0  0  0  0  0  0  0  0
   56.3130   30.3150   43.9180 C   0  0  0  0  0  0  0  0  0  0  0  0
   55.4490   29.4110   43.8000 O   0  0  0  0  0  0  0  0  0  0  0  0
   56.6470   30.7910   45.2290 N   0  0  0  0  0  0  0  0  0  0  0  0
   57.9400   31.2260   45.6730 C   0  0  0  0  0  0  0  0  0  0  0  0
   58.2140   32.5870   45.8800 C   0  0  0  0  0  0  0  0  0  0  0  0
   59.4660   32.9920   46.3530 C   0  0  0  0  0  0  0  0  0  0  0  0
   59.8330   34.8460   46.6230 Br  0  0  0  0  0  0  0  0  0  0  0  0
   60.4460   32.0380   46.6420 C   0  0  0  0  0  0  0  0  0  0  0  0
   60.1760   30.6800   46.4580 C   0  0  0  0  0  0  0  0  0  0  0  0
   58.9230   30.2650   45.9820 C   0  0  0  0  0  0  0  0  0  0  0  0
   58.6720   28.8710   45.7620 N   0  0  0  0  0  0  0  0  0  0  0  0
   59.1380   28.2410   44.5180 C   0  0  0  0  0  0  0  0  0  0  0  0
   58.4190   26.9150   44.2550 C   0  0  0  0  0  0  0  0  0  0  0  0
   58.4090   26.0760   45.4620 N   0  0  0  0  0  0  0  0  0  0  0  0
   58.6150   24.6590   45.3300 C   0  0  0  0  0  0  0  0  0  0  0  0
   59.5540   24.1060   45.9610 O   0  0  0  0  0  0  0  0  0  0  0  0
   57.7440   23.8320   44.4790 C   0  0  0  0  0  0  0  0  0  0  0  0
   56.6500   24.2700   43.7420 C   0  0  0  0  0  0  0  0  0  0  0  0
   56.0420   23.2520   42.9990 C   0  0  0  0  0  0  0  0  0  0  0  0
   56.6580   22.0160   43.1400 C   0  0  0  0  0  0  0  0  0  0  0  0
   57.9650   22.1910   44.1820 S   0  0  0  0  0  0  0  0  0  0  0  0
   58.2100   26.6750   46.7970 C   0  0  1  0  0  0  0  0  0  0  0  0
   59.4900   26.5340   47.6280 C   0  0  0  0  0  0  0  0  0  0  0  0
   57.7850   28.1510   46.6790 C   0  0  0  0  0  0  0  0  0  0  0  0
   57.8130   31.5056   42.9784 H   0  0  0  0  0  0  0  0  0  0  0  0
   57.3706   30.0077   42.0911 H   0  0  0  0  0  0  0  0  0  0  0  0
   56.2538   31.4147   42.0911 H   0  0  0  0  0  0  0  0  0  0  0  0
   57.4395   33.3391   45.6690 H   0  0  0  0  0  0  0  0  0  0  0  0
   61.4306   32.3570   47.0146 H   0  0  0  0  0  0  0  0  0  0  0  0
   60.9494   29.9322   46.6874 H   0  0  0  0  0  0  0  0  0  0  0  0
   58.9456   28.9244   43.6778 H   0  0  0  0  0  0  0  0  0  0  0  0
   60.2140   28.0354   44.6181 H   0  0  0  0  0  0  0  0  0  0  0  0
   57.3821   27.1215   43.9512 H   0  0  0  0  0  0  0  0  0  0  0  0
   58.9529   26.3775   43.4575 H   0  0  0  0  0  0  0  0  0  0  0  0
   56.2976   25.3120   43.7427 H   0  0  0  0  0  0  0  0  0  0  0  0
   55.1594   23.4157   42.3633 H   0  0  0  0  0  0  0  0  0  0  0  0
   56.3441   21.0811   42.6527 H   0  0  0  0  0  0  0  0  0  0  0  0
   57.3989   26.1368   47.3094 H   0  0  0  0  0  0  0  0  0  0  0  0
   59.2373   26.5618   48.6982 H   0  0  0  0  0  0  0  0  0  0  0  0
   59.9774   25.5767   47.3911 H   0  0  0  0  0  0  0  0  0  0  0  0
   60.1741   27.3622   47.3911 H   0  0  0  0  0  0  0  0  0  0  0  0
   56.7540   28.2011   46.2987 H   0  0  0  0  0  0  0  0  0  0  0  0
   57.8470   28.6185   47.6728 H   0  0  0  0  0  0  0  0  0  0  0  0
  1  2  1  0
  2  3  2  0
  2  4  1  0
  4  5  1  0
  5  6  2  0
  6  7  1  0
  7  8  1  0
  7  9  2  0
  9 10  1  0
 10 11  2  0
 11 12  1  0
 12 13  1  0
 13 14  1  0
 14 15  1  0
 15 16  1  0
 16 17  2  0
 16 18  1  0
 18 19  2  0
 19 20  1  0
 20 21  2  0
 21 22  1  0
 15 23  1  0
 23 24  1  0
 23 25  1  0
 11  5  1  0
 25 12  1  0
 22 18  1  0
  1 26  1  0
  1 27  1  0
  1 28  1  0
  6 29  1  0
  9 30  1  0
 10 31  1  0
 13 32  1  0
 13 33  1  0
 14 34  1  0
 14 35  1  0
 19 36  1  0
 20 37  1  0
 21 38  1  0
 23 39  1  1
 24 40  1  0
 24 41  1  0
 24 42  1  0
 25 43  1  0
 25 44  1  0
M  CHG  1   4  -1
M  END
>  <UniqueID>  (37) 
37

>  <SMILES>  (37) 
CC(=O)[N-]c1cc(Br)ccc1N1CCN(C(=O)c2cccs2)[C@@H](C)C1

>  <Energy>  (37) 
81.72163945476039

>  <Genealogy>  (37) 
CC(=O)[N-]c1cc(Br)ccc1N1CCN(C(=O)c2cccs2)C(C)C1 (protonated)
CC(=O)[N-]c1cc(Br)ccc1N1CCN(C(=O)c2cccs2)[C@@H](C)C1 (chirality)
CC(=O)[N-]c1cc(Br)ccc1N1CCN(C(=O)c2cccs2)[C@@H](C)C1 (3D coordinates assigned)
CC(=O)[N-]c1cc(Br)ccc1N1CCN(C(=O)c2cccs2)[C@@H](C)C1 (nonaromatic ring conformer: 81.72163945476039 kcal/mol)

>  <smiles>  (37) 
CC(=O)Nc1cc(Br)ccc1N1CCN(C(=O)c2cccs2)C(C)C1

>  <score_type>  (37) 
oracle

>  <origin>  (37) 
adg

>  <m_score__min__energy>  (37) 
-9.8699999999999992

>  <m_primary>  (37) 
energy

$$$$
37:0
     RDKit          3D

 46 48  0  0  0  0  0  0  0  0999 V2000
   55.5130   24.8620   45.8290 C   0  0  0  0  0  0  0  0  0  0  0  0
   57.0320   24.9130   45.9960 C   0  0  0  0  0  0  0  0  0  0  0  0
   57.6290   25.9750   45.1550 N   0  0  0  0  0  0  0  0  0  0  0  0
   57.5560   25.6390   43.7080 C   0  0  0  0  0  0  0  0  0  0  0  0
   58.0790   26.8110   42.8860 C   0  0  0  0  0  0  0  0  0  0  0  0
   59.0180   26.2570   45.5840 C   0  0  0  0  0  0  0  0  0  0  0  0
   59.0640   27.4760   46.5260 C   0  0  0  0  0  0  0  0  0  0  0  0
   57.7320   28.0750   46.7360 N   0  0  0  0  0  0  0  0  0  0  0  0
   57.5790   29.3300   46.0230 C   0  0  0  0  0  0  0  0  0  0  0  0
   56.4770   29.5200   45.1640 C   0  0  0  0  0  0  0  0  0  0  0  0
   55.5200   28.5240   45.0020 O   0  0  0  0  0  0  0  0  0  0  0  0
   56.3330   30.7110   44.4600 C   0  0  0  0  0  0  0  0  0  0  0  0
   57.2680   31.7320   44.5930 C   0  0  0  0  0  0  0  0  0  0  0  0
   58.3860   31.5970   45.4460 C   0  0  0  0  0  0  0  0  0  0  0  0
   59.3190   32.6810   45.5510 C   0  0  0  0  0  0  0  0  0  0  0  0
   59.0940   33.7180   44.8620 O   0  0  0  0  0  0  0  0  0  0  0  0
   60.4860   32.6830   46.3780 C   0  0  0  0  0  0  0  0  0  0  0  0
   61.3350   33.8170   46.3980 C   0  0  0  0  0  0  0  0  0  0  0  0
   62.4810   33.8440   47.1990 C   0  0  0  0  0  0  0  0  0  0  0  0
   62.8080   32.7480   47.9950 C   0  0  0  0  0  0  0  0  0  0  0  0
   61.9900   31.6200   47.9950 C   0  0  0  0  0  0  0  0  0  0  0  0
   60.8430   31.5880   47.1950 C   0  0  0  0  0  0  0  0  0  0  0  0
   59.8570   30.2290   47.1910 S   0  0  0  0  0  0  0  0  0  0  0  0
   58.5250   30.3790   46.1610 C   0  0  0  0  0  0  0  0  0  0  0  0
   55.0355   24.8460   46.8198 H   0  0  0  0  0  0  0  0  0  0  0  0
   55.1752   25.7493   45.2735 H   0  0  0  0  0  0  0  0  0  0  0  0
   55.2355   23.9540   45.2735 H   0  0  0  0  0  0  0  0  0  0  0  0
   57.2702   25.1146   47.0508 H   0  0  0  0  0  0  0  0  0  0  0  0
   57.4491   23.9449   45.6817 H   0  0  0  0  0  0  0  0  0  0  0  0
   58.1692   24.7481   43.5073 H   0  0  0  0  0  0  0  0  0  0  0  0
   56.5109   25.4354   43.4317 H   0  0  0  0  0  0  0  0  0  0  0  0
   58.4328   27.6038   43.5616 H   0  0  0  0  0  0  0  0  0  0  0  0
   58.9110   26.4716   42.2516 H   0  0  0  0  0  0  0  0  0  0  0  0
   57.2707   27.2036   42.2516 H   0  0  0  0  0  0  0  0  0  0  0  0
   59.4177   25.3784   46.1116 H   0  0  0  0  0  0  0  0  0  0  0  0
   59.6240   26.4775   44.6928 H   0  0  0  0  0  0  0  0  0  0  0  0
   59.4647   27.1556   47.4990 H   0  0  0  0  0  0  0  0  0  0  0  0
   59.7044   28.2379   46.0576 H   0  0  0  0  0  0  0  0  0  0  0  0
   57.5910   28.2370   47.7600 H   0  0  0  0  0  0  0  0  0  0  0  0
   56.9930   27.3890   46.4600 H   0  0  0  0  0  0  0  0  0  0  0  0
   55.4705   30.8468   43.7910 H   0  0  0  0  0  0  0  0  0  0  0  0
   57.1343   32.6631   44.0227 H   0  0  0  0  0  0  0  0  0  0  0  0
   61.0891   34.6891   45.7743 H   0  0  0  0  0  0  0  0  0  0  0  0
   63.1271   34.7343   47.2007 H   0  0  0  0  0  0  0  0  0  0  0  0
   63.7110   32.7733   48.6227 H   0  0  0  0  0  0  0  0  0  0  0  0
   62.2462   30.7548   48.6240 H   0  0  0  0  0  0  0  0  0  0  0  0
  1  2  1  0
  2  3  1  0
  3  4  1  0
  4  5  1  0
  3  6  1  0
  6  7  1  0
  7  8  1  0
  8  9  1  0
  9 10  2  0
 10 11  1  0
 10 12  1  0
 12 13  2  0
 13 14  1  0
 14 15  1  0
 15 16  2  0
 15 17  1  0
 17 18  2  0
 18 19  1  0
 19 20  2  0
 20 21  1  0
 21 22  2  0
 22 23  1  0
 23 24  1  0
 24  9  1  0
 24 14  2  0
 22 17  1  0
  1 25  1  0
  1 26  1  0
  1 27  1  0
  2 28  1  0
  2 29  1  0
  4 30  1  0
  4 31  1  0
  5 32  1  0
  5 33  1  0
  5 34  1  0
  6 35  1  0
  6 36  1  0
  7 37  1  0
  7 38  1  0
  8 39  1  0
  8 40  1  0
 12 41  1  0
 13 42  1  0
 18 43  1  0
 19 44  1  0
 20 45  1  0
 21 46  1  0
M  CHG  2   8   1  11  -1
M  END
>  <UniqueID>  (38) 
38

>  <SMILES>  (38) 
CCN(CC)CC[NH2+]c1c([O-])ccc2c(=O)c3ccccc3sc12

>  <Energy>  (38) 
63.1554243422945

>  <Genealogy>  (38) 
CCN(CC)CC[NH2+]c1c([O-])ccc2c(=O)c3ccccc3sc12 (protonated)
CCN(CC)CC[NH2+]c1c([O-])ccc2c(=O)c3ccccc3sc12 (3D coordinates assigned)
CCN(CC)CC[NH2+]c1c([O-])ccc2c(=O)c3ccccc3sc12 (optimized conformer: 63.1554243422945 kcal/mol)

>  <smiles>  (38) 
CCN(CC)CCNc1c(O)ccc2c(=O)c3ccccc3sc12

>  <score_type>  (38) 
oracle

>  <origin>  (38) 
adg

>  <m_score__min__energy>  (38) 
-7.8600000000000003

>  <m_primary>  (38) 
energy

$$$$
38:0
     RDKit          3D

 30 31  0  0  0  0  0  0  0  0999 V2000
   57.7500   32.3780   41.5490 C   0  0  0  0  0  0  0  0  0  0  0  0
   57.7680   31.8980   42.9650 C   0  0  0  0  0  0  0  0  0  0  0  0
   57.3310   30.6120   43.2840 C   0  0  0  0  0  0  0  0  0  0  0  0
   57.3670   30.1990   44.6210 C   0  0  0  0  0  0  0  0  0  0  0  0
   56.9420   28.8020   44.9990 C   0  0  0  0  0  0  0  0  0  0  0  0
   55.5630   28.7220   44.9640 F   0  0  0  0  0  0  0  0  0  0  0  0
   57.4710   27.8810   44.1110 F   0  0  0  0  0  0  0  0  0  0  0  0
   57.3820   28.4800   46.2700 F   0  0  0  0  0  0  0  0  0  0  0  0
   57.8700   31.0440   45.5690 N   0  0  0  0  0  0  0  0  0  0  0  0
   58.3000   32.2980   45.2430 C   0  0  0  0  0  0  0  0  0  0  0  0
   58.8180   33.1790   46.2620 N   0  0  0  0  0  0  0  0  0  0  0  0
   58.9460   32.8140   47.5290 N   0  0  0  0  0  0  0  0  0  0  0  0
   59.4550   33.8570   48.2110 C   0  0  0  0  0  0  0  0  0  0  0  0
   59.6840   33.8580   49.6850 C   0  0  0  0  0  0  0  0  0  0  0  0
   59.6420   34.9300   47.3640 C   0  0  0  0  0  0  0  0  0  0  0  0
   59.2340   34.4630   46.1310 C   0  0  0  0  0  0  0  0  0  0  0  0
   59.2430   35.2720   44.8690 C   0  0  0  0  0  0  0  0  0  0  0  0
   58.2430   32.7060   43.9470 N   0  0  0  0  0  0  0  0  0  0  0  0
   57.7088   33.4771   41.5349 H   0  0  0  0  0  0  0  0  0  0  0  0
   58.6615   32.0386   41.0352 H   0  0  0  0  0  0  0  0  0  0  0  0
   56.8665   31.9713   41.0352 H   0  0  0  0  0  0  0  0  0  0  0  0
   56.9646   29.9345   42.4986 H   0  0  0  0  0  0  0  0  0  0  0  0
   57.9320   30.7210   46.5600 H   0  0  0  0  0  0  0  0  0  0  0  0
   58.7155   33.8538   50.2065 H   0  0  0  0  0  0  0  0  0  0  0  0
   60.2566   32.9624   49.9677 H   0  0  0  0  0  0  0  0  0  0  0  0
   60.2487   34.7586   49.9677 H   0  0  0  0  0  0  0  0  0  0  0  0
   60.0280   35.9292   47.6142 H   0  0  0  0  0  0  0  0  0  0  0  0
   59.2549   36.3429   45.1200 H   0  0  0  0  0  0  0  0  0  0  0  0
   60.1384   35.0234   44.2805 H   0  0  0  0  0  0  0  0  0  0  0  0
   58.3423   35.0434   44.2805 H   0  0  0  0  0  0  0  0  0  0  0  0
  1  2  1  0
  2  3  2  0
  3  4  1  0
  4  5  1  0
  5  6  1  0
  5  7  1  0
  5  8  1  0
  4  9  2  0
  9 10  1  0
 10 11  1  0
 11 12  1  0
 12 13  2  0
 13 14  1  0
 13 15  1  0
 15 16  2  0
 16 17  1  0
 10 18  2  0
 18  2  1  0
 16 11  1  0
  1 19  1  0
  1 20  1  0
  1 21  1  0
  3 22  1  0
  9 23  1  0
 14 24  1  0
 14 25  1  0
 14 26  1  0
 15 27  1  0
 17 28  1  0
 17 29  1  0
 17 30  1  0
M  CHG  1   9   1
M  END
>  <UniqueID>  (39) 
39

>  <SMILES>  (39) 
Cc1cc(C(F)(F)F)[nH+]c(-n2nc(C)cc2C)n1

>  <Energy>  (39) 
58.854464439390775

>  <Genealogy>  (39) 
Cc1cc(C(F)(F)F)[nH+]c(-n2nc(C)cc2C)n1 (protonated)
Cc1cc(C(F)(F)F)[nH+]c(-n2nc(C)cc2C)n1 (3D coordinates assigned)
Cc1cc(C(F)(F)F)[nH+]c(-n2nc(C)cc2C)n1 (optimized conformer: 58.854464439390775 kcal/mol)

>  <smiles>  (39) 
Cc1cc(C(F)(F)F)nc(-n2nc(C)cc2C)n1

>  <score_type>  (39) 
oracle

>  <origin>  (39) 
adg

>  <m_score__min__energy>  (39) 
-4.5899999999999999

>  <m_primary>  (39) 
energy

$$$$
39:0
     RDKit          3D

 59 63  0  0  1  0  0  0  0  0999 V2000
   54.9960   29.2870   52.7540 C   0  0  0  0  0  0  0  0  0  0  0  0
   56.2900   29.3500   52.2120 O   0  0  0  0  0  0  0  0  0  0  0  0
   57.0290   30.5180   52.3190 C   0  0  0  0  0  0  0  0  0  0  0  0
   57.2100   31.1900   53.5170 C   0  0  0  0  0  0  0  0  0  0  0  0
   57.9510   32.3450   53.5780 C   0  0  0  0  0  0  0  0  0  0  0  0
   58.5220   32.8360   52.4140 C   0  0  0  0  0  0  0  0  0  0  0  0
   58.3510   32.1790   51.2090 C   0  0  0  0  0  0  0  0  0  0  0  0
   58.9750   32.7500   50.0380 C   0  0  0  0  0  0  0  0  0  0  0  0
   59.9990   33.6680   50.0720 C   0  0  0  0  0  0  0  0  0  0  0  0
   60.5070   34.1390   48.9220 N   0  0  0  0  0  0  0  0  0  0  0  0
   60.0730   33.7650   47.7330 C   0  0  0  0  0  0  0  0  0  0  0  0
   60.5680   34.2270   46.6600 N   0  0  0  0  0  0  0  0  0  0  0  0
   61.7370   33.7540   45.9920 C   0  0  0  0  0  0  0  0  0  0  0  0
   62.9850   33.8570   46.8490 C   0  0  0  0  0  0  0  0  0  0  0  0
   62.8920   33.2250   48.1260 N   0  0  0  0  0  0  0  0  0  0  0  0
   64.2390   33.2660   48.7330 C   0  0  0  0  0  0  0  0  0  0  0  0
   64.2510   32.5150   50.0390 C   0  0  0  0  0  0  0  0  0  0  0  0
   63.7130   31.2470   49.9750 O   0  0  0  0  0  0  0  0  0  0  0  0
   62.4580   31.2290   49.3700 C   0  0  0  0  0  0  0  0  0  0  0  0
   62.6460   31.7780   47.9800 C   0  0  0  0  0  0  0  0  0  0  0  0
   59.0470   32.8450   47.6300 C   0  0  0  0  0  0  0  0  0  0  0  0
   58.5250   32.3910   46.3340 C   0  0  0  0  0  0  0  0  0  0  0  0
   57.7690   31.3220   46.1030 N   0  0  0  0  0  0  0  0  0  0  0  0
   57.4900   31.2390   44.7690 C   0  0  0  0  0  0  0  0  0  0  0  0
   56.7650   30.3510   44.0040 C   0  0  0  0  0  0  0  0  0  0  0  0
   56.6590   30.5290   42.6490 C   0  0  0  0  0  0  0  0  0  0  0  0
   57.2730   31.5980   42.0340 C   0  0  0  0  0  0  0  0  0  0  0  0
   57.9950   32.4790   42.8130 C   0  0  0  0  0  0  0  0  0  0  0  0
   58.1070   32.3070   44.1730 C   0  0  0  0  0  0  0  0  0  0  0  0
   58.7340   32.9990   45.1460 N   0  0  0  0  0  0  0  0  0  0  0  0
   58.5010   32.3400   48.8000 C   0  0  0  0  0  0  0  0  0  0  0  0
   57.6040   31.0200   51.1670 C   0  0  0  0  0  0  0  0  0  0  0  0
   55.0579   29.2900   53.8523 H   0  0  0  0  0  0  0  0  0  0  0  0
   54.4146   30.1579   52.4171 H   0  0  0  0  0  0  0  0  0  0  0  0
   54.5019   28.3637   52.4171 H   0  0  0  0  0  0  0  0  0  0  0  0
   56.7526   30.7919   54.4348 H   0  0  0  0  0  0  0  0  0  0  0  0
   58.0890   32.8713   54.5340 H   0  0  0  0  0  0  0  0  0  0  0  0
   59.1185   33.7596   52.4492 H   0  0  0  0  0  0  0  0  0  0  0  0
   60.3994   34.0143   51.0362 H   0  0  0  0  0  0  0  0  0  0  0  0
   61.2730   34.8230   48.9860 H   0  0  0  0  0  0  0  0  0  0  0  0
   61.5837   32.6994   45.7193 H   0  0  0  0  0  0  0  0  0  0  0  0
   61.8907   34.3861   45.1050 H   0  0  0  0  0  0  0  0  0  0  0  0
   63.8168   33.3935   46.2983 H   0  0  0  0  0  0  0  0  0  0  0  0
   63.1362   34.9286   47.0458 H   0  0  0  0  0  0  0  0  0  0  0  0
   64.9613   32.8048   48.0433 H   0  0  0  0  0  0  0  0  0  0  0  0
   64.5127   34.3144   48.9224 H   0  0  0  0  0  0  0  0  0  0  0  0
   65.2945   32.4287   50.3760 H   0  0  0  0  0  0  0  0  0  0  0  0
   63.6199   33.0876   50.7347 H   0  0  0  0  0  0  0  0  0  0  0  0
   62.0733   30.1995   49.3233 H   0  0  0  0  0  0  0  0  0  0  0  0
   61.7328   31.8283   49.9399 H   0  0  0  0  0  0  0  0  0  0  0  0
   63.5063   31.2942   47.4944 H   0  0  0  0  0  0  0  0  0  0  0  0
   61.7601   31.5880   47.3562 H   0  0  0  0  0  0  0  0  0  0  0  0
   56.2686   29.4945   44.4835 H   0  0  0  0  0  0  0  0  0  0  0  0
   56.0793   29.8129   42.0481 H   0  0  0  0  0  0  0  0  0  0  0  0
   57.1897   31.7458   40.9472 H   0  0  0  0  0  0  0  0  0  0  0  0
   58.4915   33.3370   42.3362 H   0  0  0  0  0  0  0  0  0  0  0  0
   59.2900   33.8610   45.0110 H   0  0  0  0  0  0  0  0  0  0  0  0
   57.6832   31.6063   48.7463 H   0  0  0  0  0  0  0  0  0  0  0  0
   57.4653   30.4927   50.2116 H   0  0  0  0  0  0  0  0  0  0  0  0
  1  2  1  0
  2  3  1  0
  3  4  2  0
  4  5  1  0
  5  6  2  0
  6  7  1  0
  7  8  1  0
  8  9  2  0
  9 10  1  0
 10 11  1  0
 11 12  2  0
 12 13  1  0
 13 14  1  0
 14 15  1  0
 15 16  1  0
 16 17  1  0
 17 18  1  0
 18 19  1  0
 19 20  1  0
 11 21  1  0
 21 22  1  0
 22 23  2  0
 23 24  1  0
 24 25  2  0
 25 26  1  0
 26 27  2  0
 27 28  1  0
 28 29  2  0
 29 30  1  0
 21 31  2  0
  7 32  2  0
 32  3  1  0
 31  8  1  0
 20 15  1  0
 30 22  1  0
 29 24  1  0
  1 33  1  0
  1 34  1  0
  1 35  1  0
  4 36  1  0
  5 37  1  0
  6 38  1  0
  9 39  1  0
 10 40  1  0
 13 41  1  0
 13 42  1  0
 14 43  1  0
 14 44  1  0
 16 45  1  0
 16 46  1  0
 17 47  1  0
 17 48  1  0
 19 49  1  0
 19 50  1  0
 20 51  1  0
 20 52  1  0
 25 53  1  0
 26 54  1  0
 27 55  1  0
 28 56  1  0
 30 57  1  0
 31 58  1  0
 32 59  1  0
M  END
>  <smiles>  (40) 
COc1cccc(-c2c[nH]c(=NCCN3CCOCC3)c(-c3nc4ccccc4[nH]3)c2)c1

>  <score_type>  (40) 
oracle

>  <origin>  (40) 
adg

>  <m_score__min__energy>  (40) 
-8.3100000000000005

>  <m_primary>  (40) 
energy

$$$$
40:0
     RDKit          3D

 43 46  0  0  0  0  0  0  0  0999 V2000
   57.0350   21.0770   42.9170 C   0  0  0  0  0  0  0  0  0  0  0  0
   56.0400   22.0820   43.0830 O   0  0  0  0  0  0  0  0  0  0  0  0
   56.1070   23.1110   44.0330 C   0  0  0  0  0  0  0  0  0  0  0  0
   55.4100   23.0490   45.2710 C   0  0  0  0  0  0  0  0  0  0  0  0
   55.5010   24.1020   46.1990 C   0  0  0  0  0  0  0  0  0  0  0  0
   56.2900   25.1970   45.8680 C   0  0  0  0  0  0  0  0  0  0  0  0
   56.5010   26.2730   46.5860 O   0  0  0  0  0  0  0  0  0  0  0  0
   57.3100   27.0640   45.9030 C   0  0  0  0  0  0  0  0  0  0  0  0
   57.7530   28.3780   46.4050 C   0  0  0  0  0  0  0  0  0  0  0  0
   58.1940   28.4960   47.5800 O   0  0  0  0  0  0  0  0  0  0  0  0
   57.6900   29.5330   45.5520 N   0  0  0  0  0  0  0  0  0  0  0  0
   56.6380   29.5540   44.5260 C   0  0  0  0  0  0  0  0  0  0  0  0
   56.9340   30.5960   43.4480 C   0  0  0  0  0  0  0  0  0  0  0  0
   57.1230   31.9710   44.0840 C   0  0  0  0  0  0  0  0  0  0  0  0
   58.1870   31.9300   45.1480 C   0  0  0  0  0  0  0  0  0  0  0  0
   58.8980   33.0990   45.4610 C   0  0  0  0  0  0  0  0  0  0  0  0
   59.8830   33.0820   46.4490 C   0  0  0  0  0  0  0  0  0  0  0  0
   60.1660   31.9010   47.1340 C   0  0  0  0  0  0  0  0  0  0  0  0
   59.4530   30.7350   46.8460 C   0  0  0  0  0  0  0  0  0  0  0  0
   58.4360   30.7370   45.8680 C   0  0  0  0  0  0  0  0  0  0  0  0
   57.6420   26.4720   44.6820 C   0  0  0  0  0  0  0  0  0  0  0  0
   58.5180   27.0300   43.6010 C   0  0  0  0  0  0  0  0  0  0  0  0
   56.9680   25.2660   44.6800 C   0  0  0  0  0  0  0  0  0  0  0  0
   56.8990   24.2400   43.7360 C   0  0  0  0  0  0  0  0  0  0  0  0
   57.3763   20.7323   43.9043 H   0  0  0  0  0  0  0  0  0  0  0  0
   56.6104   20.2293   42.3592 H   0  0  0  0  0  0  0  0  0  0  0  0
   57.8869   21.4931   42.3592 H   0  0  0  0  0  0  0  0  0  0  0  0
   54.7935   22.1686   45.5052 H   0  0  0  0  0  0  0  0  0  0  0  0
   54.9638   24.0600   47.1580 H   0  0  0  0  0  0  0  0  0  0  0  0
   56.5752   28.5610   44.0569 H   0  0  0  0  0  0  0  0  0  0  0  0
   55.6860   29.8166   45.0104 H   0  0  0  0  0  0  0  0  0  0  0  0
   57.8522   30.3140   42.9119 H   0  0  0  0  0  0  0  0  0  0  0  0
   56.0881   30.6376   42.7461 H   0  0  0  0  0  0  0  0  0  0  0  0
   57.4195   32.6898   43.3059 H   0  0  0  0  0  0  0  0  0  0  0  0
   56.1738   32.2765   44.5483 H   0  0  0  0  0  0  0  0  0  0  0  0
   58.6774   34.0336   44.9245 H   0  0  0  0  0  0  0  0  0  0  0  0
   60.4371   34.0017   46.6879 H   0  0  0  0  0  0  0  0  0  0  0  0
   60.9525   31.8875   47.9029 H   0  0  0  0  0  0  0  0  0  0  0  0
   59.6866   29.8061   47.3869 H   0  0  0  0  0  0  0  0  0  0  0  0
   59.3630   27.5683   44.0551 H   0  0  0  0  0  0  0  0  0  0  0  0
   58.8994   26.2081   42.9773 H   0  0  0  0  0  0  0  0  0  0  0  0
   57.9344   27.7231   42.9773 H   0  0  0  0  0  0  0  0  0  0  0  0
   57.4479   24.3100   42.7853 H   0  0  0  0  0  0  0  0  0  0  0  0
  1  2  1  0
  2  3  1  0
  3  4  2  0
  4  5  1  0
  5  6  2  0
  6  7  1  0
  7  8  1  0
  8  9  1  0
  9 10  2  0
  9 11  1  0
 11 12  1  0
 12 13  1  0
 13 14  1  0
 14 15  1  0
 15 16  2  0
 16 17  1  0
 17 18  2  0
 18 19  1  0
 19 20  2  0
  8 21  2  0
 21 22  1  0
 21 23  1  0
 23 24  2  0
 24  3  1  0
 23  6  1  0
 20 11  1  0
 20 15  1  0
  1 25  1  0
  1 26  1  0
  1 27  1  0
  4 28  1  0
  5 29  1  0
 12 30  1  0
 12 31  1  0
 13 32  1  0
 13 33  1  0
 14 34  1  0
 14 35  1  0
 16 36  1  0
 17 37  1  0
 18 38  1  0
 19 39  1  0
 22 40  1  0
 22 41  1  0
 22 42  1  0
 24 43  1  0
M  END
>  <UniqueID>  (41) 
40

>  <SMILES>  (41) 
COc1ccc2oc(C(=O)N3CCCc4ccccc43)c(C)c2c1

>  <Energy>  (41) 
86.39948033278452

>  <Genealogy>  (41) 
COc1ccc2oc(C(=O)N3CCCc4ccccc43)c(C)c2c1 (3D coordinates assigned)
COc1ccc2oc(C(=O)N3CCCc4ccccc43)c(C)c2c1 (nonaromatic ring conformer: 86.39948033278452 kcal/mol)

>  <smiles>  (41) 
COc1ccc2oc(C(=O)N3CCCc4ccccc43)c(C)c2c1

>  <score_type>  (41) 
oracle

>  <origin>  (41) 
adg

>  <m_score__min__energy>  (41) 
-8.0999999999999996

>  <m_primary>  (41) 
energy

$$$$
41:0
     RDKit          3D

 61 63  0  0  0  0  0  0  0  0999 V2000
   56.4050   24.5860   46.9050 C   0  0  0  0  0  0  0  0  0  0  0  0
   55.5430   25.3690   45.9220 C   0  0  0  0  0  0  0  0  0  0  0  0
   55.9850   26.7560   45.8500 N   0  0  0  0  0  0  0  0  0  0  0  0
   57.3040   27.1530   45.4540 C   0  0  0  0  0  0  0  0  0  0  0  0
   58.0640   26.3130   44.9000 O   0  0  0  0  0  0  0  0  0  0  0  0
   57.7480   28.5990   45.6730 C   0  0  1  0  0  0  0  0  0  0  0  0
   58.1460   28.7090   47.1840 C   0  0  0  0  0  0  0  0  0  0  0  0
   59.5850   29.1520   47.5080 C   0  0  0  0  0  0  0  0  0  0  0  0
   59.7200   30.5620   47.3610 O   0  0  0  0  0  0  0  0  0  0  0  0
   60.8720   31.2910   47.6870 C   0  0  0  0  0  0  0  0  0  0  0  0
   61.5680   31.1060   48.8980 C   0  0  0  0  0  0  0  0  0  0  0  0
   62.7090   31.8640   49.1760 C   0  0  0  0  0  0  0  0  0  0  0  0
   63.1640   32.8100   48.2540 C   0  0  0  0  0  0  0  0  0  0  0  0
   62.4790   32.9990   47.0520 C   0  0  0  0  0  0  0  0  0  0  0  0
   61.3390   32.2400   46.7700 C   0  0  0  0  0  0  0  0  0  0  0  0
   58.9570   28.8670   44.7170 C   0  0  0  0  0  0  0  0  0  0  0  0
   58.9410   30.2930   44.1460 C   0  0  0  0  0  0  0  0  0  0  0  0
   57.7340   30.5390   43.3130 N   0  0  2  0  0  0  0  0  0  0  0  0
   57.5350   32.0020   43.1500 C   0  0  0  0  0  0  0  0  0  0  0  0
   57.9680   32.7780   44.3750 C   0  0  0  0  0  0  0  0  0  0  0  0
   57.3940   32.4990   45.6250 C   0  0  0  0  0  0  0  0  0  0  0  0
   57.7880   33.2140   46.7580 C   0  0  0  0  0  0  0  0  0  0  0  0
   58.7580   34.2190   46.6640 C   0  0  0  0  0  0  0  0  0  0  0  0
   59.1160   34.9120   47.8300 O   0  0  0  0  0  0  0  0  0  0  0  0
   59.6860   34.3050   48.9840 C   0  0  0  0  0  0  0  0  0  0  0  0
   59.3350   34.5010   45.4110 C   0  0  0  0  0  0  0  0  0  0  0  0
   58.9400   33.7850   44.2760 C   0  0  0  0  0  0  0  0  0  0  0  0
   56.5050   29.8670   43.8340 C   0  0  0  0  0  0  0  0  0  0  0  0
   56.5760   29.5840   45.3420 C   0  0  0  0  0  0  0  0  0  0  0  0
   56.1172   24.8474   47.9340 H   0  0  0  0  0  0  0  0  0  0  0  0
   56.2561   23.5079   46.7453 H   0  0  0  0  0  0  0  0  0  0  0  0
   57.4639   24.8375   46.7453 H   0  0  0  0  0  0  0  0  0  0  0  0
   55.6233   24.9110   44.9251 H   0  0  0  0  0  0  0  0  0  0  0  0
   54.4986   25.3452   46.2664 H   0  0  0  0  0  0  0  0  0  0  0  0
   57.4643   29.4339   47.6527 H   0  0  0  0  0  0  0  0  0  0  0  0
   58.0750   27.6810   47.5689 H   0  0  0  0  0  0  0  0  0  0  0  0
   59.8249   28.8719   48.5443 H   0  0  0  0  0  0  0  0  0  0  0  0
   60.2749   28.6548   46.8102 H   0  0  0  0  0  0  0  0  0  0  0  0
   61.2124   30.3628   49.6268 H   0  0  0  0  0  0  0  0  0  0  0  0
   63.2497   31.7155   50.1224 H   0  0  0  0  0  0  0  0  0  0  0  0
   64.0618   33.4059   48.4750 H   0  0  0  0  0  0  0  0  0  0  0  0
   62.8362   33.7450   46.3269 H   0  0  0  0  0  0  0  0  0  0  0  0
   60.8049   32.3898   45.8201 H   0  0  0  0  0  0  0  0  0  0  0  0
   59.8916   28.7208   45.2784 H   0  0  0  0  0  0  0  0  0  0  0  0
   58.8823   28.1649   43.8735 H   0  0  0  0  0  0  0  0  0  0  0  0
   58.9511   31.0108   44.9795 H   0  0  0  0  0  0  0  0  0  0  0  0
   59.8286   30.4167   43.5081 H   0  0  0  0  0  0  0  0  0  0  0  0
   57.9370   30.1310   42.3690 H   0  0  0  0  0  0  0  0  0  0  0  0
   58.1238   32.3455   42.2867 H   0  0  0  0  0  0  0  0  0  0  0  0
   56.4604   32.1818   42.9989 H   0  0  0  0  0  0  0  0  0  0  0  0
   56.6296   31.7129   45.7127 H   0  0  0  0  0  0  0  0  0  0  0  0
   57.3322   32.9855   47.7327 H   0  0  0  0  0  0  0  0  0  0  0  0
   59.2572   34.7617   49.8882 H   0  0  0  0  0  0  0  0  0  0  0  0
   59.4660   33.2272   48.9779 H   0  0  0  0  0  0  0  0  0  0  0  0
   60.7754   34.4569   48.9779 H   0  0  0  0  0  0  0  0  0  0  0  0
   60.0993   35.2873   45.3243 H   0  0  0  0  0  0  0  0  0  0  0  0
   59.3940   34.0128   43.3003 H   0  0  0  0  0  0  0  0  0  0  0  0
   55.6393   30.5169   43.6386 H   0  0  0  0  0  0  0  0  0  0  0  0
   56.4128   28.8993   43.3191 H   0  0  0  0  0  0  0  0  0  0  0  0
   56.7390   30.5304   45.8784 H   0  0  0  0  0  0  0  0  0  0  0  0
   55.6292   29.1210   45.6569 H   0  0  0  0  0  0  0  0  0  0  0  0
  1  2  1  0
  2  3  1  0
  3  4  1  0
  4  5  2  0
  4  6  1  0
  6  7  1  1
  7  8  1  0
  8  9  1  0
  9 10  1  0
 10 11  2  0
 11 12  1  0
 12 13  2  0
 13 14  1  0
 14 15  2  0
  6 16  1  0
 16 17  1  0
 17 18  1  0
 18 19  1  0
 19 20  1  0
 20 21  2  0
 21 22  1  0
 22 23  2  0
 23 24  1  0
 24 25  1  0
 23 26  1  0
 26 27  2  0
 18 28  1  0
 28 29  1  0
 29  6  1  0
 15 10  1  0
 27 20  1  0
  1 30  1  0
  1 31  1  0
  1 32  1  0
  2 33  1  0
  2 34  1  0
  7 35  1  0
  7 36  1  0
  8 37  1  0
  8 38  1  0
 11 39  1  0
 12 40  1  0
 13 41  1  0
 14 42  1  0
 15 43  1  0
 16 44  1  0
 16 45  1  0
 17 46  1  0
 17 47  1  0
 18 48  1  6
 19 49  1  0
 19 50  1  0
 21 51  1  0
 22 52  1  0
 25 53  1  0
 25 54  1  0
 25 55  1  0
 26 56  1  0
 27 57  1  0
 28 58  1  0
 28 59  1  0
 29 60  1  0
 29 61  1  0
M  CHG  2   3  -1  18   1
M  END
>  <UniqueID>  (42) 
41

>  <SMILES>  (42) 
CC[N-]C(=O)C1(CCOc2ccccc2)CC[NH+](Cc2ccc(OC)cc2)CC1

>  <Energy>  (42) 
70.56922728797008

>  <Genealogy>  (42) 
CC[N-]C(=O)C1(CCOc2ccccc2)CC[NH+](Cc2ccc(OC)cc2)CC1 (protonated)
CC[N-]C(=O)C1(CCOc2ccccc2)CC[NH+](Cc2ccc(OC)cc2)CC1 (3D coordinates assigned)
CC[N-]C(=O)C1(CCOc2ccccc2)CC[NH+](Cc2ccc(OC)cc2)CC1 (nonaromatic ring conformer: 70.56922728797008 kcal/mol)

>  <smiles>  (42) 
CCNC(=O)C1(CCOc2ccccc2)CCN(Cc2ccc(OC)cc2)CC1

>  <score_type>  (42) 
oracle

>  <origin>  (42) 
adg

>  <m_score__min__energy>  (42) 
-7.9500000000000002

>  <m_primary>  (42) 
energy

$$$$
42:0
     RDKit          3D

 34 35  0  0  0  0  0  0  0  0999 V2000
   57.2910   31.2450   43.0580 C   0  0  0  0  0  0  0  0  0  0  0  0
   57.0430   31.4960   44.5400 C   0  0  0  0  0  0  0  0  0  0  0  0
   58.1280   32.3490   45.1190 C   0  0  0  0  0  0  0  0  0  0  0  0
   58.2750   33.7170   44.9250 C   0  0  0  0  0  0  0  0  0  0  0  0
   59.3360   34.2730   45.6600 C   0  0  0  0  0  0  0  0  0  0  0  0
   59.6520   35.7370   45.6180 C   0  0  0  0  0  0  0  0  0  0  0  0
   60.0300   33.3270   46.4240 C   0  0  0  0  0  0  0  0  0  0  0  0
   61.1970   33.5620   47.2980 C   0  0  0  0  0  0  0  0  0  0  0  0
   60.9980   33.8090   48.6020 C   0  0  0  0  0  0  0  0  0  0  0  0
   62.1330   34.0800   49.5540 C   0  0  0  0  0  0  0  0  0  0  0  0
   63.4120   33.4890   49.1120 N   0  0  0  0  0  0  0  0  0  0  0  0
   63.4680   32.0420   49.3770 C   0  0  0  0  0  0  0  0  0  0  0  0
   63.6860   33.8170   47.7000 C   0  0  0  0  0  0  0  0  0  0  0  0
   62.5840   33.3070   46.7590 C   0  0  0  0  0  0  0  0  0  0  0  0
   59.2940   31.8260   46.2100 S   0  0  0  0  0  0  0  0  0  0  0  0
   58.0598   30.4669   42.9415 H   0  0  0  0  0  0  0  0  0  0  0  0
   56.3573   30.9122   42.5812 H   0  0  0  0  0  0  0  0  0  0  0  0
   57.6350   32.1747   42.5812 H   0  0  0  0  0  0  0  0  0  0  0  0
   56.0768   32.0071   44.6633 H   0  0  0  0  0  0  0  0  0  0  0  0
   57.0326   30.5301   45.0662 H   0  0  0  0  0  0  0  0  0  0  0  0
   57.6251   34.3066   44.2616 H   0  0  0  0  0  0  0  0  0  0  0  0
   59.7355   36.1237   46.6444 H   0  0  0  0  0  0  0  0  0  0  0  0
   60.6042   35.8916   45.0894 H   0  0  0  0  0  0  0  0  0  0  0  0
   58.8483   36.2706   45.0894 H   0  0  0  0  0  0  0  0  0  0  0  0
   59.9685   33.8137   48.9895 H   0  0  0  0  0  0  0  0  0  0  0  0
   62.2626   35.1686   49.6437 H   0  0  0  0  0  0  0  0  0  0  0  0
   61.8721   33.6162   50.5167 H   0  0  0  0  0  0  0  0  0  0  0  0
   63.4747   31.8681   50.4632 H   0  0  0  0  0  0  0  0  0  0  0  0
   62.5881   31.5536   48.9329 H   0  0  0  0  0  0  0  0  0  0  0  0
   64.3830   31.6230   48.9329 H   0  0  0  0  0  0  0  0  0  0  0  0
   63.7601   34.9098   47.5986 H   0  0  0  0  0  0  0  0  0  0  0  0
   64.6267   33.3227   47.4159 H   0  0  0  0  0  0  0  0  0  0  0  0
   62.6846   33.8169   45.7895 H   0  0  0  0  0  0  0  0  0  0  0  0
   62.7080   32.2186   46.6594 H   0  0  0  0  0  0  0  0  0  0  0  0
  1  2  1  0
  2  3  1  0
  3  4  2  0
  4  5  1  0
  5  6  1  0
  5  7  2  0
  7  8  1  0
  8  9  2  0
  9 10  1  0
 10 11  1  0
 11 12  1  0
 11 13  1  0
 13 14  1  0
  7 15  1  0
 15  3  1  0
 14  8  1  0
  1 16  1  0
  1 17  1  0
  1 18  1  0
  2 19  1  0
  2 20  1  0
  4 21  1  0
  6 22  1  0
  6 23  1  0
  6 24  1  0
  9 25  1  0
 10 26  1  0
 10 27  1  0
 12 28  1  0
 12 29  1  0
 12 30  1  0
 13 31  1  0
 13 32  1  0
 14 33  1  0
 14 34  1  0
M  END
>  <UniqueID>  (43) 
42

>  <SMILES>  (43) 
CCc1cc(C)c(C2=CCN(C)CC2)s1

>  <Energy>  (43) 
63.282104883161345

>  <Genealogy>  (43) 
CCc1cc(C)c(C2=CCN(C)CC2)s1 (3D coordinates assigned)
CCc1cc(C)c(C2=CCN(C)CC2)s1 (nonaromatic ring conformer: 63.282104883161345 kcal/mol)

>  <smiles>  (43) 
CCc1cc(C)c(C2=CCN(C)CC2)s1

>  <score_type>  (43) 
oracle

>  <origin>  (43) 
adg

>  <m_score__min__energy>  (43) 
-6.2199999999999998

>  <m_primary>  (43) 
energy

$$$$
43:0
     RDKit          3D

 39 41  0  0  0  0  0  0  0  0999 V2000
   65.6710   32.7420   49.9320 C   0  0  0  0  0  0  0  0  0  0  0  0
   64.7750   33.2140   48.9300 O   0  0  0  0  0  0  0  0  0  0  0  0
   63.4040   33.4330   49.1320 C   0  0  0  0  0  0  0  0  0  0  0  0
   62.9510   33.6780   50.4290 C   0  0  0  0  0  0  0  0  0  0  0  0
   61.6310   33.8920   50.6680 N   0  0  0  0  0  0  0  0  0  0  0  0
   60.7110   33.8770   49.6670 C   0  0  0  0  0  0  0  0  0  0  0  0
   61.1060   33.6410   48.3390 C   0  0  0  0  0  0  0  0  0  0  0  0
   60.1000   33.6230   47.2460 C   0  0  0  0  0  0  0  0  0  0  0  0
   59.9210   34.5920   46.2560 C   0  0  0  0  0  0  0  0  0  0  0  0
   58.8820   34.3000   45.3620 C   0  0  0  0  0  0  0  0  0  0  0  0
   58.2420   33.0960   45.6300 C   0  0  0  0  0  0  0  0  0  0  0  0
   57.0730   32.5200   44.8710 C   0  0  0  0  0  0  0  0  0  0  0  0
   57.0240   31.0410   44.8840 N   0  0  0  0  0  0  0  0  0  0  0  0
   58.3260   30.4100   44.5890 C   0  0  0  0  0  0  0  0  0  0  0  0
   58.1360   28.9250   44.2410 C   0  0  0  0  0  0  0  0  0  0  0  0
   57.3080   28.6980   43.1060 O   0  0  0  0  0  0  0  0  0  0  0  0
   56.3800   29.7460   42.8500 C   0  0  0  0  0  0  0  0  0  0  0  0
   55.8950   30.4600   44.1230 C   0  0  0  0  0  0  0  0  0  0  0  0
   58.9500   32.4130   46.9930 S   0  0  0  0  0  0  0  0  0  0  0  0
   62.4690   33.4130   48.0820 C   0  0  0  0  0  0  0  0  0  0  0  0
   65.2562   32.9605   50.9271 H   0  0  0  0  0  0  0  0  0  0  0  0
   65.8057   31.6559   49.8213 H   0  0  0  0  0  0  0  0  0  0  0  0
   66.6429   33.2452   49.8213 H   0  0  0  0  0  0  0  0  0  0  0  0
   63.6676   33.6980   51.2634 H   0  0  0  0  0  0  0  0  0  0  0  0
   61.3140   34.0730   51.6480 H   0  0  0  0  0  0  0  0  0  0  0  0
   59.6497   34.0509   49.8982 H   0  0  0  0  0  0  0  0  0  0  0  0
   60.5381   35.4998   46.1847 H   0  0  0  0  0  0  0  0  0  0  0  0
   58.6003   34.9602   44.5285 H   0  0  0  0  0  0  0  0  0  0  0  0
   56.1449   32.9019   45.3212 H   0  0  0  0  0  0  0  0  0  0  0  0
   57.1889   32.8279   43.8214 H   0  0  0  0  0  0  0  0  0  0  0  0
   58.7933   30.9249   43.7367 H   0  0  0  0  0  0  0  0  0  0  0  0
   58.9696   30.4884   45.4776 H   0  0  0  0  0  0  0  0  0  0  0  0
   59.1251   28.4873   44.0407 H   0  0  0  0  0  0  0  0  0  0  0  0
   57.6327   28.4585   45.1007 H   0  0  0  0  0  0  0  0  0  0  0  0
   56.8637   30.4878   42.1975 H   0  0  0  0  0  0  0  0  0  0  0  0
   55.4973   29.2889   42.3790 H   0  0  0  0  0  0  0  0  0  0  0  0
   55.2032   31.2666   43.8387 H   0  0  0  0  0  0  0  0  0  0  0  0
   55.3925   29.7199   44.7631 H   0  0  0  0  0  0  0  0  0  0  0  0
   62.8062   33.2178   47.0533 H   0  0  0  0  0  0  0  0  0  0  0  0
  1  2  1  0
  2  3  1  0
  3  4  2  0
  4  5  1  0
  5  6  2  0
  6  7  1  0
  7  8  1  0
  8  9  2  0
  9 10  1  0
 10 11  2  0
 11 12  1  0
 12 13  1  0
 13 14  1  0
 14 15  1  0
 15 16  1  0
 16 17  1  0
 17 18  1  0
 11 19  1  0
  7 20  2  0
 20  3  1  0
 19  8  1  0
 18 13  1  0
  1 21  1  0
  1 22  1  0
  1 23  1  0
  4 24  1  0
  5 25  1  0
  6 26  1  0
  9 27  1  0
 10 28  1  0
 12 29  1  0
 12 30  1  0
 14 31  1  0
 14 32  1  0
 15 33  1  0
 15 34  1  0
 17 35  1  0
 17 36  1  0
 18 37  1  0
 18 38  1  0
 20 39  1  0
M  CHG  1   5   1
M  END
>  <UniqueID>  (44) 
43

>  <SMILES>  (44) 
COc1c[nH+]cc(-c2ccc(CN3CCOCC3)s2)c1

>  <Energy>  (44) 
83.19992600589873

>  <Genealogy>  (44) 
COc1c[nH+]cc(-c2ccc(CN3CCOCC3)s2)c1 (protonated)
COc1c[nH+]cc(-c2ccc(CN3CCOCC3)s2)c1 (3D coordinates assigned)
COc1c[nH+]cc(-c2ccc(CN3CCOCC3)s2)c1 (nonaromatic ring conformer: 83.19992600589873 kcal/mol)

>  <smiles>  (44) 
COc1cncc(-c2ccc(CN3CCOCC3)s2)c1

>  <score_type>  (44) 
oracle

>  <origin>  (44) 
adg

>  <m_score__min__energy>  (44) 
-6.1299999999999999

>  <m_primary>  (44) 
energy

$$$$
44:0
     RDKit          3D

 41 42  0  0  0  0  0  0  0  0999 V2000
   58.5550   27.6150   47.6360 C   0  0  0  0  0  0  0  0  0  0  0  0
   58.0030   26.6240   46.6160 C   0  0  0  0  0  0  0  0  0  0  0  0
   56.8860   27.2240   45.7440 C   0  0  0  0  0  0  0  0  0  0  0  0
   57.3620   28.3410   44.9080 N   0  0  0  0  0  0  0  0  0  0  0  0
   58.5480   28.1400   44.0560 C   0  0  0  0  0  0  0  0  0  0  0  0
   59.7330   29.0140   44.5000 C   0  0  0  0  0  0  0  0  0  0  0  0
   60.7630   28.2250   45.3040 C   0  0  0  0  0  0  0  0  0  0  0  0
   56.5090   29.4920   44.7080 C   0  0  0  0  0  0  0  0  0  0  0  0
   55.2620   29.3790   44.8590 O   0  0  0  0  0  0  0  0  0  0  0  0
   57.0610   30.8330   44.3040 C   0  0  0  0  0  0  0  0  0  0  0  0
   57.8030   31.4480   45.4050 N   0  0  0  0  0  0  0  0  0  0  0  0
   58.1670   30.8520   46.5700 C   0  0  0  0  0  0  0  0  0  0  0  0
   58.8900   31.6730   47.3700 N   0  0  0  0  0  0  0  0  0  0  0  0
   58.9890   32.8160   46.6720 C   0  0  0  0  0  0  0  0  0  0  0  0
   59.6430   33.9910   47.0360 C   0  0  0  0  0  0  0  0  0  0  0  0
   59.6180   35.0610   46.1220 C   0  0  0  0  0  0  0  0  0  0  0  0
   58.9510   34.9280   44.8830 C   0  0  0  0  0  0  0  0  0  0  0  0
   58.3010   33.7260   44.5450 C   0  0  0  0  0  0  0  0  0  0  0  0
   58.3390   32.6850   45.4770 C   0  0  0  0  0  0  0  0  0  0  0  0
   58.3502   27.2474   48.6523 H   0  0  0  0  0  0  0  0  0  0  0  0
   59.6410   27.7190   47.4956 H   0  0  0  0  0  0  0  0  0  0  0  0
   58.0718   28.5931   47.4956 H   0  0  0  0  0  0  0  0  0  0  0  0
   58.8248   26.3003   45.9604 H   0  0  0  0  0  0  0  0  0  0  0  0
   57.5698   25.7813   47.1747 H   0  0  0  0  0  0  0  0  0  0  0  0
   56.4891   26.4358   45.0873 H   0  0  0  0  0  0  0  0  0  0  0  0
   56.1103   27.6171   46.4176 H   0  0  0  0  0  0  0  0  0  0  0  0
   58.8475   27.0829   44.1084 H   0  0  0  0  0  0  0  0  0  0  0  0
   58.2803   28.4281   43.0287 H   0  0  0  0  0  0  0  0  0  0  0  0
   60.2227   29.4273   43.6059 H   0  0  0  0  0  0  0  0  0  0  0  0
   59.3398   29.8123   45.1467 H   0  0  0  0  0  0  0  0  0  0  0  0
   60.5768   28.3677   46.3787 H   0  0  0  0  0  0  0  0  0  0  0  0
   60.6811   27.1564   45.0564 H   0  0  0  0  0  0  0  0  0  0  0  0
   61.7734   28.5824   45.0564 H   0  0  0  0  0  0  0  0  0  0  0  0
   57.7356   30.7004   43.4454 H   0  0  0  0  0  0  0  0  0  0  0  0
   56.2214   31.4914   44.0364 H   0  0  0  0  0  0  0  0  0  0  0  0
   57.9040   29.8173   46.8349 H   0  0  0  0  0  0  0  0  0  0  0  0
   59.2870   31.4570   48.3110 H   0  0  0  0  0  0  0  0  0  0  0  0
   60.1602   34.0793   48.0028 H   0  0  0  0  0  0  0  0  0  0  0  0
   60.1206   36.0066   46.3735 H   0  0  0  0  0  0  0  0  0  0  0  0
   58.9397   35.7712   44.1766 H   0  0  0  0  0  0  0  0  0  0  0  0
   57.7819   33.6101   43.5821 H   0  0  0  0  0  0  0  0  0  0  0  0
  1  2  1  0
  2  3  1  0
  3  4  1  0
  4  5  1  0
  5  6  1  0
  6  7  1  0
  4  8  1  0
  8  9  2  0
  8 10  1  0
 10 11  1  0
 11 12  1  0
 12 13  2  0
 13 14  1  0
 14 15  2  0
 15 16  1  0
 16 17  2  0
 17 18  1  0
 18 19  2  0
 19 11  1  0
 19 14  1  0
  1 20  1  0
  1 21  1  0
  1 22  1  0
  2 23  1  0
  2 24  1  0
  3 25  1  0
  3 26  1  0
  5 27  1  0
  5 28  1  0
  6 29  1  0
  6 30  1  0
  7 31  1  0
  7 32  1  0
  7 33  1  0
 10 34  1  0
 10 35  1  0
 12 36  1  0
 13 37  1  0
 15 38  1  0
 16 39  1  0
 17 40  1  0
 18 41  1  0
M  CHG  1  13   1
M  END
>  <UniqueID>  (45) 
44

>  <SMILES>  (45) 
CCCN(CCC)C(=O)Cn1c[nH+]c2ccccc21

>  <Energy>  (45) 
71.37311908139829

>  <Genealogy>  (45) 
CCCN(CCC)C(=O)Cn1c[nH+]c2ccccc21 (protonated)
CCCN(CCC)C(=O)Cn1c[nH+]c2ccccc21 (3D coordinates assigned)
CCCN(CCC)C(=O)Cn1c[nH+]c2ccccc21 (optimized conformer: 71.37311908139829 kcal/mol)

>  <smiles>  (45) 
CCCN(CCC)C(=O)Cn1cnc2ccccc21

>  <score_type>  (45) 
oracle

>  <origin>  (45) 
adg

>  <m_score__min__energy>  (45) 
-4.6399999999999997

>  <m_primary>  (45) 
energy

$$$$
45:0
     RDKit          3D

 36 37  0  0  0  0  0  0  0  0999 V2000
   58.4530   28.5130   44.5050 C   0  0  0  0  0  0  0  0  0  0  0  0
   57.1660   29.2320   44.1200 C   0  0  0  0  0  0  0  0  0  0  0  0
   57.3570   30.7130   44.1710 C   0  0  0  0  0  0  0  0  0  0  0  0
   56.9910   31.4740   45.2240 N   0  0  0  0  0  0  0  0  0  0  0  0
   57.3570   32.7750   45.0620 C   0  0  0  0  0  0  0  0  0  0  0  0
   57.0500   33.8180   46.0970 C   0  0  0  0  0  0  0  0  0  0  0  0
   58.0850   33.9310   47.1470 N   0  0  0  0  0  0  0  0  0  0  0  0
   59.1270   34.9560   46.9450 C   0  0  0  0  0  0  0  0  0  0  0  0
   60.3920   34.3980   46.2870 C   0  0  0  0  0  0  0  0  0  0  0  0
   60.8250   33.1650   46.9520 N   0  0  0  0  0  0  0  0  0  0  0  0
   62.2370   32.8690   47.0470 C   0  0  0  0  0  0  0  0  0  0  0  0
   62.7440   31.4610   47.1450 C   0  0  0  0  0  0  0  0  0  0  0  0
   63.0760   33.8100   47.0720 O   0  0  0  0  0  0  0  0  0  0  0  0
   59.8190   32.1120   47.1250 C   0  0  0  0  0  0  0  0  0  0  0  0
   58.5440   32.6740   47.7670 C   0  0  0  0  0  0  0  0  0  0  0  0
   58.0090   33.0580   43.8630 C   0  0  0  0  0  0  0  0  0  0  0  0
   58.1570   31.6220   43.0050 S   0  0  0  0  0  0  0  0  0  0  0  0
   58.5339   28.4678   45.6011 H   0  0  0  0  0  0  0  0  0  0  0  0
   58.4391   27.4920   44.0959 H   0  0  0  0  0  0  0  0  0  0  0  0
   59.3151   29.0602   44.0959 H   0  0  0  0  0  0  0  0  0  0  0  0
   56.8795   28.9392   43.0991 H   0  0  0  0  0  0  0  0  0  0  0  0
   56.3757   28.9511   44.8317 H   0  0  0  0  0  0  0  0  0  0  0  0
   56.9576   34.7915   45.5933 H   0  0  0  0  0  0  0  0  0  0  0  0
   56.1169   33.5148   46.5944 H   0  0  0  0  0  0  0  0  0  0  0  0
   58.7184   35.7501   46.3028 H   0  0  0  0  0  0  0  0  0  0  0  0
   59.4115   35.3374   47.9367 H   0  0  0  0  0  0  0  0  0  0  0  0
   60.1829   34.1825   45.2288 H   0  0  0  0  0  0  0  0  0  0  0  0
   61.1939   35.1458   46.3746 H   0  0  0  0  0  0  0  0  0  0  0  0
   62.8450   31.1805   48.2038 H   0  0  0  0  0  0  0  0  0  0  0  0
   62.0344   30.7806   46.6515 H   0  0  0  0  0  0  0  0  0  0  0  0
   63.7245   31.3892   46.6515 H   0  0  0  0  0  0  0  0  0  0  0  0
   59.5699   31.6867   46.1416 H   0  0  0  0  0  0  0  0  0  0  0  0
   60.2325   31.3356   47.7854 H   0  0  0  0  0  0  0  0  0  0  0  0
   57.7446   31.9246   47.6703 H   0  0  0  0  0  0  0  0  0  0  0  0
   58.7787   32.8956   48.8186 H   0  0  0  0  0  0  0  0  0  0  0  0
   58.3637   34.0467   43.5366 H   0  0  0  0  0  0  0  0  0  0  0  0
  1  2  1  0
  2  3  1  0
  3  4  2  0
  4  5  1  0
  5  6  1  0
  6  7  1  0
  7  8  1  0
  8  9  1  0
  9 10  1  0
 10 11  1  0
 11 12  1  0
 11 13  2  0
 10 14  1  0
 14 15  1  0
  5 16  2  0
 16 17  1  0
 17  3  1  0
 15  7  1  0
  1 18  1  0
  1 19  1  0
  1 20  1  0
  2 21  1  0
  2 22  1  0
  6 23  1  0
  6 24  1  0
  8 25  1  0
  8 26  1  0
  9 27  1  0
  9 28  1  0
 12 29  1  0
 12 30  1  0
 12 31  1  0
 14 32  1  0
 14 33  1  0
 15 34  1  0
 15 35  1  0
 16 36  1  0
M  END
>  <UniqueID>  (46) 
45

>  <SMILES>  (46) 
CCc1nc(CN2CCN(C(C)=O)CC2)cs1

>  <Energy>  (46) 
66.77618427695528

>  <Genealogy>  (46) 
CCc1nc(CN2CCN(C(C)=O)CC2)cs1 (3D coordinates assigned)
CCc1nc(CN2CCN(C(C)=O)CC2)cs1 (nonaromatic ring conformer: 66.77618427695528 kcal/mol)

>  <smiles>  (46) 
CCc1nc(CN2CCN(C(C)=O)CC2)cs1

>  <score_type>  (46) 
oracle

>  <origin>  (46) 
adg

>  <m_score__min__energy>  (46) 
-6.7999999999999998

>  <m_primary>  (46) 
energy

$$$$
46:0
     RDKit          3D

 49 51  0  0  0  0  0  0  0  0999 V2000
   55.1130   23.2640   47.6350 C   0  0  0  0  0  0  0  0  0  0  0  0
   56.5580   23.2600   48.1240 C   0  0  0  0  0  0  0  0  0  0  0  0
   57.4380   22.8060   47.0950 O   0  0  0  0  0  0  0  0  0  0  0  0
   57.1970   22.8870   45.7120 C   0  0  0  0  0  0  0  0  0  0  0  0
   56.9230   21.7470   44.9270 C   0  0  0  0  0  0  0  0  0  0  0  0
   56.6400   21.8820   43.5650 C   0  0  0  0  0  0  0  0  0  0  0  0
   56.6200   23.1440   42.9730 C   0  0  0  0  0  0  0  0  0  0  0  0
   56.9010   24.2780   43.7380 C   0  0  0  0  0  0  0  0  0  0  0  0
   57.2190   24.1540   45.0960 C   0  0  0  0  0  0  0  0  0  0  0  0
   57.4870   25.3390   45.8540 N   0  0  0  0  0  0  0  0  0  0  0  0
   57.0250   26.6520   45.5160 C   0  0  0  0  0  0  0  0  0  0  0  0
   55.9340   27.0520   46.0040 O   0  0  0  0  0  0  0  0  0  0  0  0
   57.7440   27.4950   44.4920 C   0  0  0  0  0  0  0  0  0  0  0  0
   57.5020   28.9200   44.7080 N   0  0  0  0  0  0  0  0  0  0  0  0
   56.2560   29.5840   44.6250 C   0  0  0  0  0  0  0  0  0  0  0  0
   55.1480   28.9870   44.6310 O   0  0  0  0  0  0  0  0  0  0  0  0
   56.3730   30.9960   44.5120 N   0  0  0  0  0  0  0  0  0  0  0  0
   57.8050   31.3300   44.5010 C   0  0  1  0  0  0  0  0  0  0  0  0
   58.1590   32.0100   43.1580 C   0  0  0  0  0  0  0  0  0  0  0  0
   57.2230   31.6040   42.0180 C   0  0  0  0  0  0  0  0  0  0  0  0
   58.1930   32.1870   45.7080 C   0  0  0  0  0  0  0  0  0  0  0  0
   58.5110   31.5710   46.9380 C   0  0  0  0  0  0  0  0  0  0  0  0
   58.8800   32.3370   48.0460 C   0  0  0  0  0  0  0  0  0  0  0  0
   58.9440   33.7270   47.9480 C   0  0  0  0  0  0  0  0  0  0  0  0
   58.6400   34.3550   46.7400 C   0  0  0  0  0  0  0  0  0  0  0  0
   58.2710   33.5950   45.6260 C   0  0  0  0  0  0  0  0  0  0  0  0
   58.4540   29.9680   44.5900 C   0  0  0  0  0  0  0  0  0  0  0  0
   59.6960   29.7600   44.5190 O   0  0  0  0  0  0  0  0  0  0  0  0
   54.4332   23.2659   48.4998 H   0  0  0  0  0  0  0  0  0  0  0  0
   54.9344   24.1626   47.0263 H   0  0  0  0  0  0  0  0  0  0  0  0
   54.9294   22.3664   47.0263 H   0  0  0  0  0  0  0  0  0  0  0  0
   56.8425   24.2811   48.4179 H   0  0  0  0  0  0  0  0  0  0  0  0
   56.6384   22.5788   48.9840 H   0  0  0  0  0  0  0  0  0  0  0  0
   56.9322   20.7486   45.3886 H   0  0  0  0  0  0  0  0  0  0  0  0
   56.4322   20.9888   42.9576 H   0  0  0  0  0  0  0  0  0  0  0  0
   56.3830   23.2465   41.9037 H   0  0  0  0  0  0  0  0  0  0  0  0
   56.8724   25.2737   43.2714 H   0  0  0  0  0  0  0  0  0  0  0  0
   58.8243   27.3008   44.5637 H   0  0  0  0  0  0  0  0  0  0  0  0
   57.3639   27.2270   43.4951 H   0  0  0  0  0  0  0  0  0  0  0  0
   58.0981   33.1003   43.2903 H   0  0  0  0  0  0  0  0  0  0  0  0
   59.1734   31.6861   42.8823 H   0  0  0  0  0  0  0  0  0  0  0  0
   56.2897   31.1992   42.4364 H   0  0  0  0  0  0  0  0  0  0  0  0
   56.9957   32.4844   41.3990 H   0  0  0  0  0  0  0  0  0  0  0  0
   57.7106   30.8365   41.3990 H   0  0  0  0  0  0  0  0  0  0  0  0
   58.4676   30.4753   47.0246 H   0  0  0  0  0  0  0  0  0  0  0  0
   59.1209   31.8427   48.9987 H   0  0  0  0  0  0  0  0  0  0  0  0
   59.2340   34.3276   48.8228 H   0  0  0  0  0  0  0  0  0  0  0  0
   58.6907   35.4512   46.6637 H   0  0  0  0  0  0  0  0  0  0  0  0
   58.0391   34.0987   44.6760 H   0  0  0  0  0  0  0  0  0  0  0  0
  1  2  1  0
  2  3  1  0
  3  4  1  0
  4  5  2  0
  5  6  1  0
  6  7  2  0
  7  8  1  0
  8  9  2  0
  9 10  1  0
 10 11  1  0
 11 12  2  0
 11 13  1  0
 13 14  1  0
 14 15  1  0
 15 16  2  0
 15 17  1  0
 17 18  1  0
 18 19  1  6
 19 20  1  0
 18 21  1  0
 21 22  2  0
 22 23  1  0
 23 24  2  0
 24 25  1  0
 25 26  2  0
 18 27  1  0
 27 28  2  0
  9  4  1  0
 27 14  1  0
 26 21  1  0
  1 29  1  0
  1 30  1  0
  1 31  1  0
  2 32  1  0
  2 33  1  0
  5 34  1  0
  6 35  1  0
  7 36  1  0
  8 37  1  0
 13 38  1  0
 13 39  1  0
 19 40  1  0
 19 41  1  0
 20 42  1  0
 20 43  1  0
 20 44  1  0
 22 45  1  0
 23 46  1  0
 24 47  1  0
 25 48  1  0
 26 49  1  0
M  CHG  2  10  -1  17  -1
M  END
>  <UniqueID>  (47) 
46

>  <SMILES>  (47) 
CCOc1ccccc1[N-]C(=O)CN1C(=O)[N-][C@@](CC)(c2ccccc2)C1=O

>  <Energy>  (47) 
73.77832977606387

>  <Genealogy>  (47) 
CCOc1ccccc1[N-]C(=O)CN1C(=O)[N-]C(CC)(c2ccccc2)C1=O (protonated)
CCOc1ccccc1[N-]C(=O)CN1C(=O)[N-][C@@](CC)(c2ccccc2)C1=O (chirality)
CCOc1ccccc1[N-]C(=O)CN1C(=O)[N-][C@@](CC)(c2ccccc2)C1=O (3D coordinates assigned)
CCOc1ccccc1[N-]C(=O)CN1C(=O)[N-][C@@](CC)(c2ccccc2)C1=O (nonaromatic ring conformer: 73.77832977606387 kcal/mol)

>  <smiles>  (47) 
CCOc1ccccc1NC(=O)CN1C(=O)NC(CC)(c2ccccc2)C1=O

>  <score_type>  (47) 
oracle

>  <origin>  (47) 
adg

>  <m_score__min__energy>  (47) 
-11.98

>  <m_primary>  (47) 
energy

$$$$
