0:0
     RDKit          3D

 34 36  0  0  0  0  0  0  0  0999 V2000
   56.8430   34.4060   44.8730 C   0  0  0  0  0  0  0  0  0  0  0  0
   58.0510   34.1920   45.7370 C   0  0  0  0  0  0  0  0  0  0  0  0
   59.2820   34.7570   45.3820 C   0  0  0  0  0  0  0  0  0  0  0  0
   60.4000   34.5890   46.2040 C   0  0  0  0  0  0  0  0  0  0  0  0
   60.3030   33.8620   47.4040 C   0  0  0  0  0  0  0  0  0  0  0  0
   61.5000   33.6940   48.2660 C   0  0  0  0  0  0  0  0  0  0  0  0
   61.5500   33.7960   49.6540 C   0  0  0  0  0  0  0  0  0  0  0  0
   62.8220   33.5730   50.0200 N   0  0  0  0  0  0  0  0  0  0  0  0
   63.4120   33.5610   51.2450 C   0  0  0  0  0  0  0  0  0  0  0  0
   62.6230   33.8320   52.4940 C   0  0  0  0  0  0  0  0  0  0  0  0
   64.7910   33.2970   51.2980 C   0  0  0  0  0  0  0  0  0  0  0  0
   65.4900   33.0450   50.0960 C   0  0  0  0  0  0  0  0  0  0  0  0
   66.9680   32.7970   50.1300 C   0  0  0  0  0  0  0  0  0  0  0  0
   64.8290   33.0860   48.8980 N   0  0  0  0  0  0  0  0  0  0  0  0
   63.4980   33.3460   48.8860 C   0  0  0  0  0  0  0  0  0  0  0  0
   62.7350   33.4090   47.7780 N   0  0  0  0  0  0  0  0  0  0  0  0
   59.0580   33.3110   47.7640 C   0  0  0  0  0  0  0  0  0  0  0  0
   57.9410   33.4810   46.9400 C   0  0  0  0  0  0  0  0  0  0  0  0
   55.9598   34.5625   45.5098 H   0  0  0  0  0  0  0  0  0  0  0  0
   56.9985   35.2906   44.2379 H   0  0  0  0  0  0  0  0  0  0  0  0
   56.6851   33.5218   44.2379 H   0  0  0  0  0  0  0  0  0  0  0  0
   59.3697   35.3363   44.4510 H   0  0  0  0  0  0  0  0  0  0  0  0
   61.3641   35.0293   45.9097 H   0  0  0  0  0  0  0  0  0  0  0  0
   60.7062   34.0175   50.3240 H   0  0  0  0  0  0  0  0  0  0  0  0
   63.2460   33.6180   53.3749 H   0  0  0  0  0  0  0  0  0  0  0  0
   62.3143   34.8877   52.5109 H   0  0  0  0  0  0  0  0  0  0  0  0
   61.7308   33.1888   52.5109 H   0  0  0  0  0  0  0  0  0  0  0  0
   65.3196   33.2866   52.2626 H   0  0  0  0  0  0  0  0  0  0  0  0
   67.3063   32.7402   51.1751 H   0  0  0  0  0  0  0  0  0  0  0  0
   67.1925   31.8486   49.6199 H   0  0  0  0  0  0  0  0  0  0  0  0
   67.4897   33.6202   49.6199 H   0  0  0  0  0  0  0  0  0  0  0  0
   65.3370   32.9230   47.9990 H   0  0  0  0  0  0  0  0  0  0  0  0
   58.9634   32.7423   48.7008 H   0  0  0  0  0  0  0  0  0  0  0  0
   56.9715   33.0548   47.2373 H   0  0  0  0  0  0  0  0  0  0  0  0
  1  2  1  0
  2  3  2  0
  3  4  1  0
  4  5  2  0
  5  6  1  0
  6  7  2  0
  7  8  1  0
  8  9  1  0
  9 10  1  0
  9 11  2  0
 11 12  1  0
 12 13  1  0
 12 14  2  0
 14 15  1  0
 15 16  2  0
  5 17  1  0
 17 18  2  0
 18  2  1  0
 16  6  1  0
 15  8  1  0
  1 19  1  0
  1 20  1  0
  1 21  1  0
  3 22  1  0
  4 23  1  0
  7 24  1  0
 10 25  1  0
 10 26  1  0
 10 27  1  0
 11 28  1  0
 13 29  1  0
 13 30  1  0
 13 31  1  0
 14 32  1  0
 17 33  1  0
 18 34  1  0
M  CHG  1  14   1
M  END
>  <UniqueID>  (1) 
1

>  <SMILES>  (1) 
Cc1ccc(-c2cn3c(C)cc(C)[nH+]c3n2)cc1

>  <Energy>  (1) 
70.48843779984088

>  <Genealogy>  (1) 
Cc1ccc(-c2cn3c(C)cc(C)[nH+]c3n2)cc1 (protonated)
Cc1ccc(-c2cn3c(C)cc(C)[nH+]c3n2)cc1 (3D coordinates assigned)
Cc1ccc(-c2cn3c(C)cc(C)[nH+]c3n2)cc1 (optimized conformer: 70.48843779984088 kcal/mol)

>  <smiles>  (1) 
Cc1ccc(-c2cn3c(C)cc(C)nc3n2)cc1

>  <score_type>  (1) 
oracle

>  <origin>  (1) 
adg

>  <m_score__min__energy>  (1) 
-5.46

>  <m_primary>  (1) 
energy

$$$$
1:0
     RDKit          3D

 46 47  0  0  0  0  0  0  0  0999 V2000
   61.0620   28.6280   44.8660 C   0  0  0  0  0  0  0  0  0  0  0  0
   60.1740   27.8940   45.8830 C   0  0  0  0  0  0  0  0  0  0  0  0
   58.7510   27.8130   45.4810 N   0  0  0  0  0  0  0  0  0  0  0  0
   58.1330   26.5150   45.8290 C   0  0  0  0  0  0  0  0  0  0  0  0
   56.7090   26.7090   46.3420 C   0  0  0  0  0  0  0  0  0  0  0  0
   58.5230   28.2190   44.0720 C   0  0  0  0  0  0  0  0  0  0  0  0
   57.2010   28.9790   43.9740 C   0  0  0  0  0  0  0  0  0  0  0  0
   57.2860   30.2830   44.7090 C   0  0  0  0  0  0  0  0  0  0  0  0
   56.2620   31.0140   44.7920 O   0  0  0  0  0  0  0  0  0  0  0  0
   58.5250   30.6860   45.3140 N   0  0  0  0  0  0  0  0  0  0  0  0
   58.7840   32.0070   45.8180 C   0  0  0  0  0  0  0  0  0  0  0  0
   58.1830   33.1410   45.2430 C   0  0  0  0  0  0  0  0  0  0  0  0
   58.4770   34.4160   45.7300 C   0  0  0  0  0  0  0  0  0  0  0  0
   59.3780   34.5760   46.7860 C   0  0  0  0  0  0  0  0  0  0  0  0
   59.9980   33.4560   47.3600 C   0  0  0  0  0  0  0  0  0  0  0  0
   60.9610   33.6260   48.4680 C   0  0  0  0  0  0  0  0  0  0  0  0
   62.3250   33.8110   48.3450 C   0  0  0  0  0  0  0  0  0  0  0  0
   63.3840   33.8380   46.7540 Br  0  0  0  0  0  0  0  0  0  0  0  0
   62.7930   33.8990   49.6410 C   0  0  0  0  0  0  0  0  0  0  0  0
   61.7610   33.7820   50.4980 N   0  0  0  0  0  0  0  0  0  0  0  0
   60.6550   33.6270   49.7850 N   0  0  0  0  0  0  0  0  0  0  0  0
   59.3350   33.4700   50.3870 C   0  0  0  0  0  0  0  0  0  0  0  0
   59.7060   32.1760   46.8620 C   0  0  0  0  0  0  0  0  0  0  0  0
   61.8029   29.2404   45.4008 H   0  0  0  0  0  0  0  0  0  0  0  0
   61.5816   27.8922   44.2346 H   0  0  0  0  0  0  0  0  0  0  0  0
   60.4372   29.2768   44.2346 H   0  0  0  0  0  0  0  0  0  0  0  0
   60.5591   26.8709   46.0057 H   0  0  0  0  0  0  0  0  0  0  0  0
   60.2116   28.4714   46.8185 H   0  0  0  0  0  0  0  0  0  0  0  0
   58.1092   25.8761   44.9339 H   0  0  0  0  0  0  0  0  0  0  0  0
   58.7308   26.0431   46.6227 H   0  0  0  0  0  0  0  0  0  0  0  0
   56.7123   26.7086   47.4420 H   0  0  0  0  0  0  0  0  0  0  0  0
   56.3153   27.6691   45.9769 H   0  0  0  0  0  0  0  0  0  0  0  0
   56.0729   25.8892   45.9769 H   0  0  0  0  0  0  0  0  0  0  0  0
   59.3459   28.8684   43.7388 H   0  0  0  0  0  0  0  0  0  0  0  0
   58.4828   27.3250   43.4324 H   0  0  0  0  0  0  0  0  0  0  0  0
   56.9742   29.1748   42.9156 H   0  0  0  0  0  0  0  0  0  0  0  0
   56.4063   28.3679   44.4268 H   0  0  0  0  0  0  0  0  0  0  0  0
   59.2560   29.9530   45.4590 H   0  0  0  0  0  0  0  0  0  0  0  0
   57.4786   33.0230   44.4064 H   0  0  0  0  0  0  0  0  0  0  0  0
   57.9975   35.2981   45.2806 H   0  0  0  0  0  0  0  0  0  0  0  0
   59.6018   35.5829   47.1683 H   0  0  0  0  0  0  0  0  0  0  0  0
   63.8450   34.0423   49.9286 H   0  0  0  0  0  0  0  0  0  0  0  0
   59.4282   33.4811   51.4830 H   0  0  0  0  0  0  0  0  0  0  0  0
   58.6848   34.2971   50.0659 H   0  0  0  0  0  0  0  0  0  0  0  0
   58.8970   32.5134   50.0659 H   0  0  0  0  0  0  0  0  0  0  0  0
   60.2053   31.2966   47.2949 H   0  0  0  0  0  0  0  0  0  0  0  0
  1  2  1  0
  2  3  1  0
  3  4  1  0
  4  5  1  0
  3  6  1  0
  6  7  1  0
  7  8  1  0
  8  9  2  0
  8 10  1  0
 10 11  1  0
 11 12  2  0
 12 13  1  0
 13 14  2  0
 14 15  1  0
 15 16  1  0
 16 17  2  0
 17 18  1  0
 17 19  1  0
 19 20  2  0
 20 21  1  0
 21 22  1  0
 15 23  2  0
 23 11  1  0
 21 16  1  0
  1 24  1  0
  1 25  1  0
  1 26  1  0
  2 27  1  0
  2 28  1  0
  4 29  1  0
  4 30  1  0
  5 31  1  0
  5 32  1  0
  5 33  1  0
  6 34  1  0
  6 35  1  0
  7 36  1  0
  7 37  1  0
 10 38  1  0
 12 39  1  0
 13 40  1  0
 14 41  1  0
 19 42  1  0
 22 43  1  0
 22 44  1  0
 22 45  1  0
 23 46  1  0
M  END
>  <UniqueID>  (2) 
2

>  <SMILES>  (2) 
CCN(CC)CCC(=O)Nc1cccc(-c2c(Br)cnn2C)c1

>  <Energy>  (2) 
82.22451371399481

>  <Genealogy>  (2) 
CCN(CC)CCC(=O)Nc1cccc(-c2c(Br)cnn2C)c1 (3D coordinates assigned)
CCN(CC)CCC(=O)Nc1cccc(-c2c(Br)cnn2C)c1 (optimized conformer: 82.22451371399481 kcal/mol)

>  <smiles>  (2) 
CCN(CC)CCC(=O)Nc1cccc(-c2c(Br)cnn2C)c1

>  <score_type>  (2) 
oracle

>  <origin>  (2) 
adg

>  <m_score__min__energy>  (2) 
-7.8899999999999997

>  <m_primary>  (2) 
energy

$$$$
2:0
     RDKit          3D

 57 59  0  0  0  0  0  0  0  0999 V2000
   56.7560   30.4450   43.9310 C   0  0  0  0  0  0  0  0  0  0  0  0
   58.1860   30.9700   43.7680 C   0  0  0  0  0  0  0  0  0  0  0  0
   58.5060   32.0520   44.7170 N   0  0  0  0  0  0  0  0  0  0  0  0
   57.3410   32.6720   45.3840 C   0  0  0  0  0  0  0  0  0  0  0  0
   57.2300   34.2060   45.2340 C   0  0  0  0  0  0  0  0  0  0  0  0
   58.5610   34.9290   44.9470 C   0  0  0  0  0  0  0  0  0  0  0  0
   59.6300   34.7130   46.0310 C   0  0  0  0  0  0  0  0  0  0  0  0
   60.3020   33.4590   45.9080 O   0  0  0  0  0  0  0  0  0  0  0  0
   61.3240   32.9740   46.7410 C   0  0  0  0  0  0  0  0  0  0  0  0
   62.5930   33.5850   46.7800 C   0  0  0  0  0  0  0  0  0  0  0  0
   63.5950   33.0890   47.6140 C   0  0  0  0  0  0  0  0  0  0  0  0
   63.3430   31.9930   48.4330 C   0  0  0  0  0  0  0  0  0  0  0  0
   62.0860   31.3900   48.4280 C   0  0  0  0  0  0  0  0  0  0  0  0
   61.0610   31.8620   47.5850 C   0  0  0  0  0  0  0  0  0  0  0  0
   59.6850   31.1970   47.6730 C   0  0  0  0  0  0  0  0  0  0  0  0
   59.1950   31.0600   49.1080 C   0  0  0  0  0  0  0  0  0  0  0  0
   58.5070   32.1370   49.7000 C   0  0  0  0  0  0  0  0  0  0  0  0
   58.0410   32.0450   51.0140 C   0  0  0  0  0  0  0  0  0  0  0  0
   58.2600   30.8830   51.7570 C   0  0  0  0  0  0  0  0  0  0  0  0
   58.9480   29.8100   51.1860 C   0  0  0  0  0  0  0  0  0  0  0  0
   59.4130   29.8940   49.8700 C   0  0  0  0  0  0  0  0  0  0  0  0
   59.5500   29.9050   46.8680 C   0  0  0  0  0  0  0  0  0  0  0  0
   60.6050   29.5400   46.0090 C   0  0  0  0  0  0  0  0  0  0  0  0
   60.5240   28.3820   45.2290 C   0  0  0  0  0  0  0  0  0  0  0  0
   59.3890   27.5740   45.2930 C   0  0  0  0  0  0  0  0  0  0  0  0
   58.3330   27.9200   46.1380 C   0  0  0  0  0  0  0  0  0  0  0  0
   58.4070   29.0760   46.9210 C   0  0  0  0  0  0  0  0  0  0  0  0
   56.5173   30.3574   45.0012 H   0  0  0  0  0  0  0  0  0  0  0  0
   56.0524   31.1435   43.4544 H   0  0  0  0  0  0  0  0  0  0  0  0
   56.6715   29.4572   43.4544 H   0  0  0  0  0  0  0  0  0  0  0  0
   58.8871   30.1386   43.9327 H   0  0  0  0  0  0  0  0  0  0  0  0
   58.2752   31.3818   42.7519 H   0  0  0  0  0  0  0  0  0  0  0  0
   59.1340   31.6660   45.4610 H   0  0  0  0  0  0  0  0  0  0  0  0
   59.0620   32.7870   44.2220 H   0  0  0  0  0  0  0  0  0  0  0  0
   56.4298   32.2230   44.9621 H   0  0  0  0  0  0  0  0  0  0  0  0
   57.4707   32.4813   46.4596 H   0  0  0  0  0  0  0  0  0  0  0  0
   56.5398   34.4190   44.4044 H   0  0  0  0  0  0  0  0  0  0  0  0
   56.8761   34.5856   46.2039 H   0  0  0  0  0  0  0  0  0  0  0  0
   58.9575   34.5589   43.9900 H   0  0  0  0  0  0  0  0  0  0  0  0
   58.3419   36.0067   44.9229 H   0  0  0  0  0  0  0  0  0  0  0  0
   60.3747   35.5190   45.9548 H   0  0  0  0  0  0  0  0  0  0  0  0
   59.1181   34.7186   47.0046 H   0  0  0  0  0  0  0  0  0  0  0  0
   62.7954   34.4614   46.1468 H   0  0  0  0  0  0  0  0  0  0  0  0
   64.5864   33.5654   47.6242 H   0  0  0  0  0  0  0  0  0  0  0  0
   64.1371   31.6014   49.0858 H   0  0  0  0  0  0  0  0  0  0  0  0
   61.8921   30.5342   49.0913 H   0  0  0  0  0  0  0  0  0  0  0  0
   59.0013   31.8979   47.1718 H   0  0  0  0  0  0  0  0  0  0  0  0
   58.3352   33.0578   49.1233 H   0  0  0  0  0  0  0  0  0  0  0  0
   57.5001   32.8902   51.4645 H   0  0  0  0  0  0  0  0  0  0  0  0
   57.8910   30.8129   52.7909 H   0  0  0  0  0  0  0  0  0  0  0  0
   59.1245   28.8966   51.7730 H   0  0  0  0  0  0  0  0  0  0  0  0
   59.9527   29.0444   49.4261 H   0  0  0  0  0  0  0  0  0  0  0  0
   61.5028   30.1730   45.9510 H   0  0  0  0  0  0  0  0  0  0  0  0
   61.3565   28.1081   44.5642 H   0  0  0  0  0  0  0  0  0  0  0  0
   59.3259   26.6643   44.6778 H   0  0  0  0  0  0  0  0  0  0  0  0
   57.4393   27.2807   46.1880 H   0  0  0  0  0  0  0  0  0  0  0  0
   57.5696   29.3419   47.5829 H   0  0  0  0  0  0  0  0  0  0  0  0
  1  2  1  0
  2  3  1  0
  3  4  1  0
  4  5  1  0
  5  6  1  0
  6  7  1  0
  7  8  1  0
  8  9  1  0
  9 10  2  0
 10 11  1  0
 11 12  2  0
 12 13  1  0
 13 14  2  0
 14 15  1  0
 15 16  1  0
 16 17  2  0
 17 18  1  0
 18 19  2  0
 19 20  1  0
 20 21  2  0
 15 22  1  0
 22 23  2  0
 23 24  1  0
 24 25  2  0
 25 26  1  0
 26 27  2  0
 14  9  1  0
 21 16  1  0
 27 22  1  0
  1 28  1  0
  1 29  1  0
  1 30  1  0
  2 31  1  0
  2 32  1  0
  3 33  1  0
  3 34  1  0
  4 35  1  0
  4 36  1  0
  5 37  1  0
  5 38  1  0
  6 39  1  0
  6 40  1  0
  7 41  1  0
  7 42  1  0
 10 43  1  0
 11 44  1  0
 12 45  1  0
 13 46  1  0
 15 47  1  0
 17 48  1  0
 18 49  1  0
 19 50  1  0
 20 51  1  0
 21 52  1  0
 23 53  1  0
 24 54  1  0
 25 55  1  0
 26 56  1  0
 27 57  1  0
M  CHG  1   3   1
M  END
>  <UniqueID>  (3) 
3

>  <SMILES>  (3) 
CC[NH2+]CCCCOc1ccccc1C(c1ccccc1)c1ccccc1

>  <Energy>  (3) 
61.539572058044136

>  <Genealogy>  (3) 
CC[NH2+]CCCCOc1ccccc1C(c1ccccc1)c1ccccc1 (protonated)
CC[NH2+]CCCCOc1ccccc1C(c1ccccc1)c1ccccc1 (3D coordinates assigned)
CC[NH2+]CCCCOc1ccccc1C(c1ccccc1)c1ccccc1 (optimized conformer: 61.539572058044136 kcal/mol)

>  <smiles>  (3) 
CCNCCCCOc1ccccc1C(c1ccccc1)c1ccccc1

>  <score_type>  (3) 
oracle

>  <origin>  (3) 
adg

>  <m_score__min__energy>  (3) 
-7.0599999999999996

>  <m_primary>  (3) 
energy

$$$$
3:0
     RDKit          3D

 38 40  0  0  0  0  0  0  0  0999 V2000
   56.6320   30.2850   43.1800 C   0  0  0  0  0  0  0  0  0  0  0  0
   56.6100   30.5970   44.5700 O   0  0  0  0  0  0  0  0  0  0  0  0
   57.6000   31.3400   45.2300 C   0  0  0  0  0  0  0  0  0  0  0  0
   57.7360   32.7300   45.0650 C   0  0  0  0  0  0  0  0  0  0  0  0
   58.7380   33.4270   45.7470 C   0  0  0  0  0  0  0  0  0  0  0  0
   59.6180   32.7520   46.6120 C   0  0  0  0  0  0  0  0  0  0  0  0
   60.6880   33.4960   47.3270 C   0  0  0  0  0  0  0  0  0  0  0  0
   61.5470   34.1840   46.6290 N   0  0  0  0  0  0  0  0  0  0  0  0
   62.9330   33.7880   46.3920 C   0  0  0  0  0  0  0  0  0  0  0  0
   63.7230   33.7560   47.7060 C   0  0  0  0  0  0  0  0  0  0  0  0
   63.1640   32.8230   48.6960 N   0  0  0  0  0  0  0  0  0  0  0  0
   64.0100   31.7120   49.1350 C   0  0  0  0  0  0  0  0  0  0  0  0
   61.9880   33.1600   49.4640 C   0  0  0  0  0  0  0  0  0  0  0  0
   62.0350   33.1430   50.8690 C   0  0  0  0  0  0  0  0  0  0  0  0
   60.8940   33.4350   51.6190 C   0  0  0  0  0  0  0  0  0  0  0  0
   59.6950   33.7430   50.9770 C   0  0  0  0  0  0  0  0  0  0  0  0
   59.6320   33.7610   49.5820 C   0  0  0  0  0  0  0  0  0  0  0  0
   60.7720   33.4670   48.8130 C   0  0  0  0  0  0  0  0  0  0  0  0
   59.4830   31.3600   46.7640 C   0  0  0  0  0  0  0  0  0  0  0  0
   58.4810   30.6660   46.0820 C   0  0  0  0  0  0  0  0  0  0  0  0
   56.7088   29.1954   43.0500 H   0  0  0  0  0  0  0  0  0  0  0  0
   55.7062   30.6462   42.7084 H   0  0  0  0  0  0  0  0  0  0  0  0
   57.4980   30.7725   42.7084 H   0  0  0  0  0  0  0  0  0  0  0  0
   57.0508   33.2715   44.3962 H   0  0  0  0  0  0  0  0  0  0  0  0
   58.8390   34.5132   45.6058 H   0  0  0  0  0  0  0  0  0  0  0  0
   62.9491   32.7866   45.9371 H   0  0  0  0  0  0  0  0  0  0  0  0
   63.3990   34.5223   45.7184 H   0  0  0  0  0  0  0  0  0  0  0  0
   64.7570   33.4528   47.4849 H   0  0  0  0  0  0  0  0  0  0  0  0
   63.6722   34.7645   48.1424 H   0  0  0  0  0  0  0  0  0  0  0  0
   64.0335   31.6812   50.2343 H   0  0  0  0  0  0  0  0  0  0  0  0
   63.6016   30.7659   48.7503 H   0  0  0  0  0  0  0  0  0  0  0  0
   65.0307   31.8541   48.7503 H   0  0  0  0  0  0  0  0  0  0  0  0
   62.9772   32.8980   51.3810 H   0  0  0  0  0  0  0  0  0  0  0  0
   60.9410   33.4221   52.7179 H   0  0  0  0  0  0  0  0  0  0  0  0
   58.7975   33.9721   51.5703 H   0  0  0  0  0  0  0  0  0  0  0  0
   58.6840   34.0069   49.0812 H   0  0  0  0  0  0  0  0  0  0  0  0
   60.1720   30.8139   47.4251 H   0  0  0  0  0  0  0  0  0  0  0  0
   58.3837   29.5786   46.2163 H   0  0  0  0  0  0  0  0  0  0  0  0
  1  2  1  0
  2  3  1  0
  3  4  2  0
  4  5  1  0
  5  6  2  0
  6  7  1  0
  7  8  2  0
  8  9  1  0
  9 10  1  0
 10 11  1  0
 11 12  1  0
 11 13  1  0
 13 14  2  0
 14 15  1  0
 15 16  2  0
 16 17  1  0
 17 18  2  0
  6 19  1  0
 19 20  2  0
 20  3  1  0
 18  7  1  0
 18 13  1  0
  1 21  1  0
  1 22  1  0
  1 23  1  0
  4 24  1  0
  5 25  1  0
  9 26  1  0
  9 27  1  0
 10 28  1  0
 10 29  1  0
 12 30  1  0
 12 31  1  0
 12 32  1  0
 14 33  1  0
 15 34  1  0
 16 35  1  0
 17 36  1  0
 19 37  1  0
 20 38  1  0
M  END
>  <UniqueID>  (4) 
4

>  <SMILES>  (4) 
COc1ccc(C2=NCCN(C)c3ccccc32)cc1

>  <Energy>  (4) 
53.32943444033971

>  <Genealogy>  (4) 
COc1ccc(C2=NCCN(C)c3ccccc32)cc1 (3D coordinates assigned)
COc1ccc(C2=NCCN(C)c3ccccc32)cc1 (nonaromatic ring conformer: 53.32943444033971 kcal/mol)

>  <smiles>  (4) 
COc1ccc(C2=NCCN(C)c3ccccc32)cc1

>  <score_type>  (4) 
oracle

>  <origin>  (4) 
adg

>  <m_score__min__energy>  (4) 
-5.0300000000000002

>  <m_primary>  (4) 
energy

$$$$
4:0
     RDKit          3D

 51 53  0  0  0  0  0  0  0  0999 V2000
   56.8080   24.4860   43.4610 C   0  0  0  0  0  0  0  0  0  0  0  0
   56.7150   23.8960   44.8350 C   0  0  0  0  0  0  0  0  0  0  0  0
   57.5870   22.9000   45.3000 C   0  0  0  0  0  0  0  0  0  0  0  0
   57.3300   22.4970   46.6040 C   0  0  0  0  0  0  0  0  0  0  0  0
   56.0250   23.3830   47.1830 S   0  0  0  0  0  0  0  0  0  0  0  0
   55.7860   24.2990   45.7940 C   0  0  0  0  0  0  0  0  0  0  0  0
   54.6910   25.3010   45.6110 C   0  0  0  0  0  0  0  0  0  0  0  0
   55.1710   26.6180   46.0070 N   0  0  0  0  0  0  0  0  0  0  0  0
   56.5400   27.0360   45.9490 C   0  0  0  0  0  0  0  0  0  0  0  0
   57.3340   26.6430   46.8430 O   0  0  0  0  0  0  0  0  0  0  0  0
   57.0450   27.9690   44.8830 C   0  0  0  0  0  0  0  0  0  0  0  0
   56.2160   29.2610   44.8630 C   0  0  0  0  0  0  0  0  0  0  0  0
   57.0550   30.4770   44.4350 C   0  0  0  0  0  0  0  0  0  0  0  0
   57.6870   31.1610   45.5870 N   0  0  0  0  0  0  0  0  0  0  0  0
   58.3660   32.4140   45.1740 C   0  0  0  0  0  0  0  0  0  0  0  0
   59.2930   32.9480   46.2700 C   0  0  0  0  0  0  0  0  0  0  0  0
   60.2930   31.9370   46.6360 N   0  0  0  0  0  0  0  0  0  0  0  0
   61.5210   32.3290   47.2900 C   0  0  0  0  0  0  0  0  0  0  0  0
   62.2510   33.4440   46.8370 C   0  0  0  0  0  0  0  0  0  0  0  0
   63.4350   33.8250   47.4750 C   0  0  0  0  0  0  0  0  0  0  0  0
   63.9060   33.0990   48.5700 C   0  0  0  0  0  0  0  0  0  0  0  0
   65.0540   33.4720   49.1890 F   0  0  0  0  0  0  0  0  0  0  0  0
   63.1950   31.9870   49.0270 C   0  0  0  0  0  0  0  0  0  0  0  0
   62.0110   31.6010   48.3930 C   0  0  0  0  0  0  0  0  0  0  0  0
   60.0440   30.5360   46.2770 C   0  0  0  0  0  0  0  0  0  0  0  0
   58.5430   30.2300   46.3730 C   0  0  0  0  0  0  0  0  0  0  0  0
   56.9788   25.5699   43.5382 H   0  0  0  0  0  0  0  0  0  0  0  0
   57.6439   24.0208   42.9180 H   0  0  0  0  0  0  0  0  0  0  0  0
   55.8695   24.3005   42.9180 H   0  0  0  0  0  0  0  0  0  0  0  0
   58.3983   22.4778   44.6889 H   0  0  0  0  0  0  0  0  0  0  0  0
   57.8857   21.7292   47.1622 H   0  0  0  0  0  0  0  0  0  0  0  0
   54.3867   25.3235   44.5542 H   0  0  0  0  0  0  0  0  0  0  0  0
   53.8283   25.0212   46.2335 H   0  0  0  0  0  0  0  0  0  0  0  0
   58.0970   28.2169   45.0876 H   0  0  0  0  0  0  0  0  0  0  0  0
   56.9556   27.4736   43.9049 H   0  0  0  0  0  0  0  0  0  0  0  0
   55.3829   29.1375   44.1554 H   0  0  0  0  0  0  0  0  0  0  0  0
   55.8476   29.4443   45.8831 H   0  0  0  0  0  0  0  0  0  0  0  0
   57.8450   30.1373   43.7491 H   0  0  0  0  0  0  0  0  0  0  0  0
   56.3796   31.1956   43.9477 H   0  0  0  0  0  0  0  0  0  0  0  0
   58.9610   32.2151   44.2704 H   0  0  0  0  0  0  0  0  0  0  0  0
   57.5937   33.1730   44.9805 H   0  0  0  0  0  0  0  0  0  0  0  0
   59.8066   33.8486   45.9025 H   0  0  0  0  0  0  0  0  0  0  0  0
   58.6909   33.1904   47.1581 H   0  0  0  0  0  0  0  0  0  0  0  0
   61.8867   34.0203   45.9738 H   0  0  0  0  0  0  0  0  0  0  0  0
   63.9967   34.6989   47.1133 H   0  0  0  0  0  0  0  0  0  0  0  0
   63.5681   31.4135   49.8883 H   0  0  0  0  0  0  0  0  0  0  0  0
   61.4576   30.7229   48.7573 H   0  0  0  0  0  0  0  0  0  0  0  0
   60.3875   30.3569   45.2475 H   0  0  0  0  0  0  0  0  0  0  0  0
   60.5917   29.8818   46.9713 H   0  0  0  0  0  0  0  0  0  0  0  0
   58.3734   29.2079   46.0036 H   0  0  0  0  0  0  0  0  0  0  0  0
   58.2593   30.3493   47.4291 H   0  0  0  0  0  0  0  0  0  0  0  0
  1  2  1  0
  2  3  1  0
  3  4  2  0
  4  5  1  0
  5  6  1  0
  6  7  1  0
  7  8  1  0
  8  9  1  0
  9 10  2  0
  9 11  1  0
 11 12  1  0
 12 13  1  0
 13 14  1  0
 14 15  1  0
 15 16  1  0
 16 17  1  0
 17 18  1  0
 18 19  2  0
 19 20  1  0
 20 21  2  0
 21 22  1  0
 21 23  1  0
 23 24  2  0
 17 25  1  0
 25 26  1  0
  6  2  2  0
 26 14  1  0
 24 18  1  0
  1 27  1  0
  1 28  1  0
  1 29  1  0
  3 30  1  0
  4 31  1  0
  7 32  1  0
  7 33  1  0
 11 34  1  0
 11 35  1  0
 12 36  1  0
 12 37  1  0
 13 38  1  0
 13 39  1  0
 15 40  1  0
 15 41  1  0
 16 42  1  0
 16 43  1  0
 19 44  1  0
 20 45  1  0
 23 46  1  0
 24 47  1  0
 25 48  1  0
 25 49  1  0
 26 50  1  0
 26 51  1  0
M  CHG  1   8  -1
M  END
>  <UniqueID>  (5) 
5

>  <SMILES>  (5) 
Cc1ccsc1C[N-]C(=O)CCCN1CCN(c2ccc(F)cc2)CC1

>  <Energy>  (5) 
80.23633672215973

>  <Genealogy>  (5) 
Cc1ccsc1C[N-]C(=O)CCCN1CCN(c2ccc(F)cc2)CC1 (protonated)
Cc1ccsc1C[N-]C(=O)CCCN1CCN(c2ccc(F)cc2)CC1 (3D coordinates assigned)
Cc1ccsc1C[N-]C(=O)CCCN1CCN(c2ccc(F)cc2)CC1 (nonaromatic ring conformer: 80.23633672215973 kcal/mol)

>  <smiles>  (5) 
Cc1ccsc1CNC(=O)CCCN1CCN(c2ccc(F)cc2)CC1

>  <score_type>  (5) 
oracle

>  <origin>  (5) 
adg

>  <m_score__min__energy>  (5) 
-10.09

>  <m_primary>  (5) 
energy

$$$$
5:0
     RDKit          3D

 57 58  0  0  0  0  0  0  0  0999 V2000
   63.3560   33.6980   48.3520 C   0  0  0  0  0  0  0  0  0  0  0  0
   62.9490   33.3680   46.9170 C   0  0  0  0  0  0  0  0  0  0  0  0
   61.5020   33.0610   46.7950 N   0  0  0  0  0  0  0  0  0  0  0  0
   60.7190   34.1320   47.4620 C   0  0  0  0  0  0  0  0  0  0  0  0
   59.9860   35.0010   46.4420 C   0  0  0  0  0  0  0  0  0  0  0  0
   61.1690   31.7250   47.3620 C   0  0  0  0  0  0  0  0  0  0  0  0
   60.3500   31.8400   48.6620 C   0  0  0  0  0  0  0  0  0  0  0  0
   58.9720   31.1660   48.5770 C   0  0  0  0  0  0  0  0  0  0  0  0
   58.5800   30.9080   47.1920 N   0  0  0  0  0  0  0  0  0  0  0  0
   58.0170   31.9390   46.3690 C   0  0  0  0  0  0  0  0  0  0  0  0
   57.8440   33.0950   46.8430 O   0  0  0  0  0  0  0  0  0  0  0  0
   57.6570   31.6620   44.9590 C   0  0  0  0  0  0  0  0  0  0  0  0
   57.8540   32.6580   43.9870 C   0  0  0  0  0  0  0  0  0  0  0  0
   57.5320   32.4180   42.6500 C   0  0  0  0  0  0  0  0  0  0  0  0
   57.0050   31.1840   42.2700 C   0  0  0  0  0  0  0  0  0  0  0  0
   56.7950   30.1860   43.2250 C   0  0  0  0  0  0  0  0  0  0  0  0
   57.1160   30.4130   44.5770 C   0  0  0  0  0  0  0  0  0  0  0  0
   56.8700   29.4150   45.5790 N   0  0  0  0  0  0  0  0  0  0  0  0
   57.9490   28.1340   46.0170 S   0  0  0  0  0  0  0  0  0  0  0  0
   58.0720   28.0500   47.5130 O   0  0  0  0  0  0  0  0  0  0  0  0
   59.3070   28.3810   45.4190 O   0  0  0  0  0  0  0  0  0  0  0  0
   57.2970   26.6210   45.3970 C   0  0  0  0  0  0  0  0  0  0  0  0
   57.8450   26.0300   44.2510 C   0  0  0  0  0  0  0  0  0  0  0  0
   57.3080   24.8420   43.7460 C   0  0  0  0  0  0  0  0  0  0  0  0
   56.2140   24.2330   44.3750 C   0  0  0  0  0  0  0  0  0  0  0  0
   55.7090   23.0440   43.8290 O   0  0  0  0  0  0  0  0  0  0  0  0
   56.3660   22.2790   42.8240 C   0  0  0  0  0  0  0  0  0  0  0  0
   55.6600   24.8330   45.5230 C   0  0  0  0  0  0  0  0  0  0  0  0
   56.2000   26.0210   46.0260 C   0  0  0  0  0  0  0  0  0  0  0  0
   62.6970   33.1637   49.0521 H   0  0  0  0  0  0  0  0  0  0  0  0
   64.3977   33.3863   48.5186 H   0  0  0  0  0  0  0  0  0  0  0  0
   63.2664   34.7816   48.5186 H   0  0  0  0  0  0  0  0  0  0  0  0
   63.1821   34.2313   46.2764 H   0  0  0  0  0  0  0  0  0  0  0  0
   63.5087   32.4731   46.6073 H   0  0  0  0  0  0  0  0  0  0  0  0
   59.9816   33.6704   48.1352 H   0  0  0  0  0  0  0  0  0  0  0  0
   61.4147   34.7707   48.0260 H   0  0  0  0  0  0  0  0  0  0  0  0
   59.3635   35.7390   46.9691 H   0  0  0  0  0  0  0  0  0  0  0  0
   60.7198   35.5240   45.8112 H   0  0  0  0  0  0  0  0  0  0  0  0
   59.3468   34.3658   45.8112 H   0  0  0  0  0  0  0  0  0  0  0  0
   60.5833   31.1605   46.6216 H   0  0  0  0  0  0  0  0  0  0  0  0
   62.1121   31.2103   47.5979 H   0  0  0  0  0  0  0  0  0  0  0  0
   60.9196   31.3675   49.4758 H   0  0  0  0  0  0  0  0  0  0  0  0
   60.1768   32.9111   48.8429 H   0  0  0  0  0  0  0  0  0  0  0  0
   59.0084   30.2106   49.1209 H   0  0  0  0  0  0  0  0  0  0  0  0
   58.2302   31.8454   49.0222 H   0  0  0  0  0  0  0  0  0  0  0  0
   58.7490   29.9660   46.7720 H   0  0  0  0  0  0  0  0  0  0  0  0
   58.2653   33.6346   44.2822 H   0  0  0  0  0  0  0  0  0  0  0  0
   57.6940   33.2024   41.8960 H   0  0  0  0  0  0  0  0  0  0  0  0
   56.7540   30.9959   41.2157 H   0  0  0  0  0  0  0  0  0  0  0  0
   56.3760   29.2162   42.9185 H   0  0  0  0  0  0  0  0  0  0  0  0
   58.7009   26.5024   43.7467 H   0  0  0  0  0  0  0  0  0  0  0  0
   57.7474   24.3822   42.8485 H   0  0  0  0  0  0  0  0  0  0  0  0
   57.0122   21.5266   43.2997 H   0  0  0  0  0  0  0  0  0  0  0  0
   55.6154   21.7745   42.1979 H   0  0  0  0  0  0  0  0  0  0  0  0
   56.9781   22.9448   42.1979 H   0  0  0  0  0  0  0  0  0  0  0  0
   54.8001   24.3657   46.0252 H   0  0  0  0  0  0  0  0  0  0  0  0
   55.7603   26.4862   46.9206 H   0  0  0  0  0  0  0  0  0  0  0  0
  1  2  1  0
  2  3  1  0
  3  4  1  0
  4  5  1  0
  3  6  1  0
  6  7  1  0
  7  8  1  0
  8  9  1  0
  9 10  1  0
 10 11  2  0
 10 12  1  0
 12 13  2  0
 13 14  1  0
 14 15  2  0
 15 16  1  0
 16 17  2  0
 17 18  1  0
 18 19  1  0
 19 20  2  0
 19 21  2  0
 19 22  1  0
 22 23  2  0
 23 24  1  0
 24 25  2  0
 25 26  1  0
 26 27  1  0
 25 28  1  0
 28 29  2  0
 17 12  1  0
 29 22  1  0
  1 30  1  0
  1 31  1  0
  1 32  1  0
  2 33  1  0
  2 34  1  0
  4 35  1  0
  4 36  1  0
  5 37  1  0
  5 38  1  0
  5 39  1  0
  6 40  1  0
  6 41  1  0
  7 42  1  0
  7 43  1  0
  8 44  1  0
  8 45  1  0
  9 46  1  0
 13 47  1  0
 14 48  1  0
 15 49  1  0
 16 50  1  0
 23 51  1  0
 24 52  1  0
 27 53  1  0
 27 54  1  0
 27 55  1  0
 28 56  1  0
 29 57  1  0
M  CHG  1  18  -1
M  END
>  <UniqueID>  (6) 
6

>  <SMILES>  (6) 
CCN(CC)CCCNC(=O)c1ccccc1[N-]S(=O)(=O)c1ccc(OC)cc1

>  <Energy>  (6) 
58.16464420642985

>  <Genealogy>  (6) 
CCN(CC)CCCNC(=O)c1ccccc1[N-]S(=O)(=O)c1ccc(OC)cc1 (protonated)
CCN(CC)CCCNC(=O)c1ccccc1[N-]S(=O)(=O)c1ccc(OC)cc1 (3D coordinates assigned)
CCN(CC)CCCNC(=O)c1ccccc1[N-]S(=O)(=O)c1ccc(OC)cc1 (optimized conformer: 58.16464420642985 kcal/mol)

>  <smiles>  (6) 
CCN(CC)CCCNC(=O)c1ccccc1NS(=O)(=O)c1ccc(OC)cc1

>  <score_type>  (6) 
oracle

>  <origin>  (6) 
adg

>  <m_score__min__energy>  (6) 
-8.5500000000000007

>  <m_primary>  (6) 
energy

$$$$
6:0
     RDKit          3D

 51 54  0  0  0  0  0  0  0  0999 V2000
   52.8750   23.7770   45.2660 C   0  0  0  0  0  0  0  0  0  0  0  0
   54.0120   24.1870   46.0160 O   0  0  0  0  0  0  0  0  0  0  0  0
   54.6130   23.4270   47.0330 C   0  0  0  0  0  0  0  0  0  0  0  0
   53.8620   22.5810   47.8750 C   0  0  0  0  0  0  0  0  0  0  0  0
   54.4960   21.8310   48.8700 C   0  0  0  0  0  0  0  0  0  0  0  0
   55.8760   21.9120   49.0330 C   0  0  0  0  0  0  0  0  0  0  0  0
   56.6330   22.7440   48.2050 C   0  0  0  0  0  0  0  0  0  0  0  0
   56.0100   23.5090   47.2070 C   0  0  0  0  0  0  0  0  0  0  0  0
   56.7950   24.3760   46.3710 N   0  0  0  0  0  0  0  0  0  0  0  0
   57.6570   25.3990   46.9700 C   0  0  0  0  0  0  0  0  0  0  0  0
   57.5280   26.7280   46.2010 C   0  0  0  0  0  0  0  0  0  0  0  0
   57.3890   26.5600   44.7220 N   0  0  0  0  0  0  0  0  0  0  0  0
   58.1040   27.6180   43.9630 C   0  0  0  0  0  0  0  0  0  0  0  0
   57.7320   29.0260   44.3710 C   0  0  0  0  0  0  0  0  0  0  0  0
   56.5740   29.7080   44.0400 C   0  0  0  0  0  0  0  0  0  0  0  0
   56.6420   30.9640   44.5240 N   0  0  0  0  0  0  0  0  0  0  0  0
   57.7980   31.1000   45.1560 N   0  0  0  0  0  0  0  0  0  0  0  0
   58.2110   32.3290   45.7790 C   0  0  0  0  0  0  0  0  0  0  0  0
   58.4270   32.3730   47.1690 C   0  0  0  0  0  0  0  0  0  0  0  0
   58.8530   33.5580   47.7830 C   0  0  0  0  0  0  0  0  0  0  0  0
   59.0790   34.7030   47.0150 C   0  0  0  0  0  0  0  0  0  0  0  0
   58.8830   34.6630   45.6300 C   0  0  0  0  0  0  0  0  0  0  0  0
   58.4610   33.4800   45.0110 C   0  0  0  0  0  0  0  0  0  0  0  0
   58.4970   29.9430   45.0710 C   0  0  0  0  0  0  0  0  0  0  0  0
   60.1740   29.7210   45.5580 Cl  0  0  0  0  0  0  0  0  0  0  0  0
   57.7260   25.2010   44.2370 C   0  0  0  0  0  0  0  0  0  0  0  0
   56.8430   24.1500   44.9200 C   0  0  0  0  0  0  0  0  0  0  0  0
   52.0675   23.4858   45.9539 H   0  0  0  0  0  0  0  0  0  0  0  0
   52.5344   24.6090   44.6321 H   0  0  0  0  0  0  0  0  0  0  0  0
   53.1438   22.9192   44.6321 H   0  0  0  0  0  0  0  0  0  0  0  0
   52.7716   22.5108   47.7482 H   0  0  0  0  0  0  0  0  0  0  0  0
   53.9033   21.1757   49.5252 H   0  0  0  0  0  0  0  0  0  0  0  0
   56.3717   21.3192   49.8159 H   0  0  0  0  0  0  0  0  0  0  0  0
   57.7237   22.7999   48.3359 H   0  0  0  0  0  0  0  0  0  0  0  0
   57.3593   25.5559   48.0173 H   0  0  0  0  0  0  0  0  0  0  0  0
   58.7018   25.0584   46.9209 H   0  0  0  0  0  0  0  0  0  0  0  0
   56.6403   27.2596   46.5743 H   0  0  0  0  0  0  0  0  0  0  0  0
   58.4587   27.2885   46.3730 H   0  0  0  0  0  0  0  0  0  0  0  0
   56.3700   26.7000   44.4990 H   0  0  0  0  0  0  0  0  0  0  0  0
   59.1847   27.4863   44.1206 H   0  0  0  0  0  0  0  0  0  0  0  0
   57.8128   27.5049   42.9083 H   0  0  0  0  0  0  0  0  0  0  0  0
   55.7303   29.2903   43.4710 H   0  0  0  0  0  0  0  0  0  0  0  0
   58.2603   31.4716   47.7770 H   0  0  0  0  0  0  0  0  0  0  0  0
   59.0098   33.5870   48.8714 H   0  0  0  0  0  0  0  0  0  0  0  0
   59.4103   35.6341   47.4980 H   0  0  0  0  0  0  0  0  0  0  0  0
   59.0611   35.5644   45.0252 H   0  0  0  0  0  0  0  0  0  0  0  0
   58.3246   33.4510   43.9199 H   0  0  0  0  0  0  0  0  0  0  0  0
   57.5668   25.1554   43.1495 H   0  0  0  0  0  0  0  0  0  0  0  0
   58.7786   24.9898   44.4766 H   0  0  0  0  0  0  0  0  0  0  0  0
   55.8239   24.2134   44.5107 H   0  0  0  0  0  0  0  0  0  0  0  0
   57.2687   23.1535   44.7311 H   0  0  0  0  0  0  0  0  0  0  0  0
  1  2  1  0
  2  3  1  0
  3  4  2  0
  4  5  1  0
  5  6  2  0
  6  7  1  0
  7  8  2  0
  8  9  1  0
  9 10  1  0
 10 11  1  0
 11 12  1  0
 12 13  1  0
 13 14  1  0
 14 15  1  0
 15 16  2  0
 16 17  1  0
 17 18  1  0
 18 19  2  0
 19 20  1  0
 20 21  2  0
 21 22  1  0
 22 23  2  0
 17 24  1  0
 24 25  1  0
 12 26  1  0
 26 27  1  0
  8  3  1  0
 27  9  1  0
 24 14  2  0
 23 18  1  0
  1 28  1  0
  1 29  1  0
  1 30  1  0
  4 31  1  0
  5 32  1  0
  6 33  1  0
  7 34  1  0
 10 35  1  0
 10 36  1  0
 11 37  1  0
 11 38  1  0
 12 39  1  0
 13 40  1  0
 13 41  1  0
 15 42  1  0
 19 43  1  0
 20 44  1  0
 21 45  1  0
 22 46  1  0
 23 47  1  0
 26 48  1  0
 26 49  1  0
 27 50  1  0
 27 51  1  0
M  CHG  1  12   1
M  END
>  <UniqueID>  (7) 
7

>  <SMILES>  (7) 
COc1ccccc1N1CC[NH+](Cc2cnn(-c3ccccc3)c2Cl)CC1

>  <Energy>  (7) 
103.36311108781344

>  <Genealogy>  (7) 
COc1ccccc1N1CC[NH+](Cc2cnn(-c3ccccc3)c2Cl)CC1 (protonated)
COc1ccccc1N1CC[NH+](Cc2cnn(-c3ccccc3)c2Cl)CC1 (3D coordinates assigned)
COc1ccccc1N1CC[NH+](Cc2cnn(-c3ccccc3)c2Cl)CC1 (nonaromatic ring conformer: 103.36311108781344 kcal/mol)

>  <smiles>  (7) 
COc1ccccc1N1CCN(Cc2cnn(-c3ccccc3)c2Cl)CC1

>  <score_type>  (7) 
oracle

>  <origin>  (7) 
adg

>  <m_score__min__energy>  (7) 
-6.54

>  <m_primary>  (7) 
energy

$$$$
7:0
     RDKit          3D

 35 38  0  0  0  0  0  0  0  0999 V2000
   57.9920   27.6860   46.6620 H   0  0  0  0  0  0  0  0  0  0  0  0
   57.2640   28.0610   46.0190 N   0  0  0  0  0  0  0  0  0  0  0  0
   57.2150   29.2930   45.6210 C   0  0  0  0  0  0  0  0  0  0  0  0
   56.2600   29.7550   44.7890 N   0  0  0  0  0  0  0  0  0  0  0  0
   56.5100   31.0440   44.5920 N   0  0  0  0  0  0  0  0  0  0  0  0
   57.6140   31.3350   45.3100 C   0  0  0  0  0  0  0  0  0  0  0  0
   58.2440   32.5710   45.4070 C   0  0  0  0  0  0  0  0  0  0  0  0
   57.7680   33.7060   44.7330 C   0  0  0  0  0  0  0  0  0  0  0  0
   56.8736   33.6333   44.0967 H   0  0  0  0  0  0  0  0  0  0  0  0
   58.4290   34.9260   44.8700 C   0  0  0  0  0  0  0  0  0  0  0  0
   58.0560   35.8145   44.3395 H   0  0  0  0  0  0  0  0  0  0  0  0
   59.5620   35.0230   45.6780 C   0  0  0  0  0  0  0  0  0  0  0  0
   60.0776   35.9889   45.7833 H   0  0  0  0  0  0  0  0  0  0  0  0
   60.0460   33.8990   46.3550 C   0  0  0  0  0  0  0  0  0  0  0  0
   60.9380   33.9899   46.9923 H   0  0  0  0  0  0  0  0  0  0  0  0
   59.4010   32.6470   46.2290 C   0  0  0  0  0  0  0  0  0  0  0  0
   59.8590   31.5160   46.8860 N   0  0  0  0  0  0  0  0  0  0  0  0
   61.0400   31.5610   47.7100 C   0  0  0  0  0  0  0  0  0  0  0  0
   60.9540   31.2910   49.0820 C   0  0  0  0  0  0  0  0  0  0  0  0
   59.9809   31.0432   49.5312 H   0  0  0  0  0  0  0  0  0  0  0  0
   62.0990   31.3350   49.8830 C   0  0  0  0  0  0  0  0  0  0  0  0
   62.0244   31.1184   50.9589 H   0  0  0  0  0  0  0  0  0  0  0  0
   63.3480   31.6560   49.3160 C   0  0  0  0  0  0  0  0  0  0  0  0
   64.5260   31.7140   50.0750 O   0  0  0  0  0  0  0  0  0  0  0  0
   65.5220   32.7220   49.9360 C   0  0  0  0  0  0  0  0  0  0  0  0
   65.8496   33.0536   50.9323 H   0  0  0  0  0  0  0  0  0  0  0  0
   66.3818   32.3143   49.3841 H   0  0  0  0  0  0  0  0  0  0  0  0
   65.1040   33.5768   49.3841 H   0  0  0  0  0  0  0  0  0  0  0  0
   63.4260   31.9310   47.9450 C   0  0  0  0  0  0  0  0  0  0  0  0
   64.3966   32.1853   47.4941 H   0  0  0  0  0  0  0  0  0  0  0  0
   62.2810   31.8850   47.1450 C   0  0  0  0  0  0  0  0  0  0  0  0
   62.3540   32.1036   46.0694 H   0  0  0  0  0  0  0  0  0  0  0  0
   59.1930   30.3210   46.7540 C   0  0  0  0  0  0  0  0  0  0  0  0
   59.6070   29.2880   47.3500 O   0  0  0  0  0  0  0  0  0  0  0  0
   58.0840   30.2680   45.9670 N   0  0  0  0  0  0  0  0  0  0  0  0
  1  2  1  0
  2  3  2  0
  3  4  1  0
  4  5  1  0
  5  6  2  0
  6  7  1  0
  7  8  2  0
  8  9  1  0
  8 10  1  0
 10 11  1  0
 10 12  2  0
 12 13  1  0
 12 14  1  0
 14 15  1  0
 14 16  2  0
 16 17  1  0
 17 18  1  0
 18 19  2  0
 19 20  1  0
 19 21  1  0
 21 22  1  0
 21 23  2  0
 23 24  1  0
 24 25  1  0
 25 26  1  0
 25 27  1  0
 25 28  1  0
 23 29  1  0
 29 30  1  0
 29 31  2  0
 31 32  1  0
 17 33  1  0
 33 34  2  0
 33 35  1  0
 35  3  1  0
 35  6  1  0
 16  7  1  0
 31 18  1  0
M  CHG  1   4  -1
M  END
>  <UniqueID>  (8) 
8

>  <SMILES>  (8) 
[H]/N=c1/[n-]nc2c3ccccc3n(-c3ccc(OC)cc3)c(=O)n12

>  <Energy>  (8) 
99.2208473949968

>  <Genealogy>  (8) 
COc1ccc(-n2c(=O)n3c(=N)[n-]nc3c3ccccc32)cc1 (protonated)
[H]/N=c1/[n-]nc2c3ccccc3n(-c3ccc(OC)cc3)c(=O)n12 (cis-trans isomerization)
[H]/N=c1/[n-]nc2c3ccccc3n(-c3ccc(OC)cc3)c(=O)n12 (3D coordinates assigned)
[H]/N=c1/[n-]nc2c3ccccc3n(-c3ccc(OC)cc3)c(=O)n12 (optimized conformer: 99.2208473949968 kcal/mol)

>  <smiles>  (8) 
COc1ccc(-n2c(=O)n3c(=N)[nH]nc3c3ccccc32)cc1

>  <score_type>  (8) 
oracle

>  <origin>  (8) 
adg

>  <m_score__min__energy>  (8) 
-8.5899999999999999

>  <m_primary>  (8) 
energy

$$$$
8:0
     RDKit          3D

 31 33  0  0  0  0  0  0  0  0999 V2000
   55.5930   29.7130   43.5560 C   0  0  0  0  0  0  0  0  0  0  0  0
   56.6390   29.9120   44.6080 C   0  0  0  0  0  0  0  0  0  0  0  0
   57.1040   31.1590   44.8940 N   0  0  0  0  0  0  0  0  0  0  0  0
   58.0790   31.1420   45.8280 C   0  0  0  0  0  0  0  0  0  0  0  0
   58.7560   32.3490   46.3110 C   0  0  0  0  0  0  0  0  0  0  0  0
   59.6850   32.4520   47.3380 C   0  0  0  0  0  0  0  0  0  0  0  0
   60.1380   33.7730   47.5390 C   0  0  0  0  0  0  0  0  0  0  0  0
   61.4170   34.2150   48.8820 Br  0  0  0  0  0  0  0  0  0  0  0  0
   59.6140   34.7220   46.7210 N   0  0  0  0  0  0  0  0  0  0  0  0
   58.5660   33.9000   45.7300 S   0  0  0  0  0  0  0  0  0  0  0  0
   58.4100   29.5740   46.3400 S   0  0  0  0  0  0  0  0  0  0  0  0
   57.2400   28.8820   45.3470 C   0  0  0  0  0  0  0  0  0  0  0  0
   56.9850   27.4320   45.2740 C   0  0  0  0  0  0  0  0  0  0  0  0
   55.9650   26.9700   45.8510 O   0  0  0  0  0  0  0  0  0  0  0  0
   57.8670   26.5600   44.5450 N   0  0  0  0  0  0  0  0  0  0  0  0
   57.7080   25.1340   44.4700 C   0  0  0  0  0  0  0  0  0  0  0  0
   58.1680   24.2870   45.4950 C   0  0  0  0  0  0  0  0  0  0  0  0
   57.9750   22.9050   45.4060 C   0  0  0  0  0  0  0  0  0  0  0  0
   57.3100   22.3590   44.3050 C   0  0  0  0  0  0  0  0  0  0  0  0
   56.8270   23.1950   43.2960 C   0  0  0  0  0  0  0  0  0  0  0  0
   57.0180   24.5780   43.3820 C   0  0  0  0  0  0  0  0  0  0  0  0
   54.6207   29.5280   44.0360 H   0  0  0  0  0  0  0  0  0  0  0  0
   55.5269   30.6147   42.9294 H   0  0  0  0  0  0  0  0  0  0  0  0
   55.8627   28.8500   42.9294 H   0  0  0  0  0  0  0  0  0  0  0  0
   60.0314   31.5937   47.9325 H   0  0  0  0  0  0  0  0  0  0  0  0
   58.7090   26.9690   44.0840 H   0  0  0  0  0  0  0  0  0  0  0  0
   58.6813   24.7135   46.3694 H   0  0  0  0  0  0  0  0  0  0  0  0
   58.3474   22.2463   46.2043 H   0  0  0  0  0  0  0  0  0  0  0  0
   57.1670   21.2707   44.2330 H   0  0  0  0  0  0  0  0  0  0  0  0
   56.2962   22.7658   42.4334 H   0  0  0  0  0  0  0  0  0  0  0  0
   56.6247   25.2341   42.5915 H   0  0  0  0  0  0  0  0  0  0  0  0
  1  2  1  0
  2  3  1  0
  3  4  2  0
  4  5  1  0
  5  6  2  0
  6  7  1  0
  7  8  1  0
  7  9  2  0
  9 10  1  0
  4 11  1  0
 11 12  1  0
 12 13  1  0
 13 14  2  0
 13 15  1  0
 15 16  1  0
 16 17  2  0
 17 18  1  0
 18 19  2  0
 19 20  1  0
 20 21  2  0
 12  2  2  0
 21 16  1  0
 10  5  1  0
  1 22  1  0
  1 23  1  0
  1 24  1  0
  6 25  1  0
 15 26  1  0
 17 27  1  0
 18 28  1  0
 19 29  1  0
 20 30  1  0
 21 31  1  0
M  END
>  <UniqueID>  (9) 
9

>  <SMILES>  (9) 
Cc1nc(-c2cc(Br)ns2)sc1C(=O)Nc1ccccc1

>  <Energy>  (9) 
100.8713405590222

>  <Genealogy>  (9) 
Cc1nc(-c2cc(Br)ns2)sc1C(=O)Nc1ccccc1 (3D coordinates assigned)
Cc1nc(-c2cc(Br)ns2)sc1C(=O)Nc1ccccc1 (optimized conformer: 100.8713405590222 kcal/mol)

>  <smiles>  (9) 
Cc1nc(-c2cc(Br)ns2)sc1C(=O)Nc1ccccc1

>  <score_type>  (9) 
oracle

>  <origin>  (9) 
adg

>  <m_score__min__energy>  (9) 
-7.6799999999999997

>  <m_primary>  (9) 
energy

$$$$
9:0
     RDKit          3D

 34 34  0  0  0  0  0  0  0  0999 V2000
   66.3300   31.7300   50.5100 C   0  0  0  0  0  0  0  0  0  0  0  0
   65.6880   33.1060   50.3390 C   0  0  0  0  0  0  0  0  0  0  0  0
   64.3070   33.0380   49.6670 C   0  0  0  0  0  0  0  0  0  0  0  0
   64.4030   32.6450   48.2520 N   0  0  0  0  0  0  0  0  0  0  0  0
   63.2190   33.0610   47.5420 C   0  0  0  0  0  0  0  0  0  0  0  0
   63.3790   34.1560   46.3200 S   0  0  0  0  0  0  0  0  0  0  0  0
   61.8980   32.6410   47.9780 N   0  0  0  0  0  0  0  0  0  0  0  0
   61.5460   31.2140   47.9750 C   0  0  0  0  0  0  0  0  0  0  0  0
   60.9000   33.6230   48.4360 C   0  0  0  0  0  0  0  0  0  0  0  0
   59.8260   33.8190   47.3970 C   0  0  0  0  0  0  0  0  0  0  0  0
   60.0760   34.6110   46.2630 C   0  0  0  0  0  0  0  0  0  0  0  0
   59.0770   34.8050   45.3050 C   0  0  0  0  0  0  0  0  0  0  0  0
   57.8190   34.2200   45.4750 C   0  0  0  0  0  0  0  0  0  0  0  0
   56.8510   34.4090   44.5450 F   0  0  0  0  0  0  0  0  0  0  0  0
   57.5570   33.4420   46.6070 C   0  0  0  0  0  0  0  0  0  0  0  0
   58.5540   33.2460   47.5680 C   0  0  0  0  0  0  0  0  0  0  0  0
   66.4350   31.5050   51.5816 H   0  0  0  0  0  0  0  0  0  0  0  0
   65.6947   30.9675   50.0357 H   0  0  0  0  0  0  0  0  0  0  0  0
   67.3225   31.7270   50.0357 H   0  0  0  0  0  0  0  0  0  0  0  0
   65.5740   33.5667   51.3313 H   0  0  0  0  0  0  0  0  0  0  0  0
   66.3453   33.7002   49.6872 H   0  0  0  0  0  0  0  0  0  0  0  0
   63.6885   32.3005   50.1995 H   0  0  0  0  0  0  0  0  0  0  0  0
   63.8566   34.0406   49.7121 H   0  0  0  0  0  0  0  0  0  0  0  0
   64.5350   31.6140   48.1640 H   0  0  0  0  0  0  0  0  0  0  0  0
   65.2420   33.1000   47.8210 H   0  0  0  0  0  0  0  0  0  0  0  0
   61.4577   30.8560   49.0113 H   0  0  0  0  0  0  0  0  0  0  0  0
   60.5864   31.0741   47.4557 H   0  0  0  0  0  0  0  0  0  0  0  0
   62.3304   30.6439   47.4557 H   0  0  0  0  0  0  0  0  0  0  0  0
   60.4393   33.2615   49.3671 H   0  0  0  0  0  0  0  0  0  0  0  0
   61.4049   34.5852   48.6070 H   0  0  0  0  0  0  0  0  0  0  0  0
   61.0619   35.0800   46.1290 H   0  0  0  0  0  0  0  0  0  0  0  0
   59.2811   35.4192   44.4156 H   0  0  0  0  0  0  0  0  0  0  0  0
   56.5661   32.9838   46.7417 H   0  0  0  0  0  0  0  0  0  0  0  0
   58.3417   32.6407   48.4616 H   0  0  0  0  0  0  0  0  0  0  0  0
  1  2  1  0
  2  3  1  0
  3  4  1  0
  4  5  1  0
  5  6  2  0
  5  7  1  0
  7  8  1  0
  7  9  1  0
  9 10  1  0
 10 11  2  0
 11 12  1  0
 12 13  2  0
 13 14  1  0
 13 15  1  0
 15 16  2  0
 16 10  1  0
  1 17  1  0
  1 18  1  0
  1 19  1  0
  2 20  1  0
  2 21  1  0
  3 22  1  0
  3 23  1  0
  4 24  1  0
  4 25  1  0
  8 26  1  0
  8 27  1  0
  8 28  1  0
  9 29  1  0
  9 30  1  0
 11 31  1  0
 12 32  1  0
 15 33  1  0
 16 34  1  0
M  CHG  1   4   1
M  END
>  <UniqueID>  (10) 
10

>  <SMILES>  (10) 
CCC[NH2+]C(=S)N(C)Cc1ccc(F)cc1

>  <Energy>  (10) 
27.459617085859502

>  <Genealogy>  (10) 
CCC[NH2+]C(=S)N(C)Cc1ccc(F)cc1 (protonated)
CCC[NH2+]C(=S)N(C)Cc1ccc(F)cc1 (3D coordinates assigned)
CCC[NH2+]C(=S)N(C)Cc1ccc(F)cc1 (optimized conformer: 27.459617085859502 kcal/mol)

>  <smiles>  (10) 
CCCNC(=S)N(C)Cc1ccc(F)cc1

>  <score_type>  (10) 
oracle

>  <origin>  (10) 
adg

>  <m_score__min__energy>  (10) 
-4.4299999999999997

>  <m_primary>  (10) 
energy

$$$$
10:0
     RDKit          3D

 30 31  0  0  0  0  0  0  0  0999 V2000
   60.0990   33.8460   49.9610 C   0  0  0  0  0  0  0  0  0  0  0  0
   61.0760   33.7690   48.8140 C   0  0  0  0  0  0  0  0  0  0  0  0
   62.3890   33.3490   49.0930 C   0  0  0  0  0  0  0  0  0  0  0  0
   63.3070   33.2050   48.0590 C   0  0  0  0  0  0  0  0  0  0  0  0
   62.9170   33.4600   46.7530 C   0  0  0  0  0  0  0  0  0  0  0  0
   61.6140   33.8860   46.4960 C   0  0  0  0  0  0  0  0  0  0  0  0
   60.7170   34.0860   47.5180 N   0  0  0  0  0  0  0  0  0  0  0  0
   59.3500   34.5420   47.1760 C   0  0  0  0  0  0  0  0  0  0  0  0
   59.0460   34.3940   45.7030 C   0  0  0  0  0  0  0  0  0  0  0  0
   59.2670   35.3820   44.9500 O   0  0  0  0  0  0  0  0  0  0  0  0
   58.4900   33.1410   45.1210 C   0  0  0  0  0  0  0  0  0  0  0  0
   58.1530   33.0480   43.7560 C   0  0  0  0  0  0  0  0  0  0  0  0
   57.6400   31.8590   43.2290 C   0  0  0  0  0  0  0  0  0  0  0  0
   57.4520   30.7490   44.0550 C   0  0  0  0  0  0  0  0  0  0  0  0
   56.9540   29.5980   43.5410 F   0  0  0  0  0  0  0  0  0  0  0  0
   57.7770   30.8270   45.4100 C   0  0  0  0  0  0  0  0  0  0  0  0
   58.2920   32.0130   45.9420 C   0  0  0  0  0  0  0  0  0  0  0  0
   60.6476   33.8028   50.9135 H   0  0  0  0  0  0  0  0  0  0  0  0
   59.5391   34.7911   49.9029 H   0  0  0  0  0  0  0  0  0  0  0  0
   59.3980   33.0003   49.9029 H   0  0  0  0  0  0  0  0  0  0  0  0
   62.6895   33.1345   50.1292 H   0  0  0  0  0  0  0  0  0  0  0  0
   64.3384   32.8901   48.2759 H   0  0  0  0  0  0  0  0  0  0  0  0
   63.6299   33.3273   45.9259 H   0  0  0  0  0  0  0  0  0  0  0  0
   61.2988   34.0650   45.4574 H   0  0  0  0  0  0  0  0  0  0  0  0
   58.6247   33.9450   47.7483 H   0  0  0  0  0  0  0  0  0  0  0  0
   59.2796   35.6105   47.4277 H   0  0  0  0  0  0  0  0  0  0  0  0
   58.2948   33.9188   43.0991 H   0  0  0  0  0  0  0  0  0  0  0  0
   57.3838   31.7978   42.1610 H   0  0  0  0  0  0  0  0  0  0  0  0
   57.6276   29.9531   46.0611 H   0  0  0  0  0  0  0  0  0  0  0  0
   58.5449   32.0660   47.0112 H   0  0  0  0  0  0  0  0  0  0  0  0
  1  2  1  0
  2  3  2  0
  3  4  1  0
  4  5  2  0
  5  6  1  0
  6  7  2  0
  7  8  1  0
  8  9  1  0
  9 10  2  0
  9 11  1  0
 11 12  2  0
 12 13  1  0
 13 14  2  0
 14 15  1  0
 14 16  1  0
 16 17  2  0
  7  2  1  0
 17 11  1  0
  1 18  1  0
  1 19  1  0
  1 20  1  0
  3 21  1  0
  4 22  1  0
  5 23  1  0
  6 24  1  0
  8 25  1  0
  8 26  1  0
 12 27  1  0
 13 28  1  0
 16 29  1  0
 17 30  1  0
M  CHG  1   7   1
M  END
>  <UniqueID>  (11) 
11

>  <SMILES>  (11) 
Cc1cccc[n+]1CC(=O)c1ccc(F)cc1

>  <Energy>  (11) 
36.36698222475554

>  <Genealogy>  (11) 
Cc1cccc[n+]1CC(=O)c1ccc(F)cc1 (3D coordinates assigned)
Cc1cccc[n+]1CC(=O)c1ccc(F)cc1 (optimized conformer: 36.36698222475554 kcal/mol)

>  <smiles>  (11) 
Cc1cccc[n+]1CC(=O)c1ccc(F)cc1

>  <score_type>  (11) 
oracle

>  <origin>  (11) 
adg

>  <m_score__min__energy>  (11) 
-4.8700000000000001

>  <m_primary>  (11) 
energy

$$$$
11:0
     RDKit          3D

 34 37  0  0  0  0  0  0  0  0999 V2000
   57.0430   26.9310   45.6410 C   0  0  0  0  0  0  0  0  0  0  0  0
   56.1960   28.0090   45.2570 O   0  0  0  0  0  0  0  0  0  0  0  0
   56.6560   29.2570   44.8100 C   0  0  0  0  0  0  0  0  0  0  0  0
   56.4000   29.7320   43.4940 C   0  0  0  0  0  0  0  0  0  0  0  0
   56.8860   30.9850   43.0760 C   0  0  0  0  0  0  0  0  0  0  0  0
   57.6070   31.7560   43.9840 C   0  0  0  0  0  0  0  0  0  0  0  0
   57.8410   31.2940   45.2690 C   0  0  0  0  0  0  0  0  0  0  0  0
   57.3960   30.0510   45.7050 C   0  0  0  0  0  0  0  0  0  0  0  0
   58.6470   32.3020   45.9100 C   0  0  0  0  0  0  0  0  0  0  0  0
   59.5490   32.1800   46.9030 N   0  0  0  0  0  0  0  0  0  0  0  0
   60.3720   33.2380   46.6720 C   0  0  0  0  0  0  0  0  0  0  0  0
   61.5690   33.5220   47.4740 C   0  0  0  0  0  0  0  0  0  0  0  0
   62.8840   33.5710   47.0450 C   0  0  0  0  0  0  0  0  0  0  0  0
   63.6800   33.8530   48.0950 N   0  0  0  0  0  0  0  0  0  0  0  0
   62.9050   33.9950   49.1590 N   0  0  0  0  0  0  0  0  0  0  0  0
   63.4070   34.2410   50.5040 C   0  0  0  0  0  0  0  0  0  0  0  0
   61.6180   33.7890   48.8260 C   0  0  0  0  0  0  0  0  0  0  0  0
   59.9940   33.9090   45.5120 C   0  0  0  0  0  0  0  0  0  0  0  0
   58.8790   33.3080   45.0800 N   0  0  0  0  0  0  0  0  0  0  0  0
   58.2910   33.0850   43.7640 C   0  0  0  0  0  0  0  0  0  0  0  0
   57.0883   26.8733   46.7386 H   0  0  0  0  0  0  0  0  0  0  0  0
   56.6413   25.9885   45.2406 H   0  0  0  0  0  0  0  0  0  0  0  0
   58.0538   27.0983   45.2406 H   0  0  0  0  0  0  0  0  0  0  0  0
   55.8163   29.1139   42.7959 H   0  0  0  0  0  0  0  0  0  0  0  0
   56.7003   31.3473   42.0541 H   0  0  0  0  0  0  0  0  0  0  0  0
   57.6168   29.6977   46.7231 H   0  0  0  0  0  0  0  0  0  0  0  0
   63.2247   33.4061   46.0122 H   0  0  0  0  0  0  0  0  0  0  0  0
   62.6734   33.8815   51.2406 H   0  0  0  0  0  0  0  0  0  0  0  0
   64.3586   33.7071   50.6436 H   0  0  0  0  0  0  0  0  0  0  0  0
   63.5681   35.3201   50.6436 H   0  0  0  0  0  0  0  0  0  0  0  0
   60.7577   33.8268   49.5105 H   0  0  0  0  0  0  0  0  0  0  0  0
   60.5084   34.7616   45.0446 H   0  0  0  0  0  0  0  0  0  0  0  0
   57.5699   33.8737   43.5034 H   0  0  0  0  0  0  0  0  0  0  0  0
   59.0127   33.0950   42.9340 H   0  0  0  0  0  0  0  0  0  0  0  0
  1  2  1  0
  2  3  1  0
  3  4  2  0
  4  5  1  0
  5  6  2  0
  6  7  1  0
  7  8  2  0
  7  9  1  0
  9 10  2  0
 10 11  1  0
 11 12  1  0
 12 13  1  0
 13 14  2  0
 14 15  1  0
 15 16  1  0
 15 17  1  0
 11 18  2  0
 18 19  1  0
 19 20  1  0
  8  3  1  0
 19  9  1  0
 20  6  1  0
 17 12  2  0
  1 21  1  0
  1 22  1  0
  1 23  1  0
  4 24  1  0
  5 25  1  0
  8 26  1  0
 13 27  1  0
 16 28  1  0
 16 29  1  0
 16 30  1  0
 17 31  1  0
 18 32  1  0
 20 33  1  0
 20 34  1  0
M  END
>  <UniqueID>  (12) 
12

>  <SMILES>  (12) 
COc1ccc2c(c1)-c1nc(-c3cnn(C)c3)cn1C2

>  <Energy>  (12) 
136.02332880703622

>  <Genealogy>  (12) 
COc1ccc2c(c1)-c1nc(-c3cnn(C)c3)cn1C2 (3D coordinates assigned)
COc1ccc2c(c1)-c1nc(-c3cnn(C)c3)cn1C2 (nonaromatic ring conformer: 136.02332880703622 kcal/mol)

>  <smiles>  (12) 
COc1ccc2c(c1)-c1nc(-c3cnn(C)c3)cn1C2

>  <score_type>  (12) 
oracle

>  <origin>  (12) 
adg

>  <m_score__min__energy>  (12) 
-6.71

>  <m_primary>  (12) 
energy

$$$$
12:0
     RDKit          3D

 33 34  0  0  0  0  0  0  0  0999 V2000
   61.0560   28.8740   44.8750 C   0  0  0  0  0  0  0  0  0  0  0  0
   60.5010   27.9990   45.8510 O   0  0  0  0  0  0  0  0  0  0  0  0
   59.1550   27.6020   45.8860 C   0  0  0  0  0  0  0  0  0  0  0  0
   58.8560   26.3020   46.3010 C   0  0  0  0  0  0  0  0  0  0  0  0
   57.5330   25.8590   46.3520 C   0  0  0  0  0  0  0  0  0  0  0  0
   56.4790   26.7220   45.9980 C   0  0  0  0  0  0  0  0  0  0  0  0
   55.1360   26.3130   46.0390 O   0  0  0  0  0  0  0  0  0  0  0  0
   54.6700   25.0320   45.6300 C   0  0  0  0  0  0  0  0  0  0  0  0
   56.7690   28.0360   45.5980 C   0  0  0  0  0  0  0  0  0  0  0  0
   55.6860   28.9070   45.2310 N   0  0  0  0  0  0  0  0  0  0  0  0
   55.6750   29.8330   44.1360 C   0  0  0  0  0  0  0  0  0  0  0  0
   54.7750   29.7230   43.2630 O   0  0  0  0  0  0  0  0  0  0  0  0
   56.6570   30.9390   44.0300 C   0  0  0  0  0  0  0  0  0  0  0  0
   57.1880   31.3140   42.7820 C   0  0  0  0  0  0  0  0  0  0  0  0
   58.1060   32.3660   42.6930 C   0  0  0  0  0  0  0  0  0  0  0  0
   58.5120   33.0430   43.8460 C   0  0  0  0  0  0  0  0  0  0  0  0
   59.4020   34.0610   43.7560 F   0  0  0  0  0  0  0  0  0  0  0  0
   58.0040   32.6650   45.0920 C   0  0  0  0  0  0  0  0  0  0  0  0
   57.0840   31.6160   45.1860 C   0  0  0  0  0  0  0  0  0  0  0  0
   58.1060   28.4630   45.5180 C   0  0  0  0  0  0  0  0  0  0  0  0
   61.5798   29.6999   45.3785 H   0  0  0  0  0  0  0  0  0  0  0  0
   61.7670   28.3181   44.2461 H   0  0  0  0  0  0  0  0  0  0  0  0
   60.2501   29.2802   44.2461 H   0  0  0  0  0  0  0  0  0  0  0  0
   59.6703   25.6213   46.5902 H   0  0  0  0  0  0  0  0  0  0  0  0
   57.3131   24.8294   46.6707 H   0  0  0  0  0  0  0  0  0  0  0  0
   54.4480   24.4219   46.5180 H   0  0  0  0  0  0  0  0  0  0  0  0
   53.7568   25.1490   45.0280 H   0  0  0  0  0  0  0  0  0  0  0  0
   55.4449   24.5350   45.0280 H   0  0  0  0  0  0  0  0  0  0  0  0
   56.8800   30.7776   41.8724 H   0  0  0  0  0  0  0  0  0  0  0  0
   58.5092   32.6609   41.7130 H   0  0  0  0  0  0  0  0  0  0  0  0
   58.3285   33.1936   46.0004 H   0  0  0  0  0  0  0  0  0  0  0  0
   56.6922   31.3188   46.1699 H   0  0  0  0  0  0  0  0  0  0  0  0
   58.3335   29.4795   45.1645 H   0  0  0  0  0  0  0  0  0  0  0  0
  1  2  1  0
  2  3  1  0
  3  4  2  0
  4  5  1  0
  5  6  2  0
  6  7  1  0
  7  8  1  0
  6  9  1  0
  9 10  1  0
 10 11  1  0
 11 12  2  0
 11 13  1  0
 13 14  2  0
 14 15  1  0
 15 16  2  0
 16 17  1  0
 16 18  1  0
 18 19  2  0
  9 20  2  0
 20  3  1  0
 19 13  1  0
  1 21  1  0
  1 22  1  0
  1 23  1  0
  4 24  1  0
  5 25  1  0
  8 26  1  0
  8 27  1  0
  8 28  1  0
 14 29  1  0
 15 30  1  0
 18 31  1  0
 19 32  1  0
 20 33  1  0
M  CHG  1  10  -1
M  END
>  <UniqueID>  (13) 
13

>  <SMILES>  (13) 
COc1ccc(OC)c([N-]C(=O)c2ccc(F)cc2)c1

>  <Energy>  (13) 
38.96469434056978

>  <Genealogy>  (13) 
COc1ccc(OC)c([N-]C(=O)c2ccc(F)cc2)c1 (protonated)
COc1ccc(OC)c([N-]C(=O)c2ccc(F)cc2)c1 (3D coordinates assigned)
COc1ccc(OC)c([N-]C(=O)c2ccc(F)cc2)c1 (optimized conformer: 38.96469434056978 kcal/mol)

>  <smiles>  (13) 
COc1ccc(OC)c(NC(=O)c2ccc(F)cc2)c1

>  <score_type>  (13) 
oracle

>  <origin>  (13) 
adg

>  <m_score__min__energy>  (13) 
-8.6600000000000001

>  <m_primary>  (13) 
energy

$$$$
13:0
     RDKit          3D

 39 38  0  0  0  0  0  0  0  0999 V2000
   59.1250   34.2090   47.3510 C   0  0  0  0  0  0  0  0  0  0  0  0
   59.4360   34.6190   45.9140 C   0  0  0  0  0  0  0  0  0  0  0  0
   58.2830   34.2570   44.9720 C   0  0  0  0  0  0  0  0  0  0  0  0
   57.1960   33.4590   45.7110 C   0  0  0  0  0  0  0  0  0  0  0  0
   56.7630   32.2770   44.9510 N   0  0  0  0  0  0  0  0  0  0  0  0
   57.6590   31.9460   43.8230 C   0  0  0  0  0  0  0  0  0  0  0  0
   57.7530   30.4330   43.5650 C   0  0  0  0  0  0  0  0  0  0  0  0
   56.9800   29.4760   44.8620 S   0  0  0  0  0  0  0  0  0  0  0  0
   55.4980   29.7300   44.8750 O   0  0  0  0  0  0  0  0  0  0  0  0
   57.5640   29.9010   46.1810 O   0  0  0  0  0  0  0  0  0  0  0  0
   57.3100   27.7870   44.5930 N   0  0  0  0  0  0  0  0  0  0  0  0
   58.7390   27.5210   44.3730 C   0  0  0  0  0  0  0  0  0  0  0  0
   59.5040   27.0490   45.6300 C   0  0  0  0  0  0  0  0  0  0  0  0
   60.1240   28.1710   46.4800 C   0  0  0  0  0  0  0  0  0  0  0  0
   60.6440   29.3390   45.6400 C   0  0  0  0  0  0  0  0  0  0  0  0
   59.6404   34.8884   48.0458 H   0  0  0  0  0  0  0  0  0  0  0  0
   58.0397   34.2643   47.5214 H   0  0  0  0  0  0  0  0  0  0  0  0
   59.4708   33.1788   47.5214 H   0  0  0  0  0  0  0  0  0  0  0  0
   59.6002   35.7061   45.8787 H   0  0  0  0  0  0  0  0  0  0  0  0
   60.3365   34.0795   45.5853 H   0  0  0  0  0  0  0  0  0  0  0  0
   57.8411   35.1818   44.5726 H   0  0  0  0  0  0  0  0  0  0  0  0
   58.6798   33.6352   44.1560 H   0  0  0  0  0  0  0  0  0  0  0  0
   57.5960   33.1296   46.6813 H   0  0  0  0  0  0  0  0  0  0  0  0
   56.3234   34.1160   45.8407 H   0  0  0  0  0  0  0  0  0  0  0  0
   56.6380   31.4710   45.6070 H   0  0  0  0  0  0  0  0  0  0  0  0
   57.2769   32.4349   42.9147 H   0  0  0  0  0  0  0  0  0  0  0  0
   58.6667   32.3023   44.0831 H   0  0  0  0  0  0  0  0  0  0  0  0
   57.2543   30.2048   42.6115 H   0  0  0  0  0  0  0  0  0  0  0  0
   58.8186   30.1616   43.5352 H   0  0  0  0  0  0  0  0  0  0  0  0
   56.7420   27.4510   43.7830 H   0  0  0  0  0  0  0  0  0  0  0  0
   58.8286   26.7405   43.6030 H   0  0  0  0  0  0  0  0  0  0  0  0
   59.1923   28.4768   44.0715 H   0  0  0  0  0  0  0  0  0  0  0  0
   58.8018   26.4894   46.2654 H   0  0  0  0  0  0  0  0  0  0  0  0
   60.3459   26.4425   45.2648 H   0  0  0  0  0  0  0  0  0  0  0  0
   59.3579   28.5506   47.1721 H   0  0  0  0  0  0  0  0  0  0  0  0
   60.9840   27.7418   47.0150 H   0  0  0  0  0  0  0  0  0  0  0  0
   61.0002   30.1392   46.3054 H   0  0  0  0  0  0  0  0  0  0  0  0
   61.4733   28.9935   45.0053 H   0  0  0  0  0  0  0  0  0  0  0  0
   59.8323   29.7241   45.0053 H   0  0  0  0  0  0  0  0  0  0  0  0
  1  2  1  0
  2  3  1  0
  3  4  1  0
  4  5  1  0
  5  6  1  0
  6  7  1  0
  7  8  1  0
  8  9  2  0
  8 10  2  0
  8 11  1  0
 11 12  1  0
 12 13  1  0
 13 14  1  0
 14 15  1  0
  1 16  1  0
  1 17  1  0
  1 18  1  0
  2 19  1  0
  2 20  1  0
  3 21  1  0
  3 22  1  0
  4 23  1  0
  4 24  1  0
  5 25  1  0
  6 26  1  0
  6 27  1  0
  7 28  1  0
  7 29  1  0
 11 30  1  0
 12 31  1  0
 12 32  1  0
 13 33  1  0
 13 34  1  0
 14 35  1  0
 14 36  1  0
 15 37  1  0
 15 38  1  0
 15 39  1  0
M  END
>  <UniqueID>  (14) 
14

>  <SMILES>  (14) 
CCCCNCCS(=O)(=O)NCCCC

>  <Energy>  (14) 
20.813915126470672

>  <Genealogy>  (14) 
CCCCNCCS(=O)(=O)NCCCC (3D coordinates assigned)
CCCCNCCS(=O)(=O)NCCCC (optimized conformer: 20.813915126470672 kcal/mol)

>  <smiles>  (14) 
CCCCNCCS(=O)(=O)NCCCC

>  <score_type>  (14) 
oracle

>  <origin>  (14) 
adg

>  <m_score__min__energy>  (14) 
-5.7599999999999998

>  <m_primary>  (14) 
energy

$$$$
14:0
     RDKit          3D

 47 49  0  0  1  0  0  0  0  0999 V2000
   60.3750   34.5980   48.1600 C   0  0  0  0  0  0  0  0  0  0  0  0
   59.3690   35.1730   47.1560 C   0  0  0  0  0  0  0  0  0  0  0  0
   58.6710   34.0440   46.5270 N   0  0  0  0  0  0  0  0  0  0  0  0
   58.7640   33.9100   45.1150 C   0  0  0  0  0  0  0  0  0  0  0  0
   59.4530   34.7960   44.5170 O   0  0  0  0  0  0  0  0  0  0  0  0
   58.1180   32.8350   44.3770 C   0  0  0  0  0  0  0  0  0  0  0  0
   58.1500   32.7340   43.0000 C   0  0  0  0  0  0  0  0  0  0  0  0
   57.5310   31.7070   42.3190 C   0  0  0  0  0  0  0  0  0  0  0  0
   60.7080   30.2240   46.5130 C   0  0  0  0  0  0  0  0  0  0  0  0
   60.4190   29.1810   47.3690 C   0  0  0  0  0  0  0  0  0  0  0  0
   56.0930   29.8050   45.0920 N   0  0  0  0  0  0  0  0  0  0  0  0
   56.7470   28.7780   45.5670 C   0  0  0  0  0  0  0  0  0  0  0  0
   56.1320   27.5740   45.5960 N   0  0  0  0  0  0  0  0  0  0  0  0
   56.7420   26.4690   46.0710 C   0  0  0  0  0  0  0  0  0  0  0  0
   58.0350   26.5920   46.5380 C   0  0  0  0  0  0  0  0  0  0  0  0
   58.6630   27.8260   46.5070 C   0  0  0  0  0  0  0  0  0  0  0  0
   59.8540   27.9500   46.9360 N   0  0  0  0  0  0  0  0  0  0  0  0
   56.8100   30.8290   44.4000 C   0  0  0  0  0  0  0  0  0  0  0  0
   56.8580   30.7500   43.0160 C   0  0  0  0  0  0  0  0  0  0  0  0
   61.2540   31.4060   46.9660 C   0  0  0  0  0  0  0  0  0  0  0  0
   61.5240   31.5530   48.3190 C   0  0  0  0  0  0  0  0  0  0  0  0
   61.2340   30.5050   49.1810 C   0  0  0  0  0  0  0  0  0  0  0  0
   60.6860   29.3240   48.7180 C   0  0  0  0  0  0  0  0  0  0  0  0
   60.3870   28.2140   49.6870 C   0  0  0  0  0  0  0  0  0  0  0  0
   58.0120   28.9010   46.0240 N   0  0  0  0  0  0  0  0  0  0  0  0
   57.4400   31.8710   45.0660 C   0  0  0  0  0  0  0  0  0  0  0  0
   60.0260   34.7975   49.1839 H   0  0  0  0  0  0  0  0  0  0  0  0
   60.4647   33.5122   48.0082 H   0  0  0  0  0  0  0  0  0  0  0  0
   61.3561   35.0717   48.0082 H   0  0  0  0  0  0  0  0  0  0  0  0
   58.6457   35.8171   47.6775 H   0  0  0  0  0  0  0  0  0  0  0  0
   59.8857   35.7780   46.3964 H   0  0  0  0  0  0  0  0  0  0  0  0
   58.1270   33.3600   47.0790 H   0  0  0  0  0  0  0  0  0  0  0  0
   58.6893   33.5013   42.4251 H   0  0  0  0  0  0  0  0  0  0  0  0
   57.5805   31.6611   41.2211 H   0  0  0  0  0  0  0  0  0  0  0  0
   60.4969   30.1091   45.4396 H   0  0  0  0  0  0  0  0  0  0  0  0
   55.1520   27.4510   45.2490 H   0  0  0  0  0  0  0  0  0  0  0  0
   56.2244   25.4985   46.0858 H   0  0  0  0  0  0  0  0  0  0  0  0
   58.5649   25.7129   46.9335 H   0  0  0  0  0  0  0  0  0  0  0  0
   56.3585   29.9244   42.4879 H   0  0  0  0  0  0  0  0  0  0  0  0
   61.4731   32.2231   46.2629 H   0  0  0  0  0  0  0  0  0  0  0  0
   61.9615   32.4865   48.7026 H   0  0  0  0  0  0  0  0  0  0  0  0
   61.4447   30.6166   50.2549 H   0  0  0  0  0  0  0  0  0  0  0  0
   60.4879   28.5887   50.7163 H   0  0  0  0  0  0  0  0  0  0  0  0
   59.3599   27.8542   49.5268 H   0  0  0  0  0  0  0  0  0  0  0  0
   61.0944   27.3870   49.5268 H   0  0  0  0  0  0  0  0  0  0  0  0
   58.5000   29.8190   46.0090 H   0  0  0  0  0  0  0  0  0  0  0  0
   57.3924   31.9208   46.1638 H   0  0  0  0  0  0  0  0  0  0  0  0
  1  2  1  0
  2  3  1  0
  3  4  1  0
  4  5  2  0
  4  6  1  0
  6  7  2  0
  7  8  1  0
  8  9  2  0
  9 10  1  0
 10 11  1  0
 11 12  2  0
 12 13  1  0
 13 14  1  0
 14 15  2  0
 15 16  1  0
 16 17  2  0
 17 18  1  0
 18 19  2  0
 19 20  1  0
 20 21  2  0
 21 22  1  0
 22 23  2  0
 23 24  1  0
 16 25  1  0
 10 26  2  0
 26  6  1  0
 25 12  1  0
 23 18  1  0
  1 27  1  0
  1 28  1  0
  1 29  1  0
  2 30  1  0
  2 31  1  0
  3 32  1  0
  7 33  1  0
  8 34  1  0
  9 35  1  0
 13 36  1  0
 14 37  1  0
 15 38  1  0
 19 39  1  0
 20 40  1  0
 21 41  1  0
 22 42  1  0
 24 43  1  0
 24 44  1  0
 24 45  1  0
 25 46  1  0
 26 47  1  0
M  END
>  <smiles>  (15) 
CCNC(=O)c1cccc(N=c2[nH]ccc(=Nc3ccccc3C)[nH]2)c1

>  <score_type>  (15) 
oracle

>  <origin>  (15) 
adg

>  <m_score__min__energy>  (15) 
-8.4499999999999993

>  <m_primary>  (15) 
energy

$$$$
15:0
     RDKit          3D

 58 61  0  0  0  0  0  0  0  0999 V2000
   56.4900   30.1950   43.5120 C   0  0  0  0  0  0  0  0  0  0  0  0
   56.4620   30.8970   44.7510 O   0  0  0  0  0  0  0  0  0  0  0  0
   57.3650   31.9150   45.1070 C   0  0  0  0  0  0  0  0  0  0  0  0
   57.0930   33.2790   44.8510 C   0  0  0  0  0  0  0  0  0  0  0  0
   58.0240   34.2640   45.1910 C   0  0  0  0  0  0  0  0  0  0  0  0
   59.2370   33.9050   45.7800 C   0  0  0  0  0  0  0  0  0  0  0  0
   59.5200   32.5580   46.0380 C   0  0  0  0  0  0  0  0  0  0  0  0
   58.5870   31.5570   45.7160 C   0  0  0  0  0  0  0  0  0  0  0  0
   58.8870   30.1800   46.0180 N   0  0  0  0  0  0  0  0  0  0  0  0
   60.2430   29.6560   45.8060 C   0  0  0  0  0  0  0  0  0  0  0  0
   60.7640   28.9140   47.0590 C   0  0  0  0  0  0  0  0  0  0  0  0
   59.6820   28.5640   48.0160 N   0  0  0  0  0  0  0  0  0  0  0  0
   60.1540   27.5420   48.9320 C   0  0  0  0  0  0  0  0  0  0  0  0
   60.0990   26.3610   48.6180 O   0  0  0  0  0  0  0  0  0  0  0  0
   60.7840   27.9130   50.2520 C   0  0  0  0  0  0  0  0  0  0  0  0
   59.6170   28.7950   51.3460 S   0  0  0  0  0  0  0  0  0  0  0  0
   59.8530   30.4070   50.5780 C   0  0  0  0  0  0  0  0  0  0  0  0
   60.8950   30.5620   49.7180 N   0  0  0  0  0  0  0  0  0  0  0  0
   61.1670   31.7470   49.1080 C   0  0  0  0  0  0  0  0  0  0  0  0
   62.2600   31.8550   48.2420 C   0  0  0  0  0  0  0  0  0  0  0  0
   62.5520   33.0820   47.6220 C   0  0  0  0  0  0  0  0  0  0  0  0
   63.7500   33.1960   46.7240 C   0  0  0  0  0  0  0  0  0  0  0  0
   61.7450   34.2040   47.8830 C   0  0  0  0  0  0  0  0  0  0  0  0
   60.6440   34.0970   48.7380 C   0  0  0  0  0  0  0  0  0  0  0  0
   60.3520   32.8710   49.3610 C   0  0  0  0  0  0  0  0  0  0  0  0
   59.2760   32.7400   50.2480 C   0  0  0  0  0  0  0  0  0  0  0  0
   59.0210   31.5080   50.8790 C   0  0  0  0  0  0  0  0  0  0  0  0
   57.8720   31.3790   51.8460 C   0  0  0  0  0  0  0  0  0  0  0  0
   58.4550   28.1180   47.3150 C   0  0  0  0  0  0  0  0  0  0  0  0
   57.8360   29.2890   46.5330 C   0  0  0  0  0  0  0  0  0  0  0  0
   56.5332   29.1129   43.7046 H   0  0  0  0  0  0  0  0  0  0  0  0
   55.5818   30.4292   42.9373 H   0  0  0  0  0  0  0  0  0  0  0  0
   57.3767   30.5008   42.9373 H   0  0  0  0  0  0  0  0  0  0  0  0
   56.1412   33.5668   44.3806 H   0  0  0  0  0  0  0  0  0  0  0  0
   57.8006   35.3229   44.9942 H   0  0  0  0  0  0  0  0  0  0  0  0
   59.9716   34.6808   46.0419 H   0  0  0  0  0  0  0  0  0  0  0  0
   60.4807   32.2808   46.4966 H   0  0  0  0  0  0  0  0  0  0  0  0
   60.2278   28.9570   44.9568 H   0  0  0  0  0  0  0  0  0  0  0  0
   60.9136   30.5038   45.6021 H   0  0  0  0  0  0  0  0  0  0  0  0
   61.2608   27.9870   46.7366 H   0  0  0  0  0  0  0  0  0  0  0  0
   61.4579   29.5911   47.5787 H   0  0  0  0  0  0  0  0  0  0  0  0
   59.4500   29.4270   48.5700 H   0  0  0  0  0  0  0  0  0  0  0  0
   61.1178   26.9943   50.7564 H   0  0  0  0  0  0  0  0  0  0  0  0
   61.6301   28.5853   50.0467 H   0  0  0  0  0  0  0  0  0  0  0  0
   62.8929   30.9770   48.0456 H   0  0  0  0  0  0  0  0  0  0  0  0
   64.6600   33.2826   47.3359 H   0  0  0  0  0  0  0  0  0  0  0  0
   63.8189   32.3004   46.0891 H   0  0  0  0  0  0  0  0  0  0  0  0
   63.6487   34.0886   46.0891 H   0  0  0  0  0  0  0  0  0  0  0  0
   61.9811   35.1698   47.4124 H   0  0  0  0  0  0  0  0  0  0  0  0
   60.0054   34.9732   48.9235 H   0  0  0  0  0  0  0  0  0  0  0  0
   58.6270   33.6043   50.4525 H   0  0  0  0  0  0  0  0  0  0  0  0
   58.2537   31.4219   52.8768 H   0  0  0  0  0  0  0  0  0  0  0  0
   57.1617   32.2030   51.6835 H   0  0  0  0  0  0  0  0  0  0  0  0
   57.3621   30.4180   51.6835 H   0  0  0  0  0  0  0  0  0  0  0  0
   58.7099   27.3081   46.6156 H   0  0  0  0  0  0  0  0  0  0  0  0
   57.7279   27.7573   48.0574 H   0  0  0  0  0  0  0  0  0  0  0  0
   57.2528   28.8921   45.6890 H   0  0  0  0  0  0  0  0  0  0  0  0
   57.1846   29.8623   47.2091 H   0  0  0  0  0  0  0  0  0  0  0  0
  1  2  1  0
  2  3  1  0
  3  4  2  0
  4  5  1  0
  5  6  2  0
  6  7  1  0
  7  8  2  0
  8  9  1  0
  9 10  1  0
 10 11  1  0
 11 12  1  0
 12 13  1  0
 13 14  2  0
 13 15  1  0
 15 16  1  0
 16 17  1  0
 17 18  2  0
 18 19  1  0
 19 20  2  0
 20 21  1  0
 21 22  1  0
 21 23  2  0
 23 24  1  0
 24 25  2  0
 25 26  1  0
 26 27  2  0
 27 28  1  0
 12 29  1  0
 29 30  1  0
  8  3  1  0
 30  9  1  0
 27 17  1  0
 25 19  1  0
  1 31  1  0
  1 32  1  0
  1 33  1  0
  4 34  1  0
  5 35  1  0
  6 36  1  0
  7 37  1  0
 10 38  1  0
 10 39  1  0
 11 40  1  0
 11 41  1  0
 12 42  1  0
 15 43  1  0
 15 44  1  0
 20 45  1  0
 22 46  1  0
 22 47  1  0
 22 48  1  0
 23 49  1  0
 24 50  1  0
 26 51  1  0
 28 52  1  0
 28 53  1  0
 28 54  1  0
 29 55  1  0
 29 56  1  0
 30 57  1  0
 30 58  1  0
M  CHG  1  12   1
M  END
>  <UniqueID>  (16) 
15

>  <SMILES>  (16) 
COc1ccccc1N1CC[NH+](C(=O)CSc2nc3cc(C)ccc3cc2C)CC1

>  <Energy>  (16) 
69.94931007086743

>  <Genealogy>  (16) 
COc1ccccc1N1CC[NH+](C(=O)CSc2nc3cc(C)ccc3cc2C)CC1 (protonated)
COc1ccccc1N1CC[NH+](C(=O)CSc2nc3cc(C)ccc3cc2C)CC1 (3D coordinates assigned)
COc1ccccc1N1CC[NH+](C(=O)CSc2nc3cc(C)ccc3cc2C)CC1 (nonaromatic ring conformer: 69.94931007086743 kcal/mol)

>  <smiles>  (16) 
COc1ccccc1N1CCN(C(=O)CSc2nc3cc(C)ccc3cc2C)CC1

>  <score_type>  (16) 
oracle

>  <origin>  (16) 
adg

>  <m_score__min__energy>  (16) 
-7.3399999999999999

>  <m_primary>  (16) 
energy

$$$$
16:0
     RDKit          3D

 56 58  0  0  0  0  0  0  0  0999 V2000
   58.1480   26.7400   42.2740 C   0  0  0  0  0  0  0  0  0  0  0  0
   58.1130   26.3710   43.7360 C   0  0  0  0  0  0  0  0  0  0  0  0
   57.7200   25.0700   44.0890 C   0  0  0  0  0  0  0  0  0  0  0  0
   57.6570   24.6850   45.4270 C   0  0  0  0  0  0  0  0  0  0  0  0
   57.9800   25.5920   46.4320 C   0  0  0  0  0  0  0  0  0  0  0  0
   58.3640   26.8960   46.1120 C   0  0  0  0  0  0  0  0  0  0  0  0
   58.7700   27.9790   47.4410 Cl  0  0  0  0  0  0  0  0  0  0  0  0
   58.4220   27.3140   44.7580 C   0  0  0  0  0  0  0  0  0  0  0  0
   58.8450   28.6610   44.4290 N   0  0  0  0  0  0  0  0  0  0  0  0
   57.7240   29.4180   43.8480 C   0  0  0  0  0  0  0  0  0  0  0  0
   57.1600   30.4270   44.8200 C   0  0  0  0  0  0  0  0  0  0  0  0
   56.1380   31.0930   44.5080 O   0  0  0  0  0  0  0  0  0  0  0  0
   57.7240   30.6150   46.1260 N   0  0  0  0  0  0  0  0  0  0  0  0
   59.0400   31.1640   46.4400 C   0  0  0  0  0  0  0  0  0  0  0  0
   58.9540   32.6480   46.9120 C   0  0  0  0  0  0  0  0  0  0  0  0
   58.9460   32.7240   48.4180 N   0  0  0  0  0  0  0  0  0  0  0  0
   58.9030   31.4880   49.2480 C   0  0  0  0  0  0  0  0  0  0  0  0
   60.1850   31.2530   50.0600 C   0  0  0  0  0  0  0  0  0  0  0  0
   60.5660   32.4130   50.7640 O   0  0  0  0  0  0  0  0  0  0  0  0
   60.8920   33.4200   49.8360 C   0  0  0  0  0  0  0  0  0  0  0  0
   59.6430   33.8630   49.0700 C   0  0  0  0  0  0  0  0  0  0  0  0
   57.6670   33.3160   46.2950 C   0  0  0  0  0  0  0  0  0  0  0  0
   57.8860   33.8600   44.8760 C   0  0  0  0  0  0  0  0  0  0  0  0
   58.9150   35.0040   44.8740 C   0  0  0  0  0  0  0  0  0  0  0  0
   59.9390   34.8840   46.0140 C   0  0  0  0  0  0  0  0  0  0  0  0
   60.2210   33.4150   46.3560 C   0  0  0  0  0  0  0  0  0  0  0  0
   58.2514   27.8305   42.1734 H   0  0  0  0  0  0  0  0  0  0  0  0
   59.0032   26.2445   41.7911 H   0  0  0  0  0  0  0  0  0  0  0  0
   57.2149   26.4141   41.7911 H   0  0  0  0  0  0  0  0  0  0  0  0
   57.4592   24.3475   43.3016 H   0  0  0  0  0  0  0  0  0  0  0  0
   57.3512   23.6615   45.6894 H   0  0  0  0  0  0  0  0  0  0  0  0
   57.9325   25.2796   47.4856 H   0  0  0  0  0  0  0  0  0  0  0  0
   59.6410   28.6310   43.7500 H   0  0  0  0  0  0  0  0  0  0  0  0
   59.2060   29.1510   45.2790 H   0  0  0  0  0  0  0  0  0  0  0  0
   58.0796   29.9480   42.9521 H   0  0  0  0  0  0  0  0  0  0  0  0
   56.9255   28.7044   43.5968 H   0  0  0  0  0  0  0  0  0  0  0  0
   59.4946   30.5620   47.2406 H   0  0  0  0  0  0  0  0  0  0  0  0
   59.6496   31.1323   45.5249 H   0  0  0  0  0  0  0  0  0  0  0  0
   58.0572   31.5667   49.9469 H   0  0  0  0  0  0  0  0  0  0  0  0
   58.7952   30.6377   48.5585 H   0  0  0  0  0  0  0  0  0  0  0  0
   60.0095   30.4392   50.7789 H   0  0  0  0  0  0  0  0  0  0  0  0
   60.9938   30.9891   49.3627 H   0  0  0  0  0  0  0  0  0  0  0  0
   61.3144   34.2833   50.3711 H   0  0  0  0  0  0  0  0  0  0  0  0
   61.6273   33.0224   49.1210 H   0  0  0  0  0  0  0  0  0  0  0  0
   58.9492   34.3457   49.7741 H   0  0  0  0  0  0  0  0  0  0  0  0
   59.9626   34.5581   48.2796 H   0  0  0  0  0  0  0  0  0  0  0  0
   56.8654   32.5635   46.2606 H   0  0  0  0  0  0  0  0  0  0  0  0
   57.4052   34.1714   46.9351 H   0  0  0  0  0  0  0  0  0  0  0  0
   58.2517   33.0467   44.2319 H   0  0  0  0  0  0  0  0  0  0  0  0
   56.9288   34.2504   44.4999 H   0  0  0  0  0  0  0  0  0  0  0  0
   59.4534   34.9912   43.9148 H   0  0  0  0  0  0  0  0  0  0  0  0
   58.3649   35.9454   45.0198 H   0  0  0  0  0  0  0  0  0  0  0  0
   60.8778   35.3668   45.7050 H   0  0  0  0  0  0  0  0  0  0  0  0
   59.5248   35.3755   46.9067 H   0  0  0  0  0  0  0  0  0  0  0  0
   60.5663   32.9044   45.4449 H   0  0  0  0  0  0  0  0  0  0  0  0
   60.9822   33.4055   47.1500 H   0  0  0  0  0  0  0  0  0  0  0  0
  1  2  1  0
  2  3  2  0
  3  4  1  0
  4  5  2  0
  5  6  1  0
  6  7  1  0
  6  8  2  0
  8  9  1  0
  9 10  1  0
 10 11  1  0
 11 12  2  0
 11 13  1  0
 13 14  1  0
 14 15  1  0
 15 16  1  0
 16 17  1  0
 17 18  1  0
 18 19  1  0
 19 20  1  0
 20 21  1  0
 15 22  1  0
 22 23  1  0
 23 24  1  0
 24 25  1  0
 25 26  1  0
  8  2  1  0
 26 15  1  0
 21 16  1  0
  1 27  1  0
  1 28  1  0
  1 29  1  0
  3 30  1  0
  4 31  1  0
  5 32  1  0
  9 33  1  0
  9 34  1  0
 10 35  1  0
 10 36  1  0
 14 37  1  0
 14 38  1  0
 17 39  1  0
 17 40  1  0
 18 41  1  0
 18 42  1  0
 20 43  1  0
 20 44  1  0
 21 45  1  0
 21 46  1  0
 22 47  1  0
 22 48  1  0
 23 49  1  0
 23 50  1  0
 24 51  1  0
 24 52  1  0
 25 53  1  0
 25 54  1  0
 26 55  1  0
 26 56  1  0
M  CHG  2   9   1  13  -1
M  END
>  <UniqueID>  (17) 
16

>  <SMILES>  (17) 
Cc1cccc(Cl)c1[NH2+]CC(=O)[N-]CC1(N2CCOCC2)CCCCC1

>  <Energy>  (17) 
86.80470556542112

>  <Genealogy>  (17) 
Cc1cccc(Cl)c1[NH2+]CC(=O)[N-]CC1(N2CCOCC2)CCCCC1 (protonated)
Cc1cccc(Cl)c1[NH2+]CC(=O)[N-]CC1(N2CCOCC2)CCCCC1 (3D coordinates assigned)
Cc1cccc(Cl)c1[NH2+]CC(=O)[N-]CC1(N2CCOCC2)CCCCC1 (nonaromatic ring conformer: 86.80470556542112 kcal/mol)

>  <smiles>  (17) 
Cc1cccc(Cl)c1NCC(=O)NCC1(N2CCOCC2)CCCCC1

>  <score_type>  (17) 
oracle

>  <origin>  (17) 
adg

>  <m_score__min__energy>  (17) 
-8.8300000000000001

>  <m_primary>  (17) 
energy

$$$$
17:0
     RDKit          3D

 40 43  0  0  0  0  0  0  0  0999 V2000
   60.1360   28.5850   47.7280 C   0  0  0  0  0  0  0  0  0  0  0  0
   58.9210   28.3520   46.8730 C   0  0  0  0  0  0  0  0  0  0  0  0
   58.4220   27.0520   46.6910 C   0  0  0  0  0  0  0  0  0  0  0  0
   57.2940   26.8380   45.8780 C   0  0  0  0  0  0  0  0  0  0  0  0
   56.7710   25.5120   45.6700 N   0  0  0  0  0  0  0  0  0  0  0  0
   56.2580   24.7680   46.8270 C   0  0  0  0  0  0  0  0  0  0  0  0
   55.6510   23.4370   46.3830 C   0  0  0  0  0  0  0  0  0  0  0  0
   54.9540   23.6250   45.1710 O   0  0  0  0  0  0  0  0  0  0  0  0
   55.8710   23.7890   44.1030 C   0  0  0  0  0  0  0  0  0  0  0  0
   57.0010   24.8050   44.4010 C   0  0  0  0  0  0  0  0  0  0  0  0
   56.7150   27.8960   45.2470 N   0  0  0  0  0  0  0  0  0  0  0  0
   57.1790   29.1640   45.3920 C   0  0  0  0  0  0  0  0  0  0  0  0
   56.5710   30.1950   44.7520 N   0  0  0  0  0  0  0  0  0  0  0  0
   57.0220   31.4700   44.8810 C   0  0  0  0  0  0  0  0  0  0  0  0
   58.1450   31.7360   45.6900 C   0  0  0  0  0  0  0  0  0  0  0  0
   58.6790   33.1100   45.8710 C   0  0  0  0  0  0  0  0  0  0  0  0
   59.1140   33.5790   47.1250 C   0  0  0  0  0  0  0  0  0  0  0  0
   59.6030   34.8790   47.2590 C   0  0  0  0  0  0  0  0  0  0  0  0
   59.6490   35.7120   46.1410 C   0  0  0  0  0  0  0  0  0  0  0  0
   59.2170   35.2560   44.9360 N   0  0  0  0  0  0  0  0  0  0  0  0
   58.7360   33.9950   44.7770 C   0  0  0  0  0  0  0  0  0  0  0  0
   58.7430   30.6960   46.3350 N   0  0  0  0  0  0  0  0  0  0  0  0
   58.2930   29.4190   46.2110 C   0  0  0  0  0  0  0  0  0  0  0  0
   59.8532   28.5308   48.7896 H   0  0  0  0  0  0  0  0  0  0  0  0
   60.8909   27.8153   47.5099 H   0  0  0  0  0  0  0  0  0  0  0  0
   60.5526   29.5794   47.5099 H   0  0  0  0  0  0  0  0  0  0  0  0
   58.9134   26.2005   47.1844 H   0  0  0  0  0  0  0  0  0  0  0  0
   57.0839   24.5734   47.5270 H   0  0  0  0  0  0  0  0  0  0  0  0
   55.4776   25.3682   47.3177 H   0  0  0  0  0  0  0  0  0  0  0  0
   56.4526   22.6984   46.2354 H   0  0  0  0  0  0  0  0  0  0  0  0
   54.9574   23.0720   47.1548 H   0  0  0  0  0  0  0  0  0  0  0  0
   56.3301   22.8130   43.8869 H   0  0  0  0  0  0  0  0  0  0  0  0
   55.3014   24.1842   43.2490 H   0  0  0  0  0  0  0  0  0  0  0  0
   57.9586   24.2670   44.4603 H   0  0  0  0  0  0  0  0  0  0  0  0
   57.0184   25.5485   43.5905 H   0  0  0  0  0  0  0  0  0  0  0  0
   56.5126   32.2916   44.3561 H   0  0  0  0  0  0  0  0  0  0  0  0
   59.0682   32.9179   48.0030 H   0  0  0  0  0  0  0  0  0  0  0  0
   59.9491   35.2437   48.2374 H   0  0  0  0  0  0  0  0  0  0  0  0
   60.0349   36.7378   46.2348 H   0  0  0  0  0  0  0  0  0  0  0  0
   58.3889   33.6634   43.7873 H   0  0  0  0  0  0  0  0  0  0  0  0
  1  2  1  0
  2  3  2  0
  3  4  1  0
  4  5  1  0
  5  6  1  0
  6  7  1  0
  7  8  1  0
  8  9  1  0
  9 10  1  0
  4 11  2  0
 11 12  1  0
 12 13  2  0
 13 14  1  0
 14 15  2  0
 15 16  1  0
 16 17  2  0
 17 18  1  0
 18 19  2  0
 19 20  1  0
 20 21  2  0
 15 22  1  0
 22 23  2  0
 23  2  1  0
 10  5  1  0
 23 12  1  0
 21 16  1  0
  1 24  1  0
  1 25  1  0
  1 26  1  0
  3 27  1  0
  6 28  1  0
  6 29  1  0
  7 30  1  0
  7 31  1  0
  9 32  1  0
  9 33  1  0
 10 34  1  0
 10 35  1  0
 14 36  1  0
 17 37  1  0
 18 38  1  0
 19 39  1  0
 21 40  1  0
M  END
>  <UniqueID>  (18) 
17

>  <SMILES>  (18) 
Cc1cc(N2CCOCC2)nc2ncc(-c3cccnc3)nc12

>  <Energy>  (18) 
62.207766531434906

>  <Genealogy>  (18) 
Cc1cc(N2CCOCC2)nc2ncc(-c3cccnc3)nc12 (3D coordinates assigned)
Cc1cc(N2CCOCC2)nc2ncc(-c3cccnc3)nc12 (nonaromatic ring conformer: 62.207766531434906 kcal/mol)

>  <smiles>  (18) 
Cc1cc(N2CCOCC2)nc2ncc(-c3cccnc3)nc12

>  <score_type>  (18) 
oracle

>  <origin>  (18) 
adg

>  <m_score__min__energy>  (18) 
-7.1500000000000004

>  <m_primary>  (18) 
energy

$$$$
18:0
     RDKit          3D

 38 40  0  0  0  0  0  0  0  0999 V2000
   58.1200   32.1250   43.4010 C   0  0  0  0  0  0  0  0  0  0  0  0
   57.4050   31.2170   44.3580 C   0  0  0  0  0  0  0  0  0  0  0  0
   56.2800   31.5770   44.7990 O   0  0  0  0  0  0  0  0  0  0  0  0
   57.9640   29.9470   44.7640 N   0  0  0  0  0  0  0  0  0  0  0  0
   58.7140   29.8340   46.0280 C   0  0  0  0  0  0  0  0  0  0  0  0
   59.7520   28.7170   45.9610 C   0  0  0  0  0  0  0  0  0  0  0  0
   59.1010   27.4390   45.5320 C   0  0  0  0  0  0  0  0  0  0  0  0
   59.5130   26.2060   46.0420 C   0  0  0  0  0  0  0  0  0  0  0  0
   58.9260   25.0660   45.6050 N   0  0  0  0  0  0  0  0  0  0  0  0
   57.9430   25.0870   44.6620 C   0  0  0  0  0  0  0  0  0  0  0  0
   57.3550   23.8450   44.2210 N   0  0  0  0  0  0  0  0  0  0  0  0
   56.0420   23.8260   43.5620 C   0  0  0  0  0  0  0  0  0  0  0  0
   55.9210   22.6000   42.6530 C   0  0  0  0  0  0  0  0  0  0  0  0
   56.2580   21.4180   43.3530 O   0  0  0  0  0  0  0  0  0  0  0  0
   57.6270   21.4530   43.7050 C   0  0  0  0  0  0  0  0  0  0  0  0
   57.9000   22.5730   44.7140 C   0  0  0  0  0  0  0  0  0  0  0  0
   57.5350   26.2850   44.1480 N   0  0  0  0  0  0  0  0  0  0  0  0
   58.0890   27.4590   44.5680 C   0  0  0  0  0  0  0  0  0  0  0  0
   57.6520   28.7620   43.9410 C   0  0  0  0  0  0  0  0  0  0  0  0
   58.7039   32.8665   43.9659 H   0  0  0  0  0  0  0  0  0  0  0  0
   58.7957   31.5314   42.7678 H   0  0  0  0  0  0  0  0  0  0  0  0
   57.3845   32.6427   42.7678 H   0  0  0  0  0  0  0  0  0  0  0  0
   59.2260   30.7870   46.2269 H   0  0  0  0  0  0  0  0  0  0  0  0
   58.0026   29.5980   46.8331 H   0  0  0  0  0  0  0  0  0  0  0  0
   60.5336   28.9889   45.2364 H   0  0  0  0  0  0  0  0  0  0  0  0
   60.1986   28.5785   46.9567 H   0  0  0  0  0  0  0  0  0  0  0  0
   60.3121   26.1606   46.7966 H   0  0  0  0  0  0  0  0  0  0  0  0
   55.2525   23.7897   44.3271 H   0  0  0  0  0  0  0  0  0  0  0  0
   55.9346   24.7353   42.9523 H   0  0  0  0  0  0  0  0  0  0  0  0
   54.8855   22.5211   42.2905 H   0  0  0  0  0  0  0  0  0  0  0  0
   56.6156   22.7186   41.8083 H   0  0  0  0  0  0  0  0  0  0  0  0
   57.9094   20.4883   44.1517 H   0  0  0  0  0  0  0  0  0  0  0  0
   58.2198   21.6428   42.7981 H   0  0  0  0  0  0  0  0  0  0  0  0
   57.4242   22.3215   45.6734 H   0  0  0  0  0  0  0  0  0  0  0  0
   58.9867   22.6769   44.8491 H   0  0  0  0  0  0  0  0  0  0  0  0
   56.7730   26.3180   43.4340 H   0  0  0  0  0  0  0  0  0  0  0  0
   58.1595   28.8687   42.9709 H   0  0  0  0  0  0  0  0  0  0  0  0
   56.5577   28.7196   43.8378 H   0  0  0  0  0  0  0  0  0  0  0  0
  1  2  1  0
  2  3  2  0
  2  4  1  0
  4  5  1  0
  5  6  1  0
  6  7  1  0
  7  8  2  0
  8  9  1  0
  9 10  2  0
 10 11  1  0
 11 12  1  0
 12 13  1  0
 13 14  1  0
 14 15  1  0
 15 16  1  0
 10 17  1  0
 17 18  2  0
 18 19  1  0
 19  4  1  0
 18  7  1  0
 16 11  1  0
  1 20  1  0
  1 21  1  0
  1 22  1  0
  5 23  1  0
  5 24  1  0
  6 25  1  0
  6 26  1  0
  8 27  1  0
 12 28  1  0
 12 29  1  0
 13 30  1  0
 13 31  1  0
 15 32  1  0
 15 33  1  0
 16 34  1  0
 16 35  1  0
 17 36  1  0
 19 37  1  0
 19 38  1  0
M  CHG  1  17   1
M  END
>  <UniqueID>  (19) 
18

>  <SMILES>  (19) 
CC(=O)N1CCc2cnc(N3CCOCC3)[nH+]c2C1

>  <Energy>  (19) 
43.866208426278725

>  <Genealogy>  (19) 
CC(=O)N1CCc2cnc(N3CCOCC3)[nH+]c2C1 (protonated)
CC(=O)N1CCc2cnc(N3CCOCC3)[nH+]c2C1 (3D coordinates assigned)
CC(=O)N1CCc2cnc(N3CCOCC3)[nH+]c2C1 (nonaromatic ring conformer: 43.866208426278725 kcal/mol)

>  <smiles>  (19) 
CC(=O)N1CCc2cnc(N3CCOCC3)nc2C1

>  <score_type>  (19) 
oracle

>  <origin>  (19) 
adg

>  <m_score__min__energy>  (19) 
-5.6200000000000001

>  <m_primary>  (19) 
energy

$$$$
19:0
     RDKit          3D

 56 59  0  0  0  0  0  0  0  0999 V2000
   56.5930   29.6860   43.3700 C   0  0  0  0  0  0  0  0  0  0  0  0
   56.7810   30.1070   44.7170 O   0  0  0  0  0  0  0  0  0  0  0  0
   57.4570   31.2790   45.0940 C   0  0  0  0  0  0  0  0  0  0  0  0
   57.8260   32.1880   44.0950 C   0  0  0  0  0  0  0  0  0  0  0  0
   58.5290   33.3550   44.4150 C   0  0  0  0  0  0  0  0  0  0  0  0
   58.8810   33.6230   45.7450 C   0  0  0  0  0  0  0  0  0  0  0  0
   58.4820   32.7330   46.7610 C   0  0  0  0  0  0  0  0  0  0  0  0
   57.7780   31.5670   46.4370 C   0  0  0  0  0  0  0  0  0  0  0  0
   58.8320   32.9830   48.0950 O   0  0  0  0  0  0  0  0  0  0  0  0
   59.4600   34.2050   48.4920 C   0  0  0  0  0  0  0  0  0  0  0  0
   60.4590   34.6720   47.4160 C   0  0  1  0  0  0  0  0  0  0  0  0
   61.6430   33.6890   47.2030 C   0  0  0  0  0  0  0  0  0  0  0  0
   61.4730   32.3840   47.8830 N   0  0  0  0  0  0  0  0  0  0  0  0
   61.9870   31.2320   47.1130 C   0  0  0  0  0  0  0  0  0  0  0  0
   60.9710   30.1200   46.9700 C   0  0  0  0  0  0  0  0  0  0  0  0
   60.3070   29.6090   48.0960 C   0  0  0  0  0  0  0  0  0  0  0  0
   59.4030   28.5510   47.9620 C   0  0  0  0  0  0  0  0  0  0  0  0
   59.1410   27.9920   46.6990 C   0  0  0  0  0  0  0  0  0  0  0  0
   58.2350   26.8780   46.5700 N   0  0  0  0  0  0  0  0  0  0  0  0
   57.4050   26.7470   45.3610 C   0  0  0  0  0  0  0  0  0  0  0  0
   56.0900   25.9740   45.6350 C   0  0  0  0  0  0  0  0  0  0  0  0
   55.9450   25.5790   46.9870 O   0  0  0  0  0  0  0  0  0  0  0  0
   57.0860   24.8490   47.3870 C   0  0  0  0  0  0  0  0  0  0  0  0
   58.2650   25.8070   47.5770 C   0  0  0  0  0  0  0  0  0  0  0  0
   59.8000   28.5110   45.5710 C   0  0  0  0  0  0  0  0  0  0  0  0
   60.7040   29.5680   45.7050 C   0  0  0  0  0  0  0  0  0  0  0  0
   59.6800   34.8590   46.0940 C   0  0  0  0  0  0  0  0  0  0  0  0
   56.1445   28.6816   43.3590 H   0  0  0  0  0  0  0  0  0  0  0  0
   55.9245   30.3918   42.8552 H   0  0  0  0  0  0  0  0  0  0  0  0
   57.5647   29.6593   42.8552 H   0  0  0  0  0  0  0  0  0  0  0  0
   57.5605   31.9827   43.0475 H   0  0  0  0  0  0  0  0  0  0  0  0
   58.8060   34.0638   43.6207 H   0  0  0  0  0  0  0  0  0  0  0  0
   57.4737   30.8721   47.2336 H   0  0  0  0  0  0  0  0  0  0  0  0
   58.6907   34.9787   48.6320 H   0  0  0  0  0  0  0  0  0  0  0  0
   60.0036   34.0365   49.4333 H   0  0  0  0  0  0  0  0  0  0  0  0
   60.9108   35.6154   47.7563 H   0  0  0  0  0  0  0  0  0  0  0  0
   61.7500   33.5052   46.1238 H   0  0  0  0  0  0  0  0  0  0  0  0
   62.5330   34.1631   47.6425 H   0  0  0  0  0  0  0  0  0  0  0  0
   60.4650   32.2170   48.1070 H   0  0  0  0  0  0  0  0  0  0  0  0
   61.9760   32.4140   48.8010 H   0  0  0  0  0  0  0  0  0  0  0  0
   62.2710   31.5795   46.1087 H   0  0  0  0  0  0  0  0  0  0  0  0
   62.8479   30.8244   47.6632 H   0  0  0  0  0  0  0  0  0  0  0  0
   60.4987   30.0429   49.0884 H   0  0  0  0  0  0  0  0  0  0  0  0
   58.8929   28.1529   48.8516 H   0  0  0  0  0  0  0  0  0  0  0  0
   57.1546   27.7527   44.9925 H   0  0  0  0  0  0  0  0  0  0  0  0
   57.9813   26.1796   44.6154 H   0  0  0  0  0  0  0  0  0  0  0  0
   55.2419   26.6214   45.3673 H   0  0  0  0  0  0  0  0  0  0  0  0
   56.1182   25.0568   45.0284 H   0  0  0  0  0  0  0  0  0  0  0  0
   56.8768   24.3326   48.3355 H   0  0  0  0  0  0  0  0  0  0  0  0
   57.3368   24.1083   46.6134 H   0  0  0  0  0  0  0  0  0  0  0  0
   58.2085   26.2539   48.5805 H   0  0  0  0  0  0  0  0  0  0  0  0
   59.2012   25.2411   47.4621 H   0  0  0  0  0  0  0  0  0  0  0  0
   59.6029   28.0826   44.5772 H   0  0  0  0  0  0  0  0  0  0  0  0
   61.2099   29.9707   44.8151 H   0  0  0  0  0  0  0  0  0  0  0  0
   58.9927   35.7111   46.2010 H   0  0  0  0  0  0  0  0  0  0  0  0
   60.4054   35.0416   45.2875 H   0  0  0  0  0  0  0  0  0  0  0  0
  1  2  1  0
  2  3  1  0
  3  4  2  0
  4  5  1  0
  5  6  2  0
  6  7  1  0
  7  8  2  0
  7  9  1  0
  9 10  1  0
 10 11  1  0
 11 12  1  0
 12 13  1  0
 13 14  1  0
 14 15  1  0
 15 16  2  0
 16 17  1  0
 17 18  2  0
 18 19  1  0
 19 20  1  0
 20 21  1  0
 21 22  1  0
 22 23  1  0
 23 24  1  0
 18 25  1  0
 25 26  2  0
 11 27  1  0
  8  3  1  0
 26 15  1  0
 27  6  1  0
 24 19  1  0
  1 28  1  0
  1 29  1  0
  1 30  1  0
  4 31  1  0
  5 32  1  0
  8 33  1  0
 10 34  1  0
 10 35  1  0
 11 36  1  1
 12 37  1  0
 12 38  1  0
 13 39  1  0
 13 40  1  0
 14 41  1  0
 14 42  1  0
 16 43  1  0
 17 44  1  0
 20 45  1  0
 20 46  1  0
 21 47  1  0
 21 48  1  0
 23 49  1  0
 23 50  1  0
 24 51  1  0
 24 52  1  0
 25 53  1  0
 26 54  1  0
 27 55  1  0
 27 56  1  0
M  CHG  1  13   1
M  END
>  <UniqueID>  (20) 
19

>  <SMILES>  (20) 
COc1ccc2c(c1)OC[C@@H](C[NH2+]Cc1ccc(N3CCOCC3)cc1)C2

>  <Energy>  (20) 
70.90499967612453

>  <Genealogy>  (20) 
COc1ccc2c(c1)OCC(C[NH2+]Cc1ccc(N3CCOCC3)cc1)C2 (protonated)
COc1ccc2c(c1)OC[C@@H](C[NH2+]Cc1ccc(N3CCOCC3)cc1)C2 (chirality)
COc1ccc2c(c1)OC[C@@H](C[NH2+]Cc1ccc(N3CCOCC3)cc1)C2 (3D coordinates assigned)
COc1ccc2c(c1)OC[C@@H](C[NH2+]Cc1ccc(N3CCOCC3)cc1)C2 (nonaromatic ring conformer: 70.90499967612453 kcal/mol)

>  <smiles>  (20) 
COc1ccc2c(c1)OCC(CNCc1ccc(N3CCOCC3)cc1)C2

>  <score_type>  (20) 
oracle

>  <origin>  (20) 
adg

>  <m_score__min__energy>  (20) 
-6.4500000000000002

>  <m_primary>  (20) 
energy

$$$$
20:0
     RDKit          3D

 72 75  0  0  0  0  0  0  0  0999 V2000
   62.4660   33.6490   49.6120 C   0  0  0  0  0  0  0  0  0  0  0  0
   61.1130   33.3100   49.3250 O   0  0  0  0  0  0  0  0  0  0  0  0
   60.6970   32.0660   48.8260 C   0  0  0  0  0  0  0  0  0  0  0  0
   59.3810   31.6610   49.0590 C   0  0  0  0  0  0  0  0  0  0  0  0
   58.9170   30.4330   48.5830 C   0  0  0  0  0  0  0  0  0  0  0  0
   59.7690   29.5680   47.8670 C   0  0  0  0  0  0  0  0  0  0  0  0
   59.3080   28.2050   47.3350 C   0  0  1  0  0  0  0  0  0  0  0  0
   57.8320   28.1530   46.8040 C   0  0  1  0  0  0  0  0  0  0  0  0
   57.4270   29.2340   45.8120 C   0  0  0  0  0  0  0  0  0  0  0  0
   56.2280   29.3130   45.4300 O   0  0  0  0  0  0  0  0  0  0  0  0
   58.3580   30.2010   45.3050 N   0  0  0  0  0  0  0  0  0  0  0  0
   58.1360   31.1420   44.2080 C   0  0  0  0  0  0  0  0  0  0  0  0
   57.4710   32.4280   44.7150 C   0  0  0  0  0  0  0  0  0  0  0  0
   58.4560   33.3030   45.3890 N   0  0  0  0  0  0  0  0  0  0  0  0
   58.8680   34.4090   44.5000 C   0  0  0  0  0  0  0  0  0  0  0  0
   59.6370   35.5130   45.2580 C   0  0  0  0  0  0  0  0  0  0  0  0
   60.1520   35.0560   46.5640 N   0  0  0  0  0  0  0  0  0  0  0  0
   61.2660   34.1040   46.4160 C   0  0  0  0  0  0  0  0  0  0  0  0
   59.0750   34.5330   47.4380 C   0  0  0  0  0  0  0  0  0  0  0  0
   57.9390   33.8380   46.6590 C   0  0  0  0  0  0  0  0  0  0  0  0
   57.4810   26.7810   46.2630 C   0  0  0  0  0  0  0  0  0  0  0  0
   56.1290   26.4400   46.0860 C   0  0  0  0  0  0  0  0  0  0  0  0
   55.7610   25.1730   45.5990 C   0  0  0  0  0  0  0  0  0  0  0  0
   54.4170   24.8070   45.4140 O   0  0  0  0  0  0  0  0  0  0  0  0
   53.8110   23.6460   45.9730 C   0  0  0  0  0  0  0  0  0  0  0  0
   56.7530   24.2370   45.2880 C   0  0  0  0  0  0  0  0  0  0  0  0
   56.3540   22.9760   44.8160 O   0  0  0  0  0  0  0  0  0  0  0  0
   56.9930   22.2680   43.7600 C   0  0  0  0  0  0  0  0  0  0  0  0
   58.1080   24.5780   45.4550 C   0  0  0  0  0  0  0  0  0  0  0  0
   58.4780   25.8450   45.9380 C   0  0  0  0  0  0  0  0  0  0  0  0
   59.9080   26.1810   46.1450 C   0  0  0  0  0  0  0  0  0  0  0  0
   60.7860   25.2870   45.9930 O   0  0  0  0  0  0  0  0  0  0  0  0
   60.3230   27.5250   46.4790 N   0  0  1  0  0  0  0  0  0  0  0  0
   60.7140   28.2330   45.2480 C   0  0  0  0  0  0  0  0  0  0  0  0
   61.0940   29.9880   47.6290 C   0  0  0  0  0  0  0  0  0  0  0  0
   61.5550   31.2190   48.1030 C   0  0  0  0  0  0  0  0  0  0  0  0
   62.6116   33.6855   50.7017 H   0  0  0  0  0  0  0  0  0  0  0  0
   63.1340   32.8905   49.1780 H   0  0  0  0  0  0  0  0  0  0  0  0
   62.6975   34.6329   49.1780 H   0  0  0  0  0  0  0  0  0  0  0  0
   58.7022   32.3168   49.6239 H   0  0  0  0  0  0  0  0  0  0  0  0
   57.8740   30.1371   48.7690 H   0  0  0  0  0  0  0  0  0  0  0  0
   59.2438   27.5712   48.2318 H   0  0  0  0  0  0  0  0  0  0  0  0
   57.2376   28.3700   47.7038 H   0  0  0  0  0  0  0  0  0  0  0  0
   59.1032   31.3939   43.7485 H   0  0  0  0  0  0  0  0  0  0  0  0
   57.4707   30.6702   43.4699 H   0  0  0  0  0  0  0  0  0  0  0  0
   57.0344   32.9679   43.8618 H   0  0  0  0  0  0  0  0  0  0  0  0
   56.6891   32.1566   45.4395 H   0  0  0  0  0  0  0  0  0  0  0  0
   59.5171   34.0046   43.7093 H   0  0  0  0  0  0  0  0  0  0  0  0
   57.9574   34.8605   44.0795 H   0  0  0  0  0  0  0  0  0  0  0  0
   60.4864   35.8382   44.6393 H   0  0  0  0  0  0  0  0  0  0  0  0
   58.9331   36.3365   45.4487 H   0  0  0  0  0  0  0  0  0  0  0  0
   61.6226   33.7993   47.4110 H   0  0  0  0  0  0  0  0  0  0  0  0
   60.9202   33.2181   45.8632 H   0  0  0  0  0  0  0  0  0  0  0  0
   62.0872   34.5836   45.8632 H   0  0  0  0  0  0  0  0  0  0  0  0
   59.5147   33.8059   48.1366 H   0  0  0  0  0  0  0  0  0  0  0  0
   58.6322   35.3943   47.9596 H   0  0  0  0  0  0  0  0  0  0  0  0
   57.5335   33.0135   47.2638 H   0  0  0  0  0  0  0  0  0  0  0  0
   57.1453   34.5695   46.4471 H   0  0  0  0  0  0  0  0  0  0  0  0
   55.3478   27.1744   46.3318 H   0  0  0  0  0  0  0  0  0  0  0  0
   53.8433   23.7080   47.0708 H   0  0  0  0  0  0  0  0  0  0  0  0
   52.7646   23.5822   45.6400 H   0  0  0  0  0  0  0  0  0  0  0  0
   54.3570   22.7510   45.6400 H   0  0  0  0  0  0  0  0  0  0  0  0
   57.6733   21.5142   44.1830 H   0  0  0  0  0  0  0  0  0  0  0  0
   56.2331   21.7695   43.1403 H   0  0  0  0  0  0  0  0  0  0  0  0
   57.5666   22.9730   43.1403 H   0  0  0  0  0  0  0  0  0  0  0  0
   58.8876   23.8436   45.2043 H   0  0  0  0  0  0  0  0  0  0  0  0
   61.1930   27.4380   47.0580 H   0  0  0  0  0  0  0  0  0  0  0  0
   61.2304   29.1680   45.5110 H   0  0  0  0  0  0  0  0  0  0  0  0
   61.3880   27.5957   44.6568 H   0  0  0  0  0  0  0  0  0  0  0  0
   59.8156   28.4641   44.6568 H   0  0  0  0  0  0  0  0  0  0  0  0
   61.7750   29.3366   47.0616 H   0  0  0  0  0  0  0  0  0  0  0  0
   62.5933   31.5265   47.9097 H   0  0  0  0  0  0  0  0  0  0  0  0
  1  2  1  0
  2  3  1  0
  3  4  2  0
  4  5  1  0
  5  6  2  0
  6  7  1  0
  7  8  1  0
  8  9  1  0
  9 10  2  0
  9 11  1  0
 11 12  1  0
 12 13  1  0
 13 14  1  0
 14 15  1  0
 15 16  1  0
 16 17  1  0
 17 18  1  0
 17 19  1  0
 19 20  1  0
  8 21  1  0
 21 22  2  0
 22 23  1  0
 23 24  1  0
 24 25  1  0
 23 26  2  0
 26 27  1  0
 27 28  1  0
 26 29  1  0
 29 30  2  0
 30 31  1  0
 31 32  2  0
 31 33  1  0
 33 34  1  0
  6 35  1  0
 35 36  2  0
 36  3  1  0
 33  7  1  0
 20 14  1  0
 30 21  1  0
  1 37  1  0
  1 38  1  0
  1 39  1  0
  4 40  1  0
  5 41  1  0
  7 42  1  1
  8 43  1  1
 12 44  1  0
 12 45  1  0
 13 46  1  0
 13 47  1  0
 15 48  1  0
 15 49  1  0
 16 50  1  0
 16 51  1  0
 18 52  1  0
 18 53  1  0
 18 54  1  0
 19 55  1  0
 19 56  1  0
 20 57  1  0
 20 58  1  0
 22 59  1  0
 25 60  1  0
 25 61  1  0
 25 62  1  0
 28 63  1  0
 28 64  1  0
 28 65  1  0
 29 66  1  0
 33 67  1  1
 34 68  1  0
 34 69  1  0
 34 70  1  0
 35 71  1  0
 36 72  1  0
M  CHG  2  11  -1  33   1
M  END
>  <UniqueID>  (21) 
20

>  <SMILES>  (21) 
COc1ccc([C@H]2[C@@H](C(=O)[N-]CCN3CCN(C)CC3)c3cc(OC)c(OC)cc3C(=O)[NH+]2C)cc1

>  <Energy>  (21) 
99.30945262230213

>  <Genealogy>  (21) 
COc1ccc(C2C(C(=O)[N-]CCN3CCN(C)CC3)c3cc(OC)c(OC)cc3C(=O)[NH+]2C)cc1 (protonated)
COc1ccc([C@H]2[C@@H](C(=O)[N-]CCN3CCN(C)CC3)c3cc(OC)c(OC)cc3C(=O)[NH+]2C)cc1 (chirality)
COc1ccc([C@H]2[C@@H](C(=O)[N-]CCN3CCN(C)CC3)c3cc(OC)c(OC)cc3C(=O)[NH+]2C)cc1 (3D coordinates assigned)
COc1ccc([C@H]2[C@@H](C(=O)[N-]CCN3CCN(C)CC3)c3cc(OC)c(OC)cc3C(=O)[NH+]2C)cc1 (nonaromatic ring conformer: 99.30945262230213 kcal/mol)

>  <smiles>  (21) 
COc1ccc(C2C(C(=O)NCCN3CCN(C)CC3)c3cc(OC)c(OC)cc3C(=O)N2C)cc1

>  <score_type>  (21) 
oracle

>  <origin>  (21) 
adg

>  <m_score__min__energy>  (21) 
-8.0999999999999996

>  <m_primary>  (21) 
energy

$$$$
21:0
     RDKit          3D

 49 51  0  0  0  0  0  0  0  0999 V2000
   56.5690   30.4690   43.2080 C   0  0  0  0  0  0  0  0  0  0  0  0
   57.6370   31.3820   43.8000 C   0  0  0  0  0  0  0  0  0  0  0  0
   57.4070   31.5900   45.1910 O   0  0  0  0  0  0  0  0  0  0  0  0
   57.7490   32.7730   45.8610 C   0  0  0  0  0  0  0  0  0  0  0  0
   57.0330   33.8060   45.7340 O   0  0  0  0  0  0  0  0  0  0  0  0
   58.9110   32.7920   46.7180 N   0  0  0  0  0  0  0  0  0  0  0  0
   59.9130   33.7410   46.2030 C   0  0  0  0  0  0  0  0  0  0  0  0
   61.2110   33.6640   47.0320 C   0  0  0  0  0  0  0  0  0  0  0  0
   60.9770   33.4510   48.4850 N   0  0  0  0  0  0  0  0  0  0  0  0
   61.3340   32.0900   48.9370 C   0  0  0  0  0  0  0  0  0  0  0  0
   60.8260   31.0750   47.9600 C   0  0  0  0  0  0  0  0  0  0  0  0
   61.4100   30.7340   46.7620 C   0  0  0  0  0  0  0  0  0  0  0  0
   60.6710   29.7980   46.2210 O   0  0  0  0  0  0  0  0  0  0  0  0
   59.6720   29.5620   47.0450 C   0  0  0  0  0  0  0  0  0  0  0  0
   58.6150   28.5630   46.7860 C   0  0  0  0  0  0  0  0  0  0  0  0
   58.5870   27.3610   47.5120 C   0  0  0  0  0  0  0  0  0  0  0  0
   57.5880   26.4120   47.2710 C   0  0  0  0  0  0  0  0  0  0  0  0
   56.6010   26.6510   46.2970 C   0  0  0  0  0  0  0  0  0  0  0  0
   55.5790   25.7300   46.0190 O   0  0  0  0  0  0  0  0  0  0  0  0
   55.7580   24.5330   45.2700 C   0  0  0  0  0  0  0  0  0  0  0  0
   56.6310   27.8480   45.5760 C   0  0  0  0  0  0  0  0  0  0  0  0
   57.6280   28.7990   45.8150 C   0  0  0  0  0  0  0  0  0  0  0  0
   59.7190   30.3340   48.1530 N   0  0  0  0  0  0  0  0  0  0  0  0
   59.6180   33.8400   48.9060 C   0  0  0  0  0  0  0  0  0  0  0  0
   58.5200   33.0900   48.1190 C   0  0  0  0  0  0  0  0  0  0  0  0
   56.0061   29.9878   44.0214 H   0  0  0  0  0  0  0  0  0  0  0  0
   55.8816   31.0630   42.5878 H   0  0  0  0  0  0  0  0  0  0  0  0
   57.0488   29.6976   42.5878 H   0  0  0  0  0  0  0  0  0  0  0  0
   58.6250   30.9183   43.6627 H   0  0  0  0  0  0  0  0  0  0  0  0
   57.5966   32.3535   43.2856 H   0  0  0  0  0  0  0  0  0  0  0  0
   59.3320   31.8330   46.6840 H   0  0  0  0  0  0  0  0  0  0  0  0
   60.1385   33.4950   45.1548 H   0  0  0  0  0  0  0  0  0  0  0  0
   59.5060   34.7603   46.2759 H   0  0  0  0  0  0  0  0  0  0  0  0
   61.8179   32.8292   46.6514 H   0  0  0  0  0  0  0  0  0  0  0  0
   61.7199   34.6334   46.9257 H   0  0  0  0  0  0  0  0  0  0  0  0
   62.4282   32.0068   49.0126 H   0  0  0  0  0  0  0  0  0  0  0  0
   60.8765   31.9049   49.9201 H   0  0  0  0  0  0  0  0  0  0  0  0
   62.3276   31.1672   46.3373 H   0  0  0  0  0  0  0  0  0  0  0  0
   59.3551   27.1647   48.2745 H   0  0  0  0  0  0  0  0  0  0  0  0
   57.5739   25.4742   47.8458 H   0  0  0  0  0  0  0  0  0  0  0  0
   55.8848   23.6849   45.9589 H   0  0  0  0  0  0  0  0  0  0  0  0
   54.8755   24.3617   44.6361 H   0  0  0  0  0  0  0  0  0  0  0  0
   56.6520   24.6273   44.6361 H   0  0  0  0  0  0  0  0  0  0  0  0
   55.8630   28.0439   44.8132 H   0  0  0  0  0  0  0  0  0  0  0  0
   57.6393   29.7365   45.2397 H   0  0  0  0  0  0  0  0  0  0  0  0
   59.5017   33.6147   49.9764 H   0  0  0  0  0  0  0  0  0  0  0  0
   59.4996   34.9150   48.7051 H   0  0  0  0  0  0  0  0  0  0  0  0
   58.3068   32.1410   48.6328 H   0  0  0  0  0  0  0  0  0  0  0  0
   57.6367   33.7445   48.0818 H   0  0  0  0  0  0  0  0  0  0  0  0
  1  2  1  0
  2  3  1  0
  3  4  1  0
  4  5  2  0
  4  6  1  0
  6  7  1  0
  7  8  1  0
  8  9  1  0
  9 10  1  0
 10 11  1  0
 11 12  2  0
 12 13  1  0
 13 14  1  0
 14 15  1  0
 15 16  2  0
 16 17  1  0
 17 18  2  0
 18 19  1  0
 19 20  1  0
 18 21  1  0
 21 22  2  0
 14 23  2  0
  9 24  1  0
 24 25  1  0
 25  6  1  0
 23 11  1  0
 22 15  1  0
  1 26  1  0
  1 27  1  0
  1 28  1  0
  2 29  1  0
  2 30  1  0
  6 31  1  0
  7 32  1  0
  7 33  1  0
  8 34  1  0
  8 35  1  0
 10 36  1  0
 10 37  1  0
 12 38  1  0
 16 39  1  0
 17 40  1  0
 20 41  1  0
 20 42  1  0
 20 43  1  0
 21 44  1  0
 22 45  1  0
 24 46  1  0
 24 47  1  0
 25 48  1  0
 25 49  1  0
M  CHG  1   6   1
M  END
>  <UniqueID>  (22) 
21

>  <SMILES>  (22) 
CCOC(=O)[NH+]1CCN(Cc2coc(-c3ccc(OC)cc3)n2)CC1

>  <Energy>  (22) 
87.9195749217209

>  <Genealogy>  (22) 
CCOC(=O)[NH+]1CCN(Cc2coc(-c3ccc(OC)cc3)n2)CC1 (protonated)
CCOC(=O)[NH+]1CCN(Cc2coc(-c3ccc(OC)cc3)n2)CC1 (3D coordinates assigned)
CCOC(=O)[NH+]1CCN(Cc2coc(-c3ccc(OC)cc3)n2)CC1 (nonaromatic ring conformer: 87.9195749217209 kcal/mol)

>  <smiles>  (22) 
CCOC(=O)N1CCN(Cc2coc(-c3ccc(OC)cc3)n2)CC1

>  <score_type>  (22) 
oracle

>  <origin>  (22) 
adg

>  <m_score__min__energy>  (22) 
-5.6399999999999997

>  <m_primary>  (22) 
energy

$$$$
22:0
     RDKit          3D

 47 50  0  0  0  0  0  0  0  0999 V2000
   62.6100   33.8370   48.3680 C   0  0  0  0  0  0  0  0  0  0  0  0
   61.3800   34.5410   48.4960 O   0  0  0  0  0  0  0  0  0  0  0  0
   60.2060   34.2300   47.7890 C   0  0  0  0  0  0  0  0  0  0  0  0
   60.0060   34.6500   46.4590 C   0  0  0  0  0  0  0  0  0  0  0  0
   58.8370   34.3020   45.7750 C   0  0  0  0  0  0  0  0  0  0  0  0
   58.6570   34.7040   44.4930 F   0  0  0  0  0  0  0  0  0  0  0  0
   57.8560   33.5400   46.4100 C   0  0  0  0  0  0  0  0  0  0  0  0
   58.0380   33.1250   47.7300 C   0  0  0  0  0  0  0  0  0  0  0  0
   59.2120   33.4600   48.4250 C   0  0  0  0  0  0  0  0  0  0  0  0
   59.4110   32.9610   49.8080 C   0  0  0  0  0  0  0  0  0  0  0  0
   59.2970   33.8580   50.8800 C   0  0  0  0  0  0  0  0  0  0  0  0
   59.4480   33.4120   52.1930 C   0  0  0  0  0  0  0  0  0  0  0  0
   59.7180   32.0690   52.4510 C   0  0  0  0  0  0  0  0  0  0  0  0
   59.8440   31.1570   51.3980 C   0  0  0  0  0  0  0  0  0  0  0  0
   60.2640   29.3340   51.8220 Br  0  0  0  0  0  0  0  0  0  0  0  0
   59.6960   31.5970   50.0660 C   0  0  0  0  0  0  0  0  0  0  0  0
   59.8640   30.6500   48.9420 C   0  0  0  0  0  0  0  0  0  0  0  0
   60.9330   30.8090   48.0470 C   0  0  0  0  0  0  0  0  0  0  0  0
   61.0050   30.0240   46.8950 C   0  0  0  0  0  0  0  0  0  0  0  0
   60.0050   29.0830   46.6240 C   0  0  0  0  0  0  0  0  0  0  0  0
   60.0110   28.1960   45.0680 S   0  0  0  0  0  0  0  0  0  0  0  0
   58.6700   29.1970   44.4190 C   0  0  0  0  0  0  0  0  0  0  0  0
   57.5960   28.5880   43.7560 C   0  0  0  0  0  0  0  0  0  0  0  0
   56.5730   29.3710   43.2120 C   0  0  0  0  0  0  0  0  0  0  0  0
   56.6190   30.7640   43.3320 C   0  0  0  0  0  0  0  0  0  0  0  0
   57.6860   31.3740   43.9970 C   0  0  0  0  0  0  0  0  0  0  0  0
   58.7110   30.5920   44.5420 C   0  0  0  0  0  0  0  0  0  0  0  0
   58.9600   28.8920   47.5360 C   0  0  0  0  0  0  0  0  0  0  0  0
   58.8890   29.6730   48.6920 C   0  0  0  0  0  0  0  0  0  0  0  0
   63.0079   33.6093   49.3679 H   0  0  0  0  0  0  0  0  0  0  0  0
   62.4403   32.8993   47.8186 H   0  0  0  0  0  0  0  0  0  0  0  0
   63.3326   34.4583   47.8186 H   0  0  0  0  0  0  0  0  0  0  0  0
   60.7742   35.2554   45.9556 H   0  0  0  0  0  0  0  0  0  0  0  0
   56.9379   33.2659   45.8696 H   0  0  0  0  0  0  0  0  0  0  0  0
   57.2575   32.5320   48.2292 H   0  0  0  0  0  0  0  0  0  0  0  0
   59.0872   34.9199   50.6842 H   0  0  0  0  0  0  0  0  0  0  0  0
   59.3537   34.1224   53.0275 H   0  0  0  0  0  0  0  0  0  0  0  0
   59.8327   31.7243   53.4893 H   0  0  0  0  0  0  0  0  0  0  0  0
   61.7158   31.5537   48.2536 H   0  0  0  0  0  0  0  0  0  0  0  0
   61.8485   30.1451   46.1995 H   0  0  0  0  0  0  0  0  0  0  0  0
   57.5576   27.4926   43.6634 H   0  0  0  0  0  0  0  0  0  0  0  0
   55.7320   28.8915   42.6897 H   0  0  0  0  0  0  0  0  0  0  0  0
   55.8148   31.3795   42.9026 H   0  0  0  0  0  0  0  0  0  0  0  0
   57.7204   32.4693   44.0922 H   0  0  0  0  0  0  0  0  0  0  0  0
   59.5493   31.0730   45.0672 H   0  0  0  0  0  0  0  0  0  0  0  0
   58.1943   28.1264   47.3421 H   0  0  0  0  0  0  0  0  0  0  0  0
   58.0672   29.5216   49.4074 H   0  0  0  0  0  0  0  0  0  0  0  0
  1  2  1  0
  2  3  1  0
  3  4  2  0
  4  5  1  0
  5  6  1  0
  5  7  2  0
  7  8  1  0
  8  9  2  0
  9 10  1  0
 10 11  2  0
 11 12  1  0
 12 13  2  0
 13 14  1  0
 14 15  1  0
 14 16  2  0
 16 17  1  0
 17 18  2  0
 18 19  1  0
 19 20  2  0
 20 21  1  0
 21 22  1  0
 22 23  2  0
 23 24  1  0
 24 25  2  0
 25 26  1  0
 26 27  2  0
 20 28  1  0
 28 29  2  0
  9  3  1  0
 16 10  1  0
 29 17  1  0
 27 22  1  0
  1 30  1  0
  1 31  1  0
  1 32  1  0
  4 33  1  0
  7 34  1  0
  8 35  1  0
 11 36  1  0
 12 37  1  0
 13 38  1  0
 18 39  1  0
 19 40  1  0
 23 41  1  0
 24 42  1  0
 25 43  1  0
 26 44  1  0
 27 45  1  0
 28 46  1  0
 29 47  1  0
M  END
>  <UniqueID>  (23) 
22

>  <SMILES>  (23) 
COc1cc(F)ccc1-c1cccc(Br)c1-c1ccc(Sc2ccccc2)cc1

>  <Energy>  (23) 
59.28968731756375

>  <Genealogy>  (23) 
COc1cc(F)ccc1-c1cccc(Br)c1-c1ccc(Sc2ccccc2)cc1 (3D coordinates assigned)
COc1cc(F)ccc1-c1cccc(Br)c1-c1ccc(Sc2ccccc2)cc1 (optimized conformer: 59.28968731756375 kcal/mol)

>  <smiles>  (23) 
COc1cc(F)ccc1-c1cccc(Br)c1-c1ccc(Sc2ccccc2)cc1

>  <score_type>  (23) 
oracle

>  <origin>  (23) 
adg

>  <m_score__min__energy>  (23) 
-8.9199999999999999

>  <m_primary>  (23) 
energy

$$$$
23:0
     RDKit          3D

 49 52  0  0  0  0  0  0  0  0999 V2000
   55.5820   23.4590   47.6520 C   0  0  0  0  0  0  0  0  0  0  0  0
   56.2460   24.6780   47.0970 C   0  0  0  0  0  0  0  0  0  0  0  0
   57.6140   24.8910   47.2830 C   0  0  0  0  0  0  0  0  0  0  0  0
   58.2010   26.0430   46.7640 C   0  0  0  0  0  0  0  0  0  0  0  0
   57.4070   26.9650   46.0670 C   0  0  0  0  0  0  0  0  0  0  0  0
   57.9650   28.1730   45.5120 N   0  0  0  0  0  0  0  0  0  0  0  0
   59.3820   28.3930   45.2690 C   0  0  0  0  0  0  0  0  0  0  0  0
   59.4560   29.7050   44.4970 C   0  0  0  0  0  0  0  0  0  0  0  0
   58.1460   30.4520   44.8370 C   0  0  0  0  0  0  0  0  0  0  0  0
   57.6590   31.3460   43.6580 C   0  0  0  0  0  0  0  0  0  0  0  0
   58.1600   32.7850   43.8150 C   0  0  0  0  0  0  0  0  0  0  0  0
   57.5910   33.4310   45.0240 N   0  0  0  0  0  0  0  0  0  0  0  0
   58.3880   34.6170   45.4000 C   0  0  0  0  0  0  0  0  0  0  0  0
   59.4330   34.2470   46.4140 C   0  0  0  0  0  0  0  0  0  0  0  0
   59.2640   34.5810   47.7660 C   0  0  0  0  0  0  0  0  0  0  0  0
   60.2470   34.2170   48.6880 C   0  0  0  0  0  0  0  0  0  0  0  0
   61.3830   33.5270   48.2580 C   0  0  0  0  0  0  0  0  0  0  0  0
   61.5180   33.2110   46.9050 C   0  0  0  0  0  0  0  0  0  0  0  0
   60.5500   33.5750   46.0200 N   0  0  0  0  0  0  0  0  0  0  0  0
   57.3910   32.5020   46.1700 C   0  0  0  0  0  0  0  0  0  0  0  0
   58.3490   31.3030   46.1340 C   0  0  0  0  0  0  0  0  0  0  0  0
   57.1500   29.3050   45.1020 C   0  0  0  0  0  0  0  0  0  0  0  0
   56.0770   26.7070   45.9230 N   0  0  0  0  0  0  0  0  0  0  0  0
   55.5170   25.6040   46.4220 N   0  0  0  0  0  0  0  0  0  0  0  0
   55.6033   23.4981   48.7511 H   0  0  0  0  0  0  0  0  0  0  0  0
   54.5383   23.4206   47.3066 H   0  0  0  0  0  0  0  0  0  0  0  0
   56.1158   22.5613   47.3066 H   0  0  0  0  0  0  0  0  0  0  0  0
   58.2212   24.1571   47.8333 H   0  0  0  0  0  0  0  0  0  0  0  0
   59.2769   26.2275   46.8997 H   0  0  0  0  0  0  0  0  0  0  0  0
   59.9285   28.4738   46.2202 H   0  0  0  0  0  0  0  0  0  0  0  0
   59.8374   27.5615   44.7112 H   0  0  0  0  0  0  0  0  0  0  0  0
   60.3290   30.2923   44.8179 H   0  0  0  0  0  0  0  0  0  0  0  0
   59.5648   29.5389   43.4151 H   0  0  0  0  0  0  0  0  0  0  0  0
   58.0410   30.9335   42.7125 H   0  0  0  0  0  0  0  0  0  0  0  0
   56.5591   31.3566   43.6582 H   0  0  0  0  0  0  0  0  0  0  0  0
   59.2568   32.7744   43.8982 H   0  0  0  0  0  0  0  0  0  0  0  0
   57.8393   33.3598   42.9337 H   0  0  0  0  0  0  0  0  0  0  0  0
   58.8804   35.0216   44.5035 H   0  0  0  0  0  0  0  0  0  0  0  0
   57.7185   35.3722   45.8375 H   0  0  0  0  0  0  0  0  0  0  0  0
   58.3662   35.1241   48.0962 H   0  0  0  0  0  0  0  0  0  0  0  0
   60.1273   34.4730   49.7511 H   0  0  0  0  0  0  0  0  0  0  0  0
   62.1624   33.2359   48.9775 H   0  0  0  0  0  0  0  0  0  0  0  0
   62.4074   32.6674   46.5537 H   0  0  0  0  0  0  0  0  0  0  0  0
   57.5560   33.0565   47.1056 H   0  0  0  0  0  0  0  0  0  0  0  0
   56.3652   32.1101   46.1053 H   0  0  0  0  0  0  0  0  0  0  0  0
   59.3851   31.6712   46.1624 H   0  0  0  0  0  0  0  0  0  0  0  0
   58.1389   30.6644   47.0047 H   0  0  0  0  0  0  0  0  0  0  0  0
   56.4470   29.5827   45.9012 H   0  0  0  0  0  0  0  0  0  0  0  0
   56.5464   29.0735   44.2120 H   0  0  0  0  0  0  0  0  0  0  0  0
  1  2  1  0
  2  3  2  0
  3  4  1  0
  4  5  2  0
  5  6  1  0
  6  7  1  0
  7  8  1  0
  8  9  1  0
  9 10  1  0
 10 11  1  0
 11 12  1  0
 12 13  1  0
 13 14  1  0
 14 15  2  0
 15 16  1  0
 16 17  2  0
 17 18  1  0
 18 19  2  0
 12 20  1  0
 20 21  1  0
  9 22  1  0
  5 23  1  0
 23 24  2  0
 24  2  1  0
 22  6  1  0
 21  9  1  0
 19 14  1  0
  1 25  1  0
  1 26  1  0
  1 27  1  0
  3 28  1  0
  4 29  1  0
  7 30  1  0
  7 31  1  0
  8 32  1  0
  8 33  1  0
 10 34  1  0
 10 35  1  0
 11 36  1  0
 11 37  1  0
 13 38  1  0
 13 39  1  0
 15 40  1  0
 16 41  1  0
 17 42  1  0
 18 43  1  0
 20 44  1  0
 20 45  1  0
 21 46  1  0
 21 47  1  0
 22 48  1  0
 22 49  1  0
M  END
>  <UniqueID>  (24) 
23

>  <SMILES>  (24) 
Cc1ccc(N2CCC3(CCN(Cc4ccccn4)CC3)C2)nn1

>  <Energy>  (24) 
64.51153602306627

>  <Genealogy>  (24) 
Cc1ccc(N2CCC3(CCN(Cc4ccccn4)CC3)C2)nn1 (3D coordinates assigned)
Cc1ccc(N2CCC3(CCN(Cc4ccccn4)CC3)C2)nn1 (nonaromatic ring conformer: 64.51153602306627 kcal/mol)

>  <smiles>  (24) 
Cc1ccc(N2CCC3(CCN(Cc4ccccn4)CC3)C2)nn1

>  <score_type>  (24) 
oracle

>  <origin>  (24) 
adg

>  <m_score__min__energy>  (24) 
-8.6099999999999994

>  <m_primary>  (24) 
energy

$$$$
24:0
     RDKit          3D

 41 43  0  0  0  0  0  0  0  0999 V2000
   57.0480   31.9640   41.3920 C   0  0  0  0  0  0  0  0  0  0  0  0
   58.1440   31.9990   42.4520 C   0  0  0  0  0  0  0  0  0  0  0  0
   57.6190   31.5830   43.7590 N   0  0  0  0  0  0  0  0  0  0  0  0
   58.0300   32.2980   44.9400 C   0  0  0  0  0  0  0  0  0  0  0  0
   57.1450   33.1490   45.6180 C   0  0  0  0  0  0  0  0  0  0  0  0
   57.5630   33.8190   46.7250 N   0  0  0  0  0  0  0  0  0  0  0  0
   58.8380   33.6860   47.1880 C   0  0  0  0  0  0  0  0  0  0  0  0
   59.2720   34.3770   48.3290 C   0  0  0  0  0  0  0  0  0  0  0  0
   60.5890   34.2270   48.7770 C   0  0  0  0  0  0  0  0  0  0  0  0
   61.4750   33.3890   48.0910 C   0  0  0  0  0  0  0  0  0  0  0  0
   61.0490   32.6970   46.9520 C   0  0  0  0  0  0  0  0  0  0  0  0
   59.7340   32.8420   46.5000 C   0  0  0  0  0  0  0  0  0  0  0  0
   59.3060   32.1760   45.3960 N   0  0  0  0  0  0  0  0  0  0  0  0
   56.8160   30.0400   43.9280 S   0  0  0  0  0  0  0  0  0  0  0  0
   55.4450   30.2250   44.5140 O   0  0  0  0  0  0  0  0  0  0  0  0
   56.6350   29.4480   42.5570 O   0  0  0  0  0  0  0  0  0  0  0  0
   57.7490   28.9150   44.9380 C   0  0  0  0  0  0  0  0  0  0  0  0
   57.9870   29.2630   46.2800 C   0  0  0  0  0  0  0  0  0  0  0  0
   58.7190   28.4230   47.1180 C   0  0  0  0  0  0  0  0  0  0  0  0
   59.2380   27.2270   46.6280 C   0  0  0  0  0  0  0  0  0  0  0  0
   59.0280   26.8700   45.2960 C   0  0  0  0  0  0  0  0  0  0  0  0
   58.2830   27.6980   44.4380 C   0  0  0  0  0  0  0  0  0  0  0  0
   58.1290   27.2890   42.9990 C   0  0  0  0  0  0  0  0  0  0  0  0
   56.0641   31.9326   41.8828 H   0  0  0  0  0  0  0  0  0  0  0  0
   57.1161   32.8648   40.7643 H   0  0  0  0  0  0  0  0  0  0  0  0
   57.1734   31.0694   40.7643 H   0  0  0  0  0  0  0  0  0  0  0  0
   58.9545   31.3171   42.1553 H   0  0  0  0  0  0  0  0  0  0  0  0
   58.5213   33.0289   42.5352 H   0  0  0  0  0  0  0  0  0  0  0  0
   56.1143   33.2743   45.2548 H   0  0  0  0  0  0  0  0  0  0  0  0
   56.8870   34.4500   47.2150 H   0  0  0  0  0  0  0  0  0  0  0  0
   58.5777   35.0360   48.8709 H   0  0  0  0  0  0  0  0  0  0  0  0
   60.9290   34.7696   49.6714 H   0  0  0  0  0  0  0  0  0  0  0  0
   62.5091   33.2740   48.4481 H   0  0  0  0  0  0  0  0  0  0  0  0
   61.7475   32.0400   46.4131 H   0  0  0  0  0  0  0  0  0  0  0  0
   57.5903   30.2105   46.6735 H   0  0  0  0  0  0  0  0  0  0  0  0
   58.8869   28.7053   48.1678 H   0  0  0  0  0  0  0  0  0  0  0  0
   59.8133   26.5642   47.2911 H   0  0  0  0  0  0  0  0  0  0  0  0
   59.4503   25.9295   44.9123 H   0  0  0  0  0  0  0  0  0  0  0  0
   57.7418   26.2606   42.9495 H   0  0  0  0  0  0  0  0  0  0  0  0
   57.4258   27.9701   42.4975 H   0  0  0  0  0  0  0  0  0  0  0  0
   59.1068   27.3371   42.4975 H   0  0  0  0  0  0  0  0  0  0  0  0
  1  2  1  0
  2  3  1  0
  3  4  1  0
  4  5  2  0
  5  6  1  0
  6  7  2  0
  7  8  1  0
  8  9  2  0
  9 10  1  0
 10 11  2  0
 11 12  1  0
 12 13  2  0
  3 14  1  0
 14 15  2  0
 14 16  2  0
 14 17  1  0
 17 18  2  0
 18 19  1  0
 19 20  2  0
 20 21  1  0
 21 22  2  0
 22 23  1  0
 13  4  1  0
 22 17  1  0
 12  7  1  0
  1 24  1  0
  1 25  1  0
  1 26  1  0
  2 27  1  0
  2 28  1  0
  5 29  1  0
  6 30  1  0
  8 31  1  0
  9 32  1  0
 10 33  1  0
 11 34  1  0
 18 35  1  0
 19 36  1  0
 20 37  1  0
 21 38  1  0
 23 39  1  0
 23 40  1  0
 23 41  1  0
M  CHG  1   6   1
M  END
>  <UniqueID>  (25) 
24

>  <SMILES>  (25) 
CCN(c1c[nH+]c2ccccc2n1)S(=O)(=O)c1ccccc1C

>  <Energy>  (25) 
50.77366478897796

>  <Genealogy>  (25) 
CCN(c1c[nH+]c2ccccc2n1)S(=O)(=O)c1ccccc1C (protonated)
CCN(c1c[nH+]c2ccccc2n1)S(=O)(=O)c1ccccc1C (3D coordinates assigned)
CCN(c1c[nH+]c2ccccc2n1)S(=O)(=O)c1ccccc1C (optimized conformer: 50.77366478897796 kcal/mol)

>  <smiles>  (25) 
CCN(c1cnc2ccccc2n1)S(=O)(=O)c1ccccc1C

>  <score_type>  (25) 
oracle

>  <origin>  (25) 
adg

>  <m_score__min__energy>  (25) 
-6.9299999999999997

>  <m_primary>  (25) 
energy

$$$$
25:0
     RDKit          3D

 47 48  0  0  0  0  0  0  0  0999 V2000
   65.4400   31.8650   50.4560 C   0  0  0  0  0  0  0  0  0  0  0  0
   65.1440   33.1150   49.6210 C   0  0  0  0  0  0  0  0  0  0  0  0
   63.7530   33.1120   49.0710 N   0  0  0  0  0  0  0  0  0  0  0  0
   63.7010   32.6510   47.6580 C   0  0  0  0  0  0  0  0  0  0  0  0
   63.3800   33.7870   46.6800 C   0  0  0  0  0  0  0  0  0  0  0  0
   62.8210   32.3360   49.9320 C   0  0  0  0  0  0  0  0  0  0  0  0
   61.3580   32.8420   49.9310 C   0  0  0  0  0  0  0  0  0  0  0  0
   61.2690   34.1820   49.3240 N   0  0  0  0  0  0  0  0  0  0  0  0
   59.8800   34.5730   49.0380 C   0  0  0  0  0  0  0  0  0  0  0  0
   59.3400   33.9010   47.7970 C   0  0  0  0  0  0  0  0  0  0  0  0
   59.3740   34.5660   46.5610 C   0  0  0  0  0  0  0  0  0  0  0  0
   58.8570   33.9550   45.4150 C   0  0  0  0  0  0  0  0  0  0  0  0
   58.2880   32.6690   45.4850 C   0  0  0  0  0  0  0  0  0  0  0  0
   57.7390   32.0210   44.2640 C   0  0  0  0  0  0  0  0  0  0  0  0
   56.9710   30.8460   44.3600 C   0  0  0  0  0  0  0  0  0  0  0  0
   56.4530   30.2600   43.2020 C   0  0  0  0  0  0  0  0  0  0  0  0
   56.6900   30.8230   41.9870 N   0  0  0  0  0  0  0  0  0  0  0  0
   57.4340   31.9550   41.8590 C   0  0  0  0  0  0  0  0  0  0  0  0
   57.9710   32.5740   42.9910 C   0  0  0  0  0  0  0  0  0  0  0  0
   58.2500   32.0080   46.7270 C   0  0  0  0  0  0  0  0  0  0  0  0
   58.7710   32.6180   47.8720 C   0  0  0  0  0  0  0  0  0  0  0  0
   65.3806   32.1159   51.5254 H   0  0  0  0  0  0  0  0  0  0  0  0
   64.7020   31.0839   50.2211 H   0  0  0  0  0  0  0  0  0  0  0  0
   66.4499   31.4978   50.2211 H   0  0  0  0  0  0  0  0  0  0  0  0
   65.2715   34.0037   50.2566 H   0  0  0  0  0  0  0  0  0  0  0  0
   65.8426   33.1262   48.7714 H   0  0  0  0  0  0  0  0  0  0  0  0
   63.3720   34.0900   49.0890 H   0  0  0  0  0  0  0  0  0  0  0  0
   64.6779   32.2216   47.3911 H   0  0  0  0  0  0  0  0  0  0  0  0
   62.8958   31.9057   47.5796 H   0  0  0  0  0  0  0  0  0  0  0  0
   63.1233   34.6954   47.2447 H   0  0  0  0  0  0  0  0  0  0  0  0
   64.2575   33.9846   46.0468 H   0  0  0  0  0  0  0  0  0  0  0  0
   62.5289   33.4961   46.0468 H   0  0  0  0  0  0  0  0  0  0  0  0
   62.8219   31.2928   49.5830 H   0  0  0  0  0  0  0  0  0  0  0  0
   63.1862   32.4507   50.9633 H   0  0  0  0  0  0  0  0  0  0  0  0
   60.7347   32.1426   49.3544 H   0  0  0  0  0  0  0  0  0  0  0  0
   61.0044   32.9014   50.9709 H   0  0  0  0  0  0  0  0  0  0  0  0
   61.8050   34.1940   48.4260 H   0  0  0  0  0  0  0  0  0  0  0  0
   59.2498   34.2927   49.8949 H   0  0  0  0  0  0  0  0  0  0  0  0
   59.8643   35.6595   48.8667 H   0  0  0  0  0  0  0  0  0  0  0  0
   59.8100   35.5737   46.4940 H   0  0  0  0  0  0  0  0  0  0  0  0
   58.8950   34.4831   44.4508 H   0  0  0  0  0  0  0  0  0  0  0  0
   56.7791   30.3905   45.3427 H   0  0  0  0  0  0  0  0  0  0  0  0
   55.8522   29.3413   43.2734 H   0  0  0  0  0  0  0  0  0  0  0  0
   57.6132   32.3840   40.8621 H   0  0  0  0  0  0  0  0  0  0  0  0
   58.5723   33.4893   42.8874 H   0  0  0  0  0  0  0  0  0  0  0  0
   57.8069   31.0036   46.7973 H   0  0  0  0  0  0  0  0  0  0  0  0
   58.7354   32.0910   48.8369 H   0  0  0  0  0  0  0  0  0  0  0  0
  1  2  1  0
  2  3  1  0
  3  4  1  0
  4  5  1  0
  3  6  1  0
  6  7  1  0
  7  8  1  0
  8  9  1  0
  9 10  1  0
 10 11  2  0
 11 12  1  0
 12 13  2  0
 13 14  1  0
 14 15  2  0
 15 16  1  0
 16 17  2  0
 17 18  1  0
 18 19  2  0
 13 20  1  0
 20 21  2  0
 21 10  1  0
 19 14  1  0
  1 22  1  0
  1 23  1  0
  1 24  1  0
  2 25  1  0
  2 26  1  0
  3 27  1  0
  4 28  1  0
  4 29  1  0
  5 30  1  0
  5 31  1  0
  5 32  1  0
  6 33  1  0
  6 34  1  0
  7 35  1  0
  7 36  1  0
  8 37  1  0
  9 38  1  0
  9 39  1  0
 11 40  1  0
 12 41  1  0
 15 42  1  0
 16 43  1  0
 18 44  1  0
 19 45  1  0
 20 46  1  0
 21 47  1  0
M  CHG  1   3   1
M  END
>  <UniqueID>  (26) 
25

>  <SMILES>  (26) 
CC[NH+](CC)CCNCc1ccc(-c2ccncc2)cc1

>  <Energy>  (26) 
57.50311033853775

>  <Genealogy>  (26) 
CC[NH+](CC)CCNCc1ccc(-c2ccncc2)cc1 (protonated)
CC[NH+](CC)CCNCc1ccc(-c2ccncc2)cc1 (3D coordinates assigned)
CC[NH+](CC)CCNCc1ccc(-c2ccncc2)cc1 (optimized conformer: 57.50311033853775 kcal/mol)

>  <smiles>  (26) 
CCN(CC)CCNCc1ccc(-c2ccncc2)cc1

>  <score_type>  (26) 
oracle

>  <origin>  (26) 
adg

>  <m_score__min__energy>  (26) 
-5.3899999999999997

>  <m_primary>  (26) 
energy

$$$$
26:0
     RDKit          3D

 46 47  0  0  0  0  0  0  0  0999 V2000
   58.9270   29.2690   48.6180 C   0  0  0  0  0  0  0  0  0  0  0  0
   59.9780   28.2340   48.2140 C   0  0  0  0  0  0  0  0  0  0  0  0
   59.3560   26.9410   47.6620 C   0  0  0  0  0  0  0  0  0  0  0  0
   59.2010   26.9260   46.1300 C   0  0  0  0  0  0  0  0  0  0  0  0
   58.1920   27.9060   45.6670 N   0  0  0  0  0  0  0  0  0  0  0  0
   58.5560   29.1820   45.2780 C   0  0  0  0  0  0  0  0  0  0  0  0
   59.9300   29.6140   45.3040 N   0  0  0  0  0  0  0  0  0  0  0  0
   57.5650   30.0950   44.8590 C   0  0  0  0  0  0  0  0  0  0  0  0
   57.9190   31.4240   44.4300 N   0  0  0  0  0  0  0  0  0  0  0  0
   58.3370   31.6340   43.0330 C   0  0  0  0  0  0  0  0  0  0  0  0
   57.1480   31.5570   42.0670 C   0  0  0  0  0  0  0  0  0  0  0  0
   57.3900   32.3470   40.7820 C   0  0  0  0  0  0  0  0  0  0  0  0
   57.7500   32.5250   45.3450 C   0  0  0  0  0  0  0  0  0  0  0  0
   56.6010   33.0120   45.5250 O   0  0  0  0  0  0  0  0  0  0  0  0
   58.8890   33.0700   46.1150 C   0  0  0  0  0  0  0  0  0  0  0  0
   58.9590   34.4350   46.4350 C   0  0  0  0  0  0  0  0  0  0  0  0
   60.0050   34.9000   47.1670 N   0  0  0  0  0  0  0  0  0  0  0  0
   60.9860   34.0660   47.6020 C   0  0  0  0  0  0  0  0  0  0  0  0
   60.9150   32.7070   47.2960 C   0  0  0  0  0  0  0  0  0  0  0  0
   59.8690   32.2410   46.5640 N   0  0  0  0  0  0  0  0  0  0  0  0
   56.2310   29.6830   44.8590 C   0  0  0  0  0  0  0  0  0  0  0  0
   55.3130   30.4660   44.4970 O   0  0  0  0  0  0  0  0  0  0  0  0
   55.9160   28.4270   45.2460 N   0  0  0  0  0  0  0  0  0  0  0  0
   56.8640   27.5450   45.6420 C   0  0  0  0  0  0  0  0  0  0  0  0
   56.4990   26.3900   45.9900 O   0  0  0  0  0  0  0  0  0  0  0  0
   58.8702   29.3249   49.7151 H   0  0  0  0  0  0  0  0  0  0  0  0
   59.2076   30.2532   48.2147 H   0  0  0  0  0  0  0  0  0  0  0  0
   57.9472   28.9733   48.2147 H   0  0  0  0  0  0  0  0  0  0  0  0
   60.6240   28.6725   47.4391 H   0  0  0  0  0  0  0  0  0  0  0  0
   60.5479   27.9694   49.1169 H   0  0  0  0  0  0  0  0  0  0  0  0
   59.9978   26.0965   47.9532 H   0  0  0  0  0  0  0  0  0  0  0  0
   58.3434   26.8685   48.0855 H   0  0  0  0  0  0  0  0  0  0  0  0
   60.1707   27.1709   45.6721 H   0  0  0  0  0  0  0  0  0  0  0  0
   58.8634   25.9225   45.8315 H   0  0  0  0  0  0  0  0  0  0  0  0
   60.2370   30.5380   45.6730 H   0  0  0  0  0  0  0  0  0  0  0  0
   60.6960   29.0100   44.9340 H   0  0  0  0  0  0  0  0  0  0  0  0
   58.8033   32.6264   42.9459 H   0  0  0  0  0  0  0  0  0  0  0  0
   59.0485   30.8390   42.7649 H   0  0  0  0  0  0  0  0  0  0  0  0
   56.9725   30.5029   41.8060 H   0  0  0  0  0  0  0  0  0  0  0  0
   56.2759   31.9974   42.5725 H   0  0  0  0  0  0  0  0  0  0  0  0
   57.7036   33.3707   41.0345 H   0  0  0  0  0  0  0  0  0  0  0  0
   58.1791   31.8565   40.1931 H   0  0  0  0  0  0  0  0  0  0  0  0
   56.4616   32.3826   40.1931 H   0  0  0  0  0  0  0  0  0  0  0  0
   58.1718   35.1240   46.0952 H   0  0  0  0  0  0  0  0  0  0  0  0
   61.8284   34.4592   48.1901 H   0  0  0  0  0  0  0  0  0  0  0  0
   61.6989   32.0183   47.6442 H   0  0  0  0  0  0  0  0  0  0  0  0
  1  2  1  0
  2  3  1  0
  3  4  1  0
  4  5  1  0
  5  6  1  0
  6  7  1  0
  6  8  2  0
  8  9  1  0
  9 10  1  0
 10 11  1  0
 11 12  1  0
  9 13  1  0
 13 14  2  0
 13 15  1  0
 15 16  2  0
 16 17  1  0
 17 18  2  0
 18 19  1  0
 19 20  2  0
  8 21  1  0
 21 22  2  0
 21 23  1  0
 23 24  1  0
 24 25  2  0
 24  5  1  0
 20 15  1  0
  1 26  1  0
  1 27  1  0
  1 28  1  0
  2 29  1  0
  2 30  1  0
  3 31  1  0
  3 32  1  0
  4 33  1  0
  4 34  1  0
  7 35  1  0
  7 36  1  0
 10 37  1  0
 10 38  1  0
 11 39  1  0
 11 40  1  0
 12 41  1  0
 12 42  1  0
 12 43  1  0
 16 44  1  0
 18 45  1  0
 19 46  1  0
M  CHG  1  23  -1
M  END
>  <UniqueID>  (27) 
26

>  <SMILES>  (27) 
CCCCn1c(N)c(N(CCC)C(=O)c2cnccn2)c(=O)[n-]c1=O

>  <Energy>  (27) 
56.28199086224345

>  <Genealogy>  (27) 
CCCCn1c(N)c(N(CCC)C(=O)c2cnccn2)c(=O)[n-]c1=O (protonated)
CCCCn1c(N)c(N(CCC)C(=O)c2cnccn2)c(=O)[n-]c1=O (3D coordinates assigned)
CCCCn1c(N)c(N(CCC)C(=O)c2cnccn2)c(=O)[n-]c1=O (optimized conformer: 56.28199086224345 kcal/mol)

>  <smiles>  (27) 
CCCCn1c(N)c(N(CCC)C(=O)c2cnccn2)c(=O)[nH]c1=O

>  <score_type>  (27) 
oracle

>  <origin>  (27) 
adg

>  <m_score__min__energy>  (27) 
-8.0800000000000001

>  <m_primary>  (27) 
energy

$$$$
27:0
     RDKit          3D

 53 56  0  0  0  0  0  0  0  0999 V2000
   58.8880   33.9050   44.5230 C   0  0  0  0  0  0  0  0  0  0  0  0
   59.1640   34.2180   45.9360 N   0  0  0  0  0  0  0  0  0  0  0  0
   58.0000   33.9090   46.8090 C   0  0  0  0  0  0  0  0  0  0  0  0
   58.1710   32.6300   47.6510 C   0  0  0  0  0  0  0  0  0  0  0  0
   58.9930   31.6530   46.9300 N   0  0  0  0  0  0  0  0  0  0  0  0
   58.5140   30.3190   46.6710 C   0  0  0  0  0  0  0  0  0  0  0  0
   57.7030   30.0560   45.5570 C   0  0  0  0  0  0  0  0  0  0  0  0
   57.2510   28.7590   45.2970 C   0  0  0  0  0  0  0  0  0  0  0  0
   57.6050   27.6950   46.1460 C   0  0  0  0  0  0  0  0  0  0  0  0
   57.1230   26.3180   45.8720 C   0  0  0  0  0  0  0  0  0  0  0  0
   55.8060   26.0130   46.0160 N   0  0  0  0  0  0  0  0  0  0  0  0
   55.3250   24.7610   45.7820 C   0  0  0  0  0  0  0  0  0  0  0  0
   53.9580   24.4930   45.9420 O   0  0  0  0  0  0  0  0  0  0  0  0
   53.0180   24.4680   44.8690 C   0  0  0  0  0  0  0  0  0  0  0  0
   51.8060   23.6100   45.2260 C   0  0  0  0  0  0  0  0  0  0  0  0
   52.2150   22.3350   45.6300 O   0  0  0  0  0  0  0  0  0  0  0  0
   56.2150   23.7470   45.3730 C   0  0  0  0  0  0  0  0  0  0  0  0
   55.8300   22.4180   45.1030 C   0  0  0  0  0  0  0  0  0  0  0  0
   54.6230   22.0670   45.2250 O   0  0  0  0  0  0  0  0  0  0  0  0
   56.7700   21.5010   44.7070 N   0  0  0  0  0  0  0  0  0  0  0  0
   56.3770   20.1130   44.4310 C   0  0  0  0  0  0  0  0  0  0  0  0
   58.0790   21.8700   44.5830 C   0  0  0  0  0  0  0  0  0  0  0  0
   58.4660   23.1440   44.8410 N   0  0  0  0  0  0  0  0  0  0  0  0
   57.5710   24.0840   45.2290 C   0  0  0  0  0  0  0  0  0  0  0  0
   57.9910   25.3490   45.4800 N   0  0  0  0  0  0  0  0  0  0  0  0
   58.4250   27.9600   47.2570 C   0  0  0  0  0  0  0  0  0  0  0  0
   58.8780   29.2570   47.5140 C   0  0  0  0  0  0  0  0  0  0  0  0
   60.3210   32.0640   46.4620 C   0  0  0  0  0  0  0  0  0  0  0  0
   60.4240   33.5990   46.4000 C   0  0  0  0  0  0  0  0  0  0  0  0
   58.1615   33.0811   44.4651 H   0  0  0  0  0  0  0  0  0  0  0  0
   58.4746   34.7941   44.0245 H   0  0  0  0  0  0  0  0  0  0  0  0
   59.8219   33.6061   44.0245 H   0  0  0  0  0  0  0  0  0  0  0  0
   57.8465   34.7561   47.4937 H   0  0  0  0  0  0  0  0  0  0  0  0
   57.1395   33.7404   46.1448 H   0  0  0  0  0  0  0  0  0  0  0  0
   58.6607   32.8846   48.6025 H   0  0  0  0  0  0  0  0  0  0  0  0
   57.1802   32.1923   47.8427 H   0  0  0  0  0  0  0  0  0  0  0  0
   57.4203   30.8775   44.8822 H   0  0  0  0  0  0  0  0  0  0  0  0
   56.6132   28.5690   44.4212 H   0  0  0  0  0  0  0  0  0  0  0  0
   52.6833   25.4947   44.6595 H   0  0  0  0  0  0  0  0  0  0  0  0
   53.5067   24.0349   43.9837 H   0  0  0  0  0  0  0  0  0  0  0  0
   51.2509   24.0895   46.0457 H   0  0  0  0  0  0  0  0  0  0  0  0
   51.1619   23.5146   44.3394 H   0  0  0  0  0  0  0  0  0  0  0  0
   53.1410   22.4370   45.9710 H   0  0  0  0  0  0  0  0  0  0  0  0
   56.2258   19.5790   45.3807 H   0  0  0  0  0  0  0  0  0  0  0  0
   55.4413   20.1049   43.8528 H   0  0  0  0  0  0  0  0  0  0  0  0
   57.1696   19.6156   43.8528 H   0  0  0  0  0  0  0  0  0  0  0  0
   58.8270   21.1264   44.2707 H   0  0  0  0  0  0  0  0  0  0  0  0
   58.7127   27.1389   47.9301 H   0  0  0  0  0  0  0  0  0  0  0  0
   59.5246   29.4471   48.3833 H   0  0  0  0  0  0  0  0  0  0  0  0
   61.0835   31.6784   47.1548 H   0  0  0  0  0  0  0  0  0  0  0  0
   60.4824   31.6572   45.4528 H   0  0  0  0  0  0  0  0  0  0  0  0
   60.6587   33.9805   47.4047 H   0  0  0  0  0  0  0  0  0  0  0  0
   61.2159   33.8587   45.6821 H   0  0  0  0  0  0  0  0  0  0  0  0
  1  2  1  0
  2  3  1  0
  3  4  1  0
  4  5  1  0
  5  6  1  0
  6  7  2  0
  7  8  1  0
  8  9  2  0
  9 10  1  0
 10 11  2  0
 11 12  1  0
 12 13  1  0
 13 14  1  0
 14 15  1  0
 15 16  1  0
 12 17  2  0
 17 18  1  0
 18 19  2  0
 18 20  1  0
 20 21  1  0
 20 22  1  0
 22 23  2  0
 23 24  1  0
 24 25  2  0
  9 26  1  0
 26 27  2  0
  5 28  1  0
 28 29  1  0
 29  2  1  0
 27  6  1  0
 25 10  1  0
 24 17  1  0
  1 30  1  0
  1 31  1  0
  1 32  1  0
  3 33  1  0
  3 34  1  0
  4 35  1  0
  4 36  1  0
  7 37  1  0
  8 38  1  0
 14 39  1  0
 14 40  1  0
 15 41  1  0
 15 42  1  0
 16 43  1  0
 21 44  1  0
 21 45  1  0
 21 46  1  0
 22 47  1  0
 26 48  1  0
 27 49  1  0
 28 50  1  0
 28 51  1  0
 29 52  1  0
 29 53  1  0
M  END
>  <UniqueID>  (28) 
27

>  <SMILES>  (28) 
CN1CCN(c2ccc(-c3nc(OCCO)c4c(=O)n(C)cnc4n3)cc2)CC1

>  <Energy>  (28) 
73.0925293792676

>  <Genealogy>  (28) 
CN1CCN(c2ccc(-c3nc(OCCO)c4c(=O)n(C)cnc4n3)cc2)CC1 (3D coordinates assigned)
CN1CCN(c2ccc(-c3nc(OCCO)c4c(=O)n(C)cnc4n3)cc2)CC1 (nonaromatic ring conformer: 73.0925293792676 kcal/mol)

>  <smiles>  (28) 
CN1CCN(c2ccc(-c3nc(OCCO)c4c(=O)n(C)cnc4n3)cc2)CC1

>  <score_type>  (28) 
oracle

>  <origin>  (28) 
adg

>  <m_score__min__energy>  (28) 
-7.1900000000000004

>  <m_primary>  (28) 
energy

$$$$
28:0
     RDKit          3D

 52 56  0  0  0  0  0  0  0  0999 V2000
   55.9042   31.9731   44.0917 H   0  0  0  0  0  0  0  0  0  0  0  0
   56.7370   31.5520   44.6740 C   0  0  0  0  0  0  0  0  0  0  0  0
   56.7500   30.2290   44.9810 N   0  0  0  0  0  0  0  0  0  0  0  0
   57.7650   29.6790   45.6980 C   0  0  0  0  0  0  0  0  0  0  0  0
   57.7170   28.4140   45.9990 N   0  0  0  0  0  0  0  0  0  0  0  0
   57.6250   27.3230   45.0680 C   0  0  0  0  0  0  0  0  0  0  0  0
   57.1620   26.0830   45.5150 C   0  0  0  0  0  0  0  0  0  0  0  0
   56.8847   25.9478   46.5709 H   0  0  0  0  0  0  0  0  0  0  0  0
   57.0510   25.0150   44.6220 C   0  0  0  0  0  0  0  0  0  0  0  0
   56.7019   24.0324   44.9722 H   0  0  0  0  0  0  0  0  0  0  0  0
   57.3870   25.2060   43.2820 C   0  0  0  0  0  0  0  0  0  0  0  0
   57.3141   24.3679   42.5732 H   0  0  0  0  0  0  0  0  0  0  0  0
   57.8050   26.4270   42.8490 N   0  0  0  0  0  0  0  0  0  0  0  0
   58.0360   26.5600   41.8390 H   0  0  0  0  0  0  0  0  0  0  0  0
   57.9180   27.4820   43.7020 C   0  0  0  0  0  0  0  0  0  0  0  0
   58.2397   28.4625   43.3211 H   0  0  0  0  0  0  0  0  0  0  0  0
   58.7840   30.4700   46.1360 N   0  0  0  0  0  0  0  0  0  0  0  0
   58.8100   31.7970   45.8620 C   0  0  0  0  0  0  0  0  0  0  0  0
   57.7820   32.3790   45.0980 C   0  0  0  0  0  0  0  0  0  0  0  0
   57.7300   33.8840   44.8690 C   0  0  0  0  0  0  0  0  0  0  0  0
   57.1428   34.3398   45.6799 H   0  0  0  0  0  0  0  0  0  0  0  0
   57.2726   34.0461   43.8818 H   0  0  0  0  0  0  0  0  0  0  0  0
   59.1260   34.5510   44.8400 C   0  0  0  0  0  0  0  0  0  0  0  0
   59.0146   35.6287   45.0301 H   0  0  0  0  0  0  0  0  0  0  0  0
   59.5772   34.3807   43.8514 H   0  0  0  0  0  0  0  0  0  0  0  0
   60.0220   33.9580   45.8850 C   0  0  0  0  0  0  0  0  0  0  0  0
   61.1100   34.5360   46.4240 N   0  0  0  0  0  0  0  0  0  0  0  0
   61.6790   33.6340   47.2130 N   0  0  0  0  0  0  0  0  0  0  0  0
   62.8590   33.9200   48.0220 C   0  0  0  0  0  0  0  0  0  0  0  0
   62.5967   33.8564   49.0884 H   0  0  0  0  0  0  0  0  0  0  0  0
   63.6466   33.1867   47.7938 H   0  0  0  0  0  0  0  0  0  0  0  0
   63.2234   34.9325   47.7938 H   0  0  0  0  0  0  0  0  0  0  0  0
   60.9790   32.4730   47.1750 C   0  0  0  0  0  0  0  0  0  0  0  0
   61.2920   31.2460   47.9910 C   0  0  0  0  0  0  0  0  0  0  0  0
   62.2226   31.4149   48.5527 H   0  0  0  0  0  0  0  0  0  0  0  0
   61.4043   30.3901   47.3092 H   0  0  0  0  0  0  0  0  0  0  0  0
   60.1790   30.9460   48.9600 C   0  0  0  0  0  0  0  0  0  0  0  0
   59.4150   31.9870   49.5100 C   0  0  0  0  0  0  0  0  0  0  0  0
   59.6363   33.0296   49.2379 H   0  0  0  0  0  0  0  0  0  0  0  0
   58.3750   31.7080   50.4010 C   0  0  0  0  0  0  0  0  0  0  0  0
   57.7828   32.5314   50.8268 H   0  0  0  0  0  0  0  0  0  0  0  0
   58.0820   30.3770   50.7560 C   0  0  0  0  0  0  0  0  0  0  0  0
   57.0480   30.0450   51.6450 O   0  0  0  0  0  0  0  0  0  0  0  0
   56.1830   30.9930   52.2610 C   0  0  0  0  0  0  0  0  0  0  0  0
   56.2627   30.9057   53.3546 H   0  0  0  0  0  0  0  0  0  0  0  0
   56.4724   32.0083   51.9522 H   0  0  0  0  0  0  0  0  0  0  0  0
   55.1455   30.7976   51.9522 H   0  0  0  0  0  0  0  0  0  0  0  0
   58.8460   29.3410   50.2070 C   0  0  0  0  0  0  0  0  0  0  0  0
   58.6257   28.2981   50.4786 H   0  0  0  0  0  0  0  0  0  0  0  0
   59.8860   29.6200   49.3170 C   0  0  0  0  0  0  0  0  0  0  0  0
   60.4789   28.7960   48.8934 H   0  0  0  0  0  0  0  0  0  0  0  0
   59.9070   32.6630   46.3150 C   0  0  0  0  0  0  0  0  0  0  0  0
  1  2  1  0
  2  3  1  0
  3  4  1  0
  4  5  2  0
  5  6  1  0
  6  7  2  0
  7  8  1  0
  7  9  1  0
  9 10  1  0
  9 11  2  0
 11 12  1  0
 11 13  1  0
 13 14  1  0
 13 15  2  0
 15 16  1  0
  4 17  1  0
 17 18  2  0
 18 19  1  0
 19 20  1  0
 20 21  1  0
 20 22  1  0
 20 23  1  0
 23 24  1  0
 23 25  1  0
 23 26  1  0
 26 27  2  0
 27 28  1  0
 28 29  1  0
 29 30  1  0
 29 31  1  0
 29 32  1  0
 28 33  1  0
 33 34  1  0
 34 35  1  0
 34 36  1  0
 34 37  1  0
 37 38  2  0
 38 39  1  0
 38 40  1  0
 40 41  1  0
 40 42  2  0
 42 43  1  0
 43 44  1  0
 44 45  1  0
 44 46  1  0
 44 47  1  0
 42 48  1  0
 48 49  1  0
 48 50  2  0
 50 51  1  0
 33 52  2  0
 19  2  2  0
 52 26  1  0
 15  6  1  0
 52 18  1  0
 50 37  1  0
M  CHG  2   3  -1  13   1
M  END
>  <UniqueID>  (29) 
28

>  <SMILES>  (29) 
COc1ccc(Cc2c3c(nn2C)CCc2c[n-]/c(=N/c4ccc[nH+]c4)nc2-3)cc1

>  <Energy>  (29) 
96.89108034300155

>  <Genealogy>  (29) 
COc1ccc(Cc2c3c(nn2C)CCc2c[n-]c(=Nc4ccc[nH+]c4)nc2-3)cc1 (protonated)
COc1ccc(Cc2c3c(nn2C)CCc2c[n-]/c(=N/c4ccc[nH+]c4)nc2-3)cc1 (cis-trans isomerization)
COc1ccc(Cc2c3c(nn2C)CCc2c[n-]/c(=N/c4ccc[nH+]c4)nc2-3)cc1 (3D coordinates assigned)
COc1ccc(Cc2c3c(nn2C)CCc2c[n-]/c(=N/c4ccc[nH+]c4)nc2-3)cc1 (nonaromatic ring conformer: 96.89108034300155 kcal/mol)

>  <smiles>  (29) 
COc1ccc(Cc2c3c(nn2C)CCc2c[nH]c(=Nc4cccnc4)nc2-3)cc1

>  <score_type>  (29) 
oracle

>  <origin>  (29) 
adg

>  <m_score__min__energy>  (29) 
-8.5399999999999991

>  <m_primary>  (29) 
energy

$$$$
29:0
     RDKit          3D

 27 29  0  0  0  0  0  0  0  0999 V2000
   60.2980   32.9030   50.0640 C   0  0  0  0  0  0  0  0  0  0  0  0
   59.7450   33.2810   48.7610 N   0  0  0  0  0  0  0  0  0  0  0  0
   59.7890   34.5860   48.3670 C   0  0  0  0  0  0  0  0  0  0  0  0
   59.3020   34.9650   47.1200 C   0  0  0  0  0  0  0  0  0  0  0  0
   58.7770   33.9990   46.2560 C   0  0  0  0  0  0  0  0  0  0  0  0
   58.2910   34.3890   45.0040 C   0  0  0  0  0  0  0  0  0  0  0  0
   57.7700   33.4470   44.1250 C   0  0  0  0  0  0  0  0  0  0  0  0
   57.7230   32.0940   44.4790 C   0  0  0  0  0  0  0  0  0  0  0  0
   57.1910   31.1650   43.5700 C   0  0  0  0  0  0  0  0  0  0  0  0
   57.1310   29.8130   43.8980 C   0  0  0  0  0  0  0  0  0  0  0  0
   57.5990   29.3740   45.1340 C   0  0  0  0  0  0  0  0  0  0  0  0
   58.1320   30.2830   46.0510 C   0  0  0  0  0  0  0  0  0  0  0  0
   58.2090   31.6640   45.7460 C   0  0  0  0  0  0  0  0  0  0  0  0
   58.7450   32.6350   46.6490 C   0  0  0  0  0  0  0  0  0  0  0  0
   59.2580   32.3130   47.9290 C   0  0  0  0  0  0  0  0  0  0  0  0
   59.6749   33.3289   50.8643 H   0  0  0  0  0  0  0  0  0  0  0  0
   60.3103   31.8067   50.1530 H   0  0  0  0  0  0  0  0  0  0  0  0
   61.3240   33.2896   50.1530 H   0  0  0  0  0  0  0  0  0  0  0  0
   60.2130   35.3452   49.0407 H   0  0  0  0  0  0  0  0  0  0  0  0
   59.3299   36.0214   46.8147 H   0  0  0  0  0  0  0  0  0  0  0  0
   58.3213   35.4493   44.7128 H   0  0  0  0  0  0  0  0  0  0  0  0
   57.3916   33.7675   43.1432 H   0  0  0  0  0  0  0  0  0  0  0  0
   56.8194   31.5075   42.5929 H   0  0  0  0  0  0  0  0  0  0  0  0
   56.7137   29.0913   43.1804 H   0  0  0  0  0  0  0  0  0  0  0  0
   57.5486   28.3053   45.3896 H   0  0  0  0  0  0  0  0  0  0  0  0
   58.4970   29.9212   47.0236 H   0  0  0  0  0  0  0  0  0  0  0  0
   59.2645   31.2639   48.2596 H   0  0  0  0  0  0  0  0  0  0  0  0
  1  2  1  0
  2  3  2  0
  3  4  1  0
  4  5  2  0
  5  6  1  0
  6  7  2  0
  7  8  1  0
  8  9  2  0
  9 10  1  0
 10 11  2  0
 11 12  1  0
 12 13  2  0
 13 14  1  0
 14 15  2  0
 15  2  1  0
 14  5  1  0
 13  8  1  0
  1 16  1  0
  1 17  1  0
  1 18  1  0
  3 19  1  0
  4 20  1  0
  6 21  1  0
  7 22  1  0
  9 23  1  0
 10 24  1  0
 11 25  1  0
 12 26  1  0
 15 27  1  0
M  CHG  1   2   1
M  END
>  <UniqueID>  (30) 
29

>  <SMILES>  (30) 
C[n+]1ccc2ccc3ccccc3c2c1

>  <Energy>  (30) 
41.06000333672654

>  <Genealogy>  (30) 
C[n+]1ccc2ccc3ccccc3c2c1 (3D coordinates assigned)
C[n+]1ccc2ccc3ccccc3c2c1 (optimized conformer: 41.06000333672654 kcal/mol)

>  <smiles>  (30) 
C[n+]1ccc2ccc3ccccc3c2c1

>  <score_type>  (30) 
oracle

>  <origin>  (30) 
adg

>  <m_score__min__energy>  (30) 
-4.9400000000000004

>  <m_primary>  (30) 
energy

$$$$
30:0
     RDKit          3D

 43 44  0  0  0  0  0  0  0  0999 V2000
   57.9080   33.8790   46.7530 C   0  0  0  0  0  0  0  0  0  0  0  0
   59.1120   33.7030   45.9210 N   0  0  0  0  0  0  0  0  0  0  0  0
   59.6350   35.0220   45.5290 C   0  0  0  0  0  0  0  0  0  0  0  0
   60.1530   32.9380   46.6430 C   0  0  0  0  0  0  0  0  0  0  0  0
   59.7570   31.4570   46.8210 C   0  0  0  0  0  0  0  0  0  0  0  0
   58.5150   31.0970   46.1090 N   0  0  0  0  0  0  0  0  0  0  0  0
   58.3480   29.6630   45.9890 C   0  0  0  0  0  0  0  0  0  0  0  0
   59.3410   28.8130   46.5140 C   0  0  0  0  0  0  0  0  0  0  0  0
   59.1800   27.4290   46.5020 C   0  0  0  0  0  0  0  0  0  0  0  0
   58.0240   26.8560   45.9640 C   0  0  0  0  0  0  0  0  0  0  0  0
   57.8540   25.4280   45.9710 N   0  0  0  0  0  0  0  0  0  0  0  0
   59.0350   24.5700   45.8150 C   0  0  0  0  0  0  0  0  0  0  0  0
   58.6290   23.1090   45.5930 C   0  0  0  0  0  0  0  0  0  0  0  0
   57.6990   22.7080   46.5820 O   0  0  0  0  0  0  0  0  0  0  0  0
   56.4530   23.3390   46.3550 C   0  0  0  0  0  0  0  0  0  0  0  0
   56.5880   24.8360   46.3210 C   0  0  0  0  0  0  0  0  0  0  0  0
   55.5730   25.5550   46.5170 O   0  0  0  0  0  0  0  0  0  0  0  0
   57.0270   27.6870   45.4350 C   0  0  0  0  0  0  0  0  0  0  0  0
   57.1780   29.0850   45.4260 C   0  0  0  0  0  0  0  0  0  0  0  0
   56.1300   29.8900   44.8640 N   0  0  0  0  0  0  0  0  0  0  0  0
   55.1160   29.3440   44.3840 O   0  0  0  0  0  0  0  0  0  0  0  0
   56.3330   31.2300   44.6300 O   0  0  0  0  0  0  0  0  0  0  0  0
   58.1877   33.8381   47.8161 H   0  0  0  0  0  0  0  0  0  0  0  0
   57.4488   34.8538   46.5319 H   0  0  0  0  0  0  0  0  0  0  0  0
   57.1890   33.0764   46.5319 H   0  0  0  0  0  0  0  0  0  0  0  0
   59.8671   35.6073   46.4310 H   0  0  0  0  0  0  0  0  0  0  0  0
   60.5493   34.8911   44.9315 H   0  0  0  0  0  0  0  0  0  0  0  0
   58.8795   35.5532   44.9315 H   0  0  0  0  0  0  0  0  0  0  0  0
   61.0922   32.9892   46.0727 H   0  0  0  0  0  0  0  0  0  0  0  0
   60.2721   33.3822   47.6422 H   0  0  0  0  0  0  0  0  0  0  0  0
   60.5743   30.8282   46.4379 H   0  0  0  0  0  0  0  0  0  0  0  0
   59.5776   31.2935   47.8939 H   0  0  0  0  0  0  0  0  0  0  0  0
   58.5140   31.5510   45.1660 H   0  0  0  0  0  0  0  0  0  0  0  0
   57.7000   31.5080   46.6130 H   0  0  0  0  0  0  0  0  0  0  0  0
   60.2571   29.2483   46.9398 H   0  0  0  0  0  0  0  0  0  0  0  0
   59.9673   26.7834   46.9184 H   0  0  0  0  0  0  0  0  0  0  0  0
   59.6190   24.9162   44.9495 H   0  0  0  0  0  0  0  0  0  0  0  0
   59.6351   24.6303   46.7349 H   0  0  0  0  0  0  0  0  0  0  0  0
   58.1701   23.0058   44.5986 H   0  0  0  0  0  0  0  0  0  0  0  0
   59.5234   22.4721   45.6598 H   0  0  0  0  0  0  0  0  0  0  0  0
   56.0492   22.9951   45.3913 H   0  0  0  0  0  0  0  0  0  0  0  0
   55.7776   23.0735   47.1816 H   0  0  0  0  0  0  0  0  0  0  0  0
   56.1121   27.2386   45.0204 H   0  0  0  0  0  0  0  0  0  0  0  0
  1  2  1  0
  2  3  1  0
  2  4  1  0
  4  5  1  0
  5  6  1  0
  6  7  1  0
  7  8  2  0
  8  9  1  0
  9 10  2  0
 10 11  1  0
 11 12  1  0
 12 13  1  0
 13 14  1  0
 14 15  1  0
 15 16  1  0
 16 17  2  0
 10 18  1  0
 18 19  2  0
 19 20  1  0
 20 21  2  0
 20 22  1  0
 19  7  1  0
 16 11  1  0
  1 23  1  0
  1 24  1  0
  1 25  1  0
  3 26  1  0
  3 27  1  0
  3 28  1  0
  4 29  1  0
  4 30  1  0
  5 31  1  0
  5 32  1  0
  6 33  1  0
  6 34  1  0
  8 35  1  0
  9 36  1  0
 12 37  1  0
 12 38  1  0
 13 39  1  0
 13 40  1  0
 15 41  1  0
 15 42  1  0
 18 43  1  0
M  CHG  3   6   1  20   1  22  -1
M  END
>  <UniqueID>  (31) 
30

>  <SMILES>  (31) 
CN(C)CC[NH2+]c1ccc(N2CCOCC2=O)cc1[N+](=O)[O-]

>  <Energy>  (31) 
57.66419526973399

>  <Genealogy>  (31) 
CN(C)CC[NH2+]c1ccc(N2CCOCC2=O)cc1[N+](=O)[O-] (protonated)
CN(C)CC[NH2+]c1ccc(N2CCOCC2=O)cc1[N+](=O)[O-] (3D coordinates assigned)
CN(C)CC[NH2+]c1ccc(N2CCOCC2=O)cc1[N+](=O)[O-] (nonaromatic ring conformer: 57.66419526973399 kcal/mol)

>  <smiles>  (31) 
CN(C)CCNc1ccc(N2CCOCC2=O)cc1[N+](=O)[O-]

>  <score_type>  (31) 
oracle

>  <origin>  (31) 
adg

>  <m_score__min__energy>  (31) 
-5.6600000000000001

>  <m_primary>  (31) 
energy

$$$$
31:0
     RDKit          3D

 42 44  0  0  0  0  0  0  0  0999 V2000
   58.0860   31.9380   46.3450 C   0  0  0  0  0  0  0  0  0  0  0  0
   57.8390   31.8400   44.8660 C   0  0  0  0  0  0  0  0  0  0  0  0
   58.3560   32.8180   43.9990 C   0  0  0  0  0  0  0  0  0  0  0  0
   58.1320   32.7300   42.6240 C   0  0  0  0  0  0  0  0  0  0  0  0
   57.3870   31.6720   42.1030 C   0  0  0  0  0  0  0  0  0  0  0  0
   56.8640   30.6960   42.9540 C   0  0  0  0  0  0  0  0  0  0  0  0
   57.0920   30.7670   44.3430 C   0  0  0  0  0  0  0  0  0  0  0  0
   56.6100   29.7860   45.2250 O   0  0  0  0  0  0  0  0  0  0  0  0
   56.5690   28.3900   44.9450 C   0  0  0  0  0  0  0  0  0  0  0  0
   57.7100   27.7080   45.6560 C   0  0  0  0  0  0  0  0  0  0  0  0
   58.9490   28.3680   45.7280 C   0  0  0  0  0  0  0  0  0  0  0  0
   60.0220   27.7970   46.4140 C   0  0  0  0  0  0  0  0  0  0  0  0
   59.8740   26.5590   47.0360 C   0  0  0  0  0  0  0  0  0  0  0  0
   58.6580   25.8770   46.9610 C   0  0  0  0  0  0  0  0  0  0  0  0
   57.5710   26.4250   46.2570 C   0  0  0  0  0  0  0  0  0  0  0  0
   56.3150   25.6430   46.1750 C   0  0  0  0  0  0  0  0  0  0  0  0
   55.2110   26.2410   46.0700 O   0  0  0  0  0  0  0  0  0  0  0  0
   56.3500   24.2160   46.3030 N   0  0  0  0  0  0  0  0  0  0  0  0
   56.7660   23.2770   45.3010 C   0  0  0  0  0  0  0  0  0  0  0  0
   56.2710   23.4120   44.0000 C   0  0  0  0  0  0  0  0  0  0  0  0
   56.6140   22.4800   43.0200 C   0  0  0  0  0  0  0  0  0  0  0  0
   57.4450   21.4110   43.3550 C   0  0  0  0  0  0  0  0  0  0  0  0
   57.9080   21.2790   44.6280 N   0  0  0  0  0  0  0  0  0  0  0  0
   57.5840   22.1740   45.6000 C   0  0  0  0  0  0  0  0  0  0  0  0
   57.1975   31.5855   46.8893 H   0  0  0  0  0  0  0  0  0  0  0  0
   58.9519   31.3153   46.6142 H   0  0  0  0  0  0  0  0  0  0  0  0
   58.2894   32.9850   46.6142 H   0  0  0  0  0  0  0  0  0  0  0  0
   58.9399   33.6567   44.4059 H   0  0  0  0  0  0  0  0  0  0  0  0
   58.5436   33.4960   41.9504 H   0  0  0  0  0  0  0  0  0  0  0  0
   57.2110   31.6063   41.0192 H   0  0  0  0  0  0  0  0  0  0  0  0
   56.2713   29.8679   42.5382 H   0  0  0  0  0  0  0  0  0  0  0  0
   55.6141   27.9722   45.2966 H   0  0  0  0  0  0  0  0  0  0  0  0
   56.6594   28.2278   43.8608 H   0  0  0  0  0  0  0  0  0  0  0  0
   59.0743   29.3450   45.2384 H   0  0  0  0  0  0  0  0  0  0  0  0
   60.9857   28.3250   46.4637 H   0  0  0  0  0  0  0  0  0  0  0  0
   60.7173   26.1178   47.5875 H   0  0  0  0  0  0  0  0  0  0  0  0
   58.5492   24.9015   47.4575 H   0  0  0  0  0  0  0  0  0  0  0  0
   55.6100   24.2546   43.7489 H   0  0  0  0  0  0  0  0  0  0  0  0
   56.2330   22.5872   41.9937 H   0  0  0  0  0  0  0  0  0  0  0  0
   57.7266   20.6734   42.5890 H   0  0  0  0  0  0  0  0  0  0  0  0
   58.5170   20.4630   44.8670 H   0  0  0  0  0  0  0  0  0  0  0  0
   57.9634   22.0339   46.6230 H   0  0  0  0  0  0  0  0  0  0  0  0
  1  2  1  0
  2  3  2  0
  3  4  1  0
  4  5  2  0
  5  6  1  0
  6  7  2  0
  7  8  1  0
  8  9  1  0
  9 10  1  0
 10 11  2  0
 11 12  1  0
 12 13  2  0
 13 14  1  0
 14 15  2  0
 15 16  1  0
 16 17  2  0
 16 18  1  0
 18 19  1  0
 19 20  2  0
 20 21  1  0
 21 22  2  0
 22 23  1  0
 23 24  2  0
  7  2  1  0
 15 10  1  0
 24 19  1  0
  1 25  1  0
  1 26  1  0
  1 27  1  0
  3 28  1  0
  4 29  1  0
  5 30  1  0
  6 31  1  0
  9 32  1  0
  9 33  1  0
 11 34  1  0
 12 35  1  0
 13 36  1  0
 14 37  1  0
 20 38  1  0
 21 39  1  0
 22 40  1  0
 23 41  1  0
 24 42  1  0
M  CHG  2  18  -1  23   1
M  END
>  <UniqueID>  (32) 
31

>  <SMILES>  (32) 
Cc1ccccc1OCc1ccccc1C(=O)[N-]c1ccc[nH+]c1

>  <Energy>  (32) 
49.89746290258183

>  <Genealogy>  (32) 
Cc1ccccc1OCc1ccccc1C(=O)[N-]c1ccc[nH+]c1 (protonated)
Cc1ccccc1OCc1ccccc1C(=O)[N-]c1ccc[nH+]c1 (3D coordinates assigned)
Cc1ccccc1OCc1ccccc1C(=O)[N-]c1ccc[nH+]c1 (optimized conformer: 49.89746290258183 kcal/mol)

>  <smiles>  (32) 
Cc1ccccc1OCc1ccccc1C(=O)Nc1cccnc1

>  <score_type>  (32) 
oracle

>  <origin>  (32) 
adg

>  <m_score__min__energy>  (32) 
-9.3000000000000007

>  <m_primary>  (32) 
energy

$$$$
32:0
     RDKit          3D

 41 41  0  0  0  0  0  0  0  0999 V2000
   57.5701   33.3748   42.6776 H   0  0  0  0  0  0  0  0  0  0  0  0
   57.8580   32.7210   43.5140 C   0  0  0  0  0  0  0  0  0  0  0  0
   57.8030   31.3960   43.3250 C   0  0  0  0  0  0  0  0  0  0  0  0
   58.6851   30.8683   42.9332 H   0  0  0  0  0  0  0  0  0  0  0  0
   56.5580   30.6200   43.6390 C   0  0  0  0  0  0  0  0  0  0  0  0
   56.4436   29.8083   42.9055 H   0  0  0  0  0  0  0  0  0  0  0  0
   55.6952   31.3007   43.5919 H   0  0  0  0  0  0  0  0  0  0  0  0
   56.6300   30.0650   44.9390 O   0  0  0  0  0  0  0  0  0  0  0  0
   57.0720   28.7190   44.9000 C   0  0  0  0  0  0  0  0  0  0  0  0
   56.9979   28.3473   43.8673 H   0  0  0  0  0  0  0  0  0  0  0  0
   56.4368   28.1254   45.5739 H   0  0  0  0  0  0  0  0  0  0  0  0
   58.5350   28.5950   45.3750 C   0  0  0  0  0  0  0  0  0  0  0  0
   59.1925   28.6488   44.4948 H   0  0  0  0  0  0  0  0  0  0  0  0
   58.6231   27.6344   45.9037 H   0  0  0  0  0  0  0  0  0  0  0  0
   58.9410   29.6600   46.3320 N   0  0  0  0  0  0  0  0  0  0  0  0
   58.2480   30.4420   46.2500 H   0  0  0  0  0  0  0  0  0  0  0  0
   60.2680   30.2600   46.0220 C   0  0  0  0  0  0  0  0  0  0  0  0
   60.1705   30.8509   45.0993 H   0  0  0  0  0  0  0  0  0  0  0  0
   60.9743   29.4223   45.9247 H   0  0  0  0  0  0  0  0  0  0  0  0
   60.8270   31.1760   47.1210 C   0  0  0  0  0  0  0  0  0  0  0  0
   60.5739   30.7613   48.1079 H   0  0  0  0  0  0  0  0  0  0  0  0
   61.9204   31.2435   47.0211 H   0  0  0  0  0  0  0  0  0  0  0  0
   60.3870   32.1792   47.0211 H   0  0  0  0  0  0  0  0  0  0  0  0
   58.8980   29.1620   47.7340 C   0  0  0  0  0  0  0  0  0  0  0  0
   59.3550   29.9173   48.3902 H   0  0  0  0  0  0  0  0  0  0  0  0
   57.8435   28.9845   47.9921 H   0  0  0  0  0  0  0  0  0  0  0  0
   59.6490   27.8370   47.9130 C   0  0  0  0  0  0  0  0  0  0  0  0
   59.7689   27.6255   48.9858 H   0  0  0  0  0  0  0  0  0  0  0  0
   59.0770   27.0247   47.4408 H   0  0  0  0  0  0  0  0  0  0  0  0
   60.6398   27.9104   47.4408 H   0  0  0  0  0  0  0  0  0  0  0  0
   58.2840   33.3600   44.7840 C   0  0  0  0  0  0  0  0  0  0  0  0
   59.2550   34.3830   44.8320 C   0  0  0  0  0  0  0  0  0  0  0  0
   59.7214   34.7392   43.9016 H   0  0  0  0  0  0  0  0  0  0  0  0
   59.6270   34.9460   46.0570 C   0  0  0  0  0  0  0  0  0  0  0  0
   60.3806   35.7468   46.0860 H   0  0  0  0  0  0  0  0  0  0  0  0
   59.0450   34.4950   47.2430 C   0  0  0  0  0  0  0  0  0  0  0  0
   59.3354   34.9445   48.2040 H   0  0  0  0  0  0  0  0  0  0  0  0
   58.0940   33.4730   47.2090 C   0  0  0  0  0  0  0  0  0  0  0  0
   57.6401   33.1135   48.1443 H   0  0  0  0  0  0  0  0  0  0  0  0
   57.7180   32.9060   45.9870 C   0  0  0  0  0  0  0  0  0  0  0  0
   56.9725   32.0974   45.9677 H   0  0  0  0  0  0  0  0  0  0  0  0
  1  2  1  0
  2  3  2  0
  3  4  1  0
  3  5  1  0
  5  6  1  0
  5  7  1  0
  5  8  1  0
  8  9  1  0
  9 10  1  0
  9 11  1  0
  9 12  1  0
 12 13  1  0
 12 14  1  0
 12 15  1  0
 15 16  1  0
 15 17  1  0
 17 18  1  0
 17 19  1  0
 17 20  1  0
 20 21  1  0
 20 22  1  0
 20 23  1  0
 15 24  1  0
 24 25  1  0
 24 26  1  0
 24 27  1  0
 27 28  1  0
 27 29  1  0
 27 30  1  0
  2 31  1  0
 31 32  2  0
 32 33  1  0
 32 34  1  0
 34 35  1  0
 34 36  2  0
 36 37  1  0
 36 38  1  0
 38 39  1  0
 38 40  2  0
 40 41  1  0
 40 31  1  0
M  CHG  1  15   1
M  END
>  <UniqueID>  (33) 
32

>  <SMILES>  (33) 
CC[NH+](CC)CCOC/C=C/c1ccccc1

>  <Energy>  (33) 
44.36137230916669

>  <Genealogy>  (33) 
CC[NH+](CC)CCOCC=Cc1ccccc1 (protonated)
CC[NH+](CC)CCOC/C=C/c1ccccc1 (cis-trans isomerization)
CC[NH+](CC)CCOC/C=C/c1ccccc1 (3D coordinates assigned)
CC[NH+](CC)CCOC/C=C/c1ccccc1 (optimized conformer: 44.36137230916669 kcal/mol)

>  <smiles>  (33) 
CCN(CC)CCOCC=Cc1ccccc1

>  <score_type>  (33) 
oracle

>  <origin>  (33) 
adg

>  <m_score__min__energy>  (33) 
-4.21

>  <m_primary>  (33) 
energy

$$$$
33:0
     RDKit          3D

 47 50  0  0  0  0  0  0  0  0999 V2000
   63.0640   33.8450   46.4000 C   0  0  0  0  0  0  0  0  0  0  0  0
   63.2760   33.5650   47.8540 C   0  0  0  0  0  0  0  0  0  0  0  0
   64.3890   33.0040   48.3640 N   0  0  0  0  0  0  0  0  0  0  0  0
   64.2380   32.8770   49.6730 N   0  0  0  0  0  0  0  0  0  0  0  0
   65.2530   32.3230   50.5640 C   0  0  0  0  0  0  0  0  0  0  0  0
   63.0310   33.3710   50.0300 C   0  0  0  0  0  0  0  0  0  0  0  0
   62.4780   33.3680   51.4240 C   0  0  0  0  0  0  0  0  0  0  0  0
   62.3710   33.7880   48.8810 C   0  0  0  0  0  0  0  0  0  0  0  0
   61.0140   34.4250   48.7780 C   0  0  0  0  0  0  0  0  0  0  0  0
   59.9560   33.5530   49.4670 C   0  0  0  0  0  0  0  0  0  0  0  0
   59.9970   32.1190   48.9860 C   0  0  0  0  0  0  0  0  0  0  0  0
   60.4460   31.1530   49.8450 N   0  0  0  0  0  0  0  0  0  0  0  0
   60.4980   29.8670   49.4280 C   0  0  0  0  0  0  0  0  0  0  0  0
   60.9200   28.7600   50.1200 C   0  0  0  0  0  0  0  0  0  0  0  0
   61.5750   28.6620   51.9090 Br  0  0  0  0  0  0  0  0  0  0  0  0
   60.7590   27.7220   49.2080 C   0  0  0  0  0  0  0  0  0  0  0  0
   60.2660   28.2040   48.0400 N   0  0  0  0  0  0  0  0  0  0  0  0
   60.1190   29.5090   48.2020 N   0  0  0  0  0  0  0  0  0  0  0  0
   59.6420   30.3960   47.2990 C   0  0  0  0  0  0  0  0  0  0  0  0
   59.5480   31.7480   47.6800 C   0  0  0  0  0  0  0  0  0  0  0  0
   58.9780   32.7240   46.7230 C   0  0  0  0  0  0  0  0  0  0  0  0
   59.8280   33.5250   45.9430 C   0  0  0  0  0  0  0  0  0  0  0  0
   59.2920   34.4400   45.0310 C   0  0  0  0  0  0  0  0  0  0  0  0
   57.9060   34.5540   44.8860 C   0  0  0  0  0  0  0  0  0  0  0  0
   57.0540   33.7510   45.6500 C   0  0  0  0  0  0  0  0  0  0  0  0
   57.5870   32.8350   46.5620 C   0  0  0  0  0  0  0  0  0  0  0  0
   62.4035   34.7174   46.2871 H   0  0  0  0  0  0  0  0  0  0  0  0
   64.0323   34.0539   45.9218 H   0  0  0  0  0  0  0  0  0  0  0  0
   62.6002   32.9696   45.9218 H   0  0  0  0  0  0  0  0  0  0  0  0
   65.2380   32.7130   47.8290 H   0  0  0  0  0  0  0  0  0  0  0  0
   64.9523   32.4871   51.6093 H   0  0  0  0  0  0  0  0  0  0  0  0
   65.3555   31.2439   50.3770 H   0  0  0  0  0  0  0  0  0  0  0  0
   66.2160   32.8206   50.3770 H   0  0  0  0  0  0  0  0  0  0  0  0
   63.3068   33.3725   52.1472 H   0  0  0  0  0  0  0  0  0  0  0  0
   61.8559   34.2628   51.5736 H   0  0  0  0  0  0  0  0  0  0  0  0
   61.8657   32.4665   51.5736 H   0  0  0  0  0  0  0  0  0  0  0  0
   61.0402   35.4124   49.2621 H   0  0  0  0  0  0  0  0  0  0  0  0
   60.7506   34.5300   47.7152 H   0  0  0  0  0  0  0  0  0  0  0  0
   60.1361   33.5682   50.5520 H   0  0  0  0  0  0  0  0  0  0  0  0
   58.9661   33.9642   49.2202 H   0  0  0  0  0  0  0  0  0  0  0  0
   60.9965   26.6662   49.4050 H   0  0  0  0  0  0  0  0  0  0  0  0
   59.3358   30.0697   46.2941 H   0  0  0  0  0  0  0  0  0  0  0  0
   60.9189   33.4324   46.0497 H   0  0  0  0  0  0  0  0  0  0  0  0
   59.9614   35.0704   44.4273 H   0  0  0  0  0  0  0  0  0  0  0  0
   57.4857   35.2760   44.1704 H   0  0  0  0  0  0  0  0  0  0  0  0
   55.9638   33.8399   45.5336 H   0  0  0  0  0  0  0  0  0  0  0  0
   56.9143   32.1987   47.1558 H   0  0  0  0  0  0  0  0  0  0  0  0
  1  2  1  0
  2  3  2  0
  3  4  1  0
  4  5  1  0
  4  6  1  0
  6  7  1  0
  6  8  2  0
  8  9  1  0
  9 10  1  0
 10 11  1  0
 11 12  2  0
 12 13  1  0
 13 14  2  0
 14 15  1  0
 14 16  1  0
 16 17  2  0
 17 18  1  0
 18 19  1  0
 19 20  2  0
 20 21  1  0
 21 22  2  0
 22 23  1  0
 23 24  2  0
 24 25  1  0
 25 26  2  0
  8  2  1  0
 20 11  1  0
 26 21  1  0
 18 13  1  0
  1 27  1  0
  1 28  1  0
  1 29  1  0
  3 30  1  0
  5 31  1  0
  5 32  1  0
  5 33  1  0
  7 34  1  0
  7 35  1  0
  7 36  1  0
  9 37  1  0
  9 38  1  0
 10 39  1  0
 10 40  1  0
 16 41  1  0
 19 42  1  0
 22 43  1  0
 23 44  1  0
 24 45  1  0
 25 46  1  0
 26 47  1  0
M  CHG  1   3   1
M  END
>  <UniqueID>  (34) 
33

>  <SMILES>  (34) 
Cc1[nH+]n(C)c(C)c1CCc1nc2c(Br)cnn2cc1-c1ccccc1

>  <Energy>  (34) 
120.87965028658257

>  <Genealogy>  (34) 
Cc1[nH+]n(C)c(C)c1CCc1nc2c(Br)cnn2cc1-c1ccccc1 (protonated)
Cc1[nH+]n(C)c(C)c1CCc1nc2c(Br)cnn2cc1-c1ccccc1 (3D coordinates assigned)
Cc1[nH+]n(C)c(C)c1CCc1nc2c(Br)cnn2cc1-c1ccccc1 (optimized conformer: 120.87965028658257 kcal/mol)

>  <smiles>  (34) 
Cc1nn(C)c(C)c1CCc1nc2c(Br)cnn2cc1-c1ccccc1

>  <score_type>  (34) 
oracle

>  <origin>  (34) 
adg

>  <m_score__min__energy>  (34) 
-7.0099999999999998

>  <m_primary>  (34) 
energy

$$$$
34:0
     RDKit          3D

 36 38  0  0  0  0  0  0  0  0999 V2000
   54.4450   29.3520   43.7050 O   0  0  0  0  0  0  0  0  0  0  0  0
   55.5670   29.3970   44.2740 C   0  0  0  0  0  0  0  0  0  0  0  0
   55.8890   28.3890   45.2440 N   0  0  0  0  0  0  0  0  0  0  0  0
   57.2310   27.8830   45.5350 C   0  0  1  0  0  0  0  0  0  0  0  0
   58.1180   27.9020   44.2770 C   0  0  0  0  0  0  0  0  0  0  0  0
   59.5780   27.8140   44.7180 C   0  0  0  0  0  0  0  0  0  0  0  0
   59.6330   28.5950   46.3020 S   0  0  0  0  0  0  0  0  0  0  0  0
   60.2900   27.7160   47.3280 O   0  0  0  0  0  0  0  0  0  0  0  0
   60.3090   29.9360   46.2350 O   0  0  0  0  0  0  0  0  0  0  0  0
   57.8980   28.7570   46.5980 C   0  0  0  0  0  0  0  0  0  0  0  0
   56.4850   30.4990   43.9460 C   0  0  0  0  0  0  0  0  0  0  0  0
   56.7180   30.8810   42.6190 C   0  0  0  0  0  0  0  0  0  0  0  0
   57.5790   31.9460   42.3550 C   0  0  0  0  0  0  0  0  0  0  0  0
   58.1910   32.6260   43.4080 C   0  0  0  0  0  0  0  0  0  0  0  0
   57.9300   32.2330   44.7320 C   0  0  0  0  0  0  0  0  0  0  0  0
   58.5410   32.9350   45.8890 C   0  0  0  0  0  0  0  0  0  0  0  0
   58.3660   34.3200   46.0430 C   0  0  0  0  0  0  0  0  0  0  0  0
   58.9260   34.9550   47.1050 N   0  0  0  0  0  0  0  0  0  0  0  0
   59.6490   34.2760   48.0300 C   0  0  0  0  0  0  0  0  0  0  0  0
   60.1580   34.8880   49.0060 O   0  0  0  0  0  0  0  0  0  0  0  0
   59.8190   32.8980   47.8930 C   0  0  0  0  0  0  0  0  0  0  0  0
   59.2620   32.2560   46.8320 N   0  0  0  0  0  0  0  0  0  0  0  0
   57.0770   31.1940   44.9570 N   0  0  0  0  0  0  0  0  0  0  0  0
   57.1249   26.8481   45.8923 H   0  0  0  0  0  0  0  0  0  0  0  0
   57.8711   27.0437   43.6348 H   0  0  0  0  0  0  0  0  0  0  0  0
   57.9491   28.8283   43.7082 H   0  0  0  0  0  0  0  0  0  0  0  0
   59.8948   26.7634   44.7950 H   0  0  0  0  0  0  0  0  0  0  0  0
   60.2543   28.2979   43.9979 H   0  0  0  0  0  0  0  0  0  0  0  0
   57.6431   28.4006   47.6070 H   0  0  0  0  0  0  0  0  0  0  0  0
   57.5653   29.8039   46.5400 H   0  0  0  0  0  0  0  0  0  0  0  0
   56.2267   30.3462   41.7928 H   0  0  0  0  0  0  0  0  0  0  0  0
   57.7755   32.2498   41.3162 H   0  0  0  0  0  0  0  0  0  0  0  0
   58.8733   33.4642   43.2036 H   0  0  0  0  0  0  0  0  0  0  0  0
   57.7781   34.8879   45.3069 H   0  0  0  0  0  0  0  0  0  0  0  0
   60.3998   32.3349   48.6384 H   0  0  0  0  0  0  0  0  0  0  0  0
   59.3780   31.2200   46.7740 H   0  0  0  0  0  0  0  0  0  0  0  0
  1  2  2  0
  2  3  1  0
  3  4  1  0
  4  5  1  0
  5  6  1  0
  6  7  1  0
  7  8  2  0
  7  9  2  0
  7 10  1  0
  2 11  1  0
 11 12  2  0
 12 13  1  0
 13 14  2  0
 14 15  1  0
 15 16  1  0
 16 17  2  0
 17 18  1  0
 18 19  1  0
 19 20  2  0
 19 21  1  0
 21 22  2  0
 15 23  2  0
 10  4  1  0
 23 11  1  0
 22 16  1  0
  4 24  1  1
  5 25  1  0
  5 26  1  0
  6 27  1  0
  6 28  1  0
 10 29  1  0
 10 30  1  0
 12 31  1  0
 13 32  1  0
 14 33  1  0
 17 34  1  0
 21 35  1  0
 22 36  1  0
M  CHG  3   3  -1  18  -1  22   1
M  END
>  <UniqueID>  (35) 
34

>  <SMILES>  (35) 
O=C([N-][C@H]1CCS(=O)(=O)C1)c1cccc(-c2c[n-]c(=O)c[nH+]2)n1

>  <Energy>  (35) 
43.93312755000171

>  <Genealogy>  (35) 
O=C([N-]C1CCS(=O)(=O)C1)c1cccc(-c2c[n-]c(=O)c[nH+]2)n1 (protonated)
O=C([N-][C@H]1CCS(=O)(=O)C1)c1cccc(-c2c[n-]c(=O)c[nH+]2)n1 (chirality)
O=C([N-][C@H]1CCS(=O)(=O)C1)c1cccc(-c2c[n-]c(=O)c[nH+]2)n1 (3D coordinates assigned)
O=C([N-][C@H]1CCS(=O)(=O)C1)c1cccc(-c2c[n-]c(=O)c[nH+]2)n1 (nonaromatic ring conformer: 43.93312755000171 kcal/mol)

>  <smiles>  (35) 
O=C(NC1CCS(=O)(=O)C1)c1cccc(-c2c[nH]c(=O)cn2)n1

>  <score_type>  (35) 
oracle

>  <origin>  (35) 
adg

>  <m_score__min__energy>  (35) 
-9.4600000000000009

>  <m_primary>  (35) 
energy

$$$$
35:0
     RDKit          3D

 40 41  0  0  0  0  0  0  0  0999 V2000
   55.0000   24.4610   45.6800 C   0  0  0  0  0  0  0  0  0  0  0  0
   55.6640   25.2450   46.6660 O   0  0  0  0  0  0  0  0  0  0  0  0
   56.8620   25.9410   46.4490 C   0  0  0  0  0  0  0  0  0  0  0  0
   57.7930   26.0010   47.4930 C   0  0  0  0  0  0  0  0  0  0  0  0
   58.9920   26.7000   47.3340 C   0  0  0  0  0  0  0  0  0  0  0  0
   59.2710   27.3460   46.1290 C   0  0  0  0  0  0  0  0  0  0  0  0
   58.3550   27.2910   45.0680 C   0  0  0  0  0  0  0  0  0  0  0  0
   58.6420   28.0320   43.7880 C   0  0  0  0  0  0  0  0  0  0  0  0
   57.4020   28.2550   43.0270 N   0  0  0  0  0  0  0  0  0  0  0  0
   56.9800   29.6650   43.0340 C   0  0  0  0  0  0  0  0  0  0  0  0
   56.3830   30.0410   44.3540 C   0  0  0  0  0  0  0  0  0  0  0  0
   55.5220   29.2890   44.8870 O   0  0  0  0  0  0  0  0  0  0  0  0
   56.7820   31.2290   44.9790 O   0  0  0  0  0  0  0  0  0  0  0  0
   57.8210   31.2890   45.9540 C   0  0  0  0  0  0  0  0  0  0  0  0
   58.4230   32.6660   45.9980 C   0  0  0  0  0  0  0  0  0  0  0  0
   58.9150   33.1770   47.2090 C   0  0  0  0  0  0  0  0  0  0  0  0
   59.4900   34.4510   47.2540 C   0  0  0  0  0  0  0  0  0  0  0  0
   59.5790   35.2210   46.0910 C   0  0  0  0  0  0  0  0  0  0  0  0
   59.0940   34.7170   44.8800 C   0  0  0  0  0  0  0  0  0  0  0  0
   58.5180   33.4430   44.8320 C   0  0  0  0  0  0  0  0  0  0  0  0
   57.1520   26.5840   45.2300 C   0  0  0  0  0  0  0  0  0  0  0  0
   54.3649   23.7112   46.1744 H   0  0  0  0  0  0  0  0  0  0  0  0
   54.3757   25.1136   45.0520 H   0  0  0  0  0  0  0  0  0  0  0  0
   55.7464   23.9527   45.0520 H   0  0  0  0  0  0  0  0  0  0  0  0
   57.5788   25.4940   48.4454 H   0  0  0  0  0  0  0  0  0  0  0  0
   59.7173   26.7412   48.1600 H   0  0  0  0  0  0  0  0  0  0  0  0
   60.2134   27.9008   46.0106 H   0  0  0  0  0  0  0  0  0  0  0  0
   59.0983   29.0038   44.0278 H   0  0  0  0  0  0  0  0  0  0  0  0
   59.3288   27.4286   43.1763 H   0  0  0  0  0  0  0  0  0  0  0  0
   56.6450   27.7070   43.4990 H   0  0  0  0  0  0  0  0  0  0  0  0
   57.8549   30.3030   42.8403 H   0  0  0  0  0  0  0  0  0  0  0  0
   56.2187   29.8063   42.2527 H   0  0  0  0  0  0  0  0  0  0  0  0
   57.4046   31.0442   46.9423 H   0  0  0  0  0  0  0  0  0  0  0  0
   58.6050   30.5665   45.6833 H   0  0  0  0  0  0  0  0  0  0  0  0
   58.8481   32.5732   48.1261 H   0  0  0  0  0  0  0  0  0  0  0  0
   59.8727   34.8476   48.2060 H   0  0  0  0  0  0  0  0  0  0  0  0
   60.0305   36.2234   46.1282 H   0  0  0  0  0  0  0  0  0  0  0  0
   59.1655   35.3227   43.9646 H   0  0  0  0  0  0  0  0  0  0  0  0
   58.1383   33.0486   43.8779 H   0  0  0  0  0  0  0  0  0  0  0  0
   56.4322   26.5323   44.3998 H   0  0  0  0  0  0  0  0  0  0  0  0
  1  2  1  0
  2  3  1  0
  3  4  2  0
  4  5  1  0
  5  6  2  0
  6  7  1  0
  7  8  1  0
  8  9  1  0
  9 10  1  0
 10 11  1  0
 11 12  2  0
 11 13  1  0
 13 14  1  0
 14 15  1  0
 15 16  2  0
 16 17  1  0
 17 18  2  0
 18 19  1  0
 19 20  2  0
  7 21  2  0
 21  3  1  0
 20 15  1  0
  1 22  1  0
  1 23  1  0
  1 24  1  0
  4 25  1  0
  5 26  1  0
  6 27  1  0
  8 28  1  0
  8 29  1  0
  9 30  1  0
 10 31  1  0
 10 32  1  0
 14 33  1  0
 14 34  1  0
 16 35  1  0
 17 36  1  0
 18 37  1  0
 19 38  1  0
 20 39  1  0
 21 40  1  0
M  END
>  <UniqueID>  (36) 
35

>  <SMILES>  (36) 
COc1cccc(CNCC(=O)OCc2ccccc2)c1

>  <Energy>  (36) 
34.13275391845158

>  <Genealogy>  (36) 
COc1cccc(CNCC(=O)OCc2ccccc2)c1 (3D coordinates assigned)
COc1cccc(CNCC(=O)OCc2ccccc2)c1 (optimized conformer: 34.13275391845158 kcal/mol)

>  <smiles>  (36) 
COc1cccc(CNCC(=O)OCc2ccccc2)c1

>  <score_type>  (36) 
oracle

>  <origin>  (36) 
adg

>  <m_score__min__energy>  (36) 
-8.0500000000000007

>  <m_primary>  (36) 
energy

$$$$
36:0
     RDKit          3D

 52 55  0  0  0  0  0  0  0  0999 V2000
   64.8860   33.0800   49.3570 C   0  0  0  0  0  0  0  0  0  0  0  0
   64.1450   32.6880   48.1550 N   0  0  0  0  0  0  0  0  0  0  0  0
   63.3900   33.8180   47.5960 C   0  0  0  0  0  0  0  0  0  0  0  0
   61.9190   33.4730   47.4490 C   0  0  0  0  0  0  0  0  0  0  0  0
   61.2500   34.0540   46.4360 C   0  0  0  0  0  0  0  0  0  0  0  0
   59.8020   33.8850   46.2690 C   0  0  0  0  0  0  0  0  0  0  0  0
   59.0980   34.5630   45.2630 C   0  0  0  0  0  0  0  0  0  0  0  0
   57.7220   34.3530   45.1130 C   0  0  0  0  0  0  0  0  0  0  0  0
   57.0520   33.4650   45.9620 C   0  0  0  0  0  0  0  0  0  0  0  0
   57.7560   32.7870   46.9620 C   0  0  0  0  0  0  0  0  0  0  0  0
   59.1290   33.0040   47.1170 C   0  0  0  0  0  0  0  0  0  0  0  0
   59.8410   32.3240   48.1030 O   0  0  0  0  0  0  0  0  0  0  0  0
   61.1600   32.6930   48.5440 C   0  0  2  0  0  0  0  0  0  0  0  0
   60.9920   33.5880   49.8100 C   0  0  0  0  0  0  0  0  0  0  0  0
   61.9110   33.1760   50.9750 C   0  0  0  0  0  0  0  0  0  0  0  0
   61.7700   31.7410   51.3590 N   0  0  1  0  0  0  0  0  0  0  0  0
   60.9470   31.5310   52.5800 C   0  0  0  0  0  0  0  0  0  0  0  0
   59.4520   31.6870   52.3720 C   0  0  0  0  0  0  0  0  0  0  0  0
   58.6540   30.5700   52.0620 C   0  0  0  0  0  0  0  0  0  0  0  0
   57.2770   30.7150   51.8650 C   0  0  0  0  0  0  0  0  0  0  0  0
   56.6790   31.9700   52.0000 C   0  0  0  0  0  0  0  0  0  0  0  0
   57.4560   33.0790   52.3460 C   0  0  0  0  0  0  0  0  0  0  0  0
   58.8320   32.9380   52.5430 C   0  0  0  0  0  0  0  0  0  0  0  0
   61.3740   30.8420   50.2430 C   0  0  0  0  0  0  0  0  0  0  0  0
   61.8750   31.3620   48.8920 C   0  0  0  0  0  0  0  0  0  0  0  0
   64.3195   32.7803   50.2510 H   0  0  0  0  0  0  0  0  0  0  0  0
   65.8673   32.5831   49.3611 H   0  0  0  0  0  0  0  0  0  0  0  0
   65.0274   34.1709   49.3611 H   0  0  0  0  0  0  0  0  0  0  0  0
   64.8510   32.3930   47.4390 H   0  0  0  0  0  0  0  0  0  0  0  0
   63.4906   34.6842   48.2666 H   0  0  0  0  0  0  0  0  0  0  0  0
   63.7955   34.0508   46.6003 H   0  0  0  0  0  0  0  0  0  0  0  0
   61.8035   34.6721   45.7139 H   0  0  0  0  0  0  0  0  0  0  0  0
   59.6258   35.2581   44.5935 H   0  0  0  0  0  0  0  0  0  0  0  0
   57.1671   34.8864   44.3272 H   0  0  0  0  0  0  0  0  0  0  0  0
   55.9710   33.3002   45.8427 H   0  0  0  0  0  0  0  0  0  0  0  0
   57.2309   32.0842   47.6256 H   0  0  0  0  0  0  0  0  0  0  0  0
   61.2220   34.6280   49.5351 H   0  0  0  0  0  0  0  0  0  0  0  0
   59.9547   33.4699   50.1565 H   0  0  0  0  0  0  0  0  0  0  0  0
   62.9544   33.3569   50.6774 H   0  0  0  0  0  0  0  0  0  0  0  0
   61.6190   33.7772   51.8486 H   0  0  0  0  0  0  0  0  0  0  0  0
   62.7350   31.4340   51.6340 H   0  0  0  0  0  0  0  0  0  0  0  0
   61.1369   30.5127   52.9502 H   0  0  0  0  0  0  0  0  0  0  0  0
   61.2446   32.3136   53.2934 H   0  0  0  0  0  0  0  0  0  0  0  0
   59.1166   29.5759   51.9740 H   0  0  0  0  0  0  0  0  0  0  0  0
   56.6642   29.8397   51.6035 H   0  0  0  0  0  0  0  0  0  0  0  0
   55.5977   32.0854   51.8342 H   0  0  0  0  0  0  0  0  0  0  0  0
   56.9831   34.0652   52.4635 H   0  0  0  0  0  0  0  0  0  0  0  0
   59.4345   33.8111   52.8338 H   0  0  0  0  0  0  0  0  0  0  0  0
   61.8001   29.8436   50.4210 H   0  0  0  0  0  0  0  0  0  0  0  0
   60.2753   30.8011   50.2088 H   0  0  0  0  0  0  0  0  0  0  0  0
   62.9602   31.5337   48.9464 H   0  0  0  0  0  0  0  0  0  0  0  0
   61.6563   30.6175   48.1124 H   0  0  0  0  0  0  0  0  0  0  0  0
  1  2  1  0
  2  3  1  0
  3  4  1  0
  4  5  2  0
  5  6  1  0
  6  7  2  0
  7  8  1  0
  8  9  2  0
  9 10  1  0
 10 11  2  0
 11 12  1  0
 13 12  1  6
 13 14  1  0
 14 15  1  0
 15 16  1  0
 16 17  1  0
 17 18  1  0
 18 19  2  0
 19 20  1  0
 20 21  2  0
 21 22  1  0
 22 23  2  0
 16 24  1  0
 24 25  1  0
 13  4  1  0
 23 18  1  0
 11  6  1  0
 25 13  1  0
  1 26  1  0
  1 27  1  0
  1 28  1  0
  2 29  1  0
  3 30  1  0
  3 31  1  0
  5 32  1  0
  7 33  1  0
  8 34  1  0
  9 35  1  0
 10 36  1  0
 14 37  1  0
 14 38  1  0
 15 39  1  0
 15 40  1  0
 16 41  1  1
 17 42  1  0
 17 43  1  0
 19 44  1  0
 20 45  1  0
 21 46  1  0
 22 47  1  0
 23 48  1  0
 24 49  1  0
 24 50  1  0
 25 51  1  0
 25 52  1  0
M  CHG  1  16   1
M  END
>  <UniqueID>  (37) 
36

>  <SMILES>  (37) 
CNCC1=Cc2ccccc2OC12CC[NH+](Cc1ccccc1)CC2

>  <Energy>  (37) 
70.59971116504653

>  <Genealogy>  (37) 
CNCC1=Cc2ccccc2OC12CC[NH+](Cc1ccccc1)CC2 (protonated)
CNCC1=Cc2ccccc2OC12CC[NH+](Cc1ccccc1)CC2 (3D coordinates assigned)
CNCC1=Cc2ccccc2OC12CC[NH+](Cc1ccccc1)CC2 (nonaromatic ring conformer: 70.59971116504653 kcal/mol)

>  <smiles>  (37) 
CNCC1=Cc2ccccc2OC12CCN(Cc1ccccc1)CC2

>  <score_type>  (37) 
oracle

>  <origin>  (37) 
adg

>  <m_score__min__energy>  (37) 
-7.3499999999999996

>  <m_primary>  (37) 
energy

$$$$
37:0
     RDKit          3D

 31 32  0  0  0  0  0  0  0  0999 V2000
   58.0580   26.7150   42.9100 C   0  0  0  0  0  0  0  0  0  0  0  0
   58.1730   28.0820   43.2900 O   0  0  0  0  0  0  0  0  0  0  0  0
   58.7460   28.5290   44.4920 C   0  0  0  0  0  0  0  0  0  0  0  0
   60.0740   29.0000   44.5540 C   0  0  0  0  0  0  0  0  0  0  0  0
   60.6010   29.4660   45.7630 C   0  0  0  0  0  0  0  0  0  0  0  0
   59.8150   29.4670   46.9160 C   0  0  0  0  0  0  0  0  0  0  0  0
   58.5010   29.0000   46.8680 C   0  0  0  0  0  0  0  0  0  0  0  0
   57.9620   28.5290   45.6620 C   0  0  0  0  0  0  0  0  0  0  0  0
   56.5630   28.0710   45.6190 C   0  0  0  0  0  0  0  0  0  0  0  0
   56.2820   26.9080   46.0080 O   0  0  0  0  0  0  0  0  0  0  0  0
   55.5160   28.9080   45.1100 N   0  0  0  0  0  0  0  0  0  0  0  0
   55.5860   29.6610   43.8600 C   0  0  0  0  0  0  0  0  0  0  0  0
   56.5450   30.8090   43.9920 C   0  0  0  0  0  0  0  0  0  0  0  0
   56.2830   31.8030   44.8840 N   0  0  0  0  0  0  0  0  0  0  0  0
   57.1020   32.8810   44.9940 C   0  0  0  0  0  0  0  0  0  0  0  0
   58.2260   32.9840   44.1800 C   0  0  0  0  0  0  0  0  0  0  0  0
   58.4850   31.9600   43.2700 C   0  0  0  0  0  0  0  0  0  0  0  0
   57.6480   30.8920   43.1920 N   0  0  0  0  0  0  0  0  0  0  0  0
   58.0052   26.0870   43.8116 H   0  0  0  0  0  0  0  0  0  0  0  0
   57.1450   26.5761   42.3124 H   0  0  0  0  0  0  0  0  0  0  0  0
   58.9350   26.4255   42.3124 H   0  0  0  0  0  0  0  0  0  0  0  0
   60.6978   29.0009   43.6480 H   0  0  0  0  0  0  0  0  0  0  0  0
   61.6373   29.8325   45.8050 H   0  0  0  0  0  0  0  0  0  0  0  0
   60.2320   29.8366   47.8644 H   0  0  0  0  0  0  0  0  0  0  0  0
   57.8855   29.0013   47.7797 H   0  0  0  0  0  0  0  0  0  0  0  0
   55.9275   28.9945   43.0543 H   0  0  0  0  0  0  0  0  0  0  0  0
   54.5867   30.0567   43.6260 H   0  0  0  0  0  0  0  0  0  0  0  0
   56.8772   33.6713   45.7253 H   0  0  0  0  0  0  0  0  0  0  0  0
   58.8952   33.8540   44.2529 H   0  0  0  0  0  0  0  0  0  0  0  0
   59.3669   32.0164   42.6150 H   0  0  0  0  0  0  0  0  0  0  0  0
   57.8560   30.1390   42.4970 H   0  0  0  0  0  0  0  0  0  0  0  0
  1  2  1  0
  2  3  1  0
  3  4  2  0
  4  5  1  0
  5  6  2  0
  6  7  1  0
  7  8  2  0
  8  9  1  0
  9 10  2  0
  9 11  1  0
 11 12  1  0
 12 13  1  0
 13 14  2  0
 14 15  1  0
 15 16  2  0
 16 17  1  0
 17 18  2  0
  8  3  1  0
 18 13  1  0
  1 19  1  0
  1 20  1  0
  1 21  1  0
  4 22  1  0
  5 23  1  0
  6 24  1  0
  7 25  1  0
 12 26  1  0
 12 27  1  0
 15 28  1  0
 16 29  1  0
 17 30  1  0
 18 31  1  0
M  CHG  2  11  -1  18   1
M  END
>  <UniqueID>  (38) 
37

>  <SMILES>  (38) 
COc1ccccc1C(=O)[N-]Cc1nccc[nH+]1

>  <Energy>  (38) 
33.00164976679896

>  <Genealogy>  (38) 
COc1ccccc1C(=O)[N-]Cc1nccc[nH+]1 (protonated)
COc1ccccc1C(=O)[N-]Cc1nccc[nH+]1 (3D coordinates assigned)
COc1ccccc1C(=O)[N-]Cc1nccc[nH+]1 (optimized conformer: 33.00164976679896 kcal/mol)

>  <smiles>  (38) 
COc1ccccc1C(=O)NCc1ncccn1

>  <score_type>  (38) 
oracle

>  <origin>  (38) 
adg

>  <m_score__min__energy>  (38) 
-6.6100000000000003

>  <m_primary>  (38) 
energy

$$$$
38:0
     RDKit          3D

 48 51  0  0  0  0  0  0  0  0999 V2000
   57.4570   28.7460   45.7210 C   0  0  0  0  0  0  0  0  0  0  0  0
   56.7440   29.9260   45.3560 O   0  0  0  0  0  0  0  0  0  0  0  0
   57.0650   30.7400   44.2560 C   0  0  0  0  0  0  0  0  0  0  0  0
   56.6250   30.4390   42.9480 C   0  0  0  0  0  0  0  0  0  0  0  0
   56.9870   31.2590   41.8720 C   0  0  0  0  0  0  0  0  0  0  0  0
   57.7910   32.3810   42.0860 C   0  0  0  0  0  0  0  0  0  0  0  0
   58.2300   32.6930   43.3750 C   0  0  0  0  0  0  0  0  0  0  0  0
   57.8650   31.8840   44.4670 C   0  0  0  0  0  0  0  0  0  0  0  0
   58.2930   32.2390   45.7930 N   0  0  0  0  0  0  0  0  0  0  0  0
   57.7750   33.4740   46.3990 C   0  0  0  0  0  0  0  0  0  0  0  0
   58.5790   33.8420   47.6480 C   0  0  0  0  0  0  0  0  0  0  0  0
   58.6710   32.6630   48.5350 N   0  0  0  0  0  0  0  0  0  0  0  0
   59.2910   33.0360   49.8270 C   0  0  0  0  0  0  0  0  0  0  0  0
   58.5820   32.3680   50.9650 C   0  0  0  0  0  0  0  0  0  0  0  0
   57.3130   31.9190   50.9190 N   0  0  0  0  0  0  0  0  0  0  0  0
   57.1290   31.4250   52.1600 C   0  0  0  0  0  0  0  0  0  0  0  0
   55.8660   30.8380   52.6650 C   0  0  0  0  0  0  0  0  0  0  0  0
   54.6820   30.8550   51.8960 C   0  0  0  0  0  0  0  0  0  0  0  0
   53.5050   30.3080   52.4100 C   0  0  0  0  0  0  0  0  0  0  0  0
   53.5140   29.7430   53.6860 C   0  0  0  0  0  0  0  0  0  0  0  0
   54.6610   29.7250   54.4190 N   0  0  0  0  0  0  0  0  0  0  0  0
   55.8240   30.2510   53.9430 C   0  0  0  0  0  0  0  0  0  0  0  0
   58.2450   31.5650   52.9130 N   0  0  0  0  0  0  0  0  0  0  0  0
   59.1160   32.1450   52.1420 O   0  0  0  0  0  0  0  0  0  0  0  0
   59.3710   31.5090   47.9040 C   0  0  0  0  0  0  0  0  0  0  0  0
   59.4740   31.5860   46.3650 C   0  0  0  0  0  0  0  0  0  0  0  0
   57.5030   28.6698   46.8174 H   0  0  0  0  0  0  0  0  0  0  0  0
   56.9402   27.8646   45.3136 H   0  0  0  0  0  0  0  0  0  0  0  0
   58.4777   28.7935   45.3136 H   0  0  0  0  0  0  0  0  0  0  0  0
   55.9941   29.5550   42.7734 H   0  0  0  0  0  0  0  0  0  0  0  0
   56.6377   31.0192   40.8569 H   0  0  0  0  0  0  0  0  0  0  0  0
   58.0790   33.0200   41.2382 H   0  0  0  0  0  0  0  0  0  0  0  0
   58.8649   33.5765   43.5373 H   0  0  0  0  0  0  0  0  0  0  0  0
   57.8480   34.2930   45.6683 H   0  0  0  0  0  0  0  0  0  0  0  0
   56.7260   33.3131   46.6883 H   0  0  0  0  0  0  0  0  0  0  0  0
   59.5900   34.1601   47.3536 H   0  0  0  0  0  0  0  0  0  0  0  0
   58.0781   34.6646   48.1794 H   0  0  0  0  0  0  0  0  0  0  0  0
   60.3458   32.7238   49.8252 H   0  0  0  0  0  0  0  0  0  0  0  0
   59.2167   34.1261   49.9541 H   0  0  0  0  0  0  0  0  0  0  0  0
   56.6470   31.9760   50.1180 H   0  0  0  0  0  0  0  0  0  0  0  0
   54.6870   31.3001   50.8901 H   0  0  0  0  0  0  0  0  0  0  0  0
   52.5798   30.3222   51.8152 H   0  0  0  0  0  0  0  0  0  0  0  0
   52.5914   29.3108   54.1008 H   0  0  0  0  0  0  0  0  0  0  0  0
   56.7339   30.2167   54.5602 H   0  0  0  0  0  0  0  0  0  0  0  0
   60.3903   31.4593   48.3145 H   0  0  0  0  0  0  0  0  0  0  0  0
   58.7710   30.6160   48.1330 H   0  0  0  0  0  0  0  0  0  0  0  0
   60.3710   32.1615   46.0926 H   0  0  0  0  0  0  0  0  0  0  0  0
   59.5375   30.5630   45.9657 H   0  0  0  0  0  0  0  0  0  0  0  0
  1  2  1  0
  2  3  1  0
  3  4  2  0
  4  5  1  0
  5  6  2  0
  6  7  1  0
  7  8  2  0
  8  9  1  0
  9 10  1  0
 10 11  1  0
 11 12  1  0
 12 13  1  0
 13 14  1  0
 14 15  2  0
 15 16  1  0
 16 17  1  0
 17 18  2  0
 18 19  1  0
 19 20  2  0
 20 21  1  0
 21 22  2  0
 16 23  2  0
 23 24  1  0
 12 25  1  0
 25 26  1  0
  8  3  1  0
 26  9  1  0
 24 14  1  0
 22 17  1  0
  1 27  1  0
  1 28  1  0
  1 29  1  0
  4 30  1  0
  5 31  1  0
  6 32  1  0
  7 33  1  0
 10 34  1  0
 10 35  1  0
 11 36  1  0
 11 37  1  0
 13 38  1  0
 13 39  1  0
 15 40  1  0
 18 41  1  0
 19 42  1  0
 20 43  1  0
 22 44  1  0
 25 45  1  0
 25 46  1  0
 26 47  1  0
 26 48  1  0
M  CHG  1  15   1
M  END
>  <UniqueID>  (39) 
38

>  <SMILES>  (39) 
COc1ccccc1N1CCN(Cc2[nH+]c(-c3cccnc3)no2)CC1

>  <Energy>  (39) 
98.34940403124399

>  <Genealogy>  (39) 
COc1ccccc1N1CCN(Cc2[nH+]c(-c3cccnc3)no2)CC1 (protonated)
COc1ccccc1N1CCN(Cc2[nH+]c(-c3cccnc3)no2)CC1 (3D coordinates assigned)
COc1ccccc1N1CCN(Cc2[nH+]c(-c3cccnc3)no2)CC1 (nonaromatic ring conformer: 98.34940403124399 kcal/mol)

>  <smiles>  (39) 
COc1ccccc1N1CCN(Cc2nc(-c3cccnc3)no2)CC1

>  <score_type>  (39) 
oracle

>  <origin>  (39) 
adg

>  <m_score__min__energy>  (39) 
-6.4800000000000004

>  <m_primary>  (39) 
energy

$$$$
39:0
     RDKit          3D

 51 53  0  0  0  0  0  0  0  0999 V2000
   57.6550   27.2210   45.5470 C   0  0  0  0  0  0  0  0  0  0  0  0
   57.4580   28.3000   46.4550 O   0  0  0  0  0  0  0  0  0  0  0  0
   58.4690   29.1670   46.9030 C   0  0  0  0  0  0  0  0  0  0  0  0
   58.3460   30.5610   46.8220 C   0  0  0  0  0  0  0  0  0  0  0  0
   59.3690   31.4180   47.2780 C   0  0  0  0  0  0  0  0  0  0  0  0
   59.2270   32.8260   47.1900 C   0  0  0  0  0  0  0  0  0  0  0  0
   58.0710   33.4270   46.5660 N   0  0  0  0  0  0  0  0  0  0  0  0
   58.1450   34.1400   45.2890 C   0  0  0  0  0  0  0  0  0  0  0  0
   57.6580   33.2700   44.1160 C   0  0  0  0  0  0  0  0  0  0  0  0
   57.0390   31.9270   44.5530 C   0  0  0  0  0  0  0  0  0  0  0  0
   56.7460   30.9410   43.4060 C   0  0  0  0  0  0  0  0  0  0  0  0
   56.3490   29.5360   43.8860 C   0  0  0  0  0  0  0  0  0  0  0  0
   55.3540   29.5960   44.9520 N   0  0  0  0  0  0  0  0  0  0  0  0
   60.2440   33.6510   47.6830 C   0  0  0  0  0  0  0  0  0  0  0  0
   61.3990   33.1210   48.2580 C   0  0  0  0  0  0  0  0  0  0  0  0
   62.3630   33.9700   48.7230 N   0  0  0  0  0  0  0  0  0  0  0  0
   63.5080   33.5110   49.2920 C   0  0  0  0  0  0  0  0  0  0  0  0
   63.7270   32.1450   49.4130 C   0  0  0  0  0  0  0  0  0  0  0  0
   62.7660   31.2490   48.9490 C   0  0  0  0  0  0  0  0  0  0  0  0
   61.5700   31.7150   48.3530 C   0  0  0  0  0  0  0  0  0  0  0  0
   60.5450   30.8520   47.8550 C   0  0  0  0  0  0  0  0  0  0  0  0
   60.6510   29.4410   47.9160 C   0  0  0  0  0  0  0  0  0  0  0  0
   59.6240   28.6050   47.4440 C   0  0  0  0  0  0  0  0  0  0  0  0
   59.7140   27.2050   47.5000 O   0  0  0  0  0  0  0  0  0  0  0  0
   60.6350   26.4160   46.7520 C   0  0  0  0  0  0  0  0  0  0  0  0
   57.8245   26.2926   46.1121 H   0  0  0  0  0  0  0  0  0  0  0  0
   56.7628   27.1071   44.9137 H   0  0  0  0  0  0  0  0  0  0  0  0
   58.5299   27.4298   44.9137 H   0  0  0  0  0  0  0  0  0  0  0  0
   57.4312   30.9961   46.3932 H   0  0  0  0  0  0  0  0  0  0  0  0
   57.1230   33.1490   46.9080 H   0  0  0  0  0  0  0  0  0  0  0  0
   57.5169   35.0411   45.3480 H   0  0  0  0  0  0  0  0  0  0  0  0
   59.1976   34.4013   45.1053 H   0  0  0  0  0  0  0  0  0  0  0  0
   56.8990   33.8360   43.5561 H   0  0  0  0  0  0  0  0  0  0  0  0
   58.5412   33.0322   43.5049 H   0  0  0  0  0  0  0  0  0  0  0  0
   57.7365   31.4409   45.2510 H   0  0  0  0  0  0  0  0  0  0  0  0
   56.0663   32.1697   45.0056 H   0  0  0  0  0  0  0  0  0  0  0  0
   55.9220   31.3470   42.8008 H   0  0  0  0  0  0  0  0  0  0  0  0
   57.6764   30.8329   42.8292 H   0  0  0  0  0  0  0  0  0  0  0  0
   55.9309   28.9735   43.0381 H   0  0  0  0  0  0  0  0  0  0  0  0
   57.2478   29.0394   44.2805 H   0  0  0  0  0  0  0  0  0  0  0  0
   55.8530   29.7040   45.8630 H   0  0  0  0  0  0  0  0  0  0  0  0
   54.7930   30.4680   44.8160 H   0  0  0  0  0  0  0  0  0  0  0  0
   60.1300   34.7430   47.6155 H   0  0  0  0  0  0  0  0  0  0  0  0
   62.2350   35.0050   48.6500 H   0  0  0  0  0  0  0  0  0  0  0  0
   64.2630   34.2226   49.6575 H   0  0  0  0  0  0  0  0  0  0  0  0
   64.6542   31.7723   49.8727 H   0  0  0  0  0  0  0  0  0  0  0  0
   62.9390   30.1671   49.0471 H   0  0  0  0  0  0  0  0  0  0  0  0
   61.5583   28.9886   48.3428 H   0  0  0  0  0  0  0  0  0  0  0  0
   61.2855   25.8588   47.4422 H   0  0  0  0  0  0  0  0  0  0  0  0
   60.0810   25.7080   46.1182 H   0  0  0  0  0  0  0  0  0  0  0  0
   61.2496   27.0721   46.1182 H   0  0  0  0  0  0  0  0  0  0  0  0
  1  2  1  0
  2  3  1  0
  3  4  2  0
  4  5  1  0
  5  6  2  0
  6  7  1  0
  7  8  1  0
  8  9  1  0
  9 10  1  0
 10 11  1  0
 11 12  1  0
 12 13  1  0
  6 14  1  0
 14 15  2  0
 15 16  1  0
 16 17  2  0
 17 18  1  0
 18 19  2  0
 19 20  1  0
 20 21  2  0
 21 22  1  0
 22 23  2  0
 23 24  1  0
 24 25  1  0
 23  3  1  0
 21  5  1  0
 20 15  1  0
  1 26  1  0
  1 27  1  0
  1 28  1  0
  4 29  1  0
  7 30  1  0
  8 31  1  0
  8 32  1  0
  9 33  1  0
  9 34  1  0
 10 35  1  0
 10 36  1  0
 11 37  1  0
 11 38  1  0
 12 39  1  0
 12 40  1  0
 13 41  1  0
 13 42  1  0
 14 43  1  0
 16 44  1  0
 17 45  1  0
 18 46  1  0
 19 47  1  0
 22 48  1  0
 25 49  1  0
 25 50  1  0
 25 51  1  0
M  CHG  1  16   1
M  END
>  <UniqueID>  (40) 
39

>  <SMILES>  (40) 
COc1cc2c(NCCCCCN)cc3[nH+]cccc3c2cc1OC

>  <Energy>  (40) 
61.52853649135721

>  <Genealogy>  (40) 
COc1cc2c(NCCCCCN)cc3[nH+]cccc3c2cc1OC (protonated)
COc1cc2c(NCCCCCN)cc3[nH+]cccc3c2cc1OC (3D coordinates assigned)
COc1cc2c(NCCCCCN)cc3[nH+]cccc3c2cc1OC (optimized conformer: 61.52853649135721 kcal/mol)

>  <smiles>  (40) 
COc1cc2c(NCCCCCN)cc3ncccc3c2cc1OC

>  <score_type>  (40) 
oracle

>  <origin>  (40) 
adg

>  <m_score__min__energy>  (40) 
-5.75

>  <m_primary>  (40) 
energy

$$$$
40:0
     RDKit          3D

 28 30  0  0  0  0  0  0  0  0999 V2000
   62.4120   33.8460   48.0640 C   0  0  0  0  0  0  0  0  0  0  0  0
   61.2330   33.5010   47.2460 C   0  0  0  0  0  0  0  0  0  0  0  0
   60.6110   34.4280   46.4210 C   0  0  0  0  0  0  0  0  0  0  0  0
   59.5120   34.0590   45.6750 C   0  0  0  0  0  0  0  0  0  0  0  0
   58.9950   32.7640   45.7190 C   0  0  0  0  0  0  0  0  0  0  0  0
   57.5960   32.3830   44.7370 S   0  0  0  0  0  0  0  0  0  0  0  0
   56.4210   33.1930   45.2540 O   0  0  0  0  0  0  0  0  0  0  0  0
   57.8390   32.8320   43.3150 O   0  0  0  0  0  0  0  0  0  0  0  0
   57.1850   30.6830   44.7910 C   0  0  0  0  0  0  0  0  0  0  0  0
   55.9260   30.2040   44.8320 N   0  0  0  0  0  0  0  0  0  0  0  0
   55.9470   28.8840   44.8650 N   0  0  0  0  0  0  0  0  0  0  0  0
   57.2520   28.5000   44.8470 C   0  0  0  0  0  0  0  0  0  0  0  0
   58.0810   27.4160   44.8570 N   0  0  0  0  0  0  0  0  0  0  0  0
   59.3620   27.8800   44.8160 C   0  0  0  0  0  0  0  0  0  0  0  0
   59.3300   29.2650   44.7810 C   0  0  0  0  0  0  0  0  0  0  0  0
   58.0150   29.6190   44.8000 N   0  0  0  0  0  0  0  0  0  0  0  0
   59.6100   31.8410   46.5370 C   0  0  0  0  0  0  0  0  0  0  0  0
   60.7080   32.2260   47.2770 C   0  0  0  0  0  0  0  0  0  0  0  0
   62.1532   33.7703   49.1304 H   0  0  0  0  0  0  0  0  0  0  0  0
   63.2330   33.1504   47.8356 H   0  0  0  0  0  0  0  0  0  0  0  0
   62.7285   34.8744   47.8356 H   0  0  0  0  0  0  0  0  0  0  0  0
   60.9950   35.4571   46.3625 H   0  0  0  0  0  0  0  0  0  0  0  0
   59.0296   34.8060   45.0274 H   0  0  0  0  0  0  0  0  0  0  0  0
   55.1440   28.2230   44.9000 H   0  0  0  0  0  0  0  0  0  0  0  0
   60.2697   27.2587   44.8115 H   0  0  0  0  0  0  0  0  0  0  0  0
   60.1949   29.9437   44.7450 H   0  0  0  0  0  0  0  0  0  0  0  0
   59.2299   30.8106   46.5988 H   0  0  0  0  0  0  0  0  0  0  0  0
   61.1895   31.4786   47.9247 H   0  0  0  0  0  0  0  0  0  0  0  0
  1  2  1  0
  2  3  2  0
  3  4  1  0
  4  5  2  0
  5  6  1  0
  6  7  2  0
  6  8  2  0
  6  9  1  0
  9 10  2  0
 10 11  1  0
 11 12  1  0
 12 13  2  0
 13 14  1  0
 14 15  2  0
 15 16  1  0
  5 17  1  0
 17 18  2  0
 18  2  1  0
 16  9  1  0
 16 12  1  0
  1 19  1  0
  1 20  1  0
  1 21  1  0
  3 22  1  0
  4 23  1  0
 11 24  1  0
 14 25  1  0
 15 26  1  0
 17 27  1  0
 18 28  1  0
M  END
>  <smiles>  (41) 
Cc1ccc(S(=O)(=O)c2n[nH]c3nccn23)cc1

>  <score_type>  (41) 
oracle

>  <origin>  (41) 
adg

>  <m_score__min__energy>  (41) 
-7.3200000000000003

>  <m_primary>  (41) 
energy

$$$$
41:0
     RDKit          3D

 40 43  0  0  0  0  0  0  0  0999 V2000
   64.4440   33.6030   51.0010 C   0  0  0  0  0  0  0  0  0  0  0  0
   64.0260   33.4360   49.6130 N   0  0  0  0  0  0  0  0  0  0  0  0
   64.8340   33.0970   48.6150 N   0  0  0  0  0  0  0  0  0  0  0  0
   64.1290   33.0660   47.4590 C   0  0  0  0  0  0  0  0  0  0  0  0
   62.8250   33.4030   47.7580 C   0  0  0  0  0  0  0  0  0  0  0  0
   61.6950   33.5400   46.9570 C   0  0  0  0  0  0  0  0  0  0  0  0
   60.4840   33.9160   47.5830 C   0  0  0  0  0  0  0  0  0  0  0  0
   59.2510   34.0890   46.7830 C   0  0  0  0  0  0  0  0  0  0  0  0
   58.4830   35.0530   47.0500 O   0  0  0  0  0  0  0  0  0  0  0  0
   58.9060   33.1840   45.7150 N   0  0  0  0  0  0  0  0  0  0  0  0
   58.2500   33.7390   44.5180 C   0  0  0  0  0  0  0  0  0  0  0  0
   58.1440   32.7170   43.3800 C   0  0  0  0  0  0  0  0  0  0  0  0
   57.6120   31.4140   43.9010 C   0  0  0  0  0  0  0  0  0  0  0  0
   56.7010   30.6490   43.1560 C   0  0  0  0  0  0  0  0  0  0  0  0
   56.2550   29.4190   43.6460 C   0  0  0  0  0  0  0  0  0  0  0  0
   56.7260   28.9400   44.8720 C   0  0  0  0  0  0  0  0  0  0  0  0
   57.6460   29.6900   45.6100 C   0  0  0  0  0  0  0  0  0  0  0  0
   58.0850   30.9340   45.1330 C   0  0  0  0  0  0  0  0  0  0  0  0
   59.1160   31.7320   45.8880 C   0  0  0  0  0  0  0  0  0  0  0  0
   60.4630   34.1690   48.9800 C   0  0  0  0  0  0  0  0  0  0  0  0
   61.6270   34.0230   49.7580 C   0  0  0  0  0  0  0  0  0  0  0  0
   62.7950   33.6310   49.1060 C   0  0  0  0  0  0  0  0  0  0  0  0
   63.6329   33.2790   51.6697 H   0  0  0  0  0  0  0  0  0  0  0  0
   65.3403   32.9939   51.1898 H   0  0  0  0  0  0  0  0  0  0  0  0
   64.6739   34.6620   51.1898 H   0  0  0  0  0  0  0  0  0  0  0  0
   65.8550   32.8960   48.7130 H   0  0  0  0  0  0  0  0  0  0  0  0
   64.5242   32.8174   46.4630 H   0  0  0  0  0  0  0  0  0  0  0  0
   61.7424   33.3616   45.8726 H   0  0  0  0  0  0  0  0  0  0  0  0
   57.2369   34.0686   44.7917 H   0  0  0  0  0  0  0  0  0  0  0  0
   58.8645   34.5775   44.1583 H   0  0  0  0  0  0  0  0  0  0  0  0
   57.4641   33.1037   42.6066 H   0  0  0  0  0  0  0  0  0  0  0  0
   59.1439   32.5511   42.9525 H   0  0  0  0  0  0  0  0  0  0  0  0
   56.3379   31.0182   42.1855 H   0  0  0  0  0  0  0  0  0  0  0  0
   55.5320   28.8265   43.0661 H   0  0  0  0  0  0  0  0  0  0  0  0
   56.3722   27.9719   45.2562 H   0  0  0  0  0  0  0  0  0  0  0  0
   58.0267   29.3039   46.5671 H   0  0  0  0  0  0  0  0  0  0  0  0
   59.0467   31.4852   46.9577 H   0  0  0  0  0  0  0  0  0  0  0  0
   60.1099   31.4762   45.4922 H   0  0  0  0  0  0  0  0  0  0  0  0
   59.5248   34.4832   49.4606 H   0  0  0  0  0  0  0  0  0  0  0  0
   61.6153   34.2115   50.8417 H   0  0  0  0  0  0  0  0  0  0  0  0
  1  2  1  0
  2  3  1  0
  3  4  2  0
  4  5  1  0
  5  6  2  0
  6  7  1  0
  7  8  1  0
  8  9  2  0
  8 10  1  0
 10 11  1  0
 11 12  1  0
 12 13  1  0
 13 14  2  0
 14 15  1  0
 15 16  2  0
 16 17  1  0
 17 18  2  0
 18 19  1  0
  7 20  2  0
 20 21  1  0
 21 22  2  0
 22  2  1  0
 22  5  1  0
 19 10  1  0
 18 13  1  0
  1 23  1  0
  1 24  1  0
  1 25  1  0
  3 26  1  0
  4 27  1  0
  6 28  1  0
 11 29  1  0
 11 30  1  0
 12 31  1  0
 12 32  1  0
 14 33  1  0
 15 34  1  0
 16 35  1  0
 17 36  1  0
 19 37  1  0
 19 38  1  0
 20 39  1  0
 21 40  1  0
M  CHG  1   3   1
M  END
>  <UniqueID>  (42) 
40

>  <SMILES>  (42) 
Cn1[nH+]cc2cc(C(=O)N3CCc4ccccc4C3)ccc21

>  <Energy>  (42) 
89.36317548763125

>  <Genealogy>  (42) 
Cn1[nH+]cc2cc(C(=O)N3CCc4ccccc4C3)ccc21 (protonated)
Cn1[nH+]cc2cc(C(=O)N3CCc4ccccc4C3)ccc21 (3D coordinates assigned)
Cn1[nH+]cc2cc(C(=O)N3CCc4ccccc4C3)ccc21 (nonaromatic ring conformer: 89.36317548763125 kcal/mol)

>  <smiles>  (42) 
Cn1ncc2cc(C(=O)N3CCc4ccccc4C3)ccc21

>  <score_type>  (42) 
oracle

>  <origin>  (42) 
adg

>  <m_score__min__energy>  (42) 
-7.0300000000000002

>  <m_primary>  (42) 
energy

$$$$
42:0
     RDKit          3D

 36 38  0  0  0  0  0  0  0  0999 V2000
   58.6580   28.0350   45.1270 C   0  0  0  0  0  0  0  0  0  0  0  0
   58.5200   29.5150   45.3070 C   0  0  0  0  0  0  0  0  0  0  0  0
   59.4610   30.2860   45.8940 N   0  0  0  0  0  0  0  0  0  0  0  0
   58.9570   31.5330   45.8540 C   0  0  0  0  0  0  0  0  0  0  0  0
   59.5730   32.6790   46.3660 C   0  0  0  0  0  0  0  0  0  0  0  0
   60.8400   32.5760   46.9610 O   0  0  0  0  0  0  0  0  0  0  0  0
   61.8660   33.5670   46.8880 C   0  0  0  0  0  0  0  0  0  0  0  0
   62.6850   33.5830   48.1530 C   0  0  0  0  0  0  0  0  0  0  0  0
   63.9920   33.0650   48.1580 C   0  0  0  0  0  0  0  0  0  0  0  0
   64.7500   33.0770   49.3330 C   0  0  0  0  0  0  0  0  0  0  0  0
   64.2080   33.5970   50.5110 C   0  0  0  0  0  0  0  0  0  0  0  0
   62.9060   34.1020   50.5190 C   0  0  0  0  0  0  0  0  0  0  0  0
   62.1420   34.0930   49.3460 C   0  0  0  0  0  0  0  0  0  0  0  0
   60.8760   34.5810   49.3760 F   0  0  0  0  0  0  0  0  0  0  0  0
   58.8680   33.8960   46.2500 C   0  0  0  0  0  0  0  0  0  0  0  0
   57.5940   33.9250   45.6570 C   0  0  0  0  0  0  0  0  0  0  0  0
   57.0280   32.7410   45.1690 C   0  0  0  0  0  0  0  0  0  0  0  0
   57.7410   31.5860   45.2740 N   0  0  0  0  0  0  0  0  0  0  0  0
   57.4460   30.3140   44.9140 C   0  0  0  0  0  0  0  0  0  0  0  0
   56.2200   29.8540   44.2220 C   0  0  0  0  0  0  0  0  0  0  0  0
   55.3010   28.9760   44.8650 N   0  0  0  0  0  0  0  0  0  0  0  0
   55.9620   30.2650   43.0600 O   0  0  0  0  0  0  0  0  0  0  0  0
   58.7034   27.5484   46.1125 H   0  0  0  0  0  0  0  0  0  0  0  0
   57.7917   27.6512   44.5681 H   0  0  0  0  0  0  0  0  0  0  0  0
   59.5803   27.8180   44.5681 H   0  0  0  0  0  0  0  0  0  0  0  0
   60.3750   29.9790   46.2940 H   0  0  0  0  0  0  0  0  0  0  0  0
   62.5238   33.3431   46.0352 H   0  0  0  0  0  0  0  0  0  0  0  0
   61.3956   34.5530   46.7598 H   0  0  0  0  0  0  0  0  0  0  0  0
   64.4199   32.6487   47.2341 H   0  0  0  0  0  0  0  0  0  0  0  0
   65.7745   32.6765   49.3298 H   0  0  0  0  0  0  0  0  0  0  0  0
   64.8075   33.6087   51.4332 H   0  0  0  0  0  0  0  0  0  0  0  0
   62.4801   34.5075   51.4486 H   0  0  0  0  0  0  0  0  0  0  0  0
   59.3179   34.8268   46.6257 H   0  0  0  0  0  0  0  0  0  0  0  0
   57.0438   34.8741   45.5766 H   0  0  0  0  0  0  0  0  0  0  0  0
   56.0282   32.7440   44.7104 H   0  0  0  0  0  0  0  0  0  0  0  0
   54.4340   29.3420   45.3170 H   0  0  0  0  0  0  0  0  0  0  0  0
  1  2  1  0
  2  3  1  0
  3  4  2  0
  4  5  1  0
  5  6  1  0
  6  7  1  0
  7  8  1  0
  8  9  2  0
  9 10  1  0
 10 11  2  0
 11 12  1  0
 12 13  2  0
 13 14  1  0
  5 15  2  0
 15 16  1  0
 16 17  2  0
 17 18  1  0
 18 19  1  0
 19 20  1  0
 20 21  1  0
 20 22  2  0
 19  2  2  0
 18  4  1  0
 13  8  1  0
  1 23  1  0
  1 24  1  0
  1 25  1  0
  3 26  1  0
  7 27  1  0
  7 28  1  0
  9 29  1  0
 10 30  1  0
 11 31  1  0
 12 32  1  0
 15 33  1  0
 16 34  1  0
 17 35  1  0
 21 36  1  0
M  CHG  2   3   1  21  -1
M  END
>  <UniqueID>  (43) 
41

>  <SMILES>  (43) 
Cc1[nH+]c2c(OCc3ccccc3F)cccn2c1C([NH-])=O

>  <Energy>  (43) 
76.08036317579158

>  <Genealogy>  (43) 
Cc1[nH+]c2c(OCc3ccccc3F)cccn2c1C([NH-])=O (protonated)
Cc1[nH+]c2c(OCc3ccccc3F)cccn2c1C([NH-])=O (3D coordinates assigned)
Cc1[nH+]c2c(OCc3ccccc3F)cccn2c1C([NH-])=O (optimized conformer: 76.08036317579158 kcal/mol)

>  <smiles>  (43) 
Cc1nc2c(OCc3ccccc3F)cccn2c1C(N)=O

>  <score_type>  (43) 
oracle

>  <origin>  (43) 
adg

>  <m_score__min__energy>  (43) 
-8.5600000000000005

>  <m_primary>  (43) 
energy

$$$$
43:0
     RDKit          3D

 46 48  0  0  1  0  0  0  0  0999 V2000
   56.6730   22.3340   43.0030 C   0  0  0  0  0  0  0  0  0  0  0  0
   56.3790   23.7390   43.4780 C   0  0  0  0  0  0  0  0  0  0  0  0
   55.7700   23.7630   44.8450 C   0  0  0  0  0  0  0  0  0  0  0  0
   55.9290   25.3130   45.6510 S   0  0  0  0  0  0  0  0  0  0  0  0
   56.2730   25.1000   47.1230 O   0  0  0  0  0  0  0  0  0  0  0  0
   54.5630   25.9630   45.6770 O   0  0  0  0  0  0  0  0  0  0  0  0
   57.1080   26.3580   45.0010 N   0  0  0  0  0  0  0  0  0  0  0  0
   58.1970   26.9390   45.6700 C   0  0  0  0  0  0  0  0  0  0  0  0
   59.1960   26.2550   46.3170 C   0  0  0  0  0  0  0  0  0  0  0  0
   60.2580   26.8860   46.9510 C   0  0  0  0  0  0  0  0  0  0  0  0
   60.2760   28.2510   46.9090 C   0  0  0  0  0  0  0  0  0  0  0  0
   59.3030   29.0150   46.2750 C   0  0  0  0  0  0  0  0  0  0  0  0
   59.3850   30.4900   46.2660 C   0  0  0  0  0  0  0  0  0  0  0  0
   58.4110   31.1180   45.5950 N   0  0  0  0  0  0  0  0  0  0  0  0
   58.3640   32.4900   45.5050 C   0  0  0  0  0  0  0  0  0  0  0  0
   57.4560   33.2430   44.8720 C   0  0  0  0  0  0  0  0  0  0  0  0
   57.5950   34.5880   44.9050 C   0  0  0  0  0  0  0  0  0  0  0  0
   59.1560   34.8740   45.9250 S   0  0  0  0  0  0  0  0  0  0  0  0
   59.3910   33.1320   46.1550 C   0  0  0  0  0  0  0  0  0  0  0  0
   60.3890   32.4620   46.8440 C   0  0  0  0  0  0  0  0  0  0  0  0
   61.3330   33.0870   47.4420 N   0  0  0  0  0  0  0  0  0  0  0  0
   62.5170   33.5570   46.7500 C   0  0  0  0  0  0  0  0  0  0  0  0
   63.6730   32.6140   47.1250 C   0  0  0  0  0  0  0  0  0  0  0  0
   63.1140   31.4890   47.7090 O   0  0  0  0  0  0  0  0  0  0  0  0
   60.3900   31.1110   46.9040 N   0  0  0  0  0  0  0  0  0  0  0  0
   58.2780   28.3390   45.6650 C   0  0  0  0  0  0  0  0  0  0  0  0
   56.8110   21.6744   43.8724 H   0  0  0  0  0  0  0  0  0  0  0  0
   55.8318   21.9688   42.3955 H   0  0  0  0  0  0  0  0  0  0  0  0
   57.5900   22.3367   42.3955 H   0  0  0  0  0  0  0  0  0  0  0  0
   57.3198   24.3086   43.5003 H   0  0  0  0  0  0  0  0  0  0  0  0
   55.6548   24.1845   42.7801 H   0  0  0  0  0  0  0  0  0  0  0  0
   54.6998   23.5253   44.7542 H   0  0  0  0  0  0  0  0  0  0  0  0
   56.3099   23.0231   45.4542 H   0  0  0  0  0  0  0  0  0  0  0  0
   57.0130   26.6040   43.9670 H   0  0  0  0  0  0  0  0  0  0  0  0
   59.1532   25.1560   46.3340 H   0  0  0  0  0  0  0  0  0  0  0  0
   61.0465   26.3143   47.4622 H   0  0  0  0  0  0  0  0  0  0  0  0
   61.1067   28.7750   47.4044 H   0  0  0  0  0  0  0  0  0  0  0  0
   56.6151   32.7780   44.3366 H   0  0  0  0  0  0  0  0  0  0  0  0
   56.9446   35.3444   44.4416 H   0  0  0  0  0  0  0  0  0  0  0  0
   62.3510   33.5346   45.6628 H   0  0  0  0  0  0  0  0  0  0  0  0
   62.7507   34.5923   47.0389 H   0  0  0  0  0  0  0  0  0  0  0  0
   64.2349   32.3301   46.2230 H   0  0  0  0  0  0  0  0  0  0  0  0
   64.3690   33.1079   47.8189 H   0  0  0  0  0  0  0  0  0  0  0  0
   62.3080   31.6700   48.2480 H   0  0  0  0  0  0  0  0  0  0  0  0
   61.1490   30.6360   47.4260 H   0  0  0  0  0  0  0  0  0  0  0  0
   57.4921   28.9146   45.1541 H   0  0  0  0  0  0  0  0  0  0  0  0
  1  2  1  0
  2  3  1  0
  3  4  1  0
  4  5  2  0
  4  6  2  0
  4  7  1  0
  7  8  1  0
  8  9  2  0
  9 10  1  0
 10 11  2  0
 11 12  1  0
 12 13  1  0
 13 14  2  0
 14 15  1  0
 15 16  1  0
 16 17  2  0
 17 18  1  0
 18 19  1  0
 19 20  1  0
 20 21  2  0
 21 22  1  0
 22 23  1  0
 23 24  1  0
 20 25  1  0
 12 26  2  0
 26  8  1  0
 25 13  1  0
 19 15  2  0
  1 27  1  0
  1 28  1  0
  1 29  1  0
  2 30  1  0
  2 31  1  0
  3 32  1  0
  3 33  1  0
  7 34  1  0
  9 35  1  0
 10 36  1  0
 11 37  1  0
 16 38  1  0
 17 39  1  0
 22 40  1  0
 22 41  1  0
 23 42  1  0
 23 43  1  0
 24 44  1  0
 25 45  1  0
 26 46  1  0
M  END
>  <smiles>  (44) 
CCCS(=O)(=O)Nc1cccc(-c2nc3ccsc3c(=NCCO)[nH]2)c1

>  <score_type>  (44) 
oracle

>  <origin>  (44) 
adg

>  <m_score__min__energy>  (44) 
-8.4299999999999997

>  <m_primary>  (44) 
energy

$$$$
44:0
     RDKit          3D

 41 43  0  0  0  0  0  0  0  0999 V2000
   64.1501   33.8379   49.0280 H   0  0  0  0  0  0  0  0  0  0  0  0
   63.0990   33.8270   48.7040 C   0  0  0  0  0  0  0  0  0  0  0  0
   62.7740   33.4460   47.3990 C   0  0  0  0  0  0  0  0  0  0  0  0
   63.5692   33.1514   46.6984 H   0  0  0  0  0  0  0  0  0  0  0  0
   61.4380   33.4390   46.9830 C   0  0  0  0  0  0  0  0  0  0  0  0
   61.1860   33.1296   45.9579 H   0  0  0  0  0  0  0  0  0  0  0  0
   60.4190   33.8240   47.8650 C   0  0  0  0  0  0  0  0  0  0  0  0
   59.0910   33.7880   47.4170 O   0  0  0  0  0  0  0  0  0  0  0  0
   58.6640   33.2950   46.1750 C   0  0  0  0  0  0  0  0  0  0  0  0
   57.7310   32.2530   46.0810 C   0  0  0  0  0  0  0  0  0  0  0  0
   57.3182   31.8084   46.9986 H   0  0  0  0  0  0  0  0  0  0  0  0
   57.3180   31.7710   44.8310 C   0  0  0  0  0  0  0  0  0  0  0  0
   56.4740   30.7710   44.8490 N   0  0  0  0  0  0  0  0  0  0  0  0
   56.5280   29.4330   44.2610 C   0  0  0  0  0  0  0  0  0  0  0  0
   56.6815   29.5292   43.1760 H   0  0  0  0  0  0  0  0  0  0  0  0
   55.5785   28.9264   44.4887 H   0  0  0  0  0  0  0  0  0  0  0  0
   57.6510   28.5960   44.8400 C   0  0  0  0  0  0  0  0  0  0  0  0
   58.9940   28.9930   44.6820 C   0  0  0  0  0  0  0  0  0  0  0  0
   59.2300   29.9040   44.1125 H   0  0  0  0  0  0  0  0  0  0  0  0
   60.0270   28.2400   45.2420 C   0  0  0  0  0  0  0  0  0  0  0  0
   61.3160   28.6230   45.0660 F   0  0  0  0  0  0  0  0  0  0  0  0
   59.7360   27.0980   45.9860 C   0  0  0  0  0  0  0  0  0  0  0  0
   60.5531   26.5004   46.4165 H   0  0  0  0  0  0  0  0  0  0  0  0
   58.4100   26.7110   46.1860 C   0  0  0  0  0  0  0  0  0  0  0  0
   58.1870   25.8148   46.7836 H   0  0  0  0  0  0  0  0  0  0  0  0
   57.3550   27.4600   45.6280 C   0  0  0  0  0  0  0  0  0  0  0  0
   56.0110   27.1060   45.8330 O   0  0  0  0  0  0  0  0  0  0  0  0
   55.5390   25.7720   45.9820 C   0  0  0  0  0  0  0  0  0  0  0  0
   55.4536   25.5306   47.0518 H   0  0  0  0  0  0  0  0  0  0  0  0
   54.5525   25.6766   45.5047 H   0  0  0  0  0  0  0  0  0  0  0  0
   56.2460   25.0775   45.5047 H   0  0  0  0  0  0  0  0  0  0  0  0
   57.8440   32.3920   43.6600 C   0  0  0  0  0  0  0  0  0  0  0  0
   57.3950   31.9800   41.8390 Br  0  0  0  0  0  0  0  0  0  0  0  0
   58.7550   33.4460   43.8090 C   0  0  0  0  0  0  0  0  0  0  0  0
   59.1664   33.9368   42.9146 H   0  0  0  0  0  0  0  0  0  0  0  0
   59.1380   33.8710   45.0410 N   0  0  0  0  0  0  0  0  0  0  0  0
   59.8190   34.6600   45.1140 H   0  0  0  0  0  0  0  0  0  0  0  0
   60.7520   34.1880   49.1850 C   0  0  0  0  0  0  0  0  0  0  0  0
   59.9585   34.4682   49.8934 H   0  0  0  0  0  0  0  0  0  0  0  0
   62.0890   34.1940   49.5970 C   0  0  0  0  0  0  0  0  0  0  0  0
   62.3454   34.4881   50.6255 H   0  0  0  0  0  0  0  0  0  0  0  0
  1  2  1  0
  2  3  2  0
  3  4  1  0
  3  5  1  0
  5  6  1  0
  5  7  2  0
  7  8  1  0
  8  9  1  0
  9 10  2  0
 10 11  1  0
 10 12  1  0
 12 13  2  0
 13 14  1  0
 14 15  1  0
 14 16  1  0
 14 17  1  0
 17 18  2  0
 18 19  1  0
 18 20  1  0
 20 21  1  0
 20 22  2  0
 22 23  1  0
 22 24  1  0
 24 25  1  0
 24 26  2  0
 26 27  1  0
 27 28  1  0
 28 29  1  0
 28 30  1  0
 28 31  1  0
 12 32  1  0
 32 33  1  0
 32 34  2  0
 34 35  1  0
 34 36  1  0
 36 37  1  0
  7 38  1  0
 38 39  1  0
 38 40  2  0
 40 41  1  0
 40  2  1  0
 36  9  1  0
 26 17  1  0
M  END
>  <UniqueID>  (45) 
42

>  <SMILES>  (45) 
COc1ccc(F)cc1C/N=c1/cc(Oc2ccccc2)[nH]cc1Br

>  <Energy>  (45) 
61.826055592686224

>  <Genealogy>  (45) 
COc1ccc(F)cc1C/N=c1/cc(Oc2ccccc2)[nH]cc1Br (cis-trans isomerization)
COc1ccc(F)cc1C/N=c1/cc(Oc2ccccc2)[nH]cc1Br (3D coordinates assigned)
COc1ccc(F)cc1C/N=c1/cc(Oc2ccccc2)[nH]cc1Br (optimized conformer: 61.826055592686224 kcal/mol)

>  <smiles>  (45) 
COc1ccc(F)cc1CN=c1cc(Oc2ccccc2)[nH]cc1Br

>  <score_type>  (45) 
oracle

>  <origin>  (45) 
adg

>  <m_score__min__energy>  (45) 
-7.8300000000000001

>  <m_primary>  (45) 
energy

$$$$
45:0
     RDKit          3D

 54 56  0  0  0  0  0  0  0  0999 V2000
   61.4850   33.1010   46.5370 H   0  0  0  0  0  0  0  0  0  0  0  0
   62.4420   33.3110   46.6960 O   0  0  0  0  0  0  0  0  0  0  0  0
   63.0560   32.1260   47.1310 C   0  0  0  0  0  0  0  0  0  0  0  0
   64.1183   32.1437   46.8459 H   0  0  0  0  0  0  0  0  0  0  0  0
   62.5494   31.2708   46.6598 H   0  0  0  0  0  0  0  0  0  0  0  0
   62.9450   31.9870   48.6600 C   0  0  0  0  0  0  0  0  0  0  0  0
   63.9319   31.7082   49.0578 H   0  0  0  0  0  0  0  0  0  0  0  0
   62.1842   31.2189   48.8629 H   0  0  0  0  0  0  0  0  0  0  0  0
   62.5000   33.2370   49.3340 N   0  0  2  0  0  0  0  0  0  0  0  0
   62.3510   33.9640   48.5940 H   0  0  0  0  0  0  0  0  0  0  0  0
   63.6000   33.7240   50.2070 C   0  0  0  0  0  0  0  0  0  0  0  0
   63.3264   33.5320   51.2550 H   0  0  0  0  0  0  0  0  0  0  0  0
   63.7284   34.7977   50.0052 H   0  0  0  0  0  0  0  0  0  0  0  0
   64.9420   33.0410   49.9200 C   0  0  0  0  0  0  0  0  0  0  0  0
   65.4360   32.7896   50.8701 H   0  0  0  0  0  0  0  0  0  0  0  0
   64.7691   32.1212   49.3420 H   0  0  0  0  0  0  0  0  0  0  0  0
   65.5839   33.7221   49.3420 H   0  0  0  0  0  0  0  0  0  0  0  0
   61.2440   33.0080   50.1130 C   0  0  0  0  0  0  0  0  0  0  0  0
   61.0769   31.9243   50.2002 H   0  0  0  0  0  0  0  0  0  0  0  0
   61.3736   33.4809   51.0977 H   0  0  0  0  0  0  0  0  0  0  0  0
   60.0060   33.6460   49.4500 C   0  0  0  0  0  0  0  0  0  0  0  0
   59.1885   32.9102   49.4343 H   0  0  0  0  0  0  0  0  0  0  0  0
   59.7186   34.5339   50.0323 H   0  0  0  0  0  0  0  0  0  0  0  0
   60.2970   34.0680   48.0730 N   0  0  0  0  0  0  0  0  0  0  0  0
   60.4230   33.2350   47.4590 H   0  0  0  0  0  0  0  0  0  0  0  0
   59.2520   34.9550   47.5320 C   0  0  0  0  0  0  0  0  0  0  0  0
   58.2839   34.6540   47.9589 H   0  0  0  0  0  0  0  0  0  0  0  0
   59.5258   35.9843   47.8068 H   0  0  0  0  0  0  0  0  0  0  0  0
   59.1440   34.9080   45.9960 C   0  0  0  0  0  0  0  0  0  0  0  0
   58.0849   34.9852   45.7091 H   0  0  0  0  0  0  0  0  0  0  0  0
   59.7225   35.7472   45.5824 H   0  0  0  0  0  0  0  0  0  0  0  0
   59.6940   33.6590   45.4590 N   0  0  0  0  0  0  0  0  0  0  0  0
   59.2600   32.4390   45.6120 C   0  0  0  0  0  0  0  0  0  0  0  0
   59.9150   31.6330   46.4870 N   0  0  0  0  0  0  0  0  0  0  0  0
   59.5670   30.3370   46.7020 C   0  0  0  0  0  0  0  0  0  0  0  0
   60.3010   29.5830   47.6160 C   0  0  0  0  0  0  0  0  0  0  0  0
   61.1440   30.0445   48.1512 H   0  0  0  0  0  0  0  0  0  0  0  0
   59.9770   28.2530   47.8570 C   0  0  0  0  0  0  0  0  0  0  0  0
   60.5631   27.6709   48.5834 H   0  0  0  0  0  0  0  0  0  0  0  0
   58.9090   27.6490   47.1810 C   0  0  0  0  0  0  0  0  0  0  0  0
   58.6020   26.3040   47.4390 C   0  0  0  0  0  0  0  0  0  0  0  0
   59.1994   25.7372   48.1683 H   0  0  0  0  0  0  0  0  0  0  0  0
   57.5450   25.6820   46.7770 C   0  0  0  0  0  0  0  0  0  0  0  0
   57.3104   24.6276   46.9846 H   0  0  0  0  0  0  0  0  0  0  0  0
   56.7860   26.3950   45.8530 C   0  0  0  0  0  0  0  0  0  0  0  0
   55.9528   25.8996   45.3331 H   0  0  0  0  0  0  0  0  0  0  0  0
   57.0740   27.7340   45.5810 C   0  0  0  0  0  0  0  0  0  0  0  0
   56.4658   28.2827   44.8469 H   0  0  0  0  0  0  0  0  0  0  0  0
   58.1410   28.3940   46.2400 C   0  0  0  0  0  0  0  0  0  0  0  0
   58.4770   29.7600   46.0010 C   0  0  0  0  0  0  0  0  0  0  0  0
   57.7780   30.5910   45.0990 C   0  0  0  0  0  0  0  0  0  0  0  0
   56.9213   30.1862   44.5402 H   0  0  0  0  0  0  0  0  0  0  0  0
   58.1600   31.9200   44.9070 C   0  0  0  0  0  0  0  0  0  0  0  0
   57.6022   32.5589   44.2065 H   0  0  0  0  0  0  0  0  0  0  0  0
  1  2  1  0
  2  3  1  0
  3  4  1  0
  3  5  1  0
  3  6  1  0
  6  7  1  0
  6  8  1  0
  6  9  1  0
  9 10  1  6
  9 11  1  0
 11 12  1  0
 11 13  1  0
 11 14  1  0
 14 15  1  0
 14 16  1  0
 14 17  1  0
  9 18  1  0
 18 19  1  0
 18 20  1  0
 18 21  1  0
 21 22  1  0
 21 23  1  0
 21 24  1  0
 24 25  1  0
 24 26  1  0
 26 27  1  0
 26 28  1  0
 26 29  1  0
 29 30  1  0
 29 31  1  0
 29 32  1  0
 32 33  2  0
 33 34  1  0
 34 35  1  0
 35 36  2  0
 36 37  1  0
 36 38  1  0
 38 39  1  0
 38 40  2  0
 40 41  1  0
 41 42  1  0
 41 43  2  0
 43 44  1  0
 43 45  1  0
 45 46  1  0
 45 47  2  0
 47 48  1  0
 47 49  1  0
 49 50  2  0
 50 51  1  0
 51 52  1  0
 51 53  2  0
 53 54  1  0
 53 33  1  0
 50 35  1  0
 49 40  1  0
M  CHG  2   9   1  34  -1
M  END
>  <UniqueID>  (46) 
43

>  <SMILES>  (46) 
CC[N@@H+](CCO)CCNCC/N=c1\ccc2c(ccc3ccccc32)[n-]1

>  <Energy>  (46) 
72.4901140407328

>  <Genealogy>  (46) 
CC[NH+](CCO)CCNCCN=c1ccc2c(ccc3ccccc32)[n-]1 (protonated)
CC[N@@H+](CCO)CCNCCN=c1ccc2c(ccc3ccccc32)[n-]1 (chirality)
CC[N@@H+](CCO)CCNCC/N=c1\ccc2c(ccc3ccccc32)[n-]1 (cis-trans isomerization)
CC[N@@H+](CCO)CCNCC/N=c1\ccc2c(ccc3ccccc32)[n-]1 (3D coordinates assigned)
CC[N@@H+](CCO)CCNCC/N=c1\ccc2c(ccc3ccccc32)[n-]1 (optimized conformer: 72.4901140407328 kcal/mol)

>  <smiles>  (46) 
CCN(CCO)CCNCCN=c1ccc2c(ccc3ccccc32)[nH]1

>  <score_type>  (46) 
oracle

>  <origin>  (46) 
adg

>  <m_score__min__energy>  (46) 
-7.1900000000000004

>  <m_primary>  (46) 
energy

$$$$
46:0
     RDKit          3D

 46 49  0  0  0  0  0  0  0  0999 V2000
   54.0380   25.3230   45.6000 C   0  0  0  0  0  0  0  0  0  0  0  0
   55.1540   26.1910   45.7760 O   0  0  0  0  0  0  0  0  0  0  0  0
   56.4960   25.7740   45.7900 C   0  0  0  0  0  0  0  0  0  0  0  0
   56.8440   24.4120   45.9100 C   0  0  0  0  0  0  0  0  0  0  0  0
   58.1850   24.0250   45.9740 C   0  0  0  0  0  0  0  0  0  0  0  0
   59.1930   24.9860   45.9270 C   0  0  0  0  0  0  0  0  0  0  0  0
   58.8660   26.3360   45.7990 C   0  0  0  0  0  0  0  0  0  0  0  0
   57.5230   26.7430   45.7080 C   0  0  0  0  0  0  0  0  0  0  0  0
   57.2220   28.1810   45.5330 C   0  0  0  0  0  0  0  0  0  0  0  0
   58.1410   29.1600   45.6800 N   0  0  0  0  0  0  0  0  0  0  0  0
   57.4250   30.2610   45.3730 C   0  0  0  0  0  0  0  0  0  0  0  0
   57.9980   31.6500   45.3630 C   0  0  1  0  0  0  0  0  0  0  0  0
   56.9730   32.6500   44.7910 C   0  0  0  0  0  0  0  0  0  0  0  0
   57.3060   34.1250   45.1090 C   0  0  0  0  0  0  0  0  0  0  0  0
   58.7460   34.3270   45.6000 C   0  0  0  0  0  0  0  0  0  0  0  0
   59.0260   33.4400   46.7380 N   0  0  0  0  0  0  0  0  0  0  0  0
   60.0590   33.8090   47.6690 C   0  0  0  0  0  0  0  0  0  0  0  0
   59.8180   34.6710   48.5570 O   0  0  0  0  0  0  0  0  0  0  0  0
   61.4010   33.2000   47.6220 C   0  0  0  0  0  0  0  0  0  0  0  0
   62.6120   33.8670   47.6220 C   0  0  0  0  0  0  0  0  0  0  0  0
   63.5770   32.8860   47.5350 C   0  0  0  0  0  0  0  0  0  0  0  0
   62.8990   31.6860   47.4810 C   0  0  0  0  0  0  0  0  0  0  0  0
   61.6050   31.9060   47.5330 O   0  0  0  0  0  0  0  0  0  0  0  0
   58.4660   32.0790   46.7660 C   0  0  0  0  0  0  0  0  0  0  0  0
   56.1900   29.9570   45.0500 O   0  0  0  0  0  0  0  0  0  0  0  0
   56.0330   28.6760   45.1430 N   0  0  0  0  0  0  0  0  0  0  0  0
   53.6497   25.0210   46.5839 H   0  0  0  0  0  0  0  0  0  0  0  0
   53.2499   25.8479   45.0401 H   0  0  0  0  0  0  0  0  0  0  0  0
   54.3528   24.4300   45.0401 H   0  0  0  0  0  0  0  0  0  0  0  0
   56.0532   23.6486   45.9535 H   0  0  0  0  0  0  0  0  0  0  0  0
   58.4455   22.9599   46.0616 H   0  0  0  0  0  0  0  0  0  0  0  0
   60.2476   24.6797   45.9909 H   0  0  0  0  0  0  0  0  0  0  0  0
   59.6666   27.0897   45.7689 H   0  0  0  0  0  0  0  0  0  0  0  0
   58.8836   31.6468   44.7105 H   0  0  0  0  0  0  0  0  0  0  0  0
   56.9406   32.5283   43.6982 H   0  0  0  0  0  0  0  0  0  0  0  0
   56.0055   32.4277   45.2649 H   0  0  0  0  0  0  0  0  0  0  0  0
   57.1611   34.7209   44.1958 H   0  0  0  0  0  0  0  0  0  0  0  0
   56.6358   34.4439   45.9209 H   0  0  0  0  0  0  0  0  0  0  0  0
   59.4440   34.0982   44.7812 H   0  0  0  0  0  0  0  0  0  0  0  0
   58.8713   35.3716   45.9212 H   0  0  0  0  0  0  0  0  0  0  0  0
   62.7722   34.9537   47.6794 H   0  0  0  0  0  0  0  0  0  0  0  0
   64.6672   33.0310   47.5131 H   0  0  0  0  0  0  0  0  0  0  0  0
   63.3704   30.6950   47.4058 H   0  0  0  0  0  0  0  0  0  0  0  0
   59.2378   31.3789   47.1182 H   0  0  0  0  0  0  0  0  0  0  0  0
   57.6002   32.0684   47.4445 H   0  0  0  0  0  0  0  0  0  0  0  0
   55.1540   28.1580   44.9120 H   0  0  0  0  0  0  0  0  0  0  0  0
  1  2  1  0
  2  3  1  0
  3  4  2  0
  4  5  1  0
  5  6  2  0
  6  7  1  0
  7  8  2  0
  8  9  1  0
  9 10  1  0
 10 11  2  0
 11 12  1  0
 12 13  1  0
 13 14  1  0
 14 15  1  0
 15 16  1  0
 16 17  1  0
 17 18  2  0
 17 19  1  0
 19 20  2  0
 20 21  1  0
 21 22  2  0
 22 23  1  0
 16 24  1  0
 11 25  1  0
 25 26  1  0
  8  3  1  0
 26  9  2  0
 24 12  1  0
 23 19  1  0
  1 27  1  0
  1 28  1  0
  1 29  1  0
  4 30  1  0
  5 31  1  0
  6 32  1  0
  7 33  1  0
 12 34  1  6
 13 35  1  0
 13 36  1  0
 14 37  1  0
 14 38  1  0
 15 39  1  0
 15 40  1  0
 20 41  1  0
 21 42  1  0
 22 43  1  0
 24 44  1  0
 24 45  1  0
 26 46  1  0
M  CHG  1  26   1
M  END
>  <UniqueID>  (47) 
44

>  <SMILES>  (47) 
COc1ccccc1-c1nc([C@H]2CCCN(C(=O)c3ccco3)C2)o[nH+]1

>  <Energy>  (47) 
116.75495401442794

>  <Genealogy>  (47) 
COc1ccccc1-c1nc(C2CCCN(C(=O)c3ccco3)C2)o[nH+]1 (protonated)
COc1ccccc1-c1nc([C@H]2CCCN(C(=O)c3ccco3)C2)o[nH+]1 (chirality)
COc1ccccc1-c1nc([C@H]2CCCN(C(=O)c3ccco3)C2)o[nH+]1 (3D coordinates assigned)
COc1ccccc1-c1nc([C@H]2CCCN(C(=O)c3ccco3)C2)o[nH+]1 (nonaromatic ring conformer: 116.75495401442794 kcal/mol)

>  <smiles>  (47) 
COc1ccccc1-c1noc(C2CCCN(C(=O)c3ccco3)C2)n1

>  <score_type>  (47) 
oracle

>  <origin>  (47) 
adg

>  <m_score__min__energy>  (47) 
-7.6100000000000003

>  <m_primary>  (47) 
energy

$$$$
