0:0
     RDKit          3D

 63 63  0  0  0  0  0  0  0  0999 V2000
   65.3557   34.0603   50.5755 H   0  0  0  0  0  0  0  0  0  0  0  0
   65.6070   33.0920   50.1180 C   0  0  0  0  0  0  0  0  0  0  0  0
   66.8210   32.6640   50.2050 N   0  0  0  0  0  0  0  0  0  0  0  0
   67.9610   33.4990   50.5040 C   0  0  0  0  0  0  0  0  0  0  0  0
   68.0772   33.5841   51.5945 H   0  0  0  0  0  0  0  0  0  0  0  0
   68.8677   33.0498   50.0726 H   0  0  0  0  0  0  0  0  0  0  0  0
   67.8063   34.4990   50.0726 H   0  0  0  0  0  0  0  0  0  0  0  0
   64.5140   32.3180   49.4130 C   0  0  0  0  0  0  0  0  0  0  0  0
   63.6221   32.2930   50.0564 H   0  0  0  0  0  0  0  0  0  0  0  0
   64.8841   31.3011   49.2159 H   0  0  0  0  0  0  0  0  0  0  0  0
   64.1590   32.9340   48.1310 N   0  0  0  0  0  0  0  0  0  0  0  0
   64.8910   33.0400   47.3920 H   0  0  0  0  0  0  0  0  0  0  0  0
   62.8210   33.3590   47.8130 C   0  0  0  0  0  0  0  0  0  0  0  0
   61.8760   33.6350   48.8170 C   0  0  0  0  0  0  0  0  0  0  0  0
   62.1638   33.5477   49.8751 H   0  0  0  0  0  0  0  0  0  0  0  0
   60.5750   34.0190   48.4830 C   0  0  0  0  0  0  0  0  0  0  0  0
   59.8485   34.2410   49.2786 H   0  0  0  0  0  0  0  0  0  0  0  0
   60.1900   34.1230   47.1360 C   0  0  0  0  0  0  0  0  0  0  0  0
   58.7640   34.4640   46.7760 C   0  0  0  0  0  0  0  0  0  0  0  0
   58.7618   35.0056   45.8186 H   0  0  0  0  0  0  0  0  0  0  0  0
   58.3519   35.0790   47.5896 H   0  0  0  0  0  0  0  0  0  0  0  0
   57.8740   33.2120   46.6380 C   0  0  0  0  0  0  0  0  0  0  0  0
   56.8546   33.4745   46.9572 H   0  0  0  0  0  0  0  0  0  0  0  0
   58.3238   32.4288   47.2660 H   0  0  0  0  0  0  0  0  0  0  0  0
   57.8050   32.6540   45.2090 C   0  0  0  0  0  0  0  0  0  0  0  0
   58.7709   32.8183   44.7089 H   0  0  0  0  0  0  0  0  0  0  0  0
   57.0030   33.1718   44.6625 H   0  0  0  0  0  0  0  0  0  0  0  0
   57.5110   31.2110   45.2340 N   0  0  0  0  0  0  0  0  0  0  0  0
   58.3280   30.7040   44.8170 H   0  0  0  0  0  0  0  0  0  0  0  0
   56.3260   30.8490   44.4440 C   0  0  0  0  0  0  0  0  0  0  0  0
   55.7625   31.7629   44.2049 H   0  0  0  0  0  0  0  0  0  0  0  0
   55.7123   30.1561   45.0384 H   0  0  0  0  0  0  0  0  0  0  0  0
   56.7180   30.1460   43.1340 C   0  0  0  0  0  0  0  0  0  0  0  0
   57.4267   30.7848   42.5866 H   0  0  0  0  0  0  0  0  0  0  0  0
   55.8004   29.9785   42.5509 H   0  0  0  0  0  0  0  0  0  0  0  0
   57.3750   28.7800   43.3870 C   0  0  0  0  0  0  0  0  0  0  0  0
   58.0272   28.5301   42.5372 H   0  0  0  0  0  0  0  0  0  0  0  0
   56.5849   28.0227   43.4974 H   0  0  0  0  0  0  0  0  0  0  0  0
   58.1760   28.8090   44.6170 N   0  0  0  0  0  0  0  0  0  0  0  0
   57.5510   29.0520   45.4220 H   0  0  0  0  0  0  0  0  0  0  0  0
   58.9000   27.5450   44.8690 C   0  0  0  0  0  0  0  0  0  0  0  0
   59.5212   27.3161   43.9906 H   0  0  0  0  0  0  0  0  0  0  0  0
   58.1459   26.7658   45.0539 H   0  0  0  0  0  0  0  0  0  0  0  0
   59.8090   27.6080   46.1090 C   0  0  0  0  0  0  0  0  0  0  0  0
   60.8182   27.9103   45.7926 H   0  0  0  0  0  0  0  0  0  0  0  0
   59.8147   26.6105   46.5726 H   0  0  0  0  0  0  0  0  0  0  0  0
   59.3000   28.6080   47.1550 C   0  0  0  0  0  0  0  0  0  0  0  0
   59.9142   28.5237   48.0637 H   0  0  0  0  0  0  0  0  0  0  0  0
   58.2485   28.3775   47.3815 H   0  0  0  0  0  0  0  0  0  0  0  0
   59.3820   29.9850   46.6430 N   0  0  0  0  0  0  0  0  0  0  0  0
   58.5840   30.5390   47.0320 H   0  0  0  0  0  0  0  0  0  0  0  0
   59.3200   29.9750   45.5970 H   0  0  0  0  0  0  0  0  0  0  0  0
   60.6510   30.6120   47.0450 C   0  0  0  0  0  0  0  0  0  0  0  0
   60.5716   31.7013   46.9140 H   0  0  0  0  0  0  0  0  0  0  0  0
   61.4574   30.2065   46.4162 H   0  0  0  0  0  0  0  0  0  0  0  0
   60.9730   30.3060   48.5090 C   0  0  0  0  0  0  0  0  0  0  0  0
   60.3308   30.9163   49.1610 H   0  0  0  0  0  0  0  0  0  0  0  0
   60.7912   29.2398   48.7093 H   0  0  0  0  0  0  0  0  0  0  0  0
   62.0286   30.5419   48.7093 H   0  0  0  0  0  0  0  0  0  0  0  0
   61.1430   33.8880   46.1330 C   0  0  0  0  0  0  0  0  0  0  0  0
   60.8641   34.0063   45.0755 H   0  0  0  0  0  0  0  0  0  0  0  0
   62.4430   33.5050   46.4690 C   0  0  0  0  0  0  0  0  0  0  0  0
   63.1781   33.3158   45.6728 H   0  0  0  0  0  0  0  0  0  0  0  0
  1  2  1  0
  2  3  2  0
  3  4  1  0
  4  5  1  0
  4  6  1  0
  4  7  1  0
  2  8  1  0
  8  9  1  0
  8 10  1  0
  8 11  1  0
 11 12  1  0
 11 13  1  0
 13 14  2  0
 14 15  1  0
 14 16  1  0
 16 17  1  0
 16 18  2  0
 18 19  1  0
 19 20  1  0
 19 21  1  0
 19 22  1  0
 22 23  1  0
 22 24  1  0
 22 25  1  0
 25 26  1  0
 25 27  1  0
 25 28  1  0
 28 29  1  0
 28 30  1  0
 30 31  1  0
 30 32  1  0
 30 33  1  0
 33 34  1  0
 33 35  1  0
 33 36  1  0
 36 37  1  0
 36 38  1  0
 36 39  1  0
 39 40  1  0
 39 41  1  0
 41 42  1  0
 41 43  1  0
 41 44  1  0
 44 45  1  0
 44 46  1  0
 44 47  1  0
 47 48  1  0
 47 49  1  0
 47 50  1  0
 50 51  1  0
 50 52  1  0
 50 53  1  0
 53 54  1  0
 53 55  1  0
 53 56  1  0
 56 57  1  0
 56 58  1  0
 56 59  1  0
 18 60  1  0
 60 61  1  0
 60 62  2  0
 62 63  1  0
 62 13  1  0
M  CHG  1  50   1
M  END
>  <UniqueID>  (1) 
1

>  <SMILES>  (1) 
CC[NH2+]CCCNCCCNCCCc1ccc(NC/C=N\C)cc1

>  <Energy>  (1) 
43.01864401305589

>  <Genealogy>  (1) 
CC[NH2+]CCCNCCCNCCCc1ccc(NCC=NC)cc1 (protonated)
CC[NH2+]CCCNCCCNCCCc1ccc(NC/C=N\C)cc1 (cis-trans isomerization)
CC[NH2+]CCCNCCCNCCCc1ccc(NC/C=N\C)cc1 (3D coordinates assigned)
CC[NH2+]CCCNCCCNCCCc1ccc(NC/C=N\C)cc1 (optimized conformer: 43.01864401305589 kcal/mol)

>  <smiles>  (1) 
CCNCCCNCCCNCCCc1ccc(NCC=NC)cc1

>  <score_type>  (1) 
oracle

>  <origin>  (1) 
adg

>  <m_score__min__energy>  (1) 
-5.0199999999999996

>  <m_primary>  (1) 
energy

$$$$
1:0
     RDKit          3D

 29 30  0  0  0  0  0  0  0  0999 V2000
   57.1220   33.1450   45.5470 C   0  0  0  0  0  0  0  0  0  0  0  0
   58.0920   32.2790   44.7360 C   0  0  0  0  0  0  0  0  0  0  0  0
   57.9040   32.5010   43.2310 C   0  0  0  0  0  0  0  0  0  0  0  0
   57.9470   30.8120   45.0950 C   0  0  0  0  0  0  0  0  0  0  0  0
   58.6500   30.2570   46.1810 C   0  0  0  0  0  0  0  0  0  0  0  0
   58.5070   28.9040   46.5020 C   0  0  0  0  0  0  0  0  0  0  0  0
   57.6580   28.0850   45.7440 C   0  0  0  0  0  0  0  0  0  0  0  0
   57.5150   26.6920   46.0710 N   0  0  0  0  0  0  0  0  0  0  0  0
   56.3120   26.0480   46.1680 C   0  0  0  0  0  0  0  0  0  0  0  0
   55.0840   26.6870   46.0020 O   0  0  0  0  0  0  0  0  0  0  0  0
   56.3900   24.6920   46.4650 C   0  0  0  0  0  0  0  0  0  0  0  0
   58.0170   24.2890   46.6190 S   0  0  0  0  0  0  0  0  0  0  0  0
   58.5540   25.8480   46.3040 C   0  0  0  0  0  0  0  0  0  0  0  0
   60.1400   26.2580   46.2150 S   0  0  0  0  0  0  0  0  0  0  0  0
   56.9570   28.6310   44.6620 C   0  0  0  0  0  0  0  0  0  0  0  0
   57.0980   29.9830   44.3400 C   0  0  0  0  0  0  0  0  0  0  0  0
   57.2993   32.9867   46.6210 H   0  0  0  0  0  0  0  0  0  0  0  0
   57.2834   34.2049   45.3011 H   0  0  0  0  0  0  0  0  0  0  0  0
   56.0871   32.8650   45.3011 H   0  0  0  0  0  0  0  0  0  0  0  0
   59.1153   32.5879   44.9957 H   0  0  0  0  0  0  0  0  0  0  0  0
   57.2010   33.3312   43.0678 H   0  0  0  0  0  0  0  0  0  0  0  0
   58.8734   32.7460   42.7726 H   0  0  0  0  0  0  0  0  0  0  0  0
   57.5027   31.5852   42.7726 H   0  0  0  0  0  0  0  0  0  0  0  0
   59.3170   30.8929   46.7816 H   0  0  0  0  0  0  0  0  0  0  0  0
   59.0622   28.4805   47.3519 H   0  0  0  0  0  0  0  0  0  0  0  0
   54.3970   26.7340   46.7440 H   0  0  0  0  0  0  0  0  0  0  0  0
   55.5391   24.0043   46.5791 H   0  0  0  0  0  0  0  0  0  0  0  0
   56.2919   27.9922   44.0624 H   0  0  0  0  0  0  0  0  0  0  0  0
   56.5407   30.4025   43.4894 H   0  0  0  0  0  0  0  0  0  0  0  0
  1  2  1  0
  2  3  1  0
  2  4  1  0
  4  5  2  0
  5  6  1  0
  6  7  2  0
  7  8  1  0
  8  9  1  0
  9 10  1  0
  9 11  2  0
 11 12  1  0
 12 13  1  0
 13 14  2  0
  7 15  1  0
 15 16  2  0
 16  4  1  0
 13  8  1  0
  1 17  1  0
  1 18  1  0
  1 19  1  0
  2 20  1  0
  3 21  1  0
  3 22  1  0
  3 23  1  0
  5 24  1  0
  6 25  1  0
 10 26  1  0
 11 27  1  0
 15 28  1  0
 16 29  1  0
M  END
>  <UniqueID>  (2) 
2

>  <SMILES>  (2) 
CC(C)c1ccc(-n2c(O)csc2=S)cc1

>  <Energy>  (2) 
63.82029967393057

>  <Genealogy>  (2) 
CC(C)c1ccc(-n2c(O)csc2=S)cc1 (3D coordinates assigned)
CC(C)c1ccc(-n2c(O)csc2=S)cc1 (optimized conformer: 63.82029967393057 kcal/mol)

>  <smiles>  (2) 
CC(C)c1ccc(-n2c(O)csc2=S)cc1

>  <score_type>  (2) 
oracle

>  <origin>  (2) 
adg

>  <m_score__min__energy>  (2) 
-7.6699999999999999

>  <m_primary>  (2) 
energy

$$$$
2:0
     RDKit          3D

 53 56  0  0  0  0  0  0  0  0999 V2000
   56.6340   29.7110   42.9520 C   0  0  0  0  0  0  0  0  0  0  0  0
   57.1560   30.4500   44.1470 C   0  0  0  0  0  0  0  0  0  0  0  0
   57.6430   29.7470   45.2590 C   0  0  0  0  0  0  0  0  0  0  0  0
   58.1630   30.4360   46.3580 C   0  0  0  0  0  0  0  0  0  0  0  0
   58.2070   31.8400   46.3610 C   0  0  0  0  0  0  0  0  0  0  0  0
   58.7720   32.5730   47.5140 C   0  0  0  0  0  0  0  0  0  0  0  0
   58.1670   32.5410   48.6210 O   0  0  0  0  0  0  0  0  0  0  0  0
   60.0030   33.3100   47.4020 N   0  0  0  0  0  0  0  0  0  0  0  0
   60.1660   34.5830   48.1180 C   0  0  0  0  0  0  0  0  0  0  0  0
   61.3590   34.4950   49.0770 C   0  0  0  0  0  0  0  0  0  0  0  0
   62.5110   33.8300   48.4450 N   0  0  0  0  0  0  0  0  0  0  0  0
   63.6480   33.4600   49.2470 C   0  0  0  0  0  0  0  0  0  0  0  0
   63.5670   33.4620   50.6430 C   0  0  0  0  0  0  0  0  0  0  0  0
   64.6780   33.0950   51.3940 C   0  0  0  0  0  0  0  0  0  0  0  0
   65.8610   32.7180   50.7400 C   0  0  0  0  0  0  0  0  0  0  0  0
   67.0440   32.3260   51.4710 N   0  0  0  0  0  0  0  0  0  0  0  0
   68.2260   33.1990   51.5220 C   0  0  0  0  0  0  0  0  0  0  0  0
   69.0480   32.9120   52.7820 C   0  0  0  0  0  0  0  0  0  0  0  0
   69.3160   31.5300   52.9060 O   0  0  0  0  0  0  0  0  0  0  0  0
   68.1060   30.8310   53.1170 C   0  0  0  0  0  0  0  0  0  0  0  0
   67.2030   30.9250   51.8830 C   0  0  0  0  0  0  0  0  0  0  0  0
   65.8820   32.7320   49.3800 N   0  0  0  0  0  0  0  0  0  0  0  0
   64.8190   33.0880   48.6550 N   0  0  0  0  0  0  0  0  0  0  0  0
   62.4520   33.4720   47.0220 C   0  0  0  0  0  0  0  0  0  0  0  0
   61.1650   32.6900   46.7390 C   0  0  0  0  0  0  0  0  0  0  0  0
   57.7520   32.5400   45.2320 C   0  0  0  0  0  0  0  0  0  0  0  0
   57.2290   31.8500   44.1330 C   0  0  0  0  0  0  0  0  0  0  0  0
   56.0293   28.8549   43.2857 H   0  0  0  0  0  0  0  0  0  0  0  0
   56.0112   30.3861   42.3467 H   0  0  0  0  0  0  0  0  0  0  0  0
   57.4784   29.3497   42.3467 H   0  0  0  0  0  0  0  0  0  0  0  0
   57.6154   28.6474   45.2659 H   0  0  0  0  0  0  0  0  0  0  0  0
   58.5402   29.8754   47.2261 H   0  0  0  0  0  0  0  0  0  0  0  0
   60.3413   35.3900   47.3914 H   0  0  0  0  0  0  0  0  0  0  0  0
   59.2532   34.7928   48.6948 H   0  0  0  0  0  0  0  0  0  0  0  0
   61.6531   35.5119   49.3761 H   0  0  0  0  0  0  0  0  0  0  0  0
   61.0554   33.9020   49.9523 H   0  0  0  0  0  0  0  0  0  0  0  0
   62.6312   33.7518   51.1433 H   0  0  0  0  0  0  0  0  0  0  0  0
   64.6301   33.1001   52.4929 H   0  0  0  0  0  0  0  0  0  0  0  0
   68.8490   33.0177   50.6338 H   0  0  0  0  0  0  0  0  0  0  0  0
   67.8943   34.2476   51.5436 H   0  0  0  0  0  0  0  0  0  0  0  0
   70.0002   33.4595   52.7231 H   0  0  0  0  0  0  0  0  0  0  0  0
   68.4707   33.2379   53.6598 H   0  0  0  0  0  0  0  0  0  0  0  0
   68.3308   29.7735   53.3201 H   0  0  0  0  0  0  0  0  0  0  0  0
   67.5824   31.2816   53.9731 H   0  0  0  0  0  0  0  0  0  0  0  0
   67.6549   30.3538   51.0587 H   0  0  0  0  0  0  0  0  0  0  0  0
   66.2144   30.5116   52.1316 H   0  0  0  0  0  0  0  0  0  0  0  0
   64.8920   33.0530   47.6150 H   0  0  0  0  0  0  0  0  0  0  0  0
   62.4643   34.3884   46.4136 H   0  0  0  0  0  0  0  0  0  0  0  0
   63.3211   32.8477   46.7672 H   0  0  0  0  0  0  0  0  0  0  0  0
   60.9894   32.6703   45.6533 H   0  0  0  0  0  0  0  0  0  0  0  0
   61.2854   31.6701   47.1330 H   0  0  0  0  0  0  0  0  0  0  0  0
   57.8071   33.6384   45.2115 H   0  0  0  0  0  0  0  0  0  0  0  0
   56.8736   32.4083   43.2543 H   0  0  0  0  0  0  0  0  0  0  0  0
  1  2  1  0
  2  3  2  0
  3  4  1  0
  4  5  2  0
  5  6  1  0
  6  7  2  0
  6  8  1  0
  8  9  1  0
  9 10  1  0
 10 11  1  0
 11 12  1  0
 12 13  2  0
 13 14  1  0
 14 15  2  0
 15 16  1  0
 16 17  1  0
 17 18  1  0
 18 19  1  0
 19 20  1  0
 20 21  1  0
 15 22  1  0
 22 23  2  0
 11 24  1  0
 24 25  1  0
  5 26  1  0
 26 27  2  0
 27  2  1  0
 25  8  1  0
 23 12  1  0
 21 16  1  0
  1 28  1  0
  1 29  1  0
  1 30  1  0
  3 31  1  0
  4 32  1  0
  9 33  1  0
  9 34  1  0
 10 35  1  0
 10 36  1  0
 13 37  1  0
 14 38  1  0
 17 39  1  0
 17 40  1  0
 18 41  1  0
 18 42  1  0
 20 43  1  0
 20 44  1  0
 21 45  1  0
 21 46  1  0
 23 47  1  0
 24 48  1  0
 24 49  1  0
 25 50  1  0
 25 51  1  0
 26 52  1  0
 27 53  1  0
M  CHG  1  23   1
M  END
>  <UniqueID>  (3) 
3

>  <SMILES>  (3) 
Cc1ccc(C(=O)N2CCN(c3ccc(N4CCOCC4)n[nH+]3)CC2)cc1

>  <Energy>  (3) 
68.90933625357955

>  <Genealogy>  (3) 
Cc1ccc(C(=O)N2CCN(c3ccc(N4CCOCC4)n[nH+]3)CC2)cc1 (protonated)
Cc1ccc(C(=O)N2CCN(c3ccc(N4CCOCC4)n[nH+]3)CC2)cc1 (3D coordinates assigned)
Cc1ccc(C(=O)N2CCN(c3ccc(N4CCOCC4)n[nH+]3)CC2)cc1 (nonaromatic ring conformer: 68.90933625357955 kcal/mol)

>  <smiles>  (3) 
Cc1ccc(C(=O)N2CCN(c3ccc(N4CCOCC4)nn3)CC2)cc1

>  <score_type>  (3) 
oracle

>  <origin>  (3) 
adg

>  <m_score__min__energy>  (3) 
-6.2999999999999998

>  <m_primary>  (3) 
energy

$$$$
3:0
     RDKit          3D

 31 33  0  0  0  0  0  0  0  0999 V2000
   55.5400   29.3430   44.4880 C   0  0  0  0  0  0  0  0  0  0  0  0
   55.8900   30.7540   44.5150 N   0  0  0  0  0  0  0  0  0  0  0  0
   57.1600   31.2470   44.0830 C   0  0  0  0  0  0  0  0  0  0  0  0
   57.3380   31.5500   42.8720 O   0  0  0  0  0  0  0  0  0  0  0  0
   58.2540   31.4310   45.0570 C   0  0  0  0  0  0  0  0  0  0  0  0
   58.8950   30.4590   45.8410 C   0  0  0  0  0  0  0  0  0  0  0  0
   58.7290   28.9940   45.7710 C   0  0  0  0  0  0  0  0  0  0  0  0
   58.5180   28.2320   46.9330 C   0  0  0  0  0  0  0  0  0  0  0  0
   58.3340   26.8480   46.8460 C   0  0  0  0  0  0  0  0  0  0  0  0
   58.3410   26.2180   45.5980 C   0  0  0  0  0  0  0  0  0  0  0  0
   58.1610   24.8780   45.5140 F   0  0  0  0  0  0  0  0  0  0  0  0
   58.5240   26.9730   44.4360 C   0  0  0  0  0  0  0  0  0  0  0  0
   58.7080   28.3570   44.5200 C   0  0  0  0  0  0  0  0  0  0  0  0
   59.7320   31.0360   46.6860 O   0  0  0  0  0  0  0  0  0  0  0  0
   59.6820   32.3280   46.4830 C   0  0  0  0  0  0  0  0  0  0  0  0
   60.3970   33.3160   47.1570 C   0  0  0  0  0  0  0  0  0  0  0  0
   60.1730   34.6550   46.7930 C   0  0  0  0  0  0  0  0  0  0  0  0
   59.2440   34.9730   45.7780 C   0  0  0  0  0  0  0  0  0  0  0  0
   58.5360   33.9550   45.1150 C   0  0  0  0  0  0  0  0  0  0  0  0
   58.7910   32.6320   45.4870 C   0  0  0  0  0  0  0  0  0  0  0  0
   55.4471   28.9685   45.5181 H   0  0  0  0  0  0  0  0  0  0  0  0
   54.5823   29.2128   43.9627 H   0  0  0  0  0  0  0  0  0  0  0  0
   56.3258   28.7803   43.9627 H   0  0  0  0  0  0  0  0  0  0  0  0
   58.4975   28.7263   47.9155 H   0  0  0  0  0  0  0  0  0  0  0  0
   58.1837   26.2550   47.7602 H   0  0  0  0  0  0  0  0  0  0  0  0
   58.5233   26.4778   43.4537 H   0  0  0  0  0  0  0  0  0  0  0  0
   58.8368   28.9490   43.6019 H   0  0  0  0  0  0  0  0  0  0  0  0
   61.1144   33.0561   47.9493 H   0  0  0  0  0  0  0  0  0  0  0  0
   60.7243   35.4596   47.3015 H   0  0  0  0  0  0  0  0  0  0  0  0
   59.0730   36.0246   45.5041 H   0  0  0  0  0  0  0  0  0  0  0  0
   57.8046   34.1923   44.3284 H   0  0  0  0  0  0  0  0  0  0  0  0
  1  2  1  0
  2  3  1  0
  3  4  2  0
  3  5  1  0
  5  6  2  0
  6  7  1  0
  7  8  2  0
  8  9  1  0
  9 10  2  0
 10 11  1  0
 10 12  1  0
 12 13  2  0
  6 14  1  0
 14 15  1  0
 15 16  2  0
 16 17  1  0
 17 18  2  0
 18 19  1  0
 19 20  2  0
 20  5  1  0
 13  7  1  0
 20 15  1  0
  1 21  1  0
  1 22  1  0
  1 23  1  0
  8 24  1  0
  9 25  1  0
 12 26  1  0
 13 27  1  0
 16 28  1  0
 17 29  1  0
 18 30  1  0
 19 31  1  0
M  CHG  1   2  -1
M  END
>  <UniqueID>  (4) 
4

>  <SMILES>  (4) 
C[N-]C(=O)c1c(-c2ccc(F)cc2)oc2ccccc12

>  <Energy>  (4) 
71.76952536988466

>  <Genealogy>  (4) 
C[N-]C(=O)c1c(-c2ccc(F)cc2)oc2ccccc12 (protonated)
C[N-]C(=O)c1c(-c2ccc(F)cc2)oc2ccccc12 (3D coordinates assigned)
C[N-]C(=O)c1c(-c2ccc(F)cc2)oc2ccccc12 (optimized conformer: 71.76952536988466 kcal/mol)

>  <smiles>  (4) 
CNC(=O)c1c(-c2ccc(F)cc2)oc2ccccc12

>  <score_type>  (4) 
oracle

>  <origin>  (4) 
adg

>  <m_score__min__energy>  (4) 
-8.4100000000000001

>  <m_primary>  (4) 
energy

$$$$
4:0
     RDKit          3D

 50 53  0  0  0  0  0  0  0  0999 V2000
   58.8120   23.2580   45.1500 C   0  0  0  0  0  0  0  0  0  0  0  0
   57.8350   24.3620   45.4630 C   0  0  0  0  0  0  0  0  0  0  0  0
   56.4560   24.1100   45.3460 C   0  0  0  0  0  0  0  0  0  0  0  0
   55.5230   25.1060   45.6380 C   0  0  0  0  0  0  0  0  0  0  0  0
   55.9530   26.3660   46.0520 C   0  0  0  0  0  0  0  0  0  0  0  0
   57.3170   26.6350   46.1760 C   0  0  0  0  0  0  0  0  0  0  0  0
   58.2730   25.6440   45.8850 C   0  0  0  0  0  0  0  0  0  0  0  0
   59.7410   25.9830   46.0080 C   0  0  0  0  0  0  0  0  0  0  0  0
   59.9150   27.2660   46.7210 N   0  0  0  0  0  0  0  0  0  0  0  0
   60.4190   27.0620   48.0980 C   0  0  0  0  0  0  0  0  0  0  0  0
   60.0060   28.2240   49.0320 C   0  0  0  0  0  0  0  0  0  0  0  0
   60.3860   29.6250   48.4980 C   0  0  0  0  0  0  0  0  0  0  0  0
   59.6680   30.0400   47.2590 N   0  0  0  0  0  0  0  0  0  0  0  0
   59.3740   31.4920   47.2760 C   0  0  0  0  0  0  0  0  0  0  0  0
   58.7440   31.9310   45.9780 C   0  0  0  0  0  0  0  0  0  0  0  0
   59.1330   33.1270   45.3380 C   0  0  0  0  0  0  0  0  0  0  0  0
   58.5410   33.5100   44.1160 C   0  0  0  0  0  0  0  0  0  0  0  0
   57.5610   32.6920   43.5350 C   0  0  0  0  0  0  0  0  0  0  0  0
   57.2220   31.5530   44.1850 N   0  0  0  0  0  0  0  0  0  0  0  0
   56.3420   30.5860   43.8840 C   0  0  0  0  0  0  0  0  0  0  0  0
   56.3530   29.6320   44.8430 N   0  0  0  0  0  0  0  0  0  0  0  0
   57.2450   29.9920   45.7620 N   0  0  0  0  0  0  0  0  0  0  0  0
   57.7620   31.1620   45.3450 C   0  0  0  0  0  0  0  0  0  0  0  0
   60.3370   29.6600   45.9880 C   0  0  0  0  0  0  0  0  0  0  0  0
   60.7720   28.1810   45.9350 C   0  0  0  0  0  0  0  0  0  0  0  0
   59.1924   22.8281   46.0883 H   0  0  0  0  0  0  0  0  0  0  0  0
   58.3057   22.4748   44.5666 H   0  0  0  0  0  0  0  0  0  0  0  0
   59.6509   23.6653   44.5666 H   0  0  0  0  0  0  0  0  0  0  0  0
   56.1095   23.1178   45.0211 H   0  0  0  0  0  0  0  0  0  0  0  0
   54.4474   24.8967   45.5414 H   0  0  0  0  0  0  0  0  0  0  0  0
   55.2159   27.1496   46.2813 H   0  0  0  0  0  0  0  0  0  0  0  0
   57.6480   27.6313   46.5044 H   0  0  0  0  0  0  0  0  0  0  0  0
   60.2517   25.1853   46.5673 H   0  0  0  0  0  0  0  0  0  0  0  0
   60.1723   26.0733   45.0001 H   0  0  0  0  0  0  0  0  0  0  0  0
   60.0070   26.1219   48.4936 H   0  0  0  0  0  0  0  0  0  0  0  0
   61.5177   27.0236   48.0607 H   0  0  0  0  0  0  0  0  0  0  0  0
   58.9148   28.1891   49.1660 H   0  0  0  0  0  0  0  0  0  0  0  0
   60.5531   28.0838   49.9759 H   0  0  0  0  0  0  0  0  0  0  0  0
   60.1650   30.3619   49.2842 H   0  0  0  0  0  0  0  0  0  0  0  0
   61.4529   29.5761   48.2348 H   0  0  0  0  0  0  0  0  0  0  0  0
   58.6823   31.7093   48.1032 H   0  0  0  0  0  0  0  0  0  0  0  0
   60.3187   32.0394   47.4098 H   0  0  0  0  0  0  0  0  0  0  0  0
   59.9034   33.7653   45.7952 H   0  0  0  0  0  0  0  0  0  0  0  0
   58.8461   34.4443   43.6220 H   0  0  0  0  0  0  0  0  0  0  0  0
   57.0834   32.9664   42.5828 H   0  0  0  0  0  0  0  0  0  0  0  0
   55.7043   30.5711   42.9878 H   0  0  0  0  0  0  0  0  0  0  0  0
   59.6389   29.8467   45.1587 H   0  0  0  0  0  0  0  0  0  0  0  0
   61.2511   30.2671   45.9115 H   0  0  0  0  0  0  0  0  0  0  0  0
   60.7533   27.8538   44.8850 H   0  0  0  0  0  0  0  0  0  0  0  0
   61.7767   28.1319   46.3801 H   0  0  0  0  0  0  0  0  0  0  0  0
  1  2  1  0
  2  3  2  0
  3  4  1  0
  4  5  2  0
  5  6  1  0
  6  7  2  0
  7  8  1  0
  8  9  1  0
  9 10  1  0
 10 11  1  0
 11 12  1  0
 12 13  1  0
 13 14  1  0
 14 15  1  0
 15 16  2  0
 16 17  1  0
 17 18  2  0
 18 19  1  0
 19 20  1  0
 20 21  2  0
 21 22  1  0
 22 23  2  0
 13 24  1  0
 24 25  1  0
  7  2  1  0
 25  9  1  0
 23 15  1  0
 23 19  1  0
  1 26  1  0
  1 27  1  0
  1 28  1  0
  3 29  1  0
  4 30  1  0
  5 31  1  0
  6 32  1  0
  8 33  1  0
  8 34  1  0
 10 35  1  0
 10 36  1  0
 11 37  1  0
 11 38  1  0
 12 39  1  0
 12 40  1  0
 14 41  1  0
 14 42  1  0
 16 43  1  0
 17 44  1  0
 18 45  1  0
 20 46  1  0
 24 47  1  0
 24 48  1  0
 25 49  1  0
 25 50  1  0
M  END
>  <UniqueID>  (5) 
5

>  <SMILES>  (5) 
Cc1ccccc1CN1CCCN(Cc2cccn3cnnc23)CC1

>  <Energy>  (5) 
111.54252927562133

>  <Genealogy>  (5) 
Cc1ccccc1CN1CCCN(Cc2cccn3cnnc23)CC1 (3D coordinates assigned)
Cc1ccccc1CN1CCCN(Cc2cccn3cnnc23)CC1 (nonaromatic ring conformer: 111.54252927562133 kcal/mol)

>  <smiles>  (5) 
Cc1ccccc1CN1CCCN(Cc2cccn3cnnc23)CC1

>  <score_type>  (5) 
oracle

>  <origin>  (5) 
adg

>  <m_score__min__energy>  (5) 
-6.7300000000000004

>  <m_primary>  (5) 
energy

$$$$
5:0
     RDKit          3D

 48 50  0  0  0  0  0  0  0  0999 V2000
   60.5890   30.1960   47.6070 C   0  0  0  0  0  0  0  0  0  0  0  0
   59.3480   30.1690   48.5000 C   0  0  0  0  0  0  0  0  0  0  0  0
   59.6120   30.7390   49.9020 C   0  0  0  0  0  0  0  0  0  0  0  0
   58.7690   31.9900   50.1960 C   0  0  0  0  0  0  0  0  0  0  0  0
   59.6340   33.2540   50.3040 C   0  0  0  0  0  0  0  0  0  0  0  0
   60.1290   33.6660   48.9890 N   0  0  0  0  0  0  0  0  0  0  0  0
   59.3900   34.2280   48.0010 C   0  0  0  0  0  0  0  0  0  0  0  0
   60.1680   34.3990   46.8650 C   0  0  0  0  0  0  0  0  0  0  0  0
   59.6120   35.0070   45.2710 S   0  0  0  0  0  0  0  0  0  0  0  0
   57.9210   34.3220   45.4170 C   0  0  0  0  0  0  0  0  0  0  0  0
   57.8790   32.8790   44.9890 C   0  0  0  0  0  0  0  0  0  0  0  0
   57.8860   31.8570   45.9500 C   0  0  0  0  0  0  0  0  0  0  0  0
   57.7670   30.5190   45.5580 C   0  0  0  0  0  0  0  0  0  0  0  0
   57.6240   30.1900   44.2020 C   0  0  0  0  0  0  0  0  0  0  0  0
   57.5160   28.7540   43.7810 C   0  0  0  0  0  0  0  0  0  0  0  0
   57.6450   31.2090   43.2390 C   0  0  0  0  0  0  0  0  0  0  0  0
   57.7700   32.5440   43.6300 C   0  0  0  0  0  0  0  0  0  0  0  0
   61.4260   33.9310   47.1840 C   0  0  0  0  0  0  0  0  0  0  0  0
   62.5870   33.8300   46.4180 C   0  0  0  0  0  0  0  0  0  0  0  0
   63.7160   33.2430   47.0130 C   0  0  0  0  0  0  0  0  0  0  0  0
   63.6620   32.7770   48.3450 C   0  0  0  0  0  0  0  0  0  0  0  0
   62.4780   32.8960   49.0950 C   0  0  0  0  0  0  0  0  0  0  0  0
   61.3670   33.4830   48.4800 C   0  0  0  0  0  0  0  0  0  0  0  0
   61.4921   30.2156   48.2347 H   0  0  0  0  0  0  0  0  0  0  0  0
   60.6034   29.2980   46.9719 H   0  0  0  0  0  0  0  0  0  0  0  0
   60.5643   31.0938   46.9719 H   0  0  0  0  0  0  0  0  0  0  0  0
   58.5572   30.7652   48.0212 H   0  0  0  0  0  0  0  0  0  0  0  0
   59.0491   29.1173   48.6205 H   0  0  0  0  0  0  0  0  0  0  0  0
   59.3706   29.9674   50.6479 H   0  0  0  0  0  0  0  0  0  0  0  0
   60.6716   31.0304   49.9507 H   0  0  0  0  0  0  0  0  0  0  0  0
   58.0406   32.1265   49.3831 H   0  0  0  0  0  0  0  0  0  0  0  0
   58.2640   31.8403   51.1617 H   0  0  0  0  0  0  0  0  0  0  0  0
   59.0299   34.0676   50.7319 H   0  0  0  0  0  0  0  0  0  0  0  0
   60.4969   33.0336   50.9496 H   0  0  0  0  0  0  0  0  0  0  0  0
   58.3296   34.5073   48.0873 H   0  0  0  0  0  0  0  0  0  0  0  0
   57.5935   34.3952   46.4646 H   0  0  0  0  0  0  0  0  0  0  0  0
   57.2535   34.8995   44.7606 H   0  0  0  0  0  0  0  0  0  0  0  0
   57.9855   32.1085   47.0162 H   0  0  0  0  0  0  0  0  0  0  0  0
   57.7857   29.7222   46.3161 H   0  0  0  0  0  0  0  0  0  0  0  0
   57.4678   28.1129   44.6735 H   0  0  0  0  0  0  0  0  0  0  0  0
   56.6049   28.6155   43.1804 H   0  0  0  0  0  0  0  0  0  0  0  0
   58.3961   28.4808   43.1804 H   0  0  0  0  0  0  0  0  0  0  0  0
   57.5627   30.9560   42.1716 H   0  0  0  0  0  0  0  0  0  0  0  0
   57.7831   33.3377   42.8685 H   0  0  0  0  0  0  0  0  0  0  0  0
   62.6177   34.1980   45.3818 H   0  0  0  0  0  0  0  0  0  0  0  0
   64.6484   33.1457   46.4375 H   0  0  0  0  0  0  0  0  0  0  0  0
   64.5523   32.3176   48.7993 H   0  0  0  0  0  0  0  0  0  0  0  0
   62.4272   32.5382   50.1340 H   0  0  0  0  0  0  0  0  0  0  0  0
  1  2  1  0
  2  3  1  0
  3  4  1  0
  4  5  1  0
  5  6  1  0
  6  7  1  0
  7  8  2  0
  8  9  1  0
  9 10  1  0
 10 11  1  0
 11 12  2  0
 12 13  1  0
 13 14  2  0
 14 15  1  0
 14 16  1  0
 16 17  2  0
  8 18  1  0
 18 19  2  0
 19 20  1  0
 20 21  2  0
 21 22  1  0
 22 23  2  0
 23  6  1  0
 17 11  1  0
 23 18  1  0
  1 24  1  0
  1 25  1  0
  1 26  1  0
  2 27  1  0
  2 28  1  0
  3 29  1  0
  3 30  1  0
  4 31  1  0
  4 32  1  0
  5 33  1  0
  5 34  1  0
  7 35  1  0
 10 36  1  0
 10 37  1  0
 12 38  1  0
 13 39  1  0
 15 40  1  0
 15 41  1  0
 15 42  1  0
 16 43  1  0
 17 44  1  0
 19 45  1  0
 20 46  1  0
 21 47  1  0
 22 48  1  0
M  END
>  <UniqueID>  (6) 
6

>  <SMILES>  (6) 
CCCCCn1cc(SCc2ccc(C)cc2)c2ccccc21

>  <Energy>  (6) 
65.39634181822515

>  <Genealogy>  (6) 
CCCCCn1cc(SCc2ccc(C)cc2)c2ccccc21 (3D coordinates assigned)
CCCCCn1cc(SCc2ccc(C)cc2)c2ccccc21 (optimized conformer: 65.39634181822515 kcal/mol)

>  <smiles>  (6) 
CCCCCn1cc(SCc2ccc(C)cc2)c2ccccc21

>  <score_type>  (6) 
oracle

>  <origin>  (6) 
adg

>  <m_score__min__energy>  (6) 
-7.46

>  <m_primary>  (6) 
energy

$$$$
6:0
     RDKit          3D

 40 42  0  0  0  0  0  0  0  0999 V2000
   59.0970   28.8010   47.4260 O   0  0  0  0  0  0  0  0  0  0  0  0
   59.4300   29.8280   46.3790 S   0  0  0  0  0  0  0  0  0  0  0  0
   60.7140   29.4240   45.7110 O   0  0  0  0  0  0  0  0  0  0  0  0
   58.1540   29.9010   45.1690 C   0  0  0  0  0  0  0  0  0  0  0  0
   58.3400   30.6570   44.0010 C   0  0  0  0  0  0  0  0  0  0  0  0
   57.3150   30.7520   43.0550 C   0  0  0  0  0  0  0  0  0  0  0  0
   56.1000   30.0930   43.2700 C   0  0  0  0  0  0  0  0  0  0  0  0
   55.9100   29.3390   44.4310 C   0  0  0  0  0  0  0  0  0  0  0  0
   56.9330   29.2430   45.3800 C   0  0  0  0  0  0  0  0  0  0  0  0
   59.6050   31.3820   47.1390 N   0  0  0  0  0  0  0  0  0  0  0  0
   60.2480   31.4760   48.4540 C   0  0  0  0  0  0  0  0  0  0  0  0
   61.5790   32.1680   48.3340 C   0  0  0  0  0  0  0  0  0  0  0  0
   61.8150   33.3860   48.9840 C   0  0  0  0  0  0  0  0  0  0  0  0
   63.0350   34.0420   48.8190 C   0  0  0  0  0  0  0  0  0  0  0  0
   64.0120   33.4740   47.9990 C   0  0  0  0  0  0  0  0  0  0  0  0
   63.7720   32.2920   47.3690 N   0  0  0  0  0  0  0  0  0  0  0  0
   62.5880   31.6360   47.5150 C   0  0  0  0  0  0  0  0  0  0  0  0
   59.1590   32.5660   46.4600 C   0  0  0  0  0  0  0  0  0  0  0  0
   57.7870   32.8320   46.3340 C   0  0  0  0  0  0  0  0  0  0  0  0
   57.3520   33.9960   45.6920 C   0  0  0  0  0  0  0  0  0  0  0  0
   58.2820   34.9010   45.1760 C   0  0  0  0  0  0  0  0  0  0  0  0
   59.6510   34.6440   45.2990 C   0  0  0  0  0  0  0  0  0  0  0  0
   60.0890   33.4810   45.9400 C   0  0  0  0  0  0  0  0  0  0  0  0
   59.2946   31.1760   43.8296 H   0  0  0  0  0  0  0  0  0  0  0  0
   57.4641   31.3454   42.1409 H   0  0  0  0  0  0  0  0  0  0  0  0
   55.2941   30.1683   42.5251 H   0  0  0  0  0  0  0  0  0  0  0  0
   54.9546   28.8203   44.5988 H   0  0  0  0  0  0  0  0  0  0  0  0
   56.7799   28.6502   46.2939 H   0  0  0  0  0  0  0  0  0  0  0  0
   59.6009   32.0487   49.1347 H   0  0  0  0  0  0  0  0  0  0  0  0
   60.4054   30.4618   48.8496 H   0  0  0  0  0  0  0  0  0  0  0  0
   61.0372   33.8259   49.6255 H   0  0  0  0  0  0  0  0  0  0  0  0
   63.2255   34.9974   49.3299 H   0  0  0  0  0  0  0  0  0  0  0  0
   64.9775   33.9830   47.8620 H   0  0  0  0  0  0  0  0  0  0  0  0
   64.5110   31.8810   46.7560 H   0  0  0  0  0  0  0  0  0  0  0  0
   62.4209   30.6846   46.9888 H   0  0  0  0  0  0  0  0  0  0  0  0
   57.0513   32.1229   46.7414 H   0  0  0  0  0  0  0  0  0  0  0  0
   56.2754   34.1989   45.5934 H   0  0  0  0  0  0  0  0  0  0  0  0
   57.9375   35.8164   44.6726 H   0  0  0  0  0  0  0  0  0  0  0  0
   60.3833   35.3566   44.8916 H   0  0  0  0  0  0  0  0  0  0  0  0
   61.1664   33.2819   46.0374 H   0  0  0  0  0  0  0  0  0  0  0  0
  1  2  2  0
  2  3  2  0
  2  4  1  0
  4  5  2  0
  5  6  1  0
  6  7  2  0
  7  8  1  0
  8  9  2  0
  2 10  1  0
 10 11  1  0
 11 12  1  0
 12 13  2  0
 13 14  1  0
 14 15  2  0
 15 16  1  0
 16 17  2  0
 10 18  1  0
 18 19  2  0
 19 20  1  0
 20 21  2  0
 21 22  1  0
 22 23  2  0
  9  4  1  0
 17 12  1  0
 23 18  1  0
  5 24  1  0
  6 25  1  0
  7 26  1  0
  8 27  1  0
  9 28  1  0
 11 29  1  0
 11 30  1  0
 13 31  1  0
 14 32  1  0
 15 33  1  0
 16 34  1  0
 17 35  1  0
 19 36  1  0
 20 37  1  0
 21 38  1  0
 22 39  1  0
 23 40  1  0
M  CHG  1  16   1
M  END
>  <UniqueID>  (7) 
7

>  <SMILES>  (7) 
O=S(=O)(c1ccccc1)N(Cc1ccc[nH+]c1)c1ccccc1

>  <Energy>  (7) 
45.14666567362896

>  <Genealogy>  (7) 
O=S(=O)(c1ccccc1)N(Cc1ccc[nH+]c1)c1ccccc1 (protonated)
O=S(=O)(c1ccccc1)N(Cc1ccc[nH+]c1)c1ccccc1 (3D coordinates assigned)
O=S(=O)(c1ccccc1)N(Cc1ccc[nH+]c1)c1ccccc1 (optimized conformer: 45.14666567362896 kcal/mol)

>  <smiles>  (7) 
O=S(=O)(c1ccccc1)N(Cc1cccnc1)c1ccccc1

>  <score_type>  (7) 
oracle

>  <origin>  (7) 
adg

>  <m_score__min__energy>  (7) 
-6.75

>  <m_primary>  (7) 
energy

$$$$
7:0
     RDKit          3D

 47 50  0  0  0  0  0  0  0  0999 V2000
   57.8500   32.3360   41.8150 C   0  0  0  0  0  0  0  0  0  0  0  0
   57.4600   32.0000   43.1420 O   0  0  0  0  0  0  0  0  0  0  0  0
   58.1280   32.4230   44.3030 C   0  0  0  0  0  0  0  0  0  0  0  0
   58.3780   33.7860   44.5540 C   0  0  0  0  0  0  0  0  0  0  0  0
   59.0010   34.1880   45.7350 C   0  0  0  0  0  0  0  0  0  0  0  0
   59.3760   33.2410   46.6920 C   0  0  0  0  0  0  0  0  0  0  0  0
   60.1800   33.7600   48.1730 S   0  0  0  0  0  0  0  0  0  0  0  0
   60.1100   32.6630   49.1980 O   0  0  0  0  0  0  0  0  0  0  0  0
   59.4470   34.9570   48.7140 O   0  0  0  0  0  0  0  0  0  0  0  0
   61.8440   34.2010   47.8500 N   0  0  0  0  0  0  0  0  0  0  0  0
   62.4180   33.4220   46.7380 C   0  0  0  0  0  0  0  0  0  0  0  0
   62.7220   31.9590   47.1420 C   0  0  0  0  0  0  0  0  0  0  0  0
   62.7910   31.7610   48.5450 O   0  0  0  0  0  0  0  0  0  0  0  0
   63.4940   32.8200   49.1530 C   0  0  0  0  0  0  0  0  0  0  0  0
   62.6770   34.1240   49.0710 C   0  0  0  0  0  0  0  0  0  0  0  0
   59.1450   31.8820   46.4490 C   0  0  0  0  0  0  0  0  0  0  0  0
   58.5380   31.4600   45.2530 C   0  0  0  0  0  0  0  0  0  0  0  0
   58.3270   30.0110   45.0340 C   0  0  0  0  0  0  0  0  0  0  0  0
   57.5350   29.5330   43.9770 C   0  0  0  0  0  0  0  0  0  0  0  0
   57.3820   28.1930   43.7950 N   0  0  0  0  0  0  0  0  0  0  0  0
   57.9960   27.2980   44.6200 C   0  0  0  0  0  0  0  0  0  0  0  0
   57.8430   25.9160   44.4340 C   0  0  0  0  0  0  0  0  0  0  0  0
   58.4900   25.0200   45.2910 C   0  0  0  0  0  0  0  0  0  0  0  0
   59.2940   25.4970   46.3320 C   0  0  0  0  0  0  0  0  0  0  0  0
   59.4520   26.8730   46.5240 C   0  0  0  0  0  0  0  0  0  0  0  0
   58.8060   27.7750   45.6710 C   0  0  0  0  0  0  0  0  0  0  0  0
   58.9520   29.1130   45.8450 N   0  0  0  0  0  0  0  0  0  0  0  0
   58.6830   33.0536   41.8482 H   0  0  0  0  0  0  0  0  0  0  0  0
   58.1704   31.4266   41.2856 H   0  0  0  0  0  0  0  0  0  0  0  0
   56.9980   32.7875   41.2856 H   0  0  0  0  0  0  0  0  0  0  0  0
   58.0790   34.5405   43.8115 H   0  0  0  0  0  0  0  0  0  0  0  0
   59.1982   35.2552   45.9142 H   0  0  0  0  0  0  0  0  0  0  0  0
   61.7021   33.4170   45.9029 H   0  0  0  0  0  0  0  0  0  0  0  0
   63.3678   33.8961   46.4497 H   0  0  0  0  0  0  0  0  0  0  0  0
   61.9275   31.3142   46.7383 H   0  0  0  0  0  0  0  0  0  0  0  0
   63.7115   31.7094   46.7315 H   0  0  0  0  0  0  0  0  0  0  0  0
   63.6784   32.5736   50.2091 H   0  0  0  0  0  0  0  0  0  0  0  0
   64.4489   32.9634   48.6261 H   0  0  0  0  0  0  0  0  0  0  0  0
   62.0186   34.1825   49.9503 H   0  0  0  0  0  0  0  0  0  0  0  0
   63.3900   34.9611   49.0398 H   0  0  0  0  0  0  0  0  0  0  0  0
   59.4414   31.1364   47.2015 H   0  0  0  0  0  0  0  0  0  0  0  0
   57.0389   30.2411   43.2970 H   0  0  0  0  0  0  0  0  0  0  0  0
   56.7870   27.8580   43.0030 H   0  0  0  0  0  0  0  0  0  0  0  0
   57.2145   25.5373   43.6145 H   0  0  0  0  0  0  0  0  0  0  0  0
   58.3664   23.9366   45.1462 H   0  0  0  0  0  0  0  0  0  0  0  0
   59.8031   24.7877   47.0011 H   0  0  0  0  0  0  0  0  0  0  0  0
   60.0831   27.2459   47.3442 H   0  0  0  0  0  0  0  0  0  0  0  0
  1  2  1  0
  2  3  1  0
  3  4  2  0
  4  5  1  0
  5  6  2  0
  6  7  1  0
  7  8  2  0
  7  9  2  0
  7 10  1  0
 10 11  1  0
 11 12  1  0
 12 13  1  0
 13 14  1  0
 14 15  1  0
  6 16  1  0
 16 17  2  0
 17 18  1  0
 18 19  2  0
 19 20  1  0
 20 21  2  0
 21 22  1  0
 22 23  2  0
 23 24  1  0
 24 25  2  0
 25 26  1  0
 26 27  2  0
 17  3  1  0
 27 18  1  0
 15 10  1  0
 26 21  1  0
  1 28  1  0
  1 29  1  0
  1 30  1  0
  4 31  1  0
  5 32  1  0
 11 33  1  0
 11 34  1  0
 12 35  1  0
 12 36  1  0
 14 37  1  0
 14 38  1  0
 15 39  1  0
 15 40  1  0
 16 41  1  0
 19 42  1  0
 20 43  1  0
 22 44  1  0
 23 45  1  0
 24 46  1  0
 25 47  1  0
M  CHG  1  20   1
M  END
>  <UniqueID>  (8) 
8

>  <SMILES>  (8) 
COc1ccc(S(=O)(=O)N2CCOCC2)cc1-c1c[nH+]c2ccccc2n1

>  <Energy>  (8) 
69.67520674589349

>  <Genealogy>  (8) 
COc1ccc(S(=O)(=O)N2CCOCC2)cc1-c1c[nH+]c2ccccc2n1 (protonated)
COc1ccc(S(=O)(=O)N2CCOCC2)cc1-c1c[nH+]c2ccccc2n1 (3D coordinates assigned)
COc1ccc(S(=O)(=O)N2CCOCC2)cc1-c1c[nH+]c2ccccc2n1 (nonaromatic ring conformer: 69.67520674589349 kcal/mol)

>  <smiles>  (8) 
COc1ccc(S(=O)(=O)N2CCOCC2)cc1-c1cnc2ccccc2n1

>  <score_type>  (8) 
oracle

>  <origin>  (8) 
adg

>  <m_score__min__energy>  (8) 
-7.0199999999999996

>  <m_primary>  (8) 
energy

$$$$
8:0
     RDKit          3D

 45 47  0  0  0  0  0  0  0  0999 V2000
   58.3400   26.1730   45.4240 C   0  0  0  0  0  0  0  0  0  0  0  0
   57.5790   27.3480   44.9950 N   0  0  0  0  0  0  0  0  0  0  0  0
   58.1110   27.9110   43.7400 C   0  0  0  0  0  0  0  0  0  0  0  0
   57.3910   29.2160   43.3980 C   0  0  0  0  0  0  0  0  0  0  0  0
   57.5980   30.2130   44.4450 N   0  0  0  0  0  0  0  0  0  0  0  0
   57.2780   31.5240   44.3620 C   0  0  0  0  0  0  0  0  0  0  0  0
   57.7320   32.1380   45.5150 C   0  0  0  0  0  0  0  0  0  0  0  0
   58.2820   31.1310   46.2750 C   0  0  0  0  0  0  0  0  0  0  0  0
   58.2150   29.9750   45.5950 N   0  0  0  0  0  0  0  0  0  0  0  0
   58.9490   31.3520   47.6020 C   0  0  0  0  0  0  0  0  0  0  0  0
   58.5340   32.7200   48.1840 C   0  0  0  0  0  0  0  0  0  0  0  0
   58.5400   33.7440   47.1240 N   0  0  0  0  0  0  0  0  0  0  0  0
   59.7220   34.5530   46.9920 C   0  0  0  0  0  0  0  0  0  0  0  0
   59.6450   35.6670   46.4040 O   0  0  0  0  0  0  0  0  0  0  0  0
   61.0260   34.0760   47.5130 C   0  0  0  0  0  0  0  0  0  0  0  0
   61.9690   33.4930   46.6460 C   0  0  0  0  0  0  0  0  0  0  0  0
   63.2000   33.0450   47.1370 C   0  0  0  0  0  0  0  0  0  0  0  0
   63.5030   33.1790   48.4940 C   0  0  0  0  0  0  0  0  0  0  0  0
   64.6970   32.7450   48.9680 F   0  0  0  0  0  0  0  0  0  0  0  0
   62.5760   33.7590   49.3630 C   0  0  0  0  0  0  0  0  0  0  0  0
   61.3440   34.2080   48.8770 C   0  0  0  0  0  0  0  0  0  0  0  0
   57.5880   33.5490   46.0050 C   0  0  1  0  0  0  0  0  0  0  0  0
   57.7510   34.5730   44.8720 C   0  0  0  0  0  0  0  0  0  0  0  0
   58.3654   26.1338   46.5230 H   0  0  0  0  0  0  0  0  0  0  0  0
   57.8593   25.2630   45.0356 H   0  0  0  0  0  0  0  0  0  0  0  0
   59.3670   26.2395   45.0356 H   0  0  0  0  0  0  0  0  0  0  0  0
   56.5940   27.0370   44.8290 H   0  0  0  0  0  0  0  0  0  0  0  0
   59.1864   28.1099   43.8584 H   0  0  0  0  0  0  0  0  0  0  0  0
   57.9493   27.1887   42.9263 H   0  0  0  0  0  0  0  0  0  0  0  0
   57.7829   29.6054   42.4468 H   0  0  0  0  0  0  0  0  0  0  0  0
   56.3133   29.0122   43.3137 H   0  0  0  0  0  0  0  0  0  0  0  0
   56.7522   32.0133   43.5289 H   0  0  0  0  0  0  0  0  0  0  0  0
   58.5940   29.0490   45.8960 H   0  0  0  0  0  0  0  0  0  0  0  0
   58.6482   30.5546   48.2975 H   0  0  0  0  0  0  0  0  0  0  0  0
   60.0401   31.3363   47.4631 H   0  0  0  0  0  0  0  0  0  0  0  0
   57.5226   32.6427   48.6095 H   0  0  0  0  0  0  0  0  0  0  0  0
   59.2488   33.0095   48.9684 H   0  0  0  0  0  0  0  0  0  0  0  0
   61.7367   33.3890   45.5759 H   0  0  0  0  0  0  0  0  0  0  0  0
   63.9301   32.5867   46.4537 H   0  0  0  0  0  0  0  0  0  0  0  0
   62.8155   33.8628   50.4316 H   0  0  0  0  0  0  0  0  0  0  0  0
   60.6192   34.6672   49.5654 H   0  0  0  0  0  0  0  0  0  0  0  0
   56.5677   33.7206   46.3786 H   0  0  0  0  0  0  0  0  0  0  0  0
   57.9102   35.5730   45.3017 H   0  0  0  0  0  0  0  0  0  0  0  0
   58.6168   34.2985   44.2514 H   0  0  0  0  0  0  0  0  0  0  0  0
   56.8428   34.5809   44.2514 H   0  0  0  0  0  0  0  0  0  0  0  0
  1  2  1  0
  2  3  1  0
  3  4  1  0
  4  5  1  0
  5  6  1  0
  6  7  2  0
  7  8  1  0
  8  9  2  0
  8 10  1  0
 10 11  1  0
 11 12  1  0
 12 13  1  0
 13 14  2  0
 13 15  1  0
 15 16  2  0
 16 17  1  0
 17 18  2  0
 18 19  1  0
 18 20  1  0
 20 21  2  0
 12 22  1  0
 22 23  1  0
  9  5  1  0
 21 15  1  0
 22  7  1  0
  1 24  1  0
  1 25  1  0
  1 26  1  0
  2 27  1  0
  3 28  1  0
  3 29  1  0
  4 30  1  0
  4 31  1  0
  6 32  1  0
  9 33  1  0
 10 34  1  0
 10 35  1  0
 11 36  1  0
 11 37  1  0
 16 38  1  0
 17 39  1  0
 20 40  1  0
 21 41  1  0
 22 42  1  1
 23 43  1  0
 23 44  1  0
 23 45  1  0
M  CHG  1   9   1
M  END
>  <UniqueID>  (9) 
9

>  <SMILES>  (9) 
CNCCn1cc2c([nH+]1)CCN(C(=O)c1ccc(F)cc1)[C@H]2C

>  <Energy>  (9) 
84.0092270827768

>  <Genealogy>  (9) 
CNCCn1cc2c([nH+]1)CCN(C(=O)c1ccc(F)cc1)C2C (protonated)
CNCCn1cc2c([nH+]1)CCN(C(=O)c1ccc(F)cc1)[C@H]2C (chirality)
CNCCn1cc2c([nH+]1)CCN(C(=O)c1ccc(F)cc1)[C@H]2C (3D coordinates assigned)
CNCCn1cc2c([nH+]1)CCN(C(=O)c1ccc(F)cc1)[C@H]2C (nonaromatic ring conformer: 84.0092270827768 kcal/mol)

>  <smiles>  (9) 
CNCCn1cc2c(n1)CCN(C(=O)c1ccc(F)cc1)C2C

>  <score_type>  (9) 
oracle

>  <origin>  (9) 
adg

>  <m_score__min__energy>  (9) 
-5.8700000000000001

>  <m_primary>  (9) 
energy

$$$$
9:0
     RDKit          3D

 35 37  0  0  0  0  0  0  0  0999 V2000
   59.2940   29.7080   44.8480 C   0  0  0  0  0  0  0  0  0  0  0  0
   57.8350   29.8040   44.8240 N   0  0  0  0  0  0  0  0  0  0  0  0
   57.0850   30.8110   44.3260 C   0  0  0  0  0  0  0  0  0  0  0  0
   57.7330   32.2980   43.5560 S   0  0  0  0  0  0  0  0  0  0  0  0
   57.1370   33.4230   44.8660 C   0  0  0  0  0  0  0  0  0  0  0  0
   58.1840   33.6120   45.9310 C   0  0  0  0  0  0  0  0  0  0  0  0
   58.0810   32.9410   47.1600 C   0  0  0  0  0  0  0  0  0  0  0  0
   59.0710   33.1000   48.1350 C   0  0  0  0  0  0  0  0  0  0  0  0
   60.1690   33.9280   47.8880 C   0  0  0  0  0  0  0  0  0  0  0  0
   60.2810   34.5970   46.6670 C   0  0  0  0  0  0  0  0  0  0  0  0
   59.2930   34.4400   45.6880 C   0  0  0  0  0  0  0  0  0  0  0  0
   55.7660   30.5680   44.4640 N   0  0  0  0  0  0  0  0  0  0  0  0
   55.6700   29.3900   45.0580 N   0  0  0  0  0  0  0  0  0  0  0  0
   56.9140   28.9310   45.2910 C   0  0  0  0  0  0  0  0  0  0  0  0
   57.1980   27.6390   45.9550 C   0  0  0  0  0  0  0  0  0  0  0  0
   56.3640   26.5370   45.7200 C   0  0  0  0  0  0  0  0  0  0  0  0
   56.6260   25.3240   46.3610 C   0  0  0  0  0  0  0  0  0  0  0  0
   57.6750   25.2190   47.2190 N   0  0  0  0  0  0  0  0  0  0  0  0
   58.4900   26.2740   47.4780 C   0  0  0  0  0  0  0  0  0  0  0  0
   58.2640   27.5050   46.8570 C   0  0  0  0  0  0  0  0  0  0  0  0
   59.6428   29.6850   45.8910 H   0  0  0  0  0  0  0  0  0  0  0  0
   59.6093   28.7872   44.3355 H   0  0  0  0  0  0  0  0  0  0  0  0
   59.7273   30.5796   44.3355 H   0  0  0  0  0  0  0  0  0  0  0  0
   56.8969   34.3995   44.4201 H   0  0  0  0  0  0  0  0  0  0  0  0
   56.2423   32.9805   45.3282 H   0  0  0  0  0  0  0  0  0  0  0  0
   57.2182   32.2876   47.3568 H   0  0  0  0  0  0  0  0  0  0  0  0
   58.9852   32.5730   49.0967 H   0  0  0  0  0  0  0  0  0  0  0  0
   60.9463   34.0532   48.6562 H   0  0  0  0  0  0  0  0  0  0  0  0
   61.1466   35.2480   46.4746 H   0  0  0  0  0  0  0  0  0  0  0  0
   59.3849   34.9660   44.7263 H   0  0  0  0  0  0  0  0  0  0  0  0
   54.7690   28.9270   45.3110 H   0  0  0  0  0  0  0  0  0  0  0  0
   55.5082   26.6271   45.0348 H   0  0  0  0  0  0  0  0  0  0  0  0
   55.9824   24.4523   46.1712 H   0  0  0  0  0  0  0  0  0  0  0  0
   59.3303   26.1591   48.1785 H   0  0  0  0  0  0  0  0  0  0  0  0
   58.9173   28.3630   47.0738 H   0  0  0  0  0  0  0  0  0  0  0  0
  1  2  1  0
  2  3  1  0
  3  4  1  0
  4  5  1  0
  5  6  1  0
  6  7  2  0
  7  8  1  0
  8  9  2  0
  9 10  1  0
 10 11  2  0
  3 12  2  0
 12 13  1  0
 13 14  2  0
 14 15  1  0
 15 16  2  0
 16 17  1  0
 17 18  2  0
 18 19  1  0
 19 20  2  0
 14  2  1  0
 20 15  1  0
 11  6  1  0
  1 21  1  0
  1 22  1  0
  1 23  1  0
  5 24  1  0
  5 25  1  0
  7 26  1  0
  8 27  1  0
  9 28  1  0
 10 29  1  0
 11 30  1  0
 13 31  1  0
 16 32  1  0
 17 33  1  0
 19 34  1  0
 20 35  1  0
M  CHG  1  13   1
M  END
>  <UniqueID>  (10) 
10

>  <SMILES>  (10) 
Cn1c(SCc2ccccc2)n[nH+]c1-c1ccncc1

>  <Energy>  (10) 
73.2909407964483

>  <Genealogy>  (10) 
Cn1c(SCc2ccccc2)n[nH+]c1-c1ccncc1 (protonated)
Cn1c(SCc2ccccc2)n[nH+]c1-c1ccncc1 (3D coordinates assigned)
Cn1c(SCc2ccccc2)n[nH+]c1-c1ccncc1 (optimized conformer: 73.2909407964483 kcal/mol)

>  <smiles>  (10) 
Cn1c(SCc2ccccc2)nnc1-c1ccncc1

>  <score_type>  (10) 
oracle

>  <origin>  (10) 
adg

>  <m_score__min__energy>  (10) 
-6.4000000000000004

>  <m_primary>  (10) 
energy

$$$$
10:0
     RDKit          3D

 31 33  0  0  0  0  0  0  0  0999 V2000
   62.2370   33.0500   47.4380 C   0  0  0  0  0  0  0  0  0  0  0  0
   60.8410   33.2240   47.6600 O   0  0  0  0  0  0  0  0  0  0  0  0
   59.8790   33.3360   46.6430 C   0  0  0  0  0  0  0  0  0  0  0  0
   59.6010   34.5650   46.0200 C   0  0  0  0  0  0  0  0  0  0  0  0
   58.6290   34.6470   45.0270 C   0  0  0  0  0  0  0  0  0  0  0  0
   57.9210   33.5110   44.6470 C   0  0  0  0  0  0  0  0  0  0  0  0
   58.1820   32.2640   45.2420 C   0  0  0  0  0  0  0  0  0  0  0  0
   59.1870   32.1760   46.2460 C   0  0  0  0  0  0  0  0  0  0  0  0
   59.4730   30.9630   46.9670 N   0  0  0  0  0  0  0  0  0  0  0  0
   59.4930   29.7520   46.5020 C   0  0  0  0  0  0  0  0  0  0  0  0
   59.2620   29.4480   45.0490 C   0  0  1  0  0  0  0  0  0  0  0  0
   59.4020   27.9550   44.7310 C   0  0  0  0  0  0  0  0  0  0  0  0
   58.2440   27.6240   43.7940 C   0  0  0  0  0  0  0  0  0  0  0  0
   57.1970   28.7020   44.0360 C   0  0  0  0  0  0  0  0  0  0  0  0
   57.9010   29.7910   44.6920 N   0  0  0  0  0  0  0  0  0  0  0  0
   57.3520   31.1090   44.8210 C   0  0  0  0  0  0  0  0  0  0  0  0
   56.1420   31.3040   44.5160 O   0  0  0  0  0  0  0  0  0  0  0  0
   62.7568   32.9852   48.4053 H   0  0  0  0  0  0  0  0  0  0  0  0
   62.4051   32.1240   46.8686 H   0  0  0  0  0  0  0  0  0  0  0  0
   62.6273   33.9064   46.8686 H   0  0  0  0  0  0  0  0  0  0  0  0
   60.1548   35.4672   46.3189 H   0  0  0  0  0  0  0  0  0  0  0  0
   58.4202   35.6118   44.5417 H   0  0  0  0  0  0  0  0  0  0  0  0
   57.1462   33.5896   43.8702 H   0  0  0  0  0  0  0  0  0  0  0  0
   59.6856   28.9197   47.1950 H   0  0  0  0  0  0  0  0  0  0  0  0
   60.0142   30.0271   44.4933 H   0  0  0  0  0  0  0  0  0  0  0  0
   60.3645   27.7564   44.2368 H   0  0  0  0  0  0  0  0  0  0  0  0
   59.3756   27.3406   45.6431 H   0  0  0  0  0  0  0  0  0  0  0  0
   58.5802   27.6441   42.7468 H   0  0  0  0  0  0  0  0  0  0  0  0
   57.8423   26.6179   43.9848 H   0  0  0  0  0  0  0  0  0  0  0  0
   56.7682   29.0418   43.0817 H   0  0  0  0  0  0  0  0  0  0  0  0
   56.3632   28.3290   44.6489 H   0  0  0  0  0  0  0  0  0  0  0  0
  1  2  1  0
  2  3  1  0
  3  4  2  0
  4  5  1  0
  5  6  2  0
  6  7  1  0
  7  8  2  0
  8  9  1  0
  9 10  2  0
 10 11  1  0
 11 12  1  0
 12 13  1  0
 13 14  1  0
 14 15  1  0
 15 16  1  0
 16 17  2  0
  8  3  1  0
 15 11  1  0
 16  7  1  0
  1 18  1  0
  1 19  1  0
  1 20  1  0
  4 21  1  0
  5 22  1  0
  6 23  1  0
 10 24  1  0
 11 25  1  6
 12 26  1  0
 12 27  1  0
 13 28  1  0
 13 29  1  0
 14 30  1  0
 14 31  1  0
M  END
>  <UniqueID>  (11) 
11

>  <SMILES>  (11) 
COc1cccc2c1N=C[C@H]1CCCN1C2=O

>  <Energy>  (11) 
44.38615175406778

>  <Genealogy>  (11) 
COc1cccc2c1N=C[C@H]1CCCN1C2=O (chirality)
COc1cccc2c1N=C[C@H]1CCCN1C2=O (3D coordinates assigned)
COc1cccc2c1N=C[C@H]1CCCN1C2=O (nonaromatic ring conformer: 44.38615175406778 kcal/mol)

>  <smiles>  (11) 
COc1cccc2c1N=CC1CCCN1C2=O

>  <score_type>  (11) 
oracle

>  <origin>  (11) 
adg

>  <m_score__min__energy>  (11) 
-5.1399999999999997

>  <m_primary>  (11) 
energy

$$$$
11:0
     RDKit          3D

 31 32  0  0  0  0  0  0  0  0999 V2000
   57.0230   30.8640   43.4180 C   0  0  0  0  0  0  0  0  0  0  0  0
   57.4880   30.9010   44.8690 C   0  0  0  0  0  0  0  0  0  0  0  0
   58.0370   32.2180   45.1930 N   0  0  0  0  0  0  0  0  0  0  0  0
   58.1840   33.4700   44.1100 S   0  0  0  0  0  0  0  0  0  0  0  0
   58.9300   34.5170   45.1630 C   0  0  0  0  0  0  0  0  0  0  0  0
   59.2940   35.6890   44.8820 O   0  0  0  0  0  0  0  0  0  0  0  0
   59.0980   33.9230   46.3730 N   0  0  0  0  0  0  0  0  0  0  0  0
   59.7020   34.5990   47.5300 C   0  0  0  0  0  0  0  0  0  0  0  0
   61.1350   34.1670   47.7050 C   0  0  0  0  0  0  0  0  0  0  0  0
   61.9090   33.8320   46.5840 C   0  0  0  0  0  0  0  0  0  0  0  0
   63.2470   33.4650   46.7370 C   0  0  0  0  0  0  0  0  0  0  0  0
   63.8230   33.4210   48.0090 C   0  0  0  0  0  0  0  0  0  0  0  0
   63.0570   33.7240   49.1470 C   0  0  0  0  0  0  0  0  0  0  0  0
   63.6880   33.7270   50.5160 C   0  0  0  0  0  0  0  0  0  0  0  0
   63.4630   34.9500   51.1180 F   0  0  0  0  0  0  0  0  0  0  0  0
   65.0520   33.5110   50.4280 F   0  0  0  0  0  0  0  0  0  0  0  0
   63.1430   32.7290   51.3060 F   0  0  0  0  0  0  0  0  0  0  0  0
   61.7160   34.1170   48.9830 C   0  0  0  0  0  0  0  0  0  0  0  0
   58.5960   32.6370   46.3700 C   0  0  0  0  0  0  0  0  0  0  0  0
   58.6740   31.6560   47.6890 S   0  0  0  0  0  0  0  0  0  0  0  0
   55.9269   30.7768   43.3863 H   0  0  0  0  0  0  0  0  0  0  0  0
   57.3320   31.7896   42.9102 H   0  0  0  0  0  0  0  0  0  0  0  0
   57.4745   29.9989   42.9102 H   0  0  0  0  0  0  0  0  0  0  0  0
   56.6335   30.6916   45.5293 H   0  0  0  0  0  0  0  0  0  0  0  0
   58.2707   30.1417   45.0133 H   0  0  0  0  0  0  0  0  0  0  0  0
   59.6687   35.6870   47.3715 H   0  0  0  0  0  0  0  0  0  0  0  0
   59.1364   34.3300   48.4343 H   0  0  0  0  0  0  0  0  0  0  0  0
   61.4597   33.8586   45.5803 H   0  0  0  0  0  0  0  0  0  0  0  0
   63.8499   33.2096   45.8531 H   0  0  0  0  0  0  0  0  0  0  0  0
   64.8826   33.1475   48.1202 H   0  0  0  0  0  0  0  0  0  0  0  0
   61.1164   34.3879   49.8645 H   0  0  0  0  0  0  0  0  0  0  0  0
  1  2  1  0
  2  3  1  0
  3  4  1  0
  4  5  1  0
  5  6  2  0
  5  7  1  0
  7  8  1  0
  8  9  1  0
  9 10  2  0
 10 11  1  0
 11 12  2  0
 12 13  1  0
 13 14  1  0
 14 15  1  0
 14 16  1  0
 14 17  1  0
 13 18  2  0
  7 19  1  0
 19 20  2  0
 19  3  1  0
 18  9  1  0
  1 21  1  0
  1 22  1  0
  1 23  1  0
  2 24  1  0
  2 25  1  0
  8 26  1  0
  8 27  1  0
 10 28  1  0
 11 29  1  0
 12 30  1  0
 18 31  1  0
M  END
>  <UniqueID>  (12) 
12

>  <SMILES>  (12) 
CCn1sc(=O)n(Cc2cccc(C(F)(F)F)c2)c1=S

>  <Energy>  (12) 
69.63103350962932

>  <Genealogy>  (12) 
CCn1sc(=O)n(Cc2cccc(C(F)(F)F)c2)c1=S (3D coordinates assigned)
CCn1sc(=O)n(Cc2cccc(C(F)(F)F)c2)c1=S (optimized conformer: 69.63103350962932 kcal/mol)

>  <smiles>  (12) 
CCn1sc(=O)n(Cc2cccc(C(F)(F)F)c2)c1=S

>  <score_type>  (12) 
oracle

>  <origin>  (12) 
adg

>  <m_score__min__energy>  (12) 
-6.1200000000000001

>  <m_primary>  (12) 
energy

$$$$
12:0
     RDKit          3D

 46 48  0  0  0  0  0  0  0  0999 V2000
   63.4470   33.8630   46.3480 C   0  0  0  0  0  0  0  0  0  0  0  0
   63.3470   34.2090   47.8320 C   0  0  0  0  0  0  0  0  0  0  0  0
   62.0470   33.7770   48.3820 N   0  0  0  0  0  0  0  0  0  0  0  0
   61.4010   32.7430   47.5550 C   0  0  0  0  0  0  0  0  0  0  0  0
   59.8490   32.9040   47.5850 C   0  0  1  0  0  0  0  0  0  0  0  0
   59.4950   34.3810   47.3480 C   0  0  0  0  0  0  0  0  0  0  0  0
   59.3260   34.5030   45.8470 C   0  0  0  0  0  0  0  0  0  0  0  0
   58.8690   33.1990   45.3520 N   0  0  0  0  0  0  0  0  0  0  0  0
   57.4450   33.1870   44.9390 C   0  0  0  0  0  0  0  0  0  0  0  0
   57.0230   31.9250   44.2310 C   0  0  0  0  0  0  0  0  0  0  0  0
   56.2970   30.9450   44.8120 N   0  0  0  0  0  0  0  0  0  0  0  0
   56.0490   29.9180   43.9560 C   0  0  0  0  0  0  0  0  0  0  0  0
   56.5860   30.0680   42.6840 C   0  0  0  0  0  0  0  0  0  0  0  0
   57.3950   31.5390   42.6350 S   0  0  0  0  0  0  0  0  0  0  0  0
   59.1980   32.1890   46.3750 C   0  0  0  0  0  0  0  0  0  0  0  0
   59.2260   32.4510   48.9440 C   0  0  0  0  0  0  0  0  0  0  0  0
   59.4830   33.3590   50.1660 C   0  0  0  0  0  0  0  0  0  0  0  0
   60.7350   33.1290   50.9200 N   0  0  0  0  0  0  0  0  0  0  0  0
   60.6410   32.0470   51.9140 C   0  0  0  0  0  0  0  0  0  0  0  0
   62.2460   33.2000   50.0250 S   0  0  0  0  0  0  0  0  0  0  0  0
   63.1660   34.1470   50.7420 O   0  0  0  0  0  0  0  0  0  0  0  0
   62.8880   31.8390   50.0190 O   0  0  0  0  0  0  0  0  0  0  0  0
   63.7508   32.8117   46.2363 H   0  0  0  0  0  0  0  0  0  0  0  0
   62.4683   34.0147   45.8694 H   0  0  0  0  0  0  0  0  0  0  0  0
   64.1939   34.5134   45.8694 H   0  0  0  0  0  0  0  0  0  0  0  0
   64.1564   33.7007   48.3766 H   0  0  0  0  0  0  0  0  0  0  0  0
   63.4352   35.2993   47.9477 H   0  0  0  0  0  0  0  0  0  0  0  0
   61.7540   32.8376   46.5175 H   0  0  0  0  0  0  0  0  0  0  0  0
   61.6621   31.7533   47.9578 H   0  0  0  0  0  0  0  0  0  0  0  0
   58.5605   34.6433   47.8657 H   0  0  0  0  0  0  0  0  0  0  0  0
   60.2686   35.0605   47.7351 H   0  0  0  0  0  0  0  0  0  0  0  0
   58.5797   35.2768   45.6138 H   0  0  0  0  0  0  0  0  0  0  0  0
   60.2749   34.7899   45.3702 H   0  0  0  0  0  0  0  0  0  0  0  0
   56.8229   33.3035   45.8386 H   0  0  0  0  0  0  0  0  0  0  0  0
   57.3139   34.0124   44.2238 H   0  0  0  0  0  0  0  0  0  0  0  0
   55.4656   29.0329   44.2496 H   0  0  0  0  0  0  0  0  0  0  0  0
   56.4972   29.3503   41.8552 H   0  0  0  0  0  0  0  0  0  0  0  0
   58.2800   31.6760   46.6978 H   0  0  0  0  0  0  0  0  0  0  0  0
   59.8942   31.4460   45.9588 H   0  0  0  0  0  0  0  0  0  0  0  0
   58.1371   32.3820   48.8041 H   0  0  0  0  0  0  0  0  0  0  0  0
   59.7218   31.4989   49.1842 H   0  0  0  0  0  0  0  0  0  0  0  0
   59.4962   34.3996   49.8097 H   0  0  0  0  0  0  0  0  0  0  0  0
   58.6748   33.1225   50.8737 H   0  0  0  0  0  0  0  0  0  0  0  0
   60.6782   32.4751   52.9266 H   0  0  0  0  0  0  0  0  0  0  0  0
   59.6925   31.5065   51.7790 H   0  0  0  0  0  0  0  0  0  0  0  0
   61.4821   31.3510   51.7790 H   0  0  0  0  0  0  0  0  0  0  0  0
  1  2  1  0
  2  3  1  0
  3  4  1  0
  5  4  1  1
  5  6  1  0
  6  7  1  0
  7  8  1  0
  8  9  1  0
  9 10  1  0
 10 11  2  0
 11 12  1  0
 12 13  2  0
 13 14  1  0
  8 15  1  0
  5 16  1  0
 16 17  1  0
 17 18  1  0
 18 19  1  0
 18 20  1  0
 20 21  2  0
 20 22  2  0
 20  3  1  0
 15  5  1  0
 14 10  1  0
  1 23  1  0
  1 24  1  0
  1 25  1  0
  2 26  1  0
  2 27  1  0
  4 28  1  0
  4 29  1  0
  6 30  1  0
  6 31  1  0
  7 32  1  0
  7 33  1  0
  9 34  1  0
  9 35  1  0
 12 36  1  0
 13 37  1  0
 15 38  1  0
 15 39  1  0
 16 40  1  0
 16 41  1  0
 17 42  1  0
 17 43  1  0
 19 44  1  0
 19 45  1  0
 19 46  1  0
M  END
>  <UniqueID>  (13) 
13

>  <SMILES>  (13) 
CCN1C[C@]2(CCN(Cc3nccs3)C2)CCN(C)S1(=O)=O

>  <Energy>  (13) 
97.63568096102127

>  <Genealogy>  (13) 
CCN1C[C@]2(CCN(Cc3nccs3)C2)CCN(C)S1(=O)=O (chirality)
CCN1C[C@]2(CCN(Cc3nccs3)C2)CCN(C)S1(=O)=O (3D coordinates assigned)
CCN1C[C@]2(CCN(Cc3nccs3)C2)CCN(C)S1(=O)=O (nonaromatic ring conformer: 97.63568096102127 kcal/mol)

>  <smiles>  (13) 
CCN1CC2(CCN(Cc3nccs3)C2)CCN(C)S1(=O)=O

>  <score_type>  (13) 
oracle

>  <origin>  (13) 
adg

>  <m_score__min__energy>  (13) 
-5.7599999999999998

>  <m_primary>  (13) 
energy

$$$$
13:0
     RDKit          3D

 37 39  0  0  0  0  0  0  0  0999 V2000
   60.3660   28.9230   45.0260 C   0  0  0  0  0  0  0  0  0  0  0  0
   60.4140   30.0970   46.0020 C   0  0  0  0  0  0  0  0  0  0  0  0
   59.1910   30.1660   46.8360 N   0  0  0  0  0  0  0  0  0  0  0  0
   58.6650   28.8660   47.3130 C   0  0  0  0  0  0  0  0  0  0  0  0
   59.6250   28.1030   48.2280 C   0  0  0  0  0  0  0  0  0  0  0  0
   58.1390   31.1230   46.3990 C   0  0  0  0  0  0  0  0  0  0  0  0
   57.6970   30.9920   44.9510 C   0  0  0  0  0  0  0  0  0  0  0  0
   57.0440   29.9210   44.3300 C   0  0  0  0  0  0  0  0  0  0  0  0
   56.7160   30.0290   42.9690 C   0  0  0  0  0  0  0  0  0  0  0  0
   57.0270   31.1980   42.2490 C   0  0  0  0  0  0  0  0  0  0  0  0
   57.6680   32.2710   42.8850 C   0  0  0  0  0  0  0  0  0  0  0  0
   57.9880   32.1420   44.2360 C   0  0  0  0  0  0  0  0  0  0  0  0
   58.6190   33.0890   45.1280 C   0  0  0  0  0  0  0  0  0  0  0  0
   59.0850   34.3810   44.8780 C   0  0  0  0  0  0  0  0  0  0  0  0
   59.6540   35.0980   45.9420 C   0  0  0  0  0  0  0  0  0  0  0  0
   59.7440   34.5200   47.2240 C   0  0  0  0  0  0  0  0  0  0  0  0
   59.2670   33.2200   47.4510 C   0  0  0  0  0  0  0  0  0  0  0  0
   58.7070   32.5150   46.3830 C   0  0  0  0  0  0  0  0  0  0  0  0
   60.3274   27.9791   45.5895 H   0  0  0  0  0  0  0  0  0  0  0  0
   59.4706   29.0089   44.3928 H   0  0  0  0  0  0  0  0  0  0  0  0
   61.2654   28.9355   44.3928 H   0  0  0  0  0  0  0  0  0  0  0  0
   61.2878   29.9786   46.6596 H   0  0  0  0  0  0  0  0  0  0  0  0
   60.4838   31.0264   45.4177 H   0  0  0  0  0  0  0  0  0  0  0  0
   57.7336   29.0525   47.8677 H   0  0  0  0  0  0  0  0  0  0  0  0
   58.5100   28.2397   46.4221 H   0  0  0  0  0  0  0  0  0  0  0  0
   59.3695   28.3061   49.2785 H   0  0  0  0  0  0  0  0  0  0  0  0
   59.5390   27.0241   48.0317 H   0  0  0  0  0  0  0  0  0  0  0  0
   60.6567   28.4303   48.0317 H   0  0  0  0  0  0  0  0  0  0  0  0
   57.3128   30.9187   47.0959 H   0  0  0  0  0  0  0  0  0  0  0  0
   56.7927   29.0125   44.8970 H   0  0  0  0  0  0  0  0  0  0  0  0
   56.2120   29.1934   42.4613 H   0  0  0  0  0  0  0  0  0  0  0  0
   56.7661   31.2701   41.1828 H   0  0  0  0  0  0  0  0  0  0  0  0
   57.9120   33.1904   42.3325 H   0  0  0  0  0  0  0  0  0  0  0  0
   59.0083   34.8250   43.8745 H   0  0  0  0  0  0  0  0  0  0  0  0
   60.0320   36.1173   45.7741 H   0  0  0  0  0  0  0  0  0  0  0  0
   60.1906   35.0910   48.0513 H   0  0  0  0  0  0  0  0  0  0  0  0
   59.3328   32.7650   48.4503 H   0  0  0  0  0  0  0  0  0  0  0  0
  1  2  1  0
  2  3  1  0
  3  4  1  0
  4  5  1  0
  3  6  1  0
  6  7  1  0
  7  8  2  0
  8  9  1  0
  9 10  2  0
 10 11  1  0
 11 12  2  0
 12 13  1  0
 13 14  2  0
 14 15  1  0
 15 16  2  0
 16 17  1  0
 17 18  2  0
 18  6  1  0
 12  7  1  0
 18 13  1  0
  1 19  1  0
  1 20  1  0
  1 21  1  0
  2 22  1  0
  2 23  1  0
  4 24  1  0
  4 25  1  0
  5 26  1  0
  5 27  1  0
  5 28  1  0
  6 29  1  0
  8 30  1  0
  9 31  1  0
 10 32  1  0
 11 33  1  0
 14 34  1  0
 15 35  1  0
 16 36  1  0
 17 37  1  0
M  END
>  <UniqueID>  (14) 
14

>  <SMILES>  (14) 
CCN(CC)C1c2ccccc2-c2ccccc21

>  <Energy>  (14) 
68.32668075382769

>  <Genealogy>  (14) 
CCN(CC)C1c2ccccc2-c2ccccc21 (3D coordinates assigned)
CCN(CC)C1c2ccccc2-c2ccccc21 (nonaromatic ring conformer: 68.32668075382769 kcal/mol)

>  <smiles>  (14) 
CCN(CC)C1c2ccccc2-c2ccccc21

>  <score_type>  (14) 
oracle

>  <origin>  (14) 
adg

>  <m_score__min__energy>  (14) 
-6.9900000000000002

>  <m_primary>  (14) 
energy

$$$$
14:0
     RDKit          3D

 47 49  0  0  0  0  0  0  0  0999 V2000
   58.2250   27.2030   43.2210 C   0  0  0  0  0  0  0  0  0  0  0  0
   58.6500   27.6800   44.6230 C   0  0  0  0  0  0  0  0  0  0  0  0
   59.9270   28.5250   44.4950 C   0  0  0  0  0  0  0  0  0  0  0  0
   58.9380   26.4790   45.5430 C   0  0  0  0  0  0  0  0  0  0  0  0
   57.6420   28.5230   45.1980 O   0  0  0  0  0  0  0  0  0  0  0  0
   56.2660   28.2560   45.2570 C   0  0  0  0  0  0  0  0  0  0  0  0
   55.8340   27.1350   45.6370 O   0  0  0  0  0  0  0  0  0  0  0  0
   55.3310   29.2690   44.8840 N   0  0  0  0  0  0  0  0  0  0  0  0
   55.5710   30.2090   43.7960 C   0  0  0  0  0  0  0  0  0  0  0  0
   56.7950   31.0200   44.0740 C   0  0  0  0  0  0  0  0  0  0  0  0
   57.4130   31.7810   43.1490 N   0  0  0  0  0  0  0  0  0  0  0  0
   58.4500   32.2670   43.7600 O   0  0  0  0  0  0  0  0  0  0  0  0
   58.4810   31.8280   44.9950 C   0  0  0  0  0  0  0  0  0  0  0  0
   59.5200   32.1720   45.9750 C   0  0  0  0  0  0  0  0  0  0  0  0
   60.2150   31.1800   46.6710 C   0  0  0  0  0  0  0  0  0  0  0  0
   61.1910   31.5510   47.5940 C   0  0  0  0  0  0  0  0  0  0  0  0
   61.4570   32.9130   47.8090 C   0  0  0  0  0  0  0  0  0  0  0  0
   62.4580   33.3510   48.7550 N   0  0  0  0  0  0  0  0  0  0  0  0
   63.8900   33.1870   48.4730 C   0  0  0  0  0  0  0  0  0  0  0  0
   64.6840   33.1050   49.7800 C   0  0  0  0  0  0  0  0  0  0  0  0
   64.3590   34.1830   50.6360 O   0  0  0  0  0  0  0  0  0  0  0  0
   63.0100   34.0740   51.0410 C   0  0  0  0  0  0  0  0  0  0  0  0
   62.0690   34.2530   49.8470 C   0  0  0  0  0  0  0  0  0  0  0  0
   60.7530   33.8320   47.0950 N   0  0  0  0  0  0  0  0  0  0  0  0
   59.8180   33.4780   46.2120 N   0  0  0  0  0  0  0  0  0  0  0  0
   57.4410   31.0130   45.2580 N   0  0  0  0  0  0  0  0  0  0  0  0
   57.4960   26.3849   43.3174 H   0  0  0  0  0  0  0  0  0  0  0  0
   57.7672   28.0393   42.6723 H   0  0  0  0  0  0  0  0  0  0  0  0
   59.1083   26.8443   42.6723 H   0  0  0  0  0  0  0  0  0  0  0  0
   60.3038   28.7743   45.4979 H   0  0  0  0  0  0  0  0  0  0  0  0
   60.6913   27.9538   43.9477 H   0  0  0  0  0  0  0  0  0  0  0  0
   59.7001   29.4518   43.9477 H   0  0  0  0  0  0  0  0  0  0  0  0
   58.8621   26.7955   46.5937 H   0  0  0  0  0  0  0  0  0  0  0  0
   58.2054   25.6824   45.3462 H   0  0  0  0  0  0  0  0  0  0  0  0
   59.9522   26.1013   45.3462 H   0  0  0  0  0  0  0  0  0  0  0  0
   55.7102   29.6512   42.8582 H   0  0  0  0  0  0  0  0  0  0  0  0
   54.7065   30.8834   43.7076 H   0  0  0  0  0  0  0  0  0  0  0  0
   59.9942   30.1173   46.4924 H   0  0  0  0  0  0  0  0  0  0  0  0
   61.7487   30.7829   48.1498 H   0  0  0  0  0  0  0  0  0  0  0  0
   64.0427   32.2623   47.8972 H   0  0  0  0  0  0  0  0  0  0  0  0
   64.2420   34.0540   47.8947 H   0  0  0  0  0  0  0  0  0  0  0  0
   64.4464   32.1582   50.2870 H   0  0  0  0  0  0  0  0  0  0  0  0
   65.7571   33.1551   49.5433 H   0  0  0  0  0  0  0  0  0  0  0  0
   62.8455   33.0808   51.4844 H   0  0  0  0  0  0  0  0  0  0  0  0
   62.7981   34.8619   51.7787 H   0  0  0  0  0  0  0  0  0  0  0  0
   61.0392   34.0236   50.1584 H   0  0  0  0  0  0  0  0  0  0  0  0
   62.1316   35.2927   49.4933 H   0  0  0  0  0  0  0  0  0  0  0  0
  1  2  1  0
  2  3  1  0
  2  4  1  0
  2  5  1  0
  5  6  1  0
  6  7  2  0
  6  8  1  0
  8  9  1  0
  9 10  1  0
 10 11  2  0
 11 12  1  0
 12 13  1  0
 13 14  1  0
 14 15  2  0
 15 16  1  0
 16 17  2  0
 17 18  1  0
 18 19  1  0
 19 20  1  0
 20 21  1  0
 21 22  1  0
 22 23  1  0
 17 24  1  0
 24 25  2  0
 13 26  2  0
 26 10  1  0
 25 14  1  0
 23 18  1  0
  1 27  1  0
  1 28  1  0
  1 29  1  0
  3 30  1  0
  3 31  1  0
  3 32  1  0
  4 33  1  0
  4 34  1  0
  4 35  1  0
  9 36  1  0
  9 37  1  0
 15 38  1  0
 16 39  1  0
 19 40  1  0
 19 41  1  0
 20 42  1  0
 20 43  1  0
 22 44  1  0
 22 45  1  0
 23 46  1  0
 23 47  1  0
M  CHG  1   8  -1
M  END
>  <UniqueID>  (15) 
15

>  <SMILES>  (15) 
CC(C)(C)OC(=O)[N-]Cc1noc(-c2ccc(N3CCOCC3)nn2)n1

>  <Energy>  (15) 
76.48423506113119

>  <Genealogy>  (15) 
CC(C)(C)OC(=O)[N-]Cc1noc(-c2ccc(N3CCOCC3)nn2)n1 (protonated)
CC(C)(C)OC(=O)[N-]Cc1noc(-c2ccc(N3CCOCC3)nn2)n1 (3D coordinates assigned)
CC(C)(C)OC(=O)[N-]Cc1noc(-c2ccc(N3CCOCC3)nn2)n1 (nonaromatic ring conformer: 76.48423506113119 kcal/mol)

>  <smiles>  (15) 
CC(C)(C)OC(=O)NCc1noc(-c2ccc(N3CCOCC3)nn2)n1

>  <score_type>  (15) 
oracle

>  <origin>  (15) 
adg

>  <m_score__min__energy>  (15) 
-9.4199999999999999

>  <m_primary>  (15) 
energy

$$$$
15:0
     RDKit          3D

 35 37  0  0  0  0  0  0  0  0999 V2000
   56.6730   20.6500   42.9950 C   0  0  0  0  0  0  0  0  0  0  0  0
   55.9730   21.8330   43.3630 O   0  0  0  0  0  0  0  0  0  0  0  0
   56.5780   22.9710   43.9150 C   0  0  0  0  0  0  0  0  0  0  0  0
   56.9790   23.0350   45.2730 C   0  0  0  0  0  0  0  0  0  0  0  0
   57.5780   24.1980   45.7800 C   0  0  0  0  0  0  0  0  0  0  0  0
   57.7680   25.2820   44.9230 C   0  0  0  0  0  0  0  0  0  0  0  0
   57.3950   25.2280   43.6090 C   0  0  0  0  0  0  0  0  0  0  0  0
   56.7910   24.0830   43.0800 C   0  0  0  0  0  0  0  0  0  0  0  0
   57.6640   26.4180   42.8740 N   0  0  0  0  0  0  0  0  0  0  0  0
   58.4210   27.2680   43.8280 C   0  0  1  0  0  0  0  0  0  0  0  0
   57.9000   28.7210   43.8540 C   0  0  0  0  0  0  0  0  0  0  0  0
   58.4250   29.4260   45.1090 C   0  0  0  0  0  0  0  0  0  0  0  0
   57.9270   28.8030   46.3630 N   0  0  0  0  0  0  0  0  0  0  0  0
   58.9010   28.9690   47.4520 C   0  0  0  0  0  0  0  0  0  0  0  0
   57.4990   27.3890   46.2300 C   0  0  0  0  0  0  0  0  0  0  0  0
   58.3690   26.5960   45.2310 C   0  0  1  0  0  0  0  0  0  0  0  0
   56.9899   20.1144   43.9020 H   0  0  0  0  0  0  0  0  0  0  0  0
   56.0121   20.0032   42.3993 H   0  0  0  0  0  0  0  0  0  0  0  0
   57.5580   20.9180   42.3993 H   0  0  0  0  0  0  0  0  0  0  0  0
   56.8199   22.1690   45.9323 H   0  0  0  0  0  0  0  0  0  0  0  0
   57.8917   24.2539   46.8328 H   0  0  0  0  0  0  0  0  0  0  0  0
   56.4861   24.0522   42.0236 H   0  0  0  0  0  0  0  0  0  0  0  0
   56.7560   26.8470   42.5820 H   0  0  0  0  0  0  0  0  0  0  0  0
   58.2500   26.1910   42.0370 H   0  0  0  0  0  0  0  0  0  0  0  0
   59.4683   27.3428   43.4999 H   0  0  0  0  0  0  0  0  0  0  0  0
   58.2530   29.2538   42.9587 H   0  0  0  0  0  0  0  0  0  0  0  0
   56.8001   28.7174   43.8668 H   0  0  0  0  0  0  0  0  0  0  0  0
   59.5241   29.3808   45.1051 H   0  0  0  0  0  0  0  0  0  0  0  0
   58.0624   30.4643   45.0851 H   0  0  0  0  0  0  0  0  0  0  0  0
   58.3867   28.8814   48.4204 H   0  0  0  0  0  0  0  0  0  0  0  0
   59.6734   28.1895   47.3751 H   0  0  0  0  0  0  0  0  0  0  0  0
   59.3716   29.9603   47.3751 H   0  0  0  0  0  0  0  0  0  0  0  0
   57.5665   26.9064   47.2162 H   0  0  0  0  0  0  0  0  0  0  0  0
   56.4678   27.3880   45.8471 H   0  0  0  0  0  0  0  0  0  0  0  0
   59.3538   26.5372   45.7175 H   0  0  0  0  0  0  0  0  0  0  0  0
  1  2  1  0
  2  3  1  0
  3  4  2  0
  4  5  1  0
  5  6  2  0
  6  7  1  0
  7  8  2  0
  7  9  1  0
  9 10  1  0
 10 11  1  0
 11 12  1  0
 12 13  1  0
 13 14  1  0
 13 15  1  0
 15 16  1  0
  8  3  1  0
 16 10  1  0
 16  6  1  0
  1 17  1  0
  1 18  1  0
  1 19  1  0
  4 20  1  0
  5 21  1  0
  8 22  1  0
  9 23  1  0
  9 24  1  0
 10 25  1  6
 11 26  1  0
 11 27  1  0
 12 28  1  0
 12 29  1  0
 14 30  1  0
 14 31  1  0
 14 32  1  0
 15 33  1  0
 15 34  1  0
 16 35  1  1
M  CHG  1   9   1
M  END
>  <UniqueID>  (16) 
16

>  <SMILES>  (16) 
COc1ccc2c(c1)[NH2+][C@H]1CCN(C)C[C@@H]21

>  <Energy>  (16) 
53.267696338493636

>  <Genealogy>  (16) 
COc1ccc2c(c1)[NH2+]C1CCN(C)CC21 (protonated)
COc1ccc2c(c1)[NH2+][C@H]1CCN(C)C[C@@H]21 (chirality)
COc1ccc2c(c1)[NH2+][C@H]1CCN(C)C[C@@H]21 (3D coordinates assigned)
COc1ccc2c(c1)[NH2+][C@H]1CCN(C)C[C@@H]21 (nonaromatic ring conformer: 53.267696338493636 kcal/mol)

>  <smiles>  (16) 
COc1ccc2c(c1)NC1CCN(C)CC21

>  <score_type>  (16) 
oracle

>  <origin>  (16) 
adg

>  <m_score__min__energy>  (16) 
-4.6500000000000004

>  <m_primary>  (16) 
energy

$$$$
16:0
     RDKit          3D

 25 26  0  0  0  0  0  0  0  0999 V2000
   58.1470   27.6530   44.0980 C   0  0  0  0  0  0  0  0  0  0  0  0
   57.3520   27.9870   45.1180 C   0  0  0  0  0  0  0  0  0  0  0  0
   56.3010   29.0540   44.9850 C   0  0  0  0  0  0  0  0  0  0  0  0
   56.8660   30.2510   44.3510 N   0  0  0  0  0  0  0  0  0  0  0  0
   57.4070   31.1820   45.1430 N   0  0  0  0  0  0  0  0  0  0  0  0
   57.9380   32.3380   44.6600 C   0  0  0  0  0  0  0  0  0  0  0  0
   58.5180   33.3120   45.6080 C   0  0  0  0  0  0  0  0  0  0  0  0
   59.1960   34.4920   45.3060 C   0  0  0  0  0  0  0  0  0  0  0  0
   59.6210   35.1960   46.4390 C   0  0  0  0  0  0  0  0  0  0  0  0
   59.2870   34.5820   47.6380 C   0  0  0  0  0  0  0  0  0  0  0  0
   58.4600   33.1630   47.2860 S   0  0  0  0  0  0  0  0  0  0  0  0
   57.9140   32.5650   43.2800 C   0  0  0  0  0  0  0  0  0  0  0  0
   57.3460   31.6080   42.4440 C   0  0  0  0  0  0  0  0  0  0  0  0
   56.8170   30.4420   42.9940 C   0  0  0  0  0  0  0  0  0  0  0  0
   56.3000   29.5790   42.2350 O   0  0  0  0  0  0  0  0  0  0  0  0
   58.9066   26.8679   44.2269 H   0  0  0  0  0  0  0  0  0  0  0  0
   58.0421   28.1630   43.1290 H   0  0  0  0  0  0  0  0  0  0  0  0
   57.4692   27.4678   46.0807 H   0  0  0  0  0  0  0  0  0  0  0  0
   55.4736   28.6732   44.3682 H   0  0  0  0  0  0  0  0  0  0  0  0
   55.9333   29.3202   45.9870 H   0  0  0  0  0  0  0  0  0  0  0  0
   59.3792   34.8365   44.2775 H   0  0  0  0  0  0  0  0  0  0  0  0
   60.1692   36.1481   46.3840 H   0  0  0  0  0  0  0  0  0  0  0  0
   59.5229   34.9591   48.6441 H   0  0  0  0  0  0  0  0  0  0  0  0
   58.3389   33.4888   42.8604 H   0  0  0  0  0  0  0  0  0  0  0  0
   57.3149   31.7710   41.3566 H   0  0  0  0  0  0  0  0  0  0  0  0
  1  2  2  0
  2  3  1  0
  3  4  1  0
  4  5  1  0
  5  6  2  0
  6  7  1  0
  7  8  2  0
  8  9  1  0
  9 10  2  0
 10 11  1  0
  6 12  1  0
 12 13  2  0
 13 14  1  0
 14 15  2  0
 14  4  1  0
 11  7  1  0
  1 16  1  0
  1 17  1  0
  2 18  1  0
  3 19  1  0
  3 20  1  0
  8 21  1  0
  9 22  1  0
 10 23  1  0
 12 24  1  0
 13 25  1  0
M  END
>  <UniqueID>  (17) 
17

>  <SMILES>  (17) 
C=CCn1nc(-c2cccs2)ccc1=O

>  <Energy>  (17) 
50.94206249305662

>  <Genealogy>  (17) 
C=CCn1nc(-c2cccs2)ccc1=O (3D coordinates assigned)
C=CCn1nc(-c2cccs2)ccc1=O (optimized conformer: 50.94206249305662 kcal/mol)

>  <smiles>  (17) 
C=CCn1nc(-c2cccs2)ccc1=O

>  <score_type>  (17) 
oracle

>  <origin>  (17) 
adg

>  <m_score__min__energy>  (17) 
-6.1399999999999997

>  <m_primary>  (17) 
energy

$$$$
17:0
     RDKit          3D

 45 47  0  0  0  0  0  0  0  0999 V2000
   66.0680   32.3610   50.1470 C   0  0  0  0  0  0  0  0  0  0  0  0
   65.3110   33.4990   49.7490 O   0  0  0  0  0  0  0  0  0  0  0  0
   64.0310   33.4380   49.1770 C   0  0  0  0  0  0  0  0  0  0  0  0
   62.9180   34.0850   49.7450 C   0  0  0  0  0  0  0  0  0  0  0  0
   61.6630   33.9930   49.1370 C   0  0  0  0  0  0  0  0  0  0  0  0
   61.4970   33.2550   47.9530 C   0  0  0  0  0  0  0  0  0  0  0  0
   60.2070   33.1720   47.3210 N   0  0  0  0  0  0  0  0  0  0  0  0
   59.7120   34.2730   46.4860 C   0  0  0  0  0  0  0  0  0  0  0  0
   59.2900   33.7270   45.1210 C   0  0  0  0  0  0  0  0  0  0  0  0
   58.4260   32.5410   45.2550 N   0  0  0  0  0  0  0  0  0  0  0  0
   57.7830   32.0310   44.0660 C   0  0  0  0  0  0  0  0  0  0  0  0
   58.2650   32.3080   42.9330 O   0  0  0  0  0  0  0  0  0  0  0  0
   56.5270   31.2040   44.1200 C   0  0  0  0  0  0  0  0  0  0  0  0
   56.8210   29.4950   43.5400 S   0  0  0  0  0  0  0  0  0  0  0  0
   58.0480   29.1160   44.7930 C   0  0  0  0  0  0  0  0  0  0  0  0
   59.4110   29.1980   44.4950 C   0  0  0  0  0  0  0  0  0  0  0  0
   60.3450   28.8920   45.4870 C   0  0  0  0  0  0  0  0  0  0  0  0
   59.9100   28.5130   46.7590 C   0  0  0  0  0  0  0  0  0  0  0  0
   58.5380   28.4490   47.0200 C   0  0  0  0  0  0  0  0  0  0  0  0
   57.6440   28.7500   46.0400 N   0  0  0  0  0  0  0  0  0  0  0  0
   58.1400   31.9890   46.5910 C   0  0  0  0  0  0  0  0  0  0  0  0
   59.4150   31.9390   47.4440 C   0  0  0  0  0  0  0  0  0  0  0  0
   62.6110   32.6170   47.3850 C   0  0  0  0  0  0  0  0  0  0  0  0
   63.8650   32.7080   47.9950 C   0  0  0  0  0  0  0  0  0  0  0  0
   66.1024   32.3093   51.2452 H   0  0  0  0  0  0  0  0  0  0  0  0
   65.5955   31.4497   49.7516 H   0  0  0  0  0  0  0  0  0  0  0  0
   67.0911   32.4446   49.7516 H   0  0  0  0  0  0  0  0  0  0  0  0
   63.0363   34.6658   50.6717 H   0  0  0  0  0  0  0  0  0  0  0  0
   60.7988   34.5021   49.5887 H   0  0  0  0  0  0  0  0  0  0  0  0
   58.8472   34.7446   46.9757 H   0  0  0  0  0  0  0  0  0  0  0  0
   60.5092   35.0191   46.3522 H   0  0  0  0  0  0  0  0  0  0  0  0
   58.7402   34.5097   44.5778 H   0  0  0  0  0  0  0  0  0  0  0  0
   60.1970   33.4319   44.5730 H   0  0  0  0  0  0  0  0  0  0  0  0
   56.1654   31.1714   45.1584 H   0  0  0  0  0  0  0  0  0  0  0  0
   55.7807   31.6682   43.4586 H   0  0  0  0  0  0  0  0  0  0  0  0
   59.7441   29.5000   43.4911 H   0  0  0  0  0  0  0  0  0  0  0  0
   61.4213   28.9493   45.2671 H   0  0  0  0  0  0  0  0  0  0  0  0
   60.6383   28.2678   47.5461 H   0  0  0  0  0  0  0  0  0  0  0  0
   58.1813   28.1551   48.0182 H   0  0  0  0  0  0  0  0  0  0  0  0
   57.3954   32.6249   47.0922 H   0  0  0  0  0  0  0  0  0  0  0  0
   57.7532   30.9659   46.4745 H   0  0  0  0  0  0  0  0  0  0  0  0
   59.1322   31.8019   48.4982 H   0  0  0  0  0  0  0  0  0  0  0  0
   60.0315   31.1013   47.0860 H   0  0  0  0  0  0  0  0  0  0  0  0
   62.4962   32.0421   46.4543 H   0  0  0  0  0  0  0  0  0  0  0  0
   64.7296   32.2010   47.5417 H   0  0  0  0  0  0  0  0  0  0  0  0
  1  2  1  0
  2  3  1  0
  3  4  2  0
  4  5  1  0
  5  6  2  0
  6  7  1  0
  7  8  1  0
  8  9  1  0
  9 10  1  0
 10 11  1  0
 11 12  2  0
 11 13  1  0
 13 14  1  0
 14 15  1  0
 15 16  2  0
 16 17  1  0
 17 18  2  0
 18 19  1  0
 19 20  2  0
 10 21  1  0
 21 22  1  0
  6 23  1  0
 23 24  2  0
 24  3  1  0
 22  7  1  0
 20 15  1  0
  1 25  1  0
  1 26  1  0
  1 27  1  0
  4 28  1  0
  5 29  1  0
  8 30  1  0
  8 31  1  0
  9 32  1  0
  9 33  1  0
 13 34  1  0
 13 35  1  0
 16 36  1  0
 17 37  1  0
 18 38  1  0
 19 39  1  0
 21 40  1  0
 21 41  1  0
 22 42  1  0
 22 43  1  0
 23 44  1  0
 24 45  1  0
M  END
>  <UniqueID>  (18) 
18

>  <SMILES>  (18) 
COc1ccc(N2CCN(C(=O)CSc3ccccn3)CC2)cc1

>  <Energy>  (18) 
47.17548445589731

>  <Genealogy>  (18) 
COc1ccc(N2CCN(C(=O)CSc3ccccn3)CC2)cc1 (3D coordinates assigned)
COc1ccc(N2CCN(C(=O)CSc3ccccn3)CC2)cc1 (nonaromatic ring conformer: 47.17548445589731 kcal/mol)

>  <smiles>  (18) 
COc1ccc(N2CCN(C(=O)CSc3ccccn3)CC2)cc1

>  <score_type>  (18) 
oracle

>  <origin>  (18) 
adg

>  <m_score__min__energy>  (18) 
-7.3600000000000003

>  <m_primary>  (18) 
energy

$$$$
18:0
     RDKit          3D

 62 65  0  0  0  0  0  0  0  0999 V2000
   61.2220   30.1410   53.1180 O   0  0  0  0  0  0  0  0  0  0  0  0
   61.5960   30.4600   51.9990 C   0  0  0  0  0  0  0  0  0  0  0  0
   62.4710   31.6890   51.8640 C   0  0  0  0  0  0  0  0  0  0  0  0
   61.7630   32.7670   51.1430 N   0  0  0  0  0  0  0  0  0  0  0  0
   60.3430   32.8590   51.5440 C   0  0  0  0  0  0  0  0  0  0  0  0
   59.6050   33.8460   50.6350 C   0  0  0  0  0  0  0  0  0  0  0  0
   59.6000   33.4140   49.2120 N   0  0  0  0  0  0  0  0  0  0  0  0
   59.6610   34.5670   48.2850 C   0  0  0  0  0  0  0  0  0  0  0  0
   59.0100   34.2390   46.9640 C   0  0  0  0  0  0  0  0  0  0  0  0
   57.7840   33.5560   46.9210 C   0  0  0  0  0  0  0  0  0  0  0  0
   57.1850   33.2590   45.6920 C   0  0  0  0  0  0  0  0  0  0  0  0
   57.8120   33.6320   44.4990 C   0  0  0  0  0  0  0  0  0  0  0  0
   59.0410   34.2980   44.5330 C   0  0  0  0  0  0  0  0  0  0  0  0
   59.6390   34.6000   45.7600 C   0  0  0  0  0  0  0  0  0  0  0  0
   60.6500   32.4140   48.8980 C   0  0  0  0  0  0  0  0  0  0  0  0
   61.9580   32.6750   49.6700 C   0  0  0  0  0  0  0  0  0  0  0  0
   61.2190   29.6400   50.8600 N   0  0  0  0  0  0  0  0  0  0  0  0
   59.8420   29.9580   50.4140 C   0  0  0  0  0  0  0  0  0  0  0  0
   59.3180   28.9360   49.3830 C   0  0  0  0  0  0  0  0  0  0  0  0
   60.4310   28.1510   48.8300 N   0  0  0  0  0  0  0  0  0  0  0  0
   59.8660   27.1220   47.5370 S   0  0  0  0  0  0  0  0  0  0  0  0
   58.9640   26.0600   48.1050 O   0  0  0  0  0  0  0  0  0  0  0  0
   61.0430   26.4380   46.8970 O   0  0  0  0  0  0  0  0  0  0  0  0
   58.9920   28.0380   46.3060 C   0  0  0  0  0  0  0  0  0  0  0  0
   58.0700   27.3940   45.4670 C   0  0  0  0  0  0  0  0  0  0  0  0
   57.3740   28.1230   44.4990 C   0  0  0  0  0  0  0  0  0  0  0  0
   57.5940   29.4980   44.3610 C   0  0  0  0  0  0  0  0  0  0  0  0
   56.6380   30.4950   43.0420 Br  0  0  0  0  0  0  0  0  0  0  0  0
   58.5150   30.1440   45.1930 C   0  0  0  0  0  0  0  0  0  0  0  0
   59.2110   29.4150   46.1640 C   0  0  0  0  0  0  0  0  0  0  0  0
   61.0690   27.3450   49.8880 C   0  0  0  0  0  0  0  0  0  0  0  0
   61.3810   28.1980   51.1410 C   0  0  0  0  0  0  0  0  0  0  0  0
   62.7453   32.0472   52.8672 H   0  0  0  0  0  0  0  0  0  0  0  0
   63.3706   31.4174   51.2923 H   0  0  0  0  0  0  0  0  0  0  0  0
   59.8757   31.8668   51.4598 H   0  0  0  0  0  0  0  0  0  0  0  0
   60.2836   33.2122   52.5840 H   0  0  0  0  0  0  0  0  0  0  0  0
   58.5645   33.9340   50.9808 H   0  0  0  0  0  0  0  0  0  0  0  0
   60.1319   34.8100   50.6902 H   0  0  0  0  0  0  0  0  0  0  0  0
   59.1388   35.4215   48.7401 H   0  0  0  0  0  0  0  0  0  0  0  0
   60.7177   34.8116   48.1018 H   0  0  0  0  0  0  0  0  0  0  0  0
   57.2925   33.2532   47.8573 H   0  0  0  0  0  0  0  0  0  0  0  0
   56.2201   32.7316   45.6641 H   0  0  0  0  0  0  0  0  0  0  0  0
   57.3382   33.4014   43.5334 H   0  0  0  0  0  0  0  0  0  0  0  0
   59.5374   34.5844   43.5941 H   0  0  0  0  0  0  0  0  0  0  0  0
   60.6066   35.1227   45.7833 H   0  0  0  0  0  0  0  0  0  0  0  0
   60.2764   31.4140   49.1634 H   0  0  0  0  0  0  0  0  0  0  0  0
   60.8737   32.4880   47.8235 H   0  0  0  0  0  0  0  0  0  0  0  0
   62.6572   31.8519   49.4609 H   0  0  0  0  0  0  0  0  0  0  0  0
   62.3484   33.6460   49.3314 H   0  0  0  0  0  0  0  0  0  0  0  0
   61.8690   29.8790   50.0720 H   0  0  0  0  0  0  0  0  0  0  0  0
   59.1753   29.9536   51.2889 H   0  0  0  0  0  0  0  0  0  0  0  0
   59.8604   30.9471   49.9330 H   0  0  0  0  0  0  0  0  0  0  0  0
   58.6050   28.2578   49.8747 H   0  0  0  0  0  0  0  0  0  0  0  0
   58.8210   29.4771   48.5643 H   0  0  0  0  0  0  0  0  0  0  0  0
   57.8947   26.3131   45.5714 H   0  0  0  0  0  0  0  0  0  0  0  0
   56.6513   27.6146   43.8438 H   0  0  0  0  0  0  0  0  0  0  0  0
   58.6919   31.2242   45.0840 H   0  0  0  0  0  0  0  0  0  0  0  0
   59.9331   29.9250   46.8186 H   0  0  0  0  0  0  0  0  0  0  0  0
   60.3906   26.5271   50.1723 H   0  0  0  0  0  0  0  0  0  0  0  0
   62.0172   26.9489   49.4955 H   0  0  0  0  0  0  0  0  0  0  0  0
   60.6940   27.9109   51.9507 H   0  0  0  0  0  0  0  0  0  0  0  0
   62.4251   28.0157   51.4352 H   0  0  0  0  0  0  0  0  0  0  0  0
  1  2  2  0
  2  3  1  0
  3  4  1  0
  4  5  1  0
  5  6  1  0
  6  7  1  0
  7  8  1  0
  8  9  1  0
  9 10  2  0
 10 11  1  0
 11 12  2  0
 12 13  1  0
 13 14  2  0
  7 15  1  0
 15 16  1  0
  2 17  1  0
 17 18  1  0
 18 19  1  0
 19 20  1  0
 20 21  1  0
 21 22  2  0
 21 23  2  0
 21 24  1  0
 24 25  2  0
 25 26  1  0
 26 27  2  0
 27 28  1  0
 27 29  1  0
 29 30  2  0
 20 31  1  0
 31 32  1  0
 16  4  1  0
 32 17  1  0
 14  9  1  0
 30 24  1  0
  3 33  1  0
  3 34  1  0
  5 35  1  0
  5 36  1  0
  6 37  1  0
  6 38  1  0
  8 39  1  0
  8 40  1  0
 10 41  1  0
 11 42  1  0
 12 43  1  0
 13 44  1  0
 14 45  1  0
 15 46  1  0
 15 47  1  0
 16 48  1  0
 16 49  1  0
 17 50  1  0
 18 51  1  0
 18 52  1  0
 19 53  1  0
 19 54  1  0
 25 55  1  0
 26 56  1  0
 29 57  1  0
 30 58  1  0
 31 59  1  0
 31 60  1  0
 32 61  1  0
 32 62  1  0
M  CHG  1  17   1
M  END
>  <UniqueID>  (19) 
19

>  <SMILES>  (19) 
O=C(CN1CCN(Cc2ccccc2)CC1)[NH+]1CCN(S(=O)(=O)c2ccc(Br)cc2)CC1

>  <Energy>  (19) 
85.86358345555466

>  <Genealogy>  (19) 
O=C(CN1CCN(Cc2ccccc2)CC1)[NH+]1CCN(S(=O)(=O)c2ccc(Br)cc2)CC1 (protonated)
O=C(CN1CCN(Cc2ccccc2)CC1)[NH+]1CCN(S(=O)(=O)c2ccc(Br)cc2)CC1 (3D coordinates assigned)
O=C(CN1CCN(Cc2ccccc2)CC1)[NH+]1CCN(S(=O)(=O)c2ccc(Br)cc2)CC1 (nonaromatic ring conformer: 85.86358345555466 kcal/mol)

>  <smiles>  (19) 
O=C(CN1CCN(Cc2ccccc2)CC1)N1CCN(S(=O)(=O)c2ccc(Br)cc2)CC1

>  <score_type>  (19) 
oracle

>  <origin>  (19) 
adg

>  <m_score__min__energy>  (19) 
-8.3399999999999999

>  <m_primary>  (19) 
energy

$$$$
19:0
     RDKit          3D

 54 56  0  0  0  0  0  0  0  0999 V2000
   60.8640   28.7290   44.9580 C   0  0  0  0  0  0  0  0  0  0  0  0
   59.9640   29.7960   45.5720 C   0  0  0  0  0  0  0  0  0  0  0  0
   58.6130   29.2650   45.8190 N   0  0  0  0  0  0  0  0  0  0  0  0
   57.4320   30.0140   45.3600 C   0  0  0  0  0  0  0  0  0  0  0  0
   57.7820   31.3660   44.7220 C   0  0  0  0  0  0  0  0  0  0  0  0
   56.6510   32.2970   44.8320 N   0  0  0  0  0  0  0  0  0  0  0  0
   57.0980   33.6530   45.1760 C   0  0  0  0  0  0  0  0  0  0  0  0
   58.3820   33.5940   45.9590 C   0  0  0  0  0  0  0  0  0  0  0  0
   58.3660   33.1960   47.3040 C   0  0  0  0  0  0  0  0  0  0  0  0
   59.5520   33.1570   48.0430 C   0  0  0  0  0  0  0  0  0  0  0  0
   60.7760   33.5140   47.4500 C   0  0  0  0  0  0  0  0  0  0  0  0
   62.0370   33.4730   48.2360 C   0  0  0  0  0  0  0  0  0  0  0  0
   62.0500   33.8290   49.5950 C   0  0  0  0  0  0  0  0  0  0  0  0
   63.2410   33.7850   50.3200 C   0  0  0  0  0  0  0  0  0  0  0  0
   64.4160   33.3860   49.6830 C   0  0  0  0  0  0  0  0  0  0  0  0
   64.3970   33.0440   48.3670 N   0  0  0  0  0  0  0  0  0  0  0  0
   63.2470   33.0780   47.6390 C   0  0  0  0  0  0  0  0  0  0  0  0
   60.7870   33.9120   46.1010 C   0  0  0  0  0  0  0  0  0  0  0  0
   59.6000   33.9530   45.3630 C   0  0  0  0  0  0  0  0  0  0  0  0
   58.4690   27.8410   45.9910 C   0  0  0  0  0  0  0  0  0  0  0  0
   58.5960   27.2900   47.2760 C   0  0  0  0  0  0  0  0  0  0  0  0
   58.4870   25.9110   47.4710 C   0  0  0  0  0  0  0  0  0  0  0  0
   58.2610   25.0680   46.3830 C   0  0  0  0  0  0  0  0  0  0  0  0
   58.1660   23.7280   46.5730 F   0  0  0  0  0  0  0  0  0  0  0  0
   58.1440   25.6000   45.0970 C   0  0  0  0  0  0  0  0  0  0  0  0
   58.2380   26.9870   44.8870 C   0  0  0  0  0  0  0  0  0  0  0  0
   58.1360   27.5270   43.4900 C   0  0  0  0  0  0  0  0  0  0  0  0
   61.3496   28.1533   45.7597 H   0  0  0  0  0  0  0  0  0  0  0  0
   60.2593   28.0530   44.3357 H   0  0  0  0  0  0  0  0  0  0  0  0
   61.6323   29.2111   44.3357 H   0  0  0  0  0  0  0  0  0  0  0  0
   60.3997   30.1297   46.5253 H   0  0  0  0  0  0  0  0  0  0  0  0
   59.8875   30.6385   44.8689 H   0  0  0  0  0  0  0  0  0  0  0  0
   56.8990   29.4040   44.6158 H   0  0  0  0  0  0  0  0  0  0  0  0
   56.8128   30.2214   46.2452 H   0  0  0  0  0  0  0  0  0  0  0  0
   58.6543   31.7942   45.2375 H   0  0  0  0  0  0  0  0  0  0  0  0
   58.0094   31.2079   43.6574 H   0  0  0  0  0  0  0  0  0  0  0  0
   56.0440   31.9640   45.6160 H   0  0  0  0  0  0  0  0  0  0  0  0
   57.2619   34.2269   44.2520 H   0  0  0  0  0  0  0  0  0  0  0  0
   56.3258   34.1408   45.7890 H   0  0  0  0  0  0  0  0  0  0  0  0
   57.4154   32.9131   47.7797 H   0  0  0  0  0  0  0  0  0  0  0  0
   59.5275   32.8444   49.0974 H   0  0  0  0  0  0  0  0  0  0  0  0
   61.1186   34.1433   50.0887 H   0  0  0  0  0  0  0  0  0  0  0  0
   63.2534   34.0624   51.3844 H   0  0  0  0  0  0  0  0  0  0  0  0
   65.3600   33.3479   50.2464 H   0  0  0  0  0  0  0  0  0  0  0  0
   65.2860   32.7500   47.9030 H   0  0  0  0  0  0  0  0  0  0  0  0
   63.2647   32.7944   46.5763 H   0  0  0  0  0  0  0  0  0  0  0  0
   61.7368   34.1932   45.6228 H   0  0  0  0  0  0  0  0  0  0  0  0
   59.6215   34.2685   44.3094 H   0  0  0  0  0  0  0  0  0  0  0  0
   58.7829   27.9495   48.1363 H   0  0  0  0  0  0  0  0  0  0  0  0
   58.5794   25.4898   48.4830 H   0  0  0  0  0  0  0  0  0  0  0  0
   57.9770   24.9286   44.2418 H   0  0  0  0  0  0  0  0  0  0  0  0
   57.9320   28.6072   43.5284 H   0  0  0  0  0  0  0  0  0  0  0  0
   59.0832   27.3514   42.9590 H   0  0  0  0  0  0  0  0  0  0  0  0
   57.3181   27.0180   42.9590 H   0  0  0  0  0  0  0  0  0  0  0  0
  1  2  1  0
  2  3  1  0
  3  4  1  0
  4  5  1  0
  5  6  1  0
  6  7  1  0
  7  8  1  0
  8  9  2  0
  9 10  1  0
 10 11  2  0
 11 12  1  0
 12 13  2  0
 13 14  1  0
 14 15  2  0
 15 16  1  0
 16 17  2  0
 11 18  1  0
 18 19  2  0
  3 20  1  0
 20 21  2  0
 21 22  1  0
 22 23  2  0
 23 24  1  0
 23 25  1  0
 25 26  2  0
 26 27  1  0
 19  8  1  0
 26 20  1  0
 17 12  1  0
  1 28  1  0
  1 29  1  0
  1 30  1  0
  2 31  1  0
  2 32  1  0
  4 33  1  0
  4 34  1  0
  5 35  1  0
  5 36  1  0
  6 37  1  0
  7 38  1  0
  7 39  1  0
  9 40  1  0
 10 41  1  0
 13 42  1  0
 14 43  1  0
 15 44  1  0
 16 45  1  0
 17 46  1  0
 18 47  1  0
 19 48  1  0
 21 49  1  0
 22 50  1  0
 25 51  1  0
 27 52  1  0
 27 53  1  0
 27 54  1  0
M  CHG  1  16   1
M  END
>  <UniqueID>  (20) 
20

>  <SMILES>  (20) 
CCN(CCNCc1ccc(-c2ccc[nH+]c2)cc1)c1ccc(F)cc1C

>  <Energy>  (20) 
60.67637812658643

>  <Genealogy>  (20) 
CCN(CCNCc1ccc(-c2ccc[nH+]c2)cc1)c1ccc(F)cc1C (protonated)
CCN(CCNCc1ccc(-c2ccc[nH+]c2)cc1)c1ccc(F)cc1C (3D coordinates assigned)
CCN(CCNCc1ccc(-c2ccc[nH+]c2)cc1)c1ccc(F)cc1C (optimized conformer: 60.67637812658643 kcal/mol)

>  <smiles>  (20) 
CCN(CCNCc1ccc(-c2cccnc2)cc1)c1ccc(F)cc1C

>  <score_type>  (20) 
oracle

>  <origin>  (20) 
adg

>  <m_score__min__energy>  (20) 
-6.7999999999999998

>  <m_primary>  (20) 
energy

$$$$
20:0
     RDKit          3D

 32 35  0  0  0  0  0  0  0  0999 V2000
   56.5020   23.2630   43.0260 C   0  0  0  0  0  0  0  0  0  0  0  0
   57.0360   23.7850   44.2380 O   0  0  0  0  0  0  0  0  0  0  0  0
   57.2130   25.1520   44.5010 C   0  0  0  0  0  0  0  0  0  0  0  0
   57.7730   25.9540   43.5010 C   0  0  0  0  0  0  0  0  0  0  0  0
   57.9700   27.3220   43.7140 C   0  0  0  0  0  0  0  0  0  0  0  0
   57.6090   27.9140   44.9380 C   0  0  0  0  0  0  0  0  0  0  0  0
   57.8110   29.3640   45.1840 C   0  0  0  0  0  0  0  0  0  0  0  0
   58.9260   29.9570   45.7960 C   0  0  0  0  0  0  0  0  0  0  0  0
   58.6760   31.2670   45.8020 N   0  0  0  0  0  0  0  0  0  0  0  0
   57.4970   31.4470   45.2360 C   0  0  0  0  0  0  0  0  0  0  0  0
   56.8990   30.3160   44.8260 N   0  0  0  0  0  0  0  0  0  0  0  0
   57.0260   33.0680   45.1620 S   0  0  0  0  0  0  0  0  0  0  0  0
   58.4840   33.5330   45.9320 C   0  0  0  0  0  0  0  0  0  0  0  0
   58.9120   34.8120   46.2730 C   0  0  0  0  0  0  0  0  0  0  0  0
   60.1600   34.9500   46.9060 C   0  0  0  0  0  0  0  0  0  0  0  0
   60.9520   33.8160   47.1860 C   0  0  0  0  0  0  0  0  0  0  0  0
   60.5070   32.5290   46.8370 C   0  0  0  0  0  0  0  0  0  0  0  0
   59.2660   32.4100   46.2090 C   0  0  0  0  0  0  0  0  0  0  0  0
   57.0470   27.1050   45.9410 C   0  0  0  0  0  0  0  0  0  0  0  0
   56.8500   25.7370   45.7260 C   0  0  0  0  0  0  0  0  0  0  0  0
   55.7331   22.5113   43.2579 H   0  0  0  0  0  0  0  0  0  0  0  0
   56.0523   24.0794   42.4418 H   0  0  0  0  0  0  0  0  0  0  0  0
   57.3080   22.7949   42.4418 H   0  0  0  0  0  0  0  0  0  0  0  0
   58.0608   25.5048   42.5390 H   0  0  0  0  0  0  0  0  0  0  0  0
   58.4108   27.9401   42.9180 H   0  0  0  0  0  0  0  0  0  0  0  0
   59.8188   29.4481   46.1884 H   0  0  0  0  0  0  0  0  0  0  0  0
   58.2903   35.6924   46.0532 H   0  0  0  0  0  0  0  0  0  0  0  0
   60.5221   35.9504   47.1853 H   0  0  0  0  0  0  0  0  0  0  0  0
   61.9261   33.9403   47.6817 H   0  0  0  0  0  0  0  0  0  0  0  0
   61.1193   31.6410   47.0526 H   0  0  0  0  0  0  0  0  0  0  0  0
   56.7595   27.5521   46.9040 H   0  0  0  0  0  0  0  0  0  0  0  0
   56.4088   25.1161   46.5196 H   0  0  0  0  0  0  0  0  0  0  0  0
  1  2  1  0
  2  3  1  0
  3  4  2  0
  4  5  1  0
  5  6  2  0
  6  7  1  0
  7  8  2  0
  8  9  1  0
  9 10  1  0
 10 11  2  0
 10 12  1  0
 12 13  1  0
 13 14  2  0
 14 15  1  0
 15 16  2  0
 16 17  1  0
 17 18  2  0
  6 19  1  0
 19 20  2  0
 20  3  1  0
 11  7  1  0
 18 13  1  0
 18  9  1  0
  1 21  1  0
  1 22  1  0
  1 23  1  0
  4 24  1  0
  5 25  1  0
  8 26  1  0
 14 27  1  0
 15 28  1  0
 16 29  1  0
 17 30  1  0
 19 31  1  0
 20 32  1  0
M  END
>  <UniqueID>  (21) 
21

>  <SMILES>  (21) 
COc1ccc(-c2cn3c(n2)sc2ccccc23)cc1

>  <Energy>  (21) 
121.0113569724952

>  <Genealogy>  (21) 
COc1ccc(-c2cn3c(n2)sc2ccccc23)cc1 (3D coordinates assigned)
COc1ccc(-c2cn3c(n2)sc2ccccc23)cc1 (optimized conformer: 121.0113569724952 kcal/mol)

>  <smiles>  (21) 
COc1ccc(-c2cn3c(n2)sc2ccccc23)cc1

>  <score_type>  (21) 
oracle

>  <origin>  (21) 
adg

>  <m_score__min__energy>  (21) 
-6.8600000000000003

>  <m_primary>  (21) 
energy

$$$$
21:0
     RDKit          3D

 41 43  0  0  0  0  0  0  0  0999 V2000
   61.2479   28.8275   44.7800 H   0  0  0  0  0  0  0  0  0  0  0  0
   60.4030   28.2300   45.1530 C   0  0  0  0  0  0  0  0  0  0  0  0
   60.6400   27.1230   45.9680 C   0  0  0  0  0  0  0  0  0  0  0  0
   61.6703   26.8547   46.2447 H   0  0  0  0  0  0  0  0  0  0  0  0
   59.5700   26.3550   46.4330 C   0  0  0  0  0  0  0  0  0  0  0  0
   59.7640   25.4782   47.0682 H   0  0  0  0  0  0  0  0  0  0  0  0
   58.2450   26.6930   46.0960 C   0  0  0  0  0  0  0  0  0  0  0  0
   57.0880   25.8460   46.5830 C   0  0  0  0  0  0  0  0  0  0  0  0
   55.9210   26.5830   46.6940 F   0  0  0  0  0  0  0  0  0  0  0  0
   56.8650   24.8080   45.6970 F   0  0  0  0  0  0  0  0  0  0  0  0
   57.3920   25.3200   47.8270 F   0  0  0  0  0  0  0  0  0  0  0  0
   58.0060   27.8360   45.2950 C   0  0  0  0  0  0  0  0  0  0  0  0
   56.6530   28.1790   44.9480 N   0  0  0  0  0  0  0  0  0  0  0  0
   56.1920   29.3960   44.3460 C   0  0  0  0  0  0  0  0  0  0  0  0
   55.2520   30.0580   44.8600 O   0  0  0  0  0  0  0  0  0  0  0  0
   56.7780   29.8350   43.0410 C   0  0  0  0  0  0  0  0  0  0  0  0
   57.5480   29.1105   42.7375 H   0  0  0  0  0  0  0  0  0  0  0  0
   55.9614   29.8855   42.3057 H   0  0  0  0  0  0  0  0  0  0  0  0
   57.4170   31.2260   43.1280 C   0  0  0  0  0  0  0  0  0  0  0  0
   58.5114   31.1220   43.0883 H   0  0  0  0  0  0  0  0  0  0  0  0
   57.0557   31.8305   42.2829 H   0  0  0  0  0  0  0  0  0  0  0  0
   57.0450   31.8990   44.3750 N   0  0  0  0  0  0  0  0  0  0  0  0
   56.0770   32.2910   44.3860 H   0  0  0  0  0  0  0  0  0  0  0  0
   57.7230   31.9540   45.4950 C   0  0  0  0  0  0  0  0  0  0  0  0
   58.6290   33.0480   45.9720 C   0  0  0  0  0  0  0  0  0  0  0  0
   58.6520   34.4110   45.6270 C   0  0  0  0  0  0  0  0  0  0  0  0
   57.9714   34.7978   44.8542 H   0  0  0  0  0  0  0  0  0  0  0  0
   59.5490   35.2750   46.2750 C   0  0  0  0  0  0  0  0  0  0  0  0
   59.5982   36.3330   45.9779 H   0  0  0  0  0  0  0  0  0  0  0  0
   60.3820   34.8010   47.2970 C   0  0  0  0  0  0  0  0  0  0  0  0
   61.0975   35.4811   47.7823 H   0  0  0  0  0  0  0  0  0  0  0  0
   60.3050   33.4640   47.7010 C   0  0  0  0  0  0  0  0  0  0  0  0
   60.9281   33.0905   48.5270 H   0  0  0  0  0  0  0  0  0  0  0  0
   59.4220   32.6140   47.0350 C   0  0  0  0  0  0  0  0  0  0  0  0
   59.0320   30.9930   47.5070 S   0  0  0  0  0  0  0  0  0  0  0  0
   60.1650   30.0350   47.2660 O   0  0  0  0  0  0  0  0  0  0  0  0
   58.4990   30.9120   48.9090 O   0  0  0  0  0  0  0  0  0  0  0  0
   57.7820   30.8010   46.3450 N   0  0  0  0  0  0  0  0  0  0  0  0
   57.2960   29.8970   46.1590 H   0  0  0  0  0  0  0  0  0  0  0  0
   59.0980   28.5810   44.8100 C   0  0  0  0  0  0  0  0  0  0  0  0
   58.9200   29.4468   44.1553 H   0  0  0  0  0  0  0  0  0  0  0  0
  1  2  1  0
  2  3  2  0
  3  4  1  0
  3  5  1  0
  5  6  1  0
  5  7  2  0
  7  8  1  0
  8  9  1  0
  8 10  1  0
  8 11  1  0
  7 12  1  0
 12 13  1  0
 13 14  1  0
 14 15  2  0
 14 16  1  0
 16 17  1  0
 16 18  1  0
 16 19  1  0
 19 20  1  0
 19 21  1  0
 19 22  1  0
 22 23  1  0
 22 24  2  0
 24 25  1  0
 25 26  2  0
 26 27  1  0
 26 28  1  0
 28 29  1  0
 28 30  2  0
 30 31  1  0
 30 32  1  0
 32 33  1  0
 32 34  2  0
 34 35  1  0
 35 36  2  0
 35 37  2  0
 35 38  1  0
 38 39  1  0
 12 40  2  0
 40 41  1  0
 40  2  1  0
 38 24  1  0
 34 25  1  0
M  CHG  2  13  -1  22   1
M  END
>  <UniqueID>  (22) 
22

>  <SMILES>  (22) 
O=C(CC/[NH+]=C1/NS(=O)(=O)c2ccccc21)[N-]c1ccccc1C(F)(F)F

>  <Energy>  (22) 
77.08657781869192

>  <Genealogy>  (22) 
O=C(CC[NH+]=C1NS(=O)(=O)c2ccccc21)[N-]c1ccccc1C(F)(F)F (protonated)
O=C(CC/[NH+]=C1/NS(=O)(=O)c2ccccc21)[N-]c1ccccc1C(F)(F)F (cis-trans isomerization)
O=C(CC/[NH+]=C1/NS(=O)(=O)c2ccccc21)[N-]c1ccccc1C(F)(F)F (3D coordinates assigned)
O=C(CC/[NH+]=C1/NS(=O)(=O)c2ccccc21)[N-]c1ccccc1C(F)(F)F (nonaromatic ring conformer: 77.08657781869192 kcal/mol)

>  <smiles>  (22) 
O=C(CCN=C1NS(=O)(=O)c2ccccc21)Nc1ccccc1C(F)(F)F

>  <score_type>  (22) 
oracle

>  <origin>  (22) 
adg

>  <m_score__min__energy>  (22) 
-8.5299999999999994

>  <m_primary>  (22) 
energy

$$$$
22:0
     RDKit          3D

 42 45  0  0  0  0  0  0  0  0999 V2000
   63.8080   33.8990   48.4170 C   0  0  0  0  0  0  0  0  0  0  0  0
   62.7880   34.1510   49.3370 C   0  0  0  0  0  0  0  0  0  0  0  0
   61.4510   33.9550   48.9760 C   0  0  0  0  0  0  0  0  0  0  0  0
   61.1240   33.5030   47.6840 C   0  0  0  0  0  0  0  0  0  0  0  0
   59.7120   33.2980   47.2990 C   0  0  0  0  0  0  0  0  0  0  0  0
   58.6670   33.5320   48.1190 N   0  0  0  0  0  0  0  0  0  0  0  0
   57.6170   33.2270   47.4210 O   0  0  0  0  0  0  0  0  0  0  0  0
   57.9820   32.8230   46.2300 C   0  0  0  0  0  0  0  0  0  0  0  0
   57.0250   32.3710   45.1580 C   0  0  0  0  0  0  0  0  0  0  0  0
   56.8170   30.9050   45.1240 N   0  0  0  0  0  0  0  0  0  0  0  0
   55.8540   30.4650   44.1030 C   0  0  0  0  0  0  0  0  0  0  0  0
   56.6260   29.6880   43.0540 C   0  0  0  0  0  0  0  0  0  0  0  0
   57.8070   29.1220   43.8090 C   0  0  0  0  0  0  0  0  0  0  0  0
   58.0610   30.1300   44.9310 C   0  0  2  0  0  0  0  0  0  0  0  0
   58.4580   29.4420   46.2180 C   0  0  0  0  0  0  0  0  0  0  0  0
   58.6450   28.0490   46.2570 C   0  0  0  0  0  0  0  0  0  0  0  0
   59.0310   27.4390   47.4520 C   0  0  0  0  0  0  0  0  0  0  0  0
   59.2350   28.2140   48.5910 C   0  0  0  0  0  0  0  0  0  0  0  0
   59.0530   29.5960   48.5200 C   0  0  0  0  0  0  0  0  0  0  0  0
   58.6770   30.1790   47.3490 N   0  0  0  0  0  0  0  0  0  0  0  0
   59.3210   32.8470   46.0880 N   0  0  0  0  0  0  0  0  0  0  0  0
   62.1590   33.2530   46.7640 C   0  0  0  0  0  0  0  0  0  0  0  0
   63.4940   33.4510   47.1310 C   0  0  0  0  0  0  0  0  0  0  0  0
   64.8585   34.0531   48.7045 H   0  0  0  0  0  0  0  0  0  0  0  0
   63.0368   34.5046   50.3485 H   0  0  0  0  0  0  0  0  0  0  0  0
   60.6518   34.1550   49.7049 H   0  0  0  0  0  0  0  0  0  0  0  0
   56.0532   32.8555   45.3335 H   0  0  0  0  0  0  0  0  0  0  0  0
   57.4677   32.6550   44.1919 H   0  0  0  0  0  0  0  0  0  0  0  0
   55.0893   29.8204   44.5609 H   0  0  0  0  0  0  0  0  0  0  0  0
   55.3470   31.3297   43.6500 H   0  0  0  0  0  0  0  0  0  0  0  0
   56.0086   28.8808   42.6330 H   0  0  0  0  0  0  0  0  0  0  0  0
   56.9303   30.3152   42.2031 H   0  0  0  0  0  0  0  0  0  0  0  0
   57.5659   28.1317   44.2228 H   0  0  0  0  0  0  0  0  0  0  0  0
   58.6876   28.9814   43.1649 H   0  0  0  0  0  0  0  0  0  0  0  0
   58.8956   30.7905   44.6532 H   0  0  0  0  0  0  0  0  0  0  0  0
   58.4882   27.4438   45.3519 H   0  0  0  0  0  0  0  0  0  0  0  0
   59.1736   26.3491   47.4938 H   0  0  0  0  0  0  0  0  0  0  0  0
   59.5367   27.7415   49.5374 H   0  0  0  0  0  0  0  0  0  0  0  0
   59.2141   30.2164   49.4139 H   0  0  0  0  0  0  0  0  0  0  0  0
   58.5570   31.2170   47.3290 H   0  0  0  0  0  0  0  0  0  0  0  0
   61.9168   32.8999   45.7507 H   0  0  0  0  0  0  0  0  0  0  0  0
   64.2979   33.2538   46.4065 H   0  0  0  0  0  0  0  0  0  0  0  0
  1  2  2  0
  2  3  1  0
  3  4  2  0
  4  5  1  0
  5  6  2  0
  6  7  1  0
  7  8  1  0
  8  9  1  0
  9 10  1  0
 10 11  1  0
 11 12  1  0
 12 13  1  0
 13 14  1  0
 14 15  1  0
 15 16  2  0
 16 17  1  0
 17 18  2  0
 18 19  1  0
 19 20  2  0
  8 21  2  0
  4 22  1  0
 22 23  2  0
 23  1  1  0
 21  5  1  0
 14 10  1  0
 20 15  1  0
  1 24  1  0
  2 25  1  0
  3 26  1  0
  9 27  1  0
  9 28  1  0
 11 29  1  0
 11 30  1  0
 12 31  1  0
 12 32  1  0
 13 33  1  0
 13 34  1  0
 14 35  1  6
 16 36  1  0
 17 37  1  0
 18 38  1  0
 19 39  1  0
 20 40  1  0
 22 41  1  0
 23 42  1  0
M  CHG  1  20   1
M  END
>  <UniqueID>  (23) 
23

>  <SMILES>  (23) 
c1ccc(-c2noc(CN3CCC[C@@H]3c3cccc[nH+]3)n2)cc1

>  <Energy>  (23) 
83.59113845703445

>  <Genealogy>  (23) 
c1ccc(-c2noc(CN3CCCC3c3cccc[nH+]3)n2)cc1 (protonated)
c1ccc(-c2noc(CN3CCC[C@@H]3c3cccc[nH+]3)n2)cc1 (chirality)
c1ccc(-c2noc(CN3CCC[C@@H]3c3cccc[nH+]3)n2)cc1 (3D coordinates assigned)
c1ccc(-c2noc(CN3CCC[C@@H]3c3cccc[nH+]3)n2)cc1 (nonaromatic ring conformer: 83.59113845703445 kcal/mol)

>  <smiles>  (23) 
c1ccc(-c2noc(CN3CCCC3c3ccccn3)n2)cc1

>  <score_type>  (23) 
oracle

>  <origin>  (23) 
adg

>  <m_score__min__energy>  (23) 
-7.21

>  <m_primary>  (23) 
energy

$$$$
23:0
     RDKit          3D

 39 41  0  0  0  0  0  0  0  0999 V2000
   65.4440   32.3410   50.1290 C   0  0  0  0  0  0  0  0  0  0  0  0
   65.0240   33.1090   49.0070 O   0  0  0  0  0  0  0  0  0  0  0  0
   63.7760   32.9740   48.3780 C   0  0  0  0  0  0  0  0  0  0  0  0
   62.9220   31.9520   48.8050 C   0  0  0  0  0  0  0  0  0  0  0  0
   61.6690   31.7780   48.2120 C   0  0  0  0  0  0  0  0  0  0  0  0
   61.2460   32.6340   47.1830 C   0  0  0  0  0  0  0  0  0  0  0  0
   59.9630   32.4580   46.5580 N   0  0  0  0  0  0  0  0  0  0  0  0
   59.0350   33.4060   46.4890 N   0  0  0  0  0  0  0  0  0  0  0  0
   57.9450   32.9170   45.8590 C   0  0  0  0  0  0  0  0  0  0  0  0
   58.2060   31.6050   45.5240 C   0  0  0  0  0  0  0  0  0  0  0  0
   59.4670   31.3400   45.9850 C   0  0  0  0  0  0  0  0  0  0  0  0
   60.1150   29.9870   45.8600 C   0  0  0  0  0  0  0  0  0  0  0  0
   59.0430   28.8540   45.7430 C   0  0  0  0  0  0  0  0  0  0  0  0
   59.7420   27.5500   45.3130 C   0  0  0  0  0  0  0  0  0  0  0  0
   58.3780   28.6180   47.1190 C   0  0  0  0  0  0  0  0  0  0  0  0
   57.9510   29.2170   44.6810 C   0  0  0  0  0  0  0  0  0  0  0  0
   57.3610   30.5880   44.9030 C   0  0  0  0  0  0  0  0  0  0  0  0
   56.1940   30.8610   44.5200 O   0  0  0  0  0  0  0  0  0  0  0  0
   62.1070   33.6500   46.7420 C   0  0  0  0  0  0  0  0  0  0  0  0
   63.3600   33.8260   47.3360 C   0  0  0  0  0  0  0  0  0  0  0  0
   65.1599   32.8605   51.0560 H   0  0  0  0  0  0  0  0  0  0  0  0
   64.9604   31.3535   50.0991 H   0  0  0  0  0  0  0  0  0  0  0  0
   66.5364   32.2153   50.0991 H   0  0  0  0  0  0  0  0  0  0  0  0
   63.2398   31.2791   49.6151 H   0  0  0  0  0  0  0  0  0  0  0  0
   61.0103   30.9658   48.5533 H   0  0  0  0  0  0  0  0  0  0  0  0
   59.1390   34.3770   46.8580 H   0  0  0  0  0  0  0  0  0  0  0  0
   57.0154   33.4669   45.6504 H   0  0  0  0  0  0  0  0  0  0  0  0
   60.7493   29.9748   44.9614 H   0  0  0  0  0  0  0  0  0  0  0  0
   60.7168   29.8047   46.7626 H   0  0  0  0  0  0  0  0  0  0  0  0
   60.0451   26.9846   46.2066 H   0  0  0  0  0  0  0  0  0  0  0  0
   59.0484   26.9429   44.7127 H   0  0  0  0  0  0  0  0  0  0  0  0
   60.6316   27.7915   44.7127 H   0  0  0  0  0  0  0  0  0  0  0  0
   59.0900   28.8707   47.9185 H   0  0  0  0  0  0  0  0  0  0  0  0
   57.4851   29.2541   47.2086 H   0  0  0  0  0  0  0  0  0  0  0  0
   58.0859   27.5613   47.2086 H   0  0  0  0  0  0  0  0  0  0  0  0
   58.4082   29.1876   43.6809 H   0  0  0  0  0  0  0  0  0  0  0  0
   57.1365   28.4837   44.7756 H   0  0  0  0  0  0  0  0  0  0  0  0
   61.7936   34.3133   45.9224 H   0  0  0  0  0  0  0  0  0  0  0  0
   64.0231   34.6321   46.9889 H   0  0  0  0  0  0  0  0  0  0  0  0
  1  2  1  0
  2  3  1  0
  3  4  2  0
  4  5  1  0
  5  6  2  0
  6  7  1  0
  7  8  1  0
  8  9  2  0
  9 10  1  0
 10 11  2  0
 11 12  1  0
 12 13  1  0
 13 14  1  0
 13 15  1  0
 13 16  1  0
 16 17  1  0
 17 18  2  0
  6 19  1  0
 19 20  2  0
 20  3  1  0
 11  7  1  0
 17 10  1  0
  1 21  1  0
  1 22  1  0
  1 23  1  0
  4 24  1  0
  5 25  1  0
  8 26  1  0
  9 27  1  0
 12 28  1  0
 12 29  1  0
 14 30  1  0
 14 31  1  0
 14 32  1  0
 15 33  1  0
 15 34  1  0
 15 35  1  0
 16 36  1  0
 16 37  1  0
 19 38  1  0
 20 39  1  0
M  CHG  1   8   1
M  END
>  <UniqueID>  (24) 
24

>  <SMILES>  (24) 
COc1ccc(-n2[nH+]cc3c2CC(C)(C)CC3=O)cc1

>  <Energy>  (24) 
76.57048383961602

>  <Genealogy>  (24) 
COc1ccc(-n2[nH+]cc3c2CC(C)(C)CC3=O)cc1 (protonated)
COc1ccc(-n2[nH+]cc3c2CC(C)(C)CC3=O)cc1 (3D coordinates assigned)
COc1ccc(-n2[nH+]cc3c2CC(C)(C)CC3=O)cc1 (nonaromatic ring conformer: 76.57048383961602 kcal/mol)

>  <smiles>  (24) 
COc1ccc(-n2ncc3c2CC(C)(C)CC3=O)cc1

>  <score_type>  (24) 
oracle

>  <origin>  (24) 
adg

>  <m_score__min__energy>  (24) 
-5.6200000000000001

>  <m_primary>  (24) 
energy

$$$$
24:0
     RDKit          3D

 36 38  0  0  0  0  0  0  0  0999 V2000
   59.0395   34.4448   47.9743 H   0  0  0  0  0  0  0  0  0  0  0  0
   59.5690   33.9650   47.1380 C   0  0  0  0  0  0  0  0  0  0  0  0
   60.7550   34.4020   46.8260 N   0  0  0  0  0  0  0  0  0  0  0  0
   61.9650   33.7900   47.2050 N   0  0  0  0  0  0  0  0  0  0  0  0
   62.4590   33.6080   48.4460 C   0  0  0  0  0  0  0  0  0  0  0  0
   61.9006   33.7937   49.3754 H   0  0  0  0  0  0  0  0  0  0  0  0
   63.7320   33.1670   48.3910 N   0  0  0  0  0  0  0  0  0  0  0  0
   64.0450   33.0920   47.1050 N   0  0  0  0  0  0  0  0  0  0  0  0
   64.9750   32.7960   46.7350 H   0  0  0  0  0  0  0  0  0  0  0  0
   62.9820   33.4910   46.3860 C   0  0  0  0  0  0  0  0  0  0  0  0
   62.9516   33.5615   45.2887 H   0  0  0  0  0  0  0  0  0  0  0  0
   58.8990   32.8600   46.4280 C   0  0  0  0  0  0  0  0  0  0  0  0
   57.7680   32.9440   45.6280 C   0  0  0  0  0  0  0  0  0  0  0  0
   57.0200   34.1830   45.2530 C   0  0  0  0  0  0  0  0  0  0  0  0
   56.7021   34.7096   46.1650 H   0  0  0  0  0  0  0  0  0  0  0  0
   57.6727   34.8397   44.6591 H   0  0  0  0  0  0  0  0  0  0  0  0
   56.1349   33.9113   44.6591 H   0  0  0  0  0  0  0  0  0  0  0  0
   57.4230   31.7150   45.1970 N   0  0  0  0  0  0  0  0  0  0  0  0
   58.2760   30.8460   45.7170 N   0  0  0  0  0  0  0  0  0  0  0  0
   58.2130   29.4310   45.4560 C   0  0  0  0  0  0  0  0  0  0  0  0
   58.2030   28.5220   46.5290 C   0  0  0  0  0  0  0  0  0  0  0  0
   58.2348   28.8968   47.5627 H   0  0  0  0  0  0  0  0  0  0  0  0
   58.1530   27.1460   46.2910 C   0  0  0  0  0  0  0  0  0  0  0  0
   58.1373   26.4424   47.1364 H   0  0  0  0  0  0  0  0  0  0  0  0
   58.1230   26.6630   44.9810 C   0  0  0  0  0  0  0  0  0  0  0  0
   58.0773   25.5798   44.7952 H   0  0  0  0  0  0  0  0  0  0  0  0
   58.1510   27.5550   43.9070 C   0  0  0  0  0  0  0  0  0  0  0  0
   58.1345   27.1730   42.8756 H   0  0  0  0  0  0  0  0  0  0  0  0
   58.2000   28.9330   44.1400 C   0  0  0  0  0  0  0  0  0  0  0  0
   58.2285   29.6311   43.2904 H   0  0  0  0  0  0  0  0  0  0  0  0
   59.1910   31.5020   46.4650 C   0  0  0  0  0  0  0  0  0  0  0  0
   60.2730   30.8620   47.0920 O   0  0  0  0  0  0  0  0  0  0  0  0
   60.3390   30.5450   48.4750 C   0  0  0  0  0  0  0  0  0  0  0  0
   60.1502   31.4518   49.0684 H   0  0  0  0  0  0  0  0  0  0  0  0
   59.5797   29.7858   48.7138 H   0  0  0  0  0  0  0  0  0  0  0  0
   61.3382   30.1520   48.7138 H   0  0  0  0  0  0  0  0  0  0  0  0
  1  2  1  0
  2  3  2  0
  3  4  1  0
  4  5  1  0
  5  6  1  0
  5  7  2  0
  7  8  1  0
  8  9  1  0
  8 10  2  0
 10 11  1  0
  2 12  1  0
 12 13  1  0
 13 14  1  0
 14 15  1  0
 14 16  1  0
 14 17  1  0
 13 18  2  0
 18 19  1  0
 19 20  1  0
 20 21  2  0
 21 22  1  0
 21 23  1  0
 23 24  1  0
 23 25  2  0
 25 26  1  0
 25 27  1  0
 27 28  1  0
 27 29  2  0
 29 30  1  0
 19 31  1  0
 31 32  1  0
 32 33  1  0
 33 34  1  0
 33 35  1  0
 33 36  1  0
 10  4  1  0
 31 12  2  0
 29 20  1  0
M  CHG  1   8   1
M  END
>  <UniqueID>  (25) 
25

>  <SMILES>  (25) 
COc1c(/C=N\n2cn[nH+]c2)c(C)nn1-c1ccccc1

>  <Energy>  (25) 
118.65640511370668

>  <Genealogy>  (25) 
COc1c(C=Nn2cn[nH+]c2)c(C)nn1-c1ccccc1 (protonated)
COc1c(/C=N\n2cn[nH+]c2)c(C)nn1-c1ccccc1 (cis-trans isomerization)
COc1c(/C=N\n2cn[nH+]c2)c(C)nn1-c1ccccc1 (3D coordinates assigned)
COc1c(/C=N\n2cn[nH+]c2)c(C)nn1-c1ccccc1 (optimized conformer: 118.65640511370668 kcal/mol)

>  <smiles>  (25) 
COc1c(C=Nn2cnnc2)c(C)nn1-c1ccccc1

>  <score_type>  (25) 
oracle

>  <origin>  (25) 
adg

>  <m_score__min__energy>  (25) 
-5.8499999999999996

>  <m_primary>  (25) 
energy

$$$$
25:0
     RDKit          3D

 43 45  0  0  0  0  0  0  0  0999 V2000
   56.5510   30.1330   43.3770 C   0  0  0  0  0  0  0  0  0  0  0  0
   56.3560   30.9630   44.5180 O   0  0  0  0  0  0  0  0  0  0  0  0
   57.3530   31.7660   45.0930 C   0  0  0  0  0  0  0  0  0  0  0  0
   57.3220   33.1700   45.0250 C   0  0  0  0  0  0  0  0  0  0  0  0
   58.3460   33.9270   45.5960 C   0  0  0  0  0  0  0  0  0  0  0  0
   59.4100   33.2960   46.2570 C   0  0  0  0  0  0  0  0  0  0  0  0
   60.4530   34.0580   46.8030 C   0  0  0  0  0  0  0  0  0  0  0  0
   61.5240   33.4300   47.4390 C   0  0  0  0  0  0  0  0  0  0  0  0
   61.5550   32.0390   47.5540 C   0  0  0  0  0  0  0  0  0  0  0  0
   60.5100   31.2590   47.0440 C   0  0  0  0  0  0  0  0  0  0  0  0
   60.5610   29.8370   47.2270 N   0  0  0  0  0  0  0  0  0  0  0  0
   59.5640   29.1310   47.9780 C   0  0  0  0  0  0  0  0  0  0  0  0
   58.6910   29.7640   48.6320 O   0  0  0  0  0  0  0  0  0  0  0  0
   59.5270   27.6340   47.9490 C   0  0  0  0  0  0  0  0  0  0  0  0
   58.2210   27.1750   47.4370 N   0  0  0  0  0  0  0  0  0  0  0  0
   57.8220   27.9540   46.2470 C   0  0  0  0  0  0  0  0  0  0  0  0
   56.6230   27.3100   45.5150 C   0  0  0  0  0  0  0  0  0  0  0  0
   55.9250   26.3440   46.3710 N   0  0  0  0  0  0  0  0  0  0  0  0
   56.8200   25.2480   46.7810 C   0  0  0  0  0  0  0  0  0  0  0  0
   58.2440   25.7360   47.1140 C   0  0  0  0  0  0  0  0  0  0  0  0
   59.4380   31.8820   46.3610 C   0  0  0  0  0  0  0  0  0  0  0  0
   58.4110   31.1340   45.7530 C   0  0  0  0  0  0  0  0  0  0  0  0
   56.7912   29.1106   43.7041 H   0  0  0  0  0  0  0  0  0  0  0  0
   55.6319   30.1183   42.7729 H   0  0  0  0  0  0  0  0  0  0  0  0
   57.3805   30.5291   42.7729 H   0  0  0  0  0  0  0  0  0  0  0  0
   56.4859   33.6747   44.5189 H   0  0  0  0  0  0  0  0  0  0  0  0
   58.3185   35.0245   45.5273 H   0  0  0  0  0  0  0  0  0  0  0  0
   60.4265   35.1552   46.7295 H   0  0  0  0  0  0  0  0  0  0  0  0
   62.3467   34.0327   47.8512 H   0  0  0  0  0  0  0  0  0  0  0  0
   62.4076   31.5516   48.0495 H   0  0  0  0  0  0  0  0  0  0  0  0
   61.4170   29.3250   46.9180 H   0  0  0  0  0  0  0  0  0  0  0  0
   60.3276   27.2618   47.2928 H   0  0  0  0  0  0  0  0  0  0  0  0
   59.6730   27.2477   48.9685 H   0  0  0  0  0  0  0  0  0  0  0  0
   57.5421   28.9696   46.5637 H   0  0  0  0  0  0  0  0  0  0  0  0
   58.6744   27.9774   45.5521 H   0  0  0  0  0  0  0  0  0  0  0  0
   55.9177   28.1010   45.2201 H   0  0  0  0  0  0  0  0  0  0  0  0
   57.0045   26.7758   44.6323 H   0  0  0  0  0  0  0  0  0  0  0  0
   55.5850   26.8420   47.2280 H   0  0  0  0  0  0  0  0  0  0  0  0
   56.3967   24.7628   47.6729 H   0  0  0  0  0  0  0  0  0  0  0  0
   56.8976   24.5484   45.9357 H   0  0  0  0  0  0  0  0  0  0  0  0
   58.6287   25.1747   47.9782 H   0  0  0  0  0  0  0  0  0  0  0  0
   58.8952   25.5716   46.2428 H   0  0  0  0  0  0  0  0  0  0  0  0
   58.4419   30.0354   45.7982 H   0  0  0  0  0  0  0  0  0  0  0  0
  1  2  1  0
  2  3  1  0
  3  4  2  0
  4  5  1  0
  5  6  2  0
  6  7  1  0
  7  8  2  0
  8  9  1  0
  9 10  2  0
 10 11  1  0
 11 12  1  0
 12 13  2  0
 12 14  1  0
 14 15  1  0
 15 16  1  0
 16 17  1  0
 17 18  1  0
 18 19  1  0
 19 20  1  0
 10 21  1  0
 21 22  2  0
 22  3  1  0
 21  6  1  0
 20 15  1  0
  1 23  1  0
  1 24  1  0
  1 25  1  0
  4 26  1  0
  5 27  1  0
  7 28  1  0
  8 29  1  0
  9 30  1  0
 11 31  1  0
 14 32  1  0
 14 33  1  0
 16 34  1  0
 16 35  1  0
 17 36  1  0
 17 37  1  0
 18 38  1  0
 19 39  1  0
 19 40  1  0
 20 41  1  0
 20 42  1  0
 22 43  1  0
M  END
>  <UniqueID>  (26) 
26

>  <SMILES>  (26) 
COc1ccc2cccc(NC(=O)CN3CCNCC3)c2c1

>  <Energy>  (26) 
58.405079743169196

>  <Genealogy>  (26) 
COc1ccc2cccc(NC(=O)CN3CCNCC3)c2c1 (3D coordinates assigned)
COc1ccc2cccc(NC(=O)CN3CCNCC3)c2c1 (nonaromatic ring conformer: 58.405079743169196 kcal/mol)

>  <smiles>  (26) 
COc1ccc2cccc(NC(=O)CN3CCNCC3)c2c1

>  <score_type>  (26) 
oracle

>  <origin>  (26) 
adg

>  <m_score__min__energy>  (26) 
-7.4000000000000004

>  <m_primary>  (26) 
energy

$$$$
26:0
     RDKit          3D

 46 49  0  0  0  0  0  0  0  0999 V2000
   51.5550   20.8130   47.0860 C   0  0  0  0  0  0  0  0  0  0  0  0
   52.4000   21.1930   46.0050 O   0  0  0  0  0  0  0  0  0  0  0  0
   53.4170   22.1560   46.0900 C   0  0  0  0  0  0  0  0  0  0  0  0
   54.4810   22.0410   47.0030 C   0  0  0  0  0  0  0  0  0  0  0  0
   55.4730   23.0190   47.0600 C   0  0  0  0  0  0  0  0  0  0  0  0
   55.4280   24.1390   46.2130 C   0  0  0  0  0  0  0  0  0  0  0  0
   56.5000   25.1660   46.2940 C   0  0  0  0  0  0  0  0  0  0  0  0
   57.7430   24.9680   46.9040 C   0  0  0  0  0  0  0  0  0  0  0  0
   58.6320   26.3860   46.7410 S   0  0  0  0  0  0  0  0  0  0  0  0
   57.4160   27.1950   45.9110 C   0  0  0  0  0  0  0  0  0  0  0  0
   57.5150   28.5740   45.4010 C   0  0  0  0  0  0  0  0  0  0  0  0
   57.0000   28.9800   44.2260 N   0  0  0  0  0  0  0  0  0  0  0  0
   57.2360   30.2500   44.0910 O   0  0  0  0  0  0  0  0  0  0  0  0
   57.8870   30.7180   45.1330 C   0  0  0  0  0  0  0  0  0  0  0  0
   58.2740   32.1360   45.2750 C   0  0  0  0  0  0  0  0  0  0  0  0
   59.4200   32.5140   45.9970 C   0  0  0  0  0  0  0  0  0  0  0  0
   59.7530   33.8650   46.1380 C   0  0  0  0  0  0  0  0  0  0  0  0
   58.9400   34.8490   45.5710 C   0  0  0  0  0  0  0  0  0  0  0  0
   57.7860   34.4850   44.8720 C   0  0  0  0  0  0  0  0  0  0  0  0
   57.4490   33.1350   44.7300 C   0  0  0  0  0  0  0  0  0  0  0  0
   58.1180   29.6650   46.0140 C   0  0  0  0  0  0  0  0  0  0  0  0
   58.8880   29.6820   47.3020 C   0  0  0  0  0  0  0  0  0  0  0  0
   56.3360   26.4020   45.7430 N   0  0  0  0  0  0  0  0  0  0  0  0
   54.3670   24.2490   45.2940 C   0  0  0  0  0  0  0  0  0  0  0  0
   53.3610   23.2640   45.2310 C   0  0  0  0  0  0  0  0  0  0  0  0
   52.2900   23.3480   44.3260 O   0  0  0  0  0  0  0  0  0  0  0  0
   51.1170   24.1290   44.5310 C   0  0  0  0  0  0  0  0  0  0  0  0
   52.0555   21.0381   48.0393 H   0  0  0  0  0  0  0  0  0  0  0  0
   50.6099   21.3728   47.0269 H   0  0  0  0  0  0  0  0  0  0  0  0
   51.3467   19.7345   47.0269 H   0  0  0  0  0  0  0  0  0  0  0  0
   54.5307   21.1730   47.6769 H   0  0  0  0  0  0  0  0  0  0  0  0
   56.3007   22.9125   47.7766 H   0  0  0  0  0  0  0  0  0  0  0  0
   58.0797   24.0470   47.4025 H   0  0  0  0  0  0  0  0  0  0  0  0
   56.4870   28.3970   43.5280 H   0  0  0  0  0  0  0  0  0  0  0  0
   60.0580   31.7429   46.4534 H   0  0  0  0  0  0  0  0  0  0  0  0
   60.6562   34.1529   46.6960 H   0  0  0  0  0  0  0  0  0  0  0  0
   59.2081   35.9108   45.6747 H   0  0  0  0  0  0  0  0  0  0  0  0
   57.1419   35.2611   44.4329 H   0  0  0  0  0  0  0  0  0  0  0  0
   56.5335   32.8536   44.1890 H   0  0  0  0  0  0  0  0  0  0  0  0
   58.1863   29.6665   48.1489 H   0  0  0  0  0  0  0  0  0  0  0  0
   59.5409   28.7980   47.3506 H   0  0  0  0  0  0  0  0  0  0  0  0
   59.5013   30.5939   47.3506 H   0  0  0  0  0  0  0  0  0  0  0  0
   54.3227   25.1146   44.6167 H   0  0  0  0  0  0  0  0  0  0  0  0
   50.9392   24.2474   45.6101 H   0  0  0  0  0  0  0  0  0  0  0  0
   51.2506   25.1191   44.0706 H   0  0  0  0  0  0  0  0  0  0  0  0
   50.2551   23.6239   44.0706 H   0  0  0  0  0  0  0  0  0  0  0  0
  1  2  1  0
  2  3  1  0
  3  4  2  0
  4  5  1  0
  5  6  2  0
  6  7  1  0
  7  8  2  0
  8  9  1  0
  9 10  1  0
 10 11  1  0
 11 12  2  0
 12 13  1  0
 13 14  1  0
 14 15  1  0
 15 16  2  0
 16 17  1  0
 17 18  2  0
 18 19  1  0
 19 20  2  0
 14 21  2  0
 21 22  1  0
 10 23  2  0
  6 24  1  0
 24 25  2  0
 25 26  1  0
 26 27  1  0
 25  3  1  0
 23  7  1  0
 21 11  1  0
 20 15  1  0
  1 28  1  0
  1 29  1  0
  1 30  1  0
  4 31  1  0
  5 32  1  0
  8 33  1  0
 12 34  1  0
 16 35  1  0
 17 36  1  0
 18 37  1  0
 19 38  1  0
 20 39  1  0
 22 40  1  0
 22 41  1  0
 22 42  1  0
 24 43  1  0
 27 44  1  0
 27 45  1  0
 27 46  1  0
M  CHG  1  12   1
M  END
>  <UniqueID>  (27) 
27

>  <SMILES>  (27) 
COc1ccc(-c2csc(-c3[nH+]oc(-c4ccccc4)c3C)n2)cc1OC

>  <Energy>  (27) 
116.08898047590506

>  <Genealogy>  (27) 
COc1ccc(-c2csc(-c3[nH+]oc(-c4ccccc4)c3C)n2)cc1OC (protonated)
COc1ccc(-c2csc(-c3[nH+]oc(-c4ccccc4)c3C)n2)cc1OC (3D coordinates assigned)
COc1ccc(-c2csc(-c3[nH+]oc(-c4ccccc4)c3C)n2)cc1OC (optimized conformer: 116.08898047590506 kcal/mol)

>  <smiles>  (27) 
COc1ccc(-c2csc(-c3noc(-c4ccccc4)c3C)n2)cc1OC

>  <score_type>  (27) 
oracle

>  <origin>  (27) 
adg

>  <m_score__min__energy>  (27) 
-6.5300000000000002

>  <m_primary>  (27) 
energy

$$$$
27:0
     RDKit          3D

 34 36  0  0  0  0  0  0  0  0999 V2000
   61.0610   33.6070   47.3400 C   0  0  0  0  0  0  0  0  0  0  0  0
   60.5080   32.9740   48.6120 C   0  0  0  0  0  0  0  0  0  0  0  0
   60.3600   31.4590   48.4580 C   0  0  0  0  0  0  0  0  0  0  0  0
   60.9280   30.8920   46.8160 S   0  0  0  0  0  0  0  0  0  0  0  0
   59.5640   29.7450   46.5450 C   0  0  0  0  0  0  0  0  0  0  0  0
   59.7390   28.4470   46.9330 N   0  0  0  0  0  0  0  0  0  0  0  0
   58.7570   27.5410   46.7240 C   0  0  0  0  0  0  0  0  0  0  0  0
   58.8200   26.1890   47.0700 C   0  0  0  0  0  0  0  0  0  0  0  0
   57.6550   25.5020   46.7290 C   0  0  0  0  0  0  0  0  0  0  0  0
   56.5660   26.5790   46.0050 S   0  0  0  0  0  0  0  0  0  0  0  0
   57.5800   27.9130   46.1240 C   0  0  0  0  0  0  0  0  0  0  0  0
   57.3750   29.2300   45.7380 C   0  0  0  0  0  0  0  0  0  0  0  0
   56.2810   29.5690   45.2100 O   0  0  0  0  0  0  0  0  0  0  0  0
   58.3780   30.1460   45.9570 N   0  0  0  0  0  0  0  0  0  0  0  0
   58.1650   31.5270   45.5990 C   0  0  0  0  0  0  0  0  0  0  0  0
   57.8120   32.4680   46.5800 C   0  0  0  0  0  0  0  0  0  0  0  0
   57.6010   33.8060   46.2300 C   0  0  0  0  0  0  0  0  0  0  0  0
   57.7290   34.2090   44.8980 C   0  0  0  0  0  0  0  0  0  0  0  0
   58.0650   33.2760   43.9130 C   0  0  0  0  0  0  0  0  0  0  0  0
   58.2760   31.9380   44.2600 C   0  0  0  0  0  0  0  0  0  0  0  0
   61.7633   34.4108   47.6058 H   0  0  0  0  0  0  0  0  0  0  0  0
   61.5858   32.8425   46.7482 H   0  0  0  0  0  0  0  0  0  0  0  0
   60.2330   34.0243   46.7482 H   0  0  0  0  0  0  0  0  0  0  0  0
   61.1947   33.1844   49.4451 H   0  0  0  0  0  0  0  0  0  0  0  0
   59.5144   33.4023   48.8102 H   0  0  0  0  0  0  0  0  0  0  0  0
   60.9589   30.9609   49.2347 H   0  0  0  0  0  0  0  0  0  0  0  0
   59.2947   31.2048   48.5606 H   0  0  0  0  0  0  0  0  0  0  0  0
   59.6885   25.7201   47.5556 H   0  0  0  0  0  0  0  0  0  0  0  0
   57.4724   24.4312   46.9026 H   0  0  0  0  0  0  0  0  0  0  0  0
   57.7010   32.1517   47.6277 H   0  0  0  0  0  0  0  0  0  0  0  0
   57.3342   34.5411   47.0036 H   0  0  0  0  0  0  0  0  0  0  0  0
   57.5651   35.2618   44.6244 H   0  0  0  0  0  0  0  0  0  0  0  0
   58.1635   33.5944   42.8647 H   0  0  0  0  0  0  0  0  0  0  0  0
   58.5300   31.2039   43.4812 H   0  0  0  0  0  0  0  0  0  0  0  0
  1  2  1  0
  2  3  1  0
  3  4  1  0
  4  5  1  0
  5  6  2  0
  6  7  1  0
  7  8  1  0
  8  9  2  0
  9 10  1  0
 10 11  1  0
 11 12  1  0
 12 13  2  0
 12 14  1  0
 14 15  1  0
 15 16  2  0
 16 17  1  0
 17 18  2  0
 18 19  1  0
 19 20  2  0
 14  5  1  0
 20 15  1  0
 11  7  2  0
  1 21  1  0
  1 22  1  0
  1 23  1  0
  2 24  1  0
  2 25  1  0
  3 26  1  0
  3 27  1  0
  8 28  1  0
  9 29  1  0
 16 30  1  0
 17 31  1  0
 18 32  1  0
 19 33  1  0
 20 34  1  0
M  END
>  <UniqueID>  (28) 
28

>  <SMILES>  (28) 
CCCSc1nc2ccsc2c(=O)n1-c1ccccc1

>  <Energy>  (28) 
70.27070764317708

>  <Genealogy>  (28) 
CCCSc1nc2ccsc2c(=O)n1-c1ccccc1 (3D coordinates assigned)
CCCSc1nc2ccsc2c(=O)n1-c1ccccc1 (optimized conformer: 70.27070764317708 kcal/mol)

>  <smiles>  (28) 
CCCSc1nc2ccsc2c(=O)n1-c1ccccc1

>  <score_type>  (28) 
oracle

>  <origin>  (28) 
adg

>  <m_score__min__energy>  (28) 
-7

>  <m_primary>  (28) 
energy

$$$$
28:0
     RDKit          3D

 44 46  0  0  0  0  0  0  0  0999 V2000
   54.6490   25.1760   45.6220 C   0  0  0  0  0  0  0  0  0  0  0  0
   55.1370   26.4680   45.9730 O   0  0  0  0  0  0  0  0  0  0  0  0
   56.4950   26.8310   45.9940 C   0  0  0  0  0  0  0  0  0  0  0  0
   57.4990   25.9650   46.4570 C   0  0  0  0  0  0  0  0  0  0  0  0
   58.8370   26.3770   46.4810 C   0  0  0  0  0  0  0  0  0  0  0  0
   59.1750   27.6620   46.0500 C   0  0  0  0  0  0  0  0  0  0  0  0
   58.1850   28.5300   45.5790 C   0  0  0  0  0  0  0  0  0  0  0  0
   56.8400   28.1180   45.5360 C   0  0  0  0  0  0  0  0  0  0  0  0
   55.8230   28.9470   45.0410 O   0  0  0  0  0  0  0  0  0  0  0  0
   55.8050   29.5160   43.7330 C   0  0  0  0  0  0  0  0  0  0  0  0
   56.6210   30.8220   43.6700 C   0  0  0  0  0  0  0  0  0  0  0  0
   57.1000   31.2510   44.9970 N   0  0  0  0  0  0  0  0  0  0  0  0
   56.9290   32.6910   45.2640 C   0  0  0  0  0  0  0  0  0  0  0  0
   58.2220   33.3580   45.6270 C   0  0  0  0  0  0  0  0  0  0  0  0
   58.6550   34.5830   45.1670 C   0  0  0  0  0  0  0  0  0  0  0  0
   59.8160   34.8140   45.7210 O   0  0  0  0  0  0  0  0  0  0  0  0
   60.1060   33.7820   46.4800 C   0  0  0  0  0  0  0  0  0  0  0  0
   61.3380   33.6840   47.2870 C   0  0  0  0  0  0  0  0  0  0  0  0
   62.5830   33.4470   46.6760 C   0  0  0  0  0  0  0  0  0  0  0  0
   63.7390   33.3380   47.4560 C   0  0  0  0  0  0  0  0  0  0  0  0
   63.6680   33.4570   48.8440 C   0  0  0  0  0  0  0  0  0  0  0  0
   64.7870   33.3250   49.5940 F   0  0  0  0  0  0  0  0  0  0  0  0
   62.4340   33.6960   49.4600 C   0  0  0  0  0  0  0  0  0  0  0  0
   61.2750   33.8100   48.6870 C   0  0  0  0  0  0  0  0  0  0  0  0
   59.1420   32.8320   46.4580 N   0  0  0  0  0  0  0  0  0  0  0  0
   54.4332   24.6046   46.5368 H   0  0  0  0  0  0  0  0  0  0  0  0
   53.7284   25.2804   45.0291 H   0  0  0  0  0  0  0  0  0  0  0  0
   55.4088   24.6457   45.0291 H   0  0  0  0  0  0  0  0  0  0  0  0
   57.2323   24.9556   46.8033 H   0  0  0  0  0  0  0  0  0  0  0  0
   59.6193   25.6911   46.8380 H   0  0  0  0  0  0  0  0  0  0  0  0
   60.2238   27.9923   46.0812 H   0  0  0  0  0  0  0  0  0  0  0  0
   58.4589   29.5401   45.2403 H   0  0  0  0  0  0  0  0  0  0  0  0
   56.2336   28.7929   43.0234 H   0  0  0  0  0  0  0  0  0  0  0  0
   54.7617   29.7499   43.4744 H   0  0  0  0  0  0  0  0  0  0  0  0
   57.4904   30.6639   43.0149 H   0  0  0  0  0  0  0  0  0  0  0  0
   55.9608   31.6111   43.2809 H   0  0  0  0  0  0  0  0  0  0  0  0
   56.6590   30.6950   45.7670 H   0  0  0  0  0  0  0  0  0  0  0  0
   56.5231   33.1726   44.3622 H   0  0  0  0  0  0  0  0  0  0  0  0
   56.2435   32.7967   46.1178 H   0  0  0  0  0  0  0  0  0  0  0  0
   58.1232   35.2425   44.4653 H   0  0  0  0  0  0  0  0  0  0  0  0
   62.6475   33.3472   45.5824 H   0  0  0  0  0  0  0  0  0  0  0  0
   64.7101   33.1573   46.9718 H   0  0  0  0  0  0  0  0  0  0  0  0
   62.3763   33.7943   50.5541 H   0  0  0  0  0  0  0  0  0  0  0  0
   60.3080   33.9993   49.1760 H   0  0  0  0  0  0  0  0  0  0  0  0
  1  2  1  0
  2  3  1  0
  3  4  2  0
  4  5  1  0
  5  6  2  0
  6  7  1  0
  7  8  2  0
  8  9  1  0
  9 10  1  0
 10 11  1  0
 11 12  1  0
 12 13  1  0
 13 14  1  0
 14 15  2  0
 15 16  1  0
 16 17  1  0
 17 18  1  0
 18 19  2  0
 19 20  1  0
 20 21  2  0
 21 22  1  0
 21 23  1  0
 23 24  2  0
 17 25  2  0
  8  3  1  0
 25 14  1  0
 24 18  1  0
  1 26  1  0
  1 27  1  0
  1 28  1  0
  4 29  1  0
  5 30  1  0
  6 31  1  0
  7 32  1  0
 10 33  1  0
 10 34  1  0
 11 35  1  0
 11 36  1  0
 12 37  1  0
 13 38  1  0
 13 39  1  0
 15 40  1  0
 19 41  1  0
 20 42  1  0
 23 43  1  0
 24 44  1  0
M  END
>  <UniqueID>  (29) 
29

>  <SMILES>  (29) 
COc1ccccc1OCCNCc1coc(-c2ccc(F)cc2)n1

>  <Energy>  (29) 
76.73761444722133

>  <Genealogy>  (29) 
COc1ccccc1OCCNCc1coc(-c2ccc(F)cc2)n1 (3D coordinates assigned)
COc1ccccc1OCCNCc1coc(-c2ccc(F)cc2)n1 (optimized conformer: 76.73761444722133 kcal/mol)

>  <smiles>  (29) 
COc1ccccc1OCCNCc1coc(-c2ccc(F)cc2)n1

>  <score_type>  (29) 
oracle

>  <origin>  (29) 
adg

>  <m_score__min__energy>  (29) 
-8.5199999999999996

>  <m_primary>  (29) 
energy

$$$$
29:0
     RDKit          3D

 36 37  0  0  0  0  0  0  0  0999 V2000
   57.3970   32.3310   41.2350 C   0  0  0  0  0  0  0  0  0  0  0  0
   57.7380   31.9440   42.6380 C   0  0  0  0  0  0  0  0  0  0  0  0
   58.1550   32.9130   43.5580 C   0  0  0  0  0  0  0  0  0  0  0  0
   58.4760   32.5460   44.8840 C   0  0  0  0  0  0  0  0  0  0  0  0
   58.9430   33.5650   45.9440 C   0  0  0  0  0  0  0  0  0  0  0  0
   57.8290   33.7630   46.9940 C   0  0  0  0  0  0  0  0  0  0  0  0
   59.2500   34.9160   45.2600 C   0  0  0  0  0  0  0  0  0  0  0  0
   60.2220   33.1190   46.6940 C   0  0  0  0  0  0  0  0  0  0  0  0
   58.3590   31.1830   45.2310 C   0  0  0  0  0  0  0  0  0  0  0  0
   57.9370   30.2380   44.2840 C   0  0  0  0  0  0  0  0  0  0  0  0
   57.8170   28.8480   44.6320 N   0  0  0  0  0  0  0  0  0  0  0  0
   58.5740   27.8430   44.1490 C   0  0  0  0  0  0  0  0  0  0  0  0
   58.1470   26.6600   44.7140 C   0  0  0  0  0  0  0  0  0  0  0  0
   57.1150   27.0350   45.5530 C   0  0  0  0  0  0  0  0  0  0  0  0
   56.2630   26.1110   46.3560 C   0  0  0  0  0  0  0  0  0  0  0  0
   56.9220   28.3650   45.4810 N   0  0  0  0  0  0  0  0  0  0  0  0
   57.6400   30.6450   43.0220 N   0  0  0  0  0  0  0  0  0  0  0  0
   56.6698   33.1563   41.2487 H   0  0  0  0  0  0  0  0  0  0  0  0
   58.3090   32.6545   40.7119 H   0  0  0  0  0  0  0  0  0  0  0  0
   56.9612   31.4670   40.7119 H   0  0  0  0  0  0  0  0  0  0  0  0
   58.2331   33.9652   43.2471 H   0  0  0  0  0  0  0  0  0  0  0  0
   58.2590   33.6866   48.0036 H   0  0  0  0  0  0  0  0  0  0  0  0
   57.3743   34.7560   46.8633 H   0  0  0  0  0  0  0  0  0  0  0  0
   57.0599   32.9875   46.8633 H   0  0  0  0  0  0  0  0  0  0  0  0
   59.4246   35.6843   46.0276 H   0  0  0  0  0  0  0  0  0  0  0  0
   60.1478   34.8137   44.6327 H   0  0  0  0  0  0  0  0  0  0  0  0
   58.3962   35.2118   44.6327 H   0  0  0  0  0  0  0  0  0  0  0  0
   60.0505   33.1788   47.7789 H   0  0  0  0  0  0  0  0  0  0  0  0
   60.4663   32.0826   46.4180 H   0  0  0  0  0  0  0  0  0  0  0  0
   61.0578   33.7787   46.4180 H   0  0  0  0  0  0  0  0  0  0  0  0
   58.6010   30.8586   46.2538 H   0  0  0  0  0  0  0  0  0  0  0  0
   59.3953   27.9489   43.4250 H   0  0  0  0  0  0  0  0  0  0  0  0
   58.5389   25.6475   44.5371 H   0  0  0  0  0  0  0  0  0  0  0  0
   56.4321   26.2943   47.4274 H   0  0  0  0  0  0  0  0  0  0  0  0
   55.2040   26.2874   46.1164 H   0  0  0  0  0  0  0  0  0  0  0  0
   56.5246   25.0698   46.1164 H   0  0  0  0  0  0  0  0  0  0  0  0
  1  2  1  0
  2  3  2  0
  3  4  1  0
  4  5  1  0
  5  6  1  0
  5  7  1  0
  5  8  1  0
  4  9  2  0
  9 10  1  0
 10 11  1  0
 11 12  1  0
 12 13  2  0
 13 14  1  0
 14 15  1  0
 14 16  2  0
 10 17  2  0
 17  2  1  0
 16 11  1  0
  1 18  1  0
  1 19  1  0
  1 20  1  0
  3 21  1  0
  6 22  1  0
  6 23  1  0
  6 24  1  0
  7 25  1  0
  7 26  1  0
  7 27  1  0
  8 28  1  0
  8 29  1  0
  8 30  1  0
  9 31  1  0
 12 32  1  0
 13 33  1  0
 15 34  1  0
 15 35  1  0
 15 36  1  0
M  END
>  <UniqueID>  (30) 
30

>  <SMILES>  (30) 
Cc1cc(C(C)(C)C)cc(-n2ccc(C)n2)n1

>  <Energy>  (30) 
64.77375681047027

>  <Genealogy>  (30) 
Cc1cc(C(C)(C)C)cc(-n2ccc(C)n2)n1 (3D coordinates assigned)
Cc1cc(C(C)(C)C)cc(-n2ccc(C)n2)n1 (optimized conformer: 64.77375681047027 kcal/mol)

>  <smiles>  (30) 
Cc1cc(C(C)(C)C)cc(-n2ccc(C)n2)n1

>  <score_type>  (30) 
oracle

>  <origin>  (30) 
adg

>  <m_score__min__energy>  (30) 
-6.5199999999999996

>  <m_primary>  (30) 
energy

$$$$
30:0
     RDKit          3D

 30 32  0  0  0  0  0  0  0  0999 V2000
   60.1670   29.4340   47.7160 C   0  0  0  0  0  0  0  0  0  0  0  0
   60.3600   30.1610   46.3870 C   0  0  0  0  0  0  0  0  0  0  0  0
   59.1040   30.7730   45.9410 N   0  0  0  0  0  0  0  0  0  0  0  0
   58.0430   30.1930   45.3040 C   0  0  0  0  0  0  0  0  0  0  0  0
   57.9340   28.7570   44.9690 C   0  0  0  0  0  0  0  0  0  0  0  0
   57.6140   27.8340   45.9760 C   0  0  0  0  0  0  0  0  0  0  0  0
   57.5230   26.4770   45.6640 C   0  0  0  0  0  0  0  0  0  0  0  0
   57.7670   26.0480   44.3600 C   0  0  0  0  0  0  0  0  0  0  0  0
   58.1060   26.9880   43.3850 C   0  0  0  0  0  0  0  0  0  0  0  0
   58.1900   28.3090   43.7050 N   0  0  0  0  0  0  0  0  0  0  0  0
   57.0880   31.0870   44.9300 N   0  0  0  0  0  0  0  0  0  0  0  0
   57.5810   32.2580   45.3660 C   0  0  0  0  0  0  0  0  0  0  0  0
   57.0240   33.5250   45.2330 C   0  0  0  0  0  0  0  0  0  0  0  0
   57.7290   34.5900   45.7180 N   0  0  0  0  0  0  0  0  0  0  0  0
   58.9530   34.4390   46.3180 C   0  0  0  0  0  0  0  0  0  0  0  0
   59.5270   33.1610   46.4530 C   0  0  0  0  0  0  0  0  0  0  0  0
   58.7880   32.0810   45.9660 C   0  0  0  0  0  0  0  0  0  0  0  0
   60.3522   30.1318   48.5459 H   0  0  0  0  0  0  0  0  0  0  0  0
   59.1368   29.0537   47.7797 H   0  0  0  0  0  0  0  0  0  0  0  0
   60.8729   28.5928   47.7797 H   0  0  0  0  0  0  0  0  0  0  0  0
   61.1194   30.9468   46.5128 H   0  0  0  0  0  0  0  0  0  0  0  0
   60.6852   29.4319   45.6302 H   0  0  0  0  0  0  0  0  0  0  0  0
   57.4359   28.1781   47.0055 H   0  0  0  0  0  0  0  0  0  0  0  0
   57.2596   25.7479   46.4444 H   0  0  0  0  0  0  0  0  0  0  0  0
   57.6932   24.9811   44.1024 H   0  0  0  0  0  0  0  0  0  0  0  0
   58.3060   26.6603   42.3542 H   0  0  0  0  0  0  0  0  0  0  0  0
   58.4850   28.9770   42.9600 H   0  0  0  0  0  0  0  0  0  0  0  0
   56.0450   33.6657   44.7517 H   0  0  0  0  0  0  0  0  0  0  0  0
   59.4893   35.3219   46.6960 H   0  0  0  0  0  0  0  0  0  0  0  0
   60.5125   33.0195   46.9207 H   0  0  0  0  0  0  0  0  0  0  0  0
  1  2  1  0
  2  3  1  0
  3  4  1  0
  4  5  1  0
  5  6  2  0
  6  7  1  0
  7  8  2  0
  8  9  1  0
  9 10  2  0
  4 11  2  0
 11 12  1  0
 12 13  2  0
 13 14  1  0
 14 15  2  0
 15 16  1  0
 16 17  2  0
 17  3  1  0
 10  5  1  0
 17 12  1  0
  1 18  1  0
  1 19  1  0
  1 20  1  0
  2 21  1  0
  2 22  1  0
  6 23  1  0
  7 24  1  0
  8 25  1  0
  9 26  1  0
 10 27  1  0
 13 28  1  0
 15 29  1  0
 16 30  1  0
M  CHG  1  10   1
M  END
>  <UniqueID>  (31) 
31

>  <SMILES>  (31) 
CCn1c(-c2cccc[nH+]2)nc2cnccc21

>  <Energy>  (31) 
74.05437922467974

>  <Genealogy>  (31) 
CCn1c(-c2cccc[nH+]2)nc2cnccc21 (protonated)
CCn1c(-c2cccc[nH+]2)nc2cnccc21 (3D coordinates assigned)
CCn1c(-c2cccc[nH+]2)nc2cnccc21 (optimized conformer: 74.05437922467974 kcal/mol)

>  <smiles>  (31) 
CCn1c(-c2ccccn2)nc2cnccc21

>  <score_type>  (31) 
oracle

>  <origin>  (31) 
adg

>  <m_score__min__energy>  (31) 
-4.6200000000000001

>  <m_primary>  (31) 
energy

$$$$
31:0
     RDKit          3D

 49 51  0  0  0  0  0  0  0  0999 V2000
   52.5410   23.7960   44.7880 C   0  0  0  0  0  0  0  0  0  0  0  0
   53.8610   24.3190   45.2550 C   0  0  0  0  0  0  0  0  0  0  0  0
   54.9300   23.4550   44.9870 N   0  0  0  0  0  0  0  0  0  0  0  0
   55.4780   23.4220   43.6850 C   0  0  0  0  0  0  0  0  0  0  0  0
   56.4900   22.3210   43.5080 C   0  0  0  0  0  0  0  0  0  0  0  0
   55.7860   23.0860   46.0280 C   0  0  0  0  0  0  0  0  0  0  0  0
   56.8430   24.0200   46.4810 C   0  0  0  0  0  0  0  0  0  0  0  0
   57.7080   24.5850   45.4850 N   0  0  0  0  0  0  0  0  0  0  0  0
   58.0850   25.9800   45.5690 C   0  0  0  0  0  0  0  0  0  0  0  0
   59.3750   26.3420   45.9500 C   0  0  0  0  0  0  0  0  0  0  0  0
   59.7650   27.6590   46.0720 C   0  0  0  0  0  0  0  0  0  0  0  0
   58.8490   28.6560   45.8080 C   0  0  0  0  0  0  0  0  0  0  0  0
   59.1650   29.9660   45.9220 N   0  0  0  0  0  0  0  0  0  0  0  0
   58.3050   30.9610   45.6880 C   0  0  0  0  0  0  0  0  0  0  0  0
   58.6530   32.3780   45.8290 C   0  0  0  0  0  0  0  0  0  0  0  0
   59.2230   32.8990   46.9720 C   0  0  0  0  0  0  0  0  0  0  0  0
   59.5280   34.2580   47.0970 C   0  0  0  0  0  0  0  0  0  0  0  0
   59.2520   35.1120   46.0490 C   0  0  0  0  0  0  0  0  0  0  0  0
   58.6780   34.6170   44.8810 C   0  0  0  0  0  0  0  0  0  0  0  0
   58.3980   33.2720   44.8090 C   0  0  0  0  0  0  0  0  0  0  0  0
   57.0450   30.6690   45.3140 N   0  0  0  0  0  0  0  0  0  0  0  0
   56.7040   29.3760   45.1920 C   0  0  0  0  0  0  0  0  0  0  0  0
   55.5210   29.1290   44.8430 O   0  0  0  0  0  0  0  0  0  0  0  0
   57.5590   28.3250   45.4260 C   0  0  0  0  0  0  0  0  0  0  0  0
   57.1970   26.9990   45.3120 C   0  0  0  0  0  0  0  0  0  0  0  0
   51.9159   23.5483   45.6586 H   0  0  0  0  0  0  0  0  0  0  0  0
   52.0370   24.5624   44.1808 H   0  0  0  0  0  0  0  0  0  0  0  0
   52.6986   22.8924   44.1808 H   0  0  0  0  0  0  0  0  0  0  0  0
   54.0536   25.2779   44.7516 H   0  0  0  0  0  0  0  0  0  0  0  0
   53.7982   24.4272   46.3479 H   0  0  0  0  0  0  0  0  0  0  0  0
   54.6619   23.2691   42.9635 H   0  0  0  0  0  0  0  0  0  0  0  0
   55.9950   24.3784   43.5179 H   0  0  0  0  0  0  0  0  0  0  0  0
   56.8189   21.9632   44.4948 H   0  0  0  0  0  0  0  0  0  0  0  0
   56.0339   21.4900   42.9499 H   0  0  0  0  0  0  0  0  0  0  0  0
   57.3564   22.7056   42.9499 H   0  0  0  0  0  0  0  0  0  0  0  0
   55.1518   22.8754   46.9018 H   0  0  0  0  0  0  0  0  0  0  0  0
   56.3546   22.2455   45.6035 H   0  0  0  0  0  0  0  0  0  0  0  0
   56.3447   24.8552   46.9948 H   0  0  0  0  0  0  0  0  0  0  0  0
   57.5061   23.4054   47.1075 H   0  0  0  0  0  0  0  0  0  0  0  0
   58.0980   24.0840   44.6740 H   0  0  0  0  0  0  0  0  0  0  0  0
   60.1082   25.5496   46.1609 H   0  0  0  0  0  0  0  0  0  0  0  0
   60.7919   27.9109   46.3755 H   0  0  0  0  0  0  0  0  0  0  0  0
   60.1490   30.1690   46.2130 H   0  0  0  0  0  0  0  0  0  0  0  0
   59.4447   32.2240   47.8118 H   0  0  0  0  0  0  0  0  0  0  0  0
   59.9834   34.6423   48.0216 H   0  0  0  0  0  0  0  0  0  0  0  0
   59.4853   36.1834   46.1362 H   0  0  0  0  0  0  0  0  0  0  0  0
   58.4539   35.2851   44.0364 H   0  0  0  0  0  0  0  0  0  0  0  0
   57.9442   32.8865   43.8841 H   0  0  0  0  0  0  0  0  0  0  0  0
   56.1700   26.7493   45.0072 H   0  0  0  0  0  0  0  0  0  0  0  0
  1  2  1  0
  2  3  1  0
  3  4  1  0
  4  5  1  0
  3  6  1  0
  6  7  1  0
  7  8  1  0
  8  9  1  0
  9 10  2  0
 10 11  1  0
 11 12  2  0
 12 13  1  0
 13 14  1  0
 14 15  1  0
 15 16  2  0
 16 17  1  0
 17 18  2  0
 18 19  1  0
 19 20  2  0
 14 21  2  0
 21 22  1  0
 22 23  2  0
 22 24  1  0
 24 25  2  0
 25  9  1  0
 24 12  1  0
 20 15  1  0
  1 26  1  0
  1 27  1  0
  1 28  1  0
  2 29  1  0
  2 30  1  0
  4 31  1  0
  4 32  1  0
  5 33  1  0
  5 34  1  0
  5 35  1  0
  6 36  1  0
  6 37  1  0
  7 38  1  0
  7 39  1  0
  8 40  1  0
 10 41  1  0
 11 42  1  0
 13 43  1  0
 16 44  1  0
 17 45  1  0
 18 46  1  0
 19 47  1  0
 20 48  1  0
 25 49  1  0
M  END
>  <smiles>  (32) 
CCN(CC)CCNc1ccc2[nH]c(-c3ccccc3)nc(=O)c2c1

>  <score_type>  (32) 
oracle

>  <origin>  (32) 
adg

>  <m_score__min__energy>  (32) 
-7.3399999999999999

>  <m_primary>  (32) 
energy

$$$$
32:0
     RDKit          3D

 51 55  0  0  0  0  0  0  0  0999 V2000
   56.9330   22.0740   43.3900 C   0  0  0  0  0  0  0  0  0  0  0  0
   56.6990   23.4540   42.9830 N   0  0  0  0  0  0  0  0  0  0  0  0
   57.0390   24.5890   43.7950 C   0  0  0  0  0  0  0  0  0  0  0  0
   56.6430   24.6860   45.1380 C   0  0  0  0  0  0  0  0  0  0  0  0
   56.9890   25.8160   45.8790 C   0  0  0  0  0  0  0  0  0  0  0  0
   57.7450   26.8480   45.2940 C   0  0  0  0  0  0  0  0  0  0  0  0
   58.1240   28.0740   46.0480 C   0  0  0  0  0  0  0  0  0  0  0  0
   57.9100   29.3640   45.5310 C   0  0  0  0  0  0  0  0  0  0  0  0
   58.3060   30.4920   46.2700 C   0  0  0  0  0  0  0  0  0  0  0  0
   58.1260   31.8000   45.7720 C   0  0  0  0  0  0  0  0  0  0  0  0
   57.5640   31.9740   44.6530 O   0  0  0  0  0  0  0  0  0  0  0  0
   58.5550   32.8830   46.4980 N   0  0  0  0  0  0  0  0  0  0  0  0
   58.3320   34.2490   45.9970 C   0  0  0  0  0  0  0  0  0  0  0  0
   59.4830   35.2190   46.2490 C   0  0  0  0  0  0  0  0  0  0  0  0
   59.2580   34.6580   44.8570 C   0  0  0  0  0  0  0  0  0  0  0  0
   59.0950   32.7150   47.7410 C   0  0  0  0  0  0  0  0  0  0  0  0
   59.2850   31.4420   48.2740 C   0  0  0  0  0  0  0  0  0  0  0  0
   58.8940   30.3150   47.5410 C   0  0  0  0  0  0  0  0  0  0  0  0
   59.0600   29.0060   48.0400 C   0  0  0  0  0  0  0  0  0  0  0  0
   59.6050   28.7630   49.3430 N   0  0  0  0  0  0  0  0  0  0  0  0
   58.9480   29.3790   50.5030 C   0  0  0  0  0  0  0  0  0  0  0  0
   59.8000   29.2750   51.7760 C   0  0  0  0  0  0  0  0  0  0  0  0
   60.4570   28.0270   51.8610 O   0  0  0  0  0  0  0  0  0  0  0  0
   61.4080   27.9380   50.8220 C   0  0  0  0  0  0  0  0  0  0  0  0
   60.7130   27.8100   49.4690 C   0  0  0  0  0  0  0  0  0  0  0  0
   58.6800   27.9440   47.2840 N   0  0  0  0  0  0  0  0  0  0  0  0
   58.1160   26.7090   43.9450 C   0  0  0  0  0  0  0  0  0  0  0  0
   57.7580   25.6020   43.2410 N   0  0  0  0  0  0  0  0  0  0  0  0
   56.9434   22.0124   44.4882 H   0  0  0  0  0  0  0  0  0  0  0  0
   56.1306   21.4340   42.9945 H   0  0  0  0  0  0  0  0  0  0  0  0
   57.9016   21.7343   42.9945 H   0  0  0  0  0  0  0  0  0  0  0  0
   56.3150   23.6250   42.0280 H   0  0  0  0  0  0  0  0  0  0  0  0
   56.0631   23.8755   45.6036 H   0  0  0  0  0  0  0  0  0  0  0  0
   56.6685   25.9007   46.9279 H   0  0  0  0  0  0  0  0  0  0  0  0
   57.4326   29.4903   44.5481 H   0  0  0  0  0  0  0  0  0  0  0  0
   57.2460   34.2663   46.1709 H   0  0  0  0  0  0  0  0  0  0  0  0
   59.2734   36.2790   46.4549 H   0  0  0  0  0  0  0  0  0  0  0  0
   60.3336   35.2514   46.9457 H   0  0  0  0  0  0  0  0  0  0  0  0
   58.8859   35.3120   44.0546 H   0  0  0  0  0  0  0  0  0  0  0  0
   59.8789   34.1161   44.1285 H   0  0  0  0  0  0  0  0  0  0  0  0
   59.3842   33.5978   48.3300 H   0  0  0  0  0  0  0  0  0  0  0  0
   59.7409   31.3226   49.2679 H   0  0  0  0  0  0  0  0  0  0  0  0
   58.7665   30.4416   50.2842 H   0  0  0  0  0  0  0  0  0  0  0  0
   58.0059   28.8403   50.6826 H   0  0  0  0  0  0  0  0  0  0  0  0
   60.5542   30.0757   51.7673 H   0  0  0  0  0  0  0  0  0  0  0  0
   59.1333   29.3731   52.6454 H   0  0  0  0  0  0  0  0  0  0  0  0
   62.0318   28.8440   50.8240 H   0  0  0  0  0  0  0  0  0  0  0  0
   62.0317   27.0470   50.9867 H   0  0  0  0  0  0  0  0  0  0  0  0
   61.4448   28.0047   48.6711 H   0  0  0  0  0  0  0  0  0  0  0  0
   60.3047   26.7920   49.3850 H   0  0  0  0  0  0  0  0  0  0  0  0
   58.7004   27.5019   43.4552 H   0  0  0  0  0  0  0  0  0  0  0  0
  1  2  1  0
  2  3  1  0
  3  4  2  0
  4  5  1  0
  5  6  2  0
  6  7  1  0
  7  8  2  0
  8  9  1  0
  9 10  1  0
 10 11  2  0
 10 12  1  0
 12 13  1  0
 13 14  1  0
 14 15  1  0
 12 16  1  0
 16 17  2  0
 17 18  1  0
 18 19  1  0
 19 20  1  0
 20 21  1  0
 21 22  1  0
 22 23  1  0
 23 24  1  0
 24 25  1  0
 19 26  2  0
  6 27  1  0
 27 28  2  0
 28  3  1  0
 26  7  1  0
 18  9  2  0
 25 20  1  0
 15 13  1  0
  1 29  1  0
  1 30  1  0
  1 31  1  0
  2 32  1  0
  4 33  1  0
  5 34  1  0
  8 35  1  0
 13 36  1  0
 14 37  1  0
 14 38  1  0
 15 39  1  0
 15 40  1  0
 16 41  1  0
 17 42  1  0
 21 43  1  0
 21 44  1  0
 22 45  1  0
 22 46  1  0
 24 47  1  0
 24 48  1  0
 25 49  1  0
 25 50  1  0
 27 51  1  0
M  END
>  <UniqueID>  (33) 
32

>  <SMILES>  (33) 
CNc1ccc(-c2cc3c(=O)n(C4CC4)ccc3c(N3CCOCC3)n2)cn1

>  <Energy>  (33) 
339.67456268778227

>  <Genealogy>  (33) 
CNc1ccc(-c2cc3c(=O)n(C4CC4)ccc3c(N3CCOCC3)n2)cn1 (3D coordinates assigned)
CNc1ccc(-c2cc3c(=O)n(C4CC4)ccc3c(N3CCOCC3)n2)cn1 (nonaromatic ring conformer: 339.67456268778227 kcal/mol)

>  <smiles>  (33) 
CNc1ccc(-c2cc3c(=O)n(C4CC4)ccc3c(N3CCOCC3)n2)cn1

>  <score_type>  (33) 
oracle

>  <origin>  (33) 
adg

>  <m_score__min__energy>  (33) 
-7.2800000000000002

>  <m_primary>  (33) 
energy

$$$$
33:0
     RDKit          3D

 63 65  0  0  0  0  0  0  0  0999 V2000
   57.2030   30.7810   43.7360 C   0  0  0  0  0  0  0  0  0  0  0  0
   57.2850   29.2620   43.8180 C   0  0  0  0  0  0  0  0  0  0  0  0
   56.4360   28.7470   44.9470 C   0  0  0  0  0  0  0  0  0  0  0  0
   55.3800   29.3670   45.2410 O   0  0  0  0  0  0  0  0  0  0  0  0
   56.8100   27.6150   45.7450 N   0  0  0  0  0  0  0  0  0  0  0  0
   56.4340   26.2190   45.5120 C   0  0  2  0  0  0  0  0  0  0  0  0
   56.3980   25.4510   46.8490 C   0  0  0  0  0  0  0  0  0  0  0  0
   57.7940   25.3590   47.4930 C   0  0  0  0  0  0  0  0  0  0  0  0
   58.9360   24.9990   46.4930 C   0  0  2  0  0  0  0  0  0  0  0  0
   59.9320   26.1700   46.3020 C   0  0  0  0  0  0  0  0  0  0  0  0
   59.7780   27.2630   47.3850 C   0  0  0  0  0  0  0  0  0  0  0  0
   59.0020   28.4780   46.9860 N   0  0  2  0  0  0  0  0  0  0  0  0
   59.6060   29.2580   45.8840 C   0  0  0  0  0  0  0  0  0  0  0  0
   60.7980   30.0940   46.3350 C   0  0  0  0  0  0  0  0  0  0  0  0
   60.4550   31.0340   47.5060 C   0  0  1  0  0  0  0  0  0  0  0  0
   59.9700   32.3920   46.9970 C   0  0  0  0  0  0  0  0  0  0  0  0
   58.6830   32.5420   46.4380 C   0  0  0  0  0  0  0  0  0  0  0  0
   58.2550   33.7780   45.9520 C   0  0  0  0  0  0  0  0  0  0  0  0
   59.1070   34.8800   45.9950 C   0  0  0  0  0  0  0  0  0  0  0  0
   60.3960   34.7490   46.5110 C   0  0  0  0  0  0  0  0  0  0  0  0
   60.8470   33.5080   47.0050 C   0  0  0  0  0  0  0  0  0  0  0  0
   62.1540   33.3510   47.4990 O   0  0  0  0  0  0  0  0  0  0  0  0
   63.3400   33.6700   46.7790 C   0  0  0  0  0  0  0  0  0  0  0  0
   59.5340   30.4030   48.5850 C   0  0  0  0  0  0  0  0  0  0  0  0
   58.5200   29.3420   48.0910 C   0  0  0  0  0  0  0  0  0  0  0  0
   58.3710   24.5360   45.1330 C   0  0  0  0  0  0  0  0  0  0  0  0
   57.4210   25.5740   44.5040 C   0  0  0  0  0  0  0  0  0  0  0  0
   57.1803   31.2023   44.7519 H   0  0  0  0  0  0  0  0  0  0  0  0
   58.0816   31.1671   43.1985 H   0  0  0  0  0  0  0  0  0  0  0  0
   56.2879   31.0703   43.1985 H   0  0  0  0  0  0  0  0  0  0  0  0
   56.9293   28.8290   42.8714 H   0  0  0  0  0  0  0  0  0  0  0  0
   58.3305   28.9723   43.9995 H   0  0  0  0  0  0  0  0  0  0  0  0
   55.4253   26.1732   45.0757 H   0  0  0  0  0  0  0  0  0  0  0  0
   55.7202   25.9723   47.5410 H   0  0  0  0  0  0  0  0  0  0  0  0
   56.0465   24.4285   46.6468 H   0  0  0  0  0  0  0  0  0  0  0  0
   58.0286   26.3322   47.9490 H   0  0  0  0  0  0  0  0  0  0  0  0
   57.7496   24.5434   48.2297 H   0  0  0  0  0  0  0  0  0  0  0  0
   59.4920   24.1600   46.9368 H   0  0  0  0  0  0  0  0  0  0  0  0
   60.9565   25.7720   46.3460 H   0  0  0  0  0  0  0  0  0  0  0  0
   59.7189   26.6336   45.3275 H   0  0  0  0  0  0  0  0  0  0  0  0
   59.2722   26.8101   48.2505 H   0  0  0  0  0  0  0  0  0  0  0  0
   60.7978   27.6184   47.5942 H   0  0  0  0  0  0  0  0  0  0  0  0
   58.1270   28.0840   46.5610 H   0  0  0  0  0  0  0  0  0  0  0  0
   59.9418   28.5603   45.1027 H   0  0  0  0  0  0  0  0  0  0  0  0
   58.8383   29.9514   45.5100 H   0  0  0  0  0  0  0  0  0  0  0  0
   61.6037   29.4157   46.6524 H   0  0  0  0  0  0  0  0  0  0  0  0
   61.1055   30.7205   45.4847 H   0  0  0  0  0  0  0  0  0  0  0  0
   61.3947   31.2098   48.0501 H   0  0  0  0  0  0  0  0  0  0  0  0
   58.0091   31.6742   46.3847 H   0  0  0  0  0  0  0  0  0  0  0  0
   57.2429   33.8828   45.5340 H   0  0  0  0  0  0  0  0  0  0  0  0
   58.7620   35.8553   45.6211 H   0  0  0  0  0  0  0  0  0  0  0  0
   61.0662   35.6210   46.5327 H   0  0  0  0  0  0  0  0  0  0  0  0
   64.1520   33.8884   47.4882 H   0  0  0  0  0  0  0  0  0  0  0  0
   63.6255   32.8167   46.1462 H   0  0  0  0  0  0  0  0  0  0  0  0
   63.1589   34.5514   46.1462 H   0  0  0  0  0  0  0  0  0  0  0  0
   60.1788   29.9248   49.3371 H   0  0  0  0  0  0  0  0  0  0  0  0
   58.9235   31.2334   48.9694 H   0  0  0  0  0  0  0  0  0  0  0  0
   58.2622   28.6947   48.9422 H   0  0  0  0  0  0  0  0  0  0  0  0
   57.6617   29.9014   47.6905 H   0  0  0  0  0  0  0  0  0  0  0  0
   59.2100   24.3622   44.4432 H   0  0  0  0  0  0  0  0  0  0  0  0
   57.7931   23.6163   45.3069 H   0  0  0  0  0  0  0  0  0  0  0  0
   58.0298   26.3734   44.0564 H   0  0  0  0  0  0  0  0  0  0  0  0
   56.8119   25.0385   43.7608 H   0  0  0  0  0  0  0  0  0  0  0  0
  1  2  1  0
  2  3  1  0
  3  4  2  0
  3  5  1  0
  5  6  1  0
  6  7  1  0
  7  8  1  0
  8  9  1  0
  9 10  1  0
 10 11  1  0
 11 12  1  0
 12 13  1  0
 13 14  1  0
 14 15  1  0
 15 16  1  0
 16 17  2  0
 17 18  1  0
 18 19  2  0
 19 20  1  0
 20 21  2  0
 21 22  1  0
 22 23  1  0
 15 24  1  0
 24 25  1  0
  9 26  1  0
 26 27  1  0
 27  6  1  0
 25 12  1  0
 21 16  1  0
  1 28  1  0
  1 29  1  0
  1 30  1  0
  2 31  1  0
  2 32  1  0
  6 33  1  6
  7 34  1  0
  7 35  1  0
  8 36  1  0
  8 37  1  0
  9 38  1  1
 10 39  1  0
 10 40  1  0
 11 41  1  0
 11 42  1  0
 12 43  1  6
 13 44  1  0
 13 45  1  0
 14 46  1  0
 14 47  1  0
 15 48  1  1
 17 49  1  0
 18 50  1  0
 19 51  1  0
 20 52  1  0
 23 53  1  0
 23 54  1  0
 23 55  1  0
 24 56  1  0
 24 57  1  0
 25 58  1  0
 25 59  1  0
 26 60  1  0
 26 61  1  0
 27 62  1  0
 27 63  1  0
M  CHG  2   5  -1  12   1
M  END
>  <UniqueID>  (34) 
33

>  <SMILES>  (34) 
CCC(=O)[N-]C1CCC(CC[NH+]2CCC(c3ccccc3OC)CC2)CC1

>  <Energy>  (34) 
77.15223071661374

>  <Genealogy>  (34) 
CCC(=O)[N-]C1CCC(CC[NH+]2CCC(c3ccccc3OC)CC2)CC1 (protonated)
CCC(=O)[N-]C1CCC(CC[NH+]2CCC(c3ccccc3OC)CC2)CC1 (3D coordinates assigned)
CCC(=O)[N-]C1CCC(CC[NH+]2CCC(c3ccccc3OC)CC2)CC1 (nonaromatic ring conformer: 77.15223071661374 kcal/mol)

>  <smiles>  (34) 
CCC(=O)NC1CCC(CCN2CCC(c3ccccc3OC)CC2)CC1

>  <score_type>  (34) 
oracle

>  <origin>  (34) 
adg

>  <m_score__min__energy>  (34) 
-8.8000000000000007

>  <m_primary>  (34) 
energy

$$$$
34:0
     RDKit          3D

 29 30  0  0  0  0  0  0  0  0999 V2000
   58.8899   32.8784   42.8607 H   0  0  0  0  0  0  0  0  0  0  0  0
   58.4870   32.8100   43.8820 C   0  0  0  0  0  0  0  0  0  0  0  0
   58.7080   33.8500   44.7030 C   0  0  0  0  0  0  0  0  0  0  0  0
   58.3426   34.8359   44.3799 H   0  0  0  0  0  0  0  0  0  0  0  0
   59.4040   33.7760   46.0080 C   0  0  0  0  0  0  0  0  0  0  0  0
   58.6930   33.7880   47.2200 C   0  0  0  0  0  0  0  0  0  0  0  0
   57.5954   33.8607   47.2109 H   0  0  0  0  0  0  0  0  0  0  0  0
   59.3750   33.7080   48.4360 C   0  0  0  0  0  0  0  0  0  0  0  0
   58.8150   33.7412   49.3822 H   0  0  0  0  0  0  0  0  0  0  0  0
   60.7660   33.5860   48.4540 C   0  0  0  0  0  0  0  0  0  0  0  0
   61.2990   33.5476   49.4155 H   0  0  0  0  0  0  0  0  0  0  0  0
   61.4890   33.5120   47.2510 C   0  0  0  0  0  0  0  0  0  0  0  0
   62.9950   33.4170   47.2680 C   0  0  0  0  0  0  0  0  0  0  0  0
   63.5430   34.1900   46.2600 F   0  0  0  0  0  0  0  0  0  0  0  0
   63.4650   33.8660   48.4880 F   0  0  0  0  0  0  0  0  0  0  0  0
   63.4050   32.1080   47.0800 F   0  0  0  0  0  0  0  0  0  0  0  0
   60.7980   33.6220   46.0300 C   0  0  0  0  0  0  0  0  0  0  0  0
   61.3568   33.5869   45.0832 H   0  0  0  0  0  0  0  0  0  0  0  0
   57.7460   31.5800   44.2390 C   0  0  0  0  0  0  0  0  0  0  0  0
   58.0780   30.8250   45.3800 C   0  0  0  0  0  0  0  0  0  0  0  0
   58.9196   31.1356   46.0166 H   0  0  0  0  0  0  0  0  0  0  0  0
   57.3430   29.6830   45.7070 C   0  0  0  0  0  0  0  0  0  0  0  0
   57.6174   29.0880   46.5906 H   0  0  0  0  0  0  0  0  0  0  0  0
   56.2600   29.2950   44.9140 C   0  0  0  0  0  0  0  0  0  0  0  0
   55.5310   28.1570   45.2390 O   0  0  0  0  0  0  0  0  0  0  0  0
   55.9060   30.0560   43.7960 C   0  0  0  0  0  0  0  0  0  0  0  0
   55.0488   29.7551   43.1758 H   0  0  0  0  0  0  0  0  0  0  0  0
   56.6400   31.1990   43.4650 C   0  0  0  0  0  0  0  0  0  0  0  0
   56.3486   31.8027   42.5929 H   0  0  0  0  0  0  0  0  0  0  0  0
  1  2  1  0
  2  3  2  0
  3  4  1  0
  3  5  1  0
  5  6  2  0
  6  7  1  0
  6  8  1  0
  8  9  1  0
  8 10  2  0
 10 11  1  0
 10 12  1  0
 12 13  1  0
 13 14  1  0
 13 15  1  0
 13 16  1  0
 12 17  2  0
 17 18  1  0
  2 19  1  0
 19 20  2  0
 20 21  1  0
 20 22  1  0
 22 23  1  0
 22 24  2  0
 24 25  1  0
 24 26  1  0
 26 27  1  0
 26 28  2  0
 28 29  1  0
 17  5  1  0
 28 19  1  0
M  CHG  1  25  -1
M  END
>  <UniqueID>  (35) 
34

>  <SMILES>  (35) 
[O-]c1ccc(/C=C\c2cccc(C(F)(F)F)c2)cc1

>  <Energy>  (35) 
39.80046774953186

>  <Genealogy>  (35) 
[O-]c1ccc(C=Cc2cccc(C(F)(F)F)c2)cc1 (protonated)
[O-]c1ccc(/C=C\c2cccc(C(F)(F)F)c2)cc1 (cis-trans isomerization)
[O-]c1ccc(/C=C\c2cccc(C(F)(F)F)c2)cc1 (3D coordinates assigned)
[O-]c1ccc(/C=C\c2cccc(C(F)(F)F)c2)cc1 (optimized conformer: 39.80046774953186 kcal/mol)

>  <smiles>  (35) 
Oc1ccc(C=Cc2cccc(C(F)(F)F)c2)cc1

>  <score_type>  (35) 
oracle

>  <origin>  (35) 
adg

>  <m_score__min__energy>  (35) 
-10.279999999999999

>  <m_primary>  (35) 
energy

$$$$
35:0
     RDKit          3D

 41 43  0  0  0  0  0  0  0  0999 V2000
   57.7550   32.3380   42.3030 C   0  0  0  0  0  0  0  0  0  0  0  0
   58.1200   32.6100   43.7280 C   0  0  0  0  0  0  0  0  0  0  0  0
   58.5300   33.8200   44.2490 C   0  0  0  0  0  0  0  0  0  0  0  0
   58.7180   33.6980   45.5430 O   0  0  0  0  0  0  0  0  0  0  0  0
   58.4570   32.4600   45.9050 C   0  0  0  0  0  0  0  0  0  0  0  0
   58.6090   31.9860   47.2980 C   0  0  0  0  0  0  0  0  0  0  0  0
   58.8730   30.6350   47.5870 C   0  0  0  0  0  0  0  0  0  0  0  0
   59.0040   30.2090   48.9120 C   0  0  0  0  0  0  0  0  0  0  0  0
   58.8870   31.1290   49.9580 C   0  0  0  0  0  0  0  0  0  0  0  0
   59.0160   30.7140   51.2420 F   0  0  0  0  0  0  0  0  0  0  0  0
   58.6500   32.4760   49.6790 C   0  0  0  0  0  0  0  0  0  0  0  0
   58.5160   32.9060   48.3550 C   0  0  0  0  0  0  0  0  0  0  0  0
   58.0540   31.7290   44.7910 C   0  0  0  0  0  0  0  0  0  0  0  0
   57.5680   30.3370   44.7360 C   0  0  0  0  0  0  0  0  0  0  0  0
   56.3390   30.1130   44.9010 O   0  0  0  0  0  0  0  0  0  0  0  0
   58.4750   29.2370   44.5350 N   0  0  0  0  0  0  0  0  0  0  0  0
   58.0300   28.0130   43.8620 C   0  0  0  0  0  0  0  0  0  0  0  0
   58.2020   26.7970   44.7920 C   0  0  0  0  0  0  0  0  0  0  0  0
   59.3750   26.8880   45.7010 N   0  0  0  0  0  0  0  0  0  0  0  0
   58.9690   27.1360   47.0950 C   0  0  0  0  0  0  0  0  0  0  0  0
   60.3990   27.8540   45.2470 C   0  0  0  0  0  0  0  0  0  0  0  0
   59.8250   29.2730   45.1120 C   0  0  0  0  0  0  0  0  0  0  0  0
   56.8734   31.6810   42.2693 H   0  0  0  0  0  0  0  0  0  0  0  0
   57.5249   33.2867   41.7959 H   0  0  0  0  0  0  0  0  0  0  0  0
   58.5983   31.8463   41.7959 H   0  0  0  0  0  0  0  0  0  0  0  0
   58.6767   34.7438   43.6702 H   0  0  0  0  0  0  0  0  0  0  0  0
   58.9769   29.9100   46.7663 H   0  0  0  0  0  0  0  0  0  0  0  0
   59.1993   29.1490   49.1317 H   0  0  0  0  0  0  0  0  0  0  0  0
   58.5685   33.2009   50.5023 H   0  0  0  0  0  0  0  0  0  0  0  0
   58.3369   33.9699   48.1405 H   0  0  0  0  0  0  0  0  0  0  0  0
   56.9690   28.1141   43.5898 H   0  0  0  0  0  0  0  0  0  0  0  0
   58.6387   27.8606   42.9585 H   0  0  0  0  0  0  0  0  0  0  0  0
   57.2951   26.7018   45.4071 H   0  0  0  0  0  0  0  0  0  0  0  0
   58.3702   25.9240   44.1442 H   0  0  0  0  0  0  0  0  0  0  0  0
   59.7055   26.6861   47.7770 H   0  0  0  0  0  0  0  0  0  0  0  0
   58.9173   28.2200   47.2745 H   0  0  0  0  0  0  0  0  0  0  0  0
   57.9809   26.6871   47.2745 H   0  0  0  0  0  0  0  0  0  0  0  0
   61.2214   27.8706   45.9773 H   0  0  0  0  0  0  0  0  0  0  0  0
   60.7558   27.5339   44.2569 H   0  0  0  0  0  0  0  0  0  0  0  0
   59.7795   29.7398   46.1070 H   0  0  0  0  0  0  0  0  0  0  0  0
   60.4779   29.8554   44.4452 H   0  0  0  0  0  0  0  0  0  0  0  0
  1  2  1  0
  2  3  2  0
  3  4  1  0
  4  5  1  0
  5  6  1  0
  6  7  2  0
  7  8  1  0
  8  9  2  0
  9 10  1  0
  9 11  1  0
 11 12  2  0
  5 13  2  0
 13 14  1  0
 14 15  2  0
 14 16  1  0
 16 17  1  0
 17 18  1  0
 18 19  1  0
 19 20  1  0
 19 21  1  0
 21 22  1  0
 13  2  1  0
 22 16  1  0
 12  6  1  0
  1 23  1  0
  1 24  1  0
  1 25  1  0
  3 26  1  0
  7 27  1  0
  8 28  1  0
 11 29  1  0
 12 30  1  0
 17 31  1  0
 17 32  1  0
 18 33  1  0
 18 34  1  0
 20 35  1  0
 20 36  1  0
 20 37  1  0
 21 38  1  0
 21 39  1  0
 22 40  1  0
 22 41  1  0
M  END
>  <UniqueID>  (36) 
35

>  <SMILES>  (36) 
Cc1coc(-c2ccc(F)cc2)c1C(=O)N1CCN(C)CC1

>  <Energy>  (36) 
83.0749461096191

>  <Genealogy>  (36) 
Cc1coc(-c2ccc(F)cc2)c1C(=O)N1CCN(C)CC1 (3D coordinates assigned)
Cc1coc(-c2ccc(F)cc2)c1C(=O)N1CCN(C)CC1 (nonaromatic ring conformer: 83.0749461096191 kcal/mol)

>  <smiles>  (36) 
Cc1coc(-c2ccc(F)cc2)c1C(=O)N1CCN(C)CC1

>  <score_type>  (36) 
oracle

>  <origin>  (36) 
adg

>  <m_score__min__energy>  (36) 
-7.0800000000000001

>  <m_primary>  (36) 
energy

$$$$
36:0
     RDKit          3D

 25 26  0  0  0  0  0  0  0  0999 V2000
   58.3030   33.2350   44.1670 C   0  0  0  0  0  0  0  0  0  0  0  0
   57.8810   32.0790   43.3660 N   0  0  0  0  0  0  0  0  0  0  0  0
   57.7990   32.2200   41.9060 C   0  0  0  0  0  0  0  0  0  0  0  0
   57.5510   30.8180   44.0050 C   0  0  0  0  0  0  0  0  0  0  0  0
   56.2100   30.4000   44.1220 C   0  0  0  0  0  0  0  0  0  0  0  0
   55.8860   29.1880   44.7370 C   0  0  0  0  0  0  0  0  0  0  0  0
   56.8960   28.3600   45.2510 C   0  0  0  0  0  0  0  0  0  0  0  0
   56.6040   27.1320   45.8770 C   0  0  0  0  0  0  0  0  0  0  0  0
   55.4140   26.7330   45.9970 O   0  0  0  0  0  0  0  0  0  0  0  0
   57.6140   26.3600   46.3600 N   0  0  0  0  0  0  0  0  0  0  0  0
   58.9160   26.7330   46.2620 C   0  0  0  0  0  0  0  0  0  0  0  0
   59.2570   27.9400   45.6510 C   0  0  0  0  0  0  0  0  0  0  0  0
   58.2450   28.7640   45.1400 C   0  0  0  0  0  0  0  0  0  0  0  0
   58.5630   29.9840   44.5220 C   0  0  0  0  0  0  0  0  0  0  0  0
   58.2144   32.9922   45.2362 H   0  0  0  0  0  0  0  0  0  0  0  0
   59.3491   33.4814   43.9324 H   0  0  0  0  0  0  0  0  0  0  0  0
   57.6617   34.0974   43.9324 H   0  0  0  0  0  0  0  0  0  0  0  0
   57.2604   33.1462   41.6568 H   0  0  0  0  0  0  0  0  0  0  0  0
   58.8140   32.2612   41.4840 H   0  0  0  0  0  0  0  0  0  0  0  0
   57.2612   31.3582   41.4840 H   0  0  0  0  0  0  0  0  0  0  0  0
   55.4069   31.0372   43.7233 H   0  0  0  0  0  0  0  0  0  0  0  0
   54.8329   28.8809   44.8188 H   0  0  0  0  0  0  0  0  0  0  0  0
   59.7047   26.0812   46.6658 H   0  0  0  0  0  0  0  0  0  0  0  0
   60.3116   28.2425   45.5710 H   0  0  0  0  0  0  0  0  0  0  0  0
   59.6155   30.2930   44.4402 H   0  0  0  0  0  0  0  0  0  0  0  0
  1  2  1  0
  2  3  1  0
  2  4  1  0
  4  5  2  0
  5  6  1  0
  6  7  2  0
  7  8  1  0
  8  9  2  0
  8 10  1  0
 10 11  1  0
 11 12  2  0
 12 13  1  0
 13 14  2  0
 14  4  1  0
 13  7  1  0
  1 15  1  0
  1 16  1  0
  1 17  1  0
  3 18  1  0
  3 19  1  0
  3 20  1  0
  5 21  1  0
  6 22  1  0
 11 23  1  0
 12 24  1  0
 14 25  1  0
M  CHG  1  10  -1
M  END
>  <UniqueID>  (37) 
36

>  <SMILES>  (37) 
CN(C)c1ccc2c(=O)[n-]ccc2c1

>  <Energy>  (37) 
32.03179136865863

>  <Genealogy>  (37) 
CN(C)c1ccc2c(=O)[n-]ccc2c1 (protonated)
CN(C)c1ccc2c(=O)[n-]ccc2c1 (3D coordinates assigned)
CN(C)c1ccc2c(=O)[n-]ccc2c1 (optimized conformer: 32.03179136865863 kcal/mol)

>  <smiles>  (37) 
CN(C)c1ccc2c(=O)[nH]ccc2c1

>  <score_type>  (37) 
oracle

>  <origin>  (37) 
adg

>  <m_score__min__energy>  (37) 
-8.3800000000000008

>  <m_primary>  (37) 
energy

$$$$
37:0
     RDKit          3D

 36 38  0  0  0  0  0  0  0  0999 V2000
   59.0560   31.0200   48.7400 O   0  0  0  0  0  0  0  0  0  0  0  0
   59.7920   31.0620   47.7150 C   0  0  0  0  0  0  0  0  0  0  0  0
   59.3780   30.3890   46.5230 N   0  0  0  0  0  0  0  0  0  0  0  0
   58.1500   29.6150   46.4330 C   0  0  0  0  0  0  0  0  0  0  0  0
   57.4360   29.9750   45.1740 C   0  0  0  0  0  0  0  0  0  0  0  0
   57.9990   30.5850   44.0710 C   0  0  0  0  0  0  0  0  0  0  0  0
   56.9840   30.6840   43.1460 C   0  0  0  0  0  0  0  0  0  0  0  0
   55.8690   30.1250   43.7370 C   0  0  0  0  0  0  0  0  0  0  0  0
   56.1710   29.7090   44.9450 O   0  0  0  0  0  0  0  0  0  0  0  0
   61.0550   31.8400   47.7480 C   0  0  0  0  0  0  0  0  0  0  0  0
   62.2260   31.2370   47.2530 C   0  0  0  0  0  0  0  0  0  0  0  0
   63.4460   31.9140   47.2790 C   0  0  0  0  0  0  0  0  0  0  0  0
   63.5180   33.2060   47.7950 C   0  0  0  0  0  0  0  0  0  0  0  0
   62.3670   33.8290   48.2780 C   0  0  0  0  0  0  0  0  0  0  0  0
   61.1310   33.1660   48.2520 C   0  0  0  0  0  0  0  0  0  0  0  0
   59.6890   34.0850   48.8220 S   0  0  0  0  0  0  0  0  0  0  0  0
   58.9060   34.0620   47.2090 C   0  0  0  0  0  0  0  0  0  0  0  0
   59.5490   34.6420   46.1070 C   0  0  0  0  0  0  0  0  0  0  0  0
   58.9370   34.6250   44.8500 C   0  0  0  0  0  0  0  0  0  0  0  0
   57.6830   34.0250   44.6890 C   0  0  0  0  0  0  0  0  0  0  0  0
   57.0430   33.4380   45.7860 C   0  0  0  0  0  0  0  0  0  0  0  0
   57.6550   33.4530   47.0440 C   0  0  0  0  0  0  0  0  0  0  0  0
   58.3910   28.5418   46.4255 H   0  0  0  0  0  0  0  0  0  0  0  0
   57.5085   29.8367   47.2986 H   0  0  0  0  0  0  0  0  0  0  0  0
   59.0399   30.9213   43.9554 H   0  0  0  0  0  0  0  0  0  0  0  0
   57.0487   31.1208   42.1385 H   0  0  0  0  0  0  0  0  0  0  0  0
   54.8779   30.0408   43.2672 H   0  0  0  0  0  0  0  0  0  0  0  0
   62.1792   30.2185   46.8401 H   0  0  0  0  0  0  0  0  0  0  0  0
   64.3526   31.4265   46.8913 H   0  0  0  0  0  0  0  0  0  0  0  0
   64.4822   33.7348   47.8216 H   0  0  0  0  0  0  0  0  0  0  0  0
   62.4292   34.8498   48.6831 H   0  0  0  0  0  0  0  0  0  0  0  0
   60.5362   35.1111   46.2311 H   0  0  0  0  0  0  0  0  0  0  0  0
   59.4416   35.0836   43.9869 H   0  0  0  0  0  0  0  0  0  0  0  0
   57.2007   34.0149   43.7004 H   0  0  0  0  0  0  0  0  0  0  0  0
   56.0582   32.9645   45.6593 H   0  0  0  0  0  0  0  0  0  0  0  0
   57.1535   32.9861   47.9045 H   0  0  0  0  0  0  0  0  0  0  0  0
  1  2  2  0
  2  3  1  0
  3  4  1  0
  4  5  1  0
  5  6  2  0
  6  7  1  0
  7  8  2  0
  8  9  1  0
  2 10  1  0
 10 11  2  0
 11 12  1  0
 12 13  2  0
 13 14  1  0
 14 15  2  0
 15 16  1  0
 16 17  1  0
 17 18  2  0
 18 19  1  0
 19 20  2  0
 20 21  1  0
 21 22  2  0
  9  5  1  0
 15 10  1  0
 22 17  1  0
  4 23  1  0
  4 24  1  0
  6 25  1  0
  7 26  1  0
  8 27  1  0
 11 28  1  0
 12 29  1  0
 13 30  1  0
 14 31  1  0
 18 32  1  0
 19 33  1  0
 20 34  1  0
 21 35  1  0
 22 36  1  0
M  CHG  1   3  -1
M  END
>  <UniqueID>  (38) 
37

>  <SMILES>  (38) 
O=C([N-]Cc1ccco1)c1ccccc1Sc1ccccc1

>  <Energy>  (38) 
60.48617184075171

>  <Genealogy>  (38) 
O=C([N-]Cc1ccco1)c1ccccc1Sc1ccccc1 (protonated)
O=C([N-]Cc1ccco1)c1ccccc1Sc1ccccc1 (3D coordinates assigned)
O=C([N-]Cc1ccco1)c1ccccc1Sc1ccccc1 (optimized conformer: 60.48617184075171 kcal/mol)

>  <smiles>  (38) 
O=C(NCc1ccco1)c1ccccc1Sc1ccccc1

>  <score_type>  (38) 
oracle

>  <origin>  (38) 
adg

>  <m_score__min__energy>  (38) 
-10.06

>  <m_primary>  (38) 
energy

$$$$
38:0
     RDKit          3D

 55 57  0  0  0  0  0  0  0  0999 V2000
   59.6590   35.6060   45.8810 C   0  0  0  0  0  0  0  0  0  0  0  0
   59.5380   34.2970   46.4250 O   0  0  0  0  0  0  0  0  0  0  0  0
   58.8360   33.2410   45.8230 C   0  0  0  0  0  0  0  0  0  0  0  0
   58.5240   33.2570   44.4490 C   0  0  0  0  0  0  0  0  0  0  0  0
   57.8620   32.1790   43.8600 C   0  0  0  0  0  0  0  0  0  0  0  0
   57.4990   31.0700   44.6280 C   0  0  0  0  0  0  0  0  0  0  0  0
   56.7010   29.7030   43.8600 S   0  0  0  0  0  0  0  0  0  0  0  0
   56.3110   30.0850   42.4600 O   0  0  0  0  0  0  0  0  0  0  0  0
   55.4540   29.3290   44.6120 O   0  0  0  0  0  0  0  0  0  0  0  0
   57.7950   28.3540   43.8450 N   0  0  0  0  0  0  0  0  0  0  0  0
   57.7680   27.4590   42.6900 C   0  0  0  0  0  0  0  0  0  0  0  0
   58.4040   27.9290   45.0740 C   0  0  0  0  0  0  0  0  0  0  0  0
   57.6090   27.5080   46.1550 C   0  0  0  0  0  0  0  0  0  0  0  0
   58.2080   27.1060   47.3540 C   0  0  0  0  0  0  0  0  0  0  0  0
   59.6000   27.1190   47.4810 C   0  0  0  0  0  0  0  0  0  0  0  0
   60.1780   26.7290   48.6430 F   0  0  0  0  0  0  0  0  0  0  0  0
   60.3960   27.5300   46.4070 C   0  0  0  0  0  0  0  0  0  0  0  0
   59.8010   27.9330   45.2080 C   0  0  0  0  0  0  0  0  0  0  0  0
   57.8090   31.0420   45.9920 C   0  0  0  0  0  0  0  0  0  0  0  0
   58.4540   32.1270   46.6040 C   0  0  0  0  0  0  0  0  0  0  0  0
   58.7270   32.0530   48.0160 N   0  0  0  0  0  0  0  0  0  0  0  0
   59.6910   31.1160   48.6230 C   0  0  2  0  0  0  0  0  0  0  0  0
   60.4320   31.7690   49.8140 C   0  0  0  0  0  0  0  0  0  0  0  0
   61.7630   32.4450   49.4080 C   0  0  0  0  0  0  0  0  0  0  0  0
   61.7380   32.9010   48.0030 N   0  0  1  0  0  0  0  0  0  0  0  0
   62.9520   33.6780   47.6990 C   0  0  0  0  0  0  0  0  0  0  0  0
   61.6030   31.7660   47.0520 C   0  0  0  0  0  0  0  0  0  0  0  0
   60.7140   30.6200   47.5850 C   0  0  0  0  0  0  0  0  0  0  0  0
   59.7267   36.3382   46.6991 H   0  0  0  0  0  0  0  0  0  0  0  0
   60.5663   35.6633   45.2617 H   0  0  0  0  0  0  0  0  0  0  0  0
   58.7776   35.8286   45.2617 H   0  0  0  0  0  0  0  0  0  0  0  0
   58.8045   34.1261   43.8358 H   0  0  0  0  0  0  0  0  0  0  0  0
   57.6249   32.2026   42.7861 H   0  0  0  0  0  0  0  0  0  0  0  0
   57.7365   26.4152   43.0356 H   0  0  0  0  0  0  0  0  0  0  0  0
   56.8758   27.6712   42.0825 H   0  0  0  0  0  0  0  0  0  0  0  0
   58.6713   27.6170   42.0825 H   0  0  0  0  0  0  0  0  0  0  0  0
   56.5134   27.4947   46.0577 H   0  0  0  0  0  0  0  0  0  0  0  0
   57.5826   26.7793   48.1978 H   0  0  0  0  0  0  0  0  0  0  0  0
   61.4915   27.5361   46.5059 H   0  0  0  0  0  0  0  0  0  0  0  0
   60.4308   28.2548   44.3655 H   0  0  0  0  0  0  0  0  0  0  0  0
   57.5438   30.1587   46.5916 H   0  0  0  0  0  0  0  0  0  0  0  0
   58.3540   32.8350   48.6010 H   0  0  0  0  0  0  0  0  0  0  0  0
   59.1166   30.2541   48.9935 H   0  0  0  0  0  0  0  0  0  0  0  0
   59.7749   32.5305   50.2593 H   0  0  0  0  0  0  0  0  0  0  0  0
   60.6770   30.9668   50.5257 H   0  0  0  0  0  0  0  0  0  0  0  0
   61.9359   33.3128   50.0614 H   0  0  0  0  0  0  0  0  0  0  0  0
   62.5698   31.7048   49.5140 H   0  0  0  0  0  0  0  0  0  0  0  0
   60.9270   33.5510   47.8760 H   0  0  0  0  0  0  0  0  0  0  0  0
   63.4344   33.9868   48.6381 H   0  0  0  0  0  0  0  0  0  0  0  0
   63.6482   33.0573   47.1159 H   0  0  0  0  0  0  0  0  0  0  0  0
   62.6799   34.5702   47.1159 H   0  0  0  0  0  0  0  0  0  0  0  0
   61.1613   32.1443   46.1183 H   0  0  0  0  0  0  0  0  0  0  0  0
   62.6098   31.3506   46.8978 H   0  0  0  0  0  0  0  0  0  0  0  0
   60.1723   30.1691   46.7405 H   0  0  0  0  0  0  0  0  0  0  0  0
   61.3676   29.8852   48.0777 H   0  0  0  0  0  0  0  0  0  0  0  0
  1  2  1  0
  2  3  1  0
  3  4  2  0
  4  5  1  0
  5  6  2  0
  6  7  1  0
  7  8  2  0
  7  9  2  0
  7 10  1  0
 10 11  1  0
 10 12  1  0
 12 13  2  0
 13 14  1  0
 14 15  2  0
 15 16  1  0
 15 17  1  0
 17 18  2  0
  6 19  1  0
 19 20  2  0
 20 21  1  0
 21 22  1  0
 22 23  1  0
 23 24  1  0
 24 25  1  0
 25 26  1  0
 25 27  1  0
 27 28  1  0
 20  3  1  0
 28 22  1  0
 18 12  1  0
  1 29  1  0
  1 30  1  0
  1 31  1  0
  4 32  1  0
  5 33  1  0
 11 34  1  0
 11 35  1  0
 11 36  1  0
 13 37  1  0
 14 38  1  0
 17 39  1  0
 18 40  1  0
 19 41  1  0
 21 42  1  0
 22 43  1  1
 23 44  1  0
 23 45  1  0
 24 46  1  0
 24 47  1  0
 25 48  1  1
 26 49  1  0
 26 50  1  0
 26 51  1  0
 27 52  1  0
 27 53  1  0
 28 54  1  0
 28 55  1  0
M  CHG  1  25   1
M  END
>  <UniqueID>  (39) 
38

>  <SMILES>  (39) 
COc1ccc(S(=O)(=O)N(C)c2ccc(F)cc2)cc1NC1CC[NH+](C)CC1

>  <Energy>  (39) 
70.39954653228605

>  <Genealogy>  (39) 
COc1ccc(S(=O)(=O)N(C)c2ccc(F)cc2)cc1NC1CC[NH+](C)CC1 (protonated)
COc1ccc(S(=O)(=O)N(C)c2ccc(F)cc2)cc1NC1CC[NH+](C)CC1 (3D coordinates assigned)
COc1ccc(S(=O)(=O)N(C)c2ccc(F)cc2)cc1NC1CC[NH+](C)CC1 (nonaromatic ring conformer: 70.39954653228605 kcal/mol)

>  <smiles>  (39) 
COc1ccc(S(=O)(=O)N(C)c2ccc(F)cc2)cc1NC1CCN(C)CC1

>  <score_type>  (39) 
oracle

>  <origin>  (39) 
adg

>  <m_score__min__energy>  (39) 
-7.1900000000000004

>  <m_primary>  (39) 
energy

$$$$
39:0
     RDKit          3D

 39 41  0  0  0  0  0  0  0  0999 V2000
   57.7799   34.5291   45.0955 H   0  0  0  0  0  0  0  0  0  0  0  0
   58.6110   33.9280   45.4930 C   0  0  0  0  0  0  0  0  0  0  0  0
   59.6630   34.5730   46.0150 C   0  0  0  0  0  0  0  0  0  0  0  0
   60.1571   35.3587   45.4246 H   0  0  0  0  0  0  0  0  0  0  0  0
   60.1770   34.2550   47.3660 C   0  0  0  0  0  0  0  0  0  0  0  0
   59.2860   34.3650   48.4410 C   0  0  0  0  0  0  0  0  0  0  0  0
   58.2361   34.6374   48.2581 H   0  0  0  0  0  0  0  0  0  0  0  0
   59.7270   34.1300   49.7420 C   0  0  0  0  0  0  0  0  0  0  0  0
   59.0274   34.2312   50.5848 H   0  0  0  0  0  0  0  0  0  0  0  0
   61.0160   33.7770   49.9720 N   0  0  0  0  0  0  0  0  0  0  0  0
   61.9120   33.6270   48.9610 C   0  0  0  0  0  0  0  0  0  0  0  0
   63.2240   33.2380   49.2540 C   0  0  0  0  0  0  0  0  0  0  0  0
   63.5312   33.0871   50.2994 H   0  0  0  0  0  0  0  0  0  0  0  0
   64.1440   33.0410   48.2220 C   0  0  0  0  0  0  0  0  0  0  0  0
   65.1765   32.7426   48.4565 H   0  0  0  0  0  0  0  0  0  0  0  0
   63.7560   33.2220   46.8940 C   0  0  0  0  0  0  0  0  0  0  0  0
   64.4815   33.0554   46.0841 H   0  0  0  0  0  0  0  0  0  0  0  0
   62.4500   33.6140   46.5880 C   0  0  0  0  0  0  0  0  0  0  0  0
   62.1500   33.7417   45.5374 H   0  0  0  0  0  0  0  0  0  0  0  0
   61.5140   33.8470   47.6170 C   0  0  0  0  0  0  0  0  0  0  0  0
   58.5020   32.4510   45.4200 C   0  0  0  0  0  0  0  0  0  0  0  0
   59.4070   31.5940   46.0760 C   0  0  0  0  0  0  0  0  0  0  0  0
   60.2251   32.0189   46.6762 H   0  0  0  0  0  0  0  0  0  0  0  0
   59.2720   30.2080   45.9690 C   0  0  0  0  0  0  0  0  0  0  0  0
   59.9784   29.5484   46.4943 H   0  0  0  0  0  0  0  0  0  0  0  0
   58.2440   29.6520   45.1980 C   0  0  0  0  0  0  0  0  0  0  0  0
   58.1290   28.2240   45.0910 N   0  0  0  0  0  0  0  0  0  0  0  0
   57.7260   27.4450   46.2610 C   0  0  0  0  0  0  0  0  0  0  0  0
   58.0062   27.9867   47.1764 H   0  0  0  0  0  0  0  0  0  0  0  0
   56.6366   27.2938   46.2434 H   0  0  0  0  0  0  0  0  0  0  0  0
   58.2320   26.4685   46.2434 H   0  0  0  0  0  0  0  0  0  0  0  0
   58.4950   27.5440   43.8500 C   0  0  0  0  0  0  0  0  0  0  0  0
   59.0041   26.5981   44.0866 H   0  0  0  0  0  0  0  0  0  0  0  0
   57.5873   27.3354   43.2647 H   0  0  0  0  0  0  0  0  0  0  0  0
   59.1690   28.1868   43.2647 H   0  0  0  0  0  0  0  0  0  0  0  0
   57.3430   30.5000   44.5310 C   0  0  0  0  0  0  0  0  0  0  0  0
   55.8880   29.7980   43.4990 Br  0  0  0  0  0  0  0  0  0  0  0  0
   57.4800   31.8880   44.6400 C   0  0  0  0  0  0  0  0  0  0  0  0
   56.7778   32.5464   44.1076 H   0  0  0  0  0  0  0  0  0  0  0  0
  1  2  1  0
  2  3  2  0
  3  4  1  0
  3  5  1  0
  5  6  2  0
  6  7  1  0
  6  8  1  0
  8  9  1  0
  8 10  2  0
 10 11  1  0
 11 12  2  0
 12 13  1  0
 12 14  1  0
 14 15  1  0
 14 16  2  0
 16 17  1  0
 16 18  1  0
 18 19  1  0
 18 20  2  0
  2 21  1  0
 21 22  2  0
 22 23  1  0
 22 24  1  0
 24 25  1  0
 24 26  2  0
 26 27  1  0
 27 28  1  0
 28 29  1  0
 28 30  1  0
 28 31  1  0
 27 32  1  0
 32 33  1  0
 32 34  1  0
 32 35  1  0
 26 36  1  0
 36 37  1  0
 36 38  2  0
 38 39  1  0
 20  5  1  0
 38 21  1  0
 20 11  1  0
M  END
>  <UniqueID>  (40) 
39

>  <SMILES>  (40) 
CN(C)c1ccc(/C=C/c2ccnc3ccccc23)cc1Br

>  <Energy>  (40) 
58.46780070433462

>  <Genealogy>  (40) 
CN(C)c1ccc(/C=C/c2ccnc3ccccc23)cc1Br (cis-trans isomerization)
CN(C)c1ccc(/C=C/c2ccnc3ccccc23)cc1Br (3D coordinates assigned)
CN(C)c1ccc(/C=C/c2ccnc3ccccc23)cc1Br (optimized conformer: 58.46780070433462 kcal/mol)

>  <smiles>  (40) 
CN(C)c1ccc(C=Cc2ccnc3ccccc23)cc1Br

>  <score_type>  (40) 
oracle

>  <origin>  (40) 
adg

>  <m_score__min__energy>  (40) 
-8.2699999999999996

>  <m_primary>  (40) 
energy

$$$$
40:0
     RDKit          3D

 45 46  0  0  0  0  0  0  0  0999 V2000
   53.1567   24.7959   45.2254 H   0  0  0  0  0  0  0  0  0  0  0  0
   54.1930   24.8780   45.5850 C   0  0  0  0  0  0  0  0  0  0  0  0
   54.7870   26.0920   45.6730 N   0  0  0  0  0  0  0  0  0  0  0  0
   56.0530   26.2820   46.1390 C   0  0  0  0  0  0  0  0  0  0  0  0
   56.5270   27.4930   45.9840 N   0  0  0  0  0  0  0  0  0  0  0  0
   57.0120   28.3560   44.8980 C   0  0  1  0  0  0  0  0  0  0  0  0
   57.7849   29.0147   45.3209 H   0  0  0  0  0  0  0  0  0  0  0  0
   57.8170   27.6140   43.8190 C   0  0  0  0  0  0  0  0  0  0  0  0
   58.5443   26.9436   44.3003 H   0  0  0  0  0  0  0  0  0  0  0  0
   57.1327   27.0233   43.1923 H   0  0  0  0  0  0  0  0  0  0  0  0
   58.3501   28.3441   43.1923 H   0  0  0  0  0  0  0  0  0  0  0  0
   55.9220   29.3350   44.4080 C   0  0  0  0  0  0  0  0  0  0  0  0
   55.8126   30.1394   45.1502 H   0  0  0  0  0  0  0  0  0  0  0  0
   54.9910   28.7615   44.2880 H   0  0  0  0  0  0  0  0  0  0  0  0
   56.2550   29.9620   43.0530 C   0  0  0  0  0  0  0  0  0  0  0  0
   56.7657   30.9236   43.2095 H   0  0  0  0  0  0  0  0  0  0  0  0
   56.9126   29.2854   42.4876 H   0  0  0  0  0  0  0  0  0  0  0  0
   55.3262   30.1279   42.4876 H   0  0  0  0  0  0  0  0  0  0  0  0
   56.7580   25.1440   46.6570 C   0  0  0  0  0  0  0  0  0  0  0  0
   57.9330   25.2020   47.6090 C   0  0  0  0  0  0  0  0  0  0  0  0
   57.6151   25.6784   48.5481 H   0  0  0  0  0  0  0  0  0  0  0  0
   58.2844   24.1780   47.8038 H   0  0  0  0  0  0  0  0  0  0  0  0
   59.0250   25.9730   47.0250 N   0  0  0  0  0  0  0  0  0  0  0  0
   59.6170   27.1590   47.5720 C   0  0  0  0  0  0  0  0  0  0  0  0
   60.6990   27.0540   48.2060 O   0  0  0  0  0  0  0  0  0  0  0  0
   58.9950   28.4450   47.4230 N   0  0  0  0  0  0  0  0  0  0  0  0
   58.0670   28.5250   46.9570 H   0  0  0  0  0  0  0  0  0  0  0  0
   59.6050   29.6740   47.9270 C   0  0  0  0  0  0  0  0  0  0  0  0
   58.8664   30.2187   48.5334 H   0  0  0  0  0  0  0  0  0  0  0  0
   60.4818   29.4043   48.5340 H   0  0  0  0  0  0  0  0  0  0  0  0
   60.0690   30.5740   46.7770 C   0  0  0  0  0  0  0  0  0  0  0  0
   60.9697   31.1219   47.0910 H   0  0  0  0  0  0  0  0  0  0  0  0
   60.2853   29.9405   45.9041 H   0  0  0  0  0  0  0  0  0  0  0  0
   59.0050   31.5590   46.3970 C   0  0  0  0  0  0  0  0  0  0  0  0
   58.4320   32.7980   47.3780 S   0  0  0  0  0  0  0  0  0  0  0  0
   57.3980   33.4710   46.2340 C   0  0  0  0  0  0  0  0  0  0  0  0
   56.7490   34.3457   46.3881 H   0  0  0  0  0  0  0  0  0  0  0  0
   57.5040   32.7330   45.0610 C   0  0  0  0  0  0  0  0  0  0  0  0
   56.9319   32.9649   44.1505 H   0  0  0  0  0  0  0  0  0  0  0  0
   58.4070   31.6670   45.1470 C   0  0  0  0  0  0  0  0  0  0  0  0
   58.6214   30.9848   44.3111 H   0  0  0  0  0  0  0  0  0  0  0  0
   56.1700   23.8750   46.4850 C   0  0  0  0  0  0  0  0  0  0  0  0
   56.7302   22.9754   46.7799 H   0  0  0  0  0  0  0  0  0  0  0  0
   54.8940   23.7400   45.9490 C   0  0  0  0  0  0  0  0  0  0  0  0
   54.4475   22.7435   45.8159 H   0  0  0  0  0  0  0  0  0  0  0  0
  1  2  1  0
  2  3  1  0
  3  4  1  0
  4  5  2  0
  5  6  1  0
  6  7  1  1
  6  8  1  0
  8  9  1  0
  8 10  1  0
  8 11  1  0
  6 12  1  0
 12 13  1  0
 12 14  1  0
 12 15  1  0
 15 16  1  0
 15 17  1  0
 15 18  1  0
  4 19  1  0
 19 20  1  0
 20 21  1  0
 20 22  1  0
 20 23  1  0
 23 24  1  0
 24 25  2  0
 24 26  1  0
 26 27  1  0
 26 28  1  0
 28 29  1  0
 28 30  1  0
 28 31  1  0
 31 32  1  0
 31 33  1  0
 31 34  1  0
 34 35  1  0
 35 36  1  0
 36 37  1  0
 36 38  2  0
 38 39  1  0
 38 40  1  0
 40 41  1  0
 19 42  2  0
 42 43  1  0
 42 44  1  0
 44 45  1  0
 44  2  2  0
 40 34  2  0
M  CHG  2   3  -1  23  -1
M  END
>  <UniqueID>  (41) 
40

>  <SMILES>  (41) 
CC[C@H](C)/N=c1/[n-]cccc1C[N-]C(=O)NCCc1cccs1

>  <Energy>  (41) 
88.48723733233172

>  <Genealogy>  (41) 
CCC(C)N=c1[n-]cccc1C[N-]C(=O)NCCc1cccs1 (protonated)
CC[C@H](C)N=c1[n-]cccc1C[N-]C(=O)NCCc1cccs1 (chirality)
CC[C@H](C)/N=c1/[n-]cccc1C[N-]C(=O)NCCc1cccs1 (cis-trans isomerization)
CC[C@H](C)/N=c1/[n-]cccc1C[N-]C(=O)NCCc1cccs1 (3D coordinates assigned)
CC[C@H](C)/N=c1/[n-]cccc1C[N-]C(=O)NCCc1cccs1 (optimized conformer: 88.48723733233172 kcal/mol)

>  <smiles>  (41) 
CCC(C)N=c1[nH]cccc1CNC(=O)NCCc1cccs1

>  <score_type>  (41) 
oracle

>  <origin>  (41) 
adg

>  <m_score__min__energy>  (41) 
-10.4

>  <m_primary>  (41) 
energy

$$$$
41:0
     RDKit          3D

 49 51  0  0  0  0  0  0  0  0999 V2000
   56.6080   23.2830   48.4410 C   0  0  0  0  0  0  0  0  0  0  0  0
   57.2360   24.0290   47.4030 O   0  0  0  0  0  0  0  0  0  0  0  0
   57.1800   23.7040   46.0370 C   0  0  0  0  0  0  0  0  0  0  0  0
   57.9270   22.6300   45.5100 C   0  0  0  0  0  0  0  0  0  0  0  0
   57.8330   22.2950   44.1590 C   0  0  0  0  0  0  0  0  0  0  0  0
   56.9960   23.0210   43.3150 C   0  0  0  0  0  0  0  0  0  0  0  0
   56.2530   24.0910   43.8180 C   0  0  0  0  0  0  0  0  0  0  0  0
   56.3430   24.4550   45.1750 C   0  0  0  0  0  0  0  0  0  0  0  0
   55.5400   25.6010   45.6670 C   0  0  0  0  0  0  0  0  0  0  0  0
   54.3350   25.4190   45.9900 O   0  0  0  0  0  0  0  0  0  0  0  0
   56.1390   26.8970   45.8150 N   0  0  0  0  0  0  0  0  0  0  0  0
   57.5170   27.1910   46.1040 C   0  0  0  0  0  0  0  0  0  0  0  0
   58.1230   26.8070   47.3130 C   0  0  0  0  0  0  0  0  0  0  0  0
   59.4440   27.0550   47.5290 N   0  0  0  0  0  0  0  0  0  0  0  0
   60.2110   27.6840   46.6000 C   0  0  0  0  0  0  0  0  0  0  0  0
   59.6480   28.1120   45.3990 C   0  0  0  0  0  0  0  0  0  0  0  0
   58.2910   27.8800   45.1510 C   0  0  0  0  0  0  0  0  0  0  0  0
   57.6890   28.3690   43.8950 C   0  0  0  0  0  0  0  0  0  0  0  0
   57.7650   27.6440   42.8650 O   0  0  0  0  0  0  0  0  0  0  0  0
   57.0200   29.6450   43.8280 N   0  0  0  0  0  0  0  0  0  0  0  0
   55.5860   29.7080   44.1280 C   0  0  0  0  0  0  0  0  0  0  0  0
   57.7410   30.8510   43.3940 C   0  0  0  0  0  0  0  0  0  0  0  0
   57.8800   31.8250   44.5380 C   0  0  0  0  0  0  0  0  0  0  0  0
   57.7660   33.2050   44.3050 C   0  0  0  0  0  0  0  0  0  0  0  0
   57.9240   34.1130   45.3570 C   0  0  0  0  0  0  0  0  0  0  0  0
   58.1860   33.6490   46.6490 C   0  0  0  0  0  0  0  0  0  0  0  0
   58.2880   32.2770   46.8910 C   0  0  0  0  0  0  0  0  0  0  0  0
   58.1360   31.3660   45.8400 C   0  0  0  0  0  0  0  0  0  0  0  0
   56.9331   23.6692   49.4183 H   0  0  0  0  0  0  0  0  0  0  0  0
   55.5158   23.3802   48.3532 H   0  0  0  0  0  0  0  0  0  0  0  0
   56.8900   22.2234   48.3532 H   0  0  0  0  0  0  0  0  0  0  0  0
   58.5897   22.0513   46.1702 H   0  0  0  0  0  0  0  0  0  0  0  0
   58.4212   21.4557   43.7595 H   0  0  0  0  0  0  0  0  0  0  0  0
   56.9202   22.7513   42.2513 H   0  0  0  0  0  0  0  0  0  0  0  0
   55.5899   24.6559   43.1463 H   0  0  0  0  0  0  0  0  0  0  0  0
   57.5268   26.3036   48.0883 H   0  0  0  0  0  0  0  0  0  0  0  0
   59.8760   26.7610   48.4330 H   0  0  0  0  0  0  0  0  0  0  0  0
   61.2796   27.8559   46.7966 H   0  0  0  0  0  0  0  0  0  0  0  0
   60.2669   28.6290   44.6508 H   0  0  0  0  0  0  0  0  0  0  0  0
   55.4394   29.7144   45.2182 H   0  0  0  0  0  0  0  0  0  0  0  0
   55.1609   30.6257   43.6954 H   0  0  0  0  0  0  0  0  0  0  0  0
   55.0820   28.8311   43.6954 H   0  0  0  0  0  0  0  0  0  0  0  0
   58.7419   30.5657   43.0380 H   0  0  0  0  0  0  0  0  0  0  0  0
   57.1731   31.3325   42.5843 H   0  0  0  0  0  0  0  0  0  0  0  0
   57.5516   33.5734   43.2910 H   0  0  0  0  0  0  0  0  0  0  0  0
   57.8420   35.1934   45.1673 H   0  0  0  0  0  0  0  0  0  0  0  0
   58.3119   34.3641   47.4753 H   0  0  0  0  0  0  0  0  0  0  0  0
   58.4881   31.9123   47.9093 H   0  0  0  0  0  0  0  0  0  0  0  0
   58.2173   30.2864   46.0344 H   0  0  0  0  0  0  0  0  0  0  0  0
  1  2  1  0
  2  3  1  0
  3  4  2  0
  4  5  1  0
  5  6  2  0
  6  7  1  0
  7  8  2  0
  8  9  1  0
  9 10  2  0
  9 11  1  0
 11 12  1  0
 12 13  2  0
 13 14  1  0
 14 15  2  0
 15 16  1  0
 16 17  2  0
 17 18  1  0
 18 19  2  0
 18 20  1  0
 20 21  1  0
 20 22  1  0
 22 23  1  0
 23 24  2  0
 24 25  1  0
 25 26  2  0
 26 27  1  0
 27 28  2  0
  8  3  1  0
 17 12  1  0
 28 23  1  0
  1 29  1  0
  1 30  1  0
  1 31  1  0
  4 32  1  0
  5 33  1  0
  6 34  1  0
  7 35  1  0
 13 36  1  0
 14 37  1  0
 15 38  1  0
 16 39  1  0
 21 40  1  0
 21 41  1  0
 21 42  1  0
 22 43  1  0
 22 44  1  0
 24 45  1  0
 25 46  1  0
 26 47  1  0
 27 48  1  0
 28 49  1  0
M  CHG  2  11  -1  14   1
M  END
>  <UniqueID>  (42) 
41

>  <SMILES>  (42) 
COc1ccccc1C(=O)[N-]c1c[nH+]ccc1C(=O)N(C)Cc1ccccc1

>  <Energy>  (42) 
55.77190427791688

>  <Genealogy>  (42) 
COc1ccccc1C(=O)[N-]c1c[nH+]ccc1C(=O)N(C)Cc1ccccc1 (protonated)
COc1ccccc1C(=O)[N-]c1c[nH+]ccc1C(=O)N(C)Cc1ccccc1 (3D coordinates assigned)
COc1ccccc1C(=O)[N-]c1c[nH+]ccc1C(=O)N(C)Cc1ccccc1 (optimized conformer: 55.77190427791688 kcal/mol)

>  <smiles>  (42) 
COc1ccccc1C(=O)Nc1cnccc1C(=O)N(C)Cc1ccccc1

>  <score_type>  (42) 
oracle

>  <origin>  (42) 
adg

>  <m_score__min__energy>  (42) 
-8

>  <m_primary>  (42) 
energy

$$$$
42:0
     RDKit          3D

 32 34  0  0  0  0  0  0  0  0999 V2000
   54.7970   23.7370   45.0170 C   0  0  0  0  0  0  0  0  0  0  0  0
   53.9430   24.8520   45.6080 C   0  0  0  0  0  0  0  0  0  0  0  0
   54.7460   25.9890   45.9210 O   0  0  0  0  0  0  0  0  0  0  0  0
   56.1240   25.9180   46.1560 C   0  0  0  0  0  0  0  0  0  0  0  0
   56.5720   25.5810   47.2850 O   0  0  0  0  0  0  0  0  0  0  0  0
   57.0720   26.3040   45.0680 C   0  0  0  0  0  0  0  0  0  0  0  0
   57.6140   27.6320   45.3330 N   0  0  0  0  0  0  0  0  0  0  0  0
   59.2060   27.9670   45.7230 S   0  0  0  0  0  0  0  0  0  0  0  0
   59.0590   29.6280   45.7650 C   0  0  0  0  0  0  0  0  0  0  0  0
   59.9780   30.5820   46.0290 N   0  0  0  0  0  0  0  0  0  0  0  0
   59.5980   31.8640   45.9900 N   0  0  0  0  0  0  0  0  0  0  0  0
   58.3090   32.2170   45.6770 C   0  0  0  0  0  0  0  0  0  0  0  0
   57.9080   33.6590   45.6760 C   0  0  0  0  0  0  0  0  0  0  0  0
   58.8700   34.5870   46.4030 C   0  0  0  0  0  0  0  0  0  0  0  0
   58.8300   34.5750   44.8850 C   0  0  0  0  0  0  0  0  0  0  0  0
   57.3770   31.2490   45.4200 N   0  0  0  0  0  0  0  0  0  0  0  0
   57.7600   29.9510   45.4620 C   0  0  0  0  0  0  0  0  0  0  0  0
   56.9580   28.8240   45.2140 C   0  0  0  0  0  0  0  0  0  0  0  0
   55.7400   28.9020   44.9030 O   0  0  0  0  0  0  0  0  0  0  0  0
   55.2471   23.1494   45.8307 H   0  0  0  0  0  0  0  0  0  0  0  0
   54.1672   23.0822   44.3968 H   0  0  0  0  0  0  0  0  0  0  0  0
   55.5932   24.1745   44.3968 H   0  0  0  0  0  0  0  0  0  0  0  0
   53.1734   25.1432   44.8780 H   0  0  0  0  0  0  0  0  0  0  0  0
   53.4725   24.4856   46.5323 H   0  0  0  0  0  0  0  0  0  0  0  0
   57.8951   25.5755   45.0253 H   0  0  0  0  0  0  0  0  0  0  0  0
   56.5368   26.3153   44.1070 H   0  0  0  0  0  0  0  0  0  0  0  0
   60.9640   30.3300   46.2620 H   0  0  0  0  0  0  0  0  0  0  0  0
   56.8231   33.4800   45.7058 H   0  0  0  0  0  0  0  0  0  0  0  0
   58.4836   35.4556   46.9564 H   0  0  0  0  0  0  0  0  0  0  0  0
   59.6557   34.4533   47.1611 H   0  0  0  0  0  0  0  0  0  0  0  0
   58.4146   35.4349   44.3391 H   0  0  0  0  0  0  0  0  0  0  0  0
   59.5748   34.4290   44.0888 H   0  0  0  0  0  0  0  0  0  0  0  0
  1  2  1  0
  2  3  1  0
  3  4  1  0
  4  5  2  0
  4  6  1  0
  6  7  1  0
  7  8  1  0
  8  9  1  0
  9 10  2  0
 10 11  1  0
 11 12  2  0
 12 13  1  0
 13 14  1  0
 14 15  1  0
 12 16  1  0
 16 17  2  0
 17 18  1  0
 18 19  2  0
 18  7  1  0
 17  9  1  0
 15 13  1  0
  1 20  1  0
  1 21  1  0
  1 22  1  0
  2 23  1  0
  2 24  1  0
  6 25  1  0
  6 26  1  0
 10 27  1  0
 13 28  1  0
 14 29  1  0
 14 30  1  0
 15 31  1  0
 15 32  1  0
M  CHG  1  10   1
M  END
>  <UniqueID>  (43) 
42

>  <SMILES>  (43) 
CCOC(=O)Cn1sc2[nH+]nc(C3CC3)nc2c1=O

>  <Energy>  (43) 
333.92020151177206

>  <Genealogy>  (43) 
CCOC(=O)Cn1sc2[nH+]nc(C3CC3)nc2c1=O (protonated)
CCOC(=O)Cn1sc2[nH+]nc(C3CC3)nc2c1=O (3D coordinates assigned)
CCOC(=O)Cn1sc2[nH+]nc(C3CC3)nc2c1=O (nonaromatic ring conformer: 333.92020151177206 kcal/mol)

>  <smiles>  (43) 
CCOC(=O)Cn1sc2nnc(C3CC3)nc2c1=O

>  <score_type>  (43) 
oracle

>  <origin>  (43) 
adg

>  <m_score__min__energy>  (43) 
-5.7999999999999998

>  <m_primary>  (43) 
energy

$$$$
43:0
     RDKit          3D

 57 60  0  0  0  0  0  0  0  0999 V2000
   62.6450   31.3000   47.3010 C   0  0  0  0  0  0  0  0  0  0  0  0
   63.6810   32.1060   47.9650 N   0  0  0  0  0  0  0  0  0  0  0  0
   63.7790   33.4210   47.3070 C   0  0  0  0  0  0  0  0  0  0  0  0
   63.3900   32.2500   49.4090 C   0  0  0  0  0  0  0  0  0  0  0  0
   62.2690   31.2950   49.8560 C   0  0  0  0  0  0  0  0  0  0  0  0
   60.9010   31.9810   50.0910 C   0  0  0  0  0  0  0  0  0  0  0  0
   60.1460   32.2510   48.8420 N   0  0  0  0  0  0  0  0  0  0  0  0
   59.2610   31.3250   48.3240 C   0  0  0  0  0  0  0  0  0  0  0  0
   59.1840   29.6200   48.9200 S   0  0  0  0  0  0  0  0  0  0  0  0
   60.1810   28.9210   47.5660 C   0  0  0  0  0  0  0  0  0  0  0  0
   59.6800   27.5460   47.2330 C   0  0  0  0  0  0  0  0  0  0  0  0
   60.1780   26.5490   47.8230 O   0  0  0  0  0  0  0  0  0  0  0  0
   58.5960   27.3550   46.3050 N   0  0  0  0  0  0  0  0  0  0  0  0
   57.8840   26.0680   46.2940 C   0  0  0  0  0  0  0  0  0  0  0  0
   56.3980   26.2900   46.2430 C   0  0  0  0  0  0  0  0  0  0  0  0
   55.6120   25.4140   46.6890 O   0  0  0  0  0  0  0  0  0  0  0  0
   55.8720   27.4660   45.6240 N   0  0  0  0  0  0  0  0  0  0  0  0
   56.7490   28.4940   45.1570 C   0  0  0  0  0  0  0  0  0  0  0  0
   56.2480   29.5510   44.3910 C   0  0  0  0  0  0  0  0  0  0  0  0
   57.1160   30.5290   43.8970 C   0  0  0  0  0  0  0  0  0  0  0  0
   58.4860   30.4440   44.1570 C   0  0  0  0  0  0  0  0  0  0  0  0
   58.9900   29.3960   44.9350 C   0  0  0  0  0  0  0  0  0  0  0  0
   58.1190   28.4280   45.4650 C   0  0  0  0  0  0  0  0  0  0  0  0
   58.5000   31.6360   47.2390 N   0  0  0  0  0  0  0  0  0  0  0  0
   58.6160   32.8320   46.6080 C   0  0  0  0  0  0  0  0  0  0  0  0
   57.8010   33.1390   45.5060 C   0  0  0  0  0  0  0  0  0  0  0  0
   57.9510   34.3570   44.8390 C   0  0  0  0  0  0  0  0  0  0  0  0
   58.9170   35.2730   45.2610 C   0  0  0  0  0  0  0  0  0  0  0  0
   59.7360   34.9760   46.3540 C   0  0  0  0  0  0  0  0  0  0  0  0
   59.5870   33.7520   47.0370 C   0  0  0  0  0  0  0  0  0  0  0  0
   60.3800   33.4150   48.1450 C   0  0  0  0  0  0  0  0  0  0  0  0
   61.3130   34.1910   48.4950 O   0  0  0  0  0  0  0  0  0  0  0  0
   62.0173   30.8116   48.0609 H   0  0  0  0  0  0  0  0  0  0  0  0
   62.0200   31.9517   46.6728 H   0  0  0  0  0  0  0  0  0  0  0  0
   63.1230   30.5339   46.6728 H   0  0  0  0  0  0  0  0  0  0  0  0
   63.8378   34.2100   48.0713 H   0  0  0  0  0  0  0  0  0  0  0  0
   64.6818   33.4505   46.6793 H   0  0  0  0  0  0  0  0  0  0  0  0
   62.8905   33.5840   46.6793 H   0  0  0  0  0  0  0  0  0  0  0  0
   64.3016   32.0241   49.9817 H   0  0  0  0  0  0  0  0  0  0  0  0
   63.0579   33.2824   49.5931 H   0  0  0  0  0  0  0  0  0  0  0  0
   62.1402   30.5277   49.0784 H   0  0  0  0  0  0  0  0  0  0  0  0
   62.5807   30.8759   50.8241 H   0  0  0  0  0  0  0  0  0  0  0  0
   60.2904   31.3275   50.7314 H   0  0  0  0  0  0  0  0  0  0  0  0
   61.1063   32.9550   50.5592 H   0  0  0  0  0  0  0  0  0  0  0  0
   60.0980   29.5661   46.6789 H   0  0  0  0  0  0  0  0  0  0  0  0
   61.2337   28.8614   47.8793 H   0  0  0  0  0  0  0  0  0  0  0  0
   58.1944   25.4899   45.4111 H   0  0  0  0  0  0  0  0  0  0  0  0
   58.1305   25.5167   47.2134 H   0  0  0  0  0  0  0  0  0  0  0  0
   55.1708   29.6129   44.1771 H   0  0  0  0  0  0  0  0  0  0  0  0
   56.7201   31.3660   43.3032 H   0  0  0  0  0  0  0  0  0  0  0  0
   59.1700   31.2028   43.7491 H   0  0  0  0  0  0  0  0  0  0  0  0
   60.0701   29.3293   45.1324 H   0  0  0  0  0  0  0  0  0  0  0  0
   57.8270   30.9240   46.8750 H   0  0  0  0  0  0  0  0  0  0  0  0
   57.0424   32.4181   45.1673 H   0  0  0  0  0  0  0  0  0  0  0  0
   57.3070   34.5952   43.9796 H   0  0  0  0  0  0  0  0  0  0  0  0
   59.0336   36.2304   44.7320 H   0  0  0  0  0  0  0  0  0  0  0  0
   60.4980   35.6985   46.6817 H   0  0  0  0  0  0  0  0  0  0  0  0
  1  2  1  0
  2  3  1  0
  2  4  1  0
  4  5  1  0
  5  6  1  0
  6  7  1  0
  7  8  1  0
  8  9  1  0
  9 10  1  0
 10 11  1  0
 11 12  2  0
 11 13  1  0
 13 14  1  0
 14 15  1  0
 15 16  2  0
 15 17  1  0
 17 18  1  0
 18 19  2  0
 19 20  1  0
 20 21  2  0
 21 22  1  0
 22 23  2  0
  8 24  2  0
 24 25  1  0
 25 26  2  0
 26 27  1  0
 27 28  2  0
 28 29  1  0
 29 30  2  0
 30 31  1  0
 31 32  2  0
 31  7  1  0
 23 13  1  0
 30 25  1  0
 23 18  1  0
  1 33  1  0
  1 34  1  0
  1 35  1  0
  3 36  1  0
  3 37  1  0
  3 38  1  0
  4 39  1  0
  4 40  1  0
  5 41  1  0
  5 42  1  0
  6 43  1  0
  6 44  1  0
 10 45  1  0
 10 46  1  0
 14 47  1  0
 14 48  1  0
 19 49  1  0
 20 50  1  0
 21 51  1  0
 22 52  1  0
 24 53  1  0
 26 54  1  0
 27 55  1  0
 28 56  1  0
 29 57  1  0
M  CHG  2  17  -1  24   1
M  END
>  <UniqueID>  (44) 
43

>  <SMILES>  (44) 
CN(C)CCCn1c(SCC(=O)N2CC(=O)[N-]c3ccccc32)[nH+]c2ccccc2c1=O

>  <Energy>  (44) 
69.42346816439118

>  <Genealogy>  (44) 
CN(C)CCCn1c(SCC(=O)N2CC(=O)[N-]c3ccccc32)[nH+]c2ccccc2c1=O (protonated)
CN(C)CCCn1c(SCC(=O)N2CC(=O)[N-]c3ccccc32)[nH+]c2ccccc2c1=O (3D coordinates assigned)
CN(C)CCCn1c(SCC(=O)N2CC(=O)[N-]c3ccccc32)[nH+]c2ccccc2c1=O (nonaromatic ring conformer: 69.42346816439118 kcal/mol)

>  <smiles>  (44) 
CN(C)CCCn1c(SCC(=O)N2CC(=O)Nc3ccccc32)nc2ccccc2c1=O

>  <score_type>  (44) 
oracle

>  <origin>  (44) 
adg

>  <m_score__min__energy>  (44) 
-10.01

>  <m_primary>  (44) 
energy

$$$$
44:0
     RDKit          3D

 42 44  0  0  0  0  0  0  0  0999 V2000
   57.3330   32.6490   40.7430 C   0  0  0  0  0  0  0  0  0  0  0  0
   57.3950   31.9140   41.9980 N   0  0  0  0  0  0  0  0  0  0  0  0
   58.1050   32.2720   43.0830 C   0  0  0  0  0  0  0  0  0  0  0  0
   57.8370   31.3590   44.0830 C   0  0  0  0  0  0  0  0  0  0  0  0
   58.3990   31.3420   45.4820 C   0  0  0  0  0  0  0  0  0  0  0  0
   58.8060   29.9930   45.9560 N   0  0  2  0  0  0  0  0  0  0  0  0
   59.3440   30.0580   47.3400 C   0  0  0  0  0  0  0  0  0  0  0  0
   58.9430   28.8770   48.2490 C   0  0  0  0  0  0  0  0  0  0  0  0
   59.3810   27.4970   47.7300 C   0  0  0  0  0  0  0  0  0  0  0  0
   59.0800   27.2850   46.3020 N   0  0  0  0  0  0  0  0  0  0  0  0
   57.7940   26.7550   45.9140 C   0  0  0  0  0  0  0  0  0  0  0  0
   56.7780   27.5010   45.9650 O   0  0  0  0  0  0  0  0  0  0  0  0
   57.6250   25.3620   45.4550 C   0  0  0  0  0  0  0  0  0  0  0  0
   57.4000   24.9730   44.1380 C   0  0  0  0  0  0  0  0  0  0  0  0
   57.3370   23.5840   43.9700 C   0  0  0  0  0  0  0  0  0  0  0  0
   57.5250   22.8700   45.1460 C   0  0  0  0  0  0  0  0  0  0  0  0
   57.7720   23.9710   46.3920 S   0  0  0  0  0  0  0  0  0  0  0  0
   59.9650   27.8270   45.2580 C   0  0  0  0  0  0  0  0  0  0  0  0
   59.7310   29.3370   44.9950 C   0  0  0  0  0  0  0  0  0  0  0  0
   56.9380   30.4670   43.5290 C   0  0  0  0  0  0  0  0  0  0  0  0
   56.6760   30.8330   42.2580 N   0  0  0  0  0  0  0  0  0  0  0  0
   57.2422   33.7251   40.9524 H   0  0  0  0  0  0  0  0  0  0  0  0
   58.2499   32.4642   40.1641 H   0  0  0  0  0  0  0  0  0  0  0  0
   56.4600   32.3132   40.1641 H   0  0  0  0  0  0  0  0  0  0  0  0
   58.7790   33.1379   43.1597 H   0  0  0  0  0  0  0  0  0  0  0  0
   59.2816   31.9981   45.5078 H   0  0  0  0  0  0  0  0  0  0  0  0
   57.5956   31.6843   46.1509 H   0  0  0  0  0  0  0  0  0  0  0  0
   57.9080   29.4560   45.9830 H   0  0  0  0  0  0  0  0  0  0  0  0
   60.4420   30.0847   47.2789 H   0  0  0  0  0  0  0  0  0  0  0  0
   58.9113   30.9601   47.7972 H   0  0  0  0  0  0  0  0  0  0  0  0
   59.3997   29.0334   49.2374 H   0  0  0  0  0  0  0  0  0  0  0  0
   57.8435   28.8653   48.2809 H   0  0  0  0  0  0  0  0  0  0  0  0
   60.4668   27.3984   47.8757 H   0  0  0  0  0  0  0  0  0  0  0  0
   58.8149   26.7428   48.2963 H   0  0  0  0  0  0  0  0  0  0  0  0
   57.2830   25.6870   43.3094 H   0  0  0  0  0  0  0  0  0  0  0  0
   57.1555   23.1035   42.9973 H   0  0  0  0  0  0  0  0  0  0  0  0
   57.5142   21.7745   45.2450 H   0  0  0  0  0  0  0  0  0  0  0  0
   61.0091   27.6830   45.5730 H   0  0  0  0  0  0  0  0  0  0  0  0
   59.7422   27.2902   44.3241 H   0  0  0  0  0  0  0  0  0  0  0  0
   60.7027   29.8499   45.0485 H   0  0  0  0  0  0  0  0  0  0  0  0
   59.2590   29.4130   44.0043 H   0  0  0  0  0  0  0  0  0  0  0  0
   56.5050   29.5965   44.0435 H   0  0  0  0  0  0  0  0  0  0  0  0
  1  2  1  0
  2  3  1  0
  3  4  2  0
  4  5  1  0
  5  6  1  0
  6  7  1  0
  7  8  1  0
  8  9  1  0
  9 10  1  0
 10 11  1  0
 11 12  2  0
 11 13  1  0
 13 14  2  0
 14 15  1  0
 15 16  2  0
 16 17  1  0
 10 18  1  0
 18 19  1  0
  4 20  1  0
 20 21  2  0
 21  2  1  0
 19  6  1  0
 17 13  1  0
  1 22  1  0
  1 23  1  0
  1 24  1  0
  3 25  1  0
  5 26  1  0
  5 27  1  0
  6 28  1  1
  7 29  1  0
  7 30  1  0
  8 31  1  0
  8 32  1  0
  9 33  1  0
  9 34  1  0
 14 35  1  0
 15 36  1  0
 16 37  1  0
 18 38  1  0
 18 39  1  0
 19 40  1  0
 19 41  1  0
 20 42  1  0
M  CHG  1   6   1
M  END
>  <UniqueID>  (45) 
44

>  <SMILES>  (45) 
Cn1cc(C[N@@H+]2CCCN(C(=O)c3cccs3)CC2)cn1

>  <Energy>  (45) 
113.66403587466444

>  <Genealogy>  (45) 
Cn1cc(C[NH+]2CCCN(C(=O)c3cccs3)CC2)cn1 (protonated)
Cn1cc(C[N@@H+]2CCCN(C(=O)c3cccs3)CC2)cn1 (chirality)
Cn1cc(C[N@@H+]2CCCN(C(=O)c3cccs3)CC2)cn1 (3D coordinates assigned)
Cn1cc(C[N@@H+]2CCCN(C(=O)c3cccs3)CC2)cn1 (nonaromatic ring conformer: 113.66403587466444 kcal/mol)

>  <smiles>  (45) 
Cn1cc(CN2CCCN(C(=O)c3cccs3)CC2)cn1

>  <score_type>  (45) 
oracle

>  <origin>  (45) 
adg

>  <m_score__min__energy>  (45) 
-3.8999999999999999

>  <m_primary>  (45) 
energy

$$$$
45:0
     RDKit          3D

 57 61  0  0  1  0  0  0  0  0999 V2000
   57.7190   26.4780   45.1370 C   0  0  0  0  0  0  0  0  0  0  0  0
   57.6130   27.7080   45.8200 O   0  0  0  0  0  0  0  0  0  0  0  0
   57.3190   28.8380   45.0970 C   0  0  0  0  0  0  0  0  0  0  0  0
   56.0440   29.3100   44.8600 C   0  0  0  0  0  0  0  0  0  0  0  0
   55.9420   30.4580   44.1150 C   0  0  0  0  0  0  0  0  0  0  0  0
   56.9860   31.1610   43.5970 C   0  0  0  0  0  0  0  0  0  0  0  0
   58.2560   30.6930   43.8320 C   0  0  0  0  0  0  0  0  0  0  0  0
   58.3940   29.5620   44.5630 C   0  0  0  0  0  0  0  0  0  0  0  0
   59.8190   29.0330   44.8120 C   0  0  0  0  0  0  0  0  0  0  0  0
   60.1880   29.7820   45.9540 N   0  0  0  0  0  0  0  0  0  0  0  0
   60.0450   29.5120   47.1510 C   0  0  0  0  0  0  0  0  0  0  0  0
   60.4250   28.2980   47.5790 N   0  0  0  0  0  0  0  0  0  0  0  0
   60.2580   27.8510   48.8290 C   0  0  0  0  0  0  0  0  0  0  0  0
   59.6680   28.6960   49.6930 N   0  0  0  0  0  0  0  0  0  0  0  0
   59.2730   29.9240   49.3080 C   0  0  0  0  0  0  0  0  0  0  0  0
   59.4510   30.3930   47.9950 C   0  0  0  0  0  0  0  0  0  0  0  0
   58.9910   31.6320   47.8880 C   0  0  0  0  0  0  0  0  0  0  0  0
   58.8780   32.7940   47.0520 C   0  0  0  0  0  0  0  0  0  0  0  0
   59.9820   33.6590   46.9010 C   0  0  0  0  0  0  0  0  0  0  0  0
   59.9990   34.6990   46.0340 C   0  0  0  0  0  0  0  0  0  0  0  0
   58.8880   34.9310   45.2600 C   0  0  0  0  0  0  0  0  0  0  0  0
   57.7710   34.1330   45.3480 C   0  0  0  0  0  0  0  0  0  0  0  0
   57.8020   33.0960   46.2370 C   0  0  0  0  0  0  0  0  0  0  0  0
   58.5040   31.9010   49.2170 C   0  0  0  0  0  0  0  0  0  0  0  0
   58.6920   30.8710   50.0140 N   0  0  0  0  0  0  0  0  0  0  0  0
   58.3230   30.7850   51.4300 C   0  0  1  0  0  0  0  0  0  0  0  0
   58.0480   32.1460   52.0180 C   0  0  0  0  0  0  0  0  0  0  0  0
   57.6680   31.9550   53.4600 C   0  0  0  0  0  0  0  0  0  0  0  0
   56.5350   30.9660   53.6240 C   0  0  0  0  0  0  0  0  0  0  0  0
   56.1960   30.4230   52.2600 C   0  0  0  0  0  0  0  0  0  0  0  0
   57.2870   29.8980   51.5990 O   0  0  0  0  0  0  0  0  0  0  0  0
   57.7897   25.6582   45.8670 H   0  0  0  0  0  0  0  0  0  0  0  0
   56.8302   26.3313   44.5058 H   0  0  0  0  0  0  0  0  0  0  0  0
   58.6198   26.4856   44.5058 H   0  0  0  0  0  0  0  0  0  0  0  0
   55.1546   28.7923   45.2485 H   0  0  0  0  0  0  0  0  0  0  0  0
   54.9302   30.8428   43.9198 H   0  0  0  0  0  0  0  0  0  0  0  0
   56.8181   32.0752   43.0087 H   0  0  0  0  0  0  0  0  0  0  0  0
   59.1359   31.2223   43.4374 H   0  0  0  0  0  0  0  0  0  0  0  0
   59.8185   27.9528   45.0199 H   0  0  0  0  0  0  0  0  0  0  0  0
   60.5008   29.1449   43.9560 H   0  0  0  0  0  0  0  0  0  0  0  0
   60.8750   27.6730   46.8990 H   0  0  0  0  0  0  0  0  0  0  0  0
   60.5857   26.8461   49.1337 H   0  0  0  0  0  0  0  0  0  0  0  0
   60.8742   33.4796   47.5188 H   0  0  0  0  0  0  0  0  0  0  0  0
   60.8851   35.3455   45.9511 H   0  0  0  0  0  0  0  0  0  0  0  0
   58.8917   35.7742   44.5537 H   0  0  0  0  0  0  0  0  0  0  0  0
   56.8846   34.3230   44.7249 H   0  0  0  0  0  0  0  0  0  0  0  0
   56.9095   32.4571   46.3096 H   0  0  0  0  0  0  0  0  0  0  0  0
   58.0349   32.8468   49.5260 H   0  0  0  0  0  0  0  0  0  0  0  0
   59.1791   30.3900   51.9967 H   0  0  0  0  0  0  0  0  0  0  0  0
   58.9492   32.7728   51.9483 H   0  0  0  0  0  0  0  0  0  0  0  0
   57.2356   32.6448   51.4692 H   0  0  0  0  0  0  0  0  0  0  0  0
   58.5446   31.5847   54.0117 H   0  0  0  0  0  0  0  0  0  0  0  0
   57.3299   32.9254   53.8525 H   0  0  0  0  0  0  0  0  0  0  0  0
   56.8477   30.1453   54.2863 H   0  0  0  0  0  0  0  0  0  0  0  0
   55.6580   31.4573   54.0706 H   0  0  0  0  0  0  0  0  0  0  0  0
   55.4426   29.6300   52.3764 H   0  0  0  0  0  0  0  0  0  0  0  0
   55.8208   31.2631   51.6570 H   0  0  0  0  0  0  0  0  0  0  0  0
  1  2  1  0
  2  3  1  0
  3  4  2  0
  4  5  1  0
  5  6  2  0
  6  7  1  0
  7  8  2  0
  8  9  1  0
  9 10  1  0
 10 11  2  0
 11 12  1  0
 12 13  1  0
 13 14  2  0
 14 15  1  0
 15 16  2  0
 16 17  1  0
 17 18  1  0
 18 19  2  0
 19 20  1  0
 20 21  2  0
 21 22  1  0
 22 23  2  0
 17 24  2  0
 24 25  1  0
 25 26  1  0
 26 27  1  0
 27 28  1  0
 28 29  1  0
 29 30  1  0
 30 31  1  0
  8  3  1  0
 16 11  1  0
 23 18  1  0
 31 26  1  0
 25 15  1  0
  1 32  1  0
  1 33  1  0
  1 34  1  0
  4 35  1  0
  5 36  1  0
  6 37  1  0
  7 38  1  0
  9 39  1  0
  9 40  1  0
 12 41  1  0
 13 42  1  0
 19 43  1  0
 20 44  1  0
 21 45  1  0
 22 46  1  0
 23 47  1  0
 24 48  1  0
 26 49  1  1
 27 50  1  0
 27 51  1  0
 28 52  1  0
 28 53  1  0
 29 54  1  0
 29 55  1  0
 30 56  1  0
 30 57  1  0
M  END
>  <smiles>  (46) 
COc1ccccc1CN=c1[nH]cnc2c1c(-c1ccccc1)cn2C1CCCCO1

>  <score_type>  (46) 
oracle

>  <origin>  (46) 
adg

>  <m_score__min__energy>  (46) 
-9.0099999999999998

>  <m_primary>  (46) 
energy

$$$$
46:0
     RDKit          3D

 56 60  0  0  0  0  0  0  0  0999 V2000
   62.7530   32.6880   47.8660 C   0  0  0  0  0  0  0  0  0  0  0  0
   61.3730   32.9000   48.3020 N   0  0  0  0  0  0  0  0  0  0  0  0
   60.4510   33.7370   47.7520 C   0  0  0  0  0  0  0  0  0  0  0  0
   60.6810   34.5840   46.5310 C   0  0  0  0  0  0  0  0  0  0  0  0
   59.4020   34.9510   45.8960 N   0  0  0  0  0  0  0  0  0  0  0  0
   59.2650   34.4170   44.5310 C   0  0  0  0  0  0  0  0  0  0  0  0
   58.2890   33.2810   44.4940 C   0  0  0  0  0  0  0  0  0  0  0  0
   57.8420   32.6180   43.3690 C   0  0  0  0  0  0  0  0  0  0  0  0
   57.1230   31.5740   43.8140 N   0  0  0  0  0  0  0  0  0  0  0  0
   56.4970   30.5360   43.0030 C   0  0  0  0  0  0  0  0  0  0  0  0
   55.5930   29.6890   43.8560 C   0  0  0  0  0  0  0  0  0  0  0  0
   54.4640   29.3580   43.4100 O   0  0  0  0  0  0  0  0  0  0  0  0
   55.9280   29.3470   45.2090 N   0  0  0  0  0  0  0  0  0  0  0  0
   57.0590   28.5700   45.6170 C   0  0  0  0  0  0  0  0  0  0  0  0
   57.4250   27.4030   44.9270 C   0  0  0  0  0  0  0  0  0  0  0  0
   58.5350   26.6600   45.3360 C   0  0  0  0  0  0  0  0  0  0  0  0
   59.2800   27.0620   46.4550 C   0  0  0  0  0  0  0  0  0  0  0  0
   60.4000   26.3260   46.8720 C   0  0  0  0  0  0  0  0  0  0  0  0
   61.1300   26.7350   47.9920 C   0  0  0  0  0  0  0  0  0  0  0  0
   60.7460   27.8750   48.7040 C   0  0  0  0  0  0  0  0  0  0  0  0
   59.6320   28.6160   48.2990 C   0  0  0  0  0  0  0  0  0  0  0  0
   58.8920   28.2180   47.1750 C   0  0  0  0  0  0  0  0  0  0  0  0
   57.7750   28.9550   46.7560 C   0  0  0  0  0  0  0  0  0  0  0  0
   57.1120   31.6190   45.1360 N   0  0  0  0  0  0  0  0  0  0  0  0
   57.8190   32.6450   45.5860 N   0  0  0  0  0  0  0  0  0  0  0  0
   59.2160   33.5900   48.3790 C   0  0  0  0  0  0  0  0  0  0  0  0
   59.3980   32.5900   49.3070 C   0  0  0  0  0  0  0  0  0  0  0  0
   58.4770   31.9610   50.1420 C   0  0  0  0  0  0  0  0  0  0  0  0
   58.9300   30.8900   50.9320 C   0  0  0  0  0  0  0  0  0  0  0  0
   60.2760   30.4720   50.8640 C   0  0  0  0  0  0  0  0  0  0  0  0
   61.1830   31.1200   50.0040 C   0  0  0  0  0  0  0  0  0  0  0  0
   60.7090   32.1880   49.2360 C   0  0  0  0  0  0  0  0  0  0  0  0
   63.4045   32.5879   48.7467 H   0  0  0  0  0  0  0  0  0  0  0  0
   62.8098   31.7706   47.2617 H   0  0  0  0  0  0  0  0  0  0  0  0
   63.0825   33.5461   47.2617 H   0  0  0  0  0  0  0  0  0  0  0  0
   61.2137   35.5008   46.8239 H   0  0  0  0  0  0  0  0  0  0  0  0
   61.2779   34.0061   45.8101 H   0  0  0  0  0  0  0  0  0  0  0  0
   58.6380   34.5240   46.4710 H   0  0  0  0  0  0  0  0  0  0  0  0
   58.9103   35.2178   43.8655 H   0  0  0  0  0  0  0  0  0  0  0  0
   60.2463   34.0467   44.1996 H   0  0  0  0  0  0  0  0  0  0  0  0
   58.0353   32.8894   42.3207 H   0  0  0  0  0  0  0  0  0  0  0  0
   55.9068   31.0061   42.2026 H   0  0  0  0  0  0  0  0  0  0  0  0
   57.2802   29.8993   42.5657 H   0  0  0  0  0  0  0  0  0  0  0  0
   56.8345   27.0722   44.0599 H   0  0  0  0  0  0  0  0  0  0  0  0
   58.8259   25.7571   44.7791 H   0  0  0  0  0  0  0  0  0  0  0  0
   60.7038   25.4262   46.3169 H   0  0  0  0  0  0  0  0  0  0  0  0
   62.0094   26.1579   48.3140 H   0  0  0  0  0  0  0  0  0  0  0  0
   61.3225   28.1901   49.5862 H   0  0  0  0  0  0  0  0  0  0  0  0
   59.3349   29.5128   48.8624 H   0  0  0  0  0  0  0  0  0  0  0  0
   57.4597   29.8413   47.3262 H   0  0  0  0  0  0  0  0  0  0  0  0
   56.6500   30.9160   45.7540 H   0  0  0  0  0  0  0  0  0  0  0  0
   58.2929   34.1527   48.1760 H   0  0  0  0  0  0  0  0  0  0  0  0
   57.4287   32.2919   50.1818 H   0  0  0  0  0  0  0  0  0  0  0  0
   58.2310   30.3748   51.6072 H   0  0  0  0  0  0  0  0  0  0  0  0
   60.6193   29.6334   51.4877 H   0  0  0  0  0  0  0  0  0  0  0  0
   62.2322   30.7961   49.9383 H   0  0  0  0  0  0  0  0  0  0  0  0
  1  2  1  0
  2  3  1  0
  3  4  1  0
  4  5  1  0
  5  6  1  0
  6  7  1  0
  7  8  2  0
  8  9  1  0
  9 10  1  0
 10 11  1  0
 11 12  2  0
 11 13  1  0
 13 14  1  0
 14 15  2  0
 15 16  1  0
 16 17  2  0
 17 18  1  0
 18 19  2  0
 19 20  1  0
 20 21  2  0
 21 22  1  0
 22 23  2  0
  9 24  1  0
 24 25  2  0
  3 26  2  0
 26 27  1  0
 27 28  2  0
 28 29  1  0
 29 30  2  0
 30 31  1  0
 31 32  2  0
 32  2  1  0
 25  7  1  0
 32 27  1  0
 23 14  1  0
 22 17  1  0
  1 33  1  0
  1 34  1  0
  1 35  1  0
  4 36  1  0
  4 37  1  0
  5 38  1  0
  6 39  1  0
  6 40  1  0
  8 41  1  0
 10 42  1  0
 10 43  1  0
 15 44  1  0
 16 45  1  0
 18 46  1  0
 19 47  1  0
 20 48  1  0
 21 49  1  0
 23 50  1  0
 24 51  1  0
 26 52  1  0
 28 53  1  0
 29 54  1  0
 30 55  1  0
 31 56  1  0
M  CHG  2  13  -1  24   1
M  END
>  <UniqueID>  (47) 
45

>  <SMILES>  (47) 
Cn1c(CNCc2cn(CC(=O)[N-]c3ccc4ccccc4c3)[nH+]n2)cc2ccccc21

>  <Energy>  (47) 
130.3707941326301

>  <Genealogy>  (47) 
Cn1c(CNCc2cn(CC(=O)[N-]c3ccc4ccccc4c3)[nH+]n2)cc2ccccc21 (protonated)
Cn1c(CNCc2cn(CC(=O)[N-]c3ccc4ccccc4c3)[nH+]n2)cc2ccccc21 (3D coordinates assigned)
Cn1c(CNCc2cn(CC(=O)[N-]c3ccc4ccccc4c3)[nH+]n2)cc2ccccc21 (optimized conformer: 130.3707941326301 kcal/mol)

>  <smiles>  (47) 
Cn1c(CNCc2cn(CC(=O)Nc3ccc4ccccc4c3)nn2)cc2ccccc21

>  <score_type>  (47) 
oracle

>  <origin>  (47) 
adg

>  <m_score__min__energy>  (47) 
-10.35

>  <m_primary>  (47) 
energy

$$$$
