0:0
     RDKit          3D

 56 57  0  0  0  0  0  0  0  0999 V2000
   62.6060   34.4700   49.5100 C   0  0  0  0  0  0  0  0  0  0  0  0
   63.7040   33.4030   49.5410 C   0  0  0  0  0  0  0  0  0  0  0  0
   64.0760   33.0070   48.1280 C   0  0  0  0  0  0  0  0  0  0  0  0
   63.0580   33.5000   47.1290 C   0  0  0  0  0  0  0  0  0  0  0  0
   61.9150   32.6190   47.1140 N   0  0  0  0  0  0  0  0  0  0  0  0
   62.0840   31.3000   47.2960 C   0  0  0  0  0  0  0  0  0  0  0  0
   61.0240   30.4330   47.2810 C   0  0  0  0  0  0  0  0  0  0  0  0
   59.7170   30.8760   47.0760 C   0  0  0  0  0  0  0  0  0  0  0  0
   58.6420   29.9480   47.0570 N   0  0  0  0  0  0  0  0  0  0  0  0
   58.7690   28.7280   47.8440 C   0  0  0  0  0  0  0  0  0  0  0  0
   58.1500   27.6010   47.0710 C   0  0  0  0  0  0  0  0  0  0  0  0
   57.2050   28.0550   46.2070 O   0  0  0  0  0  0  0  0  0  0  0  0
   57.5390   27.9640   44.8530 C   0  0  0  0  0  0  0  0  0  0  0  0
   57.8200   29.2720   44.2230 C   0  0  0  0  0  0  0  0  0  0  0  0
   56.8700   30.2660   44.5580 N   0  0  0  0  0  0  0  0  0  0  0  0
   55.5210   29.8620   44.1170 C   0  0  0  0  0  0  0  0  0  0  0  0
   57.0900   31.6070   44.1480 C   0  0  0  0  0  0  0  0  0  0  0  0
   57.7650   31.8750   42.8640 C   0  0  0  0  0  0  0  0  0  0  0  0
   59.5630   32.2280   46.8930 C   0  0  0  0  0  0  0  0  0  0  0  0
   58.3240   32.7720   46.6840 C   0  0  0  0  0  0  0  0  0  0  0  0
   58.0810   34.1160   46.4910 C   0  0  0  0  0  0  0  0  0  0  0  0
   59.1710   34.9890   46.5080 C   0  0  0  0  0  0  0  0  0  0  0  0
   60.4390   34.4590   46.7180 C   0  0  0  0  0  0  0  0  0  0  0  0
   60.6550   33.1080   46.9090 C   0  0  0  0  0  0  0  0  0  0  0  0
   62.3280   34.7401   50.5395 H   0  0  0  0  0  0  0  0  0  0  0  0
   62.9765   35.3623   48.9841 H   0  0  0  0  0  0  0  0  0  0  0  0
   61.7247   34.0741   48.9841 H   0  0  0  0  0  0  0  0  0  0  0  0
   64.5905   33.8063   50.0524 H   0  0  0  0  0  0  0  0  0  0  0  0
   63.3348   32.5182   50.0803 H   0  0  0  0  0  0  0  0  0  0  0  0
   65.0568   33.4399   47.8820 H   0  0  0  0  0  0  0  0  0  0  0  0
   64.1080   31.9088   48.0746 H   0  0  0  0  0  0  0  0  0  0  0  0
   62.7335   34.5130   47.4092 H   0  0  0  0  0  0  0  0  0  0  0  0
   63.5135   33.5179   46.1279 H   0  0  0  0  0  0  0  0  0  0  0  0
   63.0977   30.9061   47.4611 H   0  0  0  0  0  0  0  0  0  0  0  0
   61.2079   29.3594   47.4346 H   0  0  0  0  0  0  0  0  0  0  0  0
   57.7810   30.0840   46.5250 H   0  0  0  0  0  0  0  0  0  0  0  0
   59.8320   28.5131   48.0277 H   0  0  0  0  0  0  0  0  0  0  0  0
   58.2604   28.8473   48.8121 H   0  0  0  0  0  0  0  0  0  0  0  0
   58.9359   27.0826   46.5022 H   0  0  0  0  0  0  0  0  0  0  0  0
   57.6681   26.9152   47.7833 H   0  0  0  0  0  0  0  0  0  0  0  0
   58.4346   27.3325   44.7575 H   0  0  0  0  0  0  0  0  0  0  0  0
   56.6683   27.5367   44.3342 H   0  0  0  0  0  0  0  0  0  0  0  0
   58.8132   29.6124   44.5513 H   0  0  0  0  0  0  0  0  0  0  0  0
   57.7729   29.1277   43.1335 H   0  0  0  0  0  0  0  0  0  0  0  0
   54.8889   29.6727   44.9971 H   0  0  0  0  0  0  0  0  0  0  0  0
   55.0766   30.6665   43.5126 H   0  0  0  0  0  0  0  0  0  0  0  0
   55.5919   28.9457   43.5126 H   0  0  0  0  0  0  0  0  0  0  0  0
   56.1038   32.0916   44.0977 H   0  0  0  0  0  0  0  0  0  0  0  0
   57.7985   31.9918   44.8963 H   0  0  0  0  0  0  0  0  0  0  0  0
   58.7718   32.2747   43.0554 H   0  0  0  0  0  0  0  0  0  0  0  0
   57.8447   30.9403   42.2896 H   0  0  0  0  0  0  0  0  0  0  0  0
   57.1819   32.6098   42.2896 H   0  0  0  0  0  0  0  0  0  0  0  0
   57.4617   32.0892   46.6689 H   0  0  0  0  0  0  0  0  0  0  0  0
   57.0591   34.4891   46.3285 H   0  0  0  0  0  0  0  0  0  0  0  0
   59.0297   36.0696   46.3589 H   0  0  0  0  0  0  0  0  0  0  0  0
   61.3022   35.1407   46.7326 H   0  0  0  0  0  0  0  0  0  0  0  0
  1  2  1  0
  2  3  1  0
  3  4  1  0
  4  5  1  0
  5  6  2  0
  6  7  1  0
  7  8  2  0
  8  9  1  0
  9 10  1  0
 10 11  1  0
 11 12  1  0
 12 13  1  0
 13 14  1  0
 14 15  1  0
 15 16  1  0
 15 17  1  0
 17 18  1  0
  8 19  1  0
 19 20  2  0
 20 21  1  0
 21 22  2  0
 22 23  1  0
 23 24  2  0
 24  5  1  0
 24 19  1  0
  1 25  1  0
  1 26  1  0
  1 27  1  0
  2 28  1  0
  2 29  1  0
  3 30  1  0
  3 31  1  0
  4 32  1  0
  4 33  1  0
  6 34  1  0
  7 35  1  0
  9 36  1  0
 10 37  1  0
 10 38  1  0
 11 39  1  0
 11 40  1  0
 13 41  1  0
 13 42  1  0
 14 43  1  0
 14 44  1  0
 16 45  1  0
 16 46  1  0
 16 47  1  0
 17 48  1  0
 17 49  1  0
 18 50  1  0
 18 51  1  0
 18 52  1  0
 20 53  1  0
 21 54  1  0
 22 55  1  0
 23 56  1  0
M  CHG  1   5   1
M  END
>  <smiles>  (1) 
CCCC[n+]1ccc(NCCOCCN(C)CC)c2ccccc21

>  <score_type>  (1) 
oracle

>  <origin>  (1) 
adg

>  <m_score__min__energy>  (1) 
-5.6100000000000003

>  <m_primary>  (1) 
energy

$$$$
1:0
     RDKit          3D

 36 38  0  0  0  0  0  0  0  0999 V2000
   60.4150   27.1430   48.9560 C   0  0  0  0  0  0  0  0  0  0  0  0
   60.1460   27.0210   47.5850 O   0  0  0  0  0  0  0  0  0  0  0  0
   59.6260   28.0640   46.8500 C   0  0  0  0  0  0  0  0  0  0  0  0
   60.2920   29.2440   46.5950 C   0  0  0  0  0  0  0  0  0  0  0  0
   59.7090   30.2650   45.8420 C   0  0  0  0  0  0  0  0  0  0  0  0
   58.4420   30.1150   45.3290 C   0  0  0  0  0  0  0  0  0  0  0  0
   57.8300   31.1130   44.5750 C   0  0  0  0  0  0  0  0  0  0  0  0
   58.5210   32.3970   44.3160 C   0  0  0  0  0  0  0  0  0  0  0  0
   58.0370   33.3540   45.3000 N   0  0  0  0  0  0  0  0  0  0  0  0
   58.4670   33.0040   46.6370 C   0  0  0  0  0  0  0  0  0  0  0  0
   58.6210   34.3790   47.2810 C   0  0  0  0  0  0  0  0  0  0  0  0
   59.5060   35.0210   46.2000 C   0  0  0  0  0  0  0  0  0  0  0  0
   58.7050   34.6000   44.9680 C   0  0  0  0  0  0  0  0  0  0  0  0
   56.5580   30.8240   44.1260 C   0  0  0  0  0  0  0  0  0  0  0  0
   55.9350   29.6180   44.4110 C   0  0  0  0  0  0  0  0  0  0  0  0
   54.7710   29.3770   43.9890 O   0  0  0  0  0  0  0  0  0  0  0  0
   56.5880   28.7590   45.1190 O   0  0  0  0  0  0  0  0  0  0  0  0
   57.7760   28.9360   45.5820 C   0  0  0  0  0  0  0  0  0  0  0  0
   58.3470   27.9290   46.3240 C   0  0  0  0  0  0  0  0  0  0  0  0
   59.5620   26.7561   49.5329 H   0  0  0  0  0  0  0  0  0  0  0  0
   61.3180   26.5663   49.2052 H   0  0  0  0  0  0  0  0  0  0  0  0
   60.5760   28.2022   49.2052 H   0  0  0  0  0  0  0  0  0  0  0  0
   61.3072   29.3844   46.9945 H   0  0  0  0  0  0  0  0  0  0  0  0
   60.2666   31.1951   45.6580 H   0  0  0  0  0  0  0  0  0  0  0  0
   59.6083   32.2672   44.4200 H   0  0  0  0  0  0  0  0  0  0  0  0
   58.3165   32.7507   43.2947 H   0  0  0  0  0  0  0  0  0  0  0  0
   57.7088   32.4001   47.1571 H   0  0  0  0  0  0  0  0  0  0  0  0
   59.3803   32.3916   46.6669 H   0  0  0  0  0  0  0  0  0  0  0  0
   57.6573   34.8974   47.3930 H   0  0  0  0  0  0  0  0  0  0  0  0
   59.0227   34.3912   48.3050 H   0  0  0  0  0  0  0  0  0  0  0  0
   59.5600   36.1147   46.3049 H   0  0  0  0  0  0  0  0  0  0  0  0
   60.5634   34.7178   46.2076 H   0  0  0  0  0  0  0  0  0  0  0  0
   57.9621   35.3720   44.7188 H   0  0  0  0  0  0  0  0  0  0  0  0
   59.3642   34.4715   44.0968 H   0  0  0  0  0  0  0  0  0  0  0  0
   56.0218   31.5724   43.5240 H   0  0  0  0  0  0  0  0  0  0  0  0
   57.7825   27.0022   46.5040 H   0  0  0  0  0  0  0  0  0  0  0  0
  1  2  1  0
  2  3  1  0
  3  4  2  0
  4  5  1  0
  5  6  2  0
  6  7  1  0
  7  8  1  0
  8  9  1  0
  9 10  1  0
 10 11  1  0
 11 12  1  0
 12 13  1  0
  7 14  2  0
 14 15  1  0
 15 16  2  0
 15 17  1  0
 17 18  1  0
 18 19  2  0
 19  3  1  0
 18  6  1  0
 13  9  1  0
  1 20  1  0
  1 21  1  0
  1 22  1  0
  4 23  1  0
  5 24  1  0
  8 25  1  0
  8 26  1  0
 10 27  1  0
 10 28  1  0
 11 29  1  0
 11 30  1  0
 12 31  1  0
 12 32  1  0
 13 33  1  0
 13 34  1  0
 14 35  1  0
 19 36  1  0
M  END
>  <smiles>  (2) 
COc1ccc2c(CN3CCCC3)cc(=O)oc2c1

>  <score_type>  (2) 
oracle

>  <origin>  (2) 
adg

>  <m_score__min__energy>  (2) 
-6.54

>  <m_primary>  (2) 
energy

$$$$
3:0
     RDKit          3D

 44 45  0  0  1  0  0  0  0  0999 V2000
   57.3950   31.6240   42.6840 C   0  0  0  0  0  0  0  0  0  0  0  0
   58.0550   31.1170   43.9470 C   0  0  0  0  0  0  0  0  0  0  0  0
   57.0850   30.5640   44.8380 N   0  0  0  0  0  0  0  0  0  0  0  0
   56.0080   29.8810   44.1460 C   0  0  0  0  0  0  0  0  0  0  0  0
   57.6740   29.7660   45.8650 C   0  0  0  0  0  0  0  0  0  0  0  0
   59.0970   29.4390   45.4820 C   0  0  0  0  0  0  0  0  0  0  0  0
   59.9040   30.4790   46.0570 O   0  0  0  0  0  0  0  0  0  0  0  0
   59.7250   30.8180   47.3870 C   0  0  0  0  0  0  0  0  0  0  0  0
   59.5710   29.8780   48.2040 O   0  0  0  0  0  0  0  0  0  0  0  0
   59.7270   32.2510   47.7420 C   0  0  1  0  0  0  0  0  0  0  0  0
   61.1330   32.6890   47.9380 C   0  0  0  0  0  0  0  0  0  0  0  0
   62.1620   32.0210   47.2920 C   0  0  0  0  0  0  0  0  0  0  0  0
   63.4850   32.4040   47.4650 C   0  0  0  0  0  0  0  0  0  0  0  0
   63.7550   33.4670   48.2960 C   0  0  0  0  0  0  0  0  0  0  0  0
   62.7490   34.1500   48.9500 C   0  0  0  0  0  0  0  0  0  0  0  0
   61.4270   33.7550   48.7680 C   0  0  0  0  0  0  0  0  0  0  0  0
   59.0140   33.0750   46.7160 C   0  0  0  0  0  0  0  0  0  0  0  0
   59.7550   33.8450   45.8410 C   0  0  0  0  0  0  0  0  0  0  0  0
   59.1130   34.6080   44.8900 C   0  0  0  0  0  0  0  0  0  0  0  0
   57.7370   34.5680   44.8550 C   0  0  0  0  0  0  0  0  0  0  0  0
   57.0040   33.7970   45.7320 C   0  0  0  0  0  0  0  0  0  0  0  0
   57.6890   33.0740   46.6370 N   0  0  0  0  0  0  0  0  0  0  0  0
   56.5483   32.2745   42.9485 H   0  0  0  0  0  0  0  0  0  0  0  0
   58.1255   32.1954   42.0925 H   0  0  0  0  0  0  0  0  0  0  0  0
   57.0312   30.7709   42.0925 H   0  0  0  0  0  0  0  0  0  0  0  0
   58.7880   30.3400   43.6842 H   0  0  0  0  0  0  0  0  0  0  0  0
   58.5541   31.9599   44.4474 H   0  0  0  0  0  0  0  0  0  0  0  0
   55.3181   29.4435   44.8827 H   0  0  0  0  0  0  0  0  0  0  0  0
   55.4637   30.5993   43.5154 H   0  0  0  0  0  0  0  0  0  0  0  0
   56.4257   29.0824   43.5154 H   0  0  0  0  0  0  0  0  0  0  0  0
   57.6666   30.3226   46.8137 H   0  0  0  0  0  0  0  0  0  0  0  0
   57.0999   28.8356   45.9863 H   0  0  0  0  0  0  0  0  0  0  0  0
   59.3879   28.4591   45.8884 H   0  0  0  0  0  0  0  0  0  0  0  0
   59.2212   29.3859   44.3903 H   0  0  0  0  0  0  0  0  0  0  0  0
   59.1730   32.3991   48.6807 H   0  0  0  0  0  0  0  0  0  0  0  0
   61.9261   31.1736   46.6315 H   0  0  0  0  0  0  0  0  0  0  0  0
   64.2978   31.8707   46.9503 H   0  0  0  0  0  0  0  0  0  0  0  0
   64.7990   33.7806   48.4430 H   0  0  0  0  0  0  0  0  0  0  0  0
   62.9900   34.9978   49.6082 H   0  0  0  0  0  0  0  0  0  0  0  0
   60.6165   34.2905   49.2841 H   0  0  0  0  0  0  0  0  0  0  0  0
   60.8532   33.8491   45.9030 H   0  0  0  0  0  0  0  0  0  0  0  0
   59.6812   35.2289   44.1818 H   0  0  0  0  0  0  0  0  0  0  0  0
   57.2057   35.1704   44.1034 H   0  0  0  0  0  0  0  0  0  0  0  0
   55.9049   33.7738   45.6936 H   0  0  0  0  0  0  0  0  0  0  0  0
  1  2  1  0
  2  3  1  0
  3  4  1  0
  3  5  1  0
  5  6  1  0
  6  7  1  0
  7  8  1  0
  8  9  2  0
  8 10  1  0
 10 11  1  0
 11 12  2  0
 12 13  1  0
 13 14  2  0
 14 15  1  0
 15 16  2  0
 10 17  1  0
 17 18  2  0
 18 19  1  0
 19 20  2  0
 20 21  1  0
 21 22  2  0
 16 11  1  0
 22 17  1  0
  1 23  1  0
  1 24  1  0
  1 25  1  0
  2 26  1  0
  2 27  1  0
  4 28  1  0
  4 29  1  0
  4 30  1  0
  5 31  1  0
  5 32  1  0
  6 33  1  0
  6 34  1  0
 10 35  1  1
 12 36  1  0
 13 37  1  0
 14 38  1  0
 15 39  1  0
 16 40  1  0
 18 41  1  0
 19 42  1  0
 20 43  1  0
 21 44  1  0
M  END
>  <smiles>  (3) 
CCN(C)CCOC(=O)C(c1ccccc1)c1ccccn1

>  <score_type>  (3) 
oracle

>  <origin>  (3) 
adg

>  <m_score__min__energy>  (3) 
-6.79

>  <m_primary>  (3) 
energy

$$$$
4:0
     RDKit          3D

 80 83  0  0  1  0  0  0  0  0999 V2000
   57.4230   25.6420   45.4440 C   0  0  0  0  0  0  0  0  0  0  0  0
   58.8720   25.9080   45.6340 C   0  0  0  0  0  0  0  0  0  0  0  0
   59.1810   27.3180   45.9670 N   0  0  0  0  0  0  0  0  0  0  0  0
   59.7850   27.8340   44.7600 C   0  0  0  0  0  0  0  0  0  0  0  0
   60.7700   28.9240   44.8910 C   0  0  0  0  0  0  0  0  0  0  0  0
   60.0920   27.2810   47.1130 C   0  0  0  0  0  0  0  0  0  0  0  0
   59.8550   28.3220   48.1260 C   0  0  0  0  0  0  0  0  0  0  0  0
   58.6400   29.1100   47.9750 N   0  0  0  0  0  0  0  0  0  0  0  0
   58.5760   30.2750   47.1570 C   0  0  0  0  0  0  0  0  0  0  0  0
   59.3190   31.3810   47.5410 C   0  0  0  0  0  0  0  0  0  0  0  0
   60.1270   31.4000   48.7920 C   0  0  0  0  0  0  0  0  0  0  0  0
   59.2920   32.5290   46.7400 C   0  0  0  0  0  0  0  0  0  0  0  0
   60.0270   33.6590   47.0740 C   0  0  0  0  0  0  0  0  0  0  0  0
   60.7600   33.6960   48.1360 N   0  0  0  0  0  0  0  0  0  0  0  0
   62.1170   34.2200   48.1690 C   0  0  0  0  0  0  0  0  0  0  0  0
   63.0820   33.3430   47.4310 C   0  0  0  0  0  0  0  0  0  0  0  0
   63.2080   31.9680   48.1040 C   0  0  0  0  0  0  0  0  0  0  0  0
   63.8700   32.0330   49.3230 N   0  0  0  0  0  0  0  0  0  0  0  0
   64.4980   33.2030   49.7700 C   0  0  0  0  0  0  0  0  0  0  0  0
   65.9730   32.8850   50.0060 C   0  0  0  0  0  0  0  0  0  0  0  0
   66.0850   31.6500   50.8530 C   0  0  0  0  0  0  0  0  0  0  0  0
   64.7890   31.1390   51.3780 C   0  0  0  0  0  0  0  0  0  0  0  0
   63.7190   31.0430   50.2910 C   0  0  1  0  0  0  0  0  0  0  0  0
   62.4100   31.0030   51.0440 C   0  0  0  0  0  0  0  0  0  0  0  0
   62.0380   32.2680   51.7400 C   0  0  0  0  0  0  0  0  0  0  0  0
   61.6520   33.2580   50.7980 O   0  0  0  0  0  0  0  0  0  0  0  0
   60.0230   34.7720   46.3140 N   0  0  0  0  0  0  0  0  0  0  0  0
   59.2930   34.8190   45.1860 C   0  0  0  0  0  0  0  0  0  0  0  0
   58.5300   33.7080   44.7940 C   0  0  0  0  0  0  0  0  0  0  0  0
   58.5320   32.5690   45.5700 C   0  0  0  0  0  0  0  0  0  0  0  0
   57.7930   31.4710   45.1910 C   0  0  0  0  0  0  0  0  0  0  0  0
   57.0220   31.4910   44.0520 C   0  0  0  0  0  0  0  0  0  0  0  0
   56.2530   30.3790   43.6680 C   0  0  0  0  0  0  0  0  0  0  0  0
   56.3140   29.3080   44.4740 N   0  0  0  0  0  0  0  0  0  0  0  0
   57.0640   29.2790   45.5890 C   0  0  0  0  0  0  0  0  0  0  0  0
   57.8380   30.3540   45.9990 C   0  0  0  0  0  0  0  0  0  0  0  0
   56.9349   25.5524   46.4257 H   0  0  0  0  0  0  0  0  0  0  0  0
   56.9684   26.4717   44.8828 H   0  0  0  0  0  0  0  0  0  0  0  0
   57.2927   24.7049   44.8828 H   0  0  0  0  0  0  0  0  0  0  0  0
   59.2376   25.2700   46.4521 H   0  0  0  0  0  0  0  0  0  0  0  0
   59.3669   25.6884   44.6765 H   0  0  0  0  0  0  0  0  0  0  0  0
   60.2910   26.9937   44.2622 H   0  0  0  0  0  0  0  0  0  0  0  0
   58.9489   28.2840   44.2046 H   0  0  0  0  0  0  0  0  0  0  0  0
   60.9531   29.1266   45.9566 H   0  0  0  0  0  0  0  0  0  0  0  0
   61.7121   28.6270   44.4071 H   0  0  0  0  0  0  0  0  0  0  0  0
   60.3794   29.8313   44.4071 H   0  0  0  0  0  0  0  0  0  0  0  0
   59.9888   26.3002   47.6002 H   0  0  0  0  0  0  0  0  0  0  0  0
   61.1000   27.4638   46.7123 H   0  0  0  0  0  0  0  0  0  0  0  0
   59.8139   27.8292   49.1086 H   0  0  0  0  0  0  0  0  0  0  0  0
   60.6826   29.0370   48.0082 H   0  0  0  0  0  0  0  0  0  0  0  0
   57.7370   28.8610   48.4650 H   0  0  0  0  0  0  0  0  0  0  0  0
   59.4551   31.3842   49.6628 H   0  0  0  0  0  0  0  0  0  0  0  0
   60.7825   30.5170   48.8186 H   0  0  0  0  0  0  0  0  0  0  0  0
   60.7402   32.3128   48.8186 H   0  0  0  0  0  0  0  0  0  0  0  0
   62.1222   35.2186   47.7077 H   0  0  0  0  0  0  0  0  0  0  0  0
   62.4365   34.2624   49.2207 H   0  0  0  0  0  0  0  0  0  0  0  0
   62.7261   33.2064   46.3992 H   0  0  0  0  0  0  0  0  0  0  0  0
   64.0697   33.8271   47.4392 H   0  0  0  0  0  0  0  0  0  0  0  0
   62.1991   31.5630   48.2713 H   0  0  0  0  0  0  0  0  0  0  0  0
   63.7970   31.3213   47.4370 H   0  0  0  0  0  0  0  0  0  0  0  0
   64.4031   33.9918   49.0093 H   0  0  0  0  0  0  0  0  0  0  0  0
   64.0295   33.5573   50.7000 H   0  0  0  0  0  0  0  0  0  0  0  0
   66.4713   32.7147   49.0402 H   0  0  0  0  0  0  0  0  0  0  0  0
   66.4544   33.7297   50.5206 H   0  0  0  0  0  0  0  0  0  0  0  0
   66.5453   30.8574   50.2448 H   0  0  0  0  0  0  0  0  0  0  0  0
   66.6891   31.9269   51.7296 H   0  0  0  0  0  0  0  0  0  0  0  0
   64.9504   30.1380   51.8046 H   0  0  0  0  0  0  0  0  0  0  0  0
   64.4319   31.8480   52.1394 H   0  0  0  0  0  0  0  0  0  0  0  0
   63.7891   30.1390   49.6682 H   0  0  0  0  0  0  0  0  0  0  0  0
   61.6119   30.7624   50.3262 H   0  0  0  0  0  0  0  0  0  0  0  0
   62.5351   30.2465   51.8328 H   0  0  0  0  0  0  0  0  0  0  0  0
   61.1989   32.0719   52.4237 H   0  0  0  0  0  0  0  0  0  0  0  0
   62.9088   32.6334   52.3041 H   0  0  0  0  0  0  0  0  0  0  0  0
   61.9340   32.9680   49.9000 H   0  0  0  0  0  0  0  0  0  0  0  0
   60.5670   35.6330   46.5440 H   0  0  0  0  0  0  0  0  0  0  0  0
   59.2937   35.7298   44.5692 H   0  0  0  0  0  0  0  0  0  0  0  0
   57.9328   33.7462   43.8710 H   0  0  0  0  0  0  0  0  0  0  0  0
   57.0070   32.3969   43.4282 H   0  0  0  0  0  0  0  0  0  0  0  0
   55.6356   30.3863   42.7576 H   0  0  0  0  0  0  0  0  0  0  0  0
   57.0638   28.3652   46.2013 H   0  0  0  0  0  0  0  0  0  0  0  0
  1  2  1  0
  2  3  1  0
  3  4  1  0
  4  5  1  0
  3  6  1  0
  6  7  1  0
  7  8  1  0
  8  9  1  0
  9 10  2  0
 10 11  1  0
 10 12  1  0
 12 13  1  0
 13 14  2  0
 14 15  1  0
 15 16  1  0
 16 17  1  0
 17 18  1  0
 18 19  1  0
 19 20  1  0
 20 21  1  0
 21 22  1  0
 22 23  1  0
 23 24  1  0
 24 25  1  0
 25 26  1  0
 13 27  1  0
 27 28  1  0
 28 29  2  0
 29 30  1  0
 30 31  1  0
 31 32  2  0
 32 33  1  0
 33 34  2  0
 34 35  1  0
 35 36  2  0
 36  9  1  0
 30 12  2  0
 36 31  1  0
 23 18  1  0
  1 37  1  0
  1 38  1  0
  1 39  1  0
  2 40  1  0
  2 41  1  0
  4 42  1  0
  4 43  1  0
  5 44  1  0
  5 45  1  0
  5 46  1  0
  6 47  1  0
  6 48  1  0
  7 49  1  0
  7 50  1  0
  8 51  1  0
 11 52  1  0
 11 53  1  0
 11 54  1  0
 15 55  1  0
 15 56  1  0
 16 57  1  0
 16 58  1  0
 17 59  1  0
 17 60  1  0
 19 61  1  0
 19 62  1  0
 20 63  1  0
 20 64  1  0
 21 65  1  0
 21 66  1  0
 22 67  1  0
 22 68  1  0
 23 69  1  6
 24 70  1  0
 24 71  1  0
 25 72  1  0
 25 73  1  0
 26 74  1  0
 27 75  1  0
 28 76  1  0
 29 77  1  0
 32 78  1  0
 33 79  1  0
 35 80  1  0
M  END
>  <smiles>  (4) 
CCN(CC)CCNc1c(C)c2c(=NCCCN3CCCCC3CCO)[nH]ccc2c2ccncc12

>  <score_type>  (4) 
oracle

>  <origin>  (4) 
adg

>  <m_score__min__energy>  (4) 
-10.43

>  <m_primary>  (4) 
energy

$$$$
5:0
     RDKit          3D

 52 53  0  0  0  0  0  0  0  0999 V2000
   61.9100   31.2750   47.4460 C   0  0  0  0  0  0  0  0  0  0  0  0
   62.9680   32.3090   47.1760 C   0  0  0  0  0  0  0  0  0  0  0  0
   62.6200   33.5960   47.7290 N   0  0  0  0  0  0  0  0  0  0  0  0
   63.2110   33.7600   49.0290 C   0  0  0  0  0  0  0  0  0  0  0  0
   64.5050   33.0390   49.2280 C   0  0  0  0  0  0  0  0  0  0  0  0
   61.2090   33.8430   47.7070 C   0  0  0  0  0  0  0  0  0  0  0  0
   60.7620   34.4230   46.3850 C   0  0  0  0  0  0  0  0  0  0  0  0
   59.3190   34.4950   46.2640 N   0  0  0  0  0  0  0  0  0  0  0  0
   58.6610   33.3700   45.6960 C   0  0  0  0  0  0  0  0  0  0  0  0
   58.4440   32.2280   46.4110 C   0  0  0  0  0  0  0  0  0  0  0  0
   57.7980   31.1550   45.8060 C   0  0  0  0  0  0  0  0  0  0  0  0
   57.3550   31.1680   44.5210 C   0  0  0  0  0  0  0  0  0  0  0  0
   56.5180   29.8560   43.7550 S   0  0  0  0  0  0  0  0  0  0  0  0
   56.2740   30.2010   42.2990 O   0  0  0  0  0  0  0  0  0  0  0  0
   55.1750   29.7420   44.4720 O   0  0  0  0  0  0  0  0  0  0  0  0
   57.3440   28.3680   43.9080 N   0  0  0  0  0  0  0  0  0  0  0  0
   58.4210   28.0800   44.7620 C   0  0  0  0  0  0  0  0  0  0  0  0
   59.6990   28.5550   44.6590 C   0  0  0  0  0  0  0  0  0  0  0  0
   60.7170   28.2530   45.5390 C   0  0  0  0  0  0  0  0  0  0  0  0
   60.4000   27.4120   46.5890 C   0  0  0  0  0  0  0  0  0  0  0  0
   59.1340   26.8930   46.7600 C   0  0  0  0  0  0  0  0  0  0  0  0
   58.1640   27.2350   45.8440 C   0  0  0  0  0  0  0  0  0  0  0  0
   56.7800   26.6710   46.0260 C   0  0  0  0  0  0  0  0  0  0  0  0
   57.5790   32.3440   43.7930 C   0  0  0  0  0  0  0  0  0  0  0  0
   58.2210   33.4110   44.3870 C   0  0  0  0  0  0  0  0  0  0  0  0
   61.7852   31.1530   48.5321 H   0  0  0  0  0  0  0  0  0  0  0  0
   60.9577   31.6001   47.0017 H   0  0  0  0  0  0  0  0  0  0  0  0
   62.2132   30.3155   47.0017 H   0  0  0  0  0  0  0  0  0  0  0  0
   63.9147   31.9739   47.6248 H   0  0  0  0  0  0  0  0  0  0  0  0
   63.0623   32.4219   46.0859 H   0  0  0  0  0  0  0  0  0  0  0  0
   63.3897   34.8334   49.1901 H   0  0  0  0  0  0  0  0  0  0  0  0
   62.5014   33.3238   49.7475 H   0  0  0  0  0  0  0  0  0  0  0  0
   64.7018   32.9293   50.3047 H   0  0  0  0  0  0  0  0  0  0  0  0
   64.4456   32.0439   48.7629 H   0  0  0  0  0  0  0  0  0  0  0  0
   65.3199   33.6131   48.7629 H   0  0  0  0  0  0  0  0  0  0  0  0
   60.6787   32.8945   47.8773 H   0  0  0  0  0  0  0  0  0  0  0  0
   60.9770   34.5727   48.4968 H   0  0  0  0  0  0  0  0  0  0  0  0
   61.1741   35.4383   46.2890 H   0  0  0  0  0  0  0  0  0  0  0  0
   61.1290   33.7577   45.5896 H   0  0  0  0  0  0  0  0  0  0  0  0
   58.7560   35.3210   46.5700 H   0  0  0  0  0  0  0  0  0  0  0  0
   58.7772   32.1567   47.4569 H   0  0  0  0  0  0  0  0  0  0  0  0
   57.6364   30.2442   46.4012 H   0  0  0  0  0  0  0  0  0  0  0  0
   57.0220   27.5520   43.2930 H   0  0  0  0  0  0  0  0  0  0  0  0
   59.9310   29.2236   43.8169 H   0  0  0  0  0  0  0  0  0  0  0  0
   61.7305   28.6610   45.4116 H   0  0  0  0  0  0  0  0  0  0  0  0
   61.1846   27.1476   47.3132 H   0  0  0  0  0  0  0  0  0  0  0  0
   58.9054   26.2251   47.6036 H   0  0  0  0  0  0  0  0  0  0  0  0
   56.5590   26.5810   47.0998 H   0  0  0  0  0  0  0  0  0  0  0  0
   56.0459   27.3417   45.5556 H   0  0  0  0  0  0  0  0  0  0  0  0
   56.7238   25.6783   45.5556 H   0  0  0  0  0  0  0  0  0  0  0  0
   57.2431   32.4165   42.7481 H   0  0  0  0  0  0  0  0  0  0  0  0
   58.3882   34.3252   43.7985 H   0  0  0  0  0  0  0  0  0  0  0  0
  1  2  1  0
  2  3  1  0
  3  4  1  0
  4  5  1  0
  3  6  1  0
  6  7  1  0
  7  8  1  0
  8  9  1  0
  9 10  2  0
 10 11  1  0
 11 12  2  0
 12 13  1  0
 13 14  2  0
 13 15  2  0
 13 16  1  0
 16 17  1  0
 17 18  2  0
 18 19  1  0
 19 20  2  0
 20 21  1  0
 21 22  2  0
 22 23  1  0
 12 24  1  0
 24 25  2  0
 25  9  1  0
 22 17  1  0
  1 26  1  0
  1 27  1  0
  1 28  1  0
  2 29  1  0
  2 30  1  0
  4 31  1  0
  4 32  1  0
  5 33  1  0
  5 34  1  0
  5 35  1  0
  6 36  1  0
  6 37  1  0
  7 38  1  0
  7 39  1  0
  8 40  1  0
 10 41  1  0
 11 42  1  0
 16 43  1  0
 18 44  1  0
 19 45  1  0
 20 46  1  0
 21 47  1  0
 23 48  1  0
 23 49  1  0
 23 50  1  0
 24 51  1  0
 25 52  1  0
M  END
>  <smiles>  (5) 
CCN(CC)CCNc1ccc(S(=O)(=O)Nc2ccccc2C)cc1

>  <score_type>  (5) 
oracle

>  <origin>  (5) 
adg

>  <m_score__min__energy>  (5) 
-8.4299999999999997

>  <m_primary>  (5) 
energy

$$$$
6:0
     RDKit          3D

 52 53  0  0  0  0  0  0  0  0999 V2000
   63.0860   33.9370   46.3640 C   0  0  0  0  0  0  0  0  0  0  0  0
   63.7540   32.9970   47.3290 C   0  0  0  0  0  0  0  0  0  0  0  0
   62.8090   32.5510   48.3290 N   0  0  0  0  0  0  0  0  0  0  0  0
   62.3010   31.2450   48.0890 C   0  0  0  0  0  0  0  0  0  0  0  0
   61.1740   31.2350   47.0640 C   0  0  0  0  0  0  0  0  0  0  0  0
   63.2480   32.8590   49.6400 C   0  0  0  0  0  0  0  0  0  0  0  0
   62.3390   33.6900   50.4840 C   0  0  0  0  0  0  0  0  0  0  0  0
   61.2000   34.1950   49.7450 N   0  0  0  0  0  0  0  0  0  0  0  0
   59.9260   33.8780   50.2950 C   0  0  0  0  0  0  0  0  0  0  0  0
   59.2620   32.8060   49.4910 C   0  0  0  0  0  0  0  0  0  0  0  0
   59.0450   33.3480   48.1520 N   0  0  0  0  0  0  0  0  0  0  0  0
   58.1210   32.8760   47.2690 C   0  0  0  0  0  0  0  0  0  0  0  0
   58.1870   33.6200   46.0980 C   0  0  0  0  0  0  0  0  0  0  0  0
   57.3860   33.4370   44.9360 N   0  0  0  0  0  0  0  0  0  0  0  0
   57.7510   32.5510   43.8510 C   0  0  0  0  0  0  0  0  0  0  0  0
   57.6930   31.1370   44.2580 C   0  0  0  0  0  0  0  0  0  0  0  0
   58.6470   30.3010   44.7980 C   0  0  0  0  0  0  0  0  0  0  0  0
   58.3380   29.0460   45.0790 C   0  0  0  0  0  0  0  0  0  0  0  0
   57.0510   28.5840   44.8260 C   0  0  0  0  0  0  0  0  0  0  0  0
   56.2040   30.0810   44.1220 S   0  0  0  0  0  0  0  0  0  0  0  0
   59.1860   34.5470   46.3280 C   0  0  0  0  0  0  0  0  0  0  0  0
   59.6280   35.5770   45.3490 C   0  0  0  0  0  0  0  0  0  0  0  0
   59.6680   34.3500   47.5600 N   0  0  0  0  0  0  0  0  0  0  0  0
   62.5376   34.7087   46.9240 H   0  0  0  0  0  0  0  0  0  0  0  0
   63.8480   34.4152   45.7310 H   0  0  0  0  0  0  0  0  0  0  0  0
   62.3838   33.3747   45.7310 H   0  0  0  0  0  0  0  0  0  0  0  0
   64.1393   32.1256   46.7793 H   0  0  0  0  0  0  0  0  0  0  0  0
   64.5814   33.5233   47.8273 H   0  0  0  0  0  0  0  0  0  0  0  0
   63.1199   30.6108   47.7186 H   0  0  0  0  0  0  0  0  0  0  0  0
   61.8925   30.8664   49.0376 H   0  0  0  0  0  0  0  0  0  0  0  0
   60.2050   31.2264   47.5845 H   0  0  0  0  0  0  0  0  0  0  0  0
   61.2437   32.1338   46.4337 H   0  0  0  0  0  0  0  0  0  0  0  0
   61.2596   30.3376   46.4337 H   0  0  0  0  0  0  0  0  0  0  0  0
   63.4114   31.9073   50.1669 H   0  0  0  0  0  0  0  0  0  0  0  0
   64.1491   33.4744   49.5011 H   0  0  0  0  0  0  0  0  0  0  0  0
   61.9726   33.0744   51.3188 H   0  0  0  0  0  0  0  0  0  0  0  0
   62.9152   34.5563   50.8412 H   0  0  0  0  0  0  0  0  0  0  0  0
   61.2790   34.0920   48.7300 H   0  0  0  0  0  0  0  0  0  0  0  0
   60.0552   33.5274   51.3296 H   0  0  0  0  0  0  0  0  0  0  0  0
   59.2957   34.7793   50.2767 H   0  0  0  0  0  0  0  0  0  0  0  0
   59.9088   31.9178   49.4386 H   0  0  0  0  0  0  0  0  0  0  0  0
   58.3096   32.5037   49.9509 H   0  0  0  0  0  0  0  0  0  0  0  0
   57.4321   32.0386   47.4541 H   0  0  0  0  0  0  0  0  0  0  0  0
   56.5040   33.9670   44.8780 H   0  0  0  0  0  0  0  0  0  0  0  0
   57.0564   32.7092   43.0128 H   0  0  0  0  0  0  0  0  0  0  0  0
   58.7854   32.7800   43.5552 H   0  0  0  0  0  0  0  0  0  0  0  0
   59.6621   30.6765   44.9946 H   0  0  0  0  0  0  0  0  0  0  0  0
   59.0936   28.3726   45.5097 H   0  0  0  0  0  0  0  0  0  0  0  0
   56.6365   27.5800   44.9997 H   0  0  0  0  0  0  0  0  0  0  0  0
   60.0059   36.4577   45.8889 H   0  0  0  0  0  0  0  0  0  0  0  0
   60.4277   35.1631   44.7172 H   0  0  0  0  0  0  0  0  0  0  0  0
   58.7770   35.8715   44.7172 H   0  0  0  0  0  0  0  0  0  0  0  0
  1  2  1  0
  2  3  1  0
  3  4  1  0
  4  5  1  0
  3  6  1  0
  6  7  1  0
  7  8  1  0
  8  9  1  0
  9 10  1  0
 10 11  1  0
 11 12  1  0
 12 13  2  0
 13 14  1  0
 14 15  1  0
 15 16  1  0
 16 17  2  0
 17 18  1  0
 18 19  2  0
 19 20  1  0
 13 21  1  0
 21 22  1  0
 21 23  2  0
 23 11  1  0
 20 16  1  0
  1 24  1  0
  1 25  1  0
  1 26  1  0
  2 27  1  0
  2 28  1  0
  4 29  1  0
  4 30  1  0
  5 31  1  0
  5 32  1  0
  5 33  1  0
  6 34  1  0
  6 35  1  0
  7 36  1  0
  7 37  1  0
  8 38  1  0
  9 39  1  0
  9 40  1  0
 10 41  1  0
 10 42  1  0
 12 43  1  0
 14 44  1  0
 15 45  1  0
 15 46  1  0
 17 47  1  0
 18 48  1  0
 19 49  1  0
 22 50  1  0
 22 51  1  0
 22 52  1  0
M  END
>  <smiles>  (6) 
CCN(CC)CCNCCn1cc(NCc2cccs2)c(C)n1

>  <score_type>  (6) 
oracle

>  <origin>  (6) 
adg

>  <m_score__min__energy>  (6) 
-6.2599999999999998

>  <m_primary>  (6) 
energy

$$$$
7:0
     RDKit          3D

 85 89  0  0  0  0  0  0  0  0999 V2000
   56.5540   31.6390   52.0830 C   0  0  0  0  0  0  0  0  0  0  0  0
   57.9230   31.8840   51.5500 C   0  0  0  0  0  0  0  0  0  0  0  0
   58.7970   30.7510   51.5080 N   0  0  0  0  0  0  0  0  0  0  0  0
   58.3120   29.5530   52.0930 C   0  0  0  0  0  0  0  0  0  0  0  0
   59.1300   28.9200   53.1550 C   0  0  0  0  0  0  0  0  0  0  0  0
   58.9700   30.4570   50.0730 C   0  0  0  0  0  0  0  0  0  0  0  0
   60.3800   29.9240   49.8120 C   0  0  0  0  0  0  0  0  0  0  0  0
   60.0960   31.1950   51.9810 C   0  0  0  0  0  0  0  0  0  0  0  0
   60.1180   32.5250   52.6240 C   0  0  0  0  0  0  0  0  0  0  0  0
   60.6030   33.6270   51.8580 N   0  0  0  0  0  0  0  0  0  0  0  0
   61.2810   33.4500   50.6390 C   0  0  0  0  0  0  0  0  0  0  0  0
   62.6420   33.3350   50.4840 C   0  0  0  0  0  0  0  0  0  0  0  0
   63.4060   33.3560   51.6330 C   0  0  0  0  0  0  0  0  0  0  0  0
   64.7740   33.2420   51.5390 C   0  0  0  0  0  0  0  0  0  0  0  0
   65.3700   33.1080   50.3150 C   0  0  0  0  0  0  0  0  0  0  0  0
   64.5700   33.0880   49.1660 C   0  0  0  0  0  0  0  0  0  0  0  0
   63.2040   33.1980   49.2160 C   0  0  0  0  0  0  0  0  0  0  0  0
   62.4730   33.1700   48.0910 N   0  0  0  0  0  0  0  0  0  0  0  0
   63.0380   33.0130   46.7710 C   0  0  0  0  0  0  0  0  0  0  0  0
   61.1400   33.2810   48.2270 C   0  0  0  0  0  0  0  0  0  0  0  0
   60.5280   33.4200   49.4790 C   0  0  0  0  0  0  0  0  0  0  0  0
   59.2300   33.5060   49.3110 O   0  0  0  0  0  0  0  0  0  0  0  0
   58.8810   33.4410   48.0560 C   0  0  0  0  0  0  0  0  0  0  0  0
   57.6380   33.4910   47.4620 C   0  0  0  0  0  0  0  0  0  0  0  0
   57.5410   33.3990   46.0890 C   0  0  0  0  0  0  0  0  0  0  0  0
   58.7150   33.2590   45.3840 C   0  0  0  0  0  0  0  0  0  0  0  0
   58.5740   33.1680   43.9850 O   0  0  0  0  0  0  0  0  0  0  0  0
   57.7200   32.1590   43.4790 C   0  0  0  0  0  0  0  0  0  0  0  0
   57.5360   31.0400   44.4970 C   0  0  0  0  0  0  0  0  0  0  0  0
   57.6090   29.7390   43.7340 C   0  0  0  0  0  0  0  0  0  0  0  0
   58.3310   28.7190   44.4290 N   0  0  0  0  0  0  0  0  0  0  0  0
   58.1380   27.4240   43.7610 C   0  0  0  0  0  0  0  0  0  0  0  0
   59.7480   28.9880   44.5440 C   0  0  0  0  0  0  0  0  0  0  0  0
   60.1230   28.7160   45.9920 C   0  0  0  0  0  0  0  0  0  0  0  0
   58.8440   29.1190   46.7060 C   0  0  0  0  0  0  0  0  0  0  0  0
   57.7920   28.5870   45.7600 C   0  0  0  0  0  0  0  0  0  0  0  0
   59.9600   33.2070   45.9850 C   0  0  0  0  0  0  0  0  0  0  0  0
   60.0560   33.2990   47.3480 C   0  0  0  0  0  0  0  0  0  0  0  0
   56.5823   31.6441   53.1826 H   0  0  0  0  0  0  0  0  0  0  0  0
   55.8761   32.4301   51.7300 H   0  0  0  0  0  0  0  0  0  0  0  0
   56.1925   30.6619   51.7300 H   0  0  0  0  0  0  0  0  0  0  0  0
   57.8201   32.2667   50.5239 H   0  0  0  0  0  0  0  0  0  0  0  0
   58.3902   32.5903   52.2520 H   0  0  0  0  0  0  0  0  0  0  0  0
   57.3264   29.7761   52.5276 H   0  0  0  0  0  0  0  0  0  0  0  0
   58.3147   28.8230   51.2702 H   0  0  0  0  0  0  0  0  0  0  0  0
   58.7447   29.2181   54.1413 H   0  0  0  0  0  0  0  0  0  0  0  0
   59.0764   27.8258   53.0559 H   0  0  0  0  0  0  0  0  0  0  0  0
   60.1758   29.2464   53.0559 H   0  0  0  0  0  0  0  0  0  0  0  0
   58.2325   29.7012   49.7649 H   0  0  0  0  0  0  0  0  0  0  0  0
   58.8219   31.3815   49.4956 H   0  0  0  0  0  0  0  0  0  0  0  0
   60.8835   29.7337   50.7713 H   0  0  0  0  0  0  0  0  0  0  0  0
   60.3176   28.9874   49.2385 H   0  0  0  0  0  0  0  0  0  0  0  0
   60.9528   30.6677   49.2385 H   0  0  0  0  0  0  0  0  0  0  0  0
   60.4601   30.4587   52.7127 H   0  0  0  0  0  0  0  0  0  0  0  0
   60.7299   31.2815   51.0862 H   0  0  0  0  0  0  0  0  0  0  0  0
   59.0862   32.7620   52.9227 H   0  0  0  0  0  0  0  0  0  0  0  0
   60.8392   32.4221   53.4481 H   0  0  0  0  0  0  0  0  0  0  0  0
   60.4730   34.6390   52.1700 H   0  0  0  0  0  0  0  0  0  0  0  0
   62.9250   33.4631   52.6165 H   0  0  0  0  0  0  0  0  0  0  0  0
   65.3899   33.2587   52.4503 H   0  0  0  0  0  0  0  0  0  0  0  0
   66.4633   33.0172   50.2345 H   0  0  0  0  0  0  0  0  0  0  0  0
   65.0561   32.9799   48.1852 H   0  0  0  0  0  0  0  0  0  0  0  0
   64.0946   32.7194   46.8570 H   0  0  0  0  0  0  0  0  0  0  0  0
   62.4844   32.2347   46.2254 H   0  0  0  0  0  0  0  0  0  0  0  0
   62.9653   33.9654   46.2254 H   0  0  0  0  0  0  0  0  0  0  0  0
   56.7327   33.6031   48.0766 H   0  0  0  0  0  0  0  0  0  0  0  0
   56.5670   33.4359   45.5792 H   0  0  0  0  0  0  0  0  0  0  0  0
   56.7392   32.6001   43.2478 H   0  0  0  0  0  0  0  0  0  0  0  0
   58.1754   31.7364   42.5713 H   0  0  0  0  0  0  0  0  0  0  0  0
   58.3341   31.0809   45.2529 H   0  0  0  0  0  0  0  0  0  0  0  0
   56.5732   31.1370   45.0201 H   0  0  0  0  0  0  0  0  0  0  0  0
   56.5845   29.3813   43.5537 H   0  0  0  0  0  0  0  0  0  0  0  0
   58.1473   29.9396   42.7959 H   0  0  0  0  0  0  0  0  0  0  0  0
   58.0204   26.6348   44.5182 H   0  0  0  0  0  0  0  0  0  0  0  0
   57.2363   27.4664   43.1325 H   0  0  0  0  0  0  0  0  0  0  0  0
   59.0129   27.2016   43.1325 H   0  0  0  0  0  0  0  0  0  0  0  0
   60.3160   28.3262   43.8736 H   0  0  0  0  0  0  0  0  0  0  0  0
   59.9802   30.0253   44.2611 H   0  0  0  0  0  0  0  0  0  0  0  0
   60.3588   27.6540   46.1551 H   0  0  0  0  0  0  0  0  0  0  0  0
   61.0207   29.2512   46.3351 H   0  0  0  0  0  0  0  0  0  0  0  0
   58.7703   28.6460   47.6964 H   0  0  0  0  0  0  0  0  0  0  0  0
   58.7628   30.1974   46.9073 H   0  0  0  0  0  0  0  0  0  0  0  0
   57.5818   27.5302   45.9814 H   0  0  0  0  0  0  0  0  0  0  0  0
   56.8482   29.1425   45.8629 H   0  0  0  0  0  0  0  0  0  0  0  0
   60.8664   33.0926   45.3724 H   0  0  0  0  0  0  0  0  0  0  0  0
  1  2  1  0
  2  3  1  0
  3  4  1  0
  4  5  1  0
  3  6  1  0
  6  7  1  0
  3  8  1  0
  8  9  1  0
  9 10  1  0
 10 11  1  0
 11 12  2  0
 12 13  1  0
 13 14  2  0
 14 15  1  0
 15 16  2  0
 16 17  1  0
 17 18  2  0
 18 19  1  0
 18 20  1  0
 20 21  2  0
 21 22  1  0
 22 23  1  0
 23 24  2  0
 24 25  1  0
 25 26  2  0
 26 27  1  0
 27 28  1  0
 28 29  1  0
 29 30  1  0
 30 31  1  0
 31 32  1  0
 31 33  1  0
 33 34  1  0
 34 35  1  0
 35 36  1  0
 26 37  1  0
 37 38  2  0
 21 11  1  0
 38 23  1  0
 17 12  1  0
 38 20  1  0
 36 31  1  0
  1 39  1  0
  1 40  1  0
  1 41  1  0
  2 42  1  0
  2 43  1  0
  4 44  1  0
  4 45  1  0
  5 46  1  0
  5 47  1  0
  5 48  1  0
  6 49  1  0
  6 50  1  0
  7 51  1  0
  7 52  1  0
  7 53  1  0
  8 54  1  0
  8 55  1  0
  9 56  1  0
  9 57  1  0
 10 58  1  0
 13 59  1  0
 14 60  1  0
 15 61  1  0
 16 62  1  0
 19 63  1  0
 19 64  1  0
 19 65  1  0
 24 66  1  0
 25 67  1  0
 28 68  1  0
 28 69  1  0
 29 70  1  0
 29 71  1  0
 30 72  1  0
 30 73  1  0
 32 74  1  0
 32 75  1  0
 32 76  1  0
 33 77  1  0
 33 78  1  0
 34 79  1  0
 34 80  1  0
 35 81  1  0
 35 82  1  0
 36 83  1  0
 36 84  1  0
 37 85  1  0
M  CHG  3   3   1  18   1  31   1
M  END
>  <smiles>  (7) 
CC[N+](CC)(CC)CCNc1c2ccccc2[n+](C)c2c1oc1ccc(OCCC[N+]3(C)CCCC3)cc12

>  <score_type>  (7) 
oracle

>  <origin>  (7) 
adg

>  <m_score__min__energy>  (7) 
-4.0199999999999996

>  <m_primary>  (7) 
energy

$$$$
8:0
     RDKit          3D

 45 47  0  0  0  0  0  0  0  0999 V2000
   56.2390   29.7830   42.7660 C   0  0  0  0  0  0  0  0  0  0  0  0
   56.0430   30.0220   44.2610 C   0  0  0  0  0  0  0  0  0  0  0  0
   57.0590   30.7710   44.8480 N   0  0  0  0  0  0  0  0  0  0  0  0
   57.0510   32.1550   44.4920 C   0  0  0  0  0  0  0  0  0  0  0  0
   57.9160   33.0210   45.3180 C   0  0  0  0  0  0  0  0  0  0  0  0
   57.7710   33.0290   46.6940 C   0  0  0  0  0  0  0  0  0  0  0  0
   58.5370   33.8130   47.5300 C   0  0  0  0  0  0  0  0  0  0  0  0
   59.4960   34.6330   46.9970 C   0  0  0  0  0  0  0  0  0  0  0  0
   59.6390   34.6230   45.6240 C   0  0  0  0  0  0  0  0  0  0  0  0
   58.8900   33.8550   44.7800 C   0  0  0  0  0  0  0  0  0  0  0  0
   58.3740   30.2240   44.8970 C   0  0  0  0  0  0  0  0  0  0  0  0
   58.7070   29.4280   46.0860 C   0  0  0  0  0  0  0  0  0  0  0  0
   59.0170   30.1060   47.2790 C   0  0  0  0  0  0  0  0  0  0  0  0
   59.2500   29.4320   48.4560 C   0  0  0  0  0  0  0  0  0  0  0  0
   59.5280   30.0760   49.5170 O   0  0  0  0  0  0  0  0  0  0  0  0
   59.1830   28.1240   48.4740 O   0  0  0  0  0  0  0  0  0  0  0  0
   58.8990   27.4210   47.3940 C   0  0  0  0  0  0  0  0  0  0  0  0
   58.8670   26.0580   47.5450 C   0  0  0  0  0  0  0  0  0  0  0  0
   58.5870   25.2720   46.4530 C   0  0  0  0  0  0  0  0  0  0  0  0
   58.3540   25.9110   45.2590 C   0  0  0  0  0  0  0  0  0  0  0  0
   58.3810   27.2750   45.0960 C   0  0  0  0  0  0  0  0  0  0  0  0
   58.1390   27.7980   43.8680 O   0  0  0  0  0  0  0  0  0  0  0  0
   58.1450   27.0830   42.6560 C   0  0  0  0  0  0  0  0  0  0  0  0
   58.6590   28.0620   46.1860 C   0  0  0  0  0  0  0  0  0  0  0  0
   56.9301   28.9403   42.6169 H   0  0  0  0  0  0  0  0  0  0  0  0
   55.2696   29.5487   42.3019 H   0  0  0  0  0  0  0  0  0  0  0  0
   56.6585   30.6878   42.3019 H   0  0  0  0  0  0  0  0  0  0  0  0
   55.0916   30.5549   44.4053 H   0  0  0  0  0  0  0  0  0  0  0  0
   56.0506   29.0352   44.7470 H   0  0  0  0  0  0  0  0  0  0  0  0
   57.3833   32.2396   43.4468 H   0  0  0  0  0  0  0  0  0  0  0  0
   56.0216   32.5065   44.6553 H   0  0  0  0  0  0  0  0  0  0  0  0
   57.0068   32.3776   47.1430 H   0  0  0  0  0  0  0  0  0  0  0  0
   58.3791   33.7803   48.6181 H   0  0  0  0  0  0  0  0  0  0  0  0
   60.1246   35.2715   47.6351 H   0  0  0  0  0  0  0  0  0  0  0  0
   60.4058   35.2759   45.1817 H   0  0  0  0  0  0  0  0  0  0  0  0
   59.0540   33.8951   43.6930 H   0  0  0  0  0  0  0  0  0  0  0  0
   58.5007   29.5781   44.0157 H   0  0  0  0  0  0  0  0  0  0  0  0
   59.0500   31.0912   44.9275 H   0  0  0  0  0  0  0  0  0  0  0  0
   59.0747   31.2045   47.2708 H   0  0  0  0  0  0  0  0  0  0  0  0
   59.0627   25.6007   48.5261 H   0  0  0  0  0  0  0  0  0  0  0  0
   58.5509   24.1754   46.5316 H   0  0  0  0  0  0  0  0  0  0  0  0
   58.1318   25.2912   44.3778 H   0  0  0  0  0  0  0  0  0  0  0  0
   58.1541   26.0035   42.8672 H   0  0  0  0  0  0  0  0  0  0  0  0
   57.2447   27.3358   42.0767 H   0  0  0  0  0  0  0  0  0  0  0  0
   59.0409   27.3508   42.0767 H   0  0  0  0  0  0  0  0  0  0  0  0
  1  2  1  0
  2  3  1  0
  3  4  1  0
  4  5  1  0
  5  6  2  0
  6  7  1  0
  7  8  2  0
  8  9  1  0
  9 10  2  0
  3 11  1  0
 11 12  1  0
 12 13  2  0
 13 14  1  0
 14 15  2  0
 14 16  1  0
 16 17  1  0
 17 18  2  0
 18 19  1  0
 19 20  2  0
 20 21  1  0
 21 22  1  0
 22 23  1  0
 21 24  2  0
 10  5  1  0
 24 12  1  0
 24 17  1  0
  1 25  1  0
  1 26  1  0
  1 27  1  0
  2 28  1  0
  2 29  1  0
  4 30  1  0
  4 31  1  0
  6 32  1  0
  7 33  1  0
  8 34  1  0
  9 35  1  0
 10 36  1  0
 11 37  1  0
 11 38  1  0
 13 39  1  0
 18 40  1  0
 19 41  1  0
 20 42  1  0
 23 43  1  0
 23 44  1  0
 23 45  1  0
M  END
>  <smiles>  (8) 
CCN(Cc1ccccc1)Cc1cc(=O)oc2cccc(OC)c12

>  <score_type>  (8) 
oracle

>  <origin>  (8) 
adg

>  <m_score__min__energy>  (8) 
-7.2000000000000002

>  <m_primary>  (8) 
energy

$$$$
9:0
     RDKit          3D

 22 23  0  0  0  0  0  0  0  0999 V2000
   58.9060   33.8910   47.8970 C   0  0  0  0  0  0  0  0  0  0  0  0
   58.6430   33.4590   46.4830 C   0  0  0  0  0  0  0  0  0  0  0  0
   59.1400   34.1860   45.4210 C   0  0  0  0  0  0  0  0  0  0  0  0
   58.8840   33.7650   44.1120 C   0  0  0  0  0  0  0  0  0  0  0  0
   58.1270   32.6150   43.9180 C   0  0  0  0  0  0  0  0  0  0  0  0
   57.6390   31.9010   44.9950 C   0  0  0  0  0  0  0  0  0  0  0  0
   57.8860   32.3070   46.3100 C   0  0  0  0  0  0  0  0  0  0  0  0
   56.8840   30.7450   44.5220 C   0  0  0  0  0  0  0  0  0  0  0  0
   56.2850   29.8520   45.1660 O   0  0  0  0  0  0  0  0  0  0  0  0
   56.9620   30.8260   43.0470 C   0  0  0  0  0  0  0  0  0  0  0  0
   56.4250   29.9930   42.2460 O   0  0  0  0  0  0  0  0  0  0  0  0
   57.7330   31.9880   42.7000 N   0  0  0  0  0  0  0  0  0  0  0  0
   58.0330   32.4070   41.3490 C   0  0  0  0  0  0  0  0  0  0  0  0
   58.4624   33.1624   48.5915 H   0  0  0  0  0  0  0  0  0  0  0  0
   59.9913   33.9465   48.0676 H   0  0  0  0  0  0  0  0  0  0  0  0
   58.4569   34.8806   48.0676 H   0  0  0  0  0  0  0  0  0  0  0  0
   59.7351   35.0930   45.6030 H   0  0  0  0  0  0  0  0  0  0  0  0
   59.2735   34.3320   43.2537 H   0  0  0  0  0  0  0  0  0  0  0  0
   57.4983   31.7397   47.1690 H   0  0  0  0  0  0  0  0  0  0  0  0
   58.6732   33.3011   41.3760 H   0  0  0  0  0  0  0  0  0  0  0  0
   58.5573   31.5965   40.8216 H   0  0  0  0  0  0  0  0  0  0  0  0
   57.0968   32.6422   40.8216 H   0  0  0  0  0  0  0  0  0  0  0  0
  1  2  1  0
  2  3  2  0
  3  4  1  0
  4  5  2  0
  5  6  1  0
  6  7  2  0
  6  8  1  0
  8  9  2  0
  8 10  1  0
 10 11  2  0
 10 12  1  0
 12 13  1  0
  7  2  1  0
 12  5  1  0
  1 14  1  0
  1 15  1  0
  1 16  1  0
  3 17  1  0
  4 18  1  0
  7 19  1  0
 13 20  1  0
 13 21  1  0
 13 22  1  0
M  END
>  <smiles>  (9) 
Cc1ccc2c(c1)C(=O)C(=O)N2C

>  <score_type>  (9) 
oracle

>  <origin>  (9) 
adg

>  <m_score__min__energy>  (9) 
-6.1399999999999997

>  <m_primary>  (9) 
energy

$$$$
10:0
     RDKit          3D

 55 58  0  0  0  0  0  0  0  0999 V2000
   52.5830   30.7530   51.0870 C   0  0  0  0  0  0  0  0  0  0  0  0
   54.0190   30.8760   51.2240 N   0  0  0  0  0  0  0  0  0  0  0  0
   54.4550   30.2140   52.4560 C   0  0  0  0  0  0  0  0  0  0  0  0
   55.9270   30.4830   52.6820 C   0  0  0  0  0  0  0  0  0  0  0  0
   56.4820   31.3710   51.6670 N   0  0  0  0  0  0  0  0  0  0  0  0
   57.7920   31.9360   51.8400 C   0  0  0  0  0  0  0  0  0  0  0  0
   58.3880   31.8970   53.0840 C   0  0  0  0  0  0  0  0  0  0  0  0
   59.6570   32.4300   53.3100 C   0  0  0  0  0  0  0  0  0  0  0  0
   60.2820   32.9990   52.2160 C   0  0  0  0  0  0  0  0  0  0  0  0
   59.7020   33.0470   50.9650 C   0  0  0  0  0  0  0  0  0  0  0  0
   58.4460   32.5100   50.7790 C   0  0  0  0  0  0  0  0  0  0  0  0
   58.1480   32.6990   49.4910 N   0  0  0  0  0  0  0  0  0  0  0  0
   59.1900   33.3340   48.8990 C   0  0  0  0  0  0  0  0  0  0  0  0
   59.1630   33.6830   47.4800 C   0  0  0  0  0  0  0  0  0  0  0  0
   58.6090   32.7560   46.6000 C   0  0  0  0  0  0  0  0  0  0  0  0
   58.5440   33.0050   45.2360 C   0  0  0  0  0  0  0  0  0  0  0  0
   59.0350   34.1830   44.7560 C   0  0  0  0  0  0  0  0  0  0  0  0
   59.5810   35.0910   45.6360 C   0  0  0  0  0  0  0  0  0  0  0  0
   59.6590   34.8720   46.9940 C   0  0  0  0  0  0  0  0  0  0  0  0
   60.1650   33.5570   49.8090 N   0  0  0  0  0  0  0  0  0  0  0  0
   61.4000   34.2120   49.4930 C   0  0  0  0  0  0  0  0  0  0  0  0
   62.4930   33.3040   49.0270 C   0  0  0  0  0  0  0  0  0  0  0  0
   62.0560   32.2020   48.1180 C   0  0  0  0  0  0  0  0  0  0  0  0
   63.3390   31.6240   47.5050 C   0  0  0  0  0  0  0  0  0  0  0  0
   63.7830   32.5150   46.5020 O   0  0  0  0  0  0  0  0  0  0  0  0
   63.3810   33.8190   46.7840 C   0  0  0  0  0  0  0  0  0  0  0  0
   63.4920   34.1470   48.2590 C   0  0  0  0  0  0  0  0  0  0  0  0
   52.1215   30.7135   52.0847 H   0  0  0  0  0  0  0  0  0  0  0  0
   52.1915   31.6209   50.5361 H   0  0  0  0  0  0  0  0  0  0  0  0
   52.3448   29.8312   50.5361 H   0  0  0  0  0  0  0  0  0  0  0  0
   54.3530   31.8690   51.2430 H   0  0  0  0  0  0  0  0  0  0  0  0
   53.8765   30.6046   53.3062 H   0  0  0  0  0  0  0  0  0  0  0  0
   54.2908   29.1300   52.3666 H   0  0  0  0  0  0  0  0  0  0  0  0
   56.0553   30.9490   53.6701 H   0  0  0  0  0  0  0  0  0  0  0  0
   56.4610   29.5231   52.6225 H   0  0  0  0  0  0  0  0  0  0  0  0
   55.9380   31.6030   50.8100 H   0  0  0  0  0  0  0  0  0  0  0  0
   57.8468   31.4323   53.9214 H   0  0  0  0  0  0  0  0  0  0  0  0
   60.1329   32.3994   54.3013 H   0  0  0  0  0  0  0  0  0  0  0  0
   61.2845   33.4320   52.3485 H   0  0  0  0  0  0  0  0  0  0  0  0
   58.2151   31.8075   46.9940 H   0  0  0  0  0  0  0  0  0  0  0  0
   58.1033   32.2637   44.5531 H   0  0  0  0  0  0  0  0  0  0  0  0
   58.9955   34.4054   43.6794 H   0  0  0  0  0  0  0  0  0  0  0  0
   59.9739   36.0370   45.2351 H   0  0  0  0  0  0  0  0  0  0  0  0
   60.1022   35.6211   47.6667 H   0  0  0  0  0  0  0  0  0  0  0  0
   61.2036   34.9464   48.6980 H   0  0  0  0  0  0  0  0  0  0  0  0
   61.7556   34.6679   50.4288 H   0  0  0  0  0  0  0  0  0  0  0  0
   62.9023   32.8261   49.9293 H   0  0  0  0  0  0  0  0  0  0  0  0
   61.5215   31.4269   48.6868 H   0  0  0  0  0  0  0  0  0  0  0  0
   61.3689   32.5694   47.3415 H   0  0  0  0  0  0  0  0  0  0  0  0
   64.1109   31.5218   48.2820 H   0  0  0  0  0  0  0  0  0  0  0  0
   63.1434   30.6307   47.0748 H   0  0  0  0  0  0  0  0  0  0  0  0
   64.0165   34.5157   46.2176 H   0  0  0  0  0  0  0  0  0  0  0  0
   62.3239   33.9158   46.4957 H   0  0  0  0  0  0  0  0  0  0  0  0
   64.5102   33.9247   48.6109 H   0  0  0  0  0  0  0  0  0  0  0  0
   63.2801   35.2143   48.4200 H   0  0  0  0  0  0  0  0  0  0  0  0
  1  2  1  0
  2  3  1  0
  3  4  1  0
  4  5  1  0
  5  6  1  0
  6  7  2  0
  7  8  1  0
  8  9  2  0
  9 10  1  0
 10 11  2  0
 11 12  1  0
 12 13  2  0
 13 14  1  0
 14 15  2  0
 15 16  1  0
 16 17  2  0
 17 18  1  0
 18 19  2  0
 13 20  1  0
 20 21  1  0
 21 22  1  0
 22 23  1  0
 23 24  1  0
 24 25  1  0
 25 26  1  0
 26 27  1  0
 11  6  1  0
 19 14  1  0
 27 22  1  0
 20 10  1  0
  1 28  1  0
  1 29  1  0
  1 30  1  0
  2 31  1  0
  3 32  1  0
  3 33  1  0
  4 34  1  0
  4 35  1  0
  5 36  1  0
  7 37  1  0
  8 38  1  0
  9 39  1  0
 15 40  1  0
 16 41  1  0
 17 42  1  0
 18 43  1  0
 19 44  1  0
 21 45  1  0
 21 46  1  0
 22 47  1  0
 23 48  1  0
 23 49  1  0
 24 50  1  0
 24 51  1  0
 26 52  1  0
 26 53  1  0
 27 54  1  0
 27 55  1  0
M  END
>  <smiles>  (10) 
CNCCNc1cccc2c1nc(-c1ccccc1)n2CC1CCOCC1

>  <score_type>  (10) 
oracle

>  <origin>  (10) 
adg

>  <m_score__min__energy>  (10) 
-8.3399999999999999

>  <m_primary>  (10) 
energy

$$$$
11:0
     RDKit          3D

 50 51  0  0  0  0  0  0  0  0999 V2000
   58.9000   29.6700   45.9350 C   0  0  0  0  0  0  0  0  0  0  0  0
   57.4280   29.4440   45.6170 C   0  0  0  0  0  0  0  0  0  0  0  0
   56.8950   30.6180   44.8790 N   0  0  0  0  0  0  0  0  0  0  0  0
   55.8710   30.1120   44.0280 C   0  0  0  0  0  0  0  0  0  0  0  0
   56.2690   29.7190   42.6530 C   0  0  0  0  0  0  0  0  0  0  0  0
   58.0930   31.0990   44.1710 C   0  0  0  0  0  0  0  0  0  0  0  0
   58.0710   32.5280   43.8240 C   0  0  0  0  0  0  0  0  0  0  0  0
   57.0160   33.2290   44.5200 N   0  0  0  0  0  0  0  0  0  0  0  0
   57.5610   34.0890   45.5170 C   0  0  0  0  0  0  0  0  0  0  0  0
   59.0360   33.8770   45.6820 C   0  0  0  0  0  0  0  0  0  0  0  0
   59.6580   35.0080   46.4620 C   0  0  0  0  0  0  0  0  0  0  0  0
   60.2210   34.3770   47.6940 C   0  0  0  0  0  0  0  0  0  0  0  0
   59.7010   34.2520   48.9600 C   0  0  0  0  0  0  0  0  0  0  0  0
   60.6320   33.6640   49.7540 N   0  0  0  0  0  0  0  0  0  0  0  0
   60.5290   33.3370   51.1720 C   0  0  0  0  0  0  0  0  0  0  0  0
   61.7340   33.4110   49.0160 C   0  0  0  0  0  0  0  0  0  0  0  0
   62.9480   32.8240   49.3120 C   0  0  0  0  0  0  0  0  0  0  0  0
   63.9460   32.6610   48.3480 C   0  0  0  0  0  0  0  0  0  0  0  0
   63.6750   33.1110   47.0600 C   0  0  0  0  0  0  0  0  0  0  0  0
   62.4690   33.6940   46.7670 C   0  0  0  0  0  0  0  0  0  0  0  0
   61.4910   33.8500   47.7410 C   0  0  0  0  0  0  0  0  0  0  0  0
   59.0404   29.6916   47.0258 H   0  0  0  0  0  0  0  0  0  0  0  0
   59.4978   28.8531   45.5045 H   0  0  0  0  0  0  0  0  0  0  0  0
   59.2252   30.6286   45.5045 H   0  0  0  0  0  0  0  0  0  0  0  0
   57.3211   28.5417   44.9970 H   0  0  0  0  0  0  0  0  0  0  0  0
   56.8663   29.3138   46.5537 H   0  0  0  0  0  0  0  0  0  0  0  0
   55.4431   29.2239   44.5160 H   0  0  0  0  0  0  0  0  0  0  0  0
   55.1716   30.9504   43.8938 H   0  0  0  0  0  0  0  0  0  0  0  0
   57.0509   28.9470   42.7041 H   0  0  0  0  0  0  0  0  0  0  0  0
   55.3945   29.3203   42.1180 H   0  0  0  0  0  0  0  0  0  0  0  0
   56.6566   30.5985   42.1180 H   0  0  0  0  0  0  0  0  0  0  0  0
   58.9669   30.9161   44.8135 H   0  0  0  0  0  0  0  0  0  0  0  0
   58.1322   30.5493   43.2190 H   0  0  0  0  0  0  0  0  0  0  0  0
   59.0377   32.9764   44.0968 H   0  0  0  0  0  0  0  0  0  0  0  0
   57.8876   32.6165   42.7430 H   0  0  0  0  0  0  0  0  0  0  0  0
   56.3360   32.5900   44.9590 H   0  0  0  0  0  0  0  0  0  0  0  0
   57.3810   35.1340   45.2243 H   0  0  0  0  0  0  0  0  0  0  0  0
   57.0710   33.8595   46.4747 H   0  0  0  0  0  0  0  0  0  0  0  0
   59.2062   32.9324   46.2194 H   0  0  0  0  0  0  0  0  0  0  0  0
   59.4997   33.8407   44.6852 H   0  0  0  0  0  0  0  0  0  0  0  0
   60.4560   35.4868   45.8756 H   0  0  0  0  0  0  0  0  0  0  0  0
   58.9244   35.7917   46.7021 H   0  0  0  0  0  0  0  0  0  0  0  0
   58.6982   34.5744   49.2769 H   0  0  0  0  0  0  0  0  0  0  0  0
   60.8060   34.2163   51.7721 H   0  0  0  0  0  0  0  0  0  0  0  0
   59.4950   33.0439   51.4065 H   0  0  0  0  0  0  0  0  0  0  0  0
   61.2083   32.5042   51.4065 H   0  0  0  0  0  0  0  0  0  0  0  0
   63.1352   32.4740   50.3379 H   0  0  0  0  0  0  0  0  0  0  0  0
   64.9101   32.1942   48.5982 H   0  0  0  0  0  0  0  0  0  0  0  0
   64.4333   32.9984   46.2712 H   0  0  0  0  0  0  0  0  0  0  0  0
   62.2726   34.0442   45.7429 H   0  0  0  0  0  0  0  0  0  0  0  0
  1  2  1  0
  2  3  1  0
  3  4  1  0
  4  5  1  0
  3  6  1  0
  6  7  1  0
  7  8  1  0
  8  9  1  0
  9 10  1  0
 10 11  1  0
 11 12  1  0
 12 13  2  0
 13 14  1  0
 14 15  1  0
 14 16  1  0
 16 17  2  0
 17 18  1  0
 18 19  2  0
 19 20  1  0
 20 21  2  0
 21 12  1  0
 21 16  1  0
  1 22  1  0
  1 23  1  0
  1 24  1  0
  2 25  1  0
  2 26  1  0
  4 27  1  0
  4 28  1  0
  5 29  1  0
  5 30  1  0
  5 31  1  0
  6 32  1  0
  6 33  1  0
  7 34  1  0
  7 35  1  0
  8 36  1  0
  9 37  1  0
  9 38  1  0
 10 39  1  0
 10 40  1  0
 11 41  1  0
 11 42  1  0
 13 43  1  0
 15 44  1  0
 15 45  1  0
 15 46  1  0
 17 47  1  0
 18 48  1  0
 19 49  1  0
 20 50  1  0
M  END
>  <smiles>  (11) 
CCN(CC)CCNCCCc1cn(C)c2ccccc12

>  <score_type>  (11) 
oracle

>  <origin>  (11) 
adg

>  <m_score__min__energy>  (11) 
-6.9500000000000002

>  <m_primary>  (11) 
energy

$$$$
12:0
     RDKit          3D

 55 56  0  0  0  0  0  0  0  0999 V2000
   57.4780   32.3010   41.2640 C   0  0  0  0  0  0  0  0  0  0  0  0
   58.1510   32.3400   42.6120 C   0  0  0  0  0  0  0  0  0  0  0  0
   58.1040   31.1550   43.3480 N   0  0  0  0  0  0  0  0  0  0  0  0
   56.9400   30.8300   44.0670 C   0  0  0  0  0  0  0  0  0  0  0  0
   56.7710   29.3950   44.3510 C   0  0  0  0  0  0  0  0  0  0  0  0
   58.1250   28.7590   44.3770 N   0  0  0  0  0  0  0  0  0  0  0  0
   58.0350   27.6060   43.4450 C   0  0  0  0  0  0  0  0  0  0  0  0
   58.3140   28.2240   45.7200 C   0  0  0  0  0  0  0  0  0  0  0  0
   59.0670   29.2160   46.5470 C   0  0  0  0  0  0  0  0  0  0  0  0
   60.1030   29.9500   46.0050 C   0  0  0  0  0  0  0  0  0  0  0  0
   60.8300   30.8730   46.7410 C   0  0  0  0  0  0  0  0  0  0  0  0
   60.4880   31.0480   48.0650 C   0  0  0  0  0  0  0  0  0  0  0  0
   61.3070   32.0470   48.8270 C   0  0  0  0  0  0  0  0  0  0  0  0
   60.6420   33.2350   49.1200 N   0  0  0  0  0  0  0  0  0  0  0  0
   59.7410   33.2810   50.2120 C   0  0  0  0  0  0  0  0  0  0  0  0
   60.5590   34.2710   48.1780 C   0  0  0  0  0  0  0  0  0  0  0  0
   59.4600   34.1380   47.2030 C   0  0  0  0  0  0  0  0  0  0  0  0
   58.2680   33.4940   47.4540 C   0  0  0  0  0  0  0  0  0  0  0  0
   57.2830   33.4010   46.4820 C   0  0  0  0  0  0  0  0  0  0  0  0
   57.5040   33.9690   45.2290 C   0  0  0  0  0  0  0  0  0  0  0  0
   58.6820   34.6050   44.9790 C   0  0  0  0  0  0  0  0  0  0  0  0
   59.6680   34.7000   45.9460 C   0  0  0  0  0  0  0  0  0  0  0  0
   59.4570   30.3390   48.6650 C   0  0  0  0  0  0  0  0  0  0  0  0
   58.7430   29.4130   47.8890 C   0  0  0  0  0  0  0  0  0  0  0  0
   56.3883   32.2378   41.3999 H   0  0  0  0  0  0  0  0  0  0  0  0
   57.7253   33.2150   40.7041 H   0  0  0  0  0  0  0  0  0  0  0  0
   57.8292   31.4217   40.7041 H   0  0  0  0  0  0  0  0  0  0  0  0
   59.2087   32.5977   42.4540 H   0  0  0  0  0  0  0  0  0  0  0  0
   57.5938   33.0816   43.2032 H   0  0  0  0  0  0  0  0  0  0  0  0
   58.5220   30.3000   42.9280 H   0  0  0  0  0  0  0  0  0  0  0  0
   56.9687   31.3678   45.0262 H   0  0  0  0  0  0  0  0  0  0  0  0
   56.0912   31.1223   43.4313 H   0  0  0  0  0  0  0  0  0  0  0  0
   56.2797   29.2642   45.3265 H   0  0  0  0  0  0  0  0  0  0  0  0
   56.1467   28.9261   43.5762 H   0  0  0  0  0  0  0  0  0  0  0  0
   57.9621   26.6726   44.0224 H   0  0  0  0  0  0  0  0  0  0  0  0
   57.1427   27.7157   42.8112 H   0  0  0  0  0  0  0  0  0  0  0  0
   58.9335   27.5759   42.8112 H   0  0  0  0  0  0  0  0  0  0  0  0
   57.3335   28.0315   46.1799 H   0  0  0  0  0  0  0  0  0  0  0  0
   58.8825   27.2839   45.6649 H   0  0  0  0  0  0  0  0  0  0  0  0
   60.3620   29.7964   44.9470 H   0  0  0  0  0  0  0  0  0  0  0  0
   61.6509   31.4456   46.2846 H   0  0  0  0  0  0  0  0  0  0  0  0
   61.6182   31.5845   49.7753 H   0  0  0  0  0  0  0  0  0  0  0  0
   62.1557   32.3145   48.1803 H   0  0  0  0  0  0  0  0  0  0  0  0
   60.3063   33.2521   51.1552 H   0  0  0  0  0  0  0  0  0  0  0  0
   59.1543   34.2103   50.1644 H   0  0  0  0  0  0  0  0  0  0  0  0
   59.0627   32.4163   50.1644 H   0  0  0  0  0  0  0  0  0  0  0  0
   60.4205   35.2170   48.7219 H   0  0  0  0  0  0  0  0  0  0  0  0
   61.4925   34.2350   47.5972 H   0  0  0  0  0  0  0  0  0  0  0  0
   58.0945   33.0455   48.4433 H   0  0  0  0  0  0  0  0  0  0  0  0
   56.3365   32.8839   46.6982 H   0  0  0  0  0  0  0  0  0  0  0  0
   56.7326   33.9042   44.4475 H   0  0  0  0  0  0  0  0  0  0  0  0
   58.8534   35.0522   43.9887 H   0  0  0  0  0  0  0  0  0  0  0  0
   60.6125   35.2176   45.7222 H   0  0  0  0  0  0  0  0  0  0  0  0
   59.2053   30.4990   49.7238 H   0  0  0  0  0  0  0  0  0  0  0  0
   57.9219   28.8385   48.3425 H   0  0  0  0  0  0  0  0  0  0  0  0
  1  2  1  0
  2  3  1  0
  3  4  1  0
  4  5  1  0
  5  6  1  0
  6  7  1  0
  6  8  1  0
  8  9  1  0
  9 10  2  0
 10 11  1  0
 11 12  2  0
 12 13  1  0
 13 14  1  0
 14 15  1  0
 14 16  1  0
 16 17  1  0
 17 18  2  0
 18 19  1  0
 19 20  2  0
 20 21  1  0
 21 22  2  0
 12 23  1  0
 23 24  2  0
 24  9  1  0
 22 17  1  0
  1 25  1  0
  1 26  1  0
  1 27  1  0
  2 28  1  0
  2 29  1  0
  3 30  1  0
  4 31  1  0
  4 32  1  0
  5 33  1  0
  5 34  1  0
  7 35  1  0
  7 36  1  0
  7 37  1  0
  8 38  1  0
  8 39  1  0
 10 40  1  0
 11 41  1  0
 13 42  1  0
 13 43  1  0
 15 44  1  0
 15 45  1  0
 15 46  1  0
 16 47  1  0
 16 48  1  0
 18 49  1  0
 19 50  1  0
 20 51  1  0
 21 52  1  0
 22 53  1  0
 23 54  1  0
 24 55  1  0
M  END
>  <smiles>  (12) 
CCNCCN(C)Cc1ccc(CN(C)Cc2ccccc2)cc1

>  <score_type>  (12) 
oracle

>  <origin>  (12) 
adg

>  <m_score__min__energy>  (12) 
-7.2000000000000002

>  <m_primary>  (12) 
energy

$$$$
13:0
     RDKit          3D

 57 61  0  0  0  0  0  0  0  0999 V2000
   63.7200   33.2900   46.7810 C   0  0  0  0  0  0  0  0  0  0  0  0
   62.8570   33.8610   47.8930 C   0  0  0  0  0  0  0  0  0  0  0  0
   62.8010   33.0200   49.0300 N   0  0  0  0  0  0  0  0  0  0  0  0
   63.7030   31.9320   49.0940 C   0  0  0  0  0  0  0  0  0  0  0  0
   61.5640   32.9090   49.7110 C   0  0  0  0  0  0  0  0  0  0  0  0
   60.6510   31.9720   48.9940 C   0  0  0  0  0  0  0  0  0  0  0  0
   61.1090   31.6220   47.6470 N   0  0  0  0  0  0  0  0  0  0  0  0
   60.0470   31.3840   46.7000 C   0  0  0  0  0  0  0  0  0  0  0  0
   59.6770   30.0880   46.3900 C   0  0  0  0  0  0  0  0  0  0  0  0
   58.6620   29.8100   45.4890 C   0  0  0  0  0  0  0  0  0  0  0  0
   57.9930   30.8230   44.8780 N   0  0  0  0  0  0  0  0  0  0  0  0
   56.9460   30.5060   43.9700 C   0  0  0  0  0  0  0  0  0  0  0  0
   58.3570   32.0840   45.1820 C   0  0  0  0  0  0  0  0  0  0  0  0
   57.7250   33.1650   44.5870 C   0  0  0  0  0  0  0  0  0  0  0  0
   58.0840   34.4810   44.8740 C   0  0  0  0  0  0  0  0  0  0  0  0
   59.0950   34.7360   45.7720 C   0  0  0  0  0  0  0  0  0  0  0  0
   59.7420   33.6860   46.3790 C   0  0  0  0  0  0  0  0  0  0  0  0
   59.3660   32.3940   46.0750 C   0  0  0  0  0  0  0  0  0  0  0  0
   58.6050   28.3550   45.4290 C   0  0  0  0  0  0  0  0  0  0  0  0
   57.8260   27.4780   44.7060 C   0  0  0  0  0  0  0  0  0  0  0  0
   57.9700   26.0970   44.7990 C   0  0  0  0  0  0  0  0  0  0  0  0
   57.1980   25.2280   44.0740 C   0  0  0  0  0  0  0  0  0  0  0  0
   57.3870   23.8530   44.2000 C   0  0  0  0  0  0  0  0  0  0  0  0
   58.3470   23.3610   45.0520 C   0  0  0  0  0  0  0  0  0  0  0  0
   59.1350   24.2130   45.7920 C   0  0  0  0  0  0  0  0  0  0  0  0
   58.9190   25.5590   45.6400 C   0  0  0  0  0  0  0  0  0  0  0  0
   59.6880   26.4650   46.3560 C   0  0  0  0  0  0  0  0  0  0  0  0
   60.5620   25.9810   47.1320 O   0  0  0  0  0  0  0  0  0  0  0  0
   59.5240   27.8020   46.2420 N   0  0  0  0  0  0  0  0  0  0  0  0
   60.2540   28.8330   46.9350 C   0  0  0  0  0  0  0  0  0  0  0  0
   64.5615   32.7332   47.2191 H   0  0  0  0  0  0  0  0  0  0  0  0
   63.1161   32.6126   46.1593 H   0  0  0  0  0  0  0  0  0  0  0  0
   64.1073   34.1107   46.1593 H   0  0  0  0  0  0  0  0  0  0  0  0
   63.2717   34.8339   48.1955 H   0  0  0  0  0  0  0  0  0  0  0  0
   61.8335   33.9578   47.5017 H   0  0  0  0  0  0  0  0  0  0  0  0
   63.9068   31.6861   50.1466 H   0  0  0  0  0  0  0  0  0  0  0  0
   63.2603   31.0587   48.5926 H   0  0  0  0  0  0  0  0  0  0  0  0
   64.6432   32.2052   48.5926 H   0  0  0  0  0  0  0  0  0  0  0  0
   61.7441   32.5306   50.7280 H   0  0  0  0  0  0  0  0  0  0  0  0
   61.0919   33.9017   49.7519 H   0  0  0  0  0  0  0  0  0  0  0  0
   60.5682   31.0475   49.5842 H   0  0  0  0  0  0  0  0  0  0  0  0
   59.6846   32.4855   48.8827 H   0  0  0  0  0  0  0  0  0  0  0  0
   62.1080   31.5500   47.3890 H   0  0  0  0  0  0  0  0  0  0  0  0
   56.0420   30.2323   44.5338 H   0  0  0  0  0  0  0  0  0  0  0  0
   56.7327   31.3798   43.3368 H   0  0  0  0  0  0  0  0  0  0  0  0
   57.2532   29.6606   43.3368 H   0  0  0  0  0  0  0  0  0  0  0  0
   56.9153   32.9785   43.8662 H   0  0  0  0  0  0  0  0  0  0  0  0
   57.5599   35.3144   44.3834 H   0  0  0  0  0  0  0  0  0  0  0  0
   59.3833   35.7723   46.0024 H   0  0  0  0  0  0  0  0  0  0  0  0
   60.5513   33.8741   47.0998 H   0  0  0  0  0  0  0  0  0  0  0  0
   57.0606   27.8853   44.0291 H   0  0  0  0  0  0  0  0  0  0  0  0
   56.4277   25.6161   43.3913 H   0  0  0  0  0  0  0  0  0  0  0  0
   56.7655   23.1587   43.6154 H   0  0  0  0  0  0  0  0  0  0  0  0
   58.4871   22.2738   45.1434 H   0  0  0  0  0  0  0  0  0  0  0  0
   59.9060   23.8304   46.4769 H   0  0  0  0  0  0  0  0  0  0  0  0
   60.0948   28.7657   48.0213 H   0  0  0  0  0  0  0  0  0  0  0  0
   61.3419   28.7614   46.7890 H   0  0  0  0  0  0  0  0  0  0  0  0
  1  2  1  0
  2  3  1  0
  3  4  1  0
  3  5  1  0
  5  6  1  0
  6  7  1  0
  7  8  1  0
  8  9  2  0
  9 10  1  0
 10 11  2  0
 11 12  1  0
 11 13  1  0
 13 14  2  0
 14 15  1  0
 15 16  2  0
 16 17  1  0
 17 18  2  0
 10 19  1  0
 19 20  2  0
 20 21  1  0
 21 22  2  0
 22 23  1  0
 23 24  2  0
 24 25  1  0
 25 26  2  0
 26 27  1  0
 27 28  2  0
 27 29  1  0
 29 30  1  0
 18  8  1  0
 29 19  1  0
 30  9  1  0
 18 13  1  0
 26 21  1  0
  1 31  1  0
  1 32  1  0
  1 33  1  0
  2 34  1  0
  2 35  1  0
  4 36  1  0
  4 37  1  0
  4 38  1  0
  5 39  1  0
  5 40  1  0
  6 41  1  0
  6 42  1  0
  7 43  1  0
 12 44  1  0
 12 45  1  0
 12 46  1  0
 14 47  1  0
 15 48  1  0
 16 49  1  0
 17 50  1  0
 20 51  1  0
 22 52  1  0
 23 53  1  0
 24 54  1  0
 25 55  1  0
 30 56  1  0
 30 57  1  0
M  CHG  1  11   1
M  END
>  <smiles>  (13) 
CCN(C)CCNc1c2c([n+](C)c3ccccc13)-c1cc3ccccc3c(=O)n1C2

>  <score_type>  (13) 
oracle

>  <origin>  (13) 
adg

>  <m_score__min__energy>  (13) 
-6.9800000000000004

>  <m_primary>  (13) 
energy

$$$$
14:0
     RDKit          3D

 39 41  0  0  0  0  0  0  0  0999 V2000
   59.2690   35.2920   44.8780 C   0  0  0  0  0  0  0  0  0  0  0  0
   59.8550   35.2900   46.2570 C   0  0  0  0  0  0  0  0  0  0  0  0
   60.0990   33.9750   46.7990 N   0  0  0  0  0  0  0  0  0  0  0  0
   59.1590   33.0610   47.1980 C   0  0  0  0  0  0  0  0  0  0  0  0
   57.4220   33.3910   47.0960 S   0  0  0  0  0  0  0  0  0  0  0  0
   56.7890   33.4740   45.4210 C   0  0  0  0  0  0  0  0  0  0  0  0
   57.3760   32.4410   44.4880 C   0  0  0  0  0  0  0  0  0  0  0  0
   56.8740   31.1850   44.9060 O   0  0  0  0  0  0  0  0  0  0  0  0
   57.6250   30.0380   44.7420 C   0  0  0  0  0  0  0  0  0  0  0  0
   58.8590   30.0050   45.3910 C   0  0  0  0  0  0  0  0  0  0  0  0
   59.6870   28.8930   45.2880 C   0  0  0  0  0  0  0  0  0  0  0  0
   59.2770   27.8160   44.5340 C   0  0  0  0  0  0  0  0  0  0  0  0
   58.0430   27.8400   43.8800 C   0  0  0  0  0  0  0  0  0  0  0  0
   57.2320   28.9530   43.9940 C   0  0  0  0  0  0  0  0  0  0  0  0
   59.8030   31.9640   47.6400 N   0  0  0  0  0  0  0  0  0  0  0  0
   61.1460   32.1410   47.5390 C   0  0  0  0  0  0  0  0  0  0  0  0
   62.2470   31.3480   47.8480 C   0  0  0  0  0  0  0  0  0  0  0  0
   63.5280   31.8210   47.6270 C   0  0  0  0  0  0  0  0  0  0  0  0
   63.7110   33.0870   47.0980 C   0  0  0  0  0  0  0  0  0  0  0  0
   62.6010   33.8440   46.8050 C   0  0  0  0  0  0  0  0  0  0  0  0
   61.3080   33.4070   47.0110 C   0  0  0  0  0  0  0  0  0  0  0  0
   58.1711   35.2957   44.9461 H   0  0  0  0  0  0  0  0  0  0  0  0
   59.6059   36.1890   44.3377 H   0  0  0  0  0  0  0  0  0  0  0  0
   59.5998   34.3927   44.3377 H   0  0  0  0  0  0  0  0  0  0  0  0
   60.8117   35.8319   46.2251 H   0  0  0  0  0  0  0  0  0  0  0  0
   59.1133   35.7678   46.9140 H   0  0  0  0  0  0  0  0  0  0  0  0
   55.6992   33.3284   45.4559 H   0  0  0  0  0  0  0  0  0  0  0  0
   57.0734   34.4592   45.0228 H   0  0  0  0  0  0  0  0  0  0  0  0
   57.0682   32.6469   43.4522 H   0  0  0  0  0  0  0  0  0  0  0  0
   58.4754   32.4584   44.5189 H   0  0  0  0  0  0  0  0  0  0  0  0
   59.1808   30.8688   45.9913 H   0  0  0  0  0  0  0  0  0  0  0  0
   60.6588   28.8736   45.8030 H   0  0  0  0  0  0  0  0  0  0  0  0
   59.9252   26.9316   44.4463 H   0  0  0  0  0  0  0  0  0  0  0  0
   57.7188   26.9783   43.2780 H   0  0  0  0  0  0  0  0  0  0  0  0
   56.2597   28.9714   43.4799 H   0  0  0  0  0  0  0  0  0  0  0  0
   62.0983   30.3427   48.2690 H   0  0  0  0  0  0  0  0  0  0  0  0
   64.3979   31.1935   47.8707 H   0  0  0  0  0  0  0  0  0  0  0  0
   64.7225   33.4790   46.9159 H   0  0  0  0  0  0  0  0  0  0  0  0
   62.7512   34.8494   46.3849 H   0  0  0  0  0  0  0  0  0  0  0  0
  1  2  1  0
  2  3  1  0
  3  4  1  0
  4  5  1  0
  5  6  1  0
  6  7  1  0
  7  8  1  0
  8  9  1  0
  9 10  2  0
 10 11  1  0
 11 12  2  0
 12 13  1  0
 13 14  2  0
  4 15  2  0
 15 16  1  0
 16 17  2  0
 17 18  1  0
 18 19  2  0
 19 20  1  0
 20 21  2  0
 21  3  1  0
 14  9  1  0
 21 16  1  0
  1 22  1  0
  1 23  1  0
  1 24  1  0
  2 25  1  0
  2 26  1  0
  6 27  1  0
  6 28  1  0
  7 29  1  0
  7 30  1  0
 10 31  1  0
 11 32  1  0
 12 33  1  0
 13 34  1  0
 14 35  1  0
 17 36  1  0
 18 37  1  0
 19 38  1  0
 20 39  1  0
M  END
>  <smiles>  (14) 
CCn1c(SCCOc2ccccc2)nc2ccccc21

>  <score_type>  (14) 
oracle

>  <origin>  (14) 
adg

>  <m_score__min__energy>  (14) 
-6.9299999999999997

>  <m_primary>  (14) 
energy

$$$$
15:0
     RDKit          3D

 64 66  0  0  0  0  0  0  0  0999 V2000
   61.5190   30.3560   50.8790 C   0  0  0  0  0  0  0  0  0  0  0  0
   60.0370   30.3350   50.7150 C   0  0  0  0  0  0  0  0  0  0  0  0
   59.6000   30.9110   49.4600 N   0  0  0  0  0  0  0  0  0  0  0  0
   58.6410   31.9720   49.6420 C   0  0  0  0  0  0  0  0  0  0  0  0
   59.4060   33.2490   49.9190 C   0  0  0  0  0  0  0  0  0  0  0  0
   59.1240   29.8710   48.5840 C   0  0  0  0  0  0  0  0  0  0  0  0
   60.2020   29.0690   47.9160 C   0  0  0  0  0  0  0  0  0  0  0  0
   60.5670   29.7430   46.6830 N   0  0  0  0  0  0  0  0  0  0  0  0
   60.5100   31.1610   46.6520 C   0  0  0  0  0  0  0  0  0  0  0  0
   61.4870   31.9830   47.1500 C   0  0  0  0  0  0  0  0  0  0  0  0
   62.5930   31.3860   47.7110 C   0  0  0  0  0  0  0  0  0  0  0  0
   63.6010   32.1730   48.2200 C   0  0  0  0  0  0  0  0  0  0  0  0
   63.4370   33.5400   48.1350 C   0  0  0  0  0  0  0  0  0  0  0  0
   62.3270   34.1370   47.5730 C   0  0  0  0  0  0  0  0  0  0  0  0
   61.3200   33.3500   47.0630 C   0  0  0  0  0  0  0  0  0  0  0  0
   60.2480   33.9260   46.5150 N   0  0  0  0  0  0  0  0  0  0  0  0
   60.0240   35.3440   46.4080 C   0  0  0  0  0  0  0  0  0  0  0  0
   59.2730   33.1180   46.0160 C   0  0  0  0  0  0  0  0  0  0  0  0
   58.1500   33.6590   45.4330 C   0  0  0  0  0  0  0  0  0  0  0  0
   57.1560   32.8260   44.9170 C   0  0  0  0  0  0  0  0  0  0  0  0
   57.2340   31.4590   44.9590 C   0  0  0  0  0  0  0  0  0  0  0  0
   56.3430   30.5620   44.4980 O   0  0  0  0  0  0  0  0  0  0  0  0
   56.2830   29.6980   43.4420 C   0  0  0  0  0  0  0  0  0  0  0  0
   57.3590   28.6580   43.3710 C   0  0  0  0  0  0  0  0  0  0  0  0
   57.8760   28.3200   44.6840 N   0  0  0  0  0  0  0  0  0  0  0  0
   59.2210   27.8200   44.5030 C   0  0  0  0  0  0  0  0  0  0  0  0
   57.0870   27.3580   45.3930 C   0  0  0  0  0  0  0  0  0  0  0  0
   58.3980   30.9440   45.5630 C   0  0  0  0  0  0  0  0  0  0  0  0
   59.3780   31.7440   46.0710 C   0  0  0  0  0  0  0  0  0  0  0  0
   61.7694   30.3595   51.9501 H   0  0  0  0  0  0  0  0  0  0  0  0
   61.9532   29.4639   50.4039 H   0  0  0  0  0  0  0  0  0  0  0  0
   61.9277   31.2600   50.4039 H   0  0  0  0  0  0  0  0  0  0  0  0
   59.6937   29.2909   50.7603 H   0  0  0  0  0  0  0  0  0  0  0  0
   59.6069   30.9431   51.5245 H   0  0  0  0  0  0  0  0  0  0  0  0
   58.0359   32.0891   48.7309 H   0  0  0  0  0  0  0  0  0  0  0  0
   57.9673   31.7397   50.4800 H   0  0  0  0  0  0  0  0  0  0  0  0
   59.4937   33.3955   51.0057 H   0  0  0  0  0  0  0  0  0  0  0  0
   60.4105   33.1781   49.4763 H   0  0  0  0  0  0  0  0  0  0  0  0
   58.8695   34.1012   49.4763 H   0  0  0  0  0  0  0  0  0  0  0  0
   58.5024   29.1829   49.1758 H   0  0  0  0  0  0  0  0  0  0  0  0
   58.5684   30.3742   47.7790 H   0  0  0  0  0  0  0  0  0  0  0  0
   61.0788   28.9996   48.5767 H   0  0  0  0  0  0  0  0  0  0  0  0
   59.8430   28.0514   47.7023 H   0  0  0  0  0  0  0  0  0  0  0  0
   60.8710   29.2360   45.8170 H   0  0  0  0  0  0  0  0  0  0  0  0
   62.6707   30.2895   47.7522 H   0  0  0  0  0  0  0  0  0  0  0  0
   64.4993   31.7306   48.6753 H   0  0  0  0  0  0  0  0  0  0  0  0
   64.2313   34.1870   48.5355 H   0  0  0  0  0  0  0  0  0  0  0  0
   62.2478   35.2334   47.5330 H   0  0  0  0  0  0  0  0  0  0  0  0
   59.9549   35.7813   47.4150 H   0  0  0  0  0  0  0  0  0  0  0  0
   60.8601   35.8073   45.8636 H   0  0  0  0  0  0  0  0  0  0  0  0
   59.0858   35.5270   45.8636 H   0  0  0  0  0  0  0  0  0  0  0  0
   58.0353   34.7514   45.3734 H   0  0  0  0  0  0  0  0  0  0  0  0
   56.2704   33.2878   44.4560 H   0  0  0  0  0  0  0  0  0  0  0  0
   55.3158   29.1763   43.4909 H   0  0  0  0  0  0  0  0  0  0  0  0
   56.4192   30.3214   42.5460 H   0  0  0  0  0  0  0  0  0  0  0  0
   56.9453   27.7501   42.9077 H   0  0  0  0  0  0  0  0  0  0  0  0
   58.1878   29.0669   42.7745 H   0  0  0  0  0  0  0  0  0  0  0  0
   59.6836   27.6480   45.4860 H   0  0  0  0  0  0  0  0  0  0  0  0
   59.1882   26.8740   43.9426 H   0  0  0  0  0  0  0  0  0  0  0  0
   59.8141   28.5577   43.9426 H   0  0  0  0  0  0  0  0  0  0  0  0
   57.2106   27.5087   46.4756 H   0  0  0  0  0  0  0  0  0  0  0  0
   56.0277   27.4827   45.1240 H   0  0  0  0  0  0  0  0  0  0  0  0
   57.4166   26.3436   45.1240 H   0  0  0  0  0  0  0  0  0  0  0  0
   58.5210   29.8528   45.6272 H   0  0  0  0  0  0  0  0  0  0  0  0
  1  2  1  0
  2  3  1  0
  3  4  1  0
  4  5  1  0
  3  6  1  0
  6  7  1  0
  7  8  1  0
  8  9  1  0
  9 10  2  0
 10 11  1  0
 11 12  2  0
 12 13  1  0
 13 14  2  0
 14 15  1  0
 15 16  2  0
 16 17  1  0
 16 18  1  0
 18 19  2  0
 19 20  1  0
 20 21  2  0
 21 22  1  0
 22 23  1  0
 23 24  1  0
 24 25  1  0
 25 26  1  0
 25 27  1  0
 21 28  1  0
 28 29  2  0
 29  9  1  0
 15 10  1  0
 29 18  1  0
  1 30  1  0
  1 31  1  0
  1 32  1  0
  2 33  1  0
  2 34  1  0
  4 35  1  0
  4 36  1  0
  5 37  1  0
  5 38  1  0
  5 39  1  0
  6 40  1  0
  6 41  1  0
  7 42  1  0
  7 43  1  0
  8 44  1  0
 11 45  1  0
 12 46  1  0
 13 47  1  0
 14 48  1  0
 17 49  1  0
 17 50  1  0
 17 51  1  0
 19 52  1  0
 20 53  1  0
 23 54  1  0
 23 55  1  0
 24 56  1  0
 24 57  1  0
 26 58  1  0
 26 59  1  0
 26 60  1  0
 27 61  1  0
 27 62  1  0
 27 63  1  0
 28 64  1  0
M  CHG  1  16   1
M  END
>  <smiles>  (15) 
CCN(CC)CCNc1c2ccccc2[n+](C)c2ccc(OCCN(C)C)cc12

>  <score_type>  (15) 
oracle

>  <origin>  (15) 
adg

>  <m_score__min__energy>  (15) 
-6.0999999999999996

>  <m_primary>  (15) 
energy

$$$$
16:0
     RDKit          3D

 58 60  0  0  1  0  0  0  0  0999 V2000
   57.8010   21.4850   43.4840 C   0  0  0  0  0  0  0  0  0  0  0  0
   56.5680   21.5170   44.3380 C   0  0  0  0  0  0  0  0  0  0  0  0
   55.5860   22.3590   43.8350 O   0  0  0  0  0  0  0  0  0  0  0  0
   54.8680   23.0080   44.8080 C   0  0  0  0  0  0  0  0  0  0  0  0
   55.4950   24.3130   45.1530 C   0  0  0  0  0  0  0  0  0  0  0  0
   54.8980   25.0170   45.9980 O   0  0  0  0  0  0  0  0  0  0  0  0
   56.7020   24.7070   44.5390 N   0  0  0  0  0  0  0  0  0  0  0  0
   57.4050   25.9060   44.7660 C   0  0  0  0  0  0  0  0  0  0  0  0
   58.0120   26.5060   43.6760 C   0  0  0  0  0  0  0  0  0  0  0  0
   58.7170   27.6760   43.8110 C   0  0  0  0  0  0  0  0  0  0  0  0
   58.8660   28.3280   45.0360 C   0  0  0  0  0  0  0  0  0  0  0  0
   59.6260   29.5660   45.1130 C   0  0  0  0  0  0  0  0  0  0  0  0
   60.7500   29.7040   45.7920 C   0  0  0  0  0  0  0  0  0  0  0  0
   60.7040   29.9020   47.2350 C   0  0  0  0  0  0  0  0  0  0  0  0
   60.2220   29.0070   47.9640 O   0  0  0  0  0  0  0  0  0  0  0  0
   61.1980   31.1070   47.8750 C   0  0  0  0  0  0  0  0  0  0  0  0
   62.2550   31.1340   48.7550 C   0  0  0  0  0  0  0  0  0  0  0  0
   62.7220   32.2800   49.3600 C   0  0  0  0  0  0  0  0  0  0  0  0
   62.0990   33.4880   49.0770 C   0  0  0  0  0  0  0  0  0  0  0  0
   62.5270   34.6730   49.6570 O   0  0  0  0  0  0  0  0  0  0  0  0
   63.3780   34.6080   50.7780 C   0  0  0  0  0  0  0  0  0  0  0  0
   61.0410   33.4570   48.1940 C   0  0  0  0  0  0  0  0  0  0  0  0
   60.5820   32.3050   47.5940 C   0  0  0  0  0  0  0  0  0  0  0  0
   59.5240   32.3630   46.7300 O   0  0  0  0  0  0  0  0  0  0  0  0
   58.8310   33.5410   46.3800 C   0  0  0  0  0  0  0  0  0  0  0  0
   59.0350   33.7190   44.8710 C   0  0  0  0  0  0  0  0  0  0  0  0
   57.3610   33.4570   46.7140 C   0  0  0  0  0  0  0  0  0  0  0  0
   59.3730   34.7300   47.0580 C   0  0  0  0  0  0  0  0  0  0  0  0
   60.3890   34.7230   47.8970 C   0  0  0  0  0  0  0  0  0  0  0  0
   58.2620   27.7240   46.1110 C   0  0  0  0  0  0  0  0  0  0  0  0
   57.5490   26.5420   45.9730 C   0  0  0  0  0  0  0  0  0  0  0  0
   58.6925   21.4619   44.1279 H   0  0  0  0  0  0  0  0  0  0  0  0
   57.7840   20.5870   42.8489 H   0  0  0  0  0  0  0  0  0  0  0  0
   57.8306   22.3827   42.8489 H   0  0  0  0  0  0  0  0  0  0  0  0
   56.1583   20.4981   44.4017 H   0  0  0  0  0  0  0  0  0  0  0  0
   56.8599   21.9025   45.3260 H   0  0  0  0  0  0  0  0  0  0  0  0
   53.8458   23.1856   44.4425 H   0  0  0  0  0  0  0  0  0  0  0  0
   54.8511   22.3782   45.7097 H   0  0  0  0  0  0  0  0  0  0  0  0
   57.1010   24.0110   43.8380 H   0  0  0  0  0  0  0  0  0  0  0  0
   57.9279   26.0370   42.6845 H   0  0  0  0  0  0  0  0  0  0  0  0
   59.1833   28.1175   42.9178 H   0  0  0  0  0  0  0  0  0  0  0  0
   59.2400   30.4423   44.5715 H   0  0  0  0  0  0  0  0  0  0  0  0
   61.7178   29.6696   45.2702 H   0  0  0  0  0  0  0  0  0  0  0  0
   62.7572   30.1838   48.9895 H   0  0  0  0  0  0  0  0  0  0  0  0
   63.5735   32.2388   50.0551 H   0  0  0  0  0  0  0  0  0  0  0  0
   62.7767   34.6539   51.6980 H   0  0  0  0  0  0  0  0  0  0  0  0
   63.9424   33.6641   50.7556 H   0  0  0  0  0  0  0  0  0  0  0  0
   64.0792   35.4552   50.7556 H   0  0  0  0  0  0  0  0  0  0  0  0
   59.8529   34.4327   44.6932 H   0  0  0  0  0  0  0  0  0  0  0  0
   59.2897   32.7493   44.4185 H   0  0  0  0  0  0  0  0  0  0  0  0
   58.1087   34.1027   44.4185 H   0  0  0  0  0  0  0  0  0  0  0  0
   57.2331   33.4497   47.8065 H   0  0  0  0  0  0  0  0  0  0  0  0
   56.8382   34.3267   46.2894 H   0  0  0  0  0  0  0  0  0  0  0  0
   56.9407   32.5334   46.2894 H   0  0  0  0  0  0  0  0  0  0  0  0
   58.8935   35.6975   46.8483 H   0  0  0  0  0  0  0  0  0  0  0  0
   60.7373   35.6562   48.3637 H   0  0  0  0  0  0  0  0  0  0  0  0
   58.3454   28.1882   47.1048 H   0  0  0  0  0  0  0  0  0  0  0  0
   57.0817   26.0982   46.8645 H   0  0  0  0  0  0  0  0  0  0  0  0
  1  2  1  0
  2  3  1  0
  3  4  1  0
  4  5  1  0
  5  6  2  0
  5  7  1  0
  7  8  1  0
  8  9  2  0
  9 10  1  0
 10 11  2  0
 11 12  1  0
 12 13  2  0
 13 14  1  0
 14 15  2  0
 14 16  1  0
 16 17  2  0
 17 18  1  0
 18 19  2  0
 19 20  1  0
 20 21  1  0
 19 22  1  0
 22 23  2  0
 23 24  1  0
 24 25  1  0
 25 26  1  0
 25 27  1  0
 25 28  1  0
 28 29  2  0
 11 30  1  0
 30 31  2  0
 31  8  1  0
 23 16  1  0
 29 22  1  0
  1 32  1  0
  1 33  1  0
  1 34  1  0
  2 35  1  0
  2 36  1  0
  4 37  1  0
  4 38  1  0
  7 39  1  0
  9 40  1  0
 10 41  1  0
 12 42  1  0
 13 43  1  0
 17 44  1  0
 18 45  1  0
 21 46  1  0
 21 47  1  0
 21 48  1  0
 26 49  1  0
 26 50  1  0
 26 51  1  0
 27 52  1  0
 27 53  1  0
 27 54  1  0
 28 55  1  0
 29 56  1  0
 30 57  1  0
 31 58  1  0
M  END
>  <smiles>  (16) 
CCOCC(=O)Nc1ccc(C=CC(=O)c2ccc(OC)c3c2OC(C)(C)C=C3)cc1

>  <score_type>  (16) 
oracle

>  <origin>  (16) 
adg

>  <m_score__min__energy>  (16) 
-8.9499999999999993

>  <m_primary>  (16) 
energy

$$$$
17:0
     RDKit          3D

 46 48  0  0  0  0  0  0  0  0999 V2000
   54.0820   24.8910   45.6180 C   0  0  0  0  0  0  0  0  0  0  0  0
   54.8560   25.9960   45.8480 O   0  0  0  0  0  0  0  0  0  0  0  0
   56.1280   25.7510   46.2760 C   0  0  0  0  0  0  0  0  0  0  0  0
   57.2160   25.7670   45.2620 C   0  0  0  0  0  0  0  0  0  0  0  0
   58.1970   26.8120   45.4360 N   0  0  0  0  0  0  0  0  0  0  0  0
   59.4470   26.8140   45.8850 C   0  0  0  0  0  0  0  0  0  0  0  0
   60.2230   25.6600   46.3800 C   0  0  0  0  0  0  0  0  0  0  0  0
   59.9810   28.1090   45.8460 C   0  0  0  0  0  0  0  0  0  0  0  0
   58.9860   28.9180   45.3460 C   0  0  0  0  0  0  0  0  0  0  0  0
   58.9790   30.2750   45.1040 C   0  0  0  0  0  0  0  0  0  0  0  0
   57.8250   30.8580   44.5870 C   0  0  0  0  0  0  0  0  0  0  0  0
   57.8780   32.2940   44.3600 C   0  0  0  0  0  0  0  0  0  0  0  0
   57.5400   32.7250   43.2210 O   0  0  0  0  0  0  0  0  0  0  0  0
   58.2820   33.2460   45.3220 N   0  0  0  0  0  0  0  0  0  0  0  0
   58.2730   34.6470   44.9110 C   0  0  0  0  0  0  0  0  0  0  0  0
   59.6350   35.1820   45.3370 C   0  0  0  0  0  0  0  0  0  0  0  0
   59.6030   35.3000   46.8430 C   0  0  0  0  0  0  0  0  0  0  0  0
   58.9070   34.1610   47.5140 C   0  0  0  0  0  0  0  0  0  0  0  0
   58.6960   32.9540   46.6620 C   0  0  0  0  0  0  0  0  0  0  0  0
   56.7220   30.0780   44.3290 C   0  0  0  0  0  0  0  0  0  0  0  0
   56.7700   28.7200   44.5860 C   0  0  0  0  0  0  0  0  0  0  0  0
   57.9080   28.1020   45.1040 C   0  0  0  0  0  0  0  0  0  0  0  0
   53.7746   24.4522   46.5787 H   0  0  0  0  0  0  0  0  0  0  0  0
   53.1890   25.1816   45.0452 H   0  0  0  0  0  0  0  0  0  0  0  0
   54.6603   24.1511   45.0452 H   0  0  0  0  0  0  0  0  0  0  0  0
   56.3723   26.5123   47.0314 H   0  0  0  0  0  0  0  0  0  0  0  0
   56.1030   24.7130   46.6391 H   0  0  0  0  0  0  0  0  0  0  0  0
   57.7370   24.7992   45.3053 H   0  0  0  0  0  0  0  0  0  0  0  0
   56.7309   25.9589   44.2936 H   0  0  0  0  0  0  0  0  0  0  0  0
   60.2217   25.6619   47.4800 H   0  0  0  0  0  0  0  0  0  0  0  0
   59.7675   24.7279   46.0144 H   0  0  0  0  0  0  0  0  0  0  0  0
   61.2581   25.7302   46.0144 H   0  0  0  0  0  0  0  0  0  0  0  0
   60.9914   28.4169   46.1530 H   0  0  0  0  0  0  0  0  0  0  0  0
   59.8688   30.8862   45.3154 H   0  0  0  0  0  0  0  0  0  0  0  0
   58.1463   34.7312   43.8216 H   0  0  0  0  0  0  0  0  0  0  0  0
   57.4436   35.2093   45.3649 H   0  0  0  0  0  0  0  0  0  0  0  0
   60.4292   34.4864   45.0280 H   0  0  0  0  0  0  0  0  0  0  0  0
   59.8423   36.1552   44.8680 H   0  0  0  0  0  0  0  0  0  0  0  0
   60.6387   35.3412   47.2114 H   0  0  0  0  0  0  0  0  0  0  0  0
   59.0384   36.2126   47.0847 H   0  0  0  0  0  0  0  0  0  0  0  0
   59.5074   33.8614   48.3857 H   0  0  0  0  0  0  0  0  0  0  0  0
   57.9039   34.5284   47.7763 H   0  0  0  0  0  0  0  0  0  0  0  0
   59.6418   32.3942   46.6166 H   0  0  0  0  0  0  0  0  0  0  0  0
   57.8817   32.3781   47.1259 H   0  0  0  0  0  0  0  0  0  0  0  0
   55.8069   30.5317   43.9206 H   0  0  0  0  0  0  0  0  0  0  0  0
   55.8814   28.1070   44.3749 H   0  0  0  0  0  0  0  0  0  0  0  0
  1  2  1  0
  2  3  1  0
  3  4  1  0
  4  5  1  0
  5  6  1  0
  6  7  1  0
  6  8  2  0
  8  9  1  0
  9 10  2  0
 10 11  1  0
 11 12  1  0
 12 13  2  0
 12 14  1  0
 14 15  1  0
 15 16  1  0
 16 17  1  0
 17 18  1  0
 18 19  1  0
 11 20  2  0
 20 21  1  0
 21 22  2  0
 22  5  1  0
 22  9  1  0
 19 14  1  0
  1 23  1  0
  1 24  1  0
  1 25  1  0
  3 26  1  0
  3 27  1  0
  4 28  1  0
  4 29  1  0
  7 30  1  0
  7 31  1  0
  7 32  1  0
  8 33  1  0
 10 34  1  0
 15 35  1  0
 15 36  1  0
 16 37  1  0
 16 38  1  0
 17 39  1  0
 17 40  1  0
 18 41  1  0
 18 42  1  0
 19 43  1  0
 19 44  1  0
 20 45  1  0
 21 46  1  0
M  END
>  <smiles>  (17) 
COCCn1c(C)cc2cc(C(=O)N3CCCCC3)ccc21

>  <score_type>  (17) 
oracle

>  <origin>  (17) 
adg

>  <m_score__min__energy>  (17) 
-7.8499999999999996

>  <m_primary>  (17) 
energy

$$$$
18:0
     RDKit          3D

 57 59  0  0  0  0  0  0  0  0999 V2000
   63.3030   33.8510   46.7080 C   0  0  0  0  0  0  0  0  0  0  0  0
   63.1210   32.4630   47.1900 C   0  0  0  0  0  0  0  0  0  0  0  0
   63.6870   32.0340   48.3130 O   0  0  0  0  0  0  0  0  0  0  0  0
   63.5020   32.5300   49.5370 C   0  0  0  0  0  0  0  0  0  0  0  0
   62.9840   31.5220   50.5230 C   0  0  0  0  0  0  0  0  0  0  0  0
   62.3420   30.4960   49.9030 O   0  0  0  0  0  0  0  0  0  0  0  0
   61.2160   30.2760   49.2210 C   0  0  0  0  0  0  0  0  0  0  0  0
   60.7530   29.0950   48.6930 C   0  0  0  0  0  0  0  0  0  0  0  0
   59.5520   28.9920   47.9970 C   0  0  0  0  0  0  0  0  0  0  0  0
   59.1440   27.7660   47.4900 O   0  0  0  0  0  0  0  0  0  0  0  0
   59.2510   27.5040   46.1320 C   0  0  0  0  0  0  0  0  0  0  0  0
   59.7530   28.6000   45.2650 C   0  0  0  0  0  0  0  0  0  0  0  0
   58.9050   29.0300   44.1980 N   0  0  0  0  0  0  0  0  0  0  0  0
   58.6060   30.4510   44.4940 C   0  0  0  0  0  0  0  0  0  0  0  0
   57.2640   30.8570   43.9190 C   0  0  0  0  0  0  0  0  0  0  0  0
   56.2650   30.2950   44.7520 O   0  0  0  0  0  0  0  0  0  0  0  0
   56.6890   29.0520   45.2210 C   0  0  0  0  0  0  0  0  0  0  0  0
   57.5960   28.4020   44.1810 C   0  0  0  0  0  0  0  0  0  0  0  0
   58.7760   30.1170   47.8180 C   0  0  0  0  0  0  0  0  0  0  0  0
   59.2010   31.3030   48.3250 C   0  0  0  0  0  0  0  0  0  0  0  0
   58.4400   32.4380   48.1580 O   0  0  0  0  0  0  0  0  0  0  0  0
   58.5480   33.3040   47.0860 C   0  0  0  0  0  0  0  0  0  0  0  0
   57.4810   33.3040   46.1870 C   0  0  0  0  0  0  0  0  0  0  0  0
   57.4740   34.1300   45.0720 C   0  0  0  0  0  0  0  0  0  0  0  0
   58.5810   34.9520   44.9000 C   0  0  0  0  0  0  0  0  0  0  0  0
   59.6430   34.9500   45.7950 C   0  0  0  0  0  0  0  0  0  0  0  0
   59.6500   34.1310   46.9010 C   0  0  0  0  0  0  0  0  0  0  0  0
   60.3730   31.3860   49.0010 C   0  0  0  0  0  0  0  0  0  0  0  0
   63.3920   34.5295   47.5692 H   0  0  0  0  0  0  0  0  0  0  0  0
   64.2166   33.9106   46.0983 H   0  0  0  0  0  0  0  0  0  0  0  0
   62.4356   34.1441   46.0983 H   0  0  0  0  0  0  0  0  0  0  0  0
   62.0377   32.3184   47.3147 H   0  0  0  0  0  0  0  0  0  0  0  0
   63.6492   31.8776   46.4230 H   0  0  0  0  0  0  0  0  0  0  0  0
   64.4646   32.9140   49.9056 H   0  0  0  0  0  0  0  0  0  0  0  0
   62.7407   33.3196   49.4532 H   0  0  0  0  0  0  0  0  0  0  0  0
   63.8305   31.1177   51.0975 H   0  0  0  0  0  0  0  0  0  0  0  0
   62.2645   32.0273   51.1840 H   0  0  0  0  0  0  0  0  0  0  0  0
   61.3604   28.1877   48.8267 H   0  0  0  0  0  0  0  0  0  0  0  0
   59.9334   26.6495   46.0130 H   0  0  0  0  0  0  0  0  0  0  0  0
   58.2185   27.3281   45.7959 H   0  0  0  0  0  0  0  0  0  0  0  0
   59.9417   29.4714   45.9093 H   0  0  0  0  0  0  0  0  0  0  0  0
   60.6429   28.1843   44.7697 H   0  0  0  0  0  0  0  0  0  0  0  0
   58.5881   30.5948   45.5844 H   0  0  0  0  0  0  0  0  0  0  0  0
   59.3864   31.0754   44.0346 H   0  0  0  0  0  0  0  0  0  0  0  0
   57.1740   31.9533   43.9093 H   0  0  0  0  0  0  0  0  0  0  0  0
   57.1574   30.4986   42.8845 H   0  0  0  0  0  0  0  0  0  0  0  0
   57.2443   29.1842   46.1613 H   0  0  0  0  0  0  0  0  0  0  0  0
   55.8149   28.4087   45.4005 H   0  0  0  0  0  0  0  0  0  0  0  0
   57.7031   27.3314   44.4100 H   0  0  0  0  0  0  0  0  0  0  0  0
   57.1489   28.5287   43.1840 H   0  0  0  0  0  0  0  0  0  0  0  0
   57.8237   30.0549   47.2709 H   0  0  0  0  0  0  0  0  0  0  0  0
   56.6267   32.6346   46.3660 H   0  0  0  0  0  0  0  0  0  0  0  0
   56.6350   34.1338   44.3606 H   0  0  0  0  0  0  0  0  0  0  0  0
   58.6173   35.6238   44.0297 H   0  0  0  0  0  0  0  0  0  0  0  0
   60.4981   35.6183   45.6158 H   0  0  0  0  0  0  0  0  0  0  0  0
   60.4921   34.1308   47.6088 H   0  0  0  0  0  0  0  0  0  0  0  0
   60.6815   32.3649   49.3968 H   0  0  0  0  0  0  0  0  0  0  0  0
  1  2  1  0
  2  3  1  0
  3  4  1  0
  4  5  1  0
  5  6  1  0
  6  7  1  0
  7  8  2  0
  8  9  1  0
  9 10  1  0
 10 11  1  0
 11 12  1  0
 12 13  1  0
 13 14  1  0
 14 15  1  0
 15 16  1  0
 16 17  1  0
 17 18  1  0
  9 19  2  0
 19 20  1  0
 20 21  1  0
 21 22  1  0
 22 23  2  0
 23 24  1  0
 24 25  2  0
 25 26  1  0
 26 27  2  0
 20 28  2  0
 28  7  1  0
 18 13  1  0
 27 22  1  0
  1 29  1  0
  1 30  1  0
  1 31  1  0
  2 32  1  0
  2 33  1  0
  4 34  1  0
  4 35  1  0
  5 36  1  0
  5 37  1  0
  8 38  1  0
 11 39  1  0
 11 40  1  0
 12 41  1  0
 12 42  1  0
 14 43  1  0
 14 44  1  0
 15 45  1  0
 15 46  1  0
 17 47  1  0
 17 48  1  0
 18 49  1  0
 18 50  1  0
 19 51  1  0
 23 52  1  0
 24 53  1  0
 25 54  1  0
 26 55  1  0
 27 56  1  0
 28 57  1  0
M  END
>  <smiles>  (18) 
CCOCCOc1cc(OCCN2CCOCC2)cc(Oc2ccccc2)c1

>  <score_type>  (18) 
oracle

>  <origin>  (18) 
adg

>  <m_score__min__energy>  (18) 
-7.0899999999999999

>  <m_primary>  (18) 
energy

$$$$
19:0
     RDKit          3D

 43 44  0  0  0  0  0  0  0  0999 V2000
   56.6610   22.3980   43.2390 C   0  0  0  0  0  0  0  0  0  0  0  0
   56.2340   23.8210   43.4780 C   0  0  0  0  0  0  0  0  0  0  0  0
   55.3670   24.0250   44.6780 C   0  0  0  0  0  0  0  0  0  0  0  0
   57.4060   24.7510   43.3730 C   0  0  0  0  0  0  0  0  0  0  0  0
   57.3980   25.9040   44.1510 N   0  0  0  0  0  0  0  0  0  0  0  0
   57.8710   25.9110   45.4680 C   0  0  0  0  0  0  0  0  0  0  0  0
   57.7570   27.3320   46.0050 C   0  0  0  0  0  0  0  0  0  0  0  0
   56.7890   28.1130   45.2600 N   0  0  0  0  0  0  0  0  0  0  0  0
   57.6920   28.9140   44.0030 S   0  0  0  0  0  0  0  0  0  0  0  0
   56.8520   28.8380   42.7550 O   0  0  0  0  0  0  0  0  0  0  0  0
   58.9510   28.1610   43.7890 O   0  0  0  0  0  0  0  0  0  0  0  0
   58.0240   30.5780   44.4660 C   0  0  0  0  0  0  0  0  0  0  0  0
   57.8660   31.5290   43.4590 C   0  0  0  0  0  0  0  0  0  0  0  0
   58.1110   32.8720   43.7410 C   0  0  0  0  0  0  0  0  0  0  0  0
   58.5070   33.2190   45.0260 C   0  0  0  0  0  0  0  0  0  0  0  0
   58.7370   34.5740   45.2450 C   0  0  0  0  0  0  0  0  0  0  0  0
   59.1300   34.9600   46.5000 C   0  0  0  0  0  0  0  0  0  0  0  0
   59.2960   34.0360   47.5250 C   0  0  0  0  0  0  0  0  0  0  0  0
   59.0560   32.7000   47.2620 C   0  0  0  0  0  0  0  0  0  0  0  0
   58.6600   32.2710   46.0140 C   0  0  0  0  0  0  0  0  0  0  0  0
   58.4170   30.9310   45.7340 C   0  0  0  0  0  0  0  0  0  0  0  0
   56.8124   21.8935   44.2047 H   0  0  0  0  0  0  0  0  0  0  0  0
   55.8811   21.8720   42.6688 H   0  0  0  0  0  0  0  0  0  0  0  0
   57.6016   22.3883   42.6688 H   0  0  0  0  0  0  0  0  0  0  0  0
   55.5456   24.0894   42.6631 H   0  0  0  0  0  0  0  0  0  0  0  0
   55.9649   23.8843   45.5905 H   0  0  0  0  0  0  0  0  0  0  0  0
   54.9547   25.0447   44.6634 H   0  0  0  0  0  0  0  0  0  0  0  0
   54.5432   23.2962   44.6634 H   0  0  0  0  0  0  0  0  0  0  0  0
   58.3038   24.1777   43.6475 H   0  0  0  0  0  0  0  0  0  0  0  0
   57.3718   25.1191   42.3370 H   0  0  0  0  0  0  0  0  0  0  0  0
   57.2380   26.8110   43.6910 H   0  0  0  0  0  0  0  0  0  0  0  0
   57.2664   25.2298   46.0848 H   0  0  0  0  0  0  0  0  0  0  0  0
   58.9181   25.5753   45.4983 H   0  0  0  0  0  0  0  0  0  0  0  0
   57.4454   27.2904   47.0591 H   0  0  0  0  0  0  0  0  0  0  0  0
   58.7392   27.8163   45.9019 H   0  0  0  0  0  0  0  0  0  0  0  0
   56.0870   27.4670   44.8350 H   0  0  0  0  0  0  0  0  0  0  0  0
   57.5508   31.2223   42.4507 H   0  0  0  0  0  0  0  0  0  0  0  0
   57.9932   33.6402   42.9626 H   0  0  0  0  0  0  0  0  0  0  0  0
   58.6077   35.3103   44.4381 H   0  0  0  0  0  0  0  0  0  0  0  0
   59.3183   36.0250   46.7006 H   0  0  0  0  0  0  0  0  0  0  0  0
   59.6125   34.3616   48.5269 H   0  0  0  0  0  0  0  0  0  0  0  0
   59.1842   31.9624   48.0679 H   0  0  0  0  0  0  0  0  0  0  0  0
   58.5375   30.1660   46.5152 H   0  0  0  0  0  0  0  0  0  0  0  0
  1  2  1  0
  2  3  1  0
  2  4  1  0
  4  5  1  0
  5  6  1  0
  6  7  1  0
  7  8  1  0
  8  9  1  0
  9 10  2  0
  9 11  2  0
  9 12  1  0
 12 13  2  0
 13 14  1  0
 14 15  2  0
 15 16  1  0
 16 17  2  0
 17 18  1  0
 18 19  2  0
 19 20  1  0
 20 21  2  0
 21 12  1  0
 20 15  1  0
  1 22  1  0
  1 23  1  0
  1 24  1  0
  2 25  1  0
  3 26  1  0
  3 27  1  0
  3 28  1  0
  4 29  1  0
  4 30  1  0
  5 31  1  0
  6 32  1  0
  6 33  1  0
  7 34  1  0
  7 35  1  0
  8 36  1  0
 13 37  1  0
 14 38  1  0
 16 39  1  0
 17 40  1  0
 18 41  1  0
 19 42  1  0
 21 43  1  0
M  END
>  <smiles>  (19) 
CC(C)CNCCNS(=O)(=O)c1ccc2ccccc2c1

>  <score_type>  (19) 
oracle

>  <origin>  (19) 
adg

>  <m_score__min__energy>  (19) 
-8.4499999999999993

>  <m_primary>  (19) 
energy

$$$$
20:0
     RDKit          3D

 50 52  0  0  0  0  0  0  0  0999 V2000
   58.5840   31.7810   49.4750 C   0  0  0  0  0  0  0  0  0  0  0  0
   59.7220   30.9770   50.1010 C   0  0  0  0  0  0  0  0  0  0  0  0
   59.5330   29.5670   49.8720 N   0  0  0  0  0  0  0  0  0  0  0  0
   60.8280   28.9200   49.9960 C   0  0  0  0  0  0  0  0  0  0  0  0
   58.9110   29.2780   48.6010 C   0  0  0  0  0  0  0  0  0  0  0  0
   59.8760   28.6720   47.6540 C   0  0  0  0  0  0  0  0  0  0  0  0
   60.4080   29.5110   46.6320 N   0  0  0  0  0  0  0  0  0  0  0  0
   60.3450   30.9310   46.6050 C   0  0  0  0  0  0  0  0  0  0  0  0
   61.3300   31.7540   47.1050 C   0  0  0  0  0  0  0  0  0  0  0  0
   62.4440   31.2190   47.7130 C   0  0  0  0  0  0  0  0  0  0  0  0
   63.4600   31.9800   48.2480 C   0  0  0  0  0  0  0  0  0  0  0  0
   63.3640   33.3330   48.1750 C   0  0  0  0  0  0  0  0  0  0  0  0
   62.2490   33.9010   47.5650 C   0  0  0  0  0  0  0  0  0  0  0  0
   61.2280   33.1500   47.0280 C   0  0  0  0  0  0  0  0  0  0  0  0
   60.1550   33.7470   46.4580 N   0  0  0  0  0  0  0  0  0  0  0  0
   60.0260   35.1850   46.3450 C   0  0  0  0  0  0  0  0  0  0  0  0
   59.1850   32.9320   45.9690 C   0  0  0  0  0  0  0  0  0  0  0  0
   58.0510   33.4720   45.3800 C   0  0  0  0  0  0  0  0  0  0  0  0
   57.0500   32.6520   44.8820 C   0  0  0  0  0  0  0  0  0  0  0  0
   57.1310   31.2780   44.9450 C   0  0  0  0  0  0  0  0  0  0  0  0
   56.1420   30.4350   44.4500 O   0  0  0  0  0  0  0  0  0  0  0  0
   56.2590   29.7500   43.2290 C   0  0  0  0  0  0  0  0  0  0  0  0
   58.2630   30.7380   45.5340 C   0  0  0  0  0  0  0  0  0  0  0  0
   59.2530   31.5640   46.0270 C   0  0  0  0  0  0  0  0  0  0  0  0
   57.9637   32.2192   50.2707 H   0  0  0  0  0  0  0  0  0  0  0  0
   59.0026   32.5849   48.8517 H   0  0  0  0  0  0  0  0  0  0  0  0
   57.9661   31.1178   48.8517 H   0  0  0  0  0  0  0  0  0  0  0  0
   60.6760   31.2913   49.6525 H   0  0  0  0  0  0  0  0  0  0  0  0
   59.7319   31.1618   51.1853 H   0  0  0  0  0  0  0  0  0  0  0  0
   61.0756   28.7963   51.0606 H   0  0  0  0  0  0  0  0  0  0  0  0
   60.7930   27.9335   49.5106 H   0  0  0  0  0  0  0  0  0  0  0  0
   61.5958   29.5404   49.5106 H   0  0  0  0  0  0  0  0  0  0  0  0
   58.0781   28.5775   48.7609 H   0  0  0  0  0  0  0  0  0  0  0  0
   58.5482   30.2226   48.1696 H   0  0  0  0  0  0  0  0  0  0  0  0
   60.7235   28.2931   48.2441 H   0  0  0  0  0  0  0  0  0  0  0  0
   59.2984   27.9058   47.1161 H   0  0  0  0  0  0  0  0  0  0  0  0
   60.9020   29.0780   45.7910 H   0  0  0  0  0  0  0  0  0  0  0  0
   62.5270   30.1239   47.7748 H   0  0  0  0  0  0  0  0  0  0  0  0
   64.3295   31.5028   48.7236 H   0  0  0  0  0  0  0  0  0  0  0  0
   64.1567   33.9713   48.5923 H   0  0  0  0  0  0  0  0  0  0  0  0
   62.1809   34.9975   47.5097 H   0  0  0  0  0  0  0  0  0  0  0  0
   59.9861   35.6297   47.3503 H   0  0  0  0  0  0  0  0  0  0  0  0
   60.8915   35.5890   45.7994 H   0  0  0  0  0  0  0  0  0  0  0  0
   59.1024   35.4285   45.7994 H   0  0  0  0  0  0  0  0  0  0  0  0
   57.9446   34.5644   45.3071 H   0  0  0  0  0  0  0  0  0  0  0  0
   56.1633   33.1129   44.4222 H   0  0  0  0  0  0  0  0  0  0  0  0
   56.4413   28.6828   43.4233 H   0  0  0  0  0  0  0  0  0  0  0  0
   55.3283   29.8642   42.6538 H   0  0  0  0  0  0  0  0  0  0  0  0
   57.0990   30.1667   42.6538 H   0  0  0  0  0  0  0  0  0  0  0  0
   58.3732   29.6461   45.6091 H   0  0  0  0  0  0  0  0  0  0  0  0
  1  2  1  0
  2  3  1  0
  3  4  1  0
  3  5  1  0
  5  6  1  0
  6  7  1  0
  7  8  1  0
  8  9  2  0
  9 10  1  0
 10 11  2  0
 11 12  1  0
 12 13  2  0
 13 14  1  0
 14 15  2  0
 15 16  1  0
 15 17  1  0
 17 18  2  0
 18 19  1  0
 19 20  2  0
 20 21  1  0
 21 22  1  0
 20 23  1  0
 23 24  2  0
 24  8  1  0
 14  9  1  0
 24 17  1  0
  1 25  1  0
  1 26  1  0
  1 27  1  0
  2 28  1  0
  2 29  1  0
  4 30  1  0
  4 31  1  0
  4 32  1  0
  5 33  1  0
  5 34  1  0
  6 35  1  0
  6 36  1  0
  7 37  1  0
 10 38  1  0
 11 39  1  0
 12 40  1  0
 13 41  1  0
 16 42  1  0
 16 43  1  0
 16 44  1  0
 18 45  1  0
 19 46  1  0
 22 47  1  0
 22 48  1  0
 22 49  1  0
 23 50  1  0
M  CHG  1  15   1
M  END
>  <smiles>  (20) 
CCN(C)CCNc1c2ccccc2[n+](C)c2ccc(OC)cc12

>  <score_type>  (20) 
oracle

>  <origin>  (20) 
adg

>  <m_score__min__energy>  (20) 
-5.8099999999999996

>  <m_primary>  (20) 
energy

$$$$
21:0
     RDKit          3D

 46 48  0  0  0  0  0  0  0  0999 V2000
   63.0910   33.8410   46.4490 C   0  0  0  0  0  0  0  0  0  0  0  0
   63.3840   32.4900   47.1110 C   0  0  0  0  0  0  0  0  0  0  0  0
   62.4310   32.2480   48.1740 N   0  0  0  0  0  0  0  0  0  0  0  0
   63.2510   31.8380   49.3530 C   0  0  0  0  0  0  0  0  0  0  0  0
   61.6300   31.0510   47.8470 C   0  0  0  0  0  0  0  0  0  0  0  0
   60.5530   30.7870   48.8420 C   0  0  0  0  0  0  0  0  0  0  0  0
   59.2630   31.2110   48.3570 N   0  0  0  0  0  0  0  0  0  0  0  0
   58.8970   31.3910   47.0170 C   0  0  0  0  0  0  0  0  0  0  0  0
   59.0350   32.6950   46.5050 C   0  0  0  0  0  0  0  0  0  0  0  0
   59.5060   33.6940   47.3330 C   0  0  0  0  0  0  0  0  0  0  0  0
   59.6500   34.9810   46.8620 C   0  0  0  0  0  0  0  0  0  0  0  0
   59.3230   35.2700   45.5720 C   0  0  0  0  0  0  0  0  0  0  0  0
   58.8540   34.2610   44.7640 C   0  0  0  0  0  0  0  0  0  0  0  0
   58.6940   32.9470   45.2010 C   0  0  0  0  0  0  0  0  0  0  0  0
   58.2220   31.9930   44.3580 N   0  0  0  0  0  0  0  0  0  0  0  0
   57.8970   32.4060   43.0340 C   0  0  0  0  0  0  0  0  0  0  0  0
   58.0900   30.7490   44.8510 C   0  0  0  0  0  0  0  0  0  0  0  0
   57.5960   29.7450   44.0330 C   0  0  0  0  0  0  0  0  0  0  0  0
   57.4140   28.4450   44.4730 C   0  0  0  0  0  0  0  0  0  0  0  0
   57.7500   28.1800   45.7810 C   0  0  0  0  0  0  0  0  0  0  0  0
   57.5370   26.5480   46.3760 Cl  0  0  0  0  0  0  0  0  0  0  0  0
   58.2470   29.1740   46.6120 C   0  0  0  0  0  0  0  0  0  0  0  0
   58.4200   30.4540   46.1530 C   0  0  0  0  0  0  0  0  0  0  0  0
   62.9260   34.6019   47.2260 H   0  0  0  0  0  0  0  0  0  0  0  0
   63.9461   34.1357   45.8229 H   0  0  0  0  0  0  0  0  0  0  0  0
   62.1906   33.7550   45.8229 H   0  0  0  0  0  0  0  0  0  0  0  0
   63.3042   31.6903   46.3599 H   0  0  0  0  0  0  0  0  0  0  0  0
   64.4007   32.5040   47.5308 H   0  0  0  0  0  0  0  0  0  0  0  0
   62.7200   32.1035   50.2791 H   0  0  0  0  0  0  0  0  0  0  0  0
   63.4168   30.7509   49.3241 H   0  0  0  0  0  0  0  0  0  0  0  0
   64.2201   32.3576   49.3241 H   0  0  0  0  0  0  0  0  0  0  0  0
   61.1680   31.1964   46.8594 H   0  0  0  0  0  0  0  0  0  0  0  0
   62.3090   30.1856   47.8567 H   0  0  0  0  0  0  0  0  0  0  0  0
   60.5179   29.7077   49.0514 H   0  0  0  0  0  0  0  0  0  0  0  0
   60.7812   31.3584   49.7539 H   0  0  0  0  0  0  0  0  0  0  0  0
   58.5270   31.4040   49.0910 H   0  0  0  0  0  0  0  0  0  0  0  0
   59.7681   33.4612   48.3756 H   0  0  0  0  0  0  0  0  0  0  0  0
   60.0279   35.7724   47.5259 H   0  0  0  0  0  0  0  0  0  0  0  0
   59.4322   36.2931   45.1830 H   0  0  0  0  0  0  0  0  0  0  0  0
   58.5926   34.5023   43.7231 H   0  0  0  0  0  0  0  0  0  0  0  0
   57.2172   33.2698   43.0758 H   0  0  0  0  0  0  0  0  0  0  0  0
   58.8172   32.6890   42.5019 H   0  0  0  0  0  0  0  0  0  0  0  0
   57.4056   31.5781   42.5019 H   0  0  0  0  0  0  0  0  0  0  0  0
   57.3382   29.9910   42.9923 H   0  0  0  0  0  0  0  0  0  0  0  0
   57.0198   27.6616   43.8090 H   0  0  0  0  0  0  0  0  0  0  0  0
   58.5057   28.9315   47.6533 H   0  0  0  0  0  0  0  0  0  0  0  0
  1  2  1  0
  2  3  1  0
  3  4  1  0
  3  5  1  0
  5  6  1  0
  6  7  1  0
  7  8  1  0
  8  9  2  0
  9 10  1  0
 10 11  2  0
 11 12  1  0
 12 13  2  0
 13 14  1  0
 14 15  2  0
 15 16  1  0
 15 17  1  0
 17 18  2  0
 18 19  1  0
 19 20  2  0
 20 21  1  0
 20 22  1  0
 22 23  2  0
 23  8  1  0
 14  9  1  0
 23 17  1  0
  1 24  1  0
  1 25  1  0
  1 26  1  0
  2 27  1  0
  2 28  1  0
  4 29  1  0
  4 30  1  0
  4 31  1  0
  5 32  1  0
  5 33  1  0
  6 34  1  0
  6 35  1  0
  7 36  1  0
 10 37  1  0
 11 38  1  0
 12 39  1  0
 13 40  1  0
 16 41  1  0
 16 42  1  0
 16 43  1  0
 18 44  1  0
 19 45  1  0
 22 46  1  0
M  CHG  1  15   1
M  END
>  <smiles>  (21) 
CCN(C)CCNc1c2ccccc2[n+](C)c2ccc(Cl)cc12

>  <score_type>  (21) 
oracle

>  <origin>  (21) 
adg

>  <m_score__min__energy>  (21) 
-5.7800000000000002

>  <m_primary>  (21) 
energy

$$$$
22:0
     RDKit          3D

 61 63  0  0  0  0  0  0  0  0999 V2000
   56.1910   29.7860   43.4600 C   0  0  0  0  0  0  0  0  0  0  0  0
   56.6750   30.8000   44.4470 C   0  0  0  0  0  0  0  0  0  0  0  0
   56.9980   32.0800   43.8390 N   0  0  0  0  0  0  0  0  0  0  0  0
   58.0700   31.8250   42.9060 C   0  0  0  0  0  0  0  0  0  0  0  0
   57.8530   32.3370   41.5270 C   0  0  0  0  0  0  0  0  0  0  0  0
   57.3710   33.0190   44.8750 C   0  0  0  0  0  0  0  0  0  0  0  0
   58.7950   33.4580   44.7830 C   0  0  0  0  0  0  0  0  0  0  0  0
   59.3280   33.5490   46.0910 O   0  0  0  0  0  0  0  0  0  0  0  0
   58.8130   32.9420   47.2060 C   0  0  0  0  0  0  0  0  0  0  0  0
   58.5290   33.5640   48.2610 O   0  0  0  0  0  0  0  0  0  0  0  0
   58.5800   31.4680   47.1520 C   0  0  0  0  0  0  0  0  0  0  0  0
   59.8620   30.7120   46.9470 C   0  0  0  0  0  0  0  0  0  0  0  0
   59.7920   29.3580   47.4040 N   0  0  0  0  0  0  0  0  0  0  0  0
   60.5020   28.8790   48.4590 C   0  0  0  0  0  0  0  0  0  0  0  0
   60.1930   27.5270   48.6240 C   0  0  0  0  0  0  0  0  0  0  0  0
   59.2750   27.2030   47.6390 C   0  0  0  0  0  0  0  0  0  0  0  0
   58.6150   26.0130   47.3140 C   0  0  0  0  0  0  0  0  0  0  0  0
   57.7320   26.0020   46.2440 C   0  0  0  0  0  0  0  0  0  0  0  0
   56.9040   24.4930   45.8430 S   0  0  0  0  0  0  0  0  0  0  0  0
   57.6300   23.3990   46.6130 O   0  0  0  0  0  0  0  0  0  0  0  0
   57.0370   24.1820   44.3970 O   0  0  0  0  0  0  0  0  0  0  0  0
   55.3070   24.5230   46.4290 N   0  0  0  0  0  0  0  0  0  0  0  0
   54.3300   24.8700   45.4460 C   0  0  0  0  0  0  0  0  0  0  0  0
   53.7720   23.7110   44.6690 C   0  0  0  0  0  0  0  0  0  0  0  0
   53.3000   22.7630   45.5660 O   0  0  0  0  0  0  0  0  0  0  0  0
   54.3590   22.2520   46.2980 C   0  0  0  0  0  0  0  0  0  0  0  0
   55.0260   23.3110   47.1330 C   0  0  0  0  0  0  0  0  0  0  0  0
   57.4930   27.1430   45.4960 C   0  0  0  0  0  0  0  0  0  0  0  0
   58.1560   28.3130   45.8340 C   0  0  0  0  0  0  0  0  0  0  0  0
   59.0390   28.3420   46.8960 C   0  0  0  0  0  0  0  0  0  0  0  0
   55.7775   28.9197   43.9972 H   0  0  0  0  0  0  0  0  0  0  0  0
   55.4092   30.2331   42.8284 H   0  0  0  0  0  0  0  0  0  0  0  0
   57.0303   29.4593   42.8284 H   0  0  0  0  0  0  0  0  0  0  0  0
   55.8887   30.9587   45.1997 H   0  0  0  0  0  0  0  0  0  0  0  0
   57.6002   30.4068   44.8936 H   0  0  0  0  0  0  0  0  0  0  0  0
   58.9828   32.2940   43.3020 H   0  0  0  0  0  0  0  0  0  0  0  0
   58.1376   30.7309   42.8150 H   0  0  0  0  0  0  0  0  0  0  0  0
   57.4242   33.3488   41.5748 H   0  0  0  0  0  0  0  0  0  0  0  0
   58.8141   32.3710   40.9930 H   0  0  0  0  0  0  0  0  0  0  0  0
   57.1602   31.6700   40.9930 H   0  0  0  0  0  0  0  0  0  0  0  0
   56.7253   33.9058   44.7926 H   0  0  0  0  0  0  0  0  0  0  0  0
   57.2474   32.5076   45.8410 H   0  0  0  0  0  0  0  0  0  0  0  0
   59.3711   32.7253   44.1989 H   0  0  0  0  0  0  0  0  0  0  0  0
   58.8535   34.4375   44.2858 H   0  0  0  0  0  0  0  0  0  0  0  0
   58.1222   31.1442   48.0983 H   0  0  0  0  0  0  0  0  0  0  0  0
   57.9159   31.2558   46.3011 H   0  0  0  0  0  0  0  0  0  0  0  0
   60.0983   30.7075   45.8727 H   0  0  0  0  0  0  0  0  0  0  0  0
   60.6404   31.2184   47.5367 H   0  0  0  0  0  0  0  0  0  0  0  0
   61.2022   29.4585   49.0787 H   0  0  0  0  0  0  0  0  0  0  0  0
   60.6004   26.8498   49.3891 H   0  0  0  0  0  0  0  0  0  0  0  0
   58.7937   25.0986   47.8988 H   0  0  0  0  0  0  0  0  0  0  0  0
   53.4951   25.3720   45.9569 H   0  0  0  0  0  0  0  0  0  0  0  0
   54.8436   25.5117   44.7149 H   0  0  0  0  0  0  0  0  0  0  0  0
   52.9480   24.0571   44.0277 H   0  0  0  0  0  0  0  0  0  0  0  0
   54.5560   23.2711   44.0351 H   0  0  0  0  0  0  0  0  0  0  0  0
   53.9829   21.4598   46.9621 H   0  0  0  0  0  0  0  0  0  0  0  0
   55.1030   21.8563   45.5909 H   0  0  0  0  0  0  0  0  0  0  0  0
   54.3654   23.5493   47.9797 H   0  0  0  0  0  0  0  0  0  0  0  0
   55.9950   22.8986   47.4507 H   0  0  0  0  0  0  0  0  0  0  0  0
   56.7905   27.1214   44.6498 H   0  0  0  0  0  0  0  0  0  0  0  0
   57.9769   29.2279   45.2502 H   0  0  0  0  0  0  0  0  0  0  0  0
  1  2  1  0
  2  3  1  0
  3  4  1  0
  4  5  1  0
  3  6  1  0
  6  7  1  0
  7  8  1  0
  8  9  1  0
  9 10  2  0
  9 11  1  0
 11 12  1  0
 12 13  1  0
 13 14  1  0
 14 15  2  0
 15 16  1  0
 16 17  2  0
 17 18  1  0
 18 19  1  0
 19 20  2  0
 19 21  2  0
 19 22  1  0
 22 23  1  0
 23 24  1  0
 24 25  1  0
 25 26  1  0
 26 27  1  0
 18 28  2  0
 28 29  1  0
 29 30  2  0
 30 13  1  0
 30 16  1  0
 27 22  1  0
  1 31  1  0
  1 32  1  0
  1 33  1  0
  2 34  1  0
  2 35  1  0
  4 36  1  0
  4 37  1  0
  5 38  1  0
  5 39  1  0
  5 40  1  0
  6 41  1  0
  6 42  1  0
  7 43  1  0
  7 44  1  0
 11 45  1  0
 11 46  1  0
 12 47  1  0
 12 48  1  0
 14 49  1  0
 15 50  1  0
 17 51  1  0
 23 52  1  0
 23 53  1  0
 24 54  1  0
 24 55  1  0
 26 56  1  0
 26 57  1  0
 27 58  1  0
 27 59  1  0
 28 60  1  0
 29 61  1  0
M  END
>  <smiles>  (22) 
CCN(CC)CCOC(=O)CCn1ccc2cc(S(=O)(=O)N3CCOCC3)ccc21

>  <score_type>  (22) 
oracle

>  <origin>  (22) 
adg

>  <m_score__min__energy>  (22) 
-8.1300000000000008

>  <m_primary>  (22) 
energy

$$$$
23:0
     RDKit          3D

 42 44  0  0  0  0  0  0  0  0999 V2000
   54.9540   24.4680   45.6260 C   0  0  0  0  0  0  0  0  0  0  0  0
   56.0200   25.3970   45.3810 N   0  0  0  0  0  0  0  0  0  0  0  0
   56.9590   24.7960   44.4720 C   0  0  0  0  0  0  0  0  0  0  0  0
   56.6320   25.8470   46.6260 C   0  0  0  0  0  0  0  0  0  0  0  0
   57.2790   27.1790   46.4840 C   0  0  0  0  0  0  0  0  0  0  0  0
   56.8730   27.8220   45.2180 N   0  0  0  0  0  0  0  0  0  0  0  0
   57.3080   29.1690   45.0840 C   0  0  0  0  0  0  0  0  0  0  0  0
   56.6450   30.2880   44.9680 O   0  0  0  0  0  0  0  0  0  0  0  0
   57.4590   31.3020   44.8730 C   0  0  0  0  0  0  0  0  0  0  0  0
   57.2110   32.7570   44.7240 C   0  0  0  0  0  0  0  0  0  0  0  0
   58.1630   33.5500   45.5320 C   0  0  0  0  0  0  0  0  0  0  0  0
   58.8130   34.6810   45.0290 C   0  0  0  0  0  0  0  0  0  0  0  0
   59.6070   35.2060   45.9760 N   0  0  0  0  0  0  0  0  0  0  0  0
   59.4760   34.4360   47.0710 C   0  0  0  0  0  0  0  0  0  0  0  0
   60.1090   34.6000   48.2920 C   0  0  0  0  0  0  0  0  0  0  0  0
   59.8060   33.6580   49.2840 C   0  0  0  0  0  0  0  0  0  0  0  0
   58.9120   32.6200   49.0350 C   0  0  0  0  0  0  0  0  0  0  0  0
   58.2870   32.4730   47.8020 C   0  0  0  0  0  0  0  0  0  0  0  0
   58.5880   33.4010   46.8300 C   0  0  0  0  0  0  0  0  0  0  0  0
   58.7370   30.8160   44.9330 N   0  0  0  0  0  0  0  0  0  0  0  0
   58.6760   29.4790   45.0640 C   0  0  0  0  0  0  0  0  0  0  0  0
   59.7630   28.5260   45.1680 C   0  0  0  0  0  0  0  0  0  0  0  0
   60.6300   27.7430   45.2620 N   0  0  0  0  0  0  0  0  0  0  0  0
   54.8151   24.3470   46.7105 H   0  0  0  0  0  0  0  0  0  0  0  0
   54.0248   24.8496   45.1777 H   0  0  0  0  0  0  0  0  0  0  0  0
   55.2050   23.4954   45.1777 H   0  0  0  0  0  0  0  0  0  0  0  0
   57.7503   24.2895   45.0441 H   0  0  0  0  0  0  0  0  0  0  0  0
   56.4382   24.0630   43.8384 H   0  0  0  0  0  0  0  0  0  0  0  0
   57.4065   25.5759   43.8384 H   0  0  0  0  0  0  0  0  0  0  0  0
   55.8534   25.9119   47.4004 H   0  0  0  0  0  0  0  0  0  0  0  0
   57.4107   25.1207   46.9017 H   0  0  0  0  0  0  0  0  0  0  0  0
   56.9784   27.8186   47.3269 H   0  0  0  0  0  0  0  0  0  0  0  0
   58.3707   27.0441   46.4790 H   0  0  0  0  0  0  0  0  0  0  0  0
   56.3200   27.3210   44.4940 H   0  0  0  0  0  0  0  0  0  0  0  0
   57.3231   33.0330   43.6651 H   0  0  0  0  0  0  0  0  0  0  0  0
   56.1918   32.9734   45.0768 H   0  0  0  0  0  0  0  0  0  0  0  0
   58.6922   35.0804   44.0112 H   0  0  0  0  0  0  0  0  0  0  0  0
   60.1930   36.0610   45.8210 H   0  0  0  0  0  0  0  0  0  0  0  0
   60.8124   35.4261   48.4733 H   0  0  0  0  0  0  0  0  0  0  0  0
   60.2808   33.7396   50.2729 H   0  0  0  0  0  0  0  0  0  0  0  0
   58.6945   31.8971   49.8351 H   0  0  0  0  0  0  0  0  0  0  0  0
   57.5821   31.6505   47.6109 H   0  0  0  0  0  0  0  0  0  0  0  0
  1  2  1  0
  2  3  1  0
  2  4  1  0
  4  5  1  0
  5  6  1  0
  6  7  1  0
  7  8  1  0
  8  9  1  0
  9 10  1  0
 10 11  1  0
 11 12  2  0
 12 13  1  0
 13 14  1  0
 14 15  2  0
 15 16  1  0
 16 17  2  0
 17 18  1  0
 18 19  2  0
  9 20  2  0
 20 21  1  0
 21 22  1  0
 22 23  3  0
 21  7  2  0
 19 11  1  0
 19 14  1  0
  1 24  1  0
  1 25  1  0
  1 26  1  0
  3 27  1  0
  3 28  1  0
  3 29  1  0
  4 30  1  0
  4 31  1  0
  5 32  1  0
  5 33  1  0
  6 34  1  0
 10 35  1  0
 10 36  1  0
 12 37  1  0
 13 38  1  0
 15 39  1  0
 16 40  1  0
 17 41  1  0
 18 42  1  0
M  END
>  <smiles>  (23) 
CN(C)CCNc1oc(Cc2c[nH]c3ccccc23)nc1C#N

>  <score_type>  (23) 
oracle

>  <origin>  (23) 
adg

>  <m_score__min__energy>  (23) 
-6.7599999999999998

>  <m_primary>  (23) 
energy

$$$$
24:0
     RDKit          3D

 80 80  0  0  0  0  0  0  0  0999 V2000
   58.3180   30.1700   50.9320 C   0  0  0  0  0  0  0  0  0  0  0  0
   58.8700   30.7020   49.6620 C   0  0  0  0  0  0  0  0  0  0  0  0
   59.2260   29.7760   48.6380 N   0  0  0  0  0  0  0  0  0  0  0  0
   59.2750   30.6360   47.3990 C   0  0  0  0  0  0  0  0  0  0  0  0
   60.3680   30.1440   46.4780 C   0  0  0  0  0  0  0  0  0  0  0  0
   60.6120   29.2520   48.7530 C   0  0  0  0  0  0  0  0  0  0  0  0
   60.6710   27.8460   49.1330 C   0  0  0  0  0  0  0  0  0  0  0  0
   60.3500   26.8380   48.3360 O   0  0  0  0  0  0  0  0  0  0  0  0
   59.5930   26.7450   47.2820 C   0  0  0  0  0  0  0  0  0  0  0  0
   58.1580   27.1540   47.4680 C   0  0  0  0  0  0  0  0  0  0  0  0
   57.3160   26.5130   46.5600 O   0  0  0  0  0  0  0  0  0  0  0  0
   57.0450   27.1200   45.3950 C   0  0  0  0  0  0  0  0  0  0  0  0
   57.0270   28.6410   45.4070 C   0  0  0  0  0  0  0  0  0  0  0  0
   55.8160   29.0230   44.8650 O   0  0  0  0  0  0  0  0  0  0  0  0
   55.8220   29.7410   43.7110 C   0  0  0  0  0  0  0  0  0  0  0  0
   56.8050   30.8630   43.7710 C   0  0  0  0  0  0  0  0  0  0  0  0
   56.6750   31.6680   44.9250 O   0  0  0  0  0  0  0  0  0  0  0  0
   57.8460   32.3730   45.0190 C   0  0  0  0  0  0  0  0  0  0  0  0
   57.7530   33.8150   45.3860 C   0  0  0  0  0  0  0  0  0  0  0  0
   58.4850   34.3350   46.3540 O   0  0  0  0  0  0  0  0  0  0  0  0
   59.3810   34.0160   47.2800 C   0  0  0  0  0  0  0  0  0  0  0  0
   60.6380   33.6970   46.7870 N   0  0  0  0  0  0  0  0  0  0  0  0
   61.5980   33.3620   47.6150 C   0  0  0  0  0  0  0  0  0  0  0  0
   62.8870   33.0360   47.0800 N   0  0  0  0  0  0  0  0  0  0  0  0
   63.3900   33.8860   46.0210 C   0  0  0  0  0  0  0  0  0  0  0  0
   63.6720   31.9170   47.5550 C   0  0  0  0  0  0  0  0  0  0  0  0
   61.3680   33.3260   48.9260 N   0  0  0  0  0  0  0  0  0  0  0  0
   60.1790   33.6210   49.4820 C   0  0  0  0  0  0  0  0  0  0  0  0
   60.0760   33.5000   50.8790 N   0  0  0  0  0  0  0  0  0  0  0  0
   61.2030   33.1710   51.7330 C   0  0  0  0  0  0  0  0  0  0  0  0
   61.7300   31.7960   51.6210 C   0  0  0  0  0  0  0  0  0  0  0  0
   58.8120   33.6870   51.6170 C   0  0  0  0  0  0  0  0  0  0  0  0
   59.0240   34.1710   53.0100 C   0  0  0  0  0  0  0  0  0  0  0  0
   59.1950   33.9650   48.6360 N   0  0  0  0  0  0  0  0  0  0  0  0
   58.8209   30.6546   51.7819 H   0  0  0  0  0  0  0  0  0  0  0  0
   57.2387   30.3771   50.9779 H   0  0  0  0  0  0  0  0  0  0  0  0
   58.4852   29.0837   50.9779 H   0  0  0  0  0  0  0  0  0  0  0  0
   58.1155   31.3813   49.2385 H   0  0  0  0  0  0  0  0  0  0  0  0
   59.8249   31.1634   49.9539 H   0  0  0  0  0  0  0  0  0  0  0  0
   58.3073   30.5826   46.8787 H   0  0  0  0  0  0  0  0  0  0  0  0
   59.4836   31.6769   47.6870 H   0  0  0  0  0  0  0  0  0  0  0  0
   61.2093   29.7653   47.0770 H   0  0  0  0  0  0  0  0  0  0  0  0
   59.9764   29.3353   45.8434 H   0  0  0  0  0  0  0  0  0  0  0  0
   60.7137   30.9733   45.8434 H   0  0  0  0  0  0  0  0  0  0  0  0
   61.1114   29.3713   47.7802 H   0  0  0  0  0  0  0  0  0  0  0  0
   61.1098   29.8243   49.5497 H   0  0  0  0  0  0  0  0  0  0  0  0
   61.7136   27.6647   49.4333 H   0  0  0  0  0  0  0  0  0  0  0  0
   59.8486   27.7981   49.8620 H   0  0  0  0  0  0  0  0  0  0  0  0
   60.0267   27.3829   46.4978 H   0  0  0  0  0  0  0  0  0  0  0  0
   59.5677   25.6755   47.0261 H   0  0  0  0  0  0  0  0  0  0  0  0
   57.8433   26.8950   48.4897 H   0  0  0  0  0  0  0  0  0  0  0  0
   58.0858   28.2380   47.2954 H   0  0  0  0  0  0  0  0  0  0  0  0
   57.8061   26.8011   44.6677 H   0  0  0  0  0  0  0  0  0  0  0  0
   56.0169   26.8200   45.1442 H   0  0  0  0  0  0  0  0  0  0  0  0
   57.1165   29.0140   46.4380 H   0  0  0  0  0  0  0  0  0  0  0  0
   57.8684   29.0533   44.8308 H   0  0  0  0  0  0  0  0  0  0  0  0
   56.0895   29.0754   42.8771 H   0  0  0  0  0  0  0  0  0  0  0  0
   54.8189   30.1679   43.5644 H   0  0  0  0  0  0  0  0  0  0  0  0
   57.8194   30.4378   43.7561 H   0  0  0  0  0  0  0  0  0  0  0  0
   56.6096   31.5097   42.9029 H   0  0  0  0  0  0  0  0  0  0  0  0
   58.4682   31.8787   45.7797 H   0  0  0  0  0  0  0  0  0  0  0  0
   58.2584   32.3691   43.9993 H   0  0  0  0  0  0  0  0  0  0  0  0
   57.9972   34.3819   44.4755 H   0  0  0  0  0  0  0  0  0  0  0  0
   56.7360   33.8854   45.7992 H   0  0  0  0  0  0  0  0  0  0  0  0
   63.9036   34.7539   46.4602 H   0  0  0  0  0  0  0  0  0  0  0  0
   64.0972   33.3175   45.3992 H   0  0  0  0  0  0  0  0  0  0  0  0
   62.5513   34.2323   45.3992 H   0  0  0  0  0  0  0  0  0  0  0  0
   63.6754   31.9122   48.6550 H   0  0  0  0  0  0  0  0  0  0  0  0
   63.2334   30.9783   47.1855 H   0  0  0  0  0  0  0  0  0  0  0  0
   64.7039   32.0099   47.1855 H   0  0  0  0  0  0  0  0  0  0  0  0
   62.0215   33.8644   51.4895 H   0  0  0  0  0  0  0  0  0  0  0  0
   60.8255   33.2572   52.7626 H   0  0  0  0  0  0  0  0  0  0  0  0
   61.8890   31.3812   52.6273 H   0  0  0  0  0  0  0  0  0  0  0  0
   61.0081   31.1699   51.0761 H   0  0  0  0  0  0  0  0  0  0  0  0
   62.6854   31.8128   51.0761 H   0  0  0  0  0  0  0  0  0  0  0  0
   58.1962   34.4228   51.0790 H   0  0  0  0  0  0  0  0  0  0  0  0
   58.3158   32.7072   51.6783 H   0  0  0  0  0  0  0  0  0  0  0  0
   58.6871   33.4019   53.7206 H   0  0  0  0  0  0  0  0  0  0  0  0
   60.0934   34.3739   53.1689 H   0  0  0  0  0  0  0  0  0  0  0  0
   58.4480   35.0946   53.1689 H   0  0  0  0  0  0  0  0  0  0  0  0
  1  2  1  0
  2  3  1  0
  3  4  1  0
  4  5  1  0
  3  6  1  0
  6  7  1  0
  7  8  1  0
  8  9  1  0
  9 10  1  0
 10 11  1  0
 11 12  1  0
 12 13  1  0
 13 14  1  0
 14 15  1  0
 15 16  1  0
 16 17  1  0
 17 18  1  0
 18 19  1  0
 19 20  1  0
 20 21  1  0
 21 22  2  0
 22 23  1  0
 23 24  1  0
 24 25  1  0
 24 26  1  0
 23 27  2  0
 27 28  1  0
 28 29  1  0
 29 30  1  0
 30 31  1  0
 29 32  1  0
 32 33  1  0
 28 34  2  0
 34 21  1  0
  1 35  1  0
  1 36  1  0
  1 37  1  0
  2 38  1  0
  2 39  1  0
  4 40  1  0
  4 41  1  0
  5 42  1  0
  5 43  1  0
  5 44  1  0
  6 45  1  0
  6 46  1  0
  7 47  1  0
  7 48  1  0
  9 49  1  0
  9 50  1  0
 10 51  1  0
 10 52  1  0
 12 53  1  0
 12 54  1  0
 13 55  1  0
 13 56  1  0
 15 57  1  0
 15 58  1  0
 16 59  1  0
 16 60  1  0
 18 61  1  0
 18 62  1  0
 19 63  1  0
 19 64  1  0
 25 65  1  0
 25 66  1  0
 25 67  1  0
 26 68  1  0
 26 69  1  0
 26 70  1  0
 30 71  1  0
 30 72  1  0
 31 73  1  0
 31 74  1  0
 31 75  1  0
 32 76  1  0
 32 77  1  0
 33 78  1  0
 33 79  1  0
 33 80  1  0
M  END
>  <smiles>  (24) 
CCN(CC)CCOCCOCCOCCOCCOc1nc(N(C)C)nc(N(CC)CC)n1

>  <score_type>  (24) 
oracle

>  <origin>  (24) 
adg

>  <m_score__min__energy>  (24) 
-5.7999999999999998

>  <m_primary>  (24) 
energy

$$$$
25:0
     RDKit          3D

 34 34  0  0  0  0  0  0  0  0999 V2000
   59.9600   34.5730   47.4050 C   0  0  0  0  0  0  0  0  0  0  0  0
   58.5140   34.2370   47.1190 C   0  0  0  0  0  0  0  0  0  0  0  0
   58.3380   33.9600   45.7310 N   0  0  0  0  0  0  0  0  0  0  0  0
   57.0190   34.2000   45.2410 C   0  0  0  0  0  0  0  0  0  0  0  0
   58.9020   32.6880   45.3230 C   0  0  0  0  0  0  0  0  0  0  0  0
   58.2380   31.5380   46.0130 C   0  0  0  0  0  0  0  0  0  0  0  0
   58.2870   30.3220   45.2730 N   0  0  0  0  0  0  0  0  0  0  0  0
   59.3100   29.4520   45.2620 C   0  0  0  0  0  0  0  0  0  0  0  0
   60.5150   29.7630   46.0760 C   0  0  0  0  0  0  0  0  0  0  0  0
   59.2730   28.2740   44.5090 C   0  0  0  0  0  0  0  0  0  0  0  0
   58.1500   27.9940   43.7530 C   0  0  0  0  0  0  0  0  0  0  0  0
   58.0420   26.7590   42.9280 C   0  0  0  0  0  0  0  0  0  0  0  0
   57.1440   28.8830   43.7850 N   0  0  0  0  0  0  0  0  0  0  0  0
   57.1950   30.0130   44.5150 C   0  0  0  0  0  0  0  0  0  0  0  0
   56.1990   30.8190   44.5000 O   0  0  0  0  0  0  0  0  0  0  0  0
   60.1196   34.6101   48.4927 H   0  0  0  0  0  0  0  0  0  0  0  0
   60.6095   33.8019   46.9652 H   0  0  0  0  0  0  0  0  0  0  0  0
   60.2030   35.5515   46.9652 H   0  0  0  0  0  0  0  0  0  0  0  0
   58.2235   33.3530   47.7056 H   0  0  0  0  0  0  0  0  0  0  0  0
   57.8844   35.0953   47.3964 H   0  0  0  0  0  0  0  0  0  0  0  0
   56.3299   34.3254   46.0892 H   0  0  0  0  0  0  0  0  0  0  0  0
   57.0161   35.1134   44.6281 H   0  0  0  0  0  0  0  0  0  0  0  0
   56.6945   33.3461   44.6281 H   0  0  0  0  0  0  0  0  0  0  0  0
   58.7733   32.5736   44.2366 H   0  0  0  0  0  0  0  0  0  0  0  0
   59.9671   32.6826   45.5980 H   0  0  0  0  0  0  0  0  0  0  0  0
   58.7380   31.3770   46.9795 H   0  0  0  0  0  0  0  0  0  0  0  0
   57.1764   31.8017   46.1291 H   0  0  0  0  0  0  0  0  0  0  0  0
   60.2624   29.6978   47.1446 H   0  0  0  0  0  0  0  0  0  0  0  0
   61.3114   29.0410   45.8428 H   0  0  0  0  0  0  0  0  0  0  0  0
   60.8625   30.7803   45.8428 H   0  0  0  0  0  0  0  0  0  0  0  0
   60.1261   27.5796   44.5182 H   0  0  0  0  0  0  0  0  0  0  0  0
   57.9654   25.8825   43.5883 H   0  0  0  0  0  0  0  0  0  0  0  0
   57.1457   26.8193   42.2932 H   0  0  0  0  0  0  0  0  0  0  0  0
   58.9352   26.6629   42.2932 H   0  0  0  0  0  0  0  0  0  0  0  0
  1  2  1  0
  2  3  1  0
  3  4  1  0
  3  5  1  0
  5  6  1  0
  6  7  1  0
  7  8  1  0
  8  9  1  0
  8 10  2  0
 10 11  1  0
 11 12  1  0
 11 13  2  0
 13 14  1  0
 14 15  2  0
 14  7  1  0
  1 16  1  0
  1 17  1  0
  1 18  1  0
  2 19  1  0
  2 20  1  0
  4 21  1  0
  4 22  1  0
  4 23  1  0
  5 24  1  0
  5 25  1  0
  6 26  1  0
  6 27  1  0
  9 28  1  0
  9 29  1  0
  9 30  1  0
 10 31  1  0
 12 32  1  0
 12 33  1  0
 12 34  1  0
M  END
>  <smiles>  (25) 
CCN(C)CCn1c(C)cc(C)nc1=O

>  <score_type>  (25) 
oracle

>  <origin>  (25) 
adg

>  <m_score__min__energy>  (25) 
-5.3899999999999997

>  <m_primary>  (25) 
energy

$$$$
26:0
     RDKit          3D

 60 63  0  0  0  0  0  0  0  0999 V2000
   63.3460   33.8430   46.4200 C   0  0  0  0  0  0  0  0  0  0  0  0
   63.3640   32.5050   47.1180 C   0  0  0  0  0  0  0  0  0  0  0  0
   63.0760   32.7040   48.5440 N   0  0  0  0  0  0  0  0  0  0  0  0
   64.2950   32.3320   49.2420 C   0  0  0  0  0  0  0  0  0  0  0  0
   64.5570   33.1160   50.4850 C   0  0  0  0  0  0  0  0  0  0  0  0
   62.6870   34.0800   48.8050 C   0  0  0  0  0  0  0  0  0  0  0  0
   61.1950   34.2260   48.8670 C   0  0  0  0  0  0  0  0  0  0  0  0
   60.5360   33.2460   49.6840 N   0  0  0  0  0  0  0  0  0  0  0  0
   60.3390   31.9510   49.1390 C   0  0  0  0  0  0  0  0  0  0  0  0
   60.7910   30.8740   49.8830 C   0  0  0  0  0  0  0  0  0  0  0  0
   61.3790   31.1130   51.0800 C   0  0  0  0  0  0  0  0  0  0  0  0
   61.8200   30.0610   51.8440 C   0  0  0  0  0  0  0  0  0  0  0  0
   61.6280   28.7990   51.3310 C   0  0  0  0  0  0  0  0  0  0  0  0
   62.2340   27.3260   52.3760 Br  0  0  0  0  0  0  0  0  0  0  0  0
   61.0240   28.5680   50.1010 C   0  0  0  0  0  0  0  0  0  0  0  0
   60.5740   29.6340   49.3150 C   0  0  0  0  0  0  0  0  0  0  0  0
   59.9780   29.4100   48.1330 N   0  0  0  0  0  0  0  0  0  0  0  0
   59.8860   28.0680   47.6210 C   0  0  0  0  0  0  0  0  0  0  0  0
   59.5120   30.4810   47.3650 C   0  0  0  0  0  0  0  0  0  0  0  0
   59.7460   31.6870   47.9600 C   0  0  0  0  0  0  0  0  0  0  0  0
   59.1160   32.9300   46.8720 S   0  0  0  0  0  0  0  0  0  0  0  0
   58.5540   31.7200   45.6510 C   0  0  0  0  0  0  0  0  0  0  0  0
   57.9190   31.9950   44.4910 C   0  0  0  0  0  0  0  0  0  0  0  0
   57.5240   30.9650   43.6660 C   0  0  0  0  0  0  0  0  0  0  0  0
   56.8760   31.1240   42.4690 O   0  0  0  0  0  0  0  0  0  0  0  0
   57.4280   31.9740   41.4890 C   0  0  0  0  0  0  0  0  0  0  0  0
   57.8230   29.6970   44.1160 C   0  0  0  0  0  0  0  0  0  0  0  0
   57.4320   28.6360   43.3030 O   0  0  0  0  0  0  0  0  0  0  0  0
   58.1020   27.4310   43.1390 C   0  0  0  0  0  0  0  0  0  0  0  0
   58.4760   29.4400   45.3100 C   0  0  0  0  0  0  0  0  0  0  0  0
   58.8870   30.4940   46.1630 C   0  0  0  0  0  0  0  0  0  0  0  0
   63.3352   34.6477   47.1699 H   0  0  0  0  0  0  0  0  0  0  0  0
   64.2429   33.9403   45.7907 H   0  0  0  0  0  0  0  0  0  0  0  0
   62.4468   33.9162   45.7907 H   0  0  0  0  0  0  0  0  0  0  0  0
   62.6001   31.8484   46.6759 H   0  0  0  0  0  0  0  0  0  0  0  0
   64.3534   32.0388   47.0009 H   0  0  0  0  0  0  0  0  0  0  0  0
   64.2248   31.2685   49.5143 H   0  0  0  0  0  0  0  0  0  0  0  0
   65.1276   32.5445   48.5552 H   0  0  0  0  0  0  0  0  0  0  0  0
   64.3476   32.4895   51.3646 H   0  0  0  0  0  0  0  0  0  0  0  0
   65.6100   33.4334   50.5032 H   0  0  0  0  0  0  0  0  0  0  0  0
   63.9064   34.0028   50.5032 H   0  0  0  0  0  0  0  0  0  0  0  0
   63.1177   34.3973   49.7662 H   0  0  0  0  0  0  0  0  0  0  0  0
   63.0618   34.7071   47.9827 H   0  0  0  0  0  0  0  0  0  0  0  0
   60.9634   35.2226   49.2711 H   0  0  0  0  0  0  0  0  0  0  0  0
   60.8228   34.0815   47.8420 H   0  0  0  0  0  0  0  0  0  0  0  0
   60.2010   33.4430   50.6560 H   0  0  0  0  0  0  0  0  0  0  0  0
   61.5025   32.1457   51.4382 H   0  0  0  0  0  0  0  0  0  0  0  0
   62.3035   30.2195   52.8192 H   0  0  0  0  0  0  0  0  0  0  0  0
   60.8984   27.5360   49.7417 H   0  0  0  0  0  0  0  0  0  0  0  0
   59.8373   27.3581   48.4598 H   0  0  0  0  0  0  0  0  0  0  0  0
   58.9791   27.9716   47.0059 H   0  0  0  0  0  0  0  0  0  0  0  0
   60.7712   27.8487   47.0059 H   0  0  0  0  0  0  0  0  0  0  0  0
   57.7179   33.0382   44.2060 H   0  0  0  0  0  0  0  0  0  0  0  0
   57.9642   32.7997   41.9797 H   0  0  0  0  0  0  0  0  0  0  0  0
   58.1285   31.4036   40.8613 H   0  0  0  0  0  0  0  0  0  0  0  0
   56.6220   32.3819   40.8613 H   0  0  0  0  0  0  0  0  0  0  0  0
   58.3385   27.0057   44.1255 H   0  0  0  0  0  0  0  0  0  0  0  0
   57.4642   26.7299   42.5808 H   0  0  0  0  0  0  0  0  0  0  0  0
   59.0341   27.6028   42.5808 H   0  0  0  0  0  0  0  0  0  0  0  0
   58.6792   28.3989   45.6013 H   0  0  0  0  0  0  0  0  0  0  0  0
  1  2  1  0
  2  3  1  0
  3  4  1  0
  4  5  1  0
  3  6  1  0
  6  7  1  0
  7  8  1  0
  8  9  1  0
  9 10  2  0
 10 11  1  0
 11 12  2  0
 12 13  1  0
 13 14  1  0
 13 15  2  0
 15 16  1  0
 16 17  2  0
 17 18  1  0
 17 19  1  0
 19 20  2  0
 20 21  1  0
 21 22  1  0
 22 23  2  0
 23 24  1  0
 24 25  1  0
 25 26  1  0
 24 27  2  0
 27 28  1  0
 28 29  1  0
 27 30  1  0
 30 31  2  0
 20  9  1  0
 31 22  1  0
 16 10  1  0
 31 19  1  0
  1 32  1  0
  1 33  1  0
  1 34  1  0
  2 35  1  0
  2 36  1  0
  4 37  1  0
  4 38  1  0
  5 39  1  0
  5 40  1  0
  5 41  1  0
  6 42  1  0
  6 43  1  0
  7 44  1  0
  7 45  1  0
  8 46  1  0
 11 47  1  0
 12 48  1  0
 15 49  1  0
 18 50  1  0
 18 51  1  0
 18 52  1  0
 23 53  1  0
 26 54  1  0
 26 55  1  0
 26 56  1  0
 29 57  1  0
 29 58  1  0
 29 59  1  0
 30 60  1  0
M  CHG  1  17   1
M  END
>  <smiles>  (26) 
CCN(CC)CCNc1c2ccc(Br)cc2[n+](C)c2c1sc1cc(OC)c(OC)cc12

>  <score_type>  (26) 
oracle

>  <origin>  (26) 
adg

>  <m_score__min__energy>  (26) 
-5.5999999999999996

>  <m_primary>  (26) 
energy

$$$$
27:0
     RDKit          3D

 52 56  0  0  0  0  0  0  0  0999 V2000
   64.7450   32.2490   49.8510 C   0  0  0  0  0  0  0  0  0  0  0  0
   63.3480   32.6890   49.7080 N   0  0  0  0  0  0  0  0  0  0  0  0
   62.8550   33.5560   48.8130 C   0  0  0  0  0  0  0  0  0  0  0  0
   61.4780   33.7120   49.0040 C   0  0  0  0  0  0  0  0  0  0  0  0
   60.6420   34.6060   48.2140 C   0  0  0  0  0  0  0  0  0  0  0  0
   59.9320   34.0870   47.1210 N   0  0  0  0  0  0  0  0  0  0  0  0
   58.5450   34.2350   47.0240 C   0  0  0  0  0  0  0  0  0  0  0  0
   58.0540   33.6910   45.6780 C   0  0  0  0  0  0  0  0  0  0  0  0
   58.4600   32.3100   45.5020 N   0  0  0  0  0  0  0  0  0  0  0  0
   57.8140   31.4740   44.5540 C   0  0  0  0  0  0  0  0  0  0  0  0
   57.6590   31.9260   43.2600 C   0  0  0  0  0  0  0  0  0  0  0  0
   57.0310   31.1570   42.2780 C   0  0  0  0  0  0  0  0  0  0  0  0
   56.5690   29.9300   42.6410 C   0  0  0  0  0  0  0  0  0  0  0  0
   56.7220   29.4760   43.9300 C   0  0  0  0  0  0  0  0  0  0  0  0
   57.3460   30.2300   44.9240 C   0  0  0  0  0  0  0  0  0  0  0  0
   59.5600   31.8590   46.3440 C   0  0  0  0  0  0  0  0  0  0  0  0
   60.5600   33.0280   46.4010 C   0  0  0  0  0  0  0  0  0  0  0  0
   61.1870   32.8840   50.0630 C   0  0  0  0  0  0  0  0  0  0  0  0
   59.9200   32.6200   50.7180 C   0  0  0  0  0  0  0  0  0  0  0  0
   59.3780   33.6030   51.5510 C   0  0  0  0  0  0  0  0  0  0  0  0
   58.1630   33.3800   52.2130 C   0  0  0  0  0  0  0  0  0  0  0  0
   57.4660   32.1990   52.0710 C   0  0  0  0  0  0  0  0  0  0  0  0
   58.0000   31.2300   51.2490 C   0  0  0  0  0  0  0  0  0  0  0  0
   59.2030   31.4530   50.5950 C   0  0  0  0  0  0  0  0  0  0  0  0
   57.1100   30.1390   51.2740 O   0  0  0  0  0  0  0  0  0  0  0  0
   56.2290   30.2820   52.3770 C   0  0  0  0  0  0  0  0  0  0  0  0
   56.2700   31.6830   52.5740 O   0  0  0  0  0  0  0  0  0  0  0  0
   62.3420   32.2940   50.4490 N   0  0  0  0  0  0  0  0  0  0  0  0
   64.9970   32.1696   50.9188 H   0  0  0  0  0  0  0  0  0  0  0  0
   64.8713   31.2676   49.3705 H   0  0  0  0  0  0  0  0  0  0  0  0
   65.4110   32.9809   49.3705 H   0  0  0  0  0  0  0  0  0  0  0  0
   63.4466   34.0699   48.0410 H   0  0  0  0  0  0  0  0  0  0  0  0
   59.9021   35.0446   48.8996 H   0  0  0  0  0  0  0  0  0  0  0  0
   61.3606   35.3008   47.7548 H   0  0  0  0  0  0  0  0  0  0  0  0
   58.0611   33.6788   47.8404 H   0  0  0  0  0  0  0  0  0  0  0  0
   58.2892   35.3023   47.0977 H   0  0  0  0  0  0  0  0  0  0  0  0
   56.9562   33.7514   45.6434 H   0  0  0  0  0  0  0  0  0  0  0  0
   58.4962   34.2942   44.8714 H   0  0  0  0  0  0  0  0  0  0  0  0
   58.0416   32.9223   42.9936 H   0  0  0  0  0  0  0  0  0  0  0  0
   56.9143   31.5294   41.2496 H   0  0  0  0  0  0  0  0  0  0  0  0
   56.0680   29.2946   41.8959 H   0  0  0  0  0  0  0  0  0  0  0  0
   56.3369   28.4783   44.1876 H   0  0  0  0  0  0  0  0  0  0  0  0
   57.4592   29.8519   45.9508 H   0  0  0  0  0  0  0  0  0  0  0  0
   59.1948   31.6193   47.3535 H   0  0  0  0  0  0  0  0  0  0  0  0
   60.0279   30.9487   45.9410 H   0  0  0  0  0  0  0  0  0  0  0  0
   61.4782   32.7133   46.9186 H   0  0  0  0  0  0  0  0  0  0  0  0
   60.8356   33.3552   45.3876 H   0  0  0  0  0  0  0  0  0  0  0  0
   59.9082   34.5571   51.6877 H   0  0  0  0  0  0  0  0  0  0  0  0
   57.7548   34.1680   52.8630 H   0  0  0  0  0  0  0  0  0  0  0  0
   59.6023   30.6586   49.9473 H   0  0  0  0  0  0  0  0  0  0  0  0
   55.2136   29.9381   52.1305 H   0  0  0  0  0  0  0  0  0  0  0  0
   56.5092   29.6909   53.2613 H   0  0  0  0  0  0  0  0  0  0  0  0
  1  2  1  0
  2  3  1  0
  3  4  2  0
  4  5  1  0
  5  6  1  0
  6  7  1  0
  7  8  1  0
  8  9  1  0
  9 10  1  0
 10 11  2  0
 11 12  1  0
 12 13  2  0
 13 14  1  0
 14 15  2  0
  9 16  1  0
 16 17  1  0
  4 18  1  0
 18 19  1  0
 19 20  2  0
 20 21  1  0
 21 22  2  0
 22 23  1  0
 23 24  2  0
 23 25  1  0
 25 26  1  0
 26 27  1  0
 18 28  2  0
 28  2  1  0
 17  6  1  0
 24 19  1  0
 15 10  1  0
 27 22  1  0
  1 29  1  0
  1 30  1  0
  1 31  1  0
  3 32  1  0
  5 33  1  0
  5 34  1  0
  7 35  1  0
  7 36  1  0
  8 37  1  0
  8 38  1  0
 11 39  1  0
 12 40  1  0
 13 41  1  0
 14 42  1  0
 15 43  1  0
 16 44  1  0
 16 45  1  0
 17 46  1  0
 17 47  1  0
 20 48  1  0
 21 49  1  0
 24 50  1  0
 26 51  1  0
 26 52  1  0
M  END
>  <smiles>  (27) 
Cn1cc(CN2CCN(c3ccccc3)CC2)c(-c2ccc3c(c2)OCO3)n1

>  <score_type>  (27) 
oracle

>  <origin>  (27) 
adg

>  <m_score__min__energy>  (27) 
-8.4199999999999999

>  <m_primary>  (27) 
energy

$$$$
28:0
     RDKit          3D

 59 61  0  0  0  0  0  0  0  0999 V2000
   59.1570   29.7220   48.3480 C   0  0  0  0  0  0  0  0  0  0  0  0
   60.6810   29.5380   48.4410 C   0  0  0  0  0  0  0  0  0  0  0  0
   61.1840   29.9130   49.7050 N   0  0  0  0  0  0  0  0  0  0  0  0
   61.0570   28.9750   50.7660 C   0  0  0  0  0  0  0  0  0  0  0  0
   62.2610   30.8290   49.7720 C   0  0  0  0  0  0  0  0  0  0  0  0
   62.1170   31.9130   48.7770 C   0  0  0  0  0  0  0  0  0  0  0  0
   63.2250   32.1470   47.9560 C   0  0  0  0  0  0  0  0  0  0  0  0
   63.1920   33.1140   46.9990 C   0  0  0  0  0  0  0  0  0  0  0  0
   62.0490   33.8650   46.8500 C   0  0  0  0  0  0  0  0  0  0  0  0
   60.9160   33.6710   47.6460 C   0  0  0  0  0  0  0  0  0  0  0  0
   59.7280   34.5250   47.4400 C   0  0  0  0  0  0  0  0  0  0  0  0
   58.8630   33.9830   46.4790 N   0  0  0  0  0  0  0  0  0  0  0  0
   58.7750   34.6100   45.2100 C   0  0  0  0  0  0  0  0  0  0  0  0
   58.7920   33.5030   44.1780 C   0  0  0  0  0  0  0  0  0  0  0  0
   57.4010   32.9020   43.9610 C   0  0  0  0  0  0  0  0  0  0  0  0
   57.0560   31.8710   44.8520 N   0  0  0  0  0  0  0  0  0  0  0  0
   56.8740   30.5510   44.3470 C   0  0  0  0  0  0  0  0  0  0  0  0
   57.8180   29.5230   44.7860 C   0  0  0  0  0  0  0  0  0  0  0  0
   59.1810   29.8060   44.5650 C   0  0  0  0  0  0  0  0  0  0  0  0
   60.1740   28.9200   44.9070 C   0  0  0  0  0  0  0  0  0  0  0  0
   59.8900   27.7030   45.4870 C   0  0  0  0  0  0  0  0  0  0  0  0
   58.5630   27.4150   45.7090 C   0  0  0  0  0  0  0  0  0  0  0  0
   57.5450   28.3210   45.3600 C   0  0  0  0  0  0  0  0  0  0  0  0
   56.3060   27.9420   45.6500 F   0  0  0  0  0  0  0  0  0  0  0  0
   57.7690   31.8920   46.1090 C   0  0  0  0  0  0  0  0  0  0  0  0
   57.7810   33.1730   46.8530 C   0  0  0  0  0  0  0  0  0  0  0  0
   60.9820   32.6740   48.6120 C   0  0  0  0  0  0  0  0  0  0  0  0
   58.7314   29.7734   49.3610 H   0  0  0  0  0  0  0  0  0  0  0  0
   58.9324   30.6538   47.8082 H   0  0  0  0  0  0  0  0  0  0  0  0
   58.7171   28.8704   47.8082 H   0  0  0  0  0  0  0  0  0  0  0  0
   60.9222   28.4797   48.2629 H   0  0  0  0  0  0  0  0  0  0  0  0
   61.1476   30.1860   47.6845 H   0  0  0  0  0  0  0  0  0  0  0  0
   61.1281   29.5000   51.7300 H   0  0  0  0  0  0  0  0  0  0  0  0
   60.0823   28.4702   50.6944 H   0  0  0  0  0  0  0  0  0  0  0  0
   61.8624   28.2292   50.6944 H   0  0  0  0  0  0  0  0  0  0  0  0
   62.2917   31.2707   50.7790 H   0  0  0  0  0  0  0  0  0  0  0  0
   63.1907   30.2831   49.5536 H   0  0  0  0  0  0  0  0  0  0  0  0
   64.1344   31.5418   48.0855 H   0  0  0  0  0  0  0  0  0  0  0  0
   64.0655   33.2923   46.3547 H   0  0  0  0  0  0  0  0  0  0  0  0
   62.0256   34.6466   46.0764 H   0  0  0  0  0  0  0  0  0  0  0  0
   59.1875   34.6207   48.3933 H   0  0  0  0  0  0  0  0  0  0  0  0
   60.0686   35.5074   47.0811 H   0  0  0  0  0  0  0  0  0  0  0  0
   57.8401   35.1846   45.1347 H   0  0  0  0  0  0  0  0  0  0  0  0
   59.6095   35.3096   45.0547 H   0  0  0  0  0  0  0  0  0  0  0  0
   59.1552   33.9122   43.2237 H   0  0  0  0  0  0  0  0  0  0  0  0
   59.4540   32.7051   44.5455 H   0  0  0  0  0  0  0  0  0  0  0  0
   56.6601   33.7080   44.0678 H   0  0  0  0  0  0  0  0  0  0  0  0
   57.4128   32.4514   42.9576 H   0  0  0  0  0  0  0  0  0  0  0  0
   55.8670   30.2213   44.6425 H   0  0  0  0  0  0  0  0  0  0  0  0
   57.0413   30.6403   43.2635 H   0  0  0  0  0  0  0  0  0  0  0  0
   59.4583   30.7657   44.1045 H   0  0  0  0  0  0  0  0  0  0  0  0
   61.2227   29.1893   44.7127 H   0  0  0  0  0  0  0  0  0  0  0  0
   60.6865   26.9950   45.7597 H   0  0  0  0  0  0  0  0  0  0  0  0
   58.2918   26.4539   46.1702 H   0  0  0  0  0  0  0  0  0  0  0  0
   57.3133   31.1331   46.7619 H   0  0  0  0  0  0  0  0  0  0  0  0
   58.8203   31.7047   45.8448 H   0  0  0  0  0  0  0  0  0  0  0  0
   56.8447   33.7126   46.6477 H   0  0  0  0  0  0  0  0  0  0  0  0
   57.8794   32.9448   47.9246 H   0  0  0  0  0  0  0  0  0  0  0  0
   60.1104   32.4895   49.2572 H   0  0  0  0  0  0  0  0  0  0  0  0
  1  2  1  0
  2  3  1  0
  3  4  1  0
  3  5  1  0
  5  6  1  0
  6  7  2  0
  7  8  1  0
  8  9  2  0
  9 10  1  0
 10 11  1  0
 11 12  1  0
 12 13  1  0
 13 14  1  0
 14 15  1  0
 15 16  1  0
 16 17  1  0
 17 18  1  0
 18 19  2  0
 19 20  1  0
 20 21  2  0
 21 22  1  0
 22 23  2  0
 23 24  1  0
 16 25  1  0
 25 26  1  0
 10 27  2  0
 27  6  1  0
 26 12  1  0
 23 18  1  0
  1 28  1  0
  1 29  1  0
  1 30  1  0
  2 31  1  0
  2 32  1  0
  4 33  1  0
  4 34  1  0
  4 35  1  0
  5 36  1  0
  5 37  1  0
  7 38  1  0
  8 39  1  0
  9 40  1  0
 11 41  1  0
 11 42  1  0
 13 43  1  0
 13 44  1  0
 14 45  1  0
 14 46  1  0
 15 47  1  0
 15 48  1  0
 17 49  1  0
 17 50  1  0
 19 51  1  0
 20 52  1  0
 21 53  1  0
 22 54  1  0
 25 55  1  0
 25 56  1  0
 26 57  1  0
 26 58  1  0
 27 59  1  0
M  END
>  <smiles>  (28) 
CCN(C)Cc1cccc(CN2CCCN(Cc3ccccc3F)CC2)c1

>  <score_type>  (28) 
oracle

>  <origin>  (28) 
adg

>  <m_score__min__energy>  (28) 
-6.5800000000000001

>  <m_primary>  (28) 
energy

$$$$
29:0
     RDKit          3D

 29 31  0  0  0  0  0  0  0  0999 V2000
   56.6560   30.3560   43.4020 C   0  0  0  0  0  0  0  0  0  0  0  0
   56.4240   31.2040   44.4960 O   0  0  0  0  0  0  0  0  0  0  0  0
   57.3740   32.0070   45.0770 C   0  0  0  0  0  0  0  0  0  0  0  0
   57.3940   33.3900   44.9530 C   0  0  0  0  0  0  0  0  0  0  0  0
   58.3860   34.1540   45.5650 C   0  0  0  0  0  0  0  0  0  0  0  0
   59.3590   33.4840   46.3090 C   0  0  0  0  0  0  0  0  0  0  0  0
   60.3980   33.9650   46.9840 N   0  0  0  0  0  0  0  0  0  0  0  0
   61.0790   32.9420   47.5580 C   0  0  0  0  0  0  0  0  0  0  0  0
   62.2820   33.0690   48.3820 C   0  0  0  0  0  0  0  0  0  0  0  0
   63.3990   32.2820   48.2010 C   0  0  0  0  0  0  0  0  0  0  0  0
   64.5170   32.4470   49.0150 C   0  0  0  0  0  0  0  0  0  0  0  0
   64.5260   33.4070   50.0200 C   0  0  0  0  0  0  0  0  0  0  0  0
   65.6200   33.5640   50.8120 F   0  0  0  0  0  0  0  0  0  0  0  0
   63.4150   34.1990   50.2080 C   0  0  0  0  0  0  0  0  0  0  0  0
   63.3850   35.1540   51.1870 F   0  0  0  0  0  0  0  0  0  0  0  0
   62.3240   34.0100   49.3870 C   0  0  0  0  0  0  0  0  0  0  0  0
   60.4320   31.8260   47.2200 N   0  0  0  0  0  0  0  0  0  0  0  0
   59.3560   32.1110   46.4430 C   0  0  0  0  0  0  0  0  0  0  0  0
   58.3670   31.3910   45.8270 C   0  0  0  0  0  0  0  0  0  0  0  0
   56.9299   29.3547   43.7658 H   0  0  0  0  0  0  0  0  0  0  0  0
   55.7436   30.2873   42.7914 H   0  0  0  0  0  0  0  0  0  0  0  0
   57.4763   30.7613   42.7914 H   0  0  0  0  0  0  0  0  0  0  0  0
   56.6135   33.8911   44.3616 H   0  0  0  0  0  0  0  0  0  0  0  0
   58.4018   35.2493   45.4651 H   0  0  0  0  0  0  0  0  0  0  0  0
   60.6540   34.9760   47.0600 H   0  0  0  0  0  0  0  0  0  0  0  0
   63.4075   31.5189   47.4088 H   0  0  0  0  0  0  0  0  0  0  0  0
   65.4014   31.8114   48.8610 H   0  0  0  0  0  0  0  0  0  0  0  0
   61.4393   34.6448   49.5428 H   0  0  0  0  0  0  0  0  0  0  0  0
   58.3592   30.2958   45.9291 H   0  0  0  0  0  0  0  0  0  0  0  0
  1  2  1  0
  2  3  1  0
  3  4  2  0
  4  5  1  0
  5  6  2  0
  6  7  1  0
  7  8  1  0
  8  9  1  0
  9 10  2  0
 10 11  1  0
 11 12  2  0
 12 13  1  0
 12 14  1  0
 14 15  1  0
 14 16  2  0
  8 17  2  0
 17 18  1  0
 18 19  2  0
 19  3  1  0
 18  6  1  0
 16  9  1  0
  1 20  1  0
  1 21  1  0
  1 22  1  0
  4 23  1  0
  5 24  1  0
  7 25  1  0
 10 26  1  0
 11 27  1  0
 16 28  1  0
 19 29  1  0
M  END
>  <smiles>  (29) 
COc1ccc2[nH]c(-c3ccc(F)c(F)c3)nc2c1

>  <score_type>  (29) 
oracle

>  <origin>  (29) 
adg

>  <m_score__min__energy>  (29) 
-5.7599999999999998

>  <m_primary>  (29) 
energy

$$$$
30:0
     RDKit          3D

 25 26  0  0  0  0  0  0  0  0999 V2000
   57.3720   27.4400   45.2030 C   0  0  0  0  0  0  0  0  0  0  0  0
   57.4920   28.7720   45.9390 C   0  0  0  0  0  0  0  0  0  0  0  0
   56.6630   29.7370   45.3270 O   0  0  0  0  0  0  0  0  0  0  0  0
   57.0810   30.7530   44.5100 C   0  0  0  0  0  0  0  0  0  0  0  0
   56.9900   30.5480   43.1890 C   0  0  0  0  0  0  0  0  0  0  0  0
   57.4050   31.5630   42.2210 C   0  0  0  0  0  0  0  0  0  0  0  0
   57.8860   32.7160   42.6590 C   0  0  0  0  0  0  0  0  0  0  0  0
   58.0110   33.0050   44.0480 N   0  0  0  0  0  0  0  0  0  0  0  0
   58.4940   34.1610   44.7320 C   0  0  0  0  0  0  0  0  0  0  0  0
   58.3690   33.8440   46.1980 C   0  0  0  0  0  0  0  0  0  0  0  0
   57.8070   32.4870   46.2030 C   0  0  0  0  0  0  0  0  0  0  0  0
   57.6070   32.0200   44.9870 C   0  0  0  0  0  0  0  0  0  0  0  0
   57.2983   26.6221   45.9348 H   0  0  0  0  0  0  0  0  0  0  0  0
   56.4711   27.4496   44.5719 H   0  0  0  0  0  0  0  0  0  0  0  0
   58.2601   27.2885   44.5719 H   0  0  0  0  0  0  0  0  0  0  0  0
   57.1841   28.6386   46.9866 H   0  0  0  0  0  0  0  0  0  0  0  0
   58.5365   29.1147   45.8985 H   0  0  0  0  0  0  0  0  0  0  0  0
   56.5923   29.5901   42.8225 H   0  0  0  0  0  0  0  0  0  0  0  0
   57.3184   31.3705   41.1414 H   0  0  0  0  0  0  0  0  0  0  0  0
   58.1991   33.4749   41.9269 H   0  0  0  0  0  0  0  0  0  0  0  0
   59.5447   34.3523   44.4685 H   0  0  0  0  0  0  0  0  0  0  0  0
   57.9255   35.0626   44.4601 H   0  0  0  0  0  0  0  0  0  0  0  0
   59.3521   33.8653   46.6911 H   0  0  0  0  0  0  0  0  0  0  0  0
   57.7480   34.5694   46.7440 H   0  0  0  0  0  0  0  0  0  0  0  0
   57.5785   31.9233   47.1196 H   0  0  0  0  0  0  0  0  0  0  0  0
  1  2  1  0
  2  3  1  0
  3  4  1  0
  4  5  2  0
  5  6  1  0
  6  7  2  0
  7  8  1  0
  8  9  1  0
  9 10  1  0
 10 11  1  0
 11 12  2  0
 12  4  1  0
 12  8  1  0
  1 13  1  0
  1 14  1  0
  1 15  1  0
  2 16  1  0
  2 17  1  0
  5 18  1  0
  6 19  1  0
  7 20  1  0
  9 21  1  0
  9 22  1  0
 10 23  1  0
 10 24  1  0
 11 25  1  0
M  END
>  <smiles>  (30) 
CCOC1=CC=CN2CCC=C12

>  <score_type>  (30) 
oracle

>  <origin>  (30) 
adg

>  <m_score__min__energy>  (30) 
-5.4000000000000004

>  <m_primary>  (30) 
energy

$$$$
31:0
     RDKit          3D

 34 36  0  0  0  0  0  0  0  0999 V2000
   57.3930   29.3440   45.5220 C   0  0  0  0  0  0  0  0  0  0  0  0
   56.5910   30.3070   44.8440 N   0  0  0  0  0  0  0  0  0  0  0  0
   55.5330   29.7600   44.0550 C   0  0  0  0  0  0  0  0  0  0  0  0
   57.3440   31.3330   44.1780 C   0  0  0  0  0  0  0  0  0  0  0  0
   58.0130   32.1700   45.2070 C   0  0  0  0  0  0  0  0  0  0  0  0
   57.2670   33.2310   45.7160 C   0  0  0  0  0  0  0  0  0  0  0  0
   57.7800   34.0640   46.6650 C   0  0  0  0  0  0  0  0  0  0  0  0
   59.0770   33.8310   47.1170 C   0  0  0  0  0  0  0  0  0  0  0  0
   59.8440   32.7830   46.6300 C   0  0  0  0  0  0  0  0  0  0  0  0
   59.2910   31.9470   45.6590 C   0  0  0  0  0  0  0  0  0  0  0  0
   61.1410   32.8150   47.3040 C   0  0  0  0  0  0  0  0  0  0  0  0
   62.2650   32.0080   47.1930 C   0  0  0  0  0  0  0  0  0  0  0  0
   63.3820   32.2650   47.9660 C   0  0  0  0  0  0  0  0  0  0  0  0
   63.3530   33.3370   48.8410 C   0  0  0  0  0  0  0  0  0  0  0  0
   62.2450   34.1610   48.9730 C   0  0  0  0  0  0  0  0  0  0  0  0
   61.1320   33.8820   48.1860 C   0  0  0  0  0  0  0  0  0  0  0  0
   59.8380   34.5940   48.1320 C   0  0  0  0  0  0  0  0  0  0  0  0
   57.2836   29.4754   46.6086 H   0  0  0  0  0  0  0  0  0  0  0  0
   57.0671   28.3318   45.2404 H   0  0  0  0  0  0  0  0  0  0  0  0
   58.4474   29.4814   45.2404 H   0  0  0  0  0  0  0  0  0  0  0  0
   54.7527   29.3566   44.7171 H   0  0  0  0  0  0  0  0  0  0  0  0
   55.1034   30.5490   43.4202 H   0  0  0  0  0  0  0  0  0  0  0  0
   55.9283   28.9533   43.4202 H   0  0  0  0  0  0  0  0  0  0  0  0
   58.1002   30.8733   43.5246 H   0  0  0  0  0  0  0  0  0  0  0  0
   56.6745   31.9536   43.5644 H   0  0  0  0  0  0  0  0  0  0  0  0
   56.2452   33.3995   45.3451 H   0  0  0  0  0  0  0  0  0  0  0  0
   57.1851   34.8989   47.0638 H   0  0  0  0  0  0  0  0  0  0  0  0
   59.8786   31.1092   45.2554 H   0  0  0  0  0  0  0  0  0  0  0  0
   62.2669   31.1628   46.4890 H   0  0  0  0  0  0  0  0  0  0  0  0
   64.2766   31.6298   47.8872 H   0  0  0  0  0  0  0  0  0  0  0  0
   64.2421   33.5433   49.4549 H   0  0  0  0  0  0  0  0  0  0  0  0
   62.2462   35.0067   49.6764 H   0  0  0  0  0  0  0  0  0  0  0  0
   59.3314   34.5670   49.1080 H   0  0  0  0  0  0  0  0  0  0  0  0
   59.9414   35.6605   47.8833 H   0  0  0  0  0  0  0  0  0  0  0  0
  1  2  1  0
  2  3  1  0
  2  4  1  0
  4  5  1  0
  5  6  2  0
  6  7  1  0
  7  8  2  0
  8  9  1  0
  9 10  2  0
  9 11  1  0
 11 12  2  0
 12 13  1  0
 13 14  2  0
 14 15  1  0
 15 16  2  0
 16 17  1  0
 10  5  1  0
 16 11  1  0
 17  8  1  0
  1 18  1  0
  1 19  1  0
  1 20  1  0
  3 21  1  0
  3 22  1  0
  3 23  1  0
  4 24  1  0
  4 25  1  0
  6 26  1  0
  7 27  1  0
 10 28  1  0
 12 29  1  0
 13 30  1  0
 14 31  1  0
 15 32  1  0
 17 33  1  0
 17 34  1  0
M  END
>  <smiles>  (31) 
CN(C)Cc1ccc2c(c1)-c1ccccc1C2

>  <score_type>  (31) 
oracle

>  <origin>  (31) 
adg

>  <m_score__min__energy>  (31) 
-7.0999999999999996

>  <m_primary>  (31) 
energy

$$$$
