0:0
     RDKit          3D

 47 47  0  0  0  0  0  0  0  0999 V2000
   63.4030   33.9130   46.3780 C   0  0  0  0  0  0  0  0  0  0  0  0
   63.4550   32.7160   47.3270 C   0  0  0  0  0  0  0  0  0  0  0  0
   62.0810   32.0580   47.5340 C   0  0  0  0  0  0  0  0  0  0  0  0
   61.3450   32.5980   48.7720 C   0  0  0  0  0  0  0  0  0  0  0  0
   59.9390   31.9850   48.9300 C   0  0  0  0  0  0  0  0  0  0  0  0
   58.8000   32.9750   48.6330 C   0  0  0  0  0  0  0  0  0  0  0  0
   58.7460   33.3250   47.2070 N   0  0  0  0  0  0  0  0  0  0  0  0
   58.0910   32.4990   46.3850 N   0  0  0  0  0  0  0  0  0  0  0  0
   58.0050   32.7160   45.0470 C   0  0  0  0  0  0  0  0  0  0  0  0
   57.3470   31.7120   44.1980 C   0  0  0  0  0  0  0  0  0  0  0  0
   57.5240   31.7120   42.9490 O   0  0  0  0  0  0  0  0  0  0  0  0
   56.5550   30.7280   44.8010 O   0  0  0  0  0  0  0  0  0  0  0  0
   56.3620   29.4320   44.2410 C   0  0  0  0  0  0  0  0  0  0  0  0
   56.7800   28.3720   45.2220 C   0  0  0  0  0  0  0  0  0  0  0  0
   55.9270   27.5350   45.6230 O   0  0  0  0  0  0  0  0  0  0  0  0
   58.1710   28.3030   45.7170 C   0  0  0  0  0  0  0  0  0  0  0  0
   58.7200   27.1790   45.8750 O   0  0  0  0  0  0  0  0  0  0  0  0
   58.8970   29.5030   46.0260 N   0  0  0  0  0  0  0  0  0  0  0  0
   60.2490   29.4480   46.5800 C   0  0  0  0  0  0  0  0  0  0  0  0
   60.2510   28.7900   47.9570 C   0  0  0  0  0  0  0  0  0  0  0  0
   58.6030   33.8570   44.5040 C   0  0  0  0  0  0  0  0  0  0  0  0
   59.2810   34.7320   45.3480 C   0  0  0  0  0  0  0  0  0  0  0  0
   59.3540   34.4510   46.7130 C   0  0  0  0  0  0  0  0  0  0  0  0
   59.9850   35.2380   47.4700 O   0  0  0  0  0  0  0  0  0  0  0  0
   63.3626   34.8435   46.9633 H   0  0  0  0  0  0  0  0  0  0  0  0
   64.3018   33.9175   45.7439 H   0  0  0  0  0  0  0  0  0  0  0  0
   62.5072   33.8395   45.7439 H   0  0  0  0  0  0  0  0  0  0  0  0
   64.1439   31.9668   46.9099 H   0  0  0  0  0  0  0  0  0  0  0  0
   63.7959   33.0846   48.3057 H   0  0  0  0  0  0  0  0  0  0  0  0
   61.4617   32.2491   46.6452 H   0  0  0  0  0  0  0  0  0  0  0  0
   62.2479   30.9819   47.6896 H   0  0  0  0  0  0  0  0  0  0  0  0
   61.9375   32.3599   49.6677 H   0  0  0  0  0  0  0  0  0  0  0  0
   61.2265   33.6843   48.6461 H   0  0  0  0  0  0  0  0  0  0  0  0
   59.8503   31.1347   48.2378 H   0  0  0  0  0  0  0  0  0  0  0  0
   59.8359   31.6800   49.9818 H   0  0  0  0  0  0  0  0  0  0  0  0
   57.8435   32.5167   48.9246 H   0  0  0  0  0  0  0  0  0  0  0  0
   58.9855   33.8952   49.2064 H   0  0  0  0  0  0  0  0  0  0  0  0
   55.2986   29.2983   43.9936 H   0  0  0  0  0  0  0  0  0  0  0  0
   56.9749   29.3401   43.3322 H   0  0  0  0  0  0  0  0  0  0  0  0
   58.4370   30.4300   45.8730 H   0  0  0  0  0  0  0  0  0  0  0  0
   60.8916   28.8663   45.9027 H   0  0  0  0  0  0  0  0  0  0  0  0
   60.6270   30.4759   46.6829 H   0  0  0  0  0  0  0  0  0  0  0  0
   60.2486   29.5677   48.7350 H   0  0  0  0  0  0  0  0  0  0  0  0
   59.3548   28.1613   48.0643 H   0  0  0  0  0  0  0  0  0  0  0  0
   61.1510   28.1668   48.0643 H   0  0  0  0  0  0  0  0  0  0  0  0
   58.5387   34.0605   43.4249 H   0  0  0  0  0  0  0  0  0  0  0  0
   59.7554   35.6377   44.9423 H   0  0  0  0  0  0  0  0  0  0  0  0
  1  2  1  0
  2  3  1  0
  3  4  1  0
  4  5  1  0
  5  6  1  0
  6  7  1  0
  7  8  1  0
  8  9  2  0
  9 10  1  0
 10 11  2  0
 10 12  1  0
 12 13  1  0
 13 14  1  0
 14 15  2  0
 14 16  1  0
 16 17  2  0
 16 18  1  0
 18 19  1  0
 19 20  1  0
  9 21  1  0
 21 22  2  0
 22 23  1  0
 23 24  2  0
 23  7  1  0
  1 25  1  0
  1 26  1  0
  1 27  1  0
  2 28  1  0
  2 29  1  0
  3 30  1  0
  3 31  1  0
  4 32  1  0
  4 33  1  0
  5 34  1  0
  5 35  1  0
  6 36  1  0
  6 37  1  0
 13 38  1  0
 13 39  1  0
 18 40  1  0
 19 41  1  0
 19 42  1  0
 20 43  1  0
 20 44  1  0
 20 45  1  0
 21 46  1  0
 22 47  1  0
M  END
>  <UniqueID>  (1) 
1

>  <SMILES>  (1) 
CCCCCCn1nc(C(=O)OCC(=O)C(=O)NCC)ccc1=O

>  <Energy>  (1) 
28.306816586850385

>  <Genealogy>  (1) 
CCCCCCn1nc(C(=O)OCC(=O)C(=O)NCC)ccc1=O (3D coordinates assigned)
CCCCCCn1nc(C(=O)OCC(=O)C(=O)NCC)ccc1=O (optimized conformer: 28.306816586850385 kcal/mol)

>  <smiles>  (1) 
CCCCCCn1nc(C(=O)OCC(=O)C(=O)NCC)ccc1=O

>  <score_type>  (1) 
oracle

>  <origin>  (1) 
adg

>  <m_score__min__energy>  (1) 
-6.9000000000000004

>  <m_primary>  (1) 
energy

$$$$
1:0
     RDKit          3D

 28 29  0  0  0  0  0  0  0  0999 V2000
   55.5820   25.7650   45.9850 C   0  0  0  0  0  0  0  0  0  0  0  0
   55.9600   27.1320   45.8660 O   0  0  0  0  0  0  0  0  0  0  0  0
   57.2700   27.5820   45.6260 C   0  0  0  0  0  0  0  0  0  0  0  0
   58.3890   26.7740   45.9080 C   0  0  0  0  0  0  0  0  0  0  0  0
   59.6780   27.2250   45.6200 C   0  0  0  0  0  0  0  0  0  0  0  0
   59.8680   28.4810   45.0440 C   0  0  0  0  0  0  0  0  0  0  0  0
   58.7690   29.2960   44.7670 C   0  0  0  0  0  0  0  0  0  0  0  0
   57.4670   28.8660   45.0710 C   0  0  0  0  0  0  0  0  0  0  0  0
   56.3260   29.7710   44.7870 C   0  0  0  0  0  0  0  0  0  0  0  0
   55.1520   29.3260   44.8830 O   0  0  0  0  0  0  0  0  0  0  0  0
   56.5110   31.1500   44.4360 N   0  0  0  0  0  0  0  0  0  0  0  0
   57.3530   32.0950   45.1140 C   0  0  0  0  0  0  0  0  0  0  0  0
   57.6990   33.3290   44.5410 C   0  0  0  0  0  0  0  0  0  0  0  0
   58.5210   34.2150   45.2410 C   0  0  0  0  0  0  0  0  0  0  0  0
   58.9750   33.8650   46.5150 C   0  0  0  0  0  0  0  0  0  0  0  0
   60.0070   34.9580   47.4160 Cl  0  0  0  0  0  0  0  0  0  0  0  0
   58.6100   32.6770   47.0650 N   0  0  0  0  0  0  0  0  0  0  0  0
   57.8110   31.7990   46.4030 C   0  0  0  0  0  0  0  0  0  0  0  0
   55.5077   25.4964   47.0491 H   0  0  0  0  0  0  0  0  0  0  0  0
   54.6074   25.6104   45.4989 H   0  0  0  0  0  0  0  0  0  0  0  0
   56.3387   25.1317   45.4989 H   0  0  0  0  0  0  0  0  0  0  0  0
   58.2458   25.7807   46.3583 H   0  0  0  0  0  0  0  0  0  0  0  0
   60.5458   26.5886   45.8477 H   0  0  0  0  0  0  0  0  0  0  0  0
   60.8843   28.8295   44.8079 H   0  0  0  0  0  0  0  0  0  0  0  0
   58.9240   30.2830   44.3069 H   0  0  0  0  0  0  0  0  0  0  0  0
   57.3234   33.5976   43.5426 H   0  0  0  0  0  0  0  0  0  0  0  0
   58.8079   35.1782   44.7939 H   0  0  0  0  0  0  0  0  0  0  0  0
   57.5231   30.8517   46.8824 H   0  0  0  0  0  0  0  0  0  0  0  0
  1  2  1  0
  2  3  1  0
  3  4  2  0
  4  5  1  0
  5  6  2  0
  6  7  1  0
  7  8  2  0
  8  9  1  0
  9 10  2  0
  9 11  1  0
 11 12  1  0
 12 13  2  0
 13 14  1  0
 14 15  2  0
 15 16  1  0
 15 17  1  0
 17 18  2  0
  8  3  1  0
 18 12  1  0
  1 19  1  0
  1 20  1  0
  1 21  1  0
  4 22  1  0
  5 23  1  0
  6 24  1  0
  7 25  1  0
 13 26  1  0
 14 27  1  0
 18 28  1  0
M  CHG  1  11  -1
M  END
>  <UniqueID>  (2) 
2

>  <SMILES>  (2) 
COc1ccccc1C(=O)[N-]c1ccc(Cl)nc1

>  <Energy>  (2) 
36.49635333964877

>  <Genealogy>  (2) 
COc1ccccc1C(=O)[N-]c1ccc(Cl)nc1 (protonated)
COc1ccccc1C(=O)[N-]c1ccc(Cl)nc1 (3D coordinates assigned)
COc1ccccc1C(=O)[N-]c1ccc(Cl)nc1 (optimized conformer: 36.49635333964877 kcal/mol)

>  <smiles>  (2) 
COc1ccccc1C(=O)Nc1ccc(Cl)nc1

>  <score_type>  (2) 
oracle

>  <origin>  (2) 
adg

>  <m_score__min__energy>  (2) 
-8.4800000000000004

>  <m_primary>  (2) 
energy

$$$$
2:0
     RDKit          3D

 59 61  0  0  0  0  0  0  0  0999 V2000
   57.4000   31.6360   44.0560 C   0  0  0  0  0  0  0  0  0  0  0  0
   57.0630   30.7490   45.1240 O   0  0  0  0  0  0  0  0  0  0  0  0
   56.6360   29.4380   44.8970 C   0  0  0  0  0  0  0  0  0  0  0  0
   55.4070   29.1600   44.8660 O   0  0  0  0  0  0  0  0  0  0  0  0
   57.6210   28.4200   44.6820 N   0  0  0  0  0  0  0  0  0  0  0  0
   58.1280   27.5010   45.7080 C   0  0  2  0  0  0  0  0  0  0  0  0
   56.9370   26.6950   46.3100 C   0  0  0  0  0  0  0  0  0  0  0  0
   56.6850   25.2870   45.7000 C   0  0  0  0  0  0  0  0  0  0  0  0
   55.1930   24.9110   45.6220 C   0  0  0  0  0  0  0  0  0  0  0  0
   55.0150   23.4280   45.2530 C   0  0  0  0  0  0  0  0  0  0  0  0
   56.0290   22.9280   44.1940 C   0  0  0  0  0  0  0  0  0  0  0  0
   56.6780   24.0750   43.4110 C   0  0  0  0  0  0  0  0  0  0  0  0
   57.4120   25.0610   44.3430 C   0  0  0  0  0  0  0  0  0  0  0  0
   59.0100   28.2720   46.7020 C   0  0  0  0  0  0  0  0  0  0  0  0
   59.6400   27.6130   47.5230 O   0  0  0  0  0  0  0  0  0  0  0  0
   59.0700   29.7300   46.7970 N   0  0  0  0  0  0  0  0  0  0  0  0
   60.4060   30.2610   46.4370 C   0  0  0  0  0  0  0  0  0  0  0  0
   60.4050   31.8070   46.3780 C   0  0  0  0  0  0  0  0  0  0  0  0
   59.5370   32.4800   47.5000 C   0  0  0  0  0  0  0  0  0  0  0  0
   58.2280   33.0680   46.9200 C   0  0  0  0  0  0  0  0  0  0  0  0
   58.4910   34.5510   46.6360 C   0  0  0  0  0  0  0  0  0  0  0  0
   59.8950   34.8580   47.1420 C   0  0  0  0  0  0  0  0  0  0  0  0
   60.2530   33.7140   48.0720 C   0  0  0  0  0  0  0  0  0  0  0  0
   59.2420   31.4680   48.6320 C   0  0  0  0  0  0  0  0  0  0  0  0
   58.5300   30.2110   48.0980 C   0  0  0  0  0  0  0  0  0  0  0  0
   57.7619   32.5884   44.4707 H   0  0  0  0  0  0  0  0  0  0  0  0
   58.1884   31.1823   43.4375 H   0  0  0  0  0  0  0  0  0  0  0  0
   56.5092   31.8203   43.4375 H   0  0  0  0  0  0  0  0  0  0  0  0
   58.7984   26.7358   45.2896 H   0  0  0  0  0  0  0  0  0  0  0  0
   57.1283   26.5658   47.3855 H   0  0  0  0  0  0  0  0  0  0  0  0
   56.0362   27.2824   46.0786 H   0  0  0  0  0  0  0  0  0  0  0  0
   57.1432   24.5896   46.4167 H   0  0  0  0  0  0  0  0  0  0  0  0
   54.7239   25.0970   46.5994 H   0  0  0  0  0  0  0  0  0  0  0  0
   54.7179   25.5248   44.8426 H   0  0  0  0  0  0  0  0  0  0  0  0
   55.1384   22.8252   46.1648 H   0  0  0  0  0  0  0  0  0  0  0  0
   54.0115   23.3221   44.8150 H   0  0  0  0  0  0  0  0  0  0  0  0
   56.8195   22.3585   44.7046 H   0  0  0  0  0  0  0  0  0  0  0  0
   55.4787   22.3034   43.4749 H   0  0  0  0  0  0  0  0  0  0  0  0
   57.4013   23.6543   42.6970 H   0  0  0  0  0  0  0  0  0  0  0  0
   55.8820   24.6260   42.8887 H   0  0  0  0  0  0  0  0  0  0  0  0
   58.4173   24.6643   44.5479 H   0  0  0  0  0  0  0  0  0  0  0  0
   57.4451   26.0319   43.8269 H   0  0  0  0  0  0  0  0  0  0  0  0
   58.4300   30.1130   46.0630 H   0  0  0  0  0  0  0  0  0  0  0  0
   61.1362   29.9326   47.1913 H   0  0  0  0  0  0  0  0  0  0  0  0
   60.6725   29.8779   45.4409 H   0  0  0  0  0  0  0  0  0  0  0  0
   61.4418   32.1593   46.4825 H   0  0  0  0  0  0  0  0  0  0  0  0
   59.9606   32.0920   45.4129 H   0  0  0  0  0  0  0  0  0  0  0  0
   57.9595   32.5468   45.9893 H   0  0  0  0  0  0  0  0  0  0  0  0
   57.3948   32.9453   47.6276 H   0  0  0  0  0  0  0  0  0  0  0  0
   58.4277   34.7459   45.5553 H   0  0  0  0  0  0  0  0  0  0  0  0
   57.7451   35.1855   47.1371 H   0  0  0  0  0  0  0  0  0  0  0  0
   60.6038   34.9062   46.3022 H   0  0  0  0  0  0  0  0  0  0  0  0
   59.9389   35.8294   47.6562 H   0  0  0  0  0  0  0  0  0  0  0  0
   61.3414   33.5553   48.0849 H   0  0  0  0  0  0  0  0  0  0  0  0
   59.9467   33.9195   49.1083 H   0  0  0  0  0  0  0  0  0  0  0  0
   60.1916   31.1688   49.0996 H   0  0  0  0  0  0  0  0  0  0  0  0
   58.5795   31.9538   49.3635 H   0  0  0  0  0  0  0  0  0  0  0  0
   58.6410   29.4064   48.8398 H   0  0  0  0  0  0  0  0  0  0  0  0
   57.4771   30.4821   47.9308 H   0  0  0  0  0  0  0  0  0  0  0  0
  1  2  1  0
  2  3  1  0
  3  4  2  0
  3  5  1  0
  5  6  1  0
  6  7  1  0
  7  8  1  0
  8  9  1  0
  9 10  1  0
 10 11  1  0
 11 12  1  0
 12 13  1  0
  6 14  1  0
 14 15  2  0
 14 16  1  0
 16 17  1  0
 17 18  1  0
 18 19  1  0
 19 20  1  0
 20 21  1  0
 21 22  1  0
 22 23  1  0
 19 24  1  0
 24 25  1  0
 13  8  1  0
 25 16  1  0
 23 19  1  0
  1 26  1  0
  1 27  1  0
  1 28  1  0
  6 29  1  6
  7 30  1  0
  7 31  1  0
  8 32  1  0
  9 33  1  0
  9 34  1  0
 10 35  1  0
 10 36  1  0
 11 37  1  0
 11 38  1  0
 12 39  1  0
 12 40  1  0
 13 41  1  0
 13 42  1  0
 16 43  1  0
 17 44  1  0
 17 45  1  0
 18 46  1  0
 18 47  1  0
 20 48  1  0
 20 49  1  0
 21 50  1  0
 21 51  1  0
 22 52  1  0
 22 53  1  0
 23 54  1  0
 23 55  1  0
 24 56  1  0
 24 57  1  0
 25 58  1  0
 25 59  1  0
M  CHG  2   5  -1  16   1
M  END
>  <UniqueID>  (3) 
3

>  <SMILES>  (3) 
COC(=O)[N-][C@H](CC1CCCCC1)C(=O)[NH+]1CCC2(CCCC2)CC1

>  <Energy>  (3) 
78.47294363336248

>  <Genealogy>  (3) 
COC(=O)[N-]C(CC1CCCCC1)C(=O)[NH+]1CCC2(CCCC2)CC1 (protonated)
COC(=O)[N-][C@H](CC1CCCCC1)C(=O)[NH+]1CCC2(CCCC2)CC1 (chirality)
COC(=O)[N-][C@H](CC1CCCCC1)C(=O)[NH+]1CCC2(CCCC2)CC1 (3D coordinates assigned)
COC(=O)[N-][C@H](CC1CCCCC1)C(=O)[NH+]1CCC2(CCCC2)CC1 (nonaromatic ring conformer: 78.47294363336248 kcal/mol)

>  <smiles>  (3) 
COC(=O)NC(CC1CCCCC1)C(=O)N1CCC2(CCCC2)CC1

>  <score_type>  (3) 
oracle

>  <origin>  (3) 
adg

>  <m_score__min__energy>  (3) 
-9.1199999999999992

>  <m_primary>  (3) 
energy

$$$$
3:0
     RDKit          3D

 70 75  0  0  0  0  0  0  0  0999 V2000
   57.0400   21.0470   42.8920 C   0  0  0  0  0  0  0  0  0  0  0  0
   55.9270   21.9290   43.0010 O   0  0  0  0  0  0  0  0  0  0  0  0
   55.8770   23.0430   43.8490 C   0  0  0  0  0  0  0  0  0  0  0  0
   54.7280   23.3720   44.5910 C   0  0  0  0  0  0  0  0  0  0  0  0
   54.7510   24.4550   45.4770 C   0  0  0  0  0  0  0  0  0  0  0  0
   55.9110   25.2240   45.6210 C   0  0  0  0  0  0  0  0  0  0  0  0
   57.0510   24.9280   44.8580 C   0  0  0  0  0  0  0  0  0  0  0  0
   58.2650   25.6650   45.0640 N   0  0  0  0  0  0  0  0  0  0  0  0
   59.2050   25.2470   46.1140 C   0  0  0  0  0  0  0  0  0  0  0  0
   60.2600   26.3280   46.3670 C   0  0  0  0  0  0  0  0  0  0  0  0
   59.6040   27.6420   46.4380 N   0  0  0  0  0  0  0  0  0  0  0  0
   59.5840   28.3770   47.6800 C   0  0  0  0  0  0  0  0  0  0  0  0
   59.6910   27.7640   48.7770 O   0  0  0  0  0  0  0  0  0  0  0  0
   59.3920   29.8410   47.6980 C   0  0  0  0  0  0  0  0  0  0  0  0
   59.1320   30.5430   46.5130 C   0  0  0  0  0  0  0  0  0  0  0  0
   58.9480   31.9290   46.5360 C   0  0  0  0  0  0  0  0  0  0  0  0
   59.0210   32.6310   47.7480 C   0  0  0  0  0  0  0  0  0  0  0  0
   58.7720   34.1140   47.7940 C   0  0  0  0  0  0  0  0  0  0  0  0
   60.0270   34.8410   47.6070 N   0  0  0  0  0  0  0  0  0  0  0  0
   61.3300   34.2230   47.5790 C   0  0  0  0  0  0  0  0  0  0  0  0
   61.9970   33.9110   46.3710 C   0  0  0  0  0  0  0  0  0  0  0  0
   63.2540   33.2680   46.3860 C   0  0  0  0  0  0  0  0  0  0  0  0
   63.8730   32.9300   47.6010 C   0  0  0  0  0  0  0  0  0  0  0  0
   63.2090   33.2640   48.7830 C   0  0  0  0  0  0  0  0  0  0  0  0
   61.9790   33.8670   48.7700 C   0  0  0  0  0  0  0  0  0  0  0  0
   61.6080   33.9700   50.0980 C   0  0  0  0  0  0  0  0  0  0  0  0
   62.5900   33.4350   50.8620 N   0  0  0  0  0  0  0  0  0  0  0  0
   63.5650   33.0160   50.0610 N   0  0  0  0  0  0  0  0  0  0  0  0
   64.7630   32.3810   50.5380 C   0  0  0  0  0  0  0  0  0  0  0  0
   64.7120   31.1180   51.1510 C   0  0  0  0  0  0  0  0  0  0  0  0
   65.8860   30.5030   51.5970 C   0  0  0  0  0  0  0  0  0  0  0  0
   67.1190   31.1440   51.4290 C   0  0  0  0  0  0  0  0  0  0  0  0
   67.1780   32.3940   50.8070 C   0  0  0  0  0  0  0  0  0  0  0  0
   66.0050   33.0080   50.3550 C   0  0  0  0  0  0  0  0  0  0  0  0
   59.2850   31.9300   48.9350 C   0  0  0  0  0  0  0  0  0  0  0  0
   59.4800   30.5450   48.9090 C   0  0  0  0  0  0  0  0  0  0  0  0
   58.7180   28.0590   45.3360 C   0  0  0  0  0  0  0  0  0  0  0  0
   58.4820   26.9210   44.3330 C   0  0  0  0  0  0  0  0  0  0  0  0
   57.0250   23.8350   43.9780 C   0  0  0  0  0  0  0  0  0  0  0  0
   57.3887   20.7706   43.8980 H   0  0  0  0  0  0  0  0  0  0  0  0
   56.7376   20.1407   42.3469 H   0  0  0  0  0  0  0  0  0  0  0  0
   57.8533   21.5485   42.3469 H   0  0  0  0  0  0  0  0  0  0  0  0
   53.8101   22.7771   44.4746 H   0  0  0  0  0  0  0  0  0  0  0  0
   53.8534   24.7027   46.0626 H   0  0  0  0  0  0  0  0  0  0  0  0
   55.9294   26.0619   46.3334 H   0  0  0  0  0  0  0  0  0  0  0  0
   58.6472   25.0638   47.0442 H   0  0  0  0  0  0  0  0  0  0  0  0
   59.7147   24.3298   45.7838 H   0  0  0  0  0  0  0  0  0  0  0  0
   60.7753   26.1230   47.3170 H   0  0  0  0  0  0  0  0  0  0  0  0
   60.9925   26.3264   45.5464 H   0  0  0  0  0  0  0  0  0  0  0  0
   59.0723   29.9999   45.5583 H   0  0  0  0  0  0  0  0  0  0  0  0
   58.7453   32.4706   45.6003 H   0  0  0  0  0  0  0  0  0  0  0  0
   58.0692   34.3898   46.9939 H   0  0  0  0  0  0  0  0  0  0  0  0
   58.3464   34.3771   48.7736 H   0  0  0  0  0  0  0  0  0  0  0  0
   59.9490   35.8570   47.3680 H   0  0  0  0  0  0  0  0  0  0  0  0
   61.5312   34.1722   45.4094 H   0  0  0  0  0  0  0  0  0  0  0  0
   63.7541   33.0291   45.4358 H   0  0  0  0  0  0  0  0  0  0  0  0
   64.8473   32.4198   47.6205 H   0  0  0  0  0  0  0  0  0  0  0  0
   60.6725   34.4122   50.4712 H   0  0  0  0  0  0  0  0  0  0  0  0
   63.7446   30.6108   51.2807 H   0  0  0  0  0  0  0  0  0  0  0  0
   65.8406   29.5157   52.0798 H   0  0  0  0  0  0  0  0  0  0  0  0
   68.0417   30.6637   51.7867 H   0  0  0  0  0  0  0  0  0  0  0  0
   68.1477   32.8957   50.6727 H   0  0  0  0  0  0  0  0  0  0  0  0
   66.0565   33.9860   49.8542 H   0  0  0  0  0  0  0  0  0  0  0  0
   59.3388   32.4724   49.8905 H   0  0  0  0  0  0  0  0  0  0  0  0
   59.7032   30.0056   49.8413 H   0  0  0  0  0  0  0  0  0  0  0  0
   57.7500   28.3703   45.7556 H   0  0  0  0  0  0  0  0  0  0  0  0
   59.2031   28.8899   44.8028 H   0  0  0  0  0  0  0  0  0  0  0  0
   57.5960   27.1480   43.7219 H   0  0  0  0  0  0  0  0  0  0  0  0
   59.3605   26.8190   43.6789 H   0  0  0  0  0  0  0  0  0  0  0  0
   57.9182   23.5971   43.3816 H   0  0  0  0  0  0  0  0  0  0  0  0
  1  2  1  0
  2  3  1  0
  3  4  2  0
  4  5  1  0
  5  6  2  0
  6  7  1  0
  7  8  1  0
  8  9  1  0
  9 10  1  0
 10 11  1  0
 11 12  1  0
 12 13  2  0
 12 14  1  0
 14 15  2  0
 15 16  1  0
 16 17  2  0
 17 18  1  0
 18 19  1  0
 19 20  1  0
 20 21  2  0
 21 22  1  0
 22 23  2  0
 23 24  1  0
 24 25  2  0
 25 26  1  0
 26 27  2  0
 27 28  1  0
 28 29  1  0
 29 30  2  0
 30 31  1  0
 31 32  2  0
 32 33  1  0
 33 34  2  0
 17 35  1  0
 35 36  2  0
 11 37  1  0
 37 38  1  0
  7 39  2  0
 39  3  1  0
 38  8  1  0
 36 14  1  0
 25 20  1  0
 34 29  1  0
 28 24  1  0
  1 40  1  0
  1 41  1  0
  1 42  1  0
  4 43  1  0
  5 44  1  0
  6 45  1  0
  9 46  1  0
  9 47  1  0
 10 48  1  0
 10 49  1  0
 15 50  1  0
 16 51  1  0
 18 52  1  0
 18 53  1  0
 19 54  1  0
 21 55  1  0
 22 56  1  0
 23 57  1  0
 26 58  1  0
 30 59  1  0
 31 60  1  0
 32 61  1  0
 33 62  1  0
 34 63  1  0
 35 64  1  0
 36 65  1  0
 37 66  1  0
 37 67  1  0
 38 68  1  0
 38 69  1  0
 39 70  1  0
M  END
>  <UniqueID>  (4) 
4

>  <SMILES>  (4) 
COc1cccc(N2CCN(C(=O)c3ccc(CNc4cccc5c4cnn5-c4ccccc4)cc3)CC2)c1

>  <Energy>  (4) 
132.50602760400602

>  <Genealogy>  (4) 
COc1cccc(N2CCN(C(=O)c3ccc(CNc4cccc5c4cnn5-c4ccccc4)cc3)CC2)c1 (3D coordinates assigned)
COc1cccc(N2CCN(C(=O)c3ccc(CNc4cccc5c4cnn5-c4ccccc4)cc3)CC2)c1 (nonaromatic ring conformer: 132.50602760400602 kcal/mol)

>  <smiles>  (4) 
COc1cccc(N2CCN(C(=O)c3ccc(CNc4cccc5c4cnn5-c4ccccc4)cc3)CC2)c1

>  <score_type>  (4) 
oracle

>  <origin>  (4) 
adg

>  <m_score__min__energy>  (4) 
-9.8499999999999996

>  <m_primary>  (4) 
energy

$$$$
4:0
     RDKit          3D

 46 48  0  0  0  0  0  0  0  0999 V2000
   59.4910   28.2640   44.5860 C   0  0  0  0  0  0  0  0  0  0  0  0
   58.5560   28.0420   45.8040 C   0  0  2  0  0  0  0  0  0  0  0  0
   58.0120   29.4180   46.2900 C   0  0  0  0  0  0  0  0  0  0  0  0
   56.8160   29.8280   45.5560 N   0  0  0  0  0  0  0  0  0  0  0  0
   56.7760   30.9100   44.6160 C   0  0  0  0  0  0  0  0  0  0  0  0
   56.0430   30.8250   43.5940 O   0  0  0  0  0  0  0  0  0  0  0  0
   57.5770   32.1300   44.8650 C   0  0  0  0  0  0  0  0  0  0  0  0
   57.7440   32.5800   46.1860 C   0  0  0  0  0  0  0  0  0  0  0  0
   58.4880   33.7340   46.4400 C   0  0  0  0  0  0  0  0  0  0  0  0
   59.0480   34.4270   45.4130 N   0  0  0  0  0  0  0  0  0  0  0  0
   58.9170   34.0160   44.1240 C   0  0  0  0  0  0  0  0  0  0  0  0
   58.1900   32.8590   43.8180 C   0  0  0  0  0  0  0  0  0  0  0  0
   58.1380   32.3400   42.1360 Cl  0  0  0  0  0  0  0  0  0  0  0  0
   59.3110   27.3520   46.9680 C   0  0  0  0  0  0  0  0  0  0  0  0
   59.8720   25.9730   46.5860 C   0  0  0  0  0  0  0  0  0  0  0  0
   58.9560   25.1650   45.6510 C   0  0  0  0  0  0  0  0  0  0  0  0
   57.5950   25.7100   45.5910 N   0  0  0  0  0  0  0  0  0  0  0  0
   56.4950   24.8020   45.4170 C   0  0  0  0  0  0  0  0  0  0  0  0
   55.4030   25.0350   46.0020 O   0  0  0  0  0  0  0  0  0  0  0  0
   56.6210   23.5980   44.5710 C   0  0  0  0  0  0  0  0  0  0  0  0
   55.7930   23.3860   43.4570 C   0  0  0  0  0  0  0  0  0  0  0  0
   55.9500   22.2660   42.7090 N   0  0  0  0  0  0  0  0  0  0  0  0
   56.8990   21.3420   43.0120 C   0  0  0  0  0  0  0  0  0  0  0  0
   57.7310   21.5490   44.1120 C   0  0  0  0  0  0  0  0  0  0  0  0
   57.5770   22.6720   44.8620 N   0  0  0  0  0  0  0  0  0  0  0  0
   57.3450   27.1490   45.3910 C   0  0  0  0  0  0  0  0  0  0  0  0
   60.5041   28.5046   44.9405 H   0  0  0  0  0  0  0  0  0  0  0  0
   59.5234   27.3486   43.9769 H   0  0  0  0  0  0  0  0  0  0  0  0
   59.1084   29.0963   43.9769 H   0  0  0  0  0  0  0  0  0  0  0  0
   57.7637   29.3435   47.3590 H   0  0  0  0  0  0  0  0  0  0  0  0
   58.7929   30.1722   46.1127 H   0  0  0  0  0  0  0  0  0  0  0  0
   57.2891   32.0237   47.0188 H   0  0  0  0  0  0  0  0  0  0  0  0
   58.6215   34.0836   47.4744 H   0  0  0  0  0  0  0  0  0  0  0  0
   59.6030   35.2870   45.6200 H   0  0  0  0  0  0  0  0  0  0  0  0
   59.3854   34.5964   43.3155 H   0  0  0  0  0  0  0  0  0  0  0  0
   60.1469   27.9977   47.2752 H   0  0  0  0  0  0  0  0  0  0  0  0
   58.5890   27.1991   47.7837 H   0  0  0  0  0  0  0  0  0  0  0  0
   60.8387   26.1198   46.0820 H   0  0  0  0  0  0  0  0  0  0  0  0
   59.9652   25.3966   47.5183 H   0  0  0  0  0  0  0  0  0  0  0  0
   59.3860   25.1770   44.6386 H   0  0  0  0  0  0  0  0  0  0  0  0
   58.8897   24.1418   46.0494 H   0  0  0  0  0  0  0  0  0  0  0  0
   55.0215   24.1242   43.1926 H   0  0  0  0  0  0  0  0  0  0  0  0
   57.0101   20.4382   42.3949 H   0  0  0  0  0  0  0  0  0  0  0  0
   58.5044   20.8106   44.3701 H   0  0  0  0  0  0  0  0  0  0  0  0
   57.1286   27.3224   44.3265 H   0  0  0  0  0  0  0  0  0  0  0  0
   56.4968   27.4277   46.0335 H   0  0  0  0  0  0  0  0  0  0  0  0
  2  1  1  6
  2  3  1  0
  3  4  1  0
  4  5  1  0
  5  6  2  0
  5  7  1  0
  7  8  2  0
  8  9  1  0
  9 10  2  0
 10 11  1  0
 11 12  2  0
 12 13  1  0
  2 14  1  0
 14 15  1  0
 15 16  1  0
 16 17  1  0
 17 18  1  0
 18 19  2  0
 18 20  1  0
 20 21  2  0
 21 22  1  0
 22 23  2  0
 23 24  1  0
 24 25  2  0
 17 26  1  0
 26  2  1  0
 12  7  1  0
 25 20  1  0
  1 27  1  0
  1 28  1  0
  1 29  1  0
  3 30  1  0
  3 31  1  0
  8 32  1  0
  9 33  1  0
 10 34  1  0
 11 35  1  0
 14 36  1  0
 14 37  1  0
 15 38  1  0
 15 39  1  0
 16 40  1  0
 16 41  1  0
 21 42  1  0
 23 43  1  0
 24 44  1  0
 26 45  1  0
 26 46  1  0
M  CHG  2   4  -1  10   1
M  END
>  <UniqueID>  (5) 
5

>  <SMILES>  (5) 
C[C@]1(C[N-]C(=O)c2cc[nH+]cc2Cl)CCCN(C(=O)c2cnccn2)C1

>  <Energy>  (5) 
61.70550400051648

>  <Genealogy>  (5) 
CC1(C[N-]C(=O)c2cc[nH+]cc2Cl)CCCN(C(=O)c2cnccn2)C1 (protonated)
C[C@]1(C[N-]C(=O)c2cc[nH+]cc2Cl)CCCN(C(=O)c2cnccn2)C1 (chirality)
C[C@]1(C[N-]C(=O)c2cc[nH+]cc2Cl)CCCN(C(=O)c2cnccn2)C1 (3D coordinates assigned)
C[C@]1(C[N-]C(=O)c2cc[nH+]cc2Cl)CCCN(C(=O)c2cnccn2)C1 (nonaromatic ring conformer: 61.70550400051648 kcal/mol)

>  <smiles>  (5) 
CC1(CNC(=O)c2ccncc2Cl)CCCN(C(=O)c2cnccn2)C1

>  <score_type>  (5) 
oracle

>  <origin>  (5) 
adg

>  <m_score__min__energy>  (5) 
-9.6799999999999997

>  <m_primary>  (5) 
energy

$$$$
5:0
     RDKit          3D

 48 47  0  0  0  0  0  0  0  0999 V2000
   59.0664   34.6561   52.0921 H   0  0  0  0  0  0  0  0  0  0  0  0
   59.0860   33.6870   51.5720 C   0  0  0  0  0  0  0  0  0  0  0  0
   57.9610   32.8020   51.7360 C   0  0  0  0  0  0  0  0  0  0  0  0
   57.0200   32.0560   51.8490 C   0  0  0  0  0  0  0  0  0  0  0  0
   55.9300   31.1670   51.9640 C   0  0  0  0  0  0  0  0  0  0  0  0
   54.9900   30.4190   52.0470 C   0  0  0  0  0  0  0  0  0  0  0  0
   53.8330   29.5210   52.1620 C   0  0  0  0  0  0  0  0  0  0  0  0
   54.0283   28.6083   51.5799 H   0  0  0  0  0  0  0  0  0  0  0  0
   53.6845   29.2797   53.2249 H   0  0  0  0  0  0  0  0  0  0  0  0
   52.5560   30.1880   51.6330 C   0  0  0  0  0  0  0  0  0  0  0  0
   52.2864   29.7174   50.6760 H   0  0  0  0  0  0  0  0  0  0  0  0
   51.7752   30.0502   52.3955 H   0  0  0  0  0  0  0  0  0  0  0  0
   52.7120   31.7000   51.4070 C   0  0  0  0  0  0  0  0  0  0  0  0
   53.0872   32.1627   52.3317 H   0  0  0  0  0  0  0  0  0  0  0  0
   53.4180   31.8538   50.5776 H   0  0  0  0  0  0  0  0  0  0  0  0
   51.4070   32.3380   51.0380 C   0  0  0  0  0  0  0  0  0  0  0  0
   51.0020   32.3130   49.8470 O   0  0  0  0  0  0  0  0  0  0  0  0
   50.6620   33.0010   52.0030 O   0  0  0  0  0  0  0  0  0  0  0  0
   60.1530   33.3930   50.8210 C   0  0  0  0  0  0  0  0  0  0  0  0
   61.1224   33.8172   51.1213 H   0  0  0  0  0  0  0  0  0  0  0  0
   60.1200   32.5190   49.5890 C   0  0  0  0  0  0  0  0  0  0  0  0
   60.1024   31.4639   49.8995 H   0  0  0  0  0  0  0  0  0  0  0  0
   61.0157   32.7352   48.9881 H   0  0  0  0  0  0  0  0  0  0  0  0
   58.8760   32.8080   48.7250 C   0  0  0  0  0  0  0  0  0  0  0  0
   58.0105   32.9243   49.3939 H   0  0  0  0  0  0  0  0  0  0  0  0
   58.7675   31.9603   48.0324 H   0  0  0  0  0  0  0  0  0  0  0  0
   58.9920   34.0820   47.8550 C   0  0  2  0  0  0  0  0  0  0  0  0
   58.4264   34.8830   48.3535 H   0  0  0  0  0  0  0  0  0  0  0  0
   58.3750   33.8790   46.4590 C   0  0  0  0  0  0  0  0  0  0  0  0
   57.3349   33.5368   46.5641 H   0  0  0  0  0  0  0  0  0  0  0  0
   58.3940   34.8307   45.9078 H   0  0  0  0  0  0  0  0  0  0  0  0
   58.9554   33.1244   45.9078 H   0  0  0  0  0  0  0  0  0  0  0  0
   60.4810   34.5020   47.7280 C   0  0  0  0  0  0  0  0  0  0  0  0
   60.9830   34.3010   48.6859 H   0  0  0  0  0  0  0  0  0  0  0  0
   60.4961   35.5705   47.4671 H   0  0  0  0  0  0  0  0  0  0  0  0
   61.2360   33.7500   46.6130 C   0  0  0  0  0  0  0  0  0  0  0  0
   60.9331   34.1721   45.6434 H   0  0  0  0  0  0  0  0  0  0  0  0
   60.9734   32.6862   46.7094 H   0  0  0  0  0  0  0  0  0  0  0  0
   62.7710   33.8460   46.7270 C   0  0  0  0  0  0  0  0  0  0  0  0
   63.0231   34.7681   47.2712 H   0  0  0  0  0  0  0  0  0  0  0  0
   63.1730   33.8439   45.7031 H   0  0  0  0  0  0  0  0  0  0  0  0
   63.4080   32.6500   47.4690 C   0  0  0  0  0  0  0  0  0  0  0  0
   64.1324   32.1641   46.7988 H   0  0  0  0  0  0  0  0  0  0  0  0
   62.5977   31.9629   47.7541 H   0  0  0  0  0  0  0  0  0  0  0  0
   64.1310   33.0740   48.7490 C   0  0  0  0  0  0  0  0  0  0  0  0
   63.5558   32.7367   49.6239 H   0  0  0  0  0  0  0  0  0  0  0  0
   65.1328   32.6203   48.7717 H   0  0  0  0  0  0  0  0  0  0  0  0
   64.2241   34.1698   48.7717 H   0  0  0  0  0  0  0  0  0  0  0  0
  1  2  1  0
  2  3  1  0
  3  4  3  0
  4  5  1  0
  5  6  3  0
  6  7  1  0
  7  8  1  0
  7  9  1  0
  7 10  1  0
 10 11  1  0
 10 12  1  0
 10 13  1  0
 13 14  1  0
 13 15  1  0
 13 16  1  0
 16 17  2  0
 16 18  1  0
  2 19  2  0
 19 20  1  0
 19 21  1  0
 21 22  1  0
 21 23  1  0
 21 24  1  0
 24 25  1  0
 24 26  1  0
 24 27  1  0
 27 28  1  1
 27 29  1  0
 29 30  1  0
 29 31  1  0
 29 32  1  0
 27 33  1  0
 33 34  1  0
 33 35  1  0
 33 36  1  0
 36 37  1  0
 36 38  1  0
 36 39  1  0
 39 40  1  0
 39 41  1  0
 39 42  1  0
 42 43  1  0
 42 44  1  0
 42 45  1  0
 45 46  1  0
 45 47  1  0
 45 48  1  0
M  CHG  1  18  -1
M  END
>  <UniqueID>  (6) 
6

>  <SMILES>  (6) 
CCCCC[C@@H](C)CC/C=C\C#CC#CCCCC(=O)[O-]

>  <Energy>  (6) 
25.66348477390173

>  <Genealogy>  (6) 
CCCCCC(C)CCC=CC#CC#CCCCC(=O)[O-] (protonated)
CCCCC[C@@H](C)CCC=CC#CC#CCCCC(=O)[O-] (chirality)
CCCCC[C@@H](C)CC/C=C\C#CC#CCCCC(=O)[O-] (cis-trans isomerization)
CCCCC[C@@H](C)CC/C=C\C#CC#CCCCC(=O)[O-] (3D coordinates assigned)
CCCCC[C@@H](C)CC/C=C\C#CC#CCCCC(=O)[O-] (optimized conformer: 25.66348477390173 kcal/mol)

>  <smiles>  (6) 
CCCCCC(C)CCC=CC#CC#CCCCC(=O)O

>  <score_type>  (6) 
oracle

>  <origin>  (6) 
adg

>  <m_score__min__energy>  (6) 
-10.58

>  <m_primary>  (6) 
energy

$$$$
6:0
     RDKit          3D

 25 27  0  0  0  0  0  0  0  0999 V2000
   57.7560   34.1440   46.0010 C   0  0  0  0  0  0  0  0  0  0  0  0
   58.8240   34.5950   45.2220 C   0  0  0  0  0  0  0  0  0  0  0  0
   60.1400   34.3230   45.6090 C   0  0  0  0  0  0  0  0  0  0  0  0
   60.3970   33.5960   46.7840 C   0  0  0  0  0  0  0  0  0  0  0  0
   61.7860   33.3120   47.1900 C   0  0  0  0  0  0  0  0  0  0  0  0
   62.8610   33.4430   46.3820 N   0  0  0  0  0  0  0  0  0  0  0  0
   63.9020   33.0940   47.1170 N   0  0  0  0  0  0  0  0  0  0  0  0
   63.4430   32.7650   48.3370 C   0  0  0  0  0  0  0  0  0  0  0  0
   64.2790   32.3180   49.4580 C   0  0  0  0  0  0  0  0  0  0  0  0
   63.8920   31.4230   50.4470 C   0  0  0  0  0  0  0  0  0  0  0  0
   64.8970   31.1810   51.3920 C   0  0  0  0  0  0  0  0  0  0  0  0
   66.0720   31.8820   51.1500 C   0  0  0  0  0  0  0  0  0  0  0  0
   65.8600   32.8040   49.7590 S   0  0  0  0  0  0  0  0  0  0  0  0
   62.1390   32.8960   48.3880 O   0  0  0  0  0  0  0  0  0  0  0  0
   59.3160   33.1460   47.5630 C   0  0  0  0  0  0  0  0  0  0  0  0
   58.0020   33.4200   47.1710 C   0  0  0  0  0  0  0  0  0  0  0  0
   56.7218   34.3585   45.6938 H   0  0  0  0  0  0  0  0  0  0  0  0
   58.6295   35.1655   44.3019 H   0  0  0  0  0  0  0  0  0  0  0  0
   60.9774   34.6795   44.9912 H   0  0  0  0  0  0  0  0  0  0  0  0
   64.8920   33.0860   46.7840 H   0  0  0  0  0  0  0  0  0  0  0  0
   62.8984   30.9526   50.4843 H   0  0  0  0  0  0  0  0  0  0  0  0
   64.7682   30.4997   52.2459 H   0  0  0  0  0  0  0  0  0  0  0  0
   66.9845   31.8411   51.7629 H   0  0  0  0  0  0  0  0  0  0  0  0
   59.5050   32.5760   48.4846 H   0  0  0  0  0  0  0  0  0  0  0  0
   57.1606   33.0652   47.7844 H   0  0  0  0  0  0  0  0  0  0  0  0
  1  2  2  0
  2  3  1  0
  3  4  2  0
  4  5  1  0
  5  6  2  0
  6  7  1  0
  7  8  2  0
  8  9  1  0
  9 10  2  0
 10 11  1  0
 11 12  2  0
 12 13  1  0
  8 14  1  0
  4 15  1  0
 15 16  2  0
 16  1  1  0
 14  5  1  0
 13  9  1  0
  1 17  1  0
  2 18  1  0
  3 19  1  0
  7 20  1  0
 10 21  1  0
 11 22  1  0
 12 23  1  0
 15 24  1  0
 16 25  1  0
M  CHG  1   7   1
M  END
>  <UniqueID>  (7) 
7

>  <SMILES>  (7) 
c1ccc(-c2n[nH+]c(-c3cccs3)o2)cc1

>  <Energy>  (7) 
88.19186539103268

>  <Genealogy>  (7) 
c1ccc(-c2n[nH+]c(-c3cccs3)o2)cc1 (protonated)
c1ccc(-c2n[nH+]c(-c3cccs3)o2)cc1 (3D coordinates assigned)
c1ccc(-c2n[nH+]c(-c3cccs3)o2)cc1 (optimized conformer: 88.19186539103268 kcal/mol)

>  <smiles>  (7) 
c1ccc(-c2nnc(-c3cccs3)o2)cc1

>  <score_type>  (7) 
oracle

>  <origin>  (7) 
adg

>  <m_score__min__energy>  (7) 
-5.04

>  <m_primary>  (7) 
energy

$$$$
7:0
     RDKit          3D

 50 52  0  0  0  0  0  0  0  0999 V2000
   56.3020   29.0020   44.4870 C   0  0  0  0  0  0  0  0  0  0  0  0
   56.8880   30.3270   44.0960 C   0  0  0  0  0  0  0  0  0  0  0  0
   56.9230   30.7120   42.7480 C   0  0  0  0  0  0  0  0  0  0  0  0
   57.4900   31.9390   42.3750 C   0  0  0  0  0  0  0  0  0  0  0  0
   57.5410   32.3390   40.9300 C   0  0  0  0  0  0  0  0  0  0  0  0
   58.0690   32.7590   43.3530 C   0  0  0  0  0  0  0  0  0  0  0  0
   58.0660   32.3720   44.7040 C   0  0  0  0  0  0  0  0  0  0  0  0
   58.6470   33.2270   45.7090 N   0  0  0  0  0  0  0  0  0  0  0  0
   59.6590   34.2200   45.3380 C   0  0  0  0  0  0  0  0  0  0  0  0
   60.5190   34.5950   46.5560 C   0  0  0  0  0  0  0  0  0  0  0  0
   60.7770   33.3990   47.3920 N   0  0  0  0  0  0  0  0  0  0  0  0
   61.7870   33.7250   48.4350 C   0  0  0  0  0  0  0  0  0  0  0  0
   62.9820   32.7370   48.5060 C   0  0  1  0  0  0  0  0  0  0  0  0
   63.5740   32.5480   47.2460 O   0  0  0  0  0  0  0  0  0  0  0  0
   64.0080   33.1570   49.5440 C   0  0  0  0  0  0  0  0  0  0  0  0
   65.3380   32.7170   49.3960 C   0  0  0  0  0  0  0  0  0  0  0  0
   66.3080   33.0490   50.3450 C   0  0  0  0  0  0  0  0  0  0  0  0
   65.9640   33.8190   51.4570 C   0  0  0  0  0  0  0  0  0  0  0  0
   64.6500   34.2550   51.6240 C   0  0  0  0  0  0  0  0  0  0  0  0
   63.6710   33.9280   50.6810 C   0  0  0  0  0  0  0  0  0  0  0  0
   62.4030   34.3620   50.8890 F   0  0  0  0  0  0  0  0  0  0  0  0
   59.5150   32.8750   47.9930 C   0  0  0  0  0  0  0  0  0  0  0  0
   58.2670   33.1130   47.1190 C   0  0  0  0  0  0  0  0  0  0  0  0
   57.4680   31.1550   45.0680 C   0  0  0  0  0  0  0  0  0  0  0  0
   56.2681   28.9254   45.5838 H   0  0  0  0  0  0  0  0  0  0  0  0
   55.2828   28.9180   44.0819 H   0  0  0  0  0  0  0  0  0  0  0  0
   56.9256   28.1914   44.0819 H   0  0  0  0  0  0  0  0  0  0  0  0
   56.5031   30.0474   41.9786 H   0  0  0  0  0  0  0  0  0  0  0  0
   57.6798   33.4277   40.8556 H   0  0  0  0  0  0  0  0  0  0  0  0
   58.3812   31.8277   40.4374 H   0  0  0  0  0  0  0  0  0  0  0  0
   56.5994   32.0549   40.4374 H   0  0  0  0  0  0  0  0  0  0  0  0
   58.5299   33.7140   43.0606 H   0  0  0  0  0  0  0  0  0  0  0  0
   60.3062   33.8012   44.5533 H   0  0  0  0  0  0  0  0  0  0  0  0
   59.1516   35.1238   44.9696 H   0  0  0  0  0  0  0  0  0  0  0  0
   61.4774   35.0091   46.2097 H   0  0  0  0  0  0  0  0  0  0  0  0
   59.9806   35.3423   47.1574 H   0  0  0  0  0  0  0  0  0  0  0  0
   61.1740   32.6660   46.7610 H   0  0  0  0  0  0  0  0  0  0  0  0
   62.1838   34.7295   48.2267 H   0  0  0  0  0  0  0  0  0  0  0  0
   61.2690   33.6590   49.4031 H   0  0  0  0  0  0  0  0  0  0  0  0
   62.5747   31.7675   48.8287 H   0  0  0  0  0  0  0  0  0  0  0  0
   64.5250   32.3100   47.4060 H   0  0  0  0  0  0  0  0  0  0  0  0
   65.6156   32.1059   48.5245 H   0  0  0  0  0  0  0  0  0  0  0  0
   67.3441   32.7031   50.2156 H   0  0  0  0  0  0  0  0  0  0  0  0
   66.7295   34.0820   52.2019 H   0  0  0  0  0  0  0  0  0  0  0  0
   64.3822   34.8598   52.5029 H   0  0  0  0  0  0  0  0  0  0  0  0
   59.6282   31.7921   48.1493 H   0  0  0  0  0  0  0  0  0  0  0  0
   59.3567   33.4205   48.9350 H   0  0  0  0  0  0  0  0  0  0  0  0
   57.5727   32.2685   47.2404 H   0  0  0  0  0  0  0  0  0  0  0  0
   57.7822   34.0484   47.4353 H   0  0  0  0  0  0  0  0  0  0  0  0
   57.4543   30.8484   46.1243 H   0  0  0  0  0  0  0  0  0  0  0  0
  1  2  1  0
  2  3  2  0
  3  4  1  0
  4  5  1  0
  4  6  2  0
  6  7  1  0
  7  8  1  0
  8  9  1  0
  9 10  1  0
 10 11  1  0
 11 12  1  0
 12 13  1  0
 13 14  1  0
 13 15  1  0
 15 16  2  0
 16 17  1  0
 17 18  2  0
 18 19  1  0
 19 20  2  0
 20 21  1  0
 11 22  1  0
 22 23  1  0
  7 24  2  0
 24  2  1  0
 23  8  1  0
 20 15  1  0
  1 25  1  0
  1 26  1  0
  1 27  1  0
  3 28  1  0
  5 29  1  0
  5 30  1  0
  5 31  1  0
  6 32  1  0
  9 33  1  0
  9 34  1  0
 10 35  1  0
 10 36  1  0
 11 37  1  0
 12 38  1  0
 12 39  1  0
 13 40  1  1
 14 41  1  0
 16 42  1  0
 17 43  1  0
 18 44  1  0
 19 45  1  0
 22 46  1  0
 22 47  1  0
 23 48  1  0
 23 49  1  0
 24 50  1  0
M  CHG  1  11   1
M  END
>  <UniqueID>  (8) 
8

>  <SMILES>  (8) 
Cc1cc(C)cc(N2CC[NH+](C[C@@H](O)c3ccccc3F)CC2)c1

>  <Energy>  (8) 
63.30180603574018

>  <Genealogy>  (8) 
Cc1cc(C)cc(N2CC[NH+](CC(O)c3ccccc3F)CC2)c1 (protonated)
Cc1cc(C)cc(N2CC[NH+](C[C@@H](O)c3ccccc3F)CC2)c1 (chirality)
Cc1cc(C)cc(N2CC[NH+](C[C@@H](O)c3ccccc3F)CC2)c1 (3D coordinates assigned)
Cc1cc(C)cc(N2CC[NH+](C[C@@H](O)c3ccccc3F)CC2)c1 (nonaromatic ring conformer: 63.30180603574018 kcal/mol)

>  <smiles>  (8) 
Cc1cc(C)cc(N2CCN(CC(O)c3ccccc3F)CC2)c1

>  <score_type>  (8) 
oracle

>  <origin>  (8) 
adg

>  <m_score__min__energy>  (8) 
-6.2300000000000004

>  <m_primary>  (8) 
energy

$$$$
8:0
     RDKit          3D

 42 44  0  0  0  0  0  0  0  0999 V2000
   56.5880   27.7310   45.6270 O   0  0  0  0  0  0  0  0  0  0  0  0
   57.6470   28.2080   45.1370 C   0  0  0  0  0  0  0  0  0  0  0  0
   57.7680   28.3010   43.6360 C   0  0  0  0  0  0  0  0  0  0  0  0
   56.9620   29.4820   43.0670 C   0  0  0  0  0  0  0  0  0  0  0  0
   56.5810   30.4850   44.1270 C   0  0  0  0  0  0  0  0  0  0  0  0
   55.5070   30.3190   44.7680 O   0  0  0  0  0  0  0  0  0  0  0  0
   57.4560   31.6210   44.4720 C   0  0  0  0  0  0  0  0  0  0  0  0
   58.0560   32.4840   43.5740 C   0  0  0  0  0  0  0  0  0  0  0  0
   58.7470   33.4260   44.2410 N   0  0  0  0  0  0  0  0  0  0  0  0
   58.5850   33.1810   45.5570 C   0  0  0  0  0  0  0  0  0  0  0  0
   59.2000   33.9990   46.6210 C   0  0  0  0  0  0  0  0  0  0  0  0
   58.5500   34.9780   47.0790 O   0  0  0  0  0  0  0  0  0  0  0  0
   60.5420   33.7060   47.1720 C   0  0  0  0  0  0  0  0  0  0  0  0
   61.6800   33.8450   46.3560 C   0  0  0  0  0  0  0  0  0  0  0  0
   62.9550   33.5970   46.8730 C   0  0  0  0  0  0  0  0  0  0  0  0
   63.1080   33.2200   48.2100 C   0  0  0  0  0  0  0  0  0  0  0  0
   61.9870   33.0950   49.0340 C   0  0  0  0  0  0  0  0  0  0  0  0
   60.7100   33.3410   48.5220 C   0  0  0  0  0  0  0  0  0  0  0  0
   57.8000   32.0550   45.7400 C   0  0  0  0  0  0  0  0  0  0  0  0
   58.6830   28.7620   46.0450 C   0  0  0  0  0  0  0  0  0  0  0  0
   59.8260   29.4210   45.5490 C   0  0  0  0  0  0  0  0  0  0  0  0
   60.7620   29.9700   46.4270 C   0  0  0  0  0  0  0  0  0  0  0  0
   60.5780   29.8610   47.8070 C   0  0  0  0  0  0  0  0  0  0  0  0
   59.4570   29.1940   48.3110 C   0  0  0  0  0  0  0  0  0  0  0  0
   58.5170   28.6430   47.4370 C   0  0  0  0  0  0  0  0  0  0  0  0
   58.8276   28.4338   43.3723 H   0  0  0  0  0  0  0  0  0  0  0  0
   57.3647   27.3734   43.2035 H   0  0  0  0  0  0  0  0  0  0  0  0
   57.5704   29.9892   42.3038 H   0  0  0  0  0  0  0  0  0  0  0  0
   56.0325   29.0775   42.6399 H   0  0  0  0  0  0  0  0  0  0  0  0
   57.9799   32.4114   42.4790 H   0  0  0  0  0  0  0  0  0  0  0  0
   59.2900   34.2100   43.8110 H   0  0  0  0  0  0  0  0  0  0  0  0
   61.5657   34.1505   45.3055 H   0  0  0  0  0  0  0  0  0  0  0  0
   63.8391   33.6988   46.2265 H   0  0  0  0  0  0  0  0  0  0  0  0
   64.1118   33.0216   48.6137 H   0  0  0  0  0  0  0  0  0  0  0  0
   62.1095   32.8025   50.0873 H   0  0  0  0  0  0  0  0  0  0  0  0
   59.8311   33.2490   49.1771 H   0  0  0  0  0  0  0  0  0  0  0  0
   57.5093   31.5988   46.6978 H   0  0  0  0  0  0  0  0  0  0  0  0
   59.9814   29.5032   44.4631 H   0  0  0  0  0  0  0  0  0  0  0  0
   61.6468   30.4898   46.0309 H   0  0  0  0  0  0  0  0  0  0  0  0
   61.3141   30.2994   48.4969 H   0  0  0  0  0  0  0  0  0  0  0  0
   59.3152   29.1031   49.3980 H   0  0  0  0  0  0  0  0  0  0  0  0
   57.6414   28.1127   47.8396 H   0  0  0  0  0  0  0  0  0  0  0  0
  1  2  2  0
  2  3  1  0
  3  4  1  0
  4  5  1  0
  5  6  2  0
  5  7  1  0
  7  8  2  0
  8  9  1  0
  9 10  1  0
 10 11  1  0
 11 12  2  0
 11 13  1  0
 13 14  2  0
 14 15  1  0
 15 16  2  0
 16 17  1  0
 17 18  2  0
 10 19  2  0
  2 20  1  0
 20 21  2  0
 21 22  1  0
 22 23  2  0
 23 24  1  0
 24 25  2  0
 19  7  1  0
 25 20  1  0
 18 13  1  0
  3 26  1  0
  3 27  1  0
  4 28  1  0
  4 29  1  0
  8 30  1  0
  9 31  1  0
 14 32  1  0
 15 33  1  0
 16 34  1  0
 17 35  1  0
 18 36  1  0
 19 37  1  0
 21 38  1  0
 22 39  1  0
 23 40  1  0
 24 41  1  0
 25 42  1  0
M  END
>  <UniqueID>  (9) 
9

>  <SMILES>  (9) 
O=C(CCC(=O)c1c[nH]c(C(=O)c2ccccc2)c1)c1ccccc1

>  <Energy>  (9) 
71.46311975309068

>  <Genealogy>  (9) 
O=C(CCC(=O)c1c[nH]c(C(=O)c2ccccc2)c1)c1ccccc1 (3D coordinates assigned)
O=C(CCC(=O)c1c[nH]c(C(=O)c2ccccc2)c1)c1ccccc1 (optimized conformer: 71.46311975309068 kcal/mol)

>  <smiles>  (9) 
O=C(CCC(=O)c1c[nH]c(C(=O)c2ccccc2)c1)c1ccccc1

>  <score_type>  (9) 
oracle

>  <origin>  (9) 
adg

>  <m_score__min__energy>  (9) 
-9.4600000000000009

>  <m_primary>  (9) 
energy

$$$$
9:0
     RDKit          3D

 46 51  0  0  0  0  0  0  0  0999 V2000
   54.7600   27.4810   46.3670 H   0  0  0  0  0  0  0  0  0  0  0  0
   55.1860   26.7300   45.8400 O   0  0  0  0  0  0  0  0  0  0  0  0
   56.1700   25.9310   46.4100 C   0  0  0  0  0  0  0  0  0  0  0  0
   55.9100   24.8590   47.1770 N   0  0  0  0  0  0  0  0  0  0  0  0
   57.1410   24.3710   47.4350 C   0  0  0  0  0  0  0  0  0  0  0  0
   57.3300   23.3430   48.1350 O   0  0  0  0  0  0  0  0  0  0  0  0
   58.1550   25.0680   46.8770 N   0  0  0  0  0  0  0  0  0  0  0  0
   57.5310   26.0760   46.2440 C   0  0  0  0  0  0  0  0  0  0  0  0
   58.2380   27.0710   45.4190 C   0  0  0  0  0  0  0  0  0  0  0  0
   59.1570   26.7557   44.9033 H   0  0  0  0  0  0  0  0  0  0  0  0
   57.8290   28.3370   45.2590 C   0  0  0  0  0  0  0  0  0  0  0  0
   56.8010   28.8420   44.4610 C   0  0  0  0  0  0  0  0  0  0  0  0
   56.1686   28.2423   43.7898 H   0  0  0  0  0  0  0  0  0  0  0  0
   56.6990   30.1810   44.6370 N   0  0  0  0  0  0  0  0  0  0  0  0
   57.6220   30.5310   45.5200 N   0  0  0  0  0  0  0  0  0  0  0  0
   57.9050   31.7660   46.0240 C   0  0  0  0  0  0  0  0  0  0  0  0
   57.2640   32.8450   45.6750 N   0  0  0  0  0  0  0  0  0  0  0  0
   57.8480   34.0630   45.1230 C   0  0  0  0  0  0  0  0  0  0  0  0
   56.9244   34.5029   44.7187 H   0  0  0  0  0  0  0  0  0  0  0  0
   59.0230   34.5990   45.9200 C   0  0  0  0  0  0  0  0  0  0  0  0
   59.2042   35.6828   45.9716 H   0  0  0  0  0  0  0  0  0  0  0  0
   59.3737   34.4912   46.9570 H   0  0  0  0  0  0  0  0  0  0  0  0
   59.2640   33.8490   44.6200 C   0  0  0  0  0  0  0  0  0  0  0  0
   59.6195   34.3899   43.7306 H   0  0  0  0  0  0  0  0  0  0  0  0
   59.8614   32.9734   44.3260 H   0  0  0  0  0  0  0  0  0  0  0  0
   58.9060   31.8620   46.9420 N   0  0  0  0  0  0  0  0  0  0  0  0
   59.5980   30.7540   47.3530 C   0  0  0  0  0  0  0  0  0  0  0  0
   60.6280   30.8600   48.2930 O   0  0  0  0  0  0  0  0  0  0  0  0
   61.7180   31.7320   48.1710 C   0  0  0  0  0  0  0  0  0  0  0  0
   61.7550   32.6020   47.0760 C   0  0  0  0  0  0  0  0  0  0  0  0
   60.9436   32.5786   46.3336 H   0  0  0  0  0  0  0  0  0  0  0  0
   62.8130   33.5000   46.9170 C   0  0  0  0  0  0  0  0  0  0  0  0
   62.8231   34.1876   46.0584 H   0  0  0  0  0  0  0  0  0  0  0  0
   63.8580   33.5290   47.8430 C   0  0  0  0  0  0  0  0  0  0  0  0
   64.6816   34.2475   47.7186 H   0  0  0  0  0  0  0  0  0  0  0  0
   63.8600   32.6420   48.9340 C   0  0  0  0  0  0  0  0  0  0  0  0
   64.9130   32.6200   49.8700 C   0  0  0  0  0  0  0  0  0  0  0  0
   65.8830   33.4200   49.7730 O   0  0  0  0  0  0  0  0  0  0  0  0
   64.8860   31.7000   50.9210 C   0  0  0  0  0  0  0  0  0  0  0  0
   65.7005   31.6805   51.6600 H   0  0  0  0  0  0  0  0  0  0  0  0
   63.8200   30.8060   51.0280 C   0  0  0  0  0  0  0  0  0  0  0  0
   63.7986   30.0730   51.8479 H   0  0  0  0  0  0  0  0  0  0  0  0
   62.8090   30.8390   50.1220 N   0  0  0  0  0  0  0  0  0  0  0  0
   62.7860   31.7310   49.0940 C   0  0  0  0  0  0  0  0  0  0  0  0
   59.3010   29.5320   46.8270 N   0  0  0  0  0  0  0  0  0  0  0  0
   58.3050   29.4520   45.9130 C   0  0  0  0  0  0  0  0  0  0  0  0
  1  2  1  0
  2  3  1  0
  3  4  1  0
  4  5  1  0
  5  6  2  0
  5  7  1  0
  7  8  1  0
  8  9  1  0
  9 10  1  0
  9 11  2  0
 11 12  1  0
 12 13  1  0
 12 14  2  0
 14 15  1  0
 15 16  1  0
 16 17  2  3
 17 18  1  0
 18 19  1  0
 18 20  1  0
 20 21  1  0
 20 22  1  0
 20 23  1  0
 23 24  1  0
 23 25  1  0
 16 26  1  0
 26 27  2  0
 27 28  1  0
 28 29  1  0
 29 30  2  0
 30 31  1  0
 30 32  1  0
 32 33  1  0
 32 34  2  0
 34 35  1  0
 34 36  1  0
 36 37  1  0
 37 38  2  0
 37 39  1  0
 39 40  1  0
 39 41  2  0
 41 42  1  0
 41 43  1  0
 43 44  1  0
 27 45  1  0
 45 46  2  0
  8  3  2  0
 46 11  1  0
 46 15  1  0
 23 18  1  0
 44 29  1  0
 44 36  2  0
M  CHG  3   4  -1   7  -1  43  -1
M  END
>  <UniqueID>  (10) 
10

>  <SMILES>  (10) 
O=c1[n-]c(O)c(/C=c2\cnn3c(=NC4CC4)nc(Oc4cccc5c(=O)cc[n-]c45)nc23)[n-]1

>  <Energy>  (10) 
404.816347777083

>  <Genealogy>  (10) 
O=c1[n-]c(O)c(C=c2cnn3c(=NC4CC4)nc(Oc4cccc5c(=O)cc[n-]c45)nc23)[n-]1 (protonated)
O=c1[n-]c(O)c(/C=c2\cnn3c(=NC4CC4)nc(Oc4cccc5c(=O)cc[n-]c45)nc23)[n-]1 (cis-trans isomerization)
O=c1[n-]c(O)c(/C=c2\cnn3c(=NC4CC4)nc(Oc4cccc5c(=O)cc[n-]c45)nc23)[n-]1 (3D coordinates assigned)
O=c1[n-]c(O)c(/C=c2\cnn3c(=NC4CC4)nc(Oc4cccc5c(=O)cc[n-]c45)nc23)[n-]1 (nonaromatic ring conformer: 404.816347777083 kcal/mol)

>  <smiles>  (10) 
O=c1[nH]c(O)c(C=c2cnn3c(=NC4CC4)nc(Oc4cccc5c(=O)cc[nH]c45)nc23)[nH]1

>  <score_type>  (10) 
oracle

>  <origin>  (10) 
adg

>  <m_score__min__energy>  (10) 
-15.109999999999999

>  <m_primary>  (10) 
energy

$$$$
10:0
     RDKit          3D

 39 41  0  0  0  0  0  0  0  0999 V2000
   60.1020   29.2010   45.4880 C   0  0  0  0  0  0  0  0  0  0  0  0
   59.3440   27.9840   45.9190 C   0  0  0  0  0  0  0  0  0  0  0  0
   59.8680   27.1460   46.8520 N   0  0  0  0  0  0  0  0  0  0  0  0
   58.7180   25.9670   47.0770 S   0  0  0  0  0  0  0  0  0  0  0  0
   57.5340   26.4870   46.0250 C   0  0  0  0  0  0  0  0  0  0  0  0
   56.2620   25.8030   45.7410 C   0  0  0  0  0  0  0  0  0  0  0  0
   55.1770   26.3530   46.0710 O   0  0  0  0  0  0  0  0  0  0  0  0
   56.2320   24.5270   45.0870 N   0  0  0  0  0  0  0  0  0  0  0  0
   56.9010   24.3490   43.7950 C   0  0  0  0  0  0  0  0  0  0  0  0
   56.2070   23.2420   42.9980 C   0  0  0  0  0  0  0  0  0  0  0  0
   56.0650   22.0720   43.7830 O   0  0  0  0  0  0  0  0  0  0  0  0
   55.1790   22.3230   44.8560 C   0  0  0  0  0  0  0  0  0  0  0  0
   55.7710   23.3500   45.8250 C   0  0  0  0  0  0  0  0  0  0  0  0
   58.0640   27.6200   45.4150 C   0  0  0  0  0  0  0  0  0  0  0  0
   57.3720   28.3170   44.3730 N   0  0  0  0  0  0  0  0  0  0  0  0
   56.6100   29.5170   44.5480 C   0  0  0  0  0  0  0  0  0  0  0  0
   55.3940   29.4460   44.8750 O   0  0  0  0  0  0  0  0  0  0  0  0
   57.2640   30.8380   44.4020 C   0  0  0  0  0  0  0  0  0  0  0  0
   57.4360   31.4170   43.1310 C   0  0  0  0  0  0  0  0  0  0  0  0
   58.0600   32.6610   42.9980 C   0  0  0  0  0  0  0  0  0  0  0  0
   58.5180   33.3400   44.1290 C   0  0  0  0  0  0  0  0  0  0  0  0
   58.3530   32.7770   45.3960 C   0  0  0  0  0  0  0  0  0  0  0  0
   57.7290   31.5330   45.5350 C   0  0  0  0  0  0  0  0  0  0  0  0
   60.4455   29.7525   46.3756 H   0  0  0  0  0  0  0  0  0  0  0  0
   60.9711   28.8975   44.8858 H   0  0  0  0  0  0  0  0  0  0  0  0
   59.4464   29.8472   44.8858 H   0  0  0  0  0  0  0  0  0  0  0  0
   56.8554   25.2904   43.2278 H   0  0  0  0  0  0  0  0  0  0  0  0
   57.9509   24.0688   43.9660 H   0  0  0  0  0  0  0  0  0  0  0  0
   55.2112   23.5911   42.6873 H   0  0  0  0  0  0  0  0  0  0  0  0
   56.8207   23.0036   42.1168 H   0  0  0  0  0  0  0  0  0  0  0  0
   54.2301   22.7102   44.4564 H   0  0  0  0  0  0  0  0  0  0  0  0
   55.0113   21.3821   45.4006 H   0  0  0  0  0  0  0  0  0  0  0  0
   55.0010   23.6530   46.5498 H   0  0  0  0  0  0  0  0  0  0  0  0
   56.6236   22.8983   46.3533 H   0  0  0  0  0  0  0  0  0  0  0  0
   57.0771   30.8873   42.2362 H   0  0  0  0  0  0  0  0  0  0  0  0
   58.1904   33.1058   42.0004 H   0  0  0  0  0  0  0  0  0  0  0  0
   59.0088   34.3186   44.0217 H   0  0  0  0  0  0  0  0  0  0  0  0
   58.7143   33.3126   46.2862 H   0  0  0  0  0  0  0  0  0  0  0  0
   57.6007   31.0947   46.5357 H   0  0  0  0  0  0  0  0  0  0  0  0
  1  2  1  0
  2  3  2  0
  3  4  1  0
  4  5  1  0
  5  6  1  0
  6  7  2  0
  6  8  1  0
  8  9  1  0
  9 10  1  0
 10 11  1  0
 11 12  1  0
 12 13  1  0
  5 14  2  0
 14 15  1  0
 15 16  1  0
 16 17  2  0
 16 18  1  0
 18 19  2  0
 19 20  1  0
 20 21  2  0
 21 22  1  0
 22 23  2  0
 14  2  1  0
 23 18  1  0
 13  8  1  0
  1 24  1  0
  1 25  1  0
  1 26  1  0
  9 27  1  0
  9 28  1  0
 10 29  1  0
 10 30  1  0
 12 31  1  0
 12 32  1  0
 13 33  1  0
 13 34  1  0
 19 35  1  0
 20 36  1  0
 21 37  1  0
 22 38  1  0
 23 39  1  0
M  CHG  1  15  -1
M  END
>  <UniqueID>  (11) 
11

>  <SMILES>  (11) 
Cc1nsc(C(=O)N2CCOCC2)c1[N-]C(=O)c1ccccc1

>  <Energy>  (11) 
83.0356071524232

>  <Genealogy>  (11) 
Cc1nsc(C(=O)N2CCOCC2)c1[N-]C(=O)c1ccccc1 (protonated)
Cc1nsc(C(=O)N2CCOCC2)c1[N-]C(=O)c1ccccc1 (3D coordinates assigned)
Cc1nsc(C(=O)N2CCOCC2)c1[N-]C(=O)c1ccccc1 (nonaromatic ring conformer: 83.0356071524232 kcal/mol)

>  <smiles>  (11) 
Cc1nsc(C(=O)N2CCOCC2)c1NC(=O)c1ccccc1

>  <score_type>  (11) 
oracle

>  <origin>  (11) 
adg

>  <m_score__min__energy>  (11) 
-10.07

>  <m_primary>  (11) 
energy

$$$$
11:0
     RDKit          3D

 53 56  0  0  0  0  0  0  0  0999 V2000
   60.2850   27.6470   47.7880 O   0  0  0  0  0  0  0  0  0  0  0  0
   59.3790   28.5040   47.9720 C   0  0  0  0  0  0  0  0  0  0  0  0
   58.1490   28.4250   47.2310 N   0  0  0  0  0  0  0  0  0  0  0  0
   57.8560   27.3820   46.2850 C   0  0  0  0  0  0  0  0  0  0  0  0
   57.0260   26.3050   46.6420 C   0  0  0  0  0  0  0  0  0  0  0  0
   56.7670   25.2770   45.7290 C   0  0  0  0  0  0  0  0  0  0  0  0
   55.7280   23.9390   46.1850 Cl  0  0  0  0  0  0  0  0  0  0  0  0
   57.3450   25.3110   44.4580 C   0  0  0  0  0  0  0  0  0  0  0  0
   58.1860   26.3670   44.1000 C   0  0  0  0  0  0  0  0  0  0  0  0
   58.4500   27.3990   45.0080 C   0  0  0  0  0  0  0  0  0  0  0  0
   59.5010   28.7180   44.5090 Cl  0  0  0  0  0  0  0  0  0  0  0  0
   59.5960   29.5650   48.9170 N   0  0  0  0  0  0  0  0  0  0  0  0
   60.9230   30.1790   49.0170 C   0  0  0  0  0  0  0  0  0  0  0  0
   60.9350   31.2900   50.0790 C   0  0  0  0  0  0  0  0  0  0  0  0
   59.7940   32.2350   49.9310 N   0  0  0  0  0  0  0  0  0  0  0  0
   60.0290   33.2770   48.8880 C   0  0  0  0  0  0  0  0  0  0  0  0
   61.4860   33.3340   48.4520 C   0  0  0  0  0  0  0  0  0  0  0  0
   62.4800   33.6920   49.3800 C   0  0  0  0  0  0  0  0  0  0  0  0
   63.8180   33.7810   48.9860 C   0  0  0  0  0  0  0  0  0  0  0  0
   64.1770   33.5260   47.6600 C   0  0  0  0  0  0  0  0  0  0  0  0
   63.1970   33.1840   46.7250 C   0  0  0  0  0  0  0  0  0  0  0  0
   61.8580   33.0940   47.1140 C   0  0  0  0  0  0  0  0  0  0  0  0
   59.1940   33.0470   47.6390 C   0  0  0  0  0  0  0  0  0  0  0  0
   59.2170   31.8100   46.9640 C   0  0  0  0  0  0  0  0  0  0  0  0
   58.4690   31.6270   45.7980 C   0  0  0  0  0  0  0  0  0  0  0  0
   57.7000   32.6750   45.2870 C   0  0  0  0  0  0  0  0  0  0  0  0
   57.6790   33.9110   45.9410 C   0  0  0  0  0  0  0  0  0  0  0  0
   58.4260   34.0980   47.1080 C   0  0  0  0  0  0  0  0  0  0  0  0
   58.4720   31.5530   49.7670 C   0  0  0  0  0  0  0  0  0  0  0  0
   58.5410   30.0220   49.8230 C   0  0  0  0  0  0  0  0  0  0  0  0
   57.4140   29.1490   47.3940 H   0  0  0  0  0  0  0  0  0  0  0  0
   56.5773   26.2703   47.6457 H   0  0  0  0  0  0  0  0  0  0  0  0
   57.1377   24.5054   43.7383 H   0  0  0  0  0  0  0  0  0  0  0  0
   58.6431   26.3878   43.0997 H   0  0  0  0  0  0  0  0  0  0  0  0
   61.6566   29.4078   49.2944 H   0  0  0  0  0  0  0  0  0  0  0  0
   61.1798   30.6212   48.0431 H   0  0  0  0  0  0  0  0  0  0  0  0
   60.8815   30.8261   51.0750 H   0  0  0  0  0  0  0  0  0  0  0  0
   61.8635   31.8654   49.9492 H   0  0  0  0  0  0  0  0  0  0  0  0
   59.7368   34.2238   49.3657 H   0  0  0  0  0  0  0  0  0  0  0  0
   62.2026   33.9035   50.4232 H   0  0  0  0  0  0  0  0  0  0  0  0
   64.5899   34.0523   49.7212 H   0  0  0  0  0  0  0  0  0  0  0  0
   65.2309   33.5945   47.3524 H   0  0  0  0  0  0  0  0  0  0  0  0
   63.4800   32.9852   45.6808 H   0  0  0  0  0  0  0  0  0  0  0  0
   61.0894   32.8342   46.3712 H   0  0  0  0  0  0  0  0  0  0  0  0
   59.8274   30.9837   47.3574 H   0  0  0  0  0  0  0  0  0  0  0  0
   58.4858   30.6559   45.2817 H   0  0  0  0  0  0  0  0  0  0  0  0
   57.1107   32.5282   44.3699 H   0  0  0  0  0  0  0  0  0  0  0  0
   57.0745   34.7365   45.5371 H   0  0  0  0  0  0  0  0  0  0  0  0
   58.4127   35.0745   47.6143 H   0  0  0  0  0  0  0  0  0  0  0  0
   57.8045   31.8975   50.5706 H   0  0  0  0  0  0  0  0  0  0  0  0
   58.1042   31.8155   48.7641 H   0  0  0  0  0  0  0  0  0  0  0  0
   58.7695   29.6993   50.8495 H   0  0  0  0  0  0  0  0  0  0  0  0
   57.5749   29.5925   49.5193 H   0  0  0  0  0  0  0  0  0  0  0  0
  1  2  2  0
  2  3  1  0
  3  4  1  0
  4  5  2  0
  5  6  1  0
  6  7  1  0
  6  8  2  0
  8  9  1  0
  9 10  2  0
 10 11  1  0
  2 12  1  0
 12 13  1  0
 13 14  1  0
 14 15  1  0
 15 16  1  0
 16 17  1  0
 17 18  2  0
 18 19  1  0
 19 20  2  0
 20 21  1  0
 21 22  2  0
 16 23  1  0
 23 24  2  0
 24 25  1  0
 25 26  2  0
 26 27  1  0
 27 28  2  0
 15 29  1  0
 29 30  1  0
 10  4  1  0
 30 12  1  0
 22 17  1  0
 28 23  1  0
  3 31  1  0
  5 32  1  0
  8 33  1  0
  9 34  1  0
 13 35  1  0
 13 36  1  0
 14 37  1  0
 14 38  1  0
 16 39  1  0
 18 40  1  0
 19 41  1  0
 20 42  1  0
 21 43  1  0
 22 44  1  0
 24 45  1  0
 25 46  1  0
 26 47  1  0
 27 48  1  0
 28 49  1  0
 29 50  1  0
 29 51  1  0
 30 52  1  0
 30 53  1  0
M  END
>  <UniqueID>  (12) 
12

>  <SMILES>  (12) 
O=C(Nc1cc(Cl)ccc1Cl)N1CCN(C(c2ccccc2)c2ccccc2)CC1

>  <Energy>  (12) 
76.39077296734467

>  <Genealogy>  (12) 
O=C(Nc1cc(Cl)ccc1Cl)N1CCN(C(c2ccccc2)c2ccccc2)CC1 (3D coordinates assigned)
O=C(Nc1cc(Cl)ccc1Cl)N1CCN(C(c2ccccc2)c2ccccc2)CC1 (nonaromatic ring conformer: 76.39077296734467 kcal/mol)

>  <smiles>  (12) 
O=C(Nc1cc(Cl)ccc1Cl)N1CCN(C(c2ccccc2)c2ccccc2)CC1

>  <score_type>  (12) 
oracle

>  <origin>  (12) 
adg

>  <m_score__min__energy>  (12) 
-8.4700000000000006

>  <m_primary>  (12) 
energy

$$$$
12:0
     RDKit          3D

 61 65  0  0  0  0  0  0  0  0999 V2000
   57.3800   32.5910   40.6630 C   0  0  0  0  0  0  0  0  0  0  0  0
   57.8240   32.3130   42.0970 C   0  0  0  0  0  0  0  0  0  0  0  0
   57.0200   31.1820   42.7530 C   0  0  0  0  0  0  0  0  0  0  0  0
   56.8120   31.3980   44.2610 C   0  0  0  0  0  0  0  0  0  0  0  0
   57.8940   30.7600   45.0200 N   0  0  0  0  0  0  0  0  0  0  0  0
   58.8530   31.3220   45.8150 C   0  0  0  0  0  0  0  0  0  0  0  0
   58.9370   32.7760   46.2130 C   0  0  0  0  0  0  0  0  0  0  0  0
   59.6800   32.9220   47.4890 N   0  0  0  0  0  0  0  0  0  0  0  0
   59.0100   32.6690   48.6680 C   0  0  0  0  0  0  0  0  0  0  0  0
   57.7750   32.4040   48.6550 O   0  0  0  0  0  0  0  0  0  0  0  0
   59.6890   32.7200   49.9010 C   0  0  0  0  0  0  0  0  0  0  0  0
   59.0180   32.4220   51.1880 C   0  0  0  0  0  0  0  0  0  0  0  0
   59.3000   33.1630   52.3420 C   0  0  0  0  0  0  0  0  0  0  0  0
   58.6290   32.8890   53.5390 C   0  0  0  0  0  0  0  0  0  0  0  0
   58.9230   33.6980   54.7720 C   0  0  0  0  0  0  0  0  0  0  0  0
   57.6620   31.8690   53.5610 C   0  0  0  0  0  0  0  0  0  0  0  0
   57.0360   31.6290   54.6300 O   0  0  0  0  0  0  0  0  0  0  0  0
   57.3960   31.1430   52.4270 N   0  0  0  0  0  0  0  0  0  0  0  0
   56.3630   30.0970   52.4420 C   0  0  0  0  0  0  0  0  0  0  0  0
   58.0380   31.4220   51.2530 C   0  0  0  0  0  0  0  0  0  0  0  0
   61.0000   33.0570   49.9160 N   0  0  0  0  0  0  0  0  0  0  0  0
   61.6840   33.3190   48.7800 C   0  0  0  0  0  0  0  0  0  0  0  0
   63.0420   33.6470   48.8610 C   0  0  0  0  0  0  0  0  0  0  0  0
   63.7700   33.9050   47.7020 C   0  0  0  0  0  0  0  0  0  0  0  0
   63.1450   33.8420   46.4580 C   0  0  0  0  0  0  0  0  0  0  0  0
   61.7880   33.5210   46.3650 C   0  0  0  0  0  0  0  0  0  0  0  0
   61.0250   33.2460   47.5260 C   0  0  0  0  0  0  0  0  0  0  0  0
   59.7330   30.4120   46.3100 N   0  0  0  0  0  0  0  0  0  0  0  0
   59.3060   29.2490   45.7900 C   0  0  0  0  0  0  0  0  0  0  0  0
   59.8570   27.9850   45.9790 C   0  0  0  0  0  0  0  0  0  0  0  0
   59.2360   26.8970   45.3400 C   0  0  0  0  0  0  0  0  0  0  0  0
   58.0900   27.0990   44.5390 C   0  0  0  0  0  0  0  0  0  0  0  0
   57.5570   28.3900   44.3710 C   0  0  0  0  0  0  0  0  0  0  0  0
   58.2020   29.4490   45.0180 C   0  0  0  0  0  0  0  0  0  0  0  0
   56.4477   33.1747   40.6745 H   0  0  0  0  0  0  0  0  0  0  0  0
   58.1628   33.1605   40.1407 H   0  0  0  0  0  0  0  0  0  0  0  0
   57.2096   31.6380   40.1407 H   0  0  0  0  0  0  0  0  0  0  0  0
   58.8872   32.0309   42.0886 H   0  0  0  0  0  0  0  0  0  0  0  0
   57.6527   33.2280   42.6830 H   0  0  0  0  0  0  0  0  0  0  0  0
   56.0350   31.1230   42.2670 H   0  0  0  0  0  0  0  0  0  0  0  0
   57.5928   30.2514   42.6270 H   0  0  0  0  0  0  0  0  0  0  0  0
   56.8051   32.4768   44.4757 H   0  0  0  0  0  0  0  0  0  0  0  0
   55.8528   30.9490   44.5583 H   0  0  0  0  0  0  0  0  0  0  0  0
   59.4582   33.3380   45.4240 H   0  0  0  0  0  0  0  0  0  0  0  0
   57.9181   33.1682   46.3471 H   0  0  0  0  0  0  0  0  0  0  0  0
   60.0527   33.9644   52.3075 H   0  0  0  0  0  0  0  0  0  0  0  0
   58.7042   33.0960   55.6663 H   0  0  0  0  0  0  0  0  0  0  0  0
   59.9840   33.9881   54.7758 H   0  0  0  0  0  0  0  0  0  0  0  0
   58.2958   34.6017   54.7758 H   0  0  0  0  0  0  0  0  0  0  0  0
   56.1128   29.8437   53.4828 H   0  0  0  0  0  0  0  0  0  0  0  0
   55.4626   30.4635   51.9272 H   0  0  0  0  0  0  0  0  0  0  0  0
   56.7407   29.2013   51.9272 H   0  0  0  0  0  0  0  0  0  0  0  0
   57.7820   30.8538   50.3466 H   0  0  0  0  0  0  0  0  0  0  0  0
   63.5357   33.7012   49.8425 H   0  0  0  0  0  0  0  0  0  0  0  0
   64.8383   34.1585   47.7686 H   0  0  0  0  0  0  0  0  0  0  0  0
   63.7228   34.0460   45.5445 H   0  0  0  0  0  0  0  0  0  0  0  0
   61.3062   33.4814   45.3769 H   0  0  0  0  0  0  0  0  0  0  0  0
   60.7485   27.8418   46.6073 H   0  0  0  0  0  0  0  0  0  0  0  0
   59.6447   25.8834   45.4645 H   0  0  0  0  0  0  0  0  0  0  0  0
   57.6114   26.2414   44.0435 H   0  0  0  0  0  0  0  0  0  0  0  0
   56.6638   28.5607   43.7521 H   0  0  0  0  0  0  0  0  0  0  0  0
  1  2  1  0
  2  3  1  0
  3  4  1  0
  4  5  1  0
  5  6  1  0
  6  7  1  0
  7  8  1  0
  8  9  1  0
  9 10  2  0
  9 11  1  0
 11 12  1  0
 12 13  1  0
 13 14  2  0
 14 15  1  0
 14 16  1  0
 16 17  2  0
 16 18  1  0
 18 19  1  0
 18 20  1  0
 11 21  2  0
 21 22  1  0
 22 23  2  0
 23 24  1  0
 24 25  2  0
 25 26  1  0
 26 27  2  0
  6 28  2  0
 28 29  1  0
 29 30  2  0
 30 31  1  0
 31 32  2  0
 32 33  1  0
 33 34  2  0
 34  5  1  0
 27  8  1  0
 34 29  1  0
 20 12  2  0
 27 22  1  0
  1 35  1  0
  1 36  1  0
  1 37  1  0
  2 38  1  0
  2 39  1  0
  3 40  1  0
  3 41  1  0
  4 42  1  0
  4 43  1  0
  7 44  1  0
  7 45  1  0
 13 46  1  0
 15 47  1  0
 15 48  1  0
 15 49  1  0
 19 50  1  0
 19 51  1  0
 19 52  1  0
 20 53  1  0
 23 54  1  0
 24 55  1  0
 25 56  1  0
 26 57  1  0
 30 58  1  0
 31 59  1  0
 32 60  1  0
 33 61  1  0
M  END
>  <UniqueID>  (13) 
13

>  <SMILES>  (13) 
CCCCn1c(Cn2c(=O)c(-c3cc(C)c(=O)n(C)c3)nc3ccccc32)nc2ccccc21

>  <Energy>  (13) 
117.6181047174453

>  <Genealogy>  (13) 
CCCCn1c(Cn2c(=O)c(-c3cc(C)c(=O)n(C)c3)nc3ccccc32)nc2ccccc21 (3D coordinates assigned)
CCCCn1c(Cn2c(=O)c(-c3cc(C)c(=O)n(C)c3)nc3ccccc32)nc2ccccc21 (optimized conformer: 117.6181047174453 kcal/mol)

>  <smiles>  (13) 
CCCCn1c(Cn2c(=O)c(-c3cc(C)c(=O)n(C)c3)nc3ccccc32)nc2ccccc21

>  <score_type>  (13) 
oracle

>  <origin>  (13) 
adg

>  <m_score__min__energy>  (13) 
-8.6500000000000004

>  <m_primary>  (13) 
energy

$$$$
13:0
     RDKit          3D

 36 37  0  0  0  0  0  0  0  0999 V2000
   56.2700   29.7430   43.0220 C   0  0  0  0  0  0  0  0  0  0  0  0
   56.0370   30.1970   44.4630 C   0  0  0  0  0  0  0  0  0  0  0  0
   57.1980   30.9440   45.0010 N   0  0  0  0  0  0  0  0  0  0  0  0
   58.4620   30.4310   44.4220 C   0  0  0  0  0  0  0  0  0  0  0  0
   59.1110   29.3710   45.3140 C   0  0  0  0  0  0  0  0  0  0  0  0
   57.0530   32.4200   44.8790 C   0  0  0  0  0  0  0  0  0  0  0  0
   58.2310   33.1980   45.4040 C   0  0  0  0  0  0  0  0  0  0  0  0
   58.4740   34.5430   45.2290 C   0  0  0  0  0  0  0  0  0  0  0  0
   59.5980   34.8290   45.8430 O   0  0  0  0  0  0  0  0  0  0  0  0
   60.0530   33.7170   46.3820 C   0  0  0  0  0  0  0  0  0  0  0  0
   61.3130   33.6250   47.1600 C   0  0  0  0  0  0  0  0  0  0  0  0
   62.5370   33.4820   46.4780 C   0  0  0  0  0  0  0  0  0  0  0  0
   63.7410   33.4050   47.1820 C   0  0  0  0  0  0  0  0  0  0  0  0
   63.7430   33.4700   48.5750 C   0  0  0  0  0  0  0  0  0  0  0  0
   64.9130   33.3950   49.2570 F   0  0  0  0  0  0  0  0  0  0  0  0
   62.5390   33.6100   49.2680 C   0  0  0  0  0  0  0  0  0  0  0  0
   61.3240   33.6880   48.5750 C   0  0  0  0  0  0  0  0  0  0  0  0
   59.8490   33.8130   49.5280 Cl  0  0  0  0  0  0  0  0  0  0  0  0
   59.2360   32.6740   46.1280 N   0  0  0  0  0  0  0  0  0  0  0  0
   56.7723   28.7644   43.0226 H   0  0  0  0  0  0  0  0  0  0  0  0
   55.3036   29.6589   42.5033 H   0  0  0  0  0  0  0  0  0  0  0  0
   56.9018   30.4791   42.5033 H   0  0  0  0  0  0  0  0  0  0  0  0
   55.1508   30.8480   44.4920 H   0  0  0  0  0  0  0  0  0  0  0  0
   55.8908   29.3007   45.0836 H   0  0  0  0  0  0  0  0  0  0  0  0
   58.2477   29.9857   43.4393 H   0  0  0  0  0  0  0  0  0  0  0  0
   59.1620   31.2747   44.3318 H   0  0  0  0  0  0  0  0  0  0  0  0
   58.9508   29.6327   46.3703 H   0  0  0  0  0  0  0  0  0  0  0  0
   58.6584   28.3901   45.1065 H   0  0  0  0  0  0  0  0  0  0  0  0
   60.1904   29.3281   45.1065 H   0  0  0  0  0  0  0  0  0  0  0  0
   56.9215   32.6677   43.8153 H   0  0  0  0  0  0  0  0  0  0  0  0
   56.1851   32.7057   45.4915 H   0  0  0  0  0  0  0  0  0  0  0  0
   57.8397   35.2500   44.6742 H   0  0  0  0  0  0  0  0  0  0  0  0
   62.5449   33.4304   45.3792 H   0  0  0  0  0  0  0  0  0  0  0  0
   64.6896   33.2929   46.6364 H   0  0  0  0  0  0  0  0  0  0  0  0
   62.5445   33.6594   50.3669 H   0  0  0  0  0  0  0  0  0  0  0  0
   59.3370   31.6820   46.4370 H   0  0  0  0  0  0  0  0  0  0  0  0
  1  2  1  0
  2  3  1  0
  3  4  1  0
  4  5  1  0
  3  6  1  0
  6  7  1  0
  7  8  2  0
  8  9  1  0
  9 10  1  0
 10 11  1  0
 11 12  2  0
 12 13  1  0
 13 14  2  0
 14 15  1  0
 14 16  1  0
 16 17  2  0
 17 18  1  0
 10 19  2  0
 19  7  1  0
 17 11  1  0
  1 20  1  0
  1 21  1  0
  1 22  1  0
  2 23  1  0
  2 24  1  0
  4 25  1  0
  4 26  1  0
  5 27  1  0
  5 28  1  0
  5 29  1  0
  6 30  1  0
  6 31  1  0
  8 32  1  0
 12 33  1  0
 13 34  1  0
 16 35  1  0
 19 36  1  0
M  CHG  1  19   1
M  END
>  <UniqueID>  (14) 
14

>  <SMILES>  (14) 
CCN(CC)Cc1coc(-c2ccc(F)cc2Cl)[nH+]1

>  <Energy>  (14) 
71.58675611852053

>  <Genealogy>  (14) 
CCN(CC)Cc1coc(-c2ccc(F)cc2Cl)[nH+]1 (protonated)
CCN(CC)Cc1coc(-c2ccc(F)cc2Cl)[nH+]1 (3D coordinates assigned)
CCN(CC)Cc1coc(-c2ccc(F)cc2Cl)[nH+]1 (optimized conformer: 71.58675611852053 kcal/mol)

>  <smiles>  (14) 
CCN(CC)Cc1coc(-c2ccc(F)cc2Cl)n1

>  <score_type>  (14) 
oracle

>  <origin>  (14) 
adg

>  <m_score__min__energy>  (14) 
-5

>  <m_primary>  (14) 
energy

$$$$
14:0
     RDKit          3D

 45 46  0  0  0  0  0  0  0  0999 V2000
   56.6110   22.6330   43.0010 C   0  0  0  0  0  0  0  0  0  0  0  0
   57.3490   21.5520   43.7860 C   0  0  0  0  0  0  0  0  0  0  0  0
   58.7640   21.9790   44.1910 C   0  0  0  0  0  0  0  0  0  0  0  0
   58.8200   22.3270   45.5740 O   0  0  0  0  0  0  0  0  0  0  0  0
   57.7080   22.7120   46.3290 C   0  0  0  0  0  0  0  0  0  0  0  0
   57.1330   21.8790   47.0840 O   0  0  0  0  0  0  0  0  0  0  0  0
   57.1810   24.0850   46.2380 C   0  0  0  0  0  0  0  0  0  0  0  0
   57.9560   25.2370   46.1820 C   0  0  0  0  0  0  0  0  0  0  0  0
   57.1660   26.3320   46.1170 N   0  0  0  0  0  0  0  0  0  0  0  0
   57.6170   27.6980   46.0440 C   0  0  0  0  0  0  0  0  0  0  0  0
   58.7380   28.1120   46.7790 C   0  0  0  0  0  0  0  0  0  0  0  0
   59.1770   29.4340   46.7160 C   0  0  0  0  0  0  0  0  0  0  0  0
   58.4990   30.3750   45.9190 C   0  0  0  0  0  0  0  0  0  0  0  0
   58.9140   31.7130   45.8290 O   0  0  0  0  0  0  0  0  0  0  0  0
   58.2160   32.8150   46.4020 C   0  0  0  0  0  0  0  0  0  0  0  0
   57.9020   33.8340   45.3190 C   0  0  0  0  0  0  0  0  0  0  0  0
   57.3710   29.9760   45.1870 C   0  0  0  0  0  0  0  0  0  0  0  0
   56.7090   30.9370   44.4060 O   0  0  0  0  0  0  0  0  0  0  0  0
   57.0400   31.2470   43.0560 C   0  0  0  0  0  0  0  0  0  0  0  0
   56.9330   28.6380   45.2560 C   0  0  0  0  0  0  0  0  0  0  0  0
   55.8910   25.8880   46.1170 C   0  0  0  0  0  0  0  0  0  0  0  0
   54.7720   26.7070   46.0090 O   0  0  0  0  0  0  0  0  0  0  0  0
   55.8600   24.5140   46.1940 C   0  0  0  0  0  0  0  0  0  0  0  0
   54.6750   23.7130   46.1760 N   0  0  0  0  0  0  0  0  0  0  0  0
   56.1329   23.3332   43.7018 H   0  0  0  0  0  0  0  0  0  0  0  0
   57.3258   23.1788   42.3677 H   0  0  0  0  0  0  0  0  0  0  0  0
   55.8423   22.1660   42.3677 H   0  0  0  0  0  0  0  0  0  0  0  0
   56.7755   21.3246   44.6967 H   0  0  0  0  0  0  0  0  0  0  0  0
   57.4411   20.6712   43.1336 H   0  0  0  0  0  0  0  0  0  0  0  0
   59.4583   21.1471   44.0016 H   0  0  0  0  0  0  0  0  0  0  0  0
   59.0460   22.8610   43.5973 H   0  0  0  0  0  0  0  0  0  0  0  0
   59.0558   25.2553   46.1895 H   0  0  0  0  0  0  0  0  0  0  0  0
   59.2747   27.3882   47.4098 H   0  0  0  0  0  0  0  0  0  0  0  0
   60.0602   29.7438   47.2938 H   0  0  0  0  0  0  0  0  0  0  0  0
   57.2783   32.4599   46.8544 H   0  0  0  0  0  0  0  0  0  0  0  0
   58.8420   33.2833   47.1758 H   0  0  0  0  0  0  0  0  0  0  0  0
   57.6086   34.7861   45.7853 H   0  0  0  0  0  0  0  0  0  0  0  0
   58.7934   33.9912   44.6939 H   0  0  0  0  0  0  0  0  0  0  0  0
   57.0767   33.4622   44.6939 H   0  0  0  0  0  0  0  0  0  0  0  0
   57.8428   31.9988   43.0387 H   0  0  0  0  0  0  0  0  0  0  0  0
   57.3804   30.3353   42.5433 H   0  0  0  0  0  0  0  0  0  0  0  0
   56.1525   31.6463   42.5433 H   0  0  0  0  0  0  0  0  0  0  0  0
   56.0452   28.3265   44.6861 H   0  0  0  0  0  0  0  0  0  0  0  0
   53.7540   24.1490   45.9480 H   0  0  0  0  0  0  0  0  0  0  0  0
   54.6970   22.6870   46.3540 H   0  0  0  0  0  0  0  0  0  0  0  0
  1  2  1  0
  2  3  1  0
  3  4  1  0
  4  5  1  0
  5  6  2  0
  5  7  1  0
  7  8  2  0
  8  9  1  0
  9 10  1  0
 10 11  2  0
 11 12  1  0
 12 13  2  0
 13 14  1  0
 14 15  1  0
 15 16  1  0
 13 17  1  0
 17 18  1  0
 18 19  1  0
 17 20  2  0
  9 21  1  0
 21 22  1  0
 21 23  2  0
 23 24  1  0
 23  7  1  0
 20 10  1  0
  1 25  1  0
  1 26  1  0
  1 27  1  0
  2 28  1  0
  2 29  1  0
  3 30  1  0
  3 31  1  0
  8 32  1  0
 11 33  1  0
 12 34  1  0
 15 35  1  0
 15 36  1  0
 16 37  1  0
 16 38  1  0
 16 39  1  0
 19 40  1  0
 19 41  1  0
 19 42  1  0
 20 43  1  0
 24 44  1  0
 24 45  1  0
M  CHG  1  22  -1
M  END
>  <UniqueID>  (15) 
15

>  <SMILES>  (15) 
CCCOC(=O)c1cn(-c2ccc(OCC)c(OC)c2)c([O-])c1N

>  <Energy>  (15) 
69.35752295238575

>  <Genealogy>  (15) 
CCCOC(=O)c1cn(-c2ccc(OCC)c(OC)c2)c([O-])c1N (protonated)
CCCOC(=O)c1cn(-c2ccc(OCC)c(OC)c2)c([O-])c1N (3D coordinates assigned)
CCCOC(=O)c1cn(-c2ccc(OCC)c(OC)c2)c([O-])c1N (optimized conformer: 69.35752295238575 kcal/mol)

>  <smiles>  (15) 
CCCOC(=O)c1cn(-c2ccc(OCC)c(OC)c2)c(O)c1N

>  <score_type>  (15) 
oracle

>  <origin>  (15) 
adg

>  <m_score__min__energy>  (15) 
-9.7599999999999998

>  <m_primary>  (15) 
energy

$$$$
15:0
     RDKit          3D

 24 24  0  0  0  0  0  0  0  0999 V2000
   57.3940   19.7790   46.9750 C   0  0  0  0  0  0  0  0  0  0  0  0
   57.1710   20.9420   46.0030 C   0  0  0  0  0  0  0  0  0  0  0  0
   57.7780   20.7030   44.6790 N   0  0  0  0  0  0  0  0  0  0  0  0
   57.5260   21.7780   43.7000 C   0  0  0  0  0  0  0  0  0  0  0  0
   56.8430   22.9710   44.3240 C   0  0  0  0  0  0  0  0  0  0  0  0
   57.6010   24.0590   44.7880 C   0  0  0  0  0  0  0  0  0  0  0  0
   56.9680   25.1710   45.3500 C   0  0  0  0  0  0  0  0  0  0  0  0
   55.5750   25.2090   45.4500 C   0  0  0  0  0  0  0  0  0  0  0  0
   54.9650   26.2910   45.9950 F   0  0  0  0  0  0  0  0  0  0  0  0
   54.8110   24.1310   44.9880 C   0  0  0  0  0  0  0  0  0  0  0  0
   53.4590   24.1670   45.0830 F   0  0  0  0  0  0  0  0  0  0  0  0
   55.4410   23.0170   44.4270 C   0  0  0  0  0  0  0  0  0  0  0  0
   57.3235   20.1469   48.0093 H   0  0  0  0  0  0  0  0  0  0  0  0
   56.6273   19.0084   46.8068 H   0  0  0  0  0  0  0  0  0  0  0  0
   58.3914   19.3467   46.8068 H   0  0  0  0  0  0  0  0  0  0  0  0
   56.0887   21.0888   45.8725 H   0  0  0  0  0  0  0  0  0  0  0  0
   57.6535   21.8318   46.4337 H   0  0  0  0  0  0  0  0  0  0  0  0
   57.4020   19.8020   44.2990 H   0  0  0  0  0  0  0  0  0  0  0  0
   58.8120   20.5840   44.7890 H   0  0  0  0  0  0  0  0  0  0  0  0
   58.4874   22.1026   43.2754 H   0  0  0  0  0  0  0  0  0  0  0  0
   56.8593   21.3764   42.9226 H   0  0  0  0  0  0  0  0  0  0  0  0
   58.6979   24.0355   44.7086 H   0  0  0  0  0  0  0  0  0  0  0  0
   57.5678   26.0181   45.7144 H   0  0  0  0  0  0  0  0  0  0  0  0
   54.8375   22.1719   44.0642 H   0  0  0  0  0  0  0  0  0  0  0  0
  1  2  1  0
  2  3  1  0
  3  4  1  0
  4  5  1  0
  5  6  2  0
  6  7  1  0
  7  8  2  0
  8  9  1  0
  8 10  1  0
 10 11  1  0
 10 12  2  0
 12  5  1  0
  1 13  1  0
  1 14  1  0
  1 15  1  0
  2 16  1  0
  2 17  1  0
  3 18  1  0
  3 19  1  0
  4 20  1  0
  4 21  1  0
  6 22  1  0
  7 23  1  0
 12 24  1  0
M  CHG  1   3   1
M  END
>  <UniqueID>  (16) 
16

>  <SMILES>  (16) 
CC[NH2+]Cc1ccc(F)c(F)c1

>  <Energy>  (16) 
20.81667169205811

>  <Genealogy>  (16) 
CC[NH2+]Cc1ccc(F)c(F)c1 (protonated)
CC[NH2+]Cc1ccc(F)c(F)c1 (3D coordinates assigned)
CC[NH2+]Cc1ccc(F)c(F)c1 (optimized conformer: 20.81667169205811 kcal/mol)

>  <smiles>  (16) 
CCNCc1ccc(F)c(F)c1

>  <score_type>  (16) 
oracle

>  <origin>  (16) 
adg

>  <m_score__min__energy>  (16) 
-2.9500000000000002

>  <m_primary>  (16) 
energy

$$$$
16:0
     RDKit          3D

 43 44  0  0  0  0  0  0  0  0999 V2000
   56.3450   29.0880   44.8450 C   0  0  0  0  0  0  0  0  0  0  0  0
   57.7100   28.3790   44.7620 C   0  0  0  0  0  0  0  0  0  0  0  0
   57.7830   27.3250   45.8860 C   0  0  0  0  0  0  0  0  0  0  0  0
   57.8250   27.6570   43.4040 C   0  0  0  0  0  0  0  0  0  0  0  0
   58.8790   29.3920   44.9620 C   0  0  0  0  0  0  0  0  0  0  0  0
   58.4530   30.8070   44.8870 N   0  0  0  0  0  0  0  0  0  0  0  0
   58.1710   31.3430   43.6590 C   0  0  0  0  0  0  0  0  0  0  0  0
   57.7810   32.6740   43.5310 C   0  0  0  0  0  0  0  0  0  0  0  0
   57.6870   33.4720   44.6650 C   0  0  0  0  0  0  0  0  0  0  0  0
   57.9880   32.9430   45.9260 C   0  0  0  0  0  0  0  0  0  0  0  0
   57.8730   33.7790   47.1040 N   0  0  0  0  0  0  0  0  0  0  0  0
   58.9080   34.8260   47.1330 C   0  0  0  0  0  0  0  0  0  0  0  0
   60.2440   34.2980   47.6010 C   0  0  0  0  0  0  0  0  0  0  0  0
   61.2190   33.9080   46.6680 C   0  0  0  0  0  0  0  0  0  0  0  0
   62.4570   33.4240   47.1030 C   0  0  0  0  0  0  0  0  0  0  0  0
   62.7360   33.3400   48.4700 C   0  0  0  0  0  0  0  0  0  0  0  0
   64.2980   32.7580   49.0140 Cl  0  0  0  0  0  0  0  0  0  0  0  0
   61.7740   33.7380   49.4050 C   0  0  0  0  0  0  0  0  0  0  0  0
   60.5310   34.2130   48.9730 C   0  0  0  0  0  0  0  0  0  0  0  0
   58.3830   31.5890   46.0160 C   0  0  0  0  0  0  0  0  0  0  0  0
   58.6770   31.1030   47.1440 O   0  0  0  0  0  0  0  0  0  0  0  0
   56.0697   29.2310   45.9003 H   0  0  0  0  0  0  0  0  0  0  0  0
   56.4093   30.0667   44.3470 H   0  0  0  0  0  0  0  0  0  0  0  0
   55.5813   28.4726   44.3470 H   0  0  0  0  0  0  0  0  0  0  0  0
   57.7481   27.8283   46.8635 H   0  0  0  0  0  0  0  0  0  0  0  0
   56.9305   26.6355   45.7980 H   0  0  0  0  0  0  0  0  0  0  0  0
   58.7225   26.7596   45.7980 H   0  0  0  0  0  0  0  0  0  0  0  0
   57.9960   26.5836   43.5728 H   0  0  0  0  0  0  0  0  0  0  0  0
   56.8936   27.7950   42.8353 H   0  0  0  0  0  0  0  0  0  0  0  0
   58.6675   28.0775   42.8353 H   0  0  0  0  0  0  0  0  0  0  0  0
   59.3275   29.2153   45.9508 H   0  0  0  0  0  0  0  0  0  0  0  0
   59.5949   29.2258   44.1435 H   0  0  0  0  0  0  0  0  0  0  0  0
   58.2536   30.7135   42.7607 H   0  0  0  0  0  0  0  0  0  0  0  0
   57.5491   33.0905   42.5397 H   0  0  0  0  0  0  0  0  0  0  0  0
   57.3751   34.5227   44.5716 H   0  0  0  0  0  0  0  0  0  0  0  0
   56.9250   34.2170   47.1750 H   0  0  0  0  0  0  0  0  0  0  0  0
   57.9890   33.1770   47.9520 H   0  0  0  0  0  0  0  0  0  0  0  0
   59.0251   35.2360   46.1190 H   0  0  0  0  0  0  0  0  0  0  0  0
   58.5840   35.6002   47.8441 H   0  0  0  0  0  0  0  0  0  0  0  0
   61.0080   33.9836   45.5911 H   0  0  0  0  0  0  0  0  0  0  0  0
   63.2124   33.1089   46.3681 H   0  0  0  0  0  0  0  0  0  0  0  0
   61.9953   33.6773   50.4808 H   0  0  0  0  0  0  0  0  0  0  0  0
   59.7756   34.5211   49.7109 H   0  0  0  0  0  0  0  0  0  0  0  0
  1  2  1  0
  2  3  1  0
  2  4  1  0
  2  5  1  0
  5  6  1  0
  6  7  1  0
  7  8  2  0
  8  9  1  0
  9 10  2  0
 10 11  1  0
 11 12  1  0
 12 13  1  0
 13 14  2  0
 14 15  1  0
 15 16  2  0
 16 17  1  0
 16 18  1  0
 18 19  2  0
 10 20  1  0
 20 21  2  0
 20  6  1  0
 19 13  1  0
  1 22  1  0
  1 23  1  0
  1 24  1  0
  3 25  1  0
  3 26  1  0
  3 27  1  0
  4 28  1  0
  4 29  1  0
  4 30  1  0
  5 31  1  0
  5 32  1  0
  7 33  1  0
  8 34  1  0
  9 35  1  0
 11 36  1  0
 11 37  1  0
 12 38  1  0
 12 39  1  0
 14 40  1  0
 15 41  1  0
 18 42  1  0
 19 43  1  0
M  CHG  1  11   1
M  END
>  <UniqueID>  (17) 
17

>  <SMILES>  (17) 
CC(C)(C)Cn1cccc([NH2+]Cc2ccc(Cl)cc2)c1=O

>  <Energy>  (17) 
39.804802797126364

>  <Genealogy>  (17) 
CC(C)(C)Cn1cccc([NH2+]Cc2ccc(Cl)cc2)c1=O (protonated)
CC(C)(C)Cn1cccc([NH2+]Cc2ccc(Cl)cc2)c1=O (3D coordinates assigned)
CC(C)(C)Cn1cccc([NH2+]Cc2ccc(Cl)cc2)c1=O (optimized conformer: 39.804802797126364 kcal/mol)

>  <smiles>  (17) 
CC(C)(C)Cn1cccc(NCc2ccc(Cl)cc2)c1=O

>  <score_type>  (17) 
oracle

>  <origin>  (17) 
adg

>  <m_score__min__energy>  (17) 
-5.5499999999999998

>  <m_primary>  (17) 
energy

$$$$
17:0
     RDKit          3D

 30 31  0  0  0  0  0  0  0  0999 V2000
   58.0530   28.0340   43.7740 C   0  0  0  0  0  0  0  0  0  0  0  0
   57.0220   28.8620   44.5420 C   0  0  0  0  0  0  0  0  0  0  0  0
   56.1380   29.7140   43.6180 C   0  0  0  0  0  0  0  0  0  0  0  0
   56.9320   30.8050   42.8890 C   0  0  0  0  0  0  0  0  0  0  0  0
   57.4610   31.8020   43.8690 C   0  0  0  0  0  0  0  0  0  0  0  0
   58.0960   32.8760   43.5090 N   0  0  0  0  0  0  0  0  0  0  0  0
   58.2820   33.6420   44.7310 C   0  0  2  0  0  0  0  0  0  0  0  0
   59.5600   34.4530   44.9000 C   0  0  0  0  0  0  0  0  0  0  0  0
   59.6170   34.9550   46.3440 C   0  0  0  0  0  0  0  0  0  0  0  0
   58.8980   34.3900   47.3560 C   0  0  0  0  0  0  0  0  0  0  0  0
   57.9020   33.2490   47.1360 C   0  0  0  0  0  0  0  0  0  0  0  0
   58.2360   32.5810   45.8090 C   0  0  1  0  0  0  0  0  0  0  0  0
   57.3280   31.6560   45.2510 O   0  0  0  0  0  0  0  0  0  0  0  0
   58.7063   27.5093   44.4867 H   0  0  0  0  0  0  0  0  0  0  0  0
   57.5348   27.2983   43.1414 H   0  0  0  0  0  0  0  0  0  0  0  0
   58.6596   28.6988   43.1414 H   0  0  0  0  0  0  0  0  0  0  0  0
   56.3771   28.1785   45.1138 H   0  0  0  0  0  0  0  0  0  0  0  0
   57.5724   29.5492   45.2014 H   0  0  0  0  0  0  0  0  0  0  0  0
   55.6730   29.0559   42.8692 H   0  0  0  0  0  0  0  0  0  0  0  0
   55.3822   30.2116   44.2435 H   0  0  0  0  0  0  0  0  0  0  0  0
   57.7729   30.3437   42.3505 H   0  0  0  0  0  0  0  0  0  0  0  0
   56.2670   31.3184   42.1789 H   0  0  0  0  0  0  0  0  0  0  0  0
   57.5126   34.4279   44.7502 H   0  0  0  0  0  0  0  0  0  0  0  0
   60.4343   33.8190   44.6909 H   0  0  0  0  0  0  0  0  0  0  0  0
   59.5677   35.3022   44.2008 H   0  0  0  0  0  0  0  0  0  0  0  0
   60.2677   35.8108   46.5768 H   0  0  0  0  0  0  0  0  0  0  0  0
   59.0406   34.7721   48.3776 H   0  0  0  0  0  0  0  0  0  0  0  0
   57.9858   32.5177   47.9534 H   0  0  0  0  0  0  0  0  0  0  0  0
   56.8733   33.6381   47.1193 H   0  0  0  0  0  0  0  0  0  0  0  0
   59.1594   32.0437   46.0712 H   0  0  0  0  0  0  0  0  0  0  0  0
  1  2  1  0
  2  3  1  0
  3  4  1  0
  4  5  1  0
  5  6  2  0
  6  7  1  0
  7  8  1  0
  8  9  1  0
  9 10  2  0
 10 11  1  0
 11 12  1  0
 12 13  1  0
 13  5  1  0
 12  7  1  0
  1 14  1  0
  1 15  1  0
  1 16  1  0
  2 17  1  0
  2 18  1  0
  3 19  1  0
  3 20  1  0
  4 21  1  0
  4 22  1  0
  7 23  1  1
  8 24  1  0
  8 25  1  0
  9 26  1  0
 10 27  1  0
 11 28  1  0
 11 29  1  0
 12 30  1  1
M  END
>  <UniqueID>  (18) 
18

>  <SMILES>  (18) 
CCCCC1=N[C@@H]2CC=CC[C@H]2O1

>  <Energy>  (18) 
53.31379102029183

>  <Genealogy>  (18) 
CCCCC1=N[C@@H]2CC=CC[C@H]2O1 (chirality)
CCCCC1=N[C@@H]2CC=CC[C@H]2O1 (3D coordinates assigned)
CCCCC1=N[C@@H]2CC=CC[C@H]2O1 (nonaromatic ring conformer: 53.31379102029183 kcal/mol)

>  <smiles>  (18) 
CCCCC1=NC2CC=CCC2O1

>  <score_type>  (18) 
oracle

>  <origin>  (18) 
adg

>  <m_score__min__energy>  (18) 
-5.8499999999999996

>  <m_primary>  (18) 
energy

$$$$
18:0
     RDKit          3D

 42 44  0  0  0  0  0  0  0  0999 V2000
   56.1950   29.2780   42.7460 O   0  0  0  0  0  0  0  0  0  0  0  0
   56.5170   29.7990   44.1190 S   0  0  0  0  0  0  0  0  0  0  0  0
   55.4980   30.8340   44.5040 O   0  0  0  0  0  0  0  0  0  0  0  0
   58.1430   30.5380   44.1220 C   0  0  0  0  0  0  0  0  0  0  0  0
   58.1270   31.8470   44.8600 C   0  0  0  0  0  0  0  0  0  0  0  0
   57.8750   31.8780   46.2420 C   0  0  0  0  0  0  0  0  0  0  0  0
   57.8830   33.0950   46.9310 C   0  0  0  0  0  0  0  0  0  0  0  0
   58.1510   34.2850   46.2480 C   0  0  0  0  0  0  0  0  0  0  0  0
   58.4130   34.2600   44.8750 C   0  0  0  0  0  0  0  0  0  0  0  0
   58.4060   33.0450   44.1820 C   0  0  0  0  0  0  0  0  0  0  0  0
   56.4520   28.4990   45.2720 N   0  0  0  0  0  0  0  0  0  0  0  0
   57.6840   27.7010   45.2550 C   0  0  2  0  0  0  0  0  0  0  0  0
   57.3970   26.2900   44.7700 C   0  0  0  0  0  0  0  0  0  0  0  0
   58.4500   25.4080   45.4320 C   0  0  0  0  0  0  0  0  0  0  0  0
   58.9410   26.1590   46.6720 C   0  0  0  0  0  0  0  0  0  0  0  0
   58.2170   27.5110   46.6750 C   0  0  1  0  0  0  0  0  0  0  0  0
   59.0880   28.6690   47.1310 C   0  0  0  0  0  0  0  0  0  0  0  0
   60.0840   29.2090   46.2940 C   0  0  0  0  0  0  0  0  0  0  0  0
   60.8390   30.3100   46.7090 C   0  0  0  0  0  0  0  0  0  0  0  0
   60.6080   30.8840   47.9610 C   0  0  0  0  0  0  0  0  0  0  0  0
   59.6230   30.3580   48.8010 C   0  0  0  0  0  0  0  0  0  0  0  0
   59.3930   30.9230   50.0110 F   0  0  0  0  0  0  0  0  0  0  0  0
   58.8640   29.2580   48.3890 C   0  0  0  0  0  0  0  0  0  0  0  0
   58.8502   29.8541   44.6141 H   0  0  0  0  0  0  0  0  0  0  0  0
   58.4518   30.7206   43.0821 H   0  0  0  0  0  0  0  0  0  0  0  0
   57.6709   30.9425   46.7834 H   0  0  0  0  0  0  0  0  0  0  0  0
   57.6782   33.1159   48.0116 H   0  0  0  0  0  0  0  0  0  0  0  0
   58.1557   35.2415   46.7912 H   0  0  0  0  0  0  0  0  0  0  0  0
   58.6249   35.1969   44.3390 H   0  0  0  0  0  0  0  0  0  0  0  0
   58.6196   33.0277   43.1031 H   0  0  0  0  0  0  0  0  0  0  0  0
   58.3943   28.2335   44.6055 H   0  0  0  0  0  0  0  0  0  0  0  0
   56.3873   25.9771   45.0743 H   0  0  0  0  0  0  0  0  0  0  0  0
   57.4379   26.2200   43.6730 H   0  0  0  0  0  0  0  0  0  0  0  0
   58.0074   24.4442   45.7237 H   0  0  0  0  0  0  0  0  0  0  0  0
   59.2810   25.2004   44.7419 H   0  0  0  0  0  0  0  0  0  0  0  0
   58.6936   25.5930   47.5822 H   0  0  0  0  0  0  0  0  0  0  0  0
   60.0328   26.2916   46.6513 H   0  0  0  0  0  0  0  0  0  0  0  0
   57.4015   27.5051   47.4132 H   0  0  0  0  0  0  0  0  0  0  0  0
   60.2691   28.7611   45.3065 H   0  0  0  0  0  0  0  0  0  0  0  0
   61.6154   30.7244   46.0491 H   0  0  0  0  0  0  0  0  0  0  0  0
   61.2019   31.7509   48.2861 H   0  0  0  0  0  0  0  0  0  0  0  0
   58.0870   28.8507   49.0526 H   0  0  0  0  0  0  0  0  0  0  0  0
  1  2  2  0
  2  3  2  0
  2  4  1  0
  4  5  1  0
  5  6  2  0
  6  7  1  0
  7  8  2  0
  8  9  1  0
  9 10  2  0
  2 11  1  0
 11 12  1  0
 12 13  1  0
 13 14  1  0
 14 15  1  0
 15 16  1  0
 16 17  1  0
 17 18  2  0
 18 19  1  0
 19 20  2  0
 20 21  1  0
 21 22  1  0
 21 23  2  0
 10  5  1  0
 16 12  1  0
 23 17  1  0
  4 24  1  0
  4 25  1  0
  6 26  1  0
  7 27  1  0
  8 28  1  0
  9 29  1  0
 10 30  1  0
 12 31  1  6
 13 32  1  0
 13 33  1  0
 14 34  1  0
 14 35  1  0
 15 36  1  0
 15 37  1  0
 16 38  1  1
 18 39  1  0
 19 40  1  0
 20 41  1  0
 23 42  1  0
M  CHG  1  11  -1
M  END
>  <UniqueID>  (19) 
19

>  <SMILES>  (19) 
O=S(=O)(Cc1ccccc1)[N-][C@@H]1CCC[C@H]1c1cccc(F)c1

>  <Energy>  (19) 
38.58283147604507

>  <Genealogy>  (19) 
O=S(=O)(Cc1ccccc1)[N-]C1CCCC1c1cccc(F)c1 (protonated)
O=S(=O)(Cc1ccccc1)[N-][C@@H]1CCC[C@H]1c1cccc(F)c1 (chirality)
O=S(=O)(Cc1ccccc1)[N-][C@@H]1CCC[C@H]1c1cccc(F)c1 (3D coordinates assigned)
O=S(=O)(Cc1ccccc1)[N-][C@@H]1CCC[C@H]1c1cccc(F)c1 (nonaromatic ring conformer: 38.58283147604507 kcal/mol)

>  <smiles>  (19) 
O=S(=O)(Cc1ccccc1)NC1CCCC1c1cccc(F)c1

>  <score_type>  (19) 
oracle

>  <origin>  (19) 
adg

>  <m_score__min__energy>  (19) 
-9.7200000000000006

>  <m_primary>  (19) 
energy

$$$$
19:0
     RDKit          3D

 33 34  0  0  0  0  0  0  0  0999 V2000
   57.4630   31.9630   41.7290 C   0  0  0  0  0  0  0  0  0  0  0  0
   58.1640   32.1290   43.0720 C   0  0  0  0  0  0  0  0  0  0  0  0
   57.2620   31.7650   44.1720 N   0  0  0  0  0  0  0  0  0  0  0  0
   57.0500   32.7000   45.2840 C   0  0  0  0  0  0  0  0  0  0  0  0
   58.3630   33.2510   45.7580 C   0  0  0  0  0  0  0  0  0  0  0  0
   58.7590   34.5840   45.5570 C   0  0  0  0  0  0  0  0  0  0  0  0
   60.0260   34.8640   46.0480 C   0  0  0  0  0  0  0  0  0  0  0  0
   60.6470   33.4560   46.7240 S   0  0  0  0  0  0  0  0  0  0  0  0
   59.3210   32.4770   46.4030 C   0  0  0  0  0  0  0  0  0  0  0  0
   56.5680   30.5010   44.1590 C   0  0  0  0  0  0  0  0  0  0  0  0
   55.3500   30.4460   44.4820 O   0  0  0  0  0  0  0  0  0  0  0  0
   57.2720   29.3290   43.8450 O   0  0  0  0  0  0  0  0  0  0  0  0
   58.3360   28.7930   44.5840 C   0  0  0  0  0  0  0  0  0  0  0  0
   59.6380   29.3250   44.5250 C   0  0  0  0  0  0  0  0  0  0  0  0
   60.6630   28.7610   45.2910 C   0  0  0  0  0  0  0  0  0  0  0  0
   60.3960   27.6730   46.1280 C   0  0  0  0  0  0  0  0  0  0  0  0
   59.1020   27.1540   46.2050 C   0  0  0  0  0  0  0  0  0  0  0  0
   58.0750   27.7170   45.4410 C   0  0  0  0  0  0  0  0  0  0  0  0
   56.4050   31.7125   41.8961 H   0  0  0  0  0  0  0  0  0  0  0  0
   57.5320   32.9023   41.1608 H   0  0  0  0  0  0  0  0  0  0  0  0
   57.9460   31.1544   41.1608 H   0  0  0  0  0  0  0  0  0  0  0  0
   59.0504   31.4782   43.1004 H   0  0  0  0  0  0  0  0  0  0  0  0
   58.4619   33.1813   43.1899 H   0  0  0  0  0  0  0  0  0  0  0  0
   56.4100   33.5280   44.9451 H   0  0  0  0  0  0  0  0  0  0  0  0
   56.5655   32.1651   46.1142 H   0  0  0  0  0  0  0  0  0  0  0  0
   58.1259   35.3329   45.0587 H   0  0  0  0  0  0  0  0  0  0  0  0
   60.5354   35.8379   46.0028 H   0  0  0  0  0  0  0  0  0  0  0  0
   59.2269   31.4111   46.6581 H   0  0  0  0  0  0  0  0  0  0  0  0
   59.8496   30.1866   43.8747 H   0  0  0  0  0  0  0  0  0  0  0  0
   61.6810   29.1739   45.2351 H   0  0  0  0  0  0  0  0  0  0  0  0
   61.2047   27.2264   46.7252 H   0  0  0  0  0  0  0  0  0  0  0  0
   58.8903   26.3015   46.8672 H   0  0  0  0  0  0  0  0  0  0  0  0
   57.0550   27.3117   45.5138 H   0  0  0  0  0  0  0  0  0  0  0  0
  1  2  1  0
  2  3  1  0
  3  4  1  0
  4  5  1  0
  5  6  1  0
  6  7  2  0
  7  8  1  0
  8  9  1  0
  3 10  1  0
 10 11  2  0
 10 12  1  0
 12 13  1  0
 13 14  2  0
 14 15  1  0
 15 16  2  0
 16 17  1  0
 17 18  2  0
  9  5  2  0
 18 13  1  0
  1 19  1  0
  1 20  1  0
  1 21  1  0
  2 22  1  0
  2 23  1  0
  4 24  1  0
  4 25  1  0
  6 26  1  0
  7 27  1  0
  9 28  1  0
 14 29  1  0
 15 30  1  0
 16 31  1  0
 17 32  1  0
 18 33  1  0
M  END
>  <UniqueID>  (20) 
20

>  <SMILES>  (20) 
CCN(Cc1ccsc1)C(=O)Oc1ccccc1

>  <Energy>  (20) 
56.293369067722956

>  <Genealogy>  (20) 
CCN(Cc1ccsc1)C(=O)Oc1ccccc1 (3D coordinates assigned)
CCN(Cc1ccsc1)C(=O)Oc1ccccc1 (optimized conformer: 56.293369067722956 kcal/mol)

>  <smiles>  (20) 
CCN(Cc1ccsc1)C(=O)Oc1ccccc1

>  <score_type>  (20) 
oracle

>  <origin>  (20) 
adg

>  <m_score__min__energy>  (20) 
-6.1699999999999999

>  <m_primary>  (20) 
energy

$$$$
20:0
     RDKit          3D

 42 43  0  0  1  0  0  0  0  0999 V2000
   60.3790   28.9500   45.2460 C   0  0  0  0  0  0  0  0  0  0  0  0
   58.9030   28.8960   45.5120 C   0  0  0  0  0  0  0  0  0  0  0  0
   58.2220   28.5600   44.2430 N   0  0  0  0  0  0  0  0  0  0  0  0
   58.4530   27.2350   43.8810 C   0  0  0  0  0  0  0  0  0  0  0  0
   58.1430   26.7140   42.5330 C   0  0  0  0  0  0  0  0  0  0  0  0
   57.0080   29.2130   44.1150 C   0  0  0  0  0  0  0  0  0  0  0  0
   56.9390   30.6510   43.6570 C   0  0  0  0  0  0  0  0  0  0  0  0
   56.8890   31.4390   44.8750 N   0  0  0  0  0  0  0  0  0  0  0  0
   57.7330   32.3550   45.1120 C   0  0  0  0  0  0  0  0  0  0  0  0
   58.9200   32.1910   45.7900 C   0  0  0  0  0  0  0  0  0  0  0  0
   59.8020   33.2180   46.0280 C   0  0  0  0  0  0  0  0  0  0  0  0
   61.0550   33.0500   46.7630 C   0  0  0  0  0  0  0  0  0  0  0  0
   61.1730   32.1050   47.7590 C   0  0  0  0  0  0  0  0  0  0  0  0
   62.3670   31.9440   48.4520 C   0  0  0  0  0  0  0  0  0  0  0  0
   63.4770   32.7140   48.1780 C   0  0  0  0  0  0  0  0  0  0  0  0
   64.6570   32.5830   48.8290 F   0  0  0  0  0  0  0  0  0  0  0  0
   63.3720   33.6750   47.1720 C   0  0  0  0  0  0  0  0  0  0  0  0
   62.1600   33.8150   46.4920 C   0  0  0  0  0  0  0  0  0  0  0  0
   59.4310   34.4340   45.5460 N   0  0  0  0  0  0  0  0  0  0  0  0
   58.2630   34.6030   44.8770 C   0  0  0  0  0  0  0  0  0  0  0  0
   57.4000   33.6030   44.6450 N   0  0  0  0  0  0  0  0  0  0  0  0
   60.9233   28.9699   46.2017 H   0  0  0  0  0  0  0  0  0  0  0  0
   60.6806   28.0623   44.6707 H   0  0  0  0  0  0  0  0  0  0  0  0
   60.6149   29.8574   44.6707 H   0  0  0  0  0  0  0  0  0  0  0  0
   58.6876   28.1252   46.2667 H   0  0  0  0  0  0  0  0  0  0  0  0
   58.5474   29.8653   45.8916 H   0  0  0  0  0  0  0  0  0  0  0  0
   59.5275   27.0587   44.0369 H   0  0  0  0  0  0  0  0  0  0  0  0
   57.7201   26.7004   44.5032 H   0  0  0  0  0  0  0  0  0  0  0  0
   57.5825   25.7719   42.6240 H   0  0  0  0  0  0  0  0  0  0  0  0
   57.5361   27.4504   41.9859 H   0  0  0  0  0  0  0  0  0  0  0  0
   59.0798   26.5319   41.9859 H   0  0  0  0  0  0  0  0  0  0  0  0
   56.4132   28.6282   43.3979 H   0  0  0  0  0  0  0  0  0  0  0  0
   56.6575   29.2751   45.1558 H   0  0  0  0  0  0  0  0  0  0  0  0
   57.8301   30.9105   43.0666 H   0  0  0  0  0  0  0  0  0  0  0  0
   56.0661   30.8350   43.0135 H   0  0  0  0  0  0  0  0  0  0  0  0
   59.1755   31.1871   46.1600 H   0  0  0  0  0  0  0  0  0  0  0  0
   60.3106   31.4695   48.0090 H   0  0  0  0  0  0  0  0  0  0  0  0
   62.4279   31.1805   49.2415 H   0  0  0  0  0  0  0  0  0  0  0  0
   64.2312   34.3131   46.9181 H   0  0  0  0  0  0  0  0  0  0  0  0
   62.0886   34.5758   45.7008 H   0  0  0  0  0  0  0  0  0  0  0  0
   60.0050   35.2920   45.6570 H   0  0  0  0  0  0  0  0  0  0  0  0
   58.0118   35.6081   44.5072 H   0  0  0  0  0  0  0  0  0  0  0  0
  1  2  1  0
  2  3  1  0
  3  4  1  0
  4  5  1  0
  3  6  1  0
  6  7  1  0
  7  8  1  0
  8  9  2  0
  9 10  1  0
 10 11  2  0
 11 12  1  0
 12 13  2  0
 13 14  1  0
 14 15  2  0
 15 16  1  0
 15 17  1  0
 17 18  2  0
 11 19  1  0
 19 20  1  0
 20 21  2  0
 21  9  1  0
 18 12  1  0
  1 22  1  0
  1 23  1  0
  1 24  1  0
  2 25  1  0
  2 26  1  0
  4 27  1  0
  4 28  1  0
  5 29  1  0
  5 30  1  0
  5 31  1  0
  6 32  1  0
  6 33  1  0
  7 34  1  0
  7 35  1  0
 10 36  1  0
 13 37  1  0
 14 38  1  0
 17 39  1  0
 18 40  1  0
 19 41  1  0
 20 42  1  0
M  END
>  <smiles>  (21) 
CCN(CC)CCN=c1cc(-c2ccc(F)cc2)[nH]cn1

>  <score_type>  (21) 
oracle

>  <origin>  (21) 
adg

>  <m_score__min__energy>  (21) 
-6.3499999999999996

>  <m_primary>  (21) 
energy

$$$$
21:0
     RDKit          3D

 66 70  0  0  0  0  0  0  0  0999 V2000
   56.1420   29.7340   43.4180 C   0  0  0  0  0  0  0  0  0  0  0  0
   56.1920   29.5980   44.8340 O   0  0  0  0  0  0  0  0  0  0  0  0
   57.3560   29.7410   45.6050 C   0  0  0  0  0  0  0  0  0  0  0  0
   58.0600   28.6310   46.1110 C   0  0  0  0  0  0  0  0  0  0  0  0
   59.2130   28.8210   46.8820 C   0  0  0  0  0  0  0  0  0  0  0  0
   59.6820   30.1090   47.1360 C   0  0  0  0  0  0  0  0  0  0  0  0
   58.9970   31.2190   46.6280 C   0  0  0  0  0  0  0  0  0  0  0  0
   57.8220   31.0410   45.8720 C   0  0  0  0  0  0  0  0  0  0  0  0
   57.0920   32.1270   45.3650 O   0  0  0  0  0  0  0  0  0  0  0  0
   57.6240   33.1230   44.4970 C   0  0  0  0  0  0  0  0  0  0  0  0
   60.9580   30.2500   47.9220 C   0  0  0  0  0  0  0  0  0  0  0  0
   60.9960   29.3380   49.1000 N   0  0  1  0  0  0  0  0  0  0  0  0
   60.5610   29.9880   50.3710 C   0  0  0  0  0  0  0  0  0  0  0  0
   59.3970   29.3090   51.1450 C   0  0  0  0  0  0  0  0  0  0  0  0
   58.1030   30.1280   51.3060 C   0  0  0  0  0  0  0  0  0  0  0  0
   58.0740   31.4190   50.4800 C   0  0  0  0  0  0  0  0  0  0  0  0
   58.0870   32.5850   51.3570 N   0  0  0  0  0  0  0  0  0  0  0  0
   59.0880   33.6070   51.3160 C   0  0  0  0  0  0  0  0  0  0  0  0
   58.9980   34.5810   52.1080 O   0  0  0  0  0  0  0  0  0  0  0  0
   60.2120   33.5560   50.3680 C   0  0  0  0  0  0  0  0  0  0  0  0
   61.4770   33.0170   50.6200 C   0  0  0  0  0  0  0  0  0  0  0  0
   62.2210   33.0630   49.4910 N   0  0  0  0  0  0  0  0  0  0  0  0
   61.4340   33.5700   48.5400 C   0  0  0  0  0  0  0  0  0  0  0  0
   61.7880   33.6930   47.2070 C   0  0  0  0  0  0  0  0  0  0  0  0
   60.8040   34.1600   46.3150 C   0  0  0  0  0  0  0  0  0  0  0  0
   59.5120   34.4900   46.7950 C   0  0  0  0  0  0  0  0  0  0  0  0
   59.1930   34.3410   48.1620 C   0  0  0  0  0  0  0  0  0  0  0  0
   60.1990   33.8880   49.0210 C   0  0  0  0  0  0  0  0  0  0  0  0
   63.1440   33.1910   46.7770 C   0  0  0  0  0  0  0  0  0  0  0  0
   64.1480   33.1750   47.9590 C   0  0  0  0  0  0  0  0  0  0  0  0
   63.5560   32.5240   49.2330 C   0  0  0  0  0  0  0  0  0  0  0  0
   60.3850   27.9840   48.9050 C   0  0  0  0  0  0  0  0  0  0  0  0
   59.9870   27.6710   47.4510 C   0  0  0  0  0  0  0  0  0  0  0  0
   55.7731   30.7374   43.1588 H   0  0  0  0  0  0  0  0  0  0  0  0
   57.1501   29.5948   43.0004 H   0  0  0  0  0  0  0  0  0  0  0  0
   55.4642   28.9749   43.0004 H   0  0  0  0  0  0  0  0  0  0  0  0
   57.7030   27.6122   45.8999 H   0  0  0  0  0  0  0  0  0  0  0  0
   59.3774   32.2332   46.8197 H   0  0  0  0  0  0  0  0  0  0  0  0
   58.0587   33.9369   45.0958 H   0  0  0  0  0  0  0  0  0  0  0  0
   58.4043   32.6775   43.8624 H   0  0  0  0  0  0  0  0  0  0  0  0
   56.8199   33.5238   43.8624 H   0  0  0  0  0  0  0  0  0  0  0  0
   61.8075   30.0146   47.2640 H   0  0  0  0  0  0  0  0  0  0  0  0
   61.0142   31.2840   48.2929 H   0  0  0  0  0  0  0  0  0  0  0  0
   62.0180   29.1490   49.2480 H   0  0  0  0  0  0  0  0  0  0  0  0
   61.4318   30.0212   51.0423 H   0  0  0  0  0  0  0  0  0  0  0  0
   60.1708   30.9718   50.0712 H   0  0  0  0  0  0  0  0  0  0  0  0
   59.1400   28.3808   50.6135 H   0  0  0  0  0  0  0  0  0  0  0  0
   59.7759   29.1632   52.1673 H   0  0  0  0  0  0  0  0  0  0  0  0
   57.2553   29.4997   50.9952 H   0  0  0  0  0  0  0  0  0  0  0  0
   58.0450   30.4259   52.3633 H   0  0  0  0  0  0  0  0  0  0  0  0
   58.9564   31.4493   49.8239 H   0  0  0  0  0  0  0  0  0  0  0  0
   57.1538   31.4362   49.8775 H   0  0  0  0  0  0  0  0  0  0  0  0
   61.8153   32.6171   51.5873 H   0  0  0  0  0  0  0  0  0  0  0  0
   61.0379   34.2687   45.2457 H   0  0  0  0  0  0  0  0  0  0  0  0
   58.7506   34.8658   46.0957 H   0  0  0  0  0  0  0  0  0  0  0  0
   58.1862   34.5736   48.5390 H   0  0  0  0  0  0  0  0  0  0  0  0
   63.0383   32.1688   46.3846 H   0  0  0  0  0  0  0  0  0  0  0  0
   63.5331   33.8702   46.0042 H   0  0  0  0  0  0  0  0  0  0  0  0
   65.0406   32.6081   47.6557 H   0  0  0  0  0  0  0  0  0  0  0  0
   64.3943   34.2193   48.2016 H   0  0  0  0  0  0  0  0  0  0  0  0
   63.4887   31.4355   49.0892 H   0  0  0  0  0  0  0  0  0  0  0  0
   64.2086   32.7453   50.0904 H   0  0  0  0  0  0  0  0  0  0  0  0
   61.1128   27.2273   49.2333 H   0  0  0  0  0  0  0  0  0  0  0  0
   59.4569   27.9696   49.4953 H   0  0  0  0  0  0  0  0  0  0  0  0
   60.8940   27.5075   46.8505 H   0  0  0  0  0  0  0  0  0  0  0  0
   59.3630   26.7654   47.4304 H   0  0  0  0  0  0  0  0  0  0  0  0
  1  2  1  0
  2  3  1  0
  3  4  2  0
  4  5  1  0
  5  6  2  0
  6  7  1  0
  7  8  2  0
  8  9  1  0
  9 10  1  0
  6 11  1  0
 11 12  1  0
 12 13  1  0
 13 14  1  0
 14 15  1  0
 15 16  1  0
 16 17  1  0
 17 18  1  0
 18 19  2  0
 18 20  1  0
 20 21  2  0
 21 22  1  0
 22 23  1  0
 23 24  2  0
 24 25  1  0
 25 26  2  0
 26 27  1  0
 27 28  2  0
 24 29  1  0
 29 30  1  0
 30 31  1  0
 12 32  1  0
 32 33  1  0
  8  3  1  0
 28 20  1  0
 33  5  1  0
 31 22  1  0
 28 23  1  0
  1 34  1  0
  1 35  1  0
  1 36  1  0
  4 37  1  0
  7 38  1  0
 10 39  1  0
 10 40  1  0
 10 41  1  0
 11 42  1  0
 11 43  1  0
 12 44  1  1
 13 45  1  0
 13 46  1  0
 14 47  1  0
 14 48  1  0
 15 49  1  0
 15 50  1  0
 16 51  1  0
 16 52  1  0
 21 53  1  0
 25 54  1  0
 26 55  1  0
 27 56  1  0
 29 57  1  0
 29 58  1  0
 30 59  1  0
 30 60  1  0
 31 61  1  0
 31 62  1  0
 32 63  1  0
 32 64  1  0
 33 65  1  0
 33 66  1  0
M  CHG  2  12   1  17  -1
M  END
>  <UniqueID>  (22) 
21

>  <SMILES>  (22) 
COc1cc2c(cc1OC)C[N@@H+](CCCC[N-]C(=O)c1cn3c4c(cccc14)CCC3)CC2

>  <Energy>  (22) 
123.40597207944131

>  <Genealogy>  (22) 
COc1cc2c(cc1OC)C[NH+](CCCC[N-]C(=O)c1cn3c4c(cccc14)CCC3)CC2 (protonated)
COc1cc2c(cc1OC)C[N@@H+](CCCC[N-]C(=O)c1cn3c4c(cccc14)CCC3)CC2 (chirality)
COc1cc2c(cc1OC)C[N@@H+](CCCC[N-]C(=O)c1cn3c4c(cccc14)CCC3)CC2 (3D coordinates assigned)
COc1cc2c(cc1OC)C[N@@H+](CCCC[N-]C(=O)c1cn3c4c(cccc14)CCC3)CC2 (nonaromatic ring conformer: 123.40597207944131 kcal/mol)

>  <smiles>  (22) 
COc1cc2c(cc1OC)CN(CCCCNC(=O)c1cn3c4c(cccc14)CCC3)CC2

>  <score_type>  (22) 
oracle

>  <origin>  (22) 
adg

>  <m_score__min__energy>  (22) 
-8.2599999999999998

>  <m_primary>  (22) 
energy

$$$$
22:0
     RDKit          3D

 32 33  0  0  0  0  0  0  0  0999 V2000
   59.4190   30.9700   46.4400 C   0  0  0  0  0  0  0  0  0  0  0  0
   59.1490   32.3310   45.8620 C   0  0  0  0  0  0  0  0  0  0  0  0
   58.2220   32.6620   44.8790 C   0  0  0  0  0  0  0  0  0  0  0  0
   57.2560   31.7630   44.1970 C   0  0  0  0  0  0  0  0  0  0  0  0
   56.3110   31.2700   44.8690 O   0  0  0  0  0  0  0  0  0  0  0  0
   57.3650   31.4280   42.7950 N   0  0  0  0  0  0  0  0  0  0  0  0
   56.6210   30.2700   42.2870 C   0  0  0  0  0  0  0  0  0  0  0  0
   58.1190   32.2680   41.8580 C   0  0  0  0  0  0  0  0  0  0  0  0
   58.3640   33.9770   44.6110 N   0  0  0  0  0  0  0  0  0  0  0  0
   59.3200   34.4300   45.4050 N   0  0  0  0  0  0  0  0  0  0  0  0
   59.8040   33.4700   46.1770 N   0  0  0  0  0  0  0  0  0  0  0  0
   60.8190   33.6780   47.1730 C   0  0  0  0  0  0  0  0  0  0  0  0
   60.4550   34.0390   48.4800 C   0  0  0  0  0  0  0  0  0  0  0  0
   61.4360   34.2190   49.4610 C   0  0  0  0  0  0  0  0  0  0  0  0
   62.7840   34.0260   49.1470 C   0  0  0  0  0  0  0  0  0  0  0  0
   63.1540   33.6490   47.8520 C   0  0  0  0  0  0  0  0  0  0  0  0
   64.4610   33.4490   47.5530 F   0  0  0  0  0  0  0  0  0  0  0  0
   62.1740   33.4690   46.8700 C   0  0  0  0  0  0  0  0  0  0  0  0
   59.4073   31.0292   47.5383 H   0  0  0  0  0  0  0  0  0  0  0  0
   58.6427   30.2676   46.1023 H   0  0  0  0  0  0  0  0  0  0  0  0
   60.4046   30.6172   46.1023 H   0  0  0  0  0  0  0  0  0  0  0  0
   56.2410   29.6785   43.1330 H   0  0  0  0  0  0  0  0  0  0  0  0
   55.7765   30.6171   41.6736 H   0  0  0  0  0  0  0  0  0  0  0  0
   57.2877   29.6462   41.6736 H   0  0  0  0  0  0  0  0  0  0  0  0
   58.7499   32.9709   42.4218 H   0  0  0  0  0  0  0  0  0  0  0  0
   58.7546   31.6315   41.2248 H   0  0  0  0  0  0  0  0  0  0  0  0
   57.4178   32.8314   41.2248 H   0  0  0  0  0  0  0  0  0  0  0  0
   59.6320   35.4270   45.4290 H   0  0  0  0  0  0  0  0  0  0  0  0
   59.3941   34.1809   48.7337 H   0  0  0  0  0  0  0  0  0  0  0  0
   61.1460   34.5128   50.4806 H   0  0  0  0  0  0  0  0  0  0  0  0
   63.5544   34.1707   49.9187 H   0  0  0  0  0  0  0  0  0  0  0  0
   62.4665   33.1621   45.8550 H   0  0  0  0  0  0  0  0  0  0  0  0
  1  2  1  0
  2  3  2  0
  3  4  1  0
  4  5  2  0
  4  6  1  0
  6  7  1  0
  6  8  1  0
  3  9  1  0
  9 10  2  0
 10 11  1  0
 11 12  1  0
 12 13  2  0
 13 14  1  0
 14 15  2  0
 15 16  1  0
 16 17  1  0
 16 18  2  0
 11  2  1  0
 18 12  1  0
  1 19  1  0
  1 20  1  0
  1 21  1  0
  7 22  1  0
  7 23  1  0
  7 24  1  0
  8 25  1  0
  8 26  1  0
  8 27  1  0
 10 28  1  0
 13 29  1  0
 14 30  1  0
 15 31  1  0
 18 32  1  0
M  CHG  1  10   1
M  END
>  <UniqueID>  (23) 
22

>  <SMILES>  (23) 
Cc1c(C(=O)N(C)C)n[nH+]n1-c1cccc(F)c1

>  <Energy>  (23) 
73.56764927688809

>  <Genealogy>  (23) 
Cc1c(C(=O)N(C)C)n[nH+]n1-c1cccc(F)c1 (protonated)
Cc1c(C(=O)N(C)C)n[nH+]n1-c1cccc(F)c1 (3D coordinates assigned)
Cc1c(C(=O)N(C)C)n[nH+]n1-c1cccc(F)c1 (optimized conformer: 73.56764927688809 kcal/mol)

>  <smiles>  (23) 
Cc1c(C(=O)N(C)C)nnn1-c1cccc(F)c1

>  <score_type>  (23) 
oracle

>  <origin>  (23) 
adg

>  <m_score__min__energy>  (23) 
-5.3799999999999999

>  <m_primary>  (23) 
energy

$$$$
24:0
     RDKit          3D

 51 51  0  0  0  0  0  0  0  0999 V2000
   58.3211   31.1624   48.2468 H   0  0  0  0  0  0  0  0  0  0  0  0
   59.1470   30.5160   47.9150 C   0  0  0  0  0  0  0  0  0  0  0  0
   59.9539   30.2521   48.6144 H   0  0  0  0  0  0  0  0  0  0  0  0
   59.1700   30.0520   46.6640 C   0  0  0  0  0  0  0  0  0  0  0  0
   58.3592   30.3206   45.9708 H   0  0  0  0  0  0  0  0  0  0  0  0
   60.2890   29.1670   46.1890 C   0  0  0  0  0  0  0  0  0  0  0  0
   60.5793   29.4669   45.1713 H   0  0  0  0  0  0  0  0  0  0  0  0
   61.1410   29.2746   46.8764 H   0  0  0  0  0  0  0  0  0  0  0  0
   59.8570   27.7220   46.1750 C   0  0  0  0  0  0  0  0  0  0  0  0
   60.5688   26.9935   45.7595 H   0  0  0  0  0  0  0  0  0  0  0  0
   58.6770   27.2370   46.6250 C   0  0  0  0  0  0  0  0  0  0  0  0
   58.4396   27.4201   47.6834 H   0  0  0  0  0  0  0  0  0  0  0  0
   57.6360   26.4580   45.8110 C   0  0  0  0  0  0  0  0  0  0  0  0
   56.3550   27.2830   45.7240 C   0  0  0  0  0  0  0  0  0  0  0  0
   55.2420   26.7210   45.9250 O   0  0  0  0  0  0  0  0  0  0  0  0
   56.3950   28.6930   45.4900 N   0  0  0  0  0  0  0  0  0  0  0  0
   55.5260   29.3630   44.5320 C   0  0  0  0  0  0  0  0  0  0  0  0
   54.7840   28.6451   44.1525 H   0  0  0  0  0  0  0  0  0  0  0  0
   55.0203   30.2004   45.0351 H   0  0  0  0  0  0  0  0  0  0  0  0
   56.3440   29.9110   43.3580 C   0  0  0  0  0  0  0  0  0  0  0  0
   56.6619   29.0670   42.7282 H   0  0  0  0  0  0  0  0  0  0  0  0
   55.7006   30.6141   42.8087 H   0  0  0  0  0  0  0  0  0  0  0  0
   57.5910   30.6840   43.8050 C   0  0  0  0  0  0  0  0  0  0  0  0
   57.8763   30.3616   44.8173 H   0  0  0  0  0  0  0  0  0  0  0  0
   58.4135   30.4803   43.1036 H   0  0  0  0  0  0  0  0  0  0  0  0
   57.3210   32.0710   43.8140 O   0  0  0  0  0  0  0  0  0  0  0  0
   57.3560   32.5520   45.1410 C   0  0  0  0  0  0  0  0  0  0  0  0
   56.3436   32.5232   45.5702 H   0  0  0  0  0  0  0  0  0  0  0  0
   58.0238   31.9216   45.7465 H   0  0  0  0  0  0  0  0  0  0  0  0
   57.8670   33.9840   45.1370 C   0  0  0  0  0  0  0  0  0  0  0  0
   57.9911   34.3319   46.1731 H   0  0  0  0  0  0  0  0  0  0  0  0
   58.8357   34.0262   44.6175 H   0  0  0  0  0  0  0  0  0  0  0  0
   57.1439   34.6299   44.6175 H   0  0  0  0  0  0  0  0  0  0  0  0
   58.1900   26.3280   44.3540 C   0  0  0  0  0  0  0  0  0  0  0  0
   58.2896   27.3421   43.9397 H   0  0  0  0  0  0  0  0  0  0  0  0
   59.1420   25.7846   44.4453 H   0  0  0  0  0  0  0  0  0  0  0  0
   57.3310   25.5020   43.3780 C   0  0  0  0  0  0  0  0  0  0  0  0
   56.3695   26.0208   43.2502 H   0  0  0  0  0  0  0  0  0  0  0  0
   57.9185   25.4226   42.4514 H   0  0  0  0  0  0  0  0  0  0  0  0
   57.0360   24.0600   43.8150 C   0  0  0  0  0  0  0  0  0  0  0  0
   56.1286   24.0675   44.4367 H   0  0  0  0  0  0  0  0  0  0  0  0
   56.9192   23.4700   42.8940 H   0  0  0  0  0  0  0  0  0  0  0  0
   58.1690   23.3960   44.6230 C   0  0  0  0  0  0  0  0  0  0  0  0
   57.9415   22.3227   44.7025 H   0  0  0  0  0  0  0  0  0  0  0  0
   59.0956   23.6199   44.0742 H   0  0  0  0  0  0  0  0  0  0  0  0
   58.3900   23.9420   46.0580 C   0  0  0  0  0  0  0  0  0  0  0  0
   58.2866   23.1016   46.7602 H   0  0  0  0  0  0  0  0  0  0  0  0
   59.3911   24.3979   46.0573 H   0  0  0  0  0  0  0  0  0  0  0  0
   57.4180   25.0540   46.5010 C   0  0  0  0  0  0  0  0  0  0  0  0
   56.3945   24.7201   46.2752 H   0  0  0  0  0  0  0  0  0  0  0  0
   57.6050   25.2108   47.5736 H   0  0  0  0  0  0  0  0  0  0  0  0
  1  2  1  0
  2  3  1  0
  2  4  2  0
  4  5  1  0
  4  6  1  0
  6  7  1  0
  6  8  1  0
  6  9  1  0
  9 10  1  0
  9 11  2  0
 11 12  1  0
 11 13  1  0
 13 14  1  0
 14 15  2  0
 14 16  1  0
 16 17  1  0
 17 18  1  0
 17 19  1  0
 17 20  1  0
 20 21  1  0
 20 22  1  0
 20 23  1  0
 23 24  1  0
 23 25  1  0
 23 26  1  0
 26 27  1  0
 27 28  1  0
 27 29  1  0
 27 30  1  0
 30 31  1  0
 30 32  1  0
 30 33  1  0
 13 34  1  0
 34 35  1  0
 34 36  1  0
 34 37  1  0
 37 38  1  0
 37 39  1  0
 37 40  1  0
 40 41  1  0
 40 42  1  0
 40 43  1  0
 43 44  1  0
 43 45  1  0
 43 46  1  0
 46 47  1  0
 46 48  1  0
 46 49  1  0
 49 50  1  0
 49 51  1  0
 49 13  1  0
M  CHG  1  16  -1
M  END
>  <UniqueID>  (24) 
23

>  <SMILES>  (24) 
C=CC/C=C\C1(C(=O)[N-]CCCOCC)CCCCCC1

>  <Energy>  (24) 
48.242108238090935

>  <Genealogy>  (24) 
C=CCC=CC1(C(=O)[N-]CCCOCC)CCCCCC1 (protonated)
C=CC/C=C\C1(C(=O)[N-]CCCOCC)CCCCCC1 (cis-trans isomerization)
C=CC/C=C\C1(C(=O)[N-]CCCOCC)CCCCCC1 (3D coordinates assigned)
C=CC/C=C\C1(C(=O)[N-]CCCOCC)CCCCCC1 (nonaromatic ring conformer: 48.242108238090935 kcal/mol)

>  <smiles>  (24) 
C=CCC=CC1(C(=O)NCCCOCC)CCCCCC1

>  <score_type>  (24) 
oracle

>  <origin>  (24) 
adg

>  <m_score__min__energy>  (24) 
-6.0199999999999996

>  <m_primary>  (24) 
energy

$$$$
25:0
     RDKit          3D

 46 51  0  0  0  0  0  0  0  0999 V2000
   51.6730   32.7200   48.7600 H   0  0  0  0  0  0  0  0  0  0  0  0
   51.0130   32.3410   49.4760 N   0  0  0  0  0  0  0  0  0  0  0  0
   51.4130   32.0320   50.6670 C   0  0  0  0  0  0  0  0  0  0  0  0
   52.6340   31.4690   50.8590 N   0  0  0  0  0  0  0  0  0  0  0  0
   53.0700   31.1440   52.1060 C   0  0  0  0  0  0  0  0  0  0  0  0
   54.4100   30.5270   52.2740 C   0  0  0  0  0  0  0  0  0  0  0  0
   54.5390   29.3240   53.0190 C   0  0  0  0  0  0  0  0  0  0  0  0
   53.6431   28.8568   53.4539 H   0  0  0  0  0  0  0  0  0  0  0  0
   55.7940   28.7230   53.2080 C   0  0  0  0  0  0  0  0  0  0  0  0
   55.8968   27.8014   53.7998 H   0  0  0  0  0  0  0  0  0  0  0  0
   56.9040   29.3270   52.6250 C   0  0  0  0  0  0  0  0  0  0  0  0
   56.7950   30.4700   51.8740 C   0  0  0  0  0  0  0  0  0  0  0  0
   55.5650   31.1070   51.6920 C   0  0  0  0  0  0  0  0  0  0  0  0
   55.4945   32.0378   51.1101 H   0  0  0  0  0  0  0  0  0  0  0  0
   58.0790   30.7950   51.4610 C   0  0  0  0  0  0  0  0  0  0  0  0
   58.5340   31.9180   50.6220 C   0  0  0  0  0  0  0  0  0  0  0  0
   58.3770   31.9630   49.2830 N   0  0  0  0  0  0  0  0  0  0  0  0
   58.8590   33.1350   48.8940 N   0  0  0  0  0  0  0  0  0  0  0  0
   58.7690   33.6450   47.5230 C   0  0  1  0  0  0  0  0  0  0  0  0
   59.1693   34.6604   47.6599 H   0  0  0  0  0  0  0  0  0  0  0  0
   59.3970   32.6920   46.4930 C   0  0  0  0  0  0  0  0  0  0  0  0
   59.8275   31.7762   46.9241 H   0  0  0  0  0  0  0  0  0  0  0  0
   60.2568   33.0016   45.8807 H   0  0  0  0  0  0  0  0  0  0  0  0
   58.0210   32.5100   45.8800 C   0  0  2  0  0  0  0  0  0  0  0  0
   57.5280   31.1980   45.8800 O   0  0  0  0  0  0  0  0  0  0  0  0
   57.2920   31.2930   44.4900 C   0  0  0  0  0  0  0  0  0  0  0  0
   56.2293   31.1996   44.2217 H   0  0  0  0  0  0  0  0  0  0  0  0
   57.7346   30.5331   43.8292 H   0  0  0  0  0  0  0  0  0  0  0  0
   57.8100   32.7180   44.4050 C   0  0  0  0  0  0  0  0  0  0  0  0
   57.0675   33.4818   44.1306 H   0  0  0  0  0  0  0  0  0  0  0  0
   58.5883   33.0577   43.7058 H   0  0  0  0  0  0  0  0  0  0  0  0
   57.3810   33.4490   46.8870 C   0  0  0  0  0  0  0  0  0  0  0  0
   56.6410   32.9728   47.5470 H   0  0  0  0  0  0  0  0  0  0  0  0
   56.7761   34.3082   46.5616 H   0  0  0  0  0  0  0  0  0  0  0  0
   59.2640   33.8570   49.9270 N   0  0  0  0  0  0  0  0  0  0  0  0
   59.6140   34.8410   49.8830 H   0  0  0  0  0  0  0  0  0  0  0  0
   59.0810   33.1190   51.0340 C   0  0  0  0  0  0  0  0  0  0  0  0
   59.3197   33.4127   52.0668 H   0  0  0  0  0  0  0  0  0  0  0  0
   58.9070   29.8230   52.0140 C   0  0  0  0  0  0  0  0  0  0  0  0
   60.0001   29.7900   51.8957 H   0  0  0  0  0  0  0  0  0  0  0  0
   58.1820   28.9260   52.7160 N   0  0  0  0  0  0  0  0  0  0  0  0
   58.5480   28.0930   53.2300 H   0  0  0  0  0  0  0  0  0  0  0  0
   52.2190   31.3910   53.1950 C   0  0  0  0  0  0  0  0  0  0  0  0
   52.5316   31.1329   54.2176 H   0  0  0  0  0  0  0  0  0  0  0  0
   51.0050   31.9530   52.9670 N   0  0  0  0  0  0  0  0  0  0  0  0
   50.6100   32.2690   51.7340 N   0  0  0  0  0  0  0  0  0  0  0  0
  1  2  1  0
  2  3  2  0
  3  4  1  0
  4  5  2  0
  5  6  1  0
  6  7  2  0
  7  8  1  0
  7  9  1  0
  9 10  1  0
  9 11  2  0
 11 12  1  0
 12 13  2  0
 13 14  1  0
 12 15  1  0
 15 16  1  0
 16 17  2  0
 17 18  1  0
 18 19  1  0
 19 20  1  1
 19 21  1  0
 21 22  1  0
 21 23  1  0
 21 24  1  0
 24 25  1  1
 25 26  1  0
 26 27  1  0
 26 28  1  0
 26 29  1  0
 29 30  1  0
 29 31  1  0
 24 32  1  0
 32 33  1  0
 32 34  1  0
 18 35  1  0
 35 36  1  0
 35 37  2  0
 37 38  1  0
 15 39  2  0
 39 40  1  0
 39 41  1  0
 41 42  1  0
  5 43  1  0
 43 44  1  0
 43 45  2  0
 45 46  1  0
 46  3  1  0
 13  6  1  0
 37 16  1  0
 41 11  1  0
 32 19  1  0
 29 24  1  0
M  CHG  2  35   1  46  -1
M  END
>  <UniqueID>  (25) 
24

>  <SMILES>  (25) 
[H]/N=c1\nc(-c2ccc3[nH]cc(-c4c[nH+]n(C5CC6(CCO6)C5)n4)c3c2)cn[n-]1

>  <Energy>  (25) 
259.98225457856375

>  <Genealogy>  (25) 
N=c1nc(-c2ccc3[nH]cc(-c4c[nH+]n(C5CC6(CCO6)C5)n4)c3c2)cn[n-]1 (protonated)
[H]/N=c1\nc(-c2ccc3[nH]cc(-c4c[nH+]n(C5CC6(CCO6)C5)n4)c3c2)cn[n-]1 (cis-trans isomerization)
[H]/N=c1\nc(-c2ccc3[nH]cc(-c4c[nH+]n(C5CC6(CCO6)C5)n4)c3c2)cn[n-]1 (3D coordinates assigned)
[H]/N=c1\nc(-c2ccc3[nH]cc(-c4c[nH+]n(C5CC6(CCO6)C5)n4)c3c2)cn[n-]1 (nonaromatic ring conformer: 259.98225457856375 kcal/mol)

>  <smiles>  (25) 
N=c1nc(-c2ccc3[nH]cc(-c4cnn(C5CC6(CCO6)C5)n4)c3c2)cn[nH]1

>  <score_type>  (25) 
oracle

>  <origin>  (25) 
adg

>  <m_score__min__energy>  (25) 
-10.470000000000001

>  <m_primary>  (25) 
energy

$$$$
26:0
     RDKit          3D

 41 44  0  0  0  0  0  0  0  0999 V2000
   59.6440   34.9880   45.9640 C   0  0  0  0  0  0  0  0  0  0  0  0
   58.8150   34.4370   47.1220 C   0  0  0  0  0  0  0  0  0  0  0  0
   57.8940   33.2770   46.7120 C   0  0  0  0  0  0  0  0  0  0  0  0
   58.4150   32.4640   45.5130 C   0  0  0  0  0  0  0  0  0  0  0  0
   57.5680   31.2620   45.2230 C   0  0  0  0  0  0  0  0  0  0  0  0
   56.4000   31.2840   44.5210 N   0  0  0  0  0  0  0  0  0  0  0  0
   55.8840   30.0520   44.5330 N   0  0  0  0  0  0  0  0  0  0  0  0
   56.7620   29.3380   45.2540 C   0  0  0  0  0  0  0  0  0  0  0  0
   56.7710   28.0490   45.6210 N   0  0  0  0  0  0  0  0  0  0  0  0
   57.8900   27.9230   46.3420 N   0  0  0  0  0  0  0  0  0  0  0  0
   58.5010   29.1400   46.3870 C   0  0  0  0  0  0  0  0  0  0  0  0
   59.8180   29.4110   47.0510 C   0  0  0  0  0  0  0  0  0  0  0  0
   59.6550   30.3190   48.2610 C   0  0  0  0  0  0  0  0  0  0  0  0
   58.6780   29.9630   49.2120 C   0  0  0  0  0  0  0  0  0  0  0  0
   58.5010   30.7010   50.3790 C   0  0  0  0  0  0  0  0  0  0  0  0
   59.2790   31.8280   50.6200 C   0  0  0  0  0  0  0  0  0  0  0  0
   60.2230   32.2500   49.6760 C   0  0  0  0  0  0  0  0  0  0  0  0
   60.9820   33.4020   49.9290 C   0  0  0  0  0  0  0  0  0  0  0  0
   61.9100   33.8540   48.9940 C   0  0  0  0  0  0  0  0  0  0  0  0
   62.0780   33.1720   47.7910 C   0  0  0  0  0  0  0  0  0  0  0  0
   63.3360   33.8150   46.5050 Br  0  0  0  0  0  0  0  0  0  0  0  0
   61.3300   32.0220   47.5200 C   0  0  0  0  0  0  0  0  0  0  0  0
   60.4080   31.5170   48.4670 C   0  0  0  0  0  0  0  0  0  0  0  0
   57.7780   30.0250   45.6900 N   0  0  0  0  0  0  0  0  0  0  0  0
   60.4980   35.5556   46.3620 H   0  0  0  0  0  0  0  0  0  0  0  0
   60.0127   34.1546   45.3479 H   0  0  0  0  0  0  0  0  0  0  0  0
   59.0184   35.6506   45.3479 H   0  0  0  0  0  0  0  0  0  0  0  0
   59.5014   34.0785   47.9033 H   0  0  0  0  0  0  0  0  0  0  0  0
   58.1708   35.2539   47.4793 H   0  0  0  0  0  0  0  0  0  0  0  0
   57.7875   32.5984   47.5712 H   0  0  0  0  0  0  0  0  0  0  0  0
   56.9357   33.7217   46.4055 H   0  0  0  0  0  0  0  0  0  0  0  0
   58.4236   33.1122   44.6243 H   0  0  0  0  0  0  0  0  0  0  0  0
   59.4252   32.1083   45.7640 H   0  0  0  0  0  0  0  0  0  0  0  0
   60.2574   28.4566   47.3767 H   0  0  0  0  0  0  0  0  0  0  0  0
   60.4731   29.9159   46.3259 H   0  0  0  0  0  0  0  0  0  0  0  0
   58.0424   29.0842   49.0285 H   0  0  0  0  0  0  0  0  0  0  0  0
   57.7428   30.3914   51.1133 H   0  0  0  0  0  0  0  0  0  0  0  0
   59.1522   32.3906   51.5567 H   0  0  0  0  0  0  0  0  0  0  0  0
   60.8435   33.9518   50.8716 H   0  0  0  0  0  0  0  0  0  0  0  0
   62.5110   34.7506   49.2057 H   0  0  0  0  0  0  0  0  0  0  0  0
   61.4600   31.5035   46.5586 H   0  0  0  0  0  0  0  0  0  0  0  0
  1  2  1  0
  2  3  1  0
  3  4  1  0
  4  5  1  0
  5  6  2  0
  6  7  1  0
  7  8  1  0
  8  9  2  0
  9 10  1  0
 10 11  2  0
 11 12  1  0
 12 13  1  0
 13 14  2  0
 14 15  1  0
 15 16  2  0
 16 17  1  0
 17 18  2  0
 18 19  1  0
 19 20  2  0
 20 21  1  0
 20 22  1  0
 22 23  2  0
 11 24  1  0
 24  5  1  0
 24  8  1  0
 23 13  1  0
 23 17  1  0
  1 25  1  0
  1 26  1  0
  1 27  1  0
  2 28  1  0
  2 29  1  0
  3 30  1  0
  3 31  1  0
  4 32  1  0
  4 33  1  0
 12 34  1  0
 12 35  1  0
 14 36  1  0
 15 37  1  0
 16 38  1  0
 18 39  1  0
 19 40  1  0
 22 41  1  0
M  CHG  1   7  -1
M  END
>  <UniqueID>  (26) 
25

>  <SMILES>  (26) 
CCCCc1n[n-]c2nnc(Cc3cccc4ccc(Br)cc34)n12

>  <Energy>  (26) 
146.18761552472463

>  <Genealogy>  (26) 
CCCCc1n[n-]c2nnc(Cc3cccc4ccc(Br)cc34)n12 (protonated)
CCCCc1n[n-]c2nnc(Cc3cccc4ccc(Br)cc34)n12 (3D coordinates assigned)
CCCCc1n[n-]c2nnc(Cc3cccc4ccc(Br)cc34)n12 (optimized conformer: 146.18761552472463 kcal/mol)

>  <smiles>  (26) 
CCCCc1n[nH]c2nnc(Cc3cccc4ccc(Br)cc34)n12

>  <score_type>  (26) 
oracle

>  <origin>  (26) 
adg

>  <m_score__min__energy>  (26) 
-10.210000000000001

>  <m_primary>  (26) 
energy

$$$$
27:0
     RDKit          3D

 55 58  0  0  0  0  0  0  0  0999 V2000
   60.6770   30.0040   48.5170 C   0  0  0  0  0  0  0  0  0  0  0  0
   61.0220   31.1240   49.3250 O   0  0  0  0  0  0  0  0  0  0  0  0
   62.2870   31.7340   49.3460 C   0  0  0  0  0  0  0  0  0  0  0  0
   63.3490   31.2270   50.1250 C   0  0  0  0  0  0  0  0  0  0  0  0
   64.5860   31.8790   50.1370 C   0  0  0  0  0  0  0  0  0  0  0  0
   64.7760   33.0380   49.3830 C   0  0  0  0  0  0  0  0  0  0  0  0
   63.7320   33.5460   48.6060 C   0  0  0  0  0  0  0  0  0  0  0  0
   62.4920   32.8930   48.5760 C   0  0  0  0  0  0  0  0  0  0  0  0
   61.4270   33.4230   47.7720 N   0  0  0  0  0  0  0  0  0  0  0  0
   60.1480   33.7720   48.3910 C   0  0  0  0  0  0  0  0  0  0  0  0
   58.9680   33.3420   47.4920 C   0  0  0  0  0  0  0  0  0  0  0  0
   59.3150   33.2370   46.0450 N   0  0  0  0  0  0  0  0  0  0  0  0
   58.1260   33.4580   45.1810 C   0  0  0  0  0  0  0  0  0  0  0  0
   57.0020   32.4200   45.3990 C   0  0  0  0  0  0  0  0  0  0  0  0
   56.9340   31.3730   44.2780 C   0  0  0  0  0  0  0  0  0  0  0  0
   57.3310   30.0620   44.7880 N   0  0  0  0  0  0  0  0  0  0  0  0
   56.5240   29.0070   45.0680 C   0  0  0  0  0  0  0  0  0  0  0  0
   55.1480   28.9810   44.8710 O   0  0  0  0  0  0  0  0  0  0  0  0
   57.2880   28.0150   45.6420 C   0  0  0  0  0  0  0  0  0  0  0  0
   58.5280   28.4420   45.7480 N   0  0  0  0  0  0  0  0  0  0  0  0
   58.5470   29.6950   45.2650 C   0  0  0  0  0  0  0  0  0  0  0  0
   59.5550   30.4520   45.3090 O   0  0  0  0  0  0  0  0  0  0  0  0
   59.3530   27.6380   46.6180 C   0  0  0  0  0  0  0  0  0  0  0  0
   58.4030   26.4800   47.0270 C   0  0  0  0  0  0  0  0  0  0  0  0
   57.0070   26.7900   46.4130 C   0  0  0  0  0  0  0  0  0  0  0  0
   60.3850   34.1900   45.6740 C   0  0  0  0  0  0  0  0  0  0  0  0
   61.6930   33.8140   46.3840 C   0  0  0  0  0  0  0  0  0  0  0  0
   60.4148   29.1529   49.1627 H   0  0  0  0  0  0  0  0  0  0  0  0
   59.8164   30.2612   47.8820 H   0  0  0  0  0  0  0  0  0  0  0  0
   61.5331   29.7324   47.8820 H   0  0  0  0  0  0  0  0  0  0  0  0
   63.2033   30.3163   50.7245 H   0  0  0  0  0  0  0  0  0  0  0  0
   65.4118   31.4772   50.7425 H   0  0  0  0  0  0  0  0  0  0  0  0
   65.7485   33.5518   49.4005 H   0  0  0  0  0  0  0  0  0  0  0  0
   63.8836   34.4617   48.0156 H   0  0  0  0  0  0  0  0  0  0  0  0
   60.0662   33.2617   49.3620 H   0  0  0  0  0  0  0  0  0  0  0  0
   60.1082   34.8628   48.5271 H   0  0  0  0  0  0  0  0  0  0  0  0
   58.6123   32.3591   47.8347 H   0  0  0  0  0  0  0  0  0  0  0  0
   58.1997   34.1243   47.5792 H   0  0  0  0  0  0  0  0  0  0  0  0
   59.6830   32.2740   45.8610 H   0  0  0  0  0  0  0  0  0  0  0  0
   57.7218   34.4585   45.3947 H   0  0  0  0  0  0  0  0  0  0  0  0
   58.4613   33.3566   44.1383 H   0  0  0  0  0  0  0  0  0  0  0  0
   57.1816   31.9025   46.3529 H   0  0  0  0  0  0  0  0  0  0  0  0
   56.0455   32.9633   45.4035 H   0  0  0  0  0  0  0  0  0  0  0  0
   55.9045   31.3173   43.8946 H   0  0  0  0  0  0  0  0  0  0  0  0
   57.6200   31.6669   43.4699 H   0  0  0  0  0  0  0  0  0  0  0  0
   60.2355   27.2557   46.0841 H   0  0  0  0  0  0  0  0  0  0  0  0
   59.7504   28.1973   47.4778 H   0  0  0  0  0  0  0  0  0  0  0  0
   58.7830   25.5249   46.6355 H   0  0  0  0  0  0  0  0  0  0  0  0
   58.3379   26.3972   48.1219 H   0  0  0  0  0  0  0  0  0  0  0  0
   56.6657   25.9737   45.7594 H   0  0  0  0  0  0  0  0  0  0  0  0
   56.2056   26.9039   47.1579 H   0  0  0  0  0  0  0  0  0  0  0  0
   60.5394   34.1584   44.5854 H   0  0  0  0  0  0  0  0  0  0  0  0
   60.0871   35.2039   45.9795 H   0  0  0  0  0  0  0  0  0  0  0  0
   62.1640   32.9728   45.8544 H   0  0  0  0  0  0  0  0  0  0  0  0
   62.3639   34.6857   46.3811 H   0  0  0  0  0  0  0  0  0  0  0  0
  1  2  1  0
  2  3  1  0
  3  4  2  0
  4  5  1  0
  5  6  2  0
  6  7  1  0
  7  8  2  0
  8  9  1  0
  9 10  1  0
 10 11  1  0
 11 12  1  0
 12 13  1  0
 13 14  1  0
 14 15  1  0
 15 16  1  0
 16 17  1  0
 17 18  1  0
 17 19  2  0
 19 20  1  0
 20 21  1  0
 21 22  2  0
 20 23  1  0
 23 24  1  0
 24 25  1  0
 12 26  1  0
 26 27  1  0
  8  3  1  0
 27  9  1  0
 21 16  1  0
 25 19  1  0
  1 28  1  0
  1 29  1  0
  1 30  1  0
  4 31  1  0
  5 32  1  0
  6 33  1  0
  7 34  1  0
 10 35  1  0
 10 36  1  0
 11 37  1  0
 11 38  1  0
 12 39  1  0
 13 40  1  0
 13 41  1  0
 14 42  1  0
 14 43  1  0
 15 44  1  0
 15 45  1  0
 23 46  1  0
 23 47  1  0
 24 48  1  0
 24 49  1  0
 25 50  1  0
 25 51  1  0
 26 52  1  0
 26 53  1  0
 27 54  1  0
 27 55  1  0
M  CHG  2  12   1  18  -1
M  END
>  <UniqueID>  (27) 
26

>  <SMILES>  (27) 
COc1ccccc1N1CC[NH+](CCCn2c([O-])c3n(c2=O)CCC3)CC1

>  <Energy>  (27) 
121.38391683093474

>  <Genealogy>  (27) 
COc1ccccc1N1CC[NH+](CCCn2c([O-])c3n(c2=O)CCC3)CC1 (protonated)
COc1ccccc1N1CC[NH+](CCCn2c([O-])c3n(c2=O)CCC3)CC1 (3D coordinates assigned)
COc1ccccc1N1CC[NH+](CCCn2c([O-])c3n(c2=O)CCC3)CC1 (nonaromatic ring conformer: 121.38391683093474 kcal/mol)

>  <smiles>  (27) 
COc1ccccc1N1CCN(CCCn2c(O)c3n(c2=O)CCC3)CC1

>  <score_type>  (27) 
oracle

>  <origin>  (27) 
adg

>  <m_score__min__energy>  (27) 
-9.1799999999999997

>  <m_primary>  (27) 
energy

$$$$
28:0
     RDKit          3D

 23 23  0  0  0  0  0  0  0  0999 V2000
   53.6730   25.9570   46.3740 H   0  0  0  0  0  0  0  0  0  0  0  0
   54.5880   26.0340   45.9270 O   0  0  0  0  0  0  0  0  0  0  0  0
   55.7290   25.5230   46.4900 N   0  0  0  0  0  0  0  0  0  0  0  0
   56.7660   25.3410   45.5930 C   0  0  0  0  0  0  0  0  0  0  0  0
   56.8543   24.5054   44.8830 H   0  0  0  0  0  0  0  0  0  0  0  0
   57.7060   26.4110   45.7340 C   0  0  0  0  0  0  0  0  0  0  0  0
   58.5590   27.3810   45.8620 C   0  0  0  0  0  0  0  0  0  0  0  0
   59.5570   27.0807   46.2139 H   0  0  0  0  0  0  0  0  0  0  0  0
   58.4120   28.6690   45.6350 C   0  0  0  0  0  0  0  0  0  0  0  0
   59.3720   29.7880   45.7710 C   0  0  0  0  0  0  0  0  0  0  0  0
   59.5477   29.9928   46.8374 H   0  0  0  0  0  0  0  0  0  0  0  0
   60.3224   29.5165   45.2883 H   0  0  0  0  0  0  0  0  0  0  0  0
   58.9591   30.6861   45.2883 H   0  0  0  0  0  0  0  0  0  0  0  0
   57.1290   28.7250   45.2280 C   0  0  0  0  0  0  0  0  0  0  0  0
   56.4200   29.9540   44.8390 C   0  0  0  0  0  0  0  0  0  0  0  0
   55.2290   29.8730   44.4690 O   0  0  0  0  0  0  0  0  0  0  0  0
   57.0100   31.2050   44.8600 O   0  0  0  0  0  0  0  0  0  0  0  0
   57.6410   31.7540   43.6920 C   0  0  0  0  0  0  0  0  0  0  0  0
   58.4382   32.4476   43.9977 H   0  0  0  0  0  0  0  0  0  0  0  0
   58.0735   30.9398   43.0920 H   0  0  0  0  0  0  0  0  0  0  0  0
   56.8945   32.2950   43.0920 H   0  0  0  0  0  0  0  0  0  0  0  0
   56.6440   27.5420   45.2440 N   0  0  0  0  0  0  0  0  0  0  0  0
   55.7090   27.2680   44.9910 H   0  0  0  0  0  0  0  0  0  0  0  0
  1  2  1  0
  2  3  1  0
  3  4  2  0
  4  5  1  0
  4  6  1  0
  6  7  2  0
  7  8  1  0
  7  9  1  0
  9 10  1  0
 10 11  1  0
 10 12  1  0
 10 13  1  0
  9 14  2  0
 14 15  1  0
 15 16  2  0
 15 17  1  0
 17 18  1  0
 18 19  1  0
 18 20  1  0
 18 21  1  0
 14 22  1  0
 22 23  1  0
 22  6  1  0
M  END
>  <UniqueID>  (28) 
27

>  <SMILES>  (28) 
COC(=O)c1[nH]c(/C=N/O)cc1C

>  <Energy>  (28) 
257.91646315199097

>  <Genealogy>  (28) 
COC(=O)c1[nH]c(/C=N/O)cc1C (cis-trans isomerization)
COC(=O)c1[nH]c(/C=N/O)cc1C (3D coordinates assigned)
COC(=O)c1[nH]c(/C=N/O)cc1C (optimized conformer: 257.91646315199097 kcal/mol)

>  <smiles>  (28) 
COC(=O)c1[nH]c(C=NO)cc1C

>  <score_type>  (28) 
oracle

>  <origin>  (28) 
adg

>  <m_score__min__energy>  (28) 
-6.7699999999999996

>  <m_primary>  (28) 
energy

$$$$
29:0
     RDKit          3D

 61 63  0  0  0  0  0  0  0  0999 V2000
   64.2120   32.7790   49.4420 C   0  0  0  0  0  0  0  0  0  0  0  0
   62.7570   33.1990   49.6040 C   0  0  0  0  0  0  0  0  0  0  0  0
   62.0570   33.1130   48.3100 N   0  0  0  0  0  0  0  0  0  0  0  0
   62.7910   32.6700   47.1120 C   0  0  0  0  0  0  0  0  0  0  0  0
   63.3180   33.8640   46.3160 C   0  0  0  0  0  0  0  0  0  0  0  0
   60.6730   33.5270   48.2250 C   0  0  0  0  0  0  0  0  0  0  0  0
   60.2790   34.5020   48.9220 O   0  0  0  0  0  0  0  0  0  0  0  0
   59.7250   32.8840   47.2810 C   0  0  0  0  0  0  0  0  0  0  0  0
   59.1850   33.6120   46.2000 C   0  0  0  0  0  0  0  0  0  0  0  0
   59.6410   35.2840   45.8790 Cl  0  0  0  0  0  0  0  0  0  0  0  0
   58.3130   32.9910   45.3040 C   0  0  0  0  0  0  0  0  0  0  0  0
   57.9520   31.6560   45.4700 C   0  0  0  0  0  0  0  0  0  0  0  0
   56.7340   30.8700   44.2190 Br  0  0  0  0  0  0  0  0  0  0  0  0
   58.4540   30.9220   46.5560 C   0  0  0  0  0  0  0  0  0  0  0  0
   58.0330   29.5640   46.7420 N   0  0  0  0  0  0  0  0  0  0  0  0
   58.0850   28.6060   45.6830 C   0  0  0  0  0  0  0  0  0  0  0  0
   57.2730   27.5700   45.2440 C   0  0  0  0  0  0  0  0  0  0  0  0
   56.0140   27.0080   45.6290 N   0  0  0  0  0  0  0  0  0  0  0  0
   55.8910   25.6880   46.2430 C   0  0  0  0  0  0  0  0  0  0  0  0
   54.7860   24.8580   45.5650 C   0  0  0  0  0  0  0  0  0  0  0  0
   54.8730   23.3630   45.9170 C   0  0  0  0  0  0  0  0  0  0  0  0
   55.0880   22.5490   44.7000 N   0  0  0  0  0  0  0  0  0  0  0  0
   55.4050   23.3470   43.4860 C   0  0  0  0  0  0  0  0  0  0  0  0
   56.8670   23.2330   43.0170 C   0  0  0  0  0  0  0  0  0  0  0  0
   58.0070   23.3400   44.4290 S   0  0  0  0  0  0  0  0  0  0  0  0
   57.4220   21.8160   45.2750 C   0  0  0  0  0  0  0  0  0  0  0  0
   55.9840   21.3980   44.9160 C   0  0  0  0  0  0  0  0  0  0  0  0
   58.1810   27.2840   44.2410 C   0  0  0  0  0  0  0  0  0  0  0  0
   58.2460   26.4320   43.3160 O   0  0  0  0  0  0  0  0  0  0  0  0
   58.9950   28.3050   44.6840 C   0  0  0  0  0  0  0  0  0  0  0  0
   60.1110   28.7650   44.3270 O   0  0  0  0  0  0  0  0  0  0  0  0
   59.3520   31.5340   47.4610 C   0  0  0  0  0  0  0  0  0  0  0  0
   59.8890   30.8190   48.5370 O   0  0  0  0  0  0  0  0  0  0  0  0
   64.6683   32.6473   50.4342 H   0  0  0  0  0  0  0  0  0  0  0  0
   64.2602   31.8303   48.8874 H   0  0  0  0  0  0  0  0  0  0  0  0
   64.7584   33.5561   48.8874 H   0  0  0  0  0  0  0  0  0  0  0  0
   62.2649   32.5335   50.3286 H   0  0  0  0  0  0  0  0  0  0  0  0
   62.7205   34.2377   49.9643 H   0  0  0  0  0  0  0  0  0  0  0  0
   63.6395   32.0425   47.4223 H   0  0  0  0  0  0  0  0  0  0  0  0
   62.1021   32.0999   46.4714 H   0  0  0  0  0  0  0  0  0  0  0  0
   63.6625   34.6444   47.0105 H   0  0  0  0  0  0  0  0  0  0  0  0
   64.1570   33.5407   45.6824 H   0  0  0  0  0  0  0  0  0  0  0  0
   62.5137   34.2660   45.6824 H   0  0  0  0  0  0  0  0  0  0  0  0
   57.9062   33.5627   44.4569 H   0  0  0  0  0  0  0  0  0  0  0  0
   57.8160   29.2340   47.7090 H   0  0  0  0  0  0  0  0  0  0  0  0
   55.1450   27.5240   45.3630 H   0  0  0  0  0  0  0  0  0  0  0  0
   56.8492   25.1566   46.1458 H   0  0  0  0  0  0  0  0  0  0  0  0
   55.6259   25.8205   47.3023 H   0  0  0  0  0  0  0  0  0  0  0  0
   53.8074   25.2407   45.8903 H   0  0  0  0  0  0  0  0  0  0  0  0
   54.9160   24.9535   44.4769 H   0  0  0  0  0  0  0  0  0  0  0  0
   55.7120   23.2038   46.6104 H   0  0  0  0  0  0  0  0  0  0  0  0
   53.9264   23.0549   46.3849 H   0  0  0  0  0  0  0  0  0  0  0  0
   54.7533   23.0045   42.6687 H   0  0  0  0  0  0  0  0  0  0  0  0
   55.2403   24.4019   43.7505 H   0  0  0  0  0  0  0  0  0  0  0  0
   57.0092   22.2668   42.5109 H   0  0  0  0  0  0  0  0  0  0  0  0
   57.0818   24.0618   42.3264 H   0  0  0  0  0  0  0  0  0  0  0  0
   58.0974   20.9914   45.0032 H   0  0  0  0  0  0  0  0  0  0  0  0
   57.4238   22.0363   46.3527 H   0  0  0  0  0  0  0  0  0  0  0  0
   56.0128   20.7980   43.9945 H   0  0  0  0  0  0  0  0  0  0  0  0
   55.5853   20.8247   45.7660 H   0  0  0  0  0  0  0  0  0  0  0  0
   60.7480   31.0800   49.0000 H   0  0  0  0  0  0  0  0  0  0  0  0
  1  2  1  0
  2  3  1  0
  3  4  1  0
  4  5  1  0
  3  6  1  0
  6  7  2  0
  6  8  1  0
  8  9  2  0
  9 10  1  0
  9 11  1  0
 11 12  2  0
 12 13  1  0
 12 14  1  0
 14 15  1  0
 15 16  1  0
 16 17  2  0
 17 18  1  0
 18 19  1  0
 19 20  1  0
 20 21  1  0
 21 22  1  0
 22 23  1  0
 23 24  1  0
 24 25  1  0
 25 26  1  0
 26 27  1  0
 17 28  1  0
 28 29  2  0
 28 30  1  0
 30 31  2  0
 14 32  2  0
 32 33  1  0
 32  8  1  0
 30 16  1  0
 27 22  1  0
  1 34  1  0
  1 35  1  0
  1 36  1  0
  2 37  1  0
  2 38  1  0
  4 39  1  0
  4 40  1  0
  5 41  1  0
  5 42  1  0
  5 43  1  0
 11 44  1  0
 15 45  1  0
 18 46  1  0
 19 47  1  0
 19 48  1  0
 20 49  1  0
 20 50  1  0
 21 51  1  0
 21 52  1  0
 23 53  1  0
 23 54  1  0
 24 55  1  0
 24 56  1  0
 26 57  1  0
 26 58  1  0
 27 59  1  0
 27 60  1  0
 33 61  1  0
M  END
>  <UniqueID>  (29) 
28

>  <SMILES>  (29) 
CCN(CC)C(=O)c1c(Cl)cc(Br)c(Nc2c(NCCCN3CCSCC3)c(=O)c2=O)c1O

>  <Energy>  (29) 
61.373703200352

>  <Genealogy>  (29) 
CCN(CC)C(=O)c1c(Cl)cc(Br)c(Nc2c(NCCCN3CCSCC3)c(=O)c2=O)c1O (3D coordinates assigned)
CCN(CC)C(=O)c1c(Cl)cc(Br)c(Nc2c(NCCCN3CCSCC3)c(=O)c2=O)c1O (nonaromatic ring conformer: 61.373703200352 kcal/mol)

>  <smiles>  (29) 
CCN(CC)C(=O)c1c(Cl)cc(Br)c(Nc2c(NCCCN3CCSCC3)c(=O)c2=O)c1O

>  <score_type>  (29) 
oracle

>  <origin>  (29) 
adg

>  <m_score__min__energy>  (29) 
-9.9299999999999997

>  <m_primary>  (29) 
energy

$$$$
30:0
     RDKit          3D

 33 34  0  0  0  0  0  0  0  0999 V2000
   57.6280   24.6200   46.0890 C   0  0  0  0  0  0  0  0  0  0  0  0
   56.7920   25.4650   46.6990 C   0  0  0  0  0  0  0  0  0  0  0  0
   55.6320   26.0850   45.9730 C   0  0  0  0  0  0  0  0  0  0  0  0
   55.9250   27.4720   45.6280 N   0  0  0  0  0  0  0  0  0  0  0  0
   57.2030   27.9140   45.1600 C   0  0  0  0  0  0  0  0  0  0  0  0
   57.7800   27.3020   44.2230 O   0  0  0  0  0  0  0  0  0  0  0  0
   57.8120   29.1220   45.7390 C   0  0  0  0  0  0  0  0  0  0  0  0
   58.5200   29.0260   46.9530 C   0  0  0  0  0  0  0  0  0  0  0  0
   59.0580   30.1810   47.5550 C   0  0  0  0  0  0  0  0  0  0  0  0
   59.7890   30.0890   48.8560 C   0  0  0  0  0  0  0  0  0  0  0  0
   58.8900   31.3910   46.9530 N   0  0  0  0  0  0  0  0  0  0  0  0
   58.2270   31.4610   45.8020 N   0  0  0  0  0  0  0  0  0  0  0  0
   58.0070   32.5380   45.0320 C   0  0  0  0  0  0  0  0  0  0  0  0
   58.4890   33.9160   45.3480 C   0  0  0  0  0  0  0  0  0  0  0  0
   57.3760   32.2100   43.8810 N   0  0  0  0  0  0  0  0  0  0  0  0
   57.1870   30.8680   43.9610 C   0  0  0  0  0  0  0  0  0  0  0  0
   56.5660   30.0780   42.8530 C   0  0  0  0  0  0  0  0  0  0  0  0
   57.7050   30.4030   45.1680 C   0  0  0  0  0  0  0  0  0  0  0  0
   58.4692   24.1809   46.6454 H   0  0  0  0  0  0  0  0  0  0  0  0
   57.4751   24.3634   45.0303 H   0  0  0  0  0  0  0  0  0  0  0  0
   56.9570   25.7126   47.7580 H   0  0  0  0  0  0  0  0  0  0  0  0
   55.4365   25.5167   45.0517 H   0  0  0  0  0  0  0  0  0  0  0  0
   54.7492   26.0613   46.6288 H   0  0  0  0  0  0  0  0  0  0  0  0
   58.6535   28.0453   47.4331 H   0  0  0  0  0  0  0  0  0  0  0  0
   59.0729   30.1791   49.6861 H   0  0  0  0  0  0  0  0  0  0  0  0
   60.3038   29.1190   48.9195 H   0  0  0  0  0  0  0  0  0  0  0  0
   60.5281   30.9012   48.9195 H   0  0  0  0  0  0  0  0  0  0  0  0
   58.5349   34.0472   46.4392 H   0  0  0  0  0  0  0  0  0  0  0  0
   59.4913   34.0613   44.9188 H   0  0  0  0  0  0  0  0  0  0  0  0
   57.7958   34.6544   44.9188 H   0  0  0  0  0  0  0  0  0  0  0  0
   55.9390   29.2804   43.2781 H   0  0  0  0  0  0  0  0  0  0  0  0
   55.9450   30.7414   42.2330 H   0  0  0  0  0  0  0  0  0  0  0  0
   57.3573   29.6313   42.2330 H   0  0  0  0  0  0  0  0  0  0  0  0
  1  2  2  0
  2  3  1  0
  3  4  1  0
  4  5  1  0
  5  6  2  0
  5  7  1  0
  7  8  2  0
  8  9  1  0
  9 10  1  0
  9 11  2  0
 11 12  1  0
 12 13  1  0
 13 14  1  0
 13 15  2  0
 15 16  1  0
 16 17  1  0
 16 18  2  0
 18  7  1  0
 18 12  1  0
  1 19  1  0
  1 20  1  0
  2 21  1  0
  3 22  1  0
  3 23  1  0
  8 24  1  0
 10 25  1  0
 10 26  1  0
 10 27  1  0
 14 28  1  0
 14 29  1  0
 14 30  1  0
 17 31  1  0
 17 32  1  0
 17 33  1  0
M  CHG  1   4  -1
M  END
>  <UniqueID>  (30) 
29

>  <SMILES>  (30) 
C=CC[N-]C(=O)c1cc(C)nn2c(C)nc(C)c12

>  <Energy>  (30) 
68.15114896300878

>  <Genealogy>  (30) 
C=CC[N-]C(=O)c1cc(C)nn2c(C)nc(C)c12 (protonated)
C=CC[N-]C(=O)c1cc(C)nn2c(C)nc(C)c12 (3D coordinates assigned)
C=CC[N-]C(=O)c1cc(C)nn2c(C)nc(C)c12 (optimized conformer: 68.15114896300878 kcal/mol)

>  <smiles>  (30) 
C=CCNC(=O)c1cc(C)nn2c(C)nc(C)c12

>  <score_type>  (30) 
oracle

>  <origin>  (30) 
adg

>  <m_score__min__energy>  (30) 
-7.7400000000000002

>  <m_primary>  (30) 
energy

$$$$
31:0
     RDKit          3D

 37 38  0  0  0  0  0  0  0  0999 V2000
   63.3290   33.8090   46.6760 C   0  0  0  0  0  0  0  0  0  0  0  0
   61.8940   33.3700   46.9450 C   0  0  0  0  0  0  0  0  0  0  0  0
   61.0160   33.9480   45.9960 O   0  0  0  0  0  0  0  0  0  0  0  0
   59.6720   33.9360   46.4520 C   0  0  0  0  0  0  0  0  0  0  0  0
   59.2740   32.4950   46.8500 C   0  0  0  0  0  0  0  0  0  0  0  0
   57.7710   32.2480   46.6470 C   0  0  0  0  0  0  0  0  0  0  0  0
   57.3340   32.4630   45.2450 N   0  0  0  0  0  0  0  0  0  0  0  0
   57.1430   30.9440   44.4030 S   0  0  0  0  0  0  0  0  0  0  0  0
   55.7210   30.4700   44.5150 O   0  0  0  0  0  0  0  0  0  0  0  0
   57.4900   31.1300   42.9500 O   0  0  0  0  0  0  0  0  0  0  0  0
   58.1980   29.7300   45.1200 C   0  0  0  0  0  0  0  0  0  0  0  0
   59.5700   29.7120   44.8240 C   0  0  0  0  0  0  0  0  0  0  0  0
   60.3990   28.7440   45.3970 C   0  0  0  0  0  0  0  0  0  0  0  0
   59.8640   27.7890   46.2660 C   0  0  0  0  0  0  0  0  0  0  0  0
   60.6700   26.8500   46.8220 F   0  0  0  0  0  0  0  0  0  0  0  0
   58.4970   27.7990   46.5610 C   0  0  0  0  0  0  0  0  0  0  0  0
   57.6650   28.7670   45.9880 C   0  0  0  0  0  0  0  0  0  0  0  0
   58.2050   33.3660   44.4620 C   0  0  0  0  0  0  0  0  0  0  0  0
   58.7670   34.4930   45.3330 C   0  0  0  0  0  0  0  0  0  0  0  0
   63.8491   33.9681   47.6321 H   0  0  0  0  0  0  0  0  0  0  0  0
   63.8494   33.0290   46.1009 H   0  0  0  0  0  0  0  0  0  0  0  0
   63.3239   34.7467   46.1009 H   0  0  0  0  0  0  0  0  0  0  0  0
   61.8312   32.2739   46.8767 H   0  0  0  0  0  0  0  0  0  0  0  0
   61.6013   33.7028   47.9518 H   0  0  0  0  0  0  0  0  0  0  0  0
   59.5555   34.5706   47.3429 H   0  0  0  0  0  0  0  0  0  0  0  0
   59.8398   31.7840   46.2300 H   0  0  0  0  0  0  0  0  0  0  0  0
   59.5051   32.3558   47.9164 H   0  0  0  0  0  0  0  0  0  0  0  0
   57.5448   31.2093   46.9297 H   0  0  0  0  0  0  0  0  0  0  0  0
   57.2301   32.9707   47.2756 H   0  0  0  0  0  0  0  0  0  0  0  0
   59.9936   30.4616   44.1394 H   0  0  0  0  0  0  0  0  0  0  0  0
   61.4740   28.7336   45.1638 H   0  0  0  0  0  0  0  0  0  0  0  0
   58.0760   27.0460   47.2434 H   0  0  0  0  0  0  0  0  0  0  0  0
   56.5896   28.7724   46.2193 H   0  0  0  0  0  0  0  0  0  0  0  0
   59.0408   32.7848   44.0453 H   0  0  0  0  0  0  0  0  0  0  0  0
   57.6040   33.8162   43.6582 H   0  0  0  0  0  0  0  0  0  0  0  0
   59.3557   35.1748   44.7016 H   0  0  0  0  0  0  0  0  0  0  0  0
   57.9249   35.0255   45.7992 H   0  0  0  0  0  0  0  0  0  0  0  0
  1  2  1  0
  2  3  1  0
  3  4  1  0
  4  5  1  0
  5  6  1  0
  6  7  1  0
  7  8  1  0
  8  9  2  0
  8 10  2  0
  8 11  1  0
 11 12  2  0
 12 13  1  0
 13 14  2  0
 14 15  1  0
 14 16  1  0
 16 17  2  0
  7 18  1  0
 18 19  1  0
 19  4  1  0
 17 11  1  0
  1 20  1  0
  1 21  1  0
  1 22  1  0
  2 23  1  0
  2 24  1  0
  4 25  1  0
  5 26  1  0
  5 27  1  0
  6 28  1  0
  6 29  1  0
 12 30  1  0
 13 31  1  0
 16 32  1  0
 17 33  1  0
 18 34  1  0
 18 35  1  0
 19 36  1  0
 19 37  1  0
M  END
>  <UniqueID>  (31) 
30

>  <SMILES>  (31) 
CCOC1CCN(S(=O)(=O)c2ccc(F)cc2)CC1

>  <Energy>  (31) 
42.837331724209854

>  <Genealogy>  (31) 
CCOC1CCN(S(=O)(=O)c2ccc(F)cc2)CC1 (3D coordinates assigned)
CCOC1CCN(S(=O)(=O)c2ccc(F)cc2)CC1 (nonaromatic ring conformer: 42.837331724209854 kcal/mol)

>  <smiles>  (31) 
CCOC1CCN(S(=O)(=O)c2ccc(F)cc2)CC1

>  <score_type>  (31) 
oracle

>  <origin>  (31) 
adg

>  <m_score__min__energy>  (31) 
-7.0999999999999996

>  <m_primary>  (31) 
energy

$$$$
32:0
     RDKit          3D

 24 25  0  0  0  0  0  0  0  0999 V2000
   57.7920   31.9660   42.5650 O   0  0  0  0  0  0  0  0  0  0  0  0
   58.0860   32.2230   43.7640 C   0  0  0  0  0  0  0  0  0  0  0  0
   58.4840   33.6190   44.1280 C   0  0  0  0  0  0  0  0  0  0  0  0
   57.5050   34.1190   45.5680 S   0  0  0  0  0  0  0  0  0  0  0  0
   58.2290   32.8510   46.6150 C   0  0  0  0  0  0  0  0  0  0  0  0
   58.6530   33.1870   47.8660 N   0  0  0  0  0  0  0  0  0  0  0  0
   59.1500   32.2580   48.7240 C   0  0  0  0  0  0  0  0  0  0  0  0
   59.2440   30.9240   48.3340 C   0  0  0  0  0  0  0  0  0  0  0  0
   58.8440   30.5550   47.0500 C   0  0  0  0  0  0  0  0  0  0  0  0
   58.3410   31.5200   46.1550 C   0  0  0  0  0  0  0  0  0  0  0  0
   58.0290   31.1890   44.7740 N   0  0  0  0  0  0  0  0  0  0  0  0
   57.6330   29.8220   44.3880 C   0  0  0  0  0  0  0  0  0  0  0  0
   56.1260   29.7190   44.1190 C   0  0  0  0  0  0  0  0  0  0  0  0
   55.8910   29.4510   42.7840 F   0  0  0  0  0  0  0  0  0  0  0  0
   55.5210   30.9190   44.4410 F   0  0  0  0  0  0  0  0  0  0  0  0
   55.5570   28.7150   44.8820 F   0  0  0  0  0  0  0  0  0  0  0  0
   59.5554   33.6498   44.3754 H   0  0  0  0  0  0  0  0  0  0  0  0
   58.3020   34.3017   43.2849 H   0  0  0  0  0  0  0  0  0  0  0  0
   58.5770   34.1780   48.1850 H   0  0  0  0  0  0  0  0  0  0  0  0
   59.4790   32.5601   49.7292 H   0  0  0  0  0  0  0  0  0  0  0  0
   59.6306   30.1678   49.0331 H   0  0  0  0  0  0  0  0  0  0  0  0
   58.9217   29.5042   46.7340 H   0  0  0  0  0  0  0  0  0  0  0  0
   58.1776   29.5380   43.4755 H   0  0  0  0  0  0  0  0  0  0  0  0
   57.8781   29.1472   45.2214 H   0  0  0  0  0  0  0  0  0  0  0  0
  1  2  2  0
  2  3  1  0
  3  4  1  0
  4  5  1  0
  5  6  2  0
  6  7  1  0
  7  8  2  0
  8  9  1  0
  9 10  2  0
 10 11  1  0
 11 12  1  0
 12 13  1  0
 13 14  1  0
 13 15  1  0
 13 16  1  0
 11  2  1  0
 10  5  1  0
  3 17  1  0
  3 18  1  0
  6 19  1  0
  7 20  1  0
  8 21  1  0
  9 22  1  0
 12 23  1  0
 12 24  1  0
M  CHG  1   6   1
M  END
>  <UniqueID>  (32) 
31

>  <SMILES>  (32) 
O=C1CSc2[nH+]cccc2N1CC(F)(F)F

>  <Energy>  (32) 
29.665970934079777

>  <Genealogy>  (32) 
O=C1CSc2[nH+]cccc2N1CC(F)(F)F (protonated)
O=C1CSc2[nH+]cccc2N1CC(F)(F)F (3D coordinates assigned)
O=C1CSc2[nH+]cccc2N1CC(F)(F)F (nonaromatic ring conformer: 29.665970934079777 kcal/mol)

>  <smiles>  (32) 
O=C1CSc2ncccc2N1CC(F)(F)F

>  <score_type>  (32) 
oracle

>  <origin>  (32) 
adg

>  <m_score__min__energy>  (32) 
-3.3199999999999998

>  <m_primary>  (32) 
energy

$$$$
33:0
     RDKit          3D

 40 42  0  0  0  0  0  0  0  0999 V2000
   60.7920   30.1080   47.9240 C   0  0  0  0  0  0  0  0  0  0  0  0
   60.3380   28.6850   47.5960 C   0  0  0  0  0  0  0  0  0  0  0  0
   59.2900   28.6720   46.5520 N   0  0  0  0  0  0  0  0  0  0  0  0
   59.8740   28.3080   45.2540 C   0  0  0  0  0  0  0  0  0  0  0  0
   58.8530   28.5320   44.1250 C   0  0  0  0  0  0  0  0  0  0  0  0
   57.4460   28.2870   44.5330 N   0  0  0  0  0  0  0  0  0  0  0  0
   56.6860   29.5150   44.7090 C   0  0  0  0  0  0  0  0  0  0  0  0
   55.4310   29.4530   44.8180 O   0  0  0  0  0  0  0  0  0  0  0  0
   57.3170   30.8490   44.7760 C   0  0  0  0  0  0  0  0  0  0  0  0
   57.8320   31.3340   45.9840 C   0  0  0  0  0  0  0  0  0  0  0  0
   58.4430   32.5900   46.0190 C   0  0  0  0  0  0  0  0  0  0  0  0
   58.9430   33.1290   47.2130 C   0  0  0  0  0  0  0  0  0  0  0  0
   59.5350   34.3960   47.2110 C   0  0  0  0  0  0  0  0  0  0  0  0
   59.6330   35.1250   46.0210 C   0  0  0  0  0  0  0  0  0  0  0  0
   59.1390   34.5910   44.8270 C   0  0  0  0  0  0  0  0  0  0  0  0
   58.5420   33.3260   44.8190 C   0  0  0  0  0  0  0  0  0  0  0  0
   58.0700   32.8200   43.6830 O   0  0  0  0  0  0  0  0  0  0  0  0
   57.4810   31.6290   43.6160 C   0  0  0  0  0  0  0  0  0  0  0  0
   57.0660   31.2110   42.5020 O   0  0  0  0  0  0  0  0  0  0  0  0
   57.3160   27.3600   45.6810 C   0  0  0  0  0  0  0  0  0  0  0  0
   58.1930   27.7400   46.8970 C   0  0  0  0  0  0  0  0  0  0  0  0
   60.8332   30.2373   49.0156 H   0  0  0  0  0  0  0  0  0  0  0  0
   61.7903   30.2822   47.4962 H   0  0  0  0  0  0  0  0  0  0  0  0
   60.0790   30.8281   47.4962 H   0  0  0  0  0  0  0  0  0  0  0  0
   61.2038   28.1079   47.2392 H   0  0  0  0  0  0  0  0  0  0  0  0
   59.9172   28.2401   48.5098 H   0  0  0  0  0  0  0  0  0  0  0  0
   60.7618   28.9304   45.0686 H   0  0  0  0  0  0  0  0  0  0  0  0
   60.1555   27.2448   45.2749 H   0  0  0  0  0  0  0  0  0  0  0  0
   58.9383   29.5735   43.7816 H   0  0  0  0  0  0  0  0  0  0  0  0
   59.0878   27.8071   43.3317 H   0  0  0  0  0  0  0  0  0  0  0  0
   56.9960   27.7860   43.7290 H   0  0  0  0  0  0  0  0  0  0  0  0
   57.7561   30.7299   46.9001 H   0  0  0  0  0  0  0  0  0  0  0  0
   58.8697   32.5564   48.1494 H   0  0  0  0  0  0  0  0  0  0  0  0
   59.9248   34.8206   48.1479 H   0  0  0  0  0  0  0  0  0  0  0  0
   60.0999   36.1210   46.0247 H   0  0  0  0  0  0  0  0  0  0  0  0
   59.2199   35.1663   43.8929 H   0  0  0  0  0  0  0  0  0  0  0  0
   56.2639   27.3519   46.0020 H   0  0  0  0  0  0  0  0  0  0  0  0
   57.6602   26.3741   45.3353 H   0  0  0  0  0  0  0  0  0  0  0  0
   57.5537   28.2167   47.6546 H   0  0  0  0  0  0  0  0  0  0  0  0
   58.6542   26.8142   47.2714 H   0  0  0  0  0  0  0  0  0  0  0  0
  1  2  1  0
  2  3  1  0
  3  4  1  0
  4  5  1  0
  5  6  1  0
  6  7  1  0
  7  8  2  0
  7  9  1  0
  9 10  2  0
 10 11  1  0
 11 12  2  0
 12 13  1  0
 13 14  2  0
 14 15  1  0
 15 16  2  0
 16 17  1  0
 17 18  1  0
 18 19  2  0
  6 20  1  0
 20 21  1  0
 21  3  1  0
 18  9  1  0
 16 11  1  0
  1 22  1  0
  1 23  1  0
  1 24  1  0
  2 25  1  0
  2 26  1  0
  4 27  1  0
  4 28  1  0
  5 29  1  0
  5 30  1  0
  6 31  1  0
 10 32  1  0
 12 33  1  0
 13 34  1  0
 14 35  1  0
 15 36  1  0
 20 37  1  0
 20 38  1  0
 21 39  1  0
 21 40  1  0
M  CHG  1   6   1
M  END
>  <UniqueID>  (33) 
32

>  <SMILES>  (33) 
CCN1CC[NH+](C(=O)c2cc3ccccc3oc2=O)CC1

>  <Energy>  (33) 
64.26405402014628

>  <Genealogy>  (33) 
CCN1CC[NH+](C(=O)c2cc3ccccc3oc2=O)CC1 (protonated)
CCN1CC[NH+](C(=O)c2cc3ccccc3oc2=O)CC1 (3D coordinates assigned)
CCN1CC[NH+](C(=O)c2cc3ccccc3oc2=O)CC1 (nonaromatic ring conformer: 64.26405402014628 kcal/mol)

>  <smiles>  (33) 
CCN1CCN(C(=O)c2cc3ccccc3oc2=O)CC1

>  <score_type>  (33) 
oracle

>  <origin>  (33) 
adg

>  <m_score__min__energy>  (33) 
-6.2300000000000004

>  <m_primary>  (33) 
energy

$$$$
34:0
     RDKit          3D

 38 40  0  0  0  0  0  0  0  0999 V2000
   57.0260   34.2070   45.2720 C   0  0  0  0  0  0  0  0  0  0  0  0
   58.2020   33.5290   45.9200 C   0  0  0  0  0  0  0  0  0  0  0  0
   58.8140   34.1340   47.0290 C   0  0  0  0  0  0  0  0  0  0  0  0
   59.9100   33.5310   47.6620 C   0  0  0  0  0  0  0  0  0  0  0  0
   60.4250   32.3200   47.1600 C   0  0  0  0  0  0  0  0  0  0  0  0
   59.7960   31.6990   46.0740 C   0  0  0  0  0  0  0  0  0  0  0  0
   58.6850   32.2870   45.4530 C   0  0  0  0  0  0  0  0  0  0  0  0
   58.0490   31.6100   44.3580 N   0  0  0  0  0  0  0  0  0  0  0  0
   58.0120   32.1380   43.0040 C   0  0  0  0  0  0  0  0  0  0  0  0
   57.0200   31.2510   42.2270 C   0  0  0  0  0  0  0  0  0  0  0  0
   56.2900   30.3790   43.2560 C   0  0  0  0  0  0  0  0  0  0  0  0
   57.0300   30.6390   44.5050 C   0  0  0  0  0  0  0  0  0  0  0  0
   56.7800   30.0630   45.5980 O   0  0  0  0  0  0  0  0  0  0  0  0
   61.5800   31.6300   47.8390 C   0  0  0  0  0  0  0  0  0  0  0  0
   62.3490   32.5800   48.7610 C   0  0  0  0  0  0  0  0  0  0  0  0
   61.4000   33.3120   49.6190 N   0  0  0  0  0  0  0  0  0  0  0  0
   62.1280   34.0560   50.6580 C   0  0  0  0  0  0  0  0  0  0  0  0
   60.5940   34.2440   48.8040 C   0  0  0  0  0  0  0  0  0  0  0  0
   56.3523   34.5954   46.0500 H   0  0  0  0  0  0  0  0  0  0  0  0
   57.3815   35.0388   44.6461 H   0  0  0  0  0  0  0  0  0  0  0  0
   56.4843   33.4826   44.6461 H   0  0  0  0  0  0  0  0  0  0  0  0
   58.4289   35.0930   47.4060 H   0  0  0  0  0  0  0  0  0  0  0  0
   60.1787   30.7368   45.7030 H   0  0  0  0  0  0  0  0  0  0  0  0
   57.6663   33.1822   43.0107 H   0  0  0  0  0  0  0  0  0  0  0  0
   59.0096   32.1268   42.5406 H   0  0  0  0  0  0  0  0  0  0  0  0
   56.2977   31.8789   41.6848 H   0  0  0  0  0  0  0  0  0  0  0  0
   57.5477   30.6272   41.4905 H   0  0  0  0  0  0  0  0  0  0  0  0
   55.2365   30.6806   43.3518 H   0  0  0  0  0  0  0  0  0  0  0  0
   56.2691   29.3141   42.9811 H   0  0  0  0  0  0  0  0  0  0  0  0
   61.1923   30.7912   48.4358 H   0  0  0  0  0  0  0  0  0  0  0  0
   62.2715   31.2758   47.0604 H   0  0  0  0  0  0  0  0  0  0  0  0
   63.0395   31.9999   49.3908 H   0  0  0  0  0  0  0  0  0  0  0  0
   62.9198   33.2971   48.1528 H   0  0  0  0  0  0  0  0  0  0  0  0
   61.7971   33.7178   51.6510 H   0  0  0  0  0  0  0  0  0  0  0  0
   63.2076   33.8752   50.5500 H   0  0  0  0  0  0  0  0  0  0  0  0
   61.9237   35.1315   50.5500 H   0  0  0  0  0  0  0  0  0  0  0  0
   59.8298   34.7093   49.4439 H   0  0  0  0  0  0  0  0  0  0  0  0
   61.2674   35.0046   48.3822 H   0  0  0  0  0  0  0  0  0  0  0  0
  1  2  1  0
  2  3  2  0
  3  4  1  0
  4  5  2  0
  5  6  1  0
  6  7  2  0
  7  8  1  0
  8  9  1  0
  9 10  1  0
 10 11  1  0
 11 12  1  0
 12 13  2  0
  5 14  1  0
 14 15  1  0
 15 16  1  0
 16 17  1  0
 16 18  1  0
  7  2  1  0
 12  8  1  0
 18  4  1  0
  1 19  1  0
  1 20  1  0
  1 21  1  0
  3 22  1  0
  6 23  1  0
  9 24  1  0
  9 25  1  0
 10 26  1  0
 10 27  1  0
 11 28  1  0
 11 29  1  0
 14 30  1  0
 14 31  1  0
 15 32  1  0
 15 33  1  0
 17 34  1  0
 17 35  1  0
 17 36  1  0
 18 37  1  0
 18 38  1  0
M  END
>  <UniqueID>  (34) 
33

>  <SMILES>  (34) 
Cc1cc2c(cc1N1CCCC1=O)CCN(C)C2

>  <Energy>  (34) 
52.58404292387599

>  <Genealogy>  (34) 
Cc1cc2c(cc1N1CCCC1=O)CCN(C)C2 (3D coordinates assigned)
Cc1cc2c(cc1N1CCCC1=O)CCN(C)C2 (nonaromatic ring conformer: 52.58404292387599 kcal/mol)

>  <smiles>  (34) 
Cc1cc2c(cc1N1CCCC1=O)CCN(C)C2

>  <score_type>  (34) 
oracle

>  <origin>  (34) 
adg

>  <m_score__min__energy>  (34) 
-6.9900000000000002

>  <m_primary>  (34) 
energy

$$$$
35:0
     RDKit          3D

 37 39  0  0  0  0  0  0  0  0999 V2000
   56.7230   25.9730   45.6240 C   0  0  0  0  0  0  0  0  0  0  0  0
   56.5020   27.3810   45.6100 O   0  0  0  0  0  0  0  0  0  0  0  0
   57.3990   28.3400   46.1040 C   0  0  0  0  0  0  0  0  0  0  0  0
   58.3900   27.9850   47.0560 C   0  0  0  0  0  0  0  0  0  0  0  0
   59.2880   28.9360   47.5530 C   0  0  0  0  0  0  0  0  0  0  0  0
   59.1960   30.2480   47.0950 C   0  0  0  0  0  0  0  0  0  0  0  0
   58.2400   30.6110   46.1710 C   0  0  0  0  0  0  0  0  0  0  0  0
   57.3200   29.6890   45.6470 C   0  0  0  0  0  0  0  0  0  0  0  0
   56.3790   30.1460   44.7090 O   0  0  0  0  0  0  0  0  0  0  0  0
   56.2950   29.7660   43.3400 C   0  0  0  0  0  0  0  0  0  0  0  0
   58.4270   32.0340   45.9220 C   0  0  0  0  0  0  0  0  0  0  0  0
   57.7070   32.8720   45.0640 C   0  0  0  0  0  0  0  0  0  0  0  0
   58.0740   34.2190   44.9910 C   0  0  0  0  0  0  0  0  0  0  0  0
   59.1370   34.7030   45.7640 C   0  0  0  0  0  0  0  0  0  0  0  0
   59.8310   33.8290   46.6100 C   0  0  0  0  0  0  0  0  0  0  0  0
   60.7880   34.2590   47.3070 O   0  0  0  0  0  0  0  0  0  0  0  0
   59.4550   32.5130   46.6660 N   0  0  0  0  0  0  0  0  0  0  0  0
   60.0460   31.4360   47.4830 C   0  0  0  0  0  0  0  0  0  0  0  0
   61.5140   31.1910   47.0960 C   0  0  0  0  0  0  0  0  0  0  0  0
   59.8940   31.7340   48.9840 C   0  0  0  0  0  0  0  0  0  0  0  0
   56.7783   25.6209   46.6646 H   0  0  0  0  0  0  0  0  0  0  0  0
   55.8934   25.4665   45.1091 H   0  0  0  0  0  0  0  0  0  0  0  0
   57.6679   25.7450   45.1091 H   0  0  0  0  0  0  0  0  0  0  0  0
   58.4531   26.9451   47.4089 H   0  0  0  0  0  0  0  0  0  0  0  0
   60.0523   28.6527   48.2916 H   0  0  0  0  0  0  0  0  0  0  0  0
   56.0580   28.6941   43.2709 H   0  0  0  0  0  0  0  0  0  0  0  0
   55.5040   30.3490   42.8455 H   0  0  0  0  0  0  0  0  0  0  0  0
   57.2580   29.9613   42.8455 H   0  0  0  0  0  0  0  0  0  0  0  0
   56.8734   32.4811   44.4621 H   0  0  0  0  0  0  0  0  0  0  0  0
   57.5261   34.9011   44.3242 H   0  0  0  0  0  0  0  0  0  0  0  0
   59.4250   35.7631   45.7069 H   0  0  0  0  0  0  0  0  0  0  0  0
   62.1215   31.0896   48.0074 H   0  0  0  0  0  0  0  0  0  0  0  0
   61.5875   30.2682   46.5019 H   0  0  0  0  0  0  0  0  0  0  0  0
   61.8832   32.0400   46.5019 H   0  0  0  0  0  0  0  0  0  0  0  0
   60.3177   30.9033   49.5675 H   0  0  0  0  0  0  0  0  0  0  0  0
   60.4279   32.6640   49.2291 H   0  0  0  0  0  0  0  0  0  0  0  0
   58.8277   31.8478   49.2291 H   0  0  0  0  0  0  0  0  0  0  0  0
  1  2  1  0
  2  3  1  0
  3  4  2  0
  4  5  1  0
  5  6  2  0
  6  7  1  0
  7  8  2  0
  8  9  1  0
  9 10  1  0
  7 11  1  0
 11 12  2  0
 12 13  1  0
 13 14  2  0
 14 15  1  0
 15 16  2  0
 15 17  1  0
 17 18  1  0
 18 19  1  0
 18 20  1  0
  8  3  1  0
 17 11  1  0
 18  6  1  0
  1 21  1  0
  1 22  1  0
  1 23  1  0
  4 24  1  0
  5 25  1  0
 10 26  1  0
 10 27  1  0
 10 28  1  0
 12 29  1  0
 13 30  1  0
 14 31  1  0
 19 32  1  0
 19 33  1  0
 19 34  1  0
 20 35  1  0
 20 36  1  0
 20 37  1  0
M  END
>  <UniqueID>  (35) 
34

>  <SMILES>  (35) 
COc1ccc2c(c1OC)-c1cccc(=O)n1C2(C)C

>  <Energy>  (35) 
63.47861858513038

>  <Genealogy>  (35) 
COc1ccc2c(c1OC)-c1cccc(=O)n1C2(C)C (3D coordinates assigned)
COc1ccc2c(c1OC)-c1cccc(=O)n1C2(C)C (nonaromatic ring conformer: 63.47861858513038 kcal/mol)

>  <smiles>  (35) 
COc1ccc2c(c1OC)-c1cccc(=O)n1C2(C)C

>  <score_type>  (35) 
oracle

>  <origin>  (35) 
adg

>  <m_score__min__energy>  (35) 
-6.7599999999999998

>  <m_primary>  (35) 
energy

$$$$
36:0
     RDKit          3D

 30 31  0  0  0  0  0  0  0  0999 V2000
   56.9670   33.8030   46.3280 N   0  0  0  0  0  0  0  0  0  0  0  0
   57.8620   33.0630   45.7360 C   0  0  0  0  0  0  0  0  0  0  0  0
   59.2320   33.0750   46.1810 N   0  0  0  0  0  0  0  0  0  0  0  0
   59.9450   34.3910   47.0580 S   0  0  0  0  0  0  0  0  0  0  0  0
   59.0510   34.7530   48.2120 O   0  0  0  0  0  0  0  0  0  0  0  0
   60.0690   35.5800   46.1490 O   0  0  0  0  0  0  0  0  0  0  0  0
   61.5440   33.9400   47.6380 C   0  0  0  0  0  0  0  0  0  0  0  0
   62.5310   33.5200   46.7330 C   0  0  0  0  0  0  0  0  0  0  0  0
   63.8010   33.1630   47.1960 C   0  0  0  0  0  0  0  0  0  0  0  0
   64.0900   33.2210   48.5640 C   0  0  0  0  0  0  0  0  0  0  0  0
   63.1090   33.6350   49.4690 C   0  0  0  0  0  0  0  0  0  0  0  0
   61.8370   33.9910   49.0080 C   0  0  0  0  0  0  0  0  0  0  0  0
   57.4580   32.1610   44.6290 C   0  0  0  0  0  0  0  0  0  0  0  0
   57.7930   32.4500   43.2950 C   0  0  0  0  0  0  0  0  0  0  0  0
   57.3930   31.5770   42.2800 C   0  0  0  0  0  0  0  0  0  0  0  0
   56.6630   30.4310   42.5960 C   0  0  0  0  0  0  0  0  0  0  0  0
   56.3380   30.1750   43.9280 C   0  0  0  0  0  0  0  0  0  0  0  0
   56.7370   31.0360   44.9030 N   0  0  0  0  0  0  0  0  0  0  0  0
   57.1360   34.2090   47.2750 H   0  0  0  0  0  0  0  0  0  0  0  0
   56.0520   34.0260   45.8830 H   0  0  0  0  0  0  0  0  0  0  0  0
   59.8560   32.2730   45.9430 H   0  0  0  0  0  0  0  0  0  0  0  0
   62.3050   33.4716   45.6576 H   0  0  0  0  0  0  0  0  0  0  0  0
   64.5736   32.8363   46.4844 H   0  0  0  0  0  0  0  0  0  0  0  0
   65.0898   32.9406   48.9271 H   0  0  0  0  0  0  0  0  0  0  0  0
   63.3370   33.6810   50.5441 H   0  0  0  0  0  0  0  0  0  0  0  0
   61.0646   34.3118   49.7225 H   0  0  0  0  0  0  0  0  0  0  0  0
   58.3660   33.3569   43.0517 H   0  0  0  0  0  0  0  0  0  0  0  0
   57.6533   31.7931   41.2333 H   0  0  0  0  0  0  0  0  0  0  0  0
   56.3471   29.7368   41.8033 H   0  0  0  0  0  0  0  0  0  0  0  0
   55.7592   29.2771   44.1902 H   0  0  0  0  0  0  0  0  0  0  0  0
  1  2  2  0
  2  3  1  0
  3  4  1  0
  4  5  2  0
  4  6  2  0
  4  7  1  0
  7  8  2  0
  8  9  1  0
  9 10  2  0
 10 11  1  0
 11 12  2  0
  2 13  1  0
 13 14  2  0
 14 15  1  0
 15 16  2  0
 16 17  1  0
 17 18  2  0
 12  7  1  0
 18 13  1  0
  1 19  1  0
  1 20  1  0
  3 21  1  0
  8 22  1  0
  9 23  1  0
 10 24  1  0
 11 25  1  0
 12 26  1  0
 14 27  1  0
 15 28  1  0
 16 29  1  0
 17 30  1  0
M  CHG  1   1   1
M  END
>  <UniqueID>  (36) 
35

>  <SMILES>  (36) 
[NH2+]=C(NS(=O)(=O)c1ccccc1)c1ccccn1

>  <Energy>  (36) 
36.164414610806816

>  <Genealogy>  (36) 
[NH2+]=C(NS(=O)(=O)c1ccccc1)c1ccccn1 (protonated)
[NH2+]=C(NS(=O)(=O)c1ccccc1)c1ccccn1 (3D coordinates assigned)
[NH2+]=C(NS(=O)(=O)c1ccccc1)c1ccccn1 (optimized conformer: 36.164414610806816 kcal/mol)

>  <smiles>  (36) 
N=C(NS(=O)(=O)c1ccccc1)c1ccccn1

>  <score_type>  (36) 
oracle

>  <origin>  (36) 
adg

>  <m_score__min__energy>  (36) 
-5.9100000000000001

>  <m_primary>  (36) 
energy

$$$$
37:0
     RDKit          3D

 65 68  0  0  0  0  0  0  0  0999 V2000
   63.2230   32.5780   48.8270 C   0  0  0  0  0  0  0  0  0  0  0  0
   62.3630   33.1720   47.7010 C   0  0  0  0  0  0  0  0  0  0  0  0
   63.2630   33.7960   46.6290 C   0  0  0  0  0  0  0  0  0  0  0  0
   61.4330   32.0780   47.1190 C   0  0  0  0  0  0  0  0  0  0  0  0
   59.9950   32.3400   47.3260 N   0  0  0  0  0  0  0  0  0  0  0  0
   59.3680   33.5080   46.7510 C   0  0  0  0  0  0  0  0  0  0  0  0
   59.8740   34.6500   46.9260 O   0  0  0  0  0  0  0  0  0  0  0  0
   58.1020   33.3970   45.9570 C   0  0  0  0  0  0  0  0  0  0  0  0
   58.4650   32.6800   44.3150 S   0  0  0  0  0  0  0  0  0  0  0  0
   57.6410   31.1250   44.6540 C   0  0  0  0  0  0  0  0  0  0  0  0
   56.3030   30.9940   44.7020 N   0  0  0  0  0  0  0  0  0  0  0  0
   56.0510   29.7080   44.8830 N   0  0  0  0  0  0  0  0  0  0  0  0
   57.2360   29.0700   44.9290 C   0  0  0  0  0  0  0  0  0  0  0  0
   57.3480   27.6030   45.0570 C   0  0  0  0  0  0  0  0  0  0  0  0
   56.9280   26.9820   46.2450 C   0  0  0  0  0  0  0  0  0  0  0  0
   56.9790   25.5910   46.3730 C   0  0  0  0  0  0  0  0  0  0  0  0
   57.4380   24.8080   45.3100 C   0  0  0  0  0  0  0  0  0  0  0  0
   57.8410   25.4160   44.1150 C   0  0  0  0  0  0  0  0  0  0  0  0
   57.7870   26.8060   43.9810 C   0  0  0  0  0  0  0  0  0  0  0  0
   58.1090   27.3670   42.7860 F   0  0  0  0  0  0  0  0  0  0  0  0
   58.2640   29.9410   44.8100 N   0  0  0  0  0  0  0  0  0  0  0  0
   59.7040   29.6960   44.8380 C   0  0  0  0  0  0  0  0  0  0  0  0
   59.3960   31.7490   48.5020 C   0  0  0  0  0  0  0  0  0  0  0  0
   59.0280   32.5340   49.6150 C   0  0  0  0  0  0  0  0  0  0  0  0
   59.4330   33.9110   49.6510 N   0  0  0  0  0  0  0  0  0  0  0  0
   58.3260   31.9660   50.6610 N   0  0  0  0  0  0  0  0  0  0  0  0
   57.8640   32.7810   51.8090 C   0  0  0  0  0  0  0  0  0  0  0  0
   59.0020   33.1340   52.7370 C   0  0  0  0  0  0  0  0  0  0  0  0
   58.8970   34.2410   53.6020 C   0  0  0  0  0  0  0  0  0  0  0  0
   59.9750   34.6070   54.4150 C   0  0  0  0  0  0  0  0  0  0  0  0
   61.1650   33.8680   54.3750 C   0  0  0  0  0  0  0  0  0  0  0  0
   61.2790   32.7690   53.5190 C   0  0  0  0  0  0  0  0  0  0  0  0
   60.2070   32.4050   52.6970 C   0  0  0  0  0  0  0  0  0  0  0  0
   58.0530   30.6170   50.6350 C   0  0  0  0  0  0  0  0  0  0  0  0
   57.4580   30.0550   51.5970 O   0  0  0  0  0  0  0  0  0  0  0  0
   58.4200   29.8600   49.5750 N   0  0  0  0  0  0  0  0  0  0  0  0
   59.0600   30.3910   48.5100 C   0  0  0  0  0  0  0  0  0  0  0  0
   59.3430   29.6520   47.5300 O   0  0  0  0  0  0  0  0  0  0  0  0
   62.8028   32.8682   49.8013 H   0  0  0  0  0  0  0  0  0  0  0  0
   63.2305   31.4812   48.7430 H   0  0  0  0  0  0  0  0  0  0  0  0
   64.2514   32.9592   48.7430 H   0  0  0  0  0  0  0  0  0  0  0  0
   61.7240   33.9731   48.1009 H   0  0  0  0  0  0  0  0  0  0  0  0
   64.0745   34.3586   47.1136 H   0  0  0  0  0  0  0  0  0  0  0  0
   63.6920   33.0005   46.0019 H   0  0  0  0  0  0  0  0  0  0  0  0
   62.6685   34.4767   46.0019 H   0  0  0  0  0  0  0  0  0  0  0  0
   61.6192   32.0053   46.0373 H   0  0  0  0  0  0  0  0  0  0  0  0
   61.6665   31.1449   47.6526 H   0  0  0  0  0  0  0  0  0  0  0  0
   57.3917   32.7482   46.4903 H   0  0  0  0  0  0  0  0  0  0  0  0
   57.6637   34.3977   45.8286 H   0  0  0  0  0  0  0  0  0  0  0  0
   56.5566   27.5943   47.0799 H   0  0  0  0  0  0  0  0  0  0  0  0
   56.6580   25.1127   47.3101 H   0  0  0  0  0  0  0  0  0  0  0  0
   57.4826   23.7137   45.4124 H   0  0  0  0  0  0  0  0  0  0  0  0
   58.2011   24.7979   43.2793 H   0  0  0  0  0  0  0  0  0  0  0  0
   60.0458   29.6378   45.8819 H   0  0  0  0  0  0  0  0  0  0  0  0
   59.9246   28.7474   44.3266 H   0  0  0  0  0  0  0  0  0  0  0  0
   60.2258   30.5183   44.3266 H   0  0  0  0  0  0  0  0  0  0  0  0
   59.1540   34.5160   50.4490 H   0  0  0  0  0  0  0  0  0  0  0  0
   60.0150   34.3540   48.9090 H   0  0  0  0  0  0  0  0  0  0  0  0
   57.4131   33.7094   51.4286 H   0  0  0  0  0  0  0  0  0  0  0  0
   57.1298   32.1898   52.3760 H   0  0  0  0  0  0  0  0  0  0  0  0
   57.9627   34.8205   53.6383 H   0  0  0  0  0  0  0  0  0  0  0  0
   59.8886   35.4747   55.0855 H   0  0  0  0  0  0  0  0  0  0  0  0
   62.0105   34.1532   55.0182 H   0  0  0  0  0  0  0  0  0  0  0  0
   62.2134   32.1892   53.4916 H   0  0  0  0  0  0  0  0  0  0  0  0
   60.3053   31.5462   52.0167 H   0  0  0  0  0  0  0  0  0  0  0  0
  1  2  1  0
  2  3  1  0
  2  4  1  0
  4  5  1  0
  5  6  1  0
  6  7  2  0
  6  8  1  0
  8  9  1  0
  9 10  1  0
 10 11  2  0
 11 12  1  0
 12 13  2  0
 13 14  1  0
 14 15  2  0
 15 16  1  0
 16 17  2  0
 17 18  1  0
 18 19  2  0
 19 20  1  0
 13 21  1  0
 21 22  1  0
  5 23  1  0
 23 24  2  0
 24 25  1  0
 24 26  1  0
 26 27  1  0
 27 28  1  0
 28 29  2  0
 29 30  1  0
 30 31  2  0
 31 32  1  0
 32 33  2  0
 26 34  1  0
 34 35  2  0
 34 36  1  0
 36 37  1  0
 37 38  2  0
 21 10  1  0
 37 23  1  0
 19 14  1  0
 33 28  1  0
  1 39  1  0
  1 40  1  0
  1 41  1  0
  2 42  1  0
  3 43  1  0
  3 44  1  0
  3 45  1  0
  4 46  1  0
  4 47  1  0
  8 48  1  0
  8 49  1  0
 15 50  1  0
 16 51  1  0
 17 52  1  0
 18 53  1  0
 22 54  1  0
 22 55  1  0
 22 56  1  0
 25 57  1  0
 25 58  1  0
 27 59  1  0
 27 60  1  0
 29 61  1  0
 30 62  1  0
 31 63  1  0
 32 64  1  0
 33 65  1  0
M  CHG  1  36  -1
M  END
>  <UniqueID>  (37) 
36

>  <SMILES>  (37) 
CC(C)CN(C(=O)CSc1nnc(-c2ccccc2F)n1C)c1c(N)n(Cc2ccccc2)c(=O)[n-]c1=O

>  <Energy>  (37) 
113.39576067077489

>  <Genealogy>  (37) 
CC(C)CN(C(=O)CSc1nnc(-c2ccccc2F)n1C)c1c(N)n(Cc2ccccc2)c(=O)[n-]c1=O (protonated)
CC(C)CN(C(=O)CSc1nnc(-c2ccccc2F)n1C)c1c(N)n(Cc2ccccc2)c(=O)[n-]c1=O (3D coordinates assigned)
CC(C)CN(C(=O)CSc1nnc(-c2ccccc2F)n1C)c1c(N)n(Cc2ccccc2)c(=O)[n-]c1=O (optimized conformer: 113.39576067077489 kcal/mol)

>  <smiles>  (37) 
CC(C)CN(C(=O)CSc1nnc(-c2ccccc2F)n1C)c1c(N)n(Cc2ccccc2)c(=O)[nH]c1=O

>  <score_type>  (37) 
oracle

>  <origin>  (37) 
adg

>  <m_score__min__energy>  (37) 
-10.199999999999999

>  <m_primary>  (37) 
energy

$$$$
38:0
     RDKit          3D

 45 46  0  0  0  0  0  0  0  0999 V2000
   55.8840   24.7830   47.0270 O   0  0  0  0  0  0  0  0  0  0  0  0
   56.1280   25.7530   46.2610 C   0  0  0  0  0  0  0  0  0  0  0  0
   55.1390   26.6960   46.0110 O   0  0  0  0  0  0  0  0  0  0  0  0
   57.4650   25.8730   45.5920 C   0  0  0  0  0  0  0  0  0  0  0  0
   58.4610   26.7190   46.4020 C   0  0  0  0  0  0  0  0  0  0  0  0
   58.2940   28.2380   46.2150 C   0  0  0  0  0  0  0  0  0  0  0  0
   57.8370   28.6210   44.7960 C   0  0  0  0  0  0  0  0  0  0  0  0
   56.6120   29.5510   44.7820 C   0  0  0  0  0  0  0  0  0  0  0  0
   56.3830   30.3380   43.4750 C   0  0  0  0  0  0  0  0  0  0  0  0
   57.4570   31.3990   43.1740 C   0  0  0  0  0  0  0  0  0  0  0  0
   57.5900   32.4040   44.2810 C   0  0  0  0  0  0  0  0  0  0  0  0
   58.6500   33.2630   44.4940 C   0  0  0  0  0  0  0  0  0  0  0  0
   58.3390   33.9720   45.5920 N   0  0  0  0  0  0  0  0  0  0  0  0
   59.1620   34.9880   46.2400 C   0  0  0  0  0  0  0  0  0  0  0  0
   60.2520   34.3270   47.0380 C   0  0  0  0  0  0  0  0  0  0  0  0
   60.1400   34.2240   48.4340 C   0  0  0  0  0  0  0  0  0  0  0  0
   61.1680   33.6400   49.1810 C   0  0  0  0  0  0  0  0  0  0  0  0
   62.3170   33.1660   48.5410 C   0  0  0  0  0  0  0  0  0  0  0  0
   62.4420   33.2810   47.1530 C   0  0  0  0  0  0  0  0  0  0  0  0
   61.4160   33.8640   46.4020 C   0  0  0  0  0  0  0  0  0  0  0  0
   57.1690   33.5430   46.0400 N   0  0  0  0  0  0  0  0  0  0  0  0
   56.6820   32.5860   45.2650 N   0  0  0  0  0  0  0  0  0  0  0  0
   57.8847   24.8647   45.4614 H   0  0  0  0  0  0  0  0  0  0  0  0
   57.3091   26.3774   44.6270 H   0  0  0  0  0  0  0  0  0  0  0  0
   58.3254   26.4853   47.4683 H   0  0  0  0  0  0  0  0  0  0  0  0
   59.4660   26.4631   46.0352 H   0  0  0  0  0  0  0  0  0  0  0  0
   57.5447   28.5998   46.9345 H   0  0  0  0  0  0  0  0  0  0  0  0
   59.2781   28.7008   46.3806 H   0  0  0  0  0  0  0  0  0  0  0  0
   58.6683   29.1308   44.2871 H   0  0  0  0  0  0  0  0  0  0  0  0
   57.5462   27.6912   44.2851 H   0  0  0  0  0  0  0  0  0  0  0  0
   55.7189   28.9360   44.9668 H   0  0  0  0  0  0  0  0  0  0  0  0
   56.8017   30.3076   45.5576 H   0  0  0  0  0  0  0  0  0  0  0  0
   56.3644   29.6212   42.6408 H   0  0  0  0  0  0  0  0  0  0  0  0
   55.4332   30.8792   43.5972 H   0  0  0  0  0  0  0  0  0  0  0  0
   58.4245   30.8940   43.0364 H   0  0  0  0  0  0  0  0  0  0  0  0
   57.1526   31.9379   42.2647 H   0  0  0  0  0  0  0  0  0  0  0  0
   59.5637   33.3493   43.8876 H   0  0  0  0  0  0  0  0  0  0  0  0
   59.6121   35.6366   45.4740 H   0  0  0  0  0  0  0  0  0  0  0  0
   58.5334   35.5902   46.9125 H   0  0  0  0  0  0  0  0  0  0  0  0
   59.2410   34.6038   48.9415 H   0  0  0  0  0  0  0  0  0  0  0  0
   61.0724   33.5535   50.2734 H   0  0  0  0  0  0  0  0  0  0  0  0
   63.1227   32.7026   49.1293 H   0  0  0  0  0  0  0  0  0  0  0  0
   63.3487   32.9124   46.6509 H   0  0  0  0  0  0  0  0  0  0  0  0
   61.5207   33.9602   45.3112 H   0  0  0  0  0  0  0  0  0  0  0  0
   56.6910   33.9040   46.8950 H   0  0  0  0  0  0  0  0  0  0  0  0
  1  2  2  0
  2  3  1  0
  2  4  1  0
  4  5  1  0
  5  6  1  0
  6  7  1  0
  7  8  1  0
  8  9  1  0
  9 10  1  0
 10 11  1  0
 11 12  2  0
 12 13  1  0
 13 14  1  0
 14 15  1  0
 15 16  2  0
 16 17  1  0
 17 18  2  0
 18 19  1  0
 19 20  2  0
 13 21  1  0
 21 22  2  0
 22 11  1  0
 20 15  1  0
  4 23  1  0
  4 24  1  0
  5 25  1  0
  5 26  1  0
  6 27  1  0
  6 28  1  0
  7 29  1  0
  7 30  1  0
  8 31  1  0
  8 32  1  0
  9 33  1  0
  9 34  1  0
 10 35  1  0
 10 36  1  0
 12 37  1  0
 14 38  1  0
 14 39  1  0
 16 40  1  0
 17 41  1  0
 18 42  1  0
 19 43  1  0
 20 44  1  0
 21 45  1  0
M  CHG  2   3  -1  21   1
M  END
>  <UniqueID>  (38) 
37

>  <SMILES>  (38) 
O=C([O-])CCCCCCCc1cn(Cc2ccccc2)[nH+]n1

>  <Energy>  (38) 
68.44333541376214

>  <Genealogy>  (38) 
O=C([O-])CCCCCCCc1cn(Cc2ccccc2)[nH+]n1 (protonated)
O=C([O-])CCCCCCCc1cn(Cc2ccccc2)[nH+]n1 (3D coordinates assigned)
O=C([O-])CCCCCCCc1cn(Cc2ccccc2)[nH+]n1 (optimized conformer: 68.44333541376214 kcal/mol)

>  <smiles>  (38) 
O=C(O)CCCCCCCc1cn(Cc2ccccc2)nn1

>  <score_type>  (38) 
oracle

>  <origin>  (38) 
adg

>  <m_score__min__energy>  (38) 
-10.289999999999999

>  <m_primary>  (38) 
energy

$$$$
39:0
     RDKit          3D

 35 36  0  0  0  0  0  0  0  0999 V2000
   60.7480   30.1140   46.9390 C   0  0  0  0  0  0  0  0  0  0  0  0
   60.9250   29.7080   45.6380 O   0  0  0  0  0  0  0  0  0  0  0  0
   59.9450   28.8260   45.2050 C   0  0  0  0  0  0  0  0  0  0  0  0
   58.6690   29.5440   44.9580 C   0  0  0  0  0  0  0  0  0  0  0  0
   57.4510   28.8900   44.8380 C   0  0  0  0  0  0  0  0  0  0  0  0
   56.2770   29.5930   44.6070 C   0  0  0  0  0  0  0  0  0  0  0  0
   55.1620   28.9860   44.4990 O   0  0  0  0  0  0  0  0  0  0  0  0
   56.2950   30.9410   44.4940 N   0  0  0  0  0  0  0  0  0  0  0  0
   57.4840   31.5630   44.6110 C   0  0  0  0  0  0  0  0  0  0  0  0
   57.5810   33.0590   44.4960 C   0  0  0  0  0  0  0  0  0  0  0  0
   58.3680   33.5550   45.6500 C   0  0  0  0  0  0  0  0  0  0  0  0
   59.2920   34.5750   45.5580 C   0  0  0  0  0  0  0  0  0  0  0  0
   59.9790   34.9630   46.7090 C   0  0  0  0  0  0  0  0  0  0  0  0
   59.7450   34.3430   47.9290 C   0  0  0  0  0  0  0  0  0  0  0  0
   58.8150   33.3190   48.0140 C   0  0  0  0  0  0  0  0  0  0  0  0
   58.5270   32.6530   49.1890 O   0  0  0  0  0  0  0  0  0  0  0  0
   59.2560   32.8350   50.3700 C   0  0  0  0  0  0  0  0  0  0  0  0
   58.1280   32.9260   46.8730 C   0  0  0  0  0  0  0  0  0  0  0  0
   58.6380   30.8820   44.8370 N   0  0  0  0  0  0  0  0  0  0  0  0
   61.0931   29.3224   47.6203 H   0  0  0  0  0  0  0  0  0  0  0  0
   61.3279   31.0312   47.1190 H   0  0  0  0  0  0  0  0  0  0  0  0
   59.6813   30.3134   47.1190 H   0  0  0  0  0  0  0  0  0  0  0  0
   60.2766   28.3465   44.2722 H   0  0  0  0  0  0  0  0  0  0  0  0
   59.7804   28.0676   45.9846 H   0  0  0  0  0  0  0  0  0  0  0  0
   57.4154   27.7942   44.9276 H   0  0  0  0  0  0  0  0  0  0  0  0
   58.0846   33.3297   43.5563 H   0  0  0  0  0  0  0  0  0  0  0  0
   56.5772   33.5089   44.4952 H   0  0  0  0  0  0  0  0  0  0  0  0
   59.4836   35.0729   44.5960 H   0  0  0  0  0  0  0  0  0  0  0  0
   60.7191   35.7745   46.6486 H   0  0  0  0  0  0  0  0  0  0  0  0
   60.2961   34.6636   48.8254 H   0  0  0  0  0  0  0  0  0  0  0  0
   58.5980   32.6707   51.2361 H   0  0  0  0  0  0  0  0  0  0  0  0
   60.0890   32.1172   50.4010 H   0  0  0  0  0  0  0  0  0  0  0  0
   59.6539   33.8600   50.4010 H   0  0  0  0  0  0  0  0  0  0  0  0
   57.3893   32.1132   46.9332 H   0  0  0  0  0  0  0  0  0  0  0  0
   59.5650   31.3760   44.9290 H   0  0  0  0  0  0  0  0  0  0  0  0
  1  2  1  0
  2  3  1  0
  3  4  1  0
  4  5  2  0
  5  6  1  0
  6  7  2  0
  6  8  1  0
  8  9  2  0
  9 10  1  0
 10 11  1  0
 11 12  2  0
 12 13  1  0
 13 14  2  0
 14 15  1  0
 15 16  1  0
 16 17  1  0
 15 18  2  0
  9 19  1  0
 19  4  1  0
 18 11  1  0
  1 20  1  0
  1 21  1  0
  1 22  1  0
  3 23  1  0
  3 24  1  0
  5 25  1  0
 10 26  1  0
 10 27  1  0
 12 28  1  0
 13 29  1  0
 14 30  1  0
 17 31  1  0
 17 32  1  0
 17 33  1  0
 18 34  1  0
 19 35  1  0
M  END
>  <smiles>  (39) 
COCc1cc(=O)nc(Cc2cccc(OC)c2)[nH]1

>  <score_type>  (39) 
oracle

>  <origin>  (39) 
adg

>  <m_score__min__energy>  (39) 
-6.2800000000000002

>  <m_primary>  (39) 
energy

$$$$
40:0
     RDKit          3D

 40 43  0  0  0  0  0  0  0  0999 V2000
   56.0170   29.8400   43.6090 C   0  0  0  0  0  0  0  0  0  0  0  0
   57.3450   29.3140   44.0940 C   0  0  0  0  0  0  0  0  0  0  0  0
   57.7400   28.0300   43.6750 C   0  0  0  0  0  0  0  0  0  0  0  0
   58.9550   27.4840   44.0870 C   0  0  0  0  0  0  0  0  0  0  0  0
   59.8000   28.2080   44.9230 C   0  0  0  0  0  0  0  0  0  0  0  0
   59.4380   29.4860   45.3560 C   0  0  0  0  0  0  0  0  0  0  0  0
   60.2660   30.1500   46.1520 O   0  0  0  0  0  0  0  0  0  0  0  0
   59.9960   31.3680   46.6070 C   0  0  0  0  0  0  0  0  0  0  0  0
   60.9360   32.0490   47.4700 N   0  0  0  0  0  0  0  0  0  0  0  0
   61.9500   31.2780   48.2070 C   0  0  0  0  0  0  0  0  0  0  0  0
   63.3780   31.7220   47.8410 C   0  0  0  0  0  0  0  0  0  0  0  0
   63.5930   33.1890   47.8550 N   0  0  0  0  0  0  0  0  0  0  0  0
   63.2570   33.8500   46.5740 C   0  0  0  0  0  0  0  0  0  0  0  0
   61.7460   34.1100   46.3950 C   0  0  0  0  0  0  0  0  0  0  0  0
   60.9210   33.5260   47.5470 C   0  0  0  0  0  0  0  0  0  0  0  0
   61.4650   34.0550   48.8900 C   0  0  0  0  0  0  0  0  0  0  0  0
   62.9960   33.8780   49.0190 C   0  0  0  0  0  0  0  0  0  0  0  0
   58.8300   31.9690   46.2520 N   0  0  0  0  0  0  0  0  0  0  0  0
   57.9330   31.3560   45.4420 C   0  0  0  0  0  0  0  0  0  0  0  0
   56.8720   31.9660   45.1510 O   0  0  0  0  0  0  0  0  0  0  0  0
   58.2080   30.0590   44.9500 C   0  0  0  0  0  0  0  0  0  0  0  0
   55.3842   30.0906   44.4731 H   0  0  0  0  0  0  0  0  0  0  0  0
   56.1799   30.7415   43.0001 H   0  0  0  0  0  0  0  0  0  0  0  0
   55.5185   29.0714   43.0001 H   0  0  0  0  0  0  0  0  0  0  0  0
   57.0810   27.4489   43.0132 H   0  0  0  0  0  0  0  0  0  0  0  0
   59.2465   26.4782   43.7504 H   0  0  0  0  0  0  0  0  0  0  0  0
   60.7574   27.7719   45.2443 H   0  0  0  0  0  0  0  0  0  0  0  0
   61.7960   31.4259   49.2861 H   0  0  0  0  0  0  0  0  0  0  0  0
   61.8397   30.2178   47.9355 H   0  0  0  0  0  0  0  0  0  0  0  0
   64.0736   31.2668   48.5613 H   0  0  0  0  0  0  0  0  0  0  0  0
   63.5503   31.3924   46.8058 H   0  0  0  0  0  0  0  0  0  0  0  0
   63.7841   34.8145   46.5308 H   0  0  0  0  0  0  0  0  0  0  0  0
   63.5668   33.1697   45.7670 H   0  0  0  0  0  0  0  0  0  0  0  0
   61.5755   35.1958   46.3513 H   0  0  0  0  0  0  0  0  0  0  0  0
   61.4251   33.6183   45.4648 H   0  0  0  0  0  0  0  0  0  0  0  0
   59.8714   33.8458   47.4691 H   0  0  0  0  0  0  0  0  0  0  0  0
   61.2255   35.1256   48.9706 H   0  0  0  0  0  0  0  0  0  0  0  0
   60.9920   33.4734   49.6950 H   0  0  0  0  0  0  0  0  0  0  0  0
   63.4579   34.8718   49.1142 H   0  0  0  0  0  0  0  0  0  0  0  0
   63.1838   33.2542   49.9054 H   0  0  0  0  0  0  0  0  0  0  0  0
  1  2  1  0
  2  3  2  0
  3  4  1  0
  4  5  2  0
  5  6  1  0
  6  7  1  0
  7  8  1  0
  8  9  1  0
  9 10  1  0
 10 11  1  0
 11 12  1  0
 12 13  1  0
 13 14  1  0
 14 15  1  0
 15 16  1  0
 16 17  1  0
  8 18  2  0
 18 19  1  0
 19 20  2  0
 19 21  1  0
 21  2  1  0
 21  6  2  0
 15  9  1  0
 17 12  1  0
  1 22  1  0
  1 23  1  0
  1 24  1  0
  3 25  1  0
  4 26  1  0
  5 27  1  0
 10 28  1  0
 10 29  1  0
 11 30  1  0
 11 31  1  0
 13 32  1  0
 13 33  1  0
 14 34  1  0
 14 35  1  0
 15 36  1  0
 16 37  1  0
 16 38  1  0
 17 39  1  0
 17 40  1  0
M  END
>  <UniqueID>  (40) 
38

>  <SMILES>  (40) 
Cc1cccc2oc(N3CCN4CCC3CC4)nc(=O)c12

>  <Energy>  (40) 
67.47809443257398

>  <Genealogy>  (40) 
Cc1cccc2oc(N3CCN4CCC3CC4)nc(=O)c12 (3D coordinates assigned)
Cc1cccc2oc(N3CCN4CCC3CC4)nc(=O)c12 (nonaromatic ring conformer: 67.47809443257398 kcal/mol)

>  <smiles>  (40) 
Cc1cccc2oc(N3CCN4CCC3CC4)nc(=O)c12

>  <score_type>  (40) 
oracle

>  <origin>  (40) 
adg

>  <m_score__min__energy>  (40) 
-6.2800000000000002

>  <m_primary>  (40) 
energy

$$$$
41:0
     RDKit          3D

 35 36  0  0  0  0  0  0  0  0999 V2000
   59.6840   27.7090   47.4390 C   0  0  0  0  0  0  0  0  0  0  0  0
   59.4930   27.8140   45.9300 C   0  0  0  0  0  0  0  0  0  0  0  0
   58.1210   28.2250   45.6160 N   0  0  0  0  0  0  0  0  0  0  0  0
   57.7380   29.2900   44.8820 C   0  0  0  0  0  0  0  0  0  0  0  0
   58.8570   30.5630   44.2640 S   0  0  0  0  0  0  0  0  0  0  0  0
   58.9950   31.4400   45.8420 C   0  0  0  0  0  0  0  0  0  0  0  0
   58.0620   32.4410   46.2030 C   0  0  0  0  0  0  0  0  0  0  0  0
   57.0010   32.9090   45.2400 C   0  0  0  0  0  0  0  0  0  0  0  0
   58.1940   33.0870   47.4000 N   0  0  0  0  0  0  0  0  0  0  0  0
   59.2060   32.8060   48.2670 C   0  0  0  0  0  0  0  0  0  0  0  0
   59.2830   33.5090   49.5900 C   0  0  0  0  0  0  0  0  0  0  0  0
   60.1510   31.8300   47.9390 C   0  0  0  0  0  0  0  0  0  0  0  0
   60.0570   31.1620   46.7190 C   0  0  0  0  0  0  0  0  0  0  0  0
   60.9320   30.3080   46.4180 O   0  0  0  0  0  0  0  0  0  0  0  0
   56.3760   29.1920   44.6590 C   0  0  0  0  0  0  0  0  0  0  0  0
   55.5220   30.1310   43.8750 C   0  0  0  0  0  0  0  0  0  0  0  0
   55.8960   28.0830   45.2590 N   0  0  0  0  0  0  0  0  0  0  0  0
   56.9840   27.5200   45.8230 C   0  0  0  0  0  0  0  0  0  0  0  0
   56.9100   26.1010   46.6410 S   0  0  0  0  0  0  0  0  0  0  0  0
   58.8304   28.1782   47.9502 H   0  0  0  0  0  0  0  0  0  0  0  0
   59.7470   26.6495   47.7278 H   0  0  0  0  0  0  0  0  0  0  0  0
   60.6123   28.2236   47.7278 H   0  0  0  0  0  0  0  0  0  0  0  0
   60.1956   28.5581   45.5266 H   0  0  0  0  0  0  0  0  0  0  0  0
   59.6833   26.8299   45.4768 H   0  0  0  0  0  0  0  0  0  0  0  0
   56.1367   33.2902   45.8036 H   0  0  0  0  0  0  0  0  0  0  0  0
   57.4085   33.7109   44.6068 H   0  0  0  0  0  0  0  0  0  0  0  0
   56.6835   32.0674   44.6068 H   0  0  0  0  0  0  0  0  0  0  0  0
   57.5030   33.8300   47.6550 H   0  0  0  0  0  0  0  0  0  0  0  0
   59.2022   32.7716   50.4023 H   0  0  0  0  0  0  0  0  0  0  0  0
   60.2444   34.0376   49.6689 H   0  0  0  0  0  0  0  0  0  0  0  0
   58.4588   34.2332   49.6689 H   0  0  0  0  0  0  0  0  0  0  0  0
   60.9644   31.5902   48.6396 H   0  0  0  0  0  0  0  0  0  0  0  0
   54.9454   30.7650   44.5647 H   0  0  0  0  0  0  0  0  0  0  0  0
   56.1599   30.7645   43.2411 H   0  0  0  0  0  0  0  0  0  0  0  0
   54.8310   29.5559   43.2411 H   0  0  0  0  0  0  0  0  0  0  0  0
  1  2  1  0
  2  3  1  0
  3  4  1  0
  4  5  1  0
  5  6  1  0
  6  7  2  0
  7  8  1  0
  7  9  1  0
  9 10  1  0
 10 11  1  0
 10 12  2  0
 12 13  1  0
 13 14  2  0
  4 15  2  0
 15 16  1  0
 15 17  1  0
 17 18  1  0
 18 19  2  0
 18  3  1  0
 13  6  1  0
  1 20  1  0
  1 21  1  0
  1 22  1  0
  2 23  1  0
  2 24  1  0
  8 25  1  0
  8 26  1  0
  8 27  1  0
  9 28  1  0
 11 29  1  0
 11 30  1  0
 11 31  1  0
 12 32  1  0
 16 33  1  0
 16 34  1  0
 16 35  1  0
M  CHG  1  17  -1
M  END
>  <UniqueID>  (41) 
39

>  <SMILES>  (41) 
CCn1c(Sc2c(C)[nH]c(C)cc2=O)c(C)[n-]c1=S

>  <Energy>  (41) 
60.66931591376706

>  <Genealogy>  (41) 
CCn1c(Sc2c(C)[nH]c(C)cc2=O)c(C)[n-]c1=S (protonated)
CCn1c(Sc2c(C)[nH]c(C)cc2=O)c(C)[n-]c1=S (3D coordinates assigned)
CCn1c(Sc2c(C)[nH]c(C)cc2=O)c(C)[n-]c1=S (optimized conformer: 60.66931591376706 kcal/mol)

>  <smiles>  (41) 
CCn1c(Sc2c(C)[nH]c(C)cc2=O)c(C)[nH]c1=S

>  <score_type>  (41) 
oracle

>  <origin>  (41) 
adg

>  <m_score__min__energy>  (41) 
-7.3300000000000001

>  <m_primary>  (41) 
energy

$$$$
42:0
     RDKit          3D

 41 46  0  0  0  0  0  0  0  0999 V2000
   57.0410   21.5550   45.3480 C   0  0  0  0  0  0  0  0  0  0  0  0
   58.3600   21.9920   45.2450 C   0  0  0  0  0  0  0  0  0  0  0  0
   58.6650   23.3510   45.3560 C   0  0  0  0  0  0  0  0  0  0  0  0
   57.6440   24.3060   45.5750 C   0  0  0  0  0  0  0  0  0  0  0  0
   56.3050   23.8420   45.6780 C   0  0  0  0  0  0  0  0  0  0  0  0
   56.0160   22.4740   45.5630 C   0  0  0  0  0  0  0  0  0  0  0  0
   55.2690   24.7580   45.8940 C   0  0  0  0  0  0  0  0  0  0  0  0
   55.5370   26.0800   46.0060 N   0  0  0  0  0  0  0  0  0  0  0  0
   56.7970   26.5720   45.9160 C   0  0  0  0  0  0  0  0  0  0  0  0
   56.9940   27.9110   46.0380 N   0  0  0  0  0  0  0  0  0  0  0  0
   58.2280   28.4770   45.9640 C   0  0  0  0  0  0  0  0  0  0  0  0
   58.3720   29.9470   46.0890 C   0  0  0  0  0  0  0  0  0  0  0  0
   58.8290   30.5030   47.3020 C   0  0  0  0  0  0  0  0  0  0  0  0
   59.0150   31.8930   47.4410 C   0  0  0  0  0  0  0  0  0  0  0  0
   59.4760   32.4320   48.6530 C   0  0  0  0  0  0  0  0  0  0  0  0
   59.6600   33.8110   48.7860 C   0  0  0  0  0  0  0  0  0  0  0  0
   59.3850   34.6640   47.7140 C   0  0  0  0  0  0  0  0  0  0  0  0
   58.9270   34.1450   46.5000 C   0  0  0  0  0  0  0  0  0  0  0  0
   58.7390   32.7600   46.3530 C   0  0  0  0  0  0  0  0  0  0  0  0
   58.2790   32.1910   45.1600 C   0  0  0  0  0  0  0  0  0  0  0  0
   57.8450   32.9610   43.7280 S   0  0  0  0  0  0  0  0  0  0  0  0
   57.4000   31.5570   42.9080 C   0  0  0  0  0  0  0  0  0  0  0  0
   57.5870   30.4670   43.7510 C   0  0  0  0  0  0  0  0  0  0  0  0
   58.0920   30.8200   45.0160 C   0  0  0  0  0  0  0  0  0  0  0  0
   59.3440   27.6620   45.7440 C   0  0  0  0  0  0  0  0  0  0  0  0
   59.1800   26.2820   45.6130 C   0  0  0  0  0  0  0  0  0  0  0  0
   57.8950   25.7030   45.6980 C   0  0  0  0  0  0  0  0  0  0  0  0
   56.8087   20.4835   45.2595 H   0  0  0  0  0  0  0  0  0  0  0  0
   59.1659   21.2628   45.0753 H   0  0  0  0  0  0  0  0  0  0  0  0
   59.7106   23.6823   45.2722 H   0  0  0  0  0  0  0  0  0  0  0  0
   54.9758   22.1254   45.6429 H   0  0  0  0  0  0  0  0  0  0  0  0
   54.2314   24.4016   45.9732 H   0  0  0  0  0  0  0  0  0  0  0  0
   59.0438   29.8407   48.1536 H   0  0  0  0  0  0  0  0  0  0  0  0
   59.6932   31.7661   49.5012 H   0  0  0  0  0  0  0  0  0  0  0  0
   60.0226   34.2263   49.7379 H   0  0  0  0  0  0  0  0  0  0  0  0
   59.5296   35.7487   47.8261 H   0  0  0  0  0  0  0  0  0  0  0  0
   58.7135   34.8210   45.6589 H   0  0  0  0  0  0  0  0  0  0  0  0
   57.0235   31.5107   41.8755 H   0  0  0  0  0  0  0  0  0  0  0  0
   57.3623   29.4309   43.4578 H   0  0  0  0  0  0  0  0  0  0  0  0
   60.3474   28.1074   45.6745 H   0  0  0  0  0  0  0  0  0  0  0  0
   60.0577   25.6413   45.4424 H   0  0  0  0  0  0  0  0  0  0  0  0
  1  2  2  0
  2  3  1  0
  3  4  2  0
  4  5  1  0
  5  6  2  0
  5  7  1  0
  7  8  2  0
  8  9  1  0
  9 10  2  0
 10 11  1  0
 11 12  1  0
 12 13  2  0
 13 14  1  0
 14 15  2  0
 15 16  1  0
 16 17  2  0
 17 18  1  0
 18 19  2  0
 19 20  1  0
 20 21  1  0
 21 22  1  0
 22 23  2  0
 23 24  1  0
 11 25  2  0
 25 26  1  0
 26 27  2  0
  6  1  1  0
 27  9  1  0
 27  4  1  0
 24 12  1  0
 19 14  1  0
 24 20  2  0
  1 28  1  0
  2 29  1  0
  3 30  1  0
  6 31  1  0
  7 32  1  0
 13 33  1  0
 15 34  1  0
 16 35  1  0
 17 36  1  0
 18 37  1  0
 22 38  1  0
 23 39  1  0
 25 40  1  0
 26 41  1  0
M  END
>  <UniqueID>  (42) 
40

>  <SMILES>  (42) 
c1ccc2c(c1)cnc1nc(-c3cc4ccccc4c4sccc34)ccc12

>  <Energy>  (42) 
101.44994134305126

>  <Genealogy>  (42) 
c1ccc2c(c1)cnc1nc(-c3cc4ccccc4c4sccc34)ccc12 (3D coordinates assigned)
c1ccc2c(c1)cnc1nc(-c3cc4ccccc4c4sccc34)ccc12 (optimized conformer: 101.44994134305126 kcal/mol)

>  <smiles>  (42) 
c1ccc2c(c1)cnc1nc(-c3cc4ccccc4c4sccc34)ccc12

>  <score_type>  (42) 
oracle

>  <origin>  (42) 
adg

>  <m_score__min__energy>  (42) 
-9.7100000000000009

>  <m_primary>  (42) 
energy

$$$$
43:0
     RDKit          3D

 18 19  0  0  0  0  0  0  0  0999 V2000
   57.7730   26.7650   44.6540 S   0  0  0  0  0  0  0  0  0  0  0  0
   57.3120   28.3350   44.8860 C   0  0  0  0  0  0  0  0  0  0  0  0
   56.0210   28.7690   44.9580 N   0  0  0  0  0  0  0  0  0  0  0  0
   56.0900   30.0900   45.1510 N   0  0  0  0  0  0  0  0  0  0  0  0
   57.4030   30.4450   45.1950 C   0  0  0  0  0  0  0  0  0  0  0  0
   57.8840   31.8240   45.3940 C   0  0  0  0  0  0  0  0  0  0  0  0
   58.1240   32.3000   46.6880 C   0  0  0  0  0  0  0  0  0  0  0  0
   58.5700   33.5750   46.8950 C   0  0  0  0  0  0  0  0  0  0  0  0
   58.7740   34.3690   45.7770 C   0  0  0  0  0  0  0  0  0  0  0  0
   58.5450   33.9200   44.4990 C   0  0  0  0  0  0  0  0  0  0  0  0
   58.0900   32.6180   44.2920 C   0  0  0  0  0  0  0  0  0  0  0  0
   57.7970   32.0410   42.6610 Cl  0  0  0  0  0  0  0  0  0  0  0  0
   58.0920   29.3580   45.0320 O   0  0  0  0  0  0  0  0  0  0  0  0
   55.1470   28.1850   44.8780 H   0  0  0  0  0  0  0  0  0  0  0  0
   57.9513   31.6389   47.5501 H   0  0  0  0  0  0  0  0  0  0  0  0
   58.7597   33.9565   47.9091 H   0  0  0  0  0  0  0  0  0  0  0  0
   59.1333   35.3989   45.9188 H   0  0  0  0  0  0  0  0  0  0  0  0
   58.7201   34.5858   43.6411 H   0  0  0  0  0  0  0  0  0  0  0  0
  1  2  2  0
  2  3  1  0
  3  4  1  0
  4  5  2  0
  5  6  1  0
  6  7  2  0
  7  8  1  0
  8  9  2  0
  9 10  1  0
 10 11  2  0
 11 12  1  0
  5 13  1  0
 13  2  1  0
 11  6  1  0
  3 14  1  0
  7 15  1  0
  8 16  1  0
  9 17  1  0
 10 18  1  0
M  END
>  <smiles>  (43) 
S=c1[nH]nc(-c2ccccc2Cl)o1

>  <score_type>  (43) 
oracle

>  <origin>  (43) 
adg

>  <m_score__min__energy>  (43) 
-6.4299999999999997

>  <m_primary>  (43) 
energy

$$$$
