0:0
     RDKit          3D

 46 47  0  0  0  0  0  0  0  0999 V2000
   58.5530   29.0810   47.9840 C   0  0  0  0  0  0  0  0  0  0  0  0
   59.2980   28.0340   47.1610 C   0  0  0  0  0  0  0  0  0  0  0  0
   59.2240   28.3590   45.7200 N   0  0  0  0  0  0  0  0  0  0  0  0
   60.4000   29.1150   45.2540 C   0  0  0  0  0  0  0  0  0  0  0  0
   58.9180   27.1870   44.8650 C   0  0  0  0  0  0  0  0  0  0  0  0
   57.8610   27.4360   43.7680 C   0  0  0  0  0  0  0  0  0  0  0  0
   57.5220   28.8540   43.6650 N   0  0  0  0  0  0  0  0  0  0  0  0
   56.3780   29.4340   44.3060 C   0  0  0  0  0  0  0  0  0  0  0  0
   55.6000   28.7230   44.9990 O   0  0  0  0  0  0  0  0  0  0  0  0
   56.0800   30.8900   44.1260 C   0  0  0  0  0  0  0  0  0  0  0  0
   57.1140   31.6900   44.7730 N   0  0  0  0  0  0  0  0  0  0  0  0
   57.6310   32.8400   44.3020 C   0  0  0  0  0  0  0  0  0  0  0  0
   58.6210   33.2500   45.1700 C   0  0  0  0  0  0  0  0  0  0  0  0
   58.6780   32.2590   46.1400 C   0  0  0  0  0  0  0  0  0  0  0  0
   57.7410   31.3250   45.8820 N   0  0  0  0  0  0  0  0  0  0  0  0
   59.5820   32.2140   47.3400 C   0  0  0  0  0  0  0  0  0  0  0  0
   59.4300   33.4660   48.2150 C   0  0  0  0  0  0  0  0  0  0  0  0
   58.8110   34.6690   47.4740 C   0  0  0  0  0  0  0  0  0  0  0  0
   59.6530   35.2370   46.3150 C   0  0  0  0  0  0  0  0  0  0  0  0
   59.5150   34.4470   45.0060 C   0  0  0  0  0  0  0  0  0  0  0  0
   58.6983   28.8768   49.0551 H   0  0  0  0  0  0  0  0  0  0  0  0
   58.9436   30.0812   47.7451 H   0  0  0  0  0  0  0  0  0  0  0  0
   57.4801   29.0397   47.7451 H   0  0  0  0  0  0  0  0  0  0  0  0
   60.3525   28.0113   47.4733 H   0  0  0  0  0  0  0  0  0  0  0  0
   58.8316   27.0520   47.3286 H   0  0  0  0  0  0  0  0  0  0  0  0
   60.9685   29.4804   46.1219 H   0  0  0  0  0  0  0  0  0  0  0  0
   61.0404   28.4589   44.6461 H   0  0  0  0  0  0  0  0  0  0  0  0
   60.0690   29.9699   44.6461 H   0  0  0  0  0  0  0  0  0  0  0  0
   59.8502   26.8701   44.3746 H   0  0  0  0  0  0  0  0  0  0  0  0
   58.4931   26.4229   45.5326 H   0  0  0  0  0  0  0  0  0  0  0  0
   58.2600   27.0925   42.8022 H   0  0  0  0  0  0  0  0  0  0  0  0
   56.9493   26.8809   44.0338 H   0  0  0  0  0  0  0  0  0  0  0  0
   58.0980   29.4540   43.0310 H   0  0  0  0  0  0  0  0  0  0  0  0
   56.0533   31.1272   43.0522 H   0  0  0  0  0  0  0  0  0  0  0  0
   55.1052   31.1200   44.5809 H   0  0  0  0  0  0  0  0  0  0  0  0
   57.3185   33.3615   43.3852 H   0  0  0  0  0  0  0  0  0  0  0  0
   59.3323   31.3271   47.9409 H   0  0  0  0  0  0  0  0  0  0  0  0
   60.6217   32.1699   46.9836 H   0  0  0  0  0  0  0  0  0  0  0  0
   58.7851   33.2157   49.0703 H   0  0  0  0  0  0  0  0  0  0  0  0
   60.4417   33.7658   48.5257 H   0  0  0  0  0  0  0  0  0  0  0  0
   57.8403   34.3524   47.0647 H   0  0  0  0  0  0  0  0  0  0  0  0
   58.7357   35.4763   48.2174 H   0  0  0  0  0  0  0  0  0  0  0  0
   59.3346   36.2735   46.1301 H   0  0  0  0  0  0  0  0  0  0  0  0
   60.7074   35.1697   46.6211 H   0  0  0  0  0  0  0  0  0  0  0  0
   59.0898   35.1064   44.2350 H   0  0  0  0  0  0  0  0  0  0  0  0
   60.5139   34.0911   44.7137 H   0  0  0  0  0  0  0  0  0  0  0  0
  1  2  1  0
  2  3  1  0
  3  4  1  0
  3  5  1  0
  5  6  1  0
  6  7  1  0
  7  8  1  0
  8  9  2  0
  8 10  1  0
 10 11  1  0
 11 12  1  0
 12 13  2  0
 13 14  1  0
 14 15  2  0
 14 16  1  0
 16 17  1  0
 17 18  1  0
 18 19  1  0
 19 20  1  0
 15 11  1  0
 20 13  1  0
  1 21  1  0
  1 22  1  0
  1 23  1  0
  2 24  1  0
  2 25  1  0
  4 26  1  0
  4 27  1  0
  4 28  1  0
  5 29  1  0
  5 30  1  0
  6 31  1  0
  6 32  1  0
  7 33  1  0
 10 34  1  0
 10 35  1  0
 12 36  1  0
 16 37  1  0
 16 38  1  0
 17 39  1  0
 17 40  1  0
 18 41  1  0
 18 42  1  0
 19 43  1  0
 19 44  1  0
 20 45  1  0
 20 46  1  0
M  END
>  <UniqueID>  (1) 
1

>  <SMILES>  (1) 
CCN(C)CCNC(=O)Cn1cc2c(n1)CCCCC2

>  <Energy>  (1) 
71.89731198585959

>  <Genealogy>  (1) 
CCN(C)CCNC(=O)Cn1cc2c(n1)CCCCC2 (3D coordinates assigned)
CCN(C)CCNC(=O)Cn1cc2c(n1)CCCCC2 (nonaromatic ring conformer: 71.89731198585959 kcal/mol)

>  <smiles>  (1) 
CCN(C)CCNC(=O)Cn1cc2c(n1)CCCCC2

>  <score_type>  (1) 
oracle

>  <origin>  (1) 
adg

>  <m_score__min__energy>  (1) 
-5.2800000000000002

>  <m_primary>  (1) 
energy

$$$$
1:0
     RDKit          3D

 46 48  0  0  0  0  0  0  0  0999 V2000
   56.7010   30.2790   43.0290 C   0  0  0  0  0  0  0  0  0  0  0  0
   55.5340   30.0980   43.9950 C   0  0  0  0  0  0  0  0  0  0  0  0
   55.8480   29.0850   45.0140 N   0  0  0  0  0  0  0  0  0  0  0  0
   57.1650   28.4760   44.7750 C   0  0  0  0  0  0  0  0  0  0  0  0
   58.2050   29.0340   45.7510 C   0  0  0  0  0  0  0  0  0  0  0  0
   57.7620   30.3060   46.3230 N   0  0  0  0  0  0  0  0  0  0  0  0
   58.6900   31.2080   46.9550 C   0  0  0  0  0  0  0  0  0  0  0  0
   58.8550   32.5160   46.4640 C   0  0  0  0  0  0  0  0  0  0  0  0
   58.0660   32.9930   45.3940 C   0  0  0  0  0  0  0  0  0  0  0  0
   58.2790   34.2620   44.8630 C   0  0  0  0  0  0  0  0  0  0  0  0
   59.2800   35.0750   45.3820 C   0  0  0  0  0  0  0  0  0  0  0  0
   60.0450   34.6400   46.4650 C   0  0  0  0  0  0  0  0  0  0  0  0
   59.8180   33.3730   47.0610 C   0  0  0  0  0  0  0  0  0  0  0  0
   60.5100   32.9630   48.1860 N   0  0  0  0  0  0  0  0  0  0  0  0
   61.2890   33.9470   48.9720 C   0  0  0  0  0  0  0  0  0  0  0  0
   60.4430   31.6460   48.6010 C   0  0  0  0  0  0  0  0  0  0  0  0
   61.3240   31.1280   49.5860 C   0  0  0  0  0  0  0  0  0  0  0  0
   61.2180   29.8060   50.0340 C   0  0  0  0  0  0  0  0  0  0  0  0
   62.1350   29.2970   51.1090 C   0  0  0  0  0  0  0  0  0  0  0  0
   60.2170   28.9820   49.5200 C   0  0  0  0  0  0  0  0  0  0  0  0
   59.3700   29.4510   48.5190 C   0  0  0  0  0  0  0  0  0  0  0  0
   59.4890   30.7650   48.0250 C   0  0  0  0  0  0  0  0  0  0  0  0
   57.6303   30.4231   43.5996 H   0  0  0  0  0  0  0  0  0  0  0  0
   56.7947   29.3846   42.3955 H   0  0  0  0  0  0  0  0  0  0  0  0
   56.5194   31.1597   42.3955 H   0  0  0  0  0  0  0  0  0  0  0  0
   55.3263   31.0568   44.4925 H   0  0  0  0  0  0  0  0  0  0  0  0
   54.6551   29.7623   43.4251 H   0  0  0  0  0  0  0  0  0  0  0  0
   55.8890   29.5760   45.9380 H   0  0  0  0  0  0  0  0  0  0  0  0
   57.0894   27.3871   44.9116 H   0  0  0  0  0  0  0  0  0  0  0  0
   57.4820   28.7109   43.7482 H   0  0  0  0  0  0  0  0  0  0  0  0
   58.3600   28.3092   46.5638 H   0  0  0  0  0  0  0  0  0  0  0  0
   59.1425   29.2057   45.2018 H   0  0  0  0  0  0  0  0  0  0  0  0
   56.7390   30.4430   46.4880 H   0  0  0  0  0  0  0  0  0  0  0  0
   57.2741   32.3544   44.9755 H   0  0  0  0  0  0  0  0  0  0  0  0
   57.6546   34.6218   44.0319 H   0  0  0  0  0  0  0  0  0  0  0  0
   59.4695   36.0634   44.9380 H   0  0  0  0  0  0  0  0  0  0  0  0
   60.8375   35.2907   46.8632 H   0  0  0  0  0  0  0  0  0  0  0  0
   61.1402   33.7591   50.0456 H   0  0  0  0  0  0  0  0  0  0  0  0
   62.3569   33.8490   48.7271 H   0  0  0  0  0  0  0  0  0  0  0  0
   60.9485   34.9639   48.7271 H   0  0  0  0  0  0  0  0  0  0  0  0
   62.1056   31.7783   50.0057 H   0  0  0  0  0  0  0  0  0  0  0  0
   61.7098   29.5330   52.0957 H   0  0  0  0  0  0  0  0  0  0  0  0
   62.2475   28.2073   51.0093 H   0  0  0  0  0  0  0  0  0  0  0  0
   63.1193   29.7779   51.0093 H   0  0  0  0  0  0  0  0  0  0  0  0
   60.0962   27.9591   49.9062 H   0  0  0  0  0  0  0  0  0  0  0  0
   58.5965   28.7856   48.1079 H   0  0  0  0  0  0  0  0  0  0  0  0
  1  2  1  0
  2  3  1  0
  3  4  1  0
  4  5  1  0
  5  6  1  0
  6  7  1  0
  7  8  2  0
  8  9  1  0
  9 10  2  0
 10 11  1  0
 11 12  2  0
 12 13  1  0
 13 14  2  0
 14 15  1  0
 14 16  1  0
 16 17  2  0
 17 18  1  0
 18 19  1  0
 18 20  2  0
 20 21  1  0
 21 22  2  0
 22  7  1  0
 13  8  1  0
 22 16  1  0
  1 23  1  0
  1 24  1  0
  1 25  1  0
  2 26  1  0
  2 27  1  0
  3 28  1  0
  4 29  1  0
  4 30  1  0
  5 31  1  0
  5 32  1  0
  6 33  1  0
  9 34  1  0
 10 35  1  0
 11 36  1  0
 12 37  1  0
 15 38  1  0
 15 39  1  0
 15 40  1  0
 17 41  1  0
 19 42  1  0
 19 43  1  0
 19 44  1  0
 20 45  1  0
 21 46  1  0
M  CHG  1  14   1
M  END
>  <UniqueID>  (2) 
2

>  <SMILES>  (2) 
CCNCCNc1c2ccccc2[n+](C)c2cc(C)ccc12

>  <Energy>  (2) 
66.91467857308163

>  <Genealogy>  (2) 
CCNCCNc1c2ccccc2[n+](C)c2cc(C)ccc12 (3D coordinates assigned)
CCNCCNc1c2ccccc2[n+](C)c2cc(C)ccc12 (optimized conformer: 66.91467857308163 kcal/mol)

>  <smiles>  (2) 
CCNCCNc1c2ccccc2[n+](C)c2cc(C)ccc12

>  <score_type>  (2) 
oracle

>  <origin>  (2) 
adg

>  <m_score__min__energy>  (2) 
-6.1699999999999999

>  <m_primary>  (2) 
energy

$$$$
2:0
     RDKit          3D

 58 61  0  0  0  0  0  0  0  0999 V2000
   56.6660   29.6330   44.4480 C   0  0  0  0  0  0  0  0  0  0  0  0
   57.2090   28.4710   45.2720 C   0  0  0  0  0  0  0  0  0  0  0  0
   58.5340   28.8380   45.8390 N   0  0  0  0  0  0  0  0  0  0  0  0
   59.3960   29.5040   44.8360 C   0  0  0  0  0  0  0  0  0  0  0  0
   60.8210   28.9520   44.8800 C   0  0  0  0  0  0  0  0  0  0  0  0
   59.2270   27.6670   46.4240 C   0  0  0  0  0  0  0  0  0  0  0  0
   59.0340   27.6200   47.9500 C   0  0  0  0  0  0  0  0  0  0  0  0
   58.5730   28.9070   48.5080 N   0  0  0  0  0  0  0  0  0  0  0  0
   59.6740   29.8110   48.8120 C   0  0  0  0  0  0  0  0  0  0  0  0
   60.6950   29.4830   49.7450 C   0  0  0  0  0  0  0  0  0  0  0  0
   60.7640   28.2200   50.3820 C   0  0  0  0  0  0  0  0  0  0  0  0
   61.7720   27.9320   51.2990 C   0  0  0  0  0  0  0  0  0  0  0  0
   62.7320   28.8860   51.6050 C   0  0  0  0  0  0  0  0  0  0  0  0
   62.6880   30.1390   51.0010 C   0  0  0  0  0  0  0  0  0  0  0  0
   61.6720   30.4680   50.0720 C   0  0  0  0  0  0  0  0  0  0  0  0
   61.6180   31.7210   49.4950 N   0  0  0  0  0  0  0  0  0  0  0  0
   62.2560   32.8550   50.1960 C   0  0  0  0  0  0  0  0  0  0  0  0
   60.8120   31.9410   48.3960 C   0  0  0  0  0  0  0  0  0  0  0  0
   60.9850   33.0450   47.5020 C   0  0  0  0  0  0  0  0  0  0  0  0
   62.3310   33.7250   47.3460 C   0  0  0  0  0  0  0  0  0  0  0  0
   59.9320   33.3880   46.6170 C   0  0  0  0  0  0  0  0  0  0  0  0
   59.9440   34.5650   45.8360 C   0  0  0  0  0  0  0  0  0  0  0  0
   58.8910   34.8460   44.9610 C   0  0  0  0  0  0  0  0  0  0  0  0
   57.8160   33.9630   44.8480 C   0  0  0  0  0  0  0  0  0  0  0  0
   57.7860   32.7980   45.6160 C   0  0  0  0  0  0  0  0  0  0  0  0
   58.8310   32.5140   46.5030 C   0  0  0  0  0  0  0  0  0  0  0  0
   58.8000   31.3690   47.2230 N   0  0  0  0  0  0  0  0  0  0  0  0
   59.7530   31.0440   48.1350 C   0  0  0  0  0  0  0  0  0  0  0  0
   56.2981   30.4203   45.1224 H   0  0  0  0  0  0  0  0  0  0  0  0
   57.4677   30.0388   43.8135 H   0  0  0  0  0  0  0  0  0  0  0  0
   55.8404   29.2783   43.8135 H   0  0  0  0  0  0  0  0  0  0  0  0
   56.5103   28.2449   46.0909 H   0  0  0  0  0  0  0  0  0  0  0  0
   57.3196   27.5864   44.6276 H   0  0  0  0  0  0  0  0  0  0  0  0
   58.9764   29.3353   43.8333 H   0  0  0  0  0  0  0  0  0  0  0  0
   59.4311   30.5793   45.0651 H   0  0  0  0  0  0  0  0  0  0  0  0
   61.1349   28.8304   45.9272 H   0  0  0  0  0  0  0  0  0  0  0  0
   60.8523   27.9767   44.3722 H   0  0  0  0  0  0  0  0  0  0  0  0
   61.5011   29.6517   44.3722 H   0  0  0  0  0  0  0  0  0  0  0  0
   58.8170   26.7475   45.9807 H   0  0  0  0  0  0  0  0  0  0  0  0
   60.3024   27.7514   46.2084 H   0  0  0  0  0  0  0  0  0  0  0  0
   58.2879   26.8470   48.1863 H   0  0  0  0  0  0  0  0  0  0  0  0
   60.0117   27.3946   48.4009 H   0  0  0  0  0  0  0  0  0  0  0  0
   57.9590   29.3640   47.7950 H   0  0  0  0  0  0  0  0  0  0  0  0
   57.9360   28.7500   49.3180 H   0  0  0  0  0  0  0  0  0  0  0  0
   60.0095   27.4543   50.1488 H   0  0  0  0  0  0  0  0  0  0  0  0
   61.8072   26.9446   51.7825 H   0  0  0  0  0  0  0  0  0  0  0  0
   63.5290   28.6516   52.3260 H   0  0  0  0  0  0  0  0  0  0  0  0
   63.4558   30.8864   51.2498 H   0  0  0  0  0  0  0  0  0  0  0  0
   62.1731   32.7076   51.2829 H   0  0  0  0  0  0  0  0  0  0  0  0
   63.3176   32.9103   49.9134 H   0  0  0  0  0  0  0  0  0  0  0  0
   61.7521   33.7911   49.9134 H   0  0  0  0  0  0  0  0  0  0  0  0
   62.7518   33.9376   48.3399 H   0  0  0  0  0  0  0  0  0  0  0  0
   63.0139   33.0637   46.7925 H   0  0  0  0  0  0  0  0  0  0  0  0
   62.2039   34.6671   46.7925 H   0  0  0  0  0  0  0  0  0  0  0  0
   60.7882   35.2655   45.9171 H   0  0  0  0  0  0  0  0  0  0  0  0
   58.9095   35.7665   44.3591 H   0  0  0  0  0  0  0  0  0  0  0  0
   56.9924   34.1853   44.1536 H   0  0  0  0  0  0  0  0  0  0  0  0
   56.9395   32.1016   45.5241 H   0  0  0  0  0  0  0  0  0  0  0  0
  1  2  1  0
  2  3  1  0
  3  4  1  0
  4  5  1  0
  3  6  1  0
  6  7  1  0
  7  8  1  0
  8  9  1  0
  9 10  2  0
 10 11  1  0
 11 12  2  0
 12 13  1  0
 13 14  2  0
 14 15  1  0
 15 16  2  0
 16 17  1  0
 16 18  1  0
 18 19  2  0
 19 20  1  0
 19 21  1  0
 21 22  2  0
 22 23  1  0
 23 24  2  0
 24 25  1  0
 25 26  2  0
 26 27  1  0
 27 28  2  0
 28  9  1  0
 15 10  1  0
 28 18  1  0
 26 21  1  0
  1 29  1  0
  1 30  1  0
  1 31  1  0
  2 32  1  0
  2 33  1  0
  4 34  1  0
  4 35  1  0
  5 36  1  0
  5 37  1  0
  5 38  1  0
  6 39  1  0
  6 40  1  0
  7 41  1  0
  7 42  1  0
  8 43  1  0
  8 44  1  0
 11 45  1  0
 12 46  1  0
 13 47  1  0
 14 48  1  0
 17 49  1  0
 17 50  1  0
 17 51  1  0
 20 52  1  0
 20 53  1  0
 20 54  1  0
 22 55  1  0
 23 56  1  0
 24 57  1  0
 25 58  1  0
M  CHG  2   8   1  16   1
M  END
>  <UniqueID>  (3) 
3

>  <SMILES>  (3) 
CCN(CC)CC[NH2+]c1c2ccccc2[n+](C)c2c(C)c3ccccc3nc12

>  <Energy>  (3) 
100.90654270934265

>  <Genealogy>  (3) 
CCN(CC)CC[NH2+]c1c2ccccc2[n+](C)c2c(C)c3ccccc3nc12 (protonated)
CCN(CC)CC[NH2+]c1c2ccccc2[n+](C)c2c(C)c3ccccc3nc12 (3D coordinates assigned)
CCN(CC)CC[NH2+]c1c2ccccc2[n+](C)c2c(C)c3ccccc3nc12 (optimized conformer: 100.90654270934265 kcal/mol)

>  <smiles>  (3) 
CCN(CC)CCNc1c2ccccc2[n+](C)c2c(C)c3ccccc3nc12

>  <score_type>  (3) 
oracle

>  <origin>  (3) 
adg

>  <m_score__min__energy>  (3) 
-4.6699999999999999

>  <m_primary>  (3) 
energy

$$$$
3:0
     RDKit          3D

 63 65  0  0  0  0  0  0  0  0999 V2000
   57.7830   26.2860   44.0580 C   0  0  0  0  0  0  0  0  0  0  0  0
   58.2750   27.7330   43.9510 C   0  0  0  0  0  0  0  0  0  0  0  0
   57.3460   28.5920   43.1930 N   0  0  0  0  0  0  0  0  0  0  0  0
   56.4470   29.3560   44.0760 C   0  0  0  0  0  0  0  0  0  0  0  0
   57.0560   30.7080   44.4780 C   0  0  0  0  0  0  0  0  0  0  0  0
   58.5110   30.6230   44.6020 N   0  0  0  0  0  0  0  0  0  0  0  0
   59.1630   31.1390   45.7730 C   0  0  0  0  0  0  0  0  0  0  0  0
   59.3390   32.5250   45.9340 C   0  0  0  0  0  0  0  0  0  0  0  0
   58.8590   33.4330   44.9650 C   0  0  0  0  0  0  0  0  0  0  0  0
   58.9780   34.8070   45.1590 C   0  0  0  0  0  0  0  0  0  0  0  0
   59.5650   35.2990   46.3180 C   0  0  0  0  0  0  0  0  0  0  0  0
   60.0710   34.4200   47.2770 C   0  0  0  0  0  0  0  0  0  0  0  0
   60.0080   33.0140   47.0890 C   0  0  0  0  0  0  0  0  0  0  0  0
   60.5600   32.1300   47.9990 N   0  0  0  0  0  0  0  0  0  0  0  0
   61.4960   32.6220   49.0350 C   0  0  0  0  0  0  0  0  0  0  0  0
   60.2540   30.7820   47.9260 C   0  0  0  0  0  0  0  0  0  0  0  0
   60.5860   29.8840   48.9740 C   0  0  0  0  0  0  0  0  0  0  0  0
   60.2910   28.5190   48.8930 C   0  0  0  0  0  0  0  0  0  0  0  0
   60.6810   27.6930   49.9580 O   0  0  0  0  0  0  0  0  0  0  0  0
   60.8890   28.1180   51.3060 C   0  0  0  0  0  0  0  0  0  0  0  0
   62.1960   27.5090   51.8570 C   0  0  0  0  0  0  0  0  0  0  0  0
   62.1040   26.0790   52.2910 N   0  0  0  0  0  0  0  0  0  0  0  0
   63.1500   25.2430   51.6550 C   0  0  0  0  0  0  0  0  0  0  0  0
   62.3030   26.0320   53.7620 C   0  0  0  0  0  0  0  0  0  0  0  0
   60.7650   25.5130   51.9910 C   0  0  0  0  0  0  0  0  0  0  0  0
   59.6500   28.0240   47.7490 C   0  0  0  0  0  0  0  0  0  0  0  0
   59.2880   28.8870   46.7190 C   0  0  0  0  0  0  0  0  0  0  0  0
   59.5710   30.2660   46.7960 C   0  0  0  0  0  0  0  0  0  0  0  0
   57.6886   26.0083   45.1182 H   0  0  0  0  0  0  0  0  0  0  0  0
   56.8033   26.1945   43.5663 H   0  0  0  0  0  0  0  0  0  0  0  0
   58.5039   25.6163   43.5663 H   0  0  0  0  0  0  0  0  0  0  0  0
   58.3865   28.1434   44.9655 H   0  0  0  0  0  0  0  0  0  0  0  0
   59.2336   27.7206   43.4115 H   0  0  0  0  0  0  0  0  0  0  0  0
   57.8860   29.2430   42.5750 H   0  0  0  0  0  0  0  0  0  0  0  0
   56.7710   27.9690   42.5800 H   0  0  0  0  0  0  0  0  0  0  0  0
   55.4982   29.5354   43.5491 H   0  0  0  0  0  0  0  0  0  0  0  0
   56.2857   28.7678   44.9914 H   0  0  0  0  0  0  0  0  0  0  0  0
   56.8054   31.4555   43.7109 H   0  0  0  0  0  0  0  0  0  0  0  0
   56.6419   30.9970   45.4552 H   0  0  0  0  0  0  0  0  0  0  0  0
   59.0210   29.8990   44.0490 H   0  0  0  0  0  0  0  0  0  0  0  0
   58.3864   33.0514   44.0479 H   0  0  0  0  0  0  0  0  0  0  0  0
   58.6066   35.5038   44.3932 H   0  0  0  0  0  0  0  0  0  0  0  0
   59.6313   36.3849   46.4805 H   0  0  0  0  0  0  0  0  0  0  0  0
   60.5261   34.8232   48.1937 H   0  0  0  0  0  0  0  0  0  0  0  0
   61.0854   32.4062   50.0324 H   0  0  0  0  0  0  0  0  0  0  0  0
   62.4669   32.1177   48.9212 H   0  0  0  0  0  0  0  0  0  0  0  0
   61.6312   33.7077   48.9212 H   0  0  0  0  0  0  0  0  0  0  0  0
   61.0881   30.2714   49.8728 H   0  0  0  0  0  0  0  0  0  0  0  0
   60.9581   29.2154   51.3352 H   0  0  0  0  0  0  0  0  0  0  0  0
   60.0447   27.7802   51.9250 H   0  0  0  0  0  0  0  0  0  0  0  0
   62.9605   27.5762   51.0690 H   0  0  0  0  0  0  0  0  0  0  0  0
   62.4419   28.0854   52.7611 H   0  0  0  0  0  0  0  0  0  0  0  0
   63.7563   24.7584   52.4345 H   0  0  0  0  0  0  0  0  0  0  0  0
   62.6742   24.4735   51.0293 H   0  0  0  0  0  0  0  0  0  0  0  0
   63.7957   25.8767   51.0293 H   0  0  0  0  0  0  0  0  0  0  0  0
   61.3524   26.2565   54.2680 H   0  0  0  0  0  0  0  0  0  0  0  0
   62.6455   25.0282   54.0538 H   0  0  0  0  0  0  0  0  0  0  0  0
   63.0584   26.7764   54.0538 H   0  0  0  0  0  0  0  0  0  0  0  0
   60.2412   25.2916   52.9326 H   0  0  0  0  0  0  0  0  0  0  0  0
   60.1811   26.2413   51.4090 H   0  0  0  0  0  0  0  0  0  0  0  0
   60.8805   24.5867   51.4090 H   0  0  0  0  0  0  0  0  0  0  0  0
   59.4322   26.9491   47.6650 H   0  0  0  0  0  0  0  0  0  0  0  0
   58.7739   28.4876   45.8324 H   0  0  0  0  0  0  0  0  0  0  0  0
  1  2  1  0
  2  3  1  0
  3  4  1  0
  4  5  1  0
  5  6  1  0
  6  7  1  0
  7  8  2  0
  8  9  1  0
  9 10  2  0
 10 11  1  0
 11 12  2  0
 12 13  1  0
 13 14  2  0
 14 15  1  0
 14 16  1  0
 16 17  2  0
 17 18  1  0
 18 19  1  0
 19 20  1  0
 20 21  1  0
 21 22  1  0
 22 23  1  0
 22 24  1  0
 22 25  1  0
 18 26  2  0
 26 27  1  0
 27 28  2  0
 28  7  1  0
 13  8  1  0
 28 16  1  0
  1 29  1  0
  1 30  1  0
  1 31  1  0
  2 32  1  0
  2 33  1  0
  3 34  1  0
  3 35  1  0
  4 36  1  0
  4 37  1  0
  5 38  1  0
  5 39  1  0
  6 40  1  0
  9 41  1  0
 10 42  1  0
 11 43  1  0
 12 44  1  0
 15 45  1  0
 15 46  1  0
 15 47  1  0
 17 48  1  0
 20 49  1  0
 20 50  1  0
 21 51  1  0
 21 52  1  0
 23 53  1  0
 23 54  1  0
 23 55  1  0
 24 56  1  0
 24 57  1  0
 24 58  1  0
 25 59  1  0
 25 60  1  0
 25 61  1  0
 26 62  1  0
 27 63  1  0
M  CHG  3   3   1  14   1  22   1
M  END
>  <UniqueID>  (4) 
4

>  <SMILES>  (4) 
CC[NH2+]CCNc1c2ccccc2[n+](C)c2cc(OCC[N+](C)(C)C)ccc12

>  <Energy>  (4) 
96.4835244453694

>  <Genealogy>  (4) 
CC[NH2+]CCNc1c2ccccc2[n+](C)c2cc(OCC[N+](C)(C)C)ccc12 (protonated)
CC[NH2+]CCNc1c2ccccc2[n+](C)c2cc(OCC[N+](C)(C)C)ccc12 (3D coordinates assigned)
CC[NH2+]CCNc1c2ccccc2[n+](C)c2cc(OCC[N+](C)(C)C)ccc12 (optimized conformer: 96.4835244453694 kcal/mol)

>  <smiles>  (4) 
CCNCCNc1c2ccccc2[n+](C)c2cc(OCC[N+](C)(C)C)ccc12

>  <score_type>  (4) 
oracle

>  <origin>  (4) 
adg

>  <m_score__min__energy>  (4) 
-2.9700000000000002

>  <m_primary>  (4) 
energy

$$$$
4:0
     RDKit          3D

 49 51  0  0  0  0  0  0  0  0999 V2000
   59.6290   30.5630   45.9900 C   0  0  0  0  0  0  0  0  0  0  0  0
   58.1360   30.2650   46.0810 C   0  0  0  0  0  0  0  0  0  0  0  0
   57.3690   31.2260   45.2540 N   0  0  0  0  0  0  0  0  0  0  0  0
   57.4590   30.8850   43.8150 C   0  0  0  0  0  0  0  0  0  0  0  0
   56.2730   30.0270   43.3710 C   0  0  0  0  0  0  0  0  0  0  0  0
   57.8360   32.6150   45.4900 C   0  0  0  0  0  0  0  0  0  0  0  0
   57.4310   33.1050   46.8840 C   0  0  0  0  0  0  0  0  0  0  0  0
   58.4030   34.0140   47.4040 O   0  0  0  0  0  0  0  0  0  0  0  0
   59.7890   33.7900   47.4770 C   0  0  0  0  0  0  0  0  0  0  0  0
   60.6370   34.0610   46.3910 C   0  0  0  0  0  0  0  0  0  0  0  0
   62.0120   33.8740   46.4970 C   0  0  0  0  0  0  0  0  0  0  0  0
   62.5700   33.3790   47.6800 C   0  0  0  0  0  0  0  0  0  0  0  0
   63.9580   33.1850   47.7720 C   0  0  0  0  0  0  0  0  0  0  0  0
   64.5190   32.6650   48.9390 C   0  0  0  0  0  0  0  0  0  0  0  0
   63.7030   32.3280   50.0180 C   0  0  0  0  0  0  0  0  0  0  0  0
   62.3210   32.5180   49.9430 C   0  0  0  0  0  0  0  0  0  0  0  0
   61.7310   33.0610   48.7800 C   0  0  0  0  0  0  0  0  0  0  0  0
   60.3320   33.2750   48.6740 C   0  0  0  0  0  0  0  0  0  0  0  0
   59.4170   33.0090   49.8090 C   0  0  0  0  0  0  0  0  0  0  0  0
   59.4210   33.8510   50.9330 C   0  0  0  0  0  0  0  0  0  0  0  0
   58.5740   33.5870   52.0130 C   0  0  0  0  0  0  0  0  0  0  0  0
   57.7210   32.4800   51.9810 C   0  0  0  0  0  0  0  0  0  0  0  0
   57.7150   31.6340   50.8680 C   0  0  0  0  0  0  0  0  0  0  0  0
   58.5610   31.8950   49.7850 C   0  0  0  0  0  0  0  0  0  0  0  0
   60.0486   30.6468   47.0034 H   0  0  0  0  0  0  0  0  0  0  0  0
   60.1334   29.7478   45.4505 H   0  0  0  0  0  0  0  0  0  0  0  0
   59.7818   31.5094   45.4505 H   0  0  0  0  0  0  0  0  0  0  0  0
   57.9471   29.2434   45.7195 H   0  0  0  0  0  0  0  0  0  0  0  0
   57.8154   30.3589   47.1290 H   0  0  0  0  0  0  0  0  0  0  0  0
   57.4689   31.8144   43.2266 H   0  0  0  0  0  0  0  0  0  0  0  0
   58.3829   30.3107   43.6518 H   0  0  0  0  0  0  0  0  0  0  0  0
   55.7448   29.6449   44.2570 H   0  0  0  0  0  0  0  0  0  0  0  0
   55.5842   30.6372   42.7683 H   0  0  0  0  0  0  0  0  0  0  0  0
   56.6371   29.1819   42.7683 H   0  0  0  0  0  0  0  0  0  0  0  0
   58.9322   32.6448   45.4034 H   0  0  0  0  0  0  0  0  0  0  0  0
   57.3703   33.2717   44.7404 H   0  0  0  0  0  0  0  0  0  0  0  0
   56.4586   33.6151   46.8186 H   0  0  0  0  0  0  0  0  0  0  0  0
   57.3635   32.2376   47.5571 H   0  0  0  0  0  0  0  0  0  0  0  0
   60.2094   34.4254   45.4453 H   0  0  0  0  0  0  0  0  0  0  0  0
   62.6640   34.1170   45.6450 H   0  0  0  0  0  0  0  0  0  0  0  0
   64.6051   33.4439   46.9210 H   0  0  0  0  0  0  0  0  0  0  0  0
   65.6073   32.5207   49.0078 H   0  0  0  0  0  0  0  0  0  0  0  0
   64.1494   31.9106   50.9326 H   0  0  0  0  0  0  0  0  0  0  0  0
   61.6861   32.2421   50.7979 H   0  0  0  0  0  0  0  0  0  0  0  0
   60.0931   34.7213   50.9635 H   0  0  0  0  0  0  0  0  0  0  0  0
   58.5786   34.2514   52.8896 H   0  0  0  0  0  0  0  0  0  0  0  0
   57.0545   32.2745   52.8316 H   0  0  0  0  0  0  0  0  0  0  0  0
   57.0444   30.7624   50.8439 H   0  0  0  0  0  0  0  0  0  0  0  0
   58.5561   31.2260   48.9118 H   0  0  0  0  0  0  0  0  0  0  0  0
  1  2  1  0
  2  3  1  0
  3  4  1  0
  4  5  1  0
  3  6  1  0
  6  7  1  0
  7  8  1  0
  8  9  1  0
  9 10  2  0
 10 11  1  0
 11 12  2  0
 12 13  1  0
 13 14  2  0
 14 15  1  0
 15 16  2  0
 16 17  1  0
 17 18  2  0
 18 19  1  0
 19 20  2  0
 20 21  1  0
 21 22  2  0
 22 23  1  0
 23 24  2  0
 18  9  1  0
 24 19  1  0
 17 12  1  0
  1 25  1  0
  1 26  1  0
  1 27  1  0
  2 28  1  0
  2 29  1  0
  4 30  1  0
  4 31  1  0
  5 32  1  0
  5 33  1  0
  5 34  1  0
  6 35  1  0
  6 36  1  0
  7 37  1  0
  7 38  1  0
 10 39  1  0
 11 40  1  0
 13 41  1  0
 14 42  1  0
 15 43  1  0
 16 44  1  0
 20 45  1  0
 21 46  1  0
 22 47  1  0
 23 48  1  0
 24 49  1  0
M  END
>  <UniqueID>  (5) 
5

>  <SMILES>  (5) 
CCN(CC)CCOc1ccc2ccccc2c1-c1ccccc1

>  <Energy>  (5) 
59.44915215038794

>  <Genealogy>  (5) 
CCN(CC)CCOc1ccc2ccccc2c1-c1ccccc1 (3D coordinates assigned)
CCN(CC)CCOc1ccc2ccccc2c1-c1ccccc1 (optimized conformer: 59.44915215038794 kcal/mol)

>  <smiles>  (5) 
CCN(CC)CCOc1ccc2ccccc2c1-c1ccccc1

>  <score_type>  (5) 
oracle

>  <origin>  (5) 
adg

>  <m_score__min__energy>  (5) 
-7.4299999999999997

>  <m_primary>  (5) 
energy

$$$$
5:0
     RDKit          3D

 53 55  0  0  0  0  0  0  0  0999 V2000
   56.0810   29.7750   43.2660 C   0  0  0  0  0  0  0  0  0  0  0  0
   56.3000   29.5350   44.7590 C   0  0  0  0  0  0  0  0  0  0  0  0
   57.4460   30.3280   45.2550 N   0  0  0  0  0  0  0  0  0  0  0  0
   58.3480   29.5480   46.1350 C   0  0  0  0  0  0  0  0  0  0  0  0
   59.8180   29.5430   45.6870 C   0  0  0  0  0  0  0  0  0  0  0  0
   58.1700   31.0490   44.1810 C   0  0  0  0  0  0  0  0  0  0  0  0
   57.6940   32.4960   44.1020 C   0  0  0  0  0  0  0  0  0  0  0  0
   57.0260   32.8430   45.3020 O   0  0  0  0  0  0  0  0  0  0  0  0
   57.5040   34.0740   45.8180 C   0  0  0  0  0  0  0  0  0  0  0  0
   58.3710   33.8930   47.0720 C   0  0  0  0  0  0  0  0  0  0  0  0
   58.8000   32.5020   47.2160 N   0  0  0  0  0  0  0  0  0  0  0  0
   59.9300   32.1410   48.0290 C   0  0  0  0  0  0  0  0  0  0  0  0
   61.2440   32.5660   47.7150 C   0  0  0  0  0  0  0  0  0  0  0  0
   61.4820   33.4480   46.6430 C   0  0  0  0  0  0  0  0  0  0  0  0
   62.7780   33.8560   46.3300 C   0  0  0  0  0  0  0  0  0  0  0  0
   63.8550   33.4080   47.0880 C   0  0  0  0  0  0  0  0  0  0  0  0
   63.6470   32.5610   48.1750 C   0  0  0  0  0  0  0  0  0  0  0  0
   62.3430   32.1300   48.5260 C   0  0  0  0  0  0  0  0  0  0  0  0
   62.1210   31.3240   49.6290 N   0  0  0  0  0  0  0  0  0  0  0  0
   63.2390   30.8530   50.4670 C   0  0  0  0  0  0  0  0  0  0  0  0
   60.8320   30.9830   49.9410 C   0  0  0  0  0  0  0  0  0  0  0  0
   60.2830   30.0490   51.2340 S   0  0  0  0  0  0  0  0  0  0  0  0
   58.6510   30.1280   50.8240 C   0  0  0  0  0  0  0  0  0  0  0  0
   58.5190   30.8800   49.6630 C   0  0  0  0  0  0  0  0  0  0  0  0
   59.7440   31.3650   49.1750 C   0  0  0  0  0  0  0  0  0  0  0  0
   55.3454   30.5812   43.1282 H   0  0  0  0  0  0  0  0  0  0  0  0
   57.0334   30.0637   42.7975 H   0  0  0  0  0  0  0  0  0  0  0  0
   55.7065   28.8529   42.7975 H   0  0  0  0  0  0  0  0  0  0  0  0
   55.3934   29.8285   45.3084 H   0  0  0  0  0  0  0  0  0  0  0  0
   56.5144   28.4678   44.9173 H   0  0  0  0  0  0  0  0  0  0  0  0
   58.2975   29.9763   47.1469 H   0  0  0  0  0  0  0  0  0  0  0  0
   58.0026   28.5044   46.0954 H   0  0  0  0  0  0  0  0  0  0  0  0
   60.4711   29.5408   46.5722 H   0  0  0  0  0  0  0  0  0  0  0  0
   60.0145   28.6442   45.0841 H   0  0  0  0  0  0  0  0  0  0  0  0
   60.0206   30.4405   45.0841 H   0  0  0  0  0  0  0  0  0  0  0  0
   59.2486   31.0329   44.3962 H   0  0  0  0  0  0  0  0  0  0  0  0
   57.9706   30.5533   43.2195 H   0  0  0  0  0  0  0  0  0  0  0  0
   58.5602   33.1590   43.9604 H   0  0  0  0  0  0  0  0  0  0  0  0
   57.0024   32.6071   43.2538 H   0  0  0  0  0  0  0  0  0  0  0  0
   58.1057   34.5709   45.0427 H   0  0  0  0  0  0  0  0  0  0  0  0
   56.6294   34.6775   46.1025 H   0  0  0  0  0  0  0  0  0  0  0  0
   59.2592   34.5369   46.9913 H   0  0  0  0  0  0  0  0  0  0  0  0
   57.7740   34.1689   47.9538 H   0  0  0  0  0  0  0  0  0  0  0  0
   58.4920   31.8310   46.4780 H   0  0  0  0  0  0  0  0  0  0  0  0
   60.6359   33.8191   46.0460 H   0  0  0  0  0  0  0  0  0  0  0  0
   62.9494   34.5342   45.4811 H   0  0  0  0  0  0  0  0  0  0  0  0
   64.8761   33.7239   46.8281 H   0  0  0  0  0  0  0  0  0  0  0  0
   64.5079   32.2217   48.7697 H   0  0  0  0  0  0  0  0  0  0  0  0
   62.9738   30.9647   51.5287 H   0  0  0  0  0  0  0  0  0  0  0  0
   63.4399   29.7938   50.2487 H   0  0  0  0  0  0  0  0  0  0  0  0
   64.1373   31.4491   50.2487 H   0  0  0  0  0  0  0  0  0  0  0  0
   57.8263   29.6615   51.3828 H   0  0  0  0  0  0  0  0  0  0  0  0
   57.5528   31.0759   49.1751 H   0  0  0  0  0  0  0  0  0  0  0  0
  1  2  1  0
  2  3  1  0
  3  4  1  0
  4  5  1  0
  3  6  1  0
  6  7  1  0
  7  8  1  0
  8  9  1  0
  9 10  1  0
 10 11  1  0
 11 12  1  0
 12 13  2  0
 13 14  1  0
 14 15  2  0
 15 16  1  0
 16 17  2  0
 17 18  1  0
 18 19  2  0
 19 20  1  0
 19 21  1  0
 21 22  1  0
 22 23  1  0
 23 24  2  0
 24 25  1  0
 25 12  1  0
 18 13  1  0
 25 21  2  0
  1 26  1  0
  1 27  1  0
  1 28  1  0
  2 29  1  0
  2 30  1  0
  4 31  1  0
  4 32  1  0
  5 33  1  0
  5 34  1  0
  5 35  1  0
  6 36  1  0
  6 37  1  0
  7 38  1  0
  7 39  1  0
  9 40  1  0
  9 41  1  0
 10 42  1  0
 10 43  1  0
 11 44  1  0
 14 45  1  0
 15 46  1  0
 16 47  1  0
 17 48  1  0
 20 49  1  0
 20 50  1  0
 20 51  1  0
 23 52  1  0
 24 53  1  0
M  CHG  1  19   1
M  END
>  <UniqueID>  (6) 
6

>  <SMILES>  (6) 
CCN(CC)CCOCCNc1c2ccccc2[n+](C)c2sccc12

>  <Energy>  (6) 
94.58105365802358

>  <Genealogy>  (6) 
CCN(CC)CCOCCNc1c2ccccc2[n+](C)c2sccc12 (3D coordinates assigned)
CCN(CC)CCOCCNc1c2ccccc2[n+](C)c2sccc12 (optimized conformer: 94.58105365802358 kcal/mol)

>  <smiles>  (6) 
CCN(CC)CCOCCNc1c2ccccc2[n+](C)c2sccc12

>  <score_type>  (6) 
oracle

>  <origin>  (6) 
adg

>  <m_score__min__energy>  (6) 
-5.4900000000000002

>  <m_primary>  (6) 
energy

$$$$
6:0
     RDKit          3D

 64 67  0  0  0  0  0  0  0  0999 V2000
   58.5780   33.4740   53.1970 C   0  0  0  0  0  0  0  0  0  0  0  0
   58.9750   32.8560   51.9230 N   0  0  0  0  0  0  0  0  0  0  0  0
   59.6090   33.8370   51.0290 C   0  0  0  0  0  0  0  0  0  0  0  0
   57.8730   32.1090   51.2730 C   0  0  0  0  0  0  0  0  0  0  0  0
   58.2680   30.7090   50.7550 C   0  0  0  0  0  0  0  0  0  0  0  0
   59.6260   30.3570   51.2010 N   0  0  0  0  0  0  0  0  0  0  0  0
   60.6110   30.7180   50.1950 C   0  0  0  0  0  0  0  0  0  0  0  0
   60.4480   30.3130   48.8480 C   0  0  0  0  0  0  0  0  0  0  0  0
   61.3280   30.8000   47.8570 C   0  0  0  0  0  0  0  0  0  0  0  0
   62.3320   31.6900   48.1810 N   0  0  0  0  0  0  0  0  0  0  0  0
   63.0800   32.3870   47.1060 C   0  0  0  0  0  0  0  0  0  0  0  0
   62.4510   33.7570   46.7960 C   0  0  0  0  0  0  0  0  0  0  0  0
   61.3040   34.1020   47.7560 C   0  0  0  0  0  0  0  0  0  0  0  0
   59.9580   33.9830   47.0850 C   0  0  0  0  0  0  0  0  0  0  0  0
   58.8870   33.3710   47.7570 C   0  0  0  0  0  0  0  0  0  0  0  0
   57.6500   33.2200   47.1210 C   0  0  0  0  0  0  0  0  0  0  0  0
   57.4750   33.6780   45.8120 C   0  0  0  0  0  0  0  0  0  0  0  0
   58.5370   34.2860   45.1360 C   0  0  0  0  0  0  0  0  0  0  0  0
   59.7750   34.4380   45.7680 C   0  0  0  0  0  0  0  0  0  0  0  0
   62.6300   31.9390   49.5100 C   0  0  0  0  0  0  0  0  0  0  0  0
   63.7960   32.6570   49.8910 C   0  0  0  0  0  0  0  0  0  0  0  0
   64.0900   32.9080   51.2280 C   0  0  0  0  0  0  0  0  0  0  0  0
   63.2480   32.4410   52.2250 C   0  0  0  0  0  0  0  0  0  0  0  0
   62.1080   31.7170   51.8940 C   0  0  0  0  0  0  0  0  0  0  0  0
   61.7700   31.4580   50.5410 C   0  0  0  0  0  0  0  0  0  0  0  0
   61.1330   30.2340   46.4520 C   0  0  0  0  0  0  0  0  0  0  0  0
   59.6560   30.3070   46.0390 C   0  0  0  0  0  0  0  0  0  0  0  0
   58.6860   29.7950   47.1290 C   0  0  0  0  0  0  0  0  0  0  0  0
   59.3960   29.3070   48.4010 C   0  0  0  0  0  0  0  0  0  0  0  0
   58.9646   32.8722   54.0327 H   0  0  0  0  0  0  0  0  0  0  0  0
   58.9919   34.4915   53.2556 H   0  0  0  0  0  0  0  0  0  0  0  0
   57.4806   33.5206   53.2556 H   0  0  0  0  0  0  0  0  0  0  0  0
   60.1092   34.6109   51.6297 H   0  0  0  0  0  0  0  0  0  0  0  0
   60.3503   33.3293   50.3944 H   0  0  0  0  0  0  0  0  0  0  0  0
   58.8417   34.3044   50.3944 H   0  0  0  0  0  0  0  0  0  0  0  0
   57.0610   31.9882   52.0051 H   0  0  0  0  0  0  0  0  0  0  0  0
   57.5735   32.6959   50.3922 H   0  0  0  0  0  0  0  0  0  0  0  0
   57.5559   29.9657   51.1427 H   0  0  0  0  0  0  0  0  0  0  0  0
   58.2466   30.7181   49.6552 H   0  0  0  0  0  0  0  0  0  0  0  0
   59.8450   30.8150   52.1120 H   0  0  0  0  0  0  0  0  0  0  0  0
   59.6830   29.3400   51.4300 H   0  0  0  0  0  0  0  0  0  0  0  0
   64.1211   32.5340   47.4292 H   0  0  0  0  0  0  0  0  0  0  0  0
   63.0426   31.7700   46.1961 H   0  0  0  0  0  0  0  0  0  0  0  0
   63.2284   34.5306   46.8812 H   0  0  0  0  0  0  0  0  0  0  0  0
   62.0365   33.7144   45.7780 H   0  0  0  0  0  0  0  0  0  0  0  0
   61.3371   33.4129   48.6128 H   0  0  0  0  0  0  0  0  0  0  0  0
   61.4327   35.1445   48.0825 H   0  0  0  0  0  0  0  0  0  0  0  0
   59.0214   33.0091   48.7870 H   0  0  0  0  0  0  0  0  0  0  0  0
   56.8143   32.7404   47.6516 H   0  0  0  0  0  0  0  0  0  0  0  0
   56.5015   33.5600   45.3137 H   0  0  0  0  0  0  0  0  0  0  0  0
   58.3985   34.6453   44.1056 H   0  0  0  0  0  0  0  0  0  0  0  0
   60.6087   34.9155   45.2324 H   0  0  0  0  0  0  0  0  0  0  0  0
   64.4812   33.0224   49.1119 H   0  0  0  0  0  0  0  0  0  0  0  0
   64.9923   33.4781   51.4940 H   0  0  0  0  0  0  0  0  0  0  0  0
   63.4822   32.6436   53.2805 H   0  0  0  0  0  0  0  0  0  0  0  0
   61.4567   31.3384   52.6956 H   0  0  0  0  0  0  0  0  0  0  0  0
   61.7363   30.8171   45.7406 H   0  0  0  0  0  0  0  0  0  0  0  0
   61.4505   29.1808   46.4472 H   0  0  0  0  0  0  0  0  0  0  0  0
   59.4079   31.3553   45.8163 H   0  0  0  0  0  0  0  0  0  0  0  0
   59.5320   29.6543   45.1623 H   0  0  0  0  0  0  0  0  0  0  0  0
   58.0058   30.6150   47.4028 H   0  0  0  0  0  0  0  0  0  0  0  0
   58.1505   28.9322   46.7061 H   0  0  0  0  0  0  0  0  0  0  0  0
   58.6539   29.1798   49.2029 H   0  0  0  0  0  0  0  0  0  0  0  0
   59.8913   28.3489   48.1849 H   0  0  0  0  0  0  0  0  0  0  0  0
  1  2  1  0
  2  3  1  0
  2  4  1  0
  4  5  1  0
  5  6  1  0
  6  7  1  0
  7  8  2  0
  8  9  1  0
  9 10  2  0
 10 11  1  0
 11 12  1  0
 12 13  1  0
 13 14  1  0
 14 15  2  0
 15 16  1  0
 16 17  2  0
 17 18  1  0
 18 19  2  0
 10 20  1  0
 20 21  2  0
 21 22  1  0
 22 23  2  0
 23 24  1  0
 24 25  2  0
  9 26  1  0
 26 27  1  0
 27 28  1  0
 28 29  1  0
 25  7  1  0
 29  8  1  0
 19 14  1  0
 25 20  1  0
  1 30  1  0
  1 31  1  0
  1 32  1  0
  3 33  1  0
  3 34  1  0
  3 35  1  0
  4 36  1  0
  4 37  1  0
  5 38  1  0
  5 39  1  0
  6 40  1  0
  6 41  1  0
 11 42  1  0
 11 43  1  0
 12 44  1  0
 12 45  1  0
 13 46  1  0
 13 47  1  0
 15 48  1  0
 16 49  1  0
 17 50  1  0
 18 51  1  0
 19 52  1  0
 21 53  1  0
 22 54  1  0
 23 55  1  0
 24 56  1  0
 26 57  1  0
 26 58  1  0
 27 59  1  0
 27 60  1  0
 28 61  1  0
 28 62  1  0
 29 63  1  0
 29 64  1  0
M  CHG  2   6   1  10   1
M  END
>  <UniqueID>  (7) 
7

>  <SMILES>  (7) 
CN(C)CC[NH2+]c1c2c([n+](CCCc3ccccc3)c3ccccc13)CCCC2

>  <Energy>  (7) 
91.50675943331032

>  <Genealogy>  (7) 
CN(C)CC[NH2+]c1c2c([n+](CCCc3ccccc3)c3ccccc13)CCCC2 (protonated)
CN(C)CC[NH2+]c1c2c([n+](CCCc3ccccc3)c3ccccc13)CCCC2 (3D coordinates assigned)
CN(C)CC[NH2+]c1c2c([n+](CCCc3ccccc3)c3ccccc13)CCCC2 (nonaromatic ring conformer: 91.50675943331032 kcal/mol)

>  <smiles>  (7) 
CN(C)CCNc1c2c([n+](CCCc3ccccc3)c3ccccc13)CCCC2

>  <score_type>  (7) 
oracle

>  <origin>  (7) 
adg

>  <m_score__min__energy>  (7) 
-5.71

>  <m_primary>  (7) 
energy

$$$$
7:0
     RDKit          3D

 58 60  0  0  0  0  0  0  0  0999 V2000
   57.9070   32.4850   43.8150 C   0  0  0  0  0  0  0  0  0  0  0  0
   58.1770   31.0510   44.2600 C   0  0  0  0  0  0  0  0  0  0  0  0
   57.0050   30.4910   44.9690 N   0  0  0  0  0  0  0  0  0  0  0  0
   55.8590   30.1960   44.0750 C   0  0  0  0  0  0  0  0  0  0  0  0
   56.3780   29.7170   42.7260 C   0  0  0  0  0  0  0  0  0  0  0  0
   57.3560   29.3560   45.8530 C   0  0  0  0  0  0  0  0  0  0  0  0
   58.8650   29.0210   45.8620 C   0  0  0  0  0  0  0  0  0  0  0  0
   59.3640   28.7180   47.2740 C   0  0  0  0  0  0  0  0  0  0  0  0
   60.0710   29.8380   47.7770 O   0  0  0  0  0  0  0  0  0  0  0  0
   59.2190   30.9110   48.1650 C   0  0  1  0  0  0  0  0  0  0  0  0
   58.8570   30.8640   49.6500 C   0  0  0  0  0  0  0  0  0  0  0  0
   58.1580   31.9350   50.2360 C   0  0  0  0  0  0  0  0  0  0  0  0
   57.7740   31.8790   51.5750 C   0  0  0  0  0  0  0  0  0  0  0  0
   58.0610   30.7370   52.3210 C   0  0  0  0  0  0  0  0  0  0  0  0
   58.6970   29.6850   51.7400 N   0  0  0  0  0  0  0  0  0  0  0  0
   59.0820   29.7160   50.4360 C   0  0  0  0  0  0  0  0  0  0  0  0
   59.6860   32.2920   47.6640 C   0  0  0  0  0  0  0  0  0  0  0  0
   58.6990   33.1680   47.1600 C   0  0  0  0  0  0  0  0  0  0  0  0
   59.0390   34.2970   46.4280 C   0  0  0  0  0  0  0  0  0  0  0  0
   60.3690   34.5710   46.1510 C   0  0  0  0  0  0  0  0  0  0  0  0
   61.3840   33.7690   46.6850 C   0  0  0  0  0  0  0  0  0  0  0  0
   62.7160   34.0670   46.3670 C   0  0  0  0  0  0  0  0  0  0  0  0
   63.7520   33.3190   46.9070 C   0  0  0  0  0  0  0  0  0  0  0  0
   63.4800   32.3240   47.8370 C   0  0  0  0  0  0  0  0  0  0  0  0
   62.1590   32.0270   48.2190 C   0  0  0  0  0  0  0  0  0  0  0  0
   62.0030   31.1700   49.4500 C   0  0  0  0  0  0  0  0  0  0  0  0
   61.0690   32.6680   47.5420 C   0  0  0  0  0  0  0  0  0  0  0  0
   57.7861   33.1270   44.7000 H   0  0  0  0  0  0  0  0  0  0  0  0
   58.7527   32.8472   43.2120 H   0  0  0  0  0  0  0  0  0  0  0  0
   56.9875   32.5148   43.2120 H   0  0  0  0  0  0  0  0  0  0  0  0
   58.3923   30.4335   43.3755 H   0  0  0  0  0  0  0  0  0  0  0  0
   59.0370   31.0508   44.9458 H   0  0  0  0  0  0  0  0  0  0  0  0
   55.2338   29.4118   44.5268 H   0  0  0  0  0  0  0  0  0  0  0  0
   55.2593   31.1074   43.9346 H   0  0  0  0  0  0  0  0  0  0  0  0
   57.1781   28.9785   42.8822 H   0  0  0  0  0  0  0  0  0  0  0  0
   55.5562   29.2532   42.1606 H   0  0  0  0  0  0  0  0  0  0  0  0
   56.7745   30.5732   42.1606 H   0  0  0  0  0  0  0  0  0  0  0  0
   57.0496   29.6070   46.8792 H   0  0  0  0  0  0  0  0  0  0  0  0
   56.8318   28.4706   45.4640 H   0  0  0  0  0  0  0  0  0  0  0  0
   59.0395   28.1413   45.2250 H   0  0  0  0  0  0  0  0  0  0  0  0
   59.4144   29.8951   45.4825 H   0  0  0  0  0  0  0  0  0  0  0  0
   58.5058   28.5027   47.9276 H   0  0  0  0  0  0  0  0  0  0  0  0
   60.0328   27.8451   47.2464 H   0  0  0  0  0  0  0  0  0  0  0  0
   58.2703   30.7516   47.6316 H   0  0  0  0  0  0  0  0  0  0  0  0
   57.9129   32.8223   49.6338 H   0  0  0  0  0  0  0  0  0  0  0  0
   57.2496   32.7277   52.0383 H   0  0  0  0  0  0  0  0  0  0  0  0
   57.7725   30.6868   53.3813 H   0  0  0  0  0  0  0  0  0  0  0  0
   58.8850   28.8280   52.3080 H   0  0  0  0  0  0  0  0  0  0  0  0
   59.5730   28.8379   49.9911 H   0  0  0  0  0  0  0  0  0  0  0  0
   57.6379   32.9506   47.3519 H   0  0  0  0  0  0  0  0  0  0  0  0
   58.2518   34.9753   46.0672 H   0  0  0  0  0  0  0  0  0  0  0  0
   60.6285   35.4244   45.5073 H   0  0  0  0  0  0  0  0  0  0  0  0
   62.9415   34.8997   45.6846 H   0  0  0  0  0  0  0  0  0  0  0  0
   64.7896   33.5141   46.5984 H   0  0  0  0  0  0  0  0  0  0  0  0
   64.3117   31.7585   48.2825 H   0  0  0  0  0  0  0  0  0  0  0  0
   62.1167   31.7945   50.3484 H   0  0  0  0  0  0  0  0  0  0  0  0
   61.0056   30.7060   49.4498 H   0  0  0  0  0  0  0  0  0  0  0  0
   62.7729   30.3843   49.4498 H   0  0  0  0  0  0  0  0  0  0  0  0
  1  2  1  0
  2  3  1  0
  3  4  1  0
  4  5  1  0
  3  6  1  0
  6  7  1  0
  7  8  1  0
  8  9  1  0
  9 10  1  0
 10 11  1  0
 11 12  2  0
 12 13  1  0
 13 14  2  0
 14 15  1  0
 15 16  2  0
 10 17  1  0
 17 18  2  0
 18 19  1  0
 19 20  2  0
 20 21  1  0
 21 22  2  0
 22 23  1  0
 23 24  2  0
 24 25  1  0
 25 26  1  0
 25 27  2  0
 16 11  1  0
 27 17  1  0
 27 21  1  0
  1 28  1  0
  1 29  1  0
  1 30  1  0
  2 31  1  0
  2 32  1  0
  4 33  1  0
  4 34  1  0
  5 35  1  0
  5 36  1  0
  5 37  1  0
  6 38  1  0
  6 39  1  0
  7 40  1  0
  7 41  1  0
  8 42  1  0
  8 43  1  0
 10 44  1  6
 12 45  1  0
 13 46  1  0
 14 47  1  0
 15 48  1  0
 16 49  1  0
 18 50  1  0
 19 51  1  0
 20 52  1  0
 22 53  1  0
 23 54  1  0
 24 55  1  0
 26 56  1  0
 26 57  1  0
 26 58  1  0
M  CHG  1  15   1
M  END
>  <UniqueID>  (8) 
8

>  <SMILES>  (8) 
CCN(CC)CCCO[C@@H](c1ccc[nH+]c1)c1cccc2cccc(C)c12

>  <Energy>  (8) 
86.11817049209947

>  <Genealogy>  (8) 
CCN(CC)CCCOC(c1ccc[nH+]c1)c1cccc2cccc(C)c12 (protonated)
CCN(CC)CCCO[C@@H](c1ccc[nH+]c1)c1cccc2cccc(C)c12 (chirality)
CCN(CC)CCCO[C@@H](c1ccc[nH+]c1)c1cccc2cccc(C)c12 (3D coordinates assigned)
CCN(CC)CCCO[C@@H](c1ccc[nH+]c1)c1cccc2cccc(C)c12 (optimized conformer: 86.11817049209947 kcal/mol)

>  <smiles>  (8) 
CCN(CC)CCCOC(c1cccnc1)c1cccc2cccc(C)c12

>  <score_type>  (8) 
oracle

>  <origin>  (8) 
adg

>  <m_score__min__energy>  (8) 
-6.7599999999999998

>  <m_primary>  (8) 
energy

$$$$
8:0
     RDKit          3D

 41 44  0  0  0  0  0  0  0  0999 V2000
   64.9780   32.4330   50.8220 C   0  0  0  0  0  0  0  0  0  0  0  0
   65.0000   32.7490   49.3970 N   0  0  0  0  0  0  0  0  0  0  0  0
   63.8240   33.0890   48.6400 C   0  0  0  0  0  0  0  0  0  0  0  0
   63.9380   33.3220   47.2610 C   0  0  0  0  0  0  0  0  0  0  0  0
   62.8140   33.6550   46.4990 C   0  0  0  0  0  0  0  0  0  0  0  0
   61.5520   33.7690   47.1030 C   0  0  0  0  0  0  0  0  0  0  0  0
   60.3670   34.1240   46.2850 C   0  0  0  0  0  0  0  0  0  0  0  0
   60.0180   35.3880   45.8210 C   0  0  0  0  0  0  0  0  0  0  0  0
   58.8560   35.3270   45.1250 N   0  0  0  0  0  0  0  0  0  0  0  0
   58.5220   34.0220   45.1870 C   0  0  0  0  0  0  0  0  0  0  0  0
   57.3820   33.4350   44.6550 C   0  0  0  0  0  0  0  0  0  0  0  0
   57.2020   32.0610   44.8720 C   0  0  0  0  0  0  0  0  0  0  0  0
   58.1630   31.3270   45.6110 C   0  0  0  0  0  0  0  0  0  0  0  0
   58.0090   29.8730   45.8800 C   0  0  0  0  0  0  0  0  0  0  0  0
   57.1900   29.0910   45.0480 C   0  0  0  0  0  0  0  0  0  0  0  0
   57.0260   27.7240   45.2890 C   0  0  0  0  0  0  0  0  0  0  0  0
   57.6710   27.1070   46.3730 C   0  0  0  0  0  0  0  0  0  0  0  0
   57.4990   25.7000   46.6180 N   0  0  0  0  0  0  0  0  0  0  0  0
   58.4650   24.9140   46.5210 O   0  0  0  0  0  0  0  0  0  0  0  0
   56.2670   25.1960   46.9630 O   0  0  0  0  0  0  0  0  0  0  0  0
   58.4810   27.8900   47.2140 C   0  0  0  0  0  0  0  0  0  0  0  0
   58.6460   29.2570   46.9730 C   0  0  0  0  0  0  0  0  0  0  0  0
   59.2520   31.9850   46.1090 N   0  0  0  0  0  0  0  0  0  0  0  0
   59.4050   33.2860   45.8700 N   0  0  0  0  0  0  0  0  0  0  0  0
   61.4340   33.5260   48.4810 C   0  0  0  0  0  0  0  0  0  0  0  0
   62.5580   33.1920   49.2430 C   0  0  0  0  0  0  0  0  0  0  0  0
   65.0428   33.3636   51.4050 H   0  0  0  0  0  0  0  0  0  0  0  0
   64.0413   31.9110   51.0674 H   0  0  0  0  0  0  0  0  0  0  0  0
   65.8333   31.7863   51.0674 H   0  0  0  0  0  0  0  0  0  0  0  0
   65.9250   32.7250   48.9110 H   0  0  0  0  0  0  0  0  0  0  0  0
   64.9214   33.2419   46.7746 H   0  0  0  0  0  0  0  0  0  0  0  0
   62.9194   33.8290   45.4180 H   0  0  0  0  0  0  0  0  0  0  0  0
   60.6007   36.3049   45.9938 H   0  0  0  0  0  0  0  0  0  0  0  0
   56.6484   34.0245   44.0854 H   0  0  0  0  0  0  0  0  0  0  0  0
   56.3140   31.5527   44.4682 H   0  0  0  0  0  0  0  0  0  0  0  0
   56.6724   29.5596   44.1980 H   0  0  0  0  0  0  0  0  0  0  0  0
   56.3859   27.1262   44.6235 H   0  0  0  0  0  0  0  0  0  0  0  0
   58.9898   27.4224   48.0699 H   0  0  0  0  0  0  0  0  0  0  0  0
   59.2793   29.8563   47.6436 H   0  0  0  0  0  0  0  0  0  0  0  0
   60.4490   33.5990   48.9652 H   0  0  0  0  0  0  0  0  0  0  0  0
   62.4509   33.0085   50.3223 H   0  0  0  0  0  0  0  0  0  0  0  0
  1  2  1  0
  2  3  1  0
  3  4  2  0
  4  5  1  0
  5  6  2  0
  6  7  1  0
  7  8  2  0
  8  9  1  0
  9 10  2  0
 10 11  1  0
 11 12  2  0
 12 13  1  0
 13 14  1  0
 14 15  2  0
 15 16  1  0
 16 17  2  0
 17 18  1  0
 18 19  2  0
 18 20  1  0
 17 21  1  0
 21 22  2  0
 13 23  2  0
 23 24  1  0
  6 25  1  0
 25 26  2  0
 26  3  1  0
 24  7  1  0
 24 10  1  0
 22 14  1  0
  1 27  1  0
  1 28  1  0
  1 29  1  0
  2 30  1  0
  4 31  1  0
  5 32  1  0
  8 33  1  0
 11 34  1  0
 12 35  1  0
 15 36  1  0
 16 37  1  0
 21 38  1  0
 22 39  1  0
 25 40  1  0
 26 41  1  0
M  CHG  2  18   1  20  -1
M  END
>  <UniqueID>  (9) 
9

>  <SMILES>  (9) 
CNc1ccc(-c2cnc3ccc(-c4ccc([N+](=O)[O-])cc4)nn23)cc1

>  <Energy>  (9) 
89.40470469425014

>  <Genealogy>  (9) 
CNc1ccc(-c2cnc3ccc(-c4ccc([N+](=O)[O-])cc4)nn23)cc1 (3D coordinates assigned)
CNc1ccc(-c2cnc3ccc(-c4ccc([N+](=O)[O-])cc4)nn23)cc1 (optimized conformer: 89.40470469425014 kcal/mol)

>  <smiles>  (9) 
CNc1ccc(-c2cnc3ccc(-c4ccc([N+](=O)[O-])cc4)nn23)cc1

>  <score_type>  (9) 
oracle

>  <origin>  (9) 
adg

>  <m_score__min__energy>  (9) 
-8.2100000000000009

>  <m_primary>  (9) 
energy

$$$$
9:0
     RDKit          3D

 59 61  0  0  0  0  0  0  0  0999 V2000
   59.6230   27.4990   45.2480 C   0  0  0  0  0  0  0  0  0  0  0  0
   58.9100   27.8350   43.9410 C   0  0  0  0  0  0  0  0  0  0  0  0
   57.4120   28.1060   44.1410 C   0  0  0  0  0  0  0  0  0  0  0  0
   56.8750   29.7040   43.4230 S   0  0  0  0  0  0  0  0  0  0  0  0
   57.5630   30.7200   44.7340 C   0  0  0  0  0  0  0  0  0  0  0  0
   57.7610   32.0830   44.5250 C   0  0  0  0  0  0  0  0  0  0  0  0
   58.2610   32.8810   45.5500 C   0  0  0  0  0  0  0  0  0  0  0  0
   58.5820   32.3250   46.8050 C   0  0  0  0  0  0  0  0  0  0  0  0
   59.0610   33.1340   47.8490 C   0  0  0  0  0  0  0  0  0  0  0  0
   59.3240   34.5290   47.6170 N   0  0  0  0  0  0  0  0  0  0  0  0
   60.4010   34.9670   46.7280 C   0  0  0  0  0  0  0  0  0  0  0  0
   61.3640   33.8160   46.4320 C   0  0  0  0  0  0  0  0  0  0  0  0
   61.8430   33.2240   47.7020 N   0  0  0  0  0  0  0  0  0  0  0  0
   62.6000   31.9630   47.4890 C   0  0  0  0  0  0  0  0  0  0  0  0
   61.7350   30.7630   47.0750 C   0  0  0  0  0  0  0  0  0  0  0  0
   62.5240   34.2180   48.5620 C   0  0  0  0  0  0  0  0  0  0  0  0
   63.2270   33.5580   49.7500 C   0  0  0  0  0  0  0  0  0  0  0  0
   59.2410   32.5780   49.1260 C   0  0  0  0  0  0  0  0  0  0  0  0
   59.5460   33.3960   50.2350 C   0  0  0  0  0  0  0  0  0  0  0  0
   59.6840   32.8480   51.5070 C   0  0  0  0  0  0  0  0  0  0  0  0
   59.5000   31.4840   51.7010 C   0  0  0  0  0  0  0  0  0  0  0  0
   59.1920   30.6560   50.6220 C   0  0  0  0  0  0  0  0  0  0  0  0
   59.0790   31.1770   49.3080 C   0  0  0  0  0  0  0  0  0  0  0  0
   58.7990   30.3660   48.2250 N   0  0  0  0  0  0  0  0  0  0  0  0
   58.9210   28.8960   48.3480 C   0  0  0  0  0  0  0  0  0  0  0  0
   58.4230   30.9300   47.0200 C   0  0  0  0  0  0  0  0  0  0  0  0
   57.8680   30.1520   45.9720 C   0  0  0  0  0  0  0  0  0  0  0  0
   58.9909   27.7969   46.0976 H   0  0  0  0  0  0  0  0  0  0  0  0
   59.8131   26.4165   45.2942 H   0  0  0  0  0  0  0  0  0  0  0  0
   60.5788   28.0414   45.2942 H   0  0  0  0  0  0  0  0  0  0  0  0
   59.3756   28.7315   43.5056 H   0  0  0  0  0  0  0  0  0  0  0  0
   59.0061   26.9650   43.2747 H   0  0  0  0  0  0  0  0  0  0  0  0
   56.8417   27.2965   43.6619 H   0  0  0  0  0  0  0  0  0  0  0  0
   57.2263   28.1516   45.2243 H   0  0  0  0  0  0  0  0  0  0  0  0
   57.5218   32.5293   43.5485 H   0  0  0  0  0  0  0  0  0  0  0  0
   58.4073   33.9577   45.3788 H   0  0  0  0  0  0  0  0  0  0  0  0
   58.6920   35.2410   48.0440 H   0  0  0  0  0  0  0  0  0  0  0  0
   59.9656   35.3247   45.7833 H   0  0  0  0  0  0  0  0  0  0  0  0
   60.9595   35.7751   47.2229 H   0  0  0  0  0  0  0  0  0  0  0  0
   60.8432   33.0462   45.8437 H   0  0  0  0  0  0  0  0  0  0  0  0
   62.2237   34.1989   45.8626 H   0  0  0  0  0  0  0  0  0  0  0  0
   63.3447   32.1386   46.6987 H   0  0  0  0  0  0  0  0  0  0  0  0
   63.0532   31.7029   48.4569 H   0  0  0  0  0  0  0  0  0  0  0  0
   61.3651   30.2498   47.9749 H   0  0  0  0  0  0  0  0  0  0  0  0
   60.8817   31.1151   46.4768 H   0  0  0  0  0  0  0  0  0  0  0  0
   62.3388   30.0647   46.4768 H   0  0  0  0  0  0  0  0  0  0  0  0
   63.2715   34.7560   47.9605 H   0  0  0  0  0  0  0  0  0  0  0  0
   61.7622   34.9066   48.9562 H   0  0  0  0  0  0  0  0  0  0  0  0
   62.8084   33.9510   50.6883 H   0  0  0  0  0  0  0  0  0  0  0  0
   63.0743   32.4695   49.7079 H   0  0  0  0  0  0  0  0  0  0  0  0
   64.3037   33.7791   49.7079 H   0  0  0  0  0  0  0  0  0  0  0  0
   59.6761   34.4789   50.0924 H   0  0  0  0  0  0  0  0  0  0  0  0
   59.9389   33.4949   52.3594 H   0  0  0  0  0  0  0  0  0  0  0  0
   59.5977   31.0560   52.7096 H   0  0  0  0  0  0  0  0  0  0  0  0
   59.0341   29.5809   50.7930 H   0  0  0  0  0  0  0  0  0  0  0  0
   58.9441   28.6177   49.4120 H   0  0  0  0  0  0  0  0  0  0  0  0
   58.0597   28.4146   47.8617 H   0  0  0  0  0  0  0  0  0  0  0  0
   59.8499   28.5632   47.8617 H   0  0  0  0  0  0  0  0  0  0  0  0
   57.6745   29.0819   46.1378 H   0  0  0  0  0  0  0  0  0  0  0  0
  1  2  1  0
  2  3  1  0
  3  4  1  0
  4  5  1  0
  5  6  2  0
  6  7  1  0
  7  8  2  0
  8  9  1  0
  9 10  1  0
 10 11  1  0
 11 12  1  0
 12 13  1  0
 13 14  1  0
 14 15  1  0
 13 16  1  0
 16 17  1  0
  9 18  2  0
 18 19  1  0
 19 20  2  0
 20 21  1  0
 21 22  2  0
 22 23  1  0
 23 24  2  0
 24 25  1  0
 24 26  1  0
 26 27  2  0
 27  5  1  0
 26  8  1  0
 23 18  1  0
  1 28  1  0
  1 29  1  0
  1 30  1  0
  2 31  1  0
  2 32  1  0
  3 33  1  0
  3 34  1  0
  6 35  1  0
  7 36  1  0
 10 37  1  0
 11 38  1  0
 11 39  1  0
 12 40  1  0
 12 41  1  0
 14 42  1  0
 14 43  1  0
 15 44  1  0
 15 45  1  0
 15 46  1  0
 16 47  1  0
 16 48  1  0
 17 49  1  0
 17 50  1  0
 17 51  1  0
 19 52  1  0
 20 53  1  0
 21 54  1  0
 22 55  1  0
 25 56  1  0
 25 57  1  0
 25 58  1  0
 27 59  1  0
M  CHG  1  24   1
M  END
>  <UniqueID>  (10) 
10

>  <SMILES>  (10) 
CCCSc1ccc2c(NCCN(CC)CC)c3ccccc3[n+](C)c2c1

>  <Energy>  (10) 
78.37393602161752

>  <Genealogy>  (10) 
CCCSc1ccc2c(NCCN(CC)CC)c3ccccc3[n+](C)c2c1 (3D coordinates assigned)
CCCSc1ccc2c(NCCN(CC)CC)c3ccccc3[n+](C)c2c1 (optimized conformer: 78.37393602161752 kcal/mol)

>  <smiles>  (10) 
CCCSc1ccc2c(NCCN(CC)CC)c3ccccc3[n+](C)c2c1

>  <score_type>  (10) 
oracle

>  <origin>  (10) 
adg

>  <m_score__min__energy>  (10) 
-5.9199999999999999

>  <m_primary>  (10) 
energy

$$$$
10:0
     RDKit          3D

 47 48  0  0  0  0  0  0  0  0999 V2000
   58.7160   32.4570   50.0860 C   0  0  0  0  0  0  0  0  0  0  0  0
   59.6960   33.6240   50.0010 C   0  0  0  0  0  0  0  0  0  0  0  0
   61.0920   33.1310   50.0290 N   0  0  0  0  0  0  0  0  0  0  0  0
   61.3580   32.2780   51.2140 C   0  0  0  0  0  0  0  0  0  0  0  0
   62.1770   31.0160   50.9090 C   0  0  0  0  0  0  0  0  0  0  0  0
   62.0640   34.2360   49.8510 C   0  0  0  0  0  0  0  0  0  0  0  0
   63.3150   33.7800   49.0860 C   0  0  0  0  0  0  0  0  0  0  0  0
   63.0360   33.6220   47.7070 O   0  0  0  0  0  0  0  0  0  0  0  0
   63.5590   32.4000   47.2230 C   0  0  0  0  0  0  0  0  0  0  0  0
   62.4360   31.3570   47.1390 C   0  0  0  0  0  0  0  0  0  0  0  0
   61.1910   31.7950   47.8010 N   0  0  0  0  0  0  0  0  0  0  0  0
   60.0060   31.2920   47.1350 C   0  0  0  0  0  0  0  0  0  0  0  0
   59.1570   32.1460   46.3890 C   0  0  0  0  0  0  0  0  0  0  0  0
   59.4580   34.0360   46.2320 Br  0  0  0  0  0  0  0  0  0  0  0  0
   58.0410   31.6250   45.7280 C   0  0  0  0  0  0  0  0  0  0  0  0
   57.7370   30.2560   45.7990 C   0  0  0  0  0  0  0  0  0  0  0  0
   56.6170   29.7110   45.1380 C   0  0  0  0  0  0  0  0  0  0  0  0
   55.8490   30.4430   44.4570 O   0  0  0  0  0  0  0  0  0  0  0  0
   56.3540   28.3820   45.2310 N   0  0  0  0  0  0  0  0  0  0  0  0
   57.1420   27.5390   45.9480 C   0  0  0  0  0  0  0  0  0  0  0  0
   58.2620   28.0290   46.6220 C   0  0  0  0  0  0  0  0  0  0  0  0
   58.5700   29.3970   46.5510 C   0  0  0  0  0  0  0  0  0  0  0  0
   59.6940   29.9170   47.2160 C   0  0  0  0  0  0  0  0  0  0  0  0
   60.4880   29.0920   47.9480 F   0  0  0  0  0  0  0  0  0  0  0  0
   58.5177   32.2209   51.1419 H   0  0  0  0  0  0  0  0  0  0  0  0
   57.7742   32.7321   49.5887 H   0  0  0  0  0  0  0  0  0  0  0  0
   59.1498   31.5769   49.5887 H   0  0  0  0  0  0  0  0  0  0  0  0
   59.5246   34.1732   49.0635 H   0  0  0  0  0  0  0  0  0  0  0  0
   59.5353   34.2875   50.8635 H   0  0  0  0  0  0  0  0  0  0  0  0
   61.9096   32.8770   51.9535 H   0  0  0  0  0  0  0  0  0  0  0  0
   60.3799   31.9383   51.5853 H   0  0  0  0  0  0  0  0  0  0  0  0
   62.4848   30.5417   51.8526 H   0  0  0  0  0  0  0  0  0  0  0  0
   61.5631   30.3121   50.3279 H   0  0  0  0  0  0  0  0  0  0  0  0
   63.0699   31.2899   50.3279 H   0  0  0  0  0  0  0  0  0  0  0  0
   61.5800   35.0485   49.2892 H   0  0  0  0  0  0  0  0  0  0  0  0
   62.3793   34.5768   50.8482 H   0  0  0  0  0  0  0  0  0  0  0  0
   64.1067   34.5337   49.2089 H   0  0  0  0  0  0  0  0  0  0  0  0
   63.6402   32.8105   49.4914 H   0  0  0  0  0  0  0  0  0  0  0  0
   63.9890   32.5564   46.2227 H   0  0  0  0  0  0  0  0  0  0  0  0
   64.3412   32.0405   47.9078 H   0  0  0  0  0  0  0  0  0  0  0  0
   62.2188   31.1605   46.0787 H   0  0  0  0  0  0  0  0  0  0  0  0
   62.7859   30.4541   47.6608 H   0  0  0  0  0  0  0  0  0  0  0  0
   61.1830   32.8360   47.8850 H   0  0  0  0  0  0  0  0  0  0  0  0
   61.1980   31.4330   48.7820 H   0  0  0  0  0  0  0  0  0  0  0  0
   57.3929   32.2958   45.1450 H   0  0  0  0  0  0  0  0  0  0  0  0
   56.8969   26.4678   45.9976 H   0  0  0  0  0  0  0  0  0  0  0  0
   58.8992   27.3477   47.2050 H   0  0  0  0  0  0  0  0  0  0  0  0
  1  2  1  0
  2  3  1  0
  3  4  1  0
  4  5  1  0
  3  6  1  0
  6  7  1  0
  7  8  1  0
  8  9  1  0
  9 10  1  0
 10 11  1  0
 11 12  1  0
 12 13  2  0
 13 14  1  0
 13 15  1  0
 15 16  2  0
 16 17  1  0
 17 18  2  0
 17 19  1  0
 19 20  1  0
 20 21  2  0
 21 22  1  0
 22 23  2  0
 23 24  1  0
 23 12  1  0
 22 16  1  0
  1 25  1  0
  1 26  1  0
  1 27  1  0
  2 28  1  0
  2 29  1  0
  4 30  1  0
  4 31  1  0
  5 32  1  0
  5 33  1  0
  5 34  1  0
  6 35  1  0
  6 36  1  0
  7 37  1  0
  7 38  1  0
  9 39  1  0
  9 40  1  0
 10 41  1  0
 10 42  1  0
 11 43  1  0
 11 44  1  0
 15 45  1  0
 20 46  1  0
 21 47  1  0
M  CHG  2  11   1  19  -1
M  END
>  <UniqueID>  (11) 
11

>  <SMILES>  (11) 
CCN(CC)CCOCC[NH2+]c1c(Br)cc2c(=O)[n-]ccc2c1F

>  <Energy>  (11) 
56.64518161678701

>  <Genealogy>  (11) 
CCN(CC)CCOCC[NH2+]c1c(Br)cc2c(=O)[n-]ccc2c1F (protonated)
CCN(CC)CCOCC[NH2+]c1c(Br)cc2c(=O)[n-]ccc2c1F (3D coordinates assigned)
CCN(CC)CCOCC[NH2+]c1c(Br)cc2c(=O)[n-]ccc2c1F (optimized conformer: 56.64518161678701 kcal/mol)

>  <smiles>  (11) 
CCN(CC)CCOCCNc1c(Br)cc2c(=O)[nH]ccc2c1F

>  <score_type>  (11) 
oracle

>  <origin>  (11) 
adg

>  <m_score__min__energy>  (11) 
-6.7999999999999998

>  <m_primary>  (11) 
energy

$$$$
11:0
     RDKit          3D

 51 53  0  0  0  0  0  0  0  0999 V2000
   59.8920   30.5630   51.0760 C   0  0  0  0  0  0  0  0  0  0  0  0
   60.1780   29.4810   50.1960 O   0  0  0  0  0  0  0  0  0  0  0  0
   60.0020   29.5200   48.8030 C   0  0  0  0  0  0  0  0  0  0  0  0
   58.9580   28.8300   48.1620 C   0  0  0  0  0  0  0  0  0  0  0  0
   58.8080   28.8880   46.7690 C   0  0  0  0  0  0  0  0  0  0  0  0
   59.6920   29.6740   46.0110 C   0  0  0  0  0  0  0  0  0  0  0  0
   60.7510   30.3400   46.6440 C   0  0  0  0  0  0  0  0  0  0  0  0
   60.9110   30.2670   48.0400 C   0  0  0  0  0  0  0  0  0  0  0  0
   61.9640   30.9160   48.7050 O   0  0  0  0  0  0  0  0  0  0  0  0
   62.8660   31.8320   48.0900 C   0  0  0  0  0  0  0  0  0  0  0  0
   59.5700   29.7160   44.5130 C   0  0  0  0  0  0  0  0  0  0  0  0
   58.1730   29.5340   44.0660 N   0  0  2  0  0  0  0  0  0  0  0  0
   57.3370   30.6900   44.3720 C   0  0  0  0  0  0  0  0  0  0  0  0
   56.1280   30.5670   44.5200 O   0  0  0  0  0  0  0  0  0  0  0  0
   57.9360   32.0800   44.4400 C   0  0  0  0  0  0  0  0  0  0  0  0
   57.0240   33.0770   45.1750 C   0  0  0  0  0  0  0  0  0  0  0  0
   57.7540   33.7890   46.2490 N   0  0  0  0  0  0  0  0  0  0  0  0
   58.1670   32.8670   47.3330 C   0  0  0  0  0  0  0  0  0  0  0  0
   59.3350   33.4590   48.1360 C   0  0  0  0  0  0  0  0  0  0  0  0
   60.5070   33.6700   47.3610 O   0  0  0  0  0  0  0  0  0  0  0  0
   60.2450   33.9120   45.9850 C   0  0  0  0  0  0  0  0  0  0  0  0
   58.8880   34.5930   45.7260 C   0  0  0  0  0  0  0  0  0  0  0  0
   57.6340   28.2520   44.5790 C   0  0  0  0  0  0  0  0  0  0  0  0
   57.6680   28.1390   46.1220 C   0  0  0  0  0  0  0  0  0  0  0  0
   59.9822   30.2219   52.1179 H   0  0  0  0  0  0  0  0  0  0  0  0
   60.6048   31.3811   50.8950 H   0  0  0  0  0  0  0  0  0  0  0  0
   58.8681   30.9220   50.8950 H   0  0  0  0  0  0  0  0  0  0  0  0
   58.2503   28.2375   48.7605 H   0  0  0  0  0  0  0  0  0  0  0  0
   61.4633   30.9250   46.0437 H   0  0  0  0  0  0  0  0  0  0  0  0
   63.4121   32.3866   48.8673 H   0  0  0  0  0  0  0  0  0  0  0  0
   63.5810   31.2781   47.4640 H   0  0  0  0  0  0  0  0  0  0  0  0
   62.3011   32.5384   47.4640 H   0  0  0  0  0  0  0  0  0  0  0  0
   59.9336   30.6902   44.1542 H   0  0  0  0  0  0  0  0  0  0  0  0
   60.1691   28.8911   44.1000 H   0  0  0  0  0  0  0  0  0  0  0  0
   58.1940   29.4510   43.0220 H   0  0  0  0  0  0  0  0  0  0  0  0
   58.8981   32.0244   44.9703 H   0  0  0  0  0  0  0  0  0  0  0  0
   58.0640   32.4405   43.4087 H   0  0  0  0  0  0  0  0  0  0  0  0
   56.6436   33.8137   44.4521 H   0  0  0  0  0  0  0  0  0  0  0  0
   56.1966   32.5154   45.6333 H   0  0  0  0  0  0  0  0  0  0  0  0
   57.3145   32.6981   48.0073 H   0  0  0  0  0  0  0  0  0  0  0  0
   58.4931   31.9174   46.8836 H   0  0  0  0  0  0  0  0  0  0  0  0
   59.0156   34.4250   48.5541 H   0  0  0  0  0  0  0  0  0  0  0  0
   59.5918   32.7298   48.9185 H   0  0  0  0  0  0  0  0  0  0  0  0
   61.0405   34.5599   45.5883 H   0  0  0  0  0  0  0  0  0  0  0  0
   60.2149   32.9325   45.4853 H   0  0  0  0  0  0  0  0  0  0  0  0
   58.8839   35.5761   46.2195 H   0  0  0  0  0  0  0  0  0  0  0  0
   58.7602   34.6938   44.6381 H   0  0  0  0  0  0  0  0  0  0  0  0
   56.5900   28.1556   44.2461 H   0  0  0  0  0  0  0  0  0  0  0  0
   58.2751   27.4508   44.1826 H   0  0  0  0  0  0  0  0  0  0  0  0
   56.7229   28.5382   46.5187 H   0  0  0  0  0  0  0  0  0  0  0  0
   57.8120   27.0746   46.3594 H   0  0  0  0  0  0  0  0  0  0  0  0
  1  2  1  0
  2  3  1  0
  3  4  2  0
  4  5  1  0
  5  6  2  0
  6  7  1  0
  7  8  2  0
  8  9  1  0
  9 10  1  0
  6 11  1  0
 11 12  1  0
 12 13  1  0
 13 14  2  0
 13 15  1  0
 15 16  1  0
 16 17  1  0
 17 18  1  0
 18 19  1  0
 19 20  1  0
 20 21  1  0
 21 22  1  0
 12 23  1  0
 23 24  1  0
  8  3  1  0
 22 17  1  0
 24  5  1  0
  1 25  1  0
  1 26  1  0
  1 27  1  0
  4 28  1  0
  7 29  1  0
 10 30  1  0
 10 31  1  0
 10 32  1  0
 11 33  1  0
 11 34  1  0
 12 35  1  6
 15 36  1  0
 15 37  1  0
 16 38  1  0
 16 39  1  0
 18 40  1  0
 18 41  1  0
 19 42  1  0
 19 43  1  0
 21 44  1  0
 21 45  1  0
 22 46  1  0
 22 47  1  0
 23 48  1  0
 23 49  1  0
 24 50  1  0
 24 51  1  0
M  CHG  1  12   1
M  END
>  <UniqueID>  (12) 
12

>  <SMILES>  (12) 
COc1cc2c(cc1OC)C[N@H+](C(=O)CCN1CCOCC1)CC2

>  <Energy>  (12) 
70.70669779175083

>  <Genealogy>  (12) 
COc1cc2c(cc1OC)C[NH+](C(=O)CCN1CCOCC1)CC2 (protonated)
COc1cc2c(cc1OC)C[N@H+](C(=O)CCN1CCOCC1)CC2 (chirality)
COc1cc2c(cc1OC)C[N@H+](C(=O)CCN1CCOCC1)CC2 (3D coordinates assigned)
COc1cc2c(cc1OC)C[N@H+](C(=O)CCN1CCOCC1)CC2 (nonaromatic ring conformer: 70.70669779175083 kcal/mol)

>  <smiles>  (12) 
COc1cc2c(cc1OC)CN(C(=O)CCN1CCOCC1)CC2

>  <score_type>  (12) 
oracle

>  <origin>  (12) 
adg

>  <m_score__min__energy>  (12) 
-5.46

>  <m_primary>  (12) 
energy

$$$$
12:0
     RDKit          3D

 41 43  0  0  0  0  0  0  0  0999 V2000
   58.8940   34.2450   45.4430 C   0  0  0  0  0  0  0  0  0  0  0  0
   58.6770   34.3900   46.9450 C   0  0  0  0  0  0  0  0  0  0  0  0
   58.8170   33.0890   47.6140 N   0  0  0  0  0  0  0  0  0  0  0  0
   59.0410   33.0620   49.0710 C   0  0  0  0  0  0  0  0  0  0  0  0
   60.0150   34.1520   49.5020 C   0  0  0  0  0  0  0  0  0  0  0  0
   59.0810   31.9110   46.8180 C   0  0  0  0  0  0  0  0  0  0  0  0
   58.0380   31.2400   46.2410 N   0  0  0  0  0  0  0  0  0  0  0  0
   58.2340   30.0900   45.5380 C   0  0  0  0  0  0  0  0  0  0  0  0
   57.1570   29.4080   44.9480 C   0  0  0  0  0  0  0  0  0  0  0  0
   57.3830   28.2240   44.2390 C   0  0  0  0  0  0  0  0  0  0  0  0
   58.6790   27.7140   44.1180 C   0  0  0  0  0  0  0  0  0  0  0  0
   59.7570   28.3840   44.7060 C   0  0  0  0  0  0  0  0  0  0  0  0
   59.5360   29.5700   45.4150 C   0  0  0  0  0  0  0  0  0  0  0  0
   60.5720   30.2270   45.9930 N   0  0  0  0  0  0  0  0  0  0  0  0
   60.3900   31.3850   46.6840 C   0  0  0  0  0  0  0  0  0  0  0  0
   61.5780   32.0310   47.2770 C   0  0  0  0  0  0  0  0  0  0  0  0
   62.0830   33.2300   46.7540 C   0  0  0  0  0  0  0  0  0  0  0  0
   63.2090   33.8300   47.3250 C   0  0  0  0  0  0  0  0  0  0  0  0
   63.8470   33.2290   48.4130 C   0  0  0  0  0  0  0  0  0  0  0  0
   63.3640   32.0210   48.9250 C   0  0  0  0  0  0  0  0  0  0  0  0
   62.2390   31.4180   48.3550 C   0  0  0  0  0  0  0  0  0  0  0  0
   59.7958   33.6424   45.2593 H   0  0  0  0  0  0  0  0  0  0  0  0
   58.0224   33.7472   44.9930 H   0  0  0  0  0  0  0  0  0  0  0  0
   59.0204   35.2407   44.9930 H   0  0  0  0  0  0  0  0  0  0  0  0
   59.4226   35.0886   47.3526 H   0  0  0  0  0  0  0  0  0  0  0  0
   57.6612   34.7732   47.1220 H   0  0  0  0  0  0  0  0  0  0  0  0
   58.0804   33.2166   49.5841 H   0  0  0  0  0  0  0  0  0  0  0  0
   59.4722   32.0859   49.3379 H   0  0  0  0  0  0  0  0  0  0  0  0
   60.0539   34.1955   50.6004 H   0  0  0  0  0  0  0  0  0  0  0  0
   61.0168   33.9252   49.1083 H   0  0  0  0  0  0  0  0  0  0  0  0
   59.6773   35.1221   49.1083 H   0  0  0  0  0  0  0  0  0  0  0  0
   57.0640   31.5910   46.3720 H   0  0  0  0  0  0  0  0  0  0  0  0
   56.1357   29.8053   45.0437 H   0  0  0  0  0  0  0  0  0  0  0  0
   56.5388   27.6926   43.7753 H   0  0  0  0  0  0  0  0  0  0  0  0
   58.8516   26.7828   43.5586 H   0  0  0  0  0  0  0  0  0  0  0  0
   60.7756   27.9797   44.6113 H   0  0  0  0  0  0  0  0  0  0  0  0
   61.5907   33.7007   45.8902 H   0  0  0  0  0  0  0  0  0  0  0  0
   63.5933   34.7766   46.9172 H   0  0  0  0  0  0  0  0  0  0  0  0
   64.7285   33.7058   48.8664 H   0  0  0  0  0  0  0  0  0  0  0  0
   63.8700   31.5444   49.7776 H   0  0  0  0  0  0  0  0  0  0  0  0
   61.8700   30.4606   48.7516 H   0  0  0  0  0  0  0  0  0  0  0  0
  1  2  1  0
  2  3  1  0
  3  4  1  0
  4  5  1  0
  3  6  1  0
  6  7  2  0
  7  8  1  0
  8  9  2  0
  9 10  1  0
 10 11  2  0
 11 12  1  0
 12 13  2  0
 13 14  1  0
 14 15  2  0
 15 16  1  0
 16 17  2  0
 17 18  1  0
 18 19  2  0
 19 20  1  0
 20 21  2  0
 15  6  1  0
 21 16  1  0
 13  8  1  0
  1 22  1  0
  1 23  1  0
  1 24  1  0
  2 25  1  0
  2 26  1  0
  4 27  1  0
  4 28  1  0
  5 29  1  0
  5 30  1  0
  5 31  1  0
  7 32  1  0
  9 33  1  0
 10 34  1  0
 11 35  1  0
 12 36  1  0
 17 37  1  0
 18 38  1  0
 19 39  1  0
 20 40  1  0
 21 41  1  0
M  CHG  1   7   1
M  END
>  <UniqueID>  (13) 
13

>  <SMILES>  (13) 
CCN(CC)c1[nH+]c2ccccc2nc1-c1ccccc1

>  <Energy>  (13) 
51.21279525880821

>  <Genealogy>  (13) 
CCN(CC)c1[nH+]c2ccccc2nc1-c1ccccc1 (protonated)
CCN(CC)c1[nH+]c2ccccc2nc1-c1ccccc1 (3D coordinates assigned)
CCN(CC)c1[nH+]c2ccccc2nc1-c1ccccc1 (optimized conformer: 51.21279525880821 kcal/mol)

>  <smiles>  (13) 
CCN(CC)c1nc2ccccc2nc1-c1ccccc1

>  <score_type>  (13) 
oracle

>  <origin>  (13) 
adg

>  <m_score__min__energy>  (13) 
-5.0999999999999996

>  <m_primary>  (13) 
energy

$$$$
13:0
     RDKit          3D

 55 55  0  0  0  0  0  0  0  0999 V2000
   65.3970   32.6620   49.8250 C   0  0  0  0  0  0  0  0  0  0  0  0
   64.1140   31.8910   49.4860 C   0  0  0  0  0  0  0  0  0  0  0  0
   63.1850   32.6100   48.5700 N   0  0  0  0  0  0  0  0  0  0  0  0
   63.6690   32.6720   47.1660 C   0  0  0  0  0  0  0  0  0  0  0  0
   63.0380   33.8190   46.3660 C   0  0  0  0  0  0  0  0  0  0  0  0
   62.8760   33.9710   49.0900 C   0  0  0  0  0  0  0  0  0  0  0  0
   61.4300   34.0980   49.5970 C   0  0  0  0  0  0  0  0  0  0  0  0
   60.6470   33.0800   49.0050 O   0  0  0  0  0  0  0  0  0  0  0  0
   59.3080   33.5130   48.8340 C   0  0  0  0  0  0  0  0  0  0  0  0
   59.2720   34.8980   48.1960 C   0  0  0  0  0  0  0  0  0  0  0  0
   60.2580   34.9710   47.1860 O   0  0  0  0  0  0  0  0  0  0  0  0
   59.6680   35.2150   45.9200 C   0  0  0  0  0  0  0  0  0  0  0  0
   59.3230   33.8720   45.2710 C   0  0  0  0  0  0  0  0  0  0  0  0
   59.8160   32.7560   46.0850 N   0  0  0  0  0  0  0  0  0  0  0  0
   59.2100   31.4530   46.0550 C   0  0  0  0  0  0  0  0  0  0  0  0
   58.1040   31.1980   45.2280 C   0  0  0  0  0  0  0  0  0  0  0  0
   57.5030   29.9280   45.2010 C   0  0  0  0  0  0  0  0  0  0  0  0
   56.3760   29.6720   44.3420 N   0  0  0  0  0  0  0  0  0  0  0  0
   56.4870   29.7540   43.0980 O   0  0  0  0  0  0  0  0  0  0  0  0
   55.1440   29.3700   44.8750 O   0  0  0  0  0  0  0  0  0  0  0  0
   58.0210   28.9110   46.0170 C   0  0  0  0  0  0  0  0  0  0  0  0
   59.1190   29.1570   46.8450 C   0  0  0  0  0  0  0  0  0  0  0  0
   59.7210   30.4270   46.8740 C   0  0  0  0  0  0  0  0  0  0  0  0
   60.8090   30.7120   47.7130 O   0  0  0  0  0  0  0  0  0  0  0  0
   61.0650   30.0650   48.9560 C   0  0  0  0  0  0  0  0  0  0  0  0
   65.5072   32.7282   50.9175 H   0  0  0  0  0  0  0  0  0  0  0  0
   66.2643   32.1354   49.4003 H   0  0  0  0  0  0  0  0  0  0  0  0
   65.3391   33.6750   49.4003 H   0  0  0  0  0  0  0  0  0  0  0  0
   64.3995   30.9414   49.0098 H   0  0  0  0  0  0  0  0  0  0  0  0
   63.5732   31.7515   50.4337 H   0  0  0  0  0  0  0  0  0  0  0  0
   62.2930   32.0560   48.5730 H   0  0  0  0  0  0  0  0  0  0  0  0
   64.7602   32.8107   47.1769 H   0  0  0  0  0  0  0  0  0  0  0  0
   63.3803   31.7305   46.6759 H   0  0  0  0  0  0  0  0  0  0  0  0
   62.6265   34.5669   47.0597 H   0  0  0  0  0  0  0  0  0  0  0  0
   63.8044   34.2891   45.7323 H   0  0  0  0  0  0  0  0  0  0  0  0
   62.2306   33.4233   45.7323 H   0  0  0  0  0  0  0  0  0  0  0  0
   63.5612   34.1942   49.9210 H   0  0  0  0  0  0  0  0  0  0  0  0
   63.0003   34.6806   48.2587 H   0  0  0  0  0  0  0  0  0  0  0  0
   61.4113   33.9891   50.6914 H   0  0  0  0  0  0  0  0  0  0  0  0
   61.0253   35.0846   49.3271 H   0  0  0  0  0  0  0  0  0  0  0  0
   58.7775   32.8013   48.1844 H   0  0  0  0  0  0  0  0  0  0  0  0
   58.8214   33.5623   49.8193 H   0  0  0  0  0  0  0  0  0  0  0  0
   58.2798   35.0740   47.7548 H   0  0  0  0  0  0  0  0  0  0  0  0
   59.4704   35.6625   48.9616 H   0  0  0  0  0  0  0  0  0  0  0  0
   58.7520   35.8105   46.0473 H   0  0  0  0  0  0  0  0  0  0  0  0
   60.3700   35.7704   45.2806 H   0  0  0  0  0  0  0  0  0  0  0  0
   58.2306   33.7901   45.1713 H   0  0  0  0  0  0  0  0  0  0  0  0
   59.8033   33.8254   44.2825 H   0  0  0  0  0  0  0  0  0  0  0  0
   60.5250   32.9560   46.8290 H   0  0  0  0  0  0  0  0  0  0  0  0
   57.7032   32.0023   44.5936 H   0  0  0  0  0  0  0  0  0  0  0  0
   57.5592   27.9127   46.0047 H   0  0  0  0  0  0  0  0  0  0  0  0
   59.5156   28.3505   47.4793 H   0  0  0  0  0  0  0  0  0  0  0  0
   60.7979   30.7399   49.7825 H   0  0  0  0  0  0  0  0  0  0  0  0
   60.4622   29.1473   49.0227 H   0  0  0  0  0  0  0  0  0  0  0  0
   62.1325   29.8082   49.0227 H   0  0  0  0  0  0  0  0  0  0  0  0
  1  2  1  0
  2  3  1  0
  3  4  1  0
  4  5  1  0
  3  6  1  0
  6  7  1  0
  7  8  1  0
  8  9  1  0
  9 10  1  0
 10 11  1  0
 11 12  1  0
 12 13  1  0
 13 14  1  0
 14 15  1  0
 15 16  2  0
 16 17  1  0
 17 18  1  0
 18 19  2  0
 18 20  1  0
 17 21  2  0
 21 22  1  0
 22 23  2  0
 23 24  1  0
 24 25  1  0
 23 15  1  0
  1 26  1  0
  1 27  1  0
  1 28  1  0
  2 29  1  0
  2 30  1  0
  3 31  1  0
  4 32  1  0
  4 33  1  0
  5 34  1  0
  5 35  1  0
  5 36  1  0
  6 37  1  0
  6 38  1  0
  7 39  1  0
  7 40  1  0
  9 41  1  0
  9 42  1  0
 10 43  1  0
 10 44  1  0
 12 45  1  0
 12 46  1  0
 13 47  1  0
 13 48  1  0
 14 49  1  0
 16 50  1  0
 21 51  1  0
 22 52  1  0
 25 53  1  0
 25 54  1  0
 25 55  1  0
M  CHG  3   3   1  18   1  20  -1
M  END
>  <UniqueID>  (14) 
14

>  <SMILES>  (14) 
CC[NH+](CC)CCOCCOCCNc1cc([N+](=O)[O-])ccc1OC

>  <Energy>  (14) 
56.82061624544781

>  <Genealogy>  (14) 
CC[NH+](CC)CCOCCOCCNc1cc([N+](=O)[O-])ccc1OC (protonated)
CC[NH+](CC)CCOCCOCCNc1cc([N+](=O)[O-])ccc1OC (3D coordinates assigned)
CC[NH+](CC)CCOCCOCCNc1cc([N+](=O)[O-])ccc1OC (optimized conformer: 56.82061624544781 kcal/mol)

>  <smiles>  (14) 
CCN(CC)CCOCCOCCNc1cc([N+](=O)[O-])ccc1OC

>  <score_type>  (14) 
oracle

>  <origin>  (14) 
adg

>  <m_score__min__energy>  (14) 
-5.0599999999999996

>  <m_primary>  (14) 
energy

$$$$
14:0
     RDKit          3D

 55 57  0  0  0  0  0  0  0  0999 V2000
   66.2860   31.4490   50.8220 C   0  0  0  0  0  0  0  0  0  0  0  0
   66.0580   32.6490   49.9010 C   0  0  0  0  0  0  0  0  0  0  0  0
   64.7440   32.6120   49.2320 N   0  0  0  0  0  0  0  0  0  0  0  0
   63.7890   33.6340   49.7030 C   0  0  0  0  0  0  0  0  0  0  0  0
   62.5530   33.7570   48.7900 C   0  0  0  0  0  0  0  0  0  0  0  0
   62.7780   33.1090   47.4210 C   0  0  0  0  0  0  0  0  0  0  0  0
   63.0410   31.6670   47.5400 N   0  0  0  0  0  0  0  0  0  0  0  0
   61.9000   30.8340   47.1230 C   0  0  0  0  0  0  0  0  0  0  0  0
   61.0610   30.4370   48.3410 C   0  0  0  0  0  0  0  0  0  0  0  0
   59.6790   30.9050   48.2140 N   0  0  0  0  0  0  0  0  0  0  0  0
   59.0270   30.9790   46.9330 C   0  0  0  0  0  0  0  0  0  0  0  0
   58.6320   29.7940   46.2830 C   0  0  0  0  0  0  0  0  0  0  0  0
   58.7340   28.5430   46.9300 C   0  0  0  0  0  0  0  0  0  0  0  0
   58.4350   27.3640   46.2540 C   0  0  0  0  0  0  0  0  0  0  0  0
   58.0340   27.4050   44.9260 C   0  0  0  0  0  0  0  0  0  0  0  0
   57.8960   28.6280   44.2770 C   0  0  0  0  0  0  0  0  0  0  0  0
   58.1520   29.8530   44.9490 C   0  0  0  0  0  0  0  0  0  0  0  0
   57.9690   31.0740   44.3270 N   0  0  0  0  0  0  0  0  0  0  0  0
   57.2330   31.1440   43.0420 C   0  0  0  0  0  0  0  0  0  0  0  0
   58.4290   32.2340   44.9230 C   0  0  0  0  0  0  0  0  0  0  0  0
   58.4670   33.4660   44.2200 C   0  0  0  0  0  0  0  0  0  0  0  0
   58.8120   34.6520   44.8610 C   0  0  0  0  0  0  0  0  0  0  0  0
   59.1330   34.6450   46.2100 C   0  0  0  0  0  0  0  0  0  0  0  0
   59.1760   33.4450   46.9170 C   0  0  0  0  0  0  0  0  0  0  0  0
   59.4600   33.5080   48.2420 F   0  0  0  0  0  0  0  0  0  0  0  0
   58.8870   32.2160   46.2690 C   0  0  0  0  0  0  0  0  0  0  0  0
   66.2241   31.7748   51.8708 H   0  0  0  0  0  0  0  0  0  0  0  0
   65.5166   30.6870   50.6287 H   0  0  0  0  0  0  0  0  0  0  0  0
   67.2813   31.0223   50.6287 H   0  0  0  0  0  0  0  0  0  0  0  0
   66.1221   33.5694   50.5000 H   0  0  0  0  0  0  0  0  0  0  0  0
   66.8302   32.6183   49.1182 H   0  0  0  0  0  0  0  0  0  0  0  0
   64.3240   31.6620   49.3780 H   0  0  0  0  0  0  0  0  0  0  0  0
   64.8820   32.7290   48.2030 H   0  0  0  0  0  0  0  0  0  0  0  0
   63.4537   33.3629   50.7150 H   0  0  0  0  0  0  0  0  0  0  0  0
   64.3078   34.6039   49.6933 H   0  0  0  0  0  0  0  0  0  0  0  0
   61.7005   33.2636   49.2796 H   0  0  0  0  0  0  0  0  0  0  0  0
   62.3576   34.8274   48.6288 H   0  0  0  0  0  0  0  0  0  0  0  0
   61.8798   33.2581   46.8038 H   0  0  0  0  0  0  0  0  0  0  0  0
   63.6567   33.5814   46.9576 H   0  0  0  0  0  0  0  0  0  0  0  0
   63.2260   31.4790   48.5510 H   0  0  0  0  0  0  0  0  0  0  0  0
   61.2733   31.4022   46.4198 H   0  0  0  0  0  0  0  0  0  0  0  0
   62.2797   29.9232   46.6368 H   0  0  0  0  0  0  0  0  0  0  0  0
   61.0605   29.3409   48.4333 H   0  0  0  0  0  0  0  0  0  0  0  0
   61.5038   30.9039   49.2332 H   0  0  0  0  0  0  0  0  0  0  0  0
   59.1030   30.9780   49.0810 H   0  0  0  0  0  0  0  0  0  0  0  0
   59.0538   28.4999   47.9816 H   0  0  0  0  0  0  0  0  0  0  0  0
   58.5166   26.3977   46.7732 H   0  0  0  0  0  0  0  0  0  0  0  0
   57.8251   26.4697   44.3860 H   0  0  0  0  0  0  0  0  0  0  0  0
   57.5825   28.6466   43.2228 H   0  0  0  0  0  0  0  0  0  0  0  0
   56.1561   31.2464   43.2414 H   0  0  0  0  0  0  0  0  0  0  0  0
   57.5834   32.0129   42.4656 H   0  0  0  0  0  0  0  0  0  0  0  0
   57.4134   30.2246   42.4656 H   0  0  0  0  0  0  0  0  0  0  0  0
   58.2191   33.4839   43.1484 H   0  0  0  0  0  0  0  0  0  0  0  0
   58.8301   35.5962   44.2969 H   0  0  0  0  0  0  0  0  0  0  0  0
   59.3548   35.5916   46.7246 H   0  0  0  0  0  0  0  0  0  0  0  0
  1  2  1  0
  2  3  1  0
  3  4  1  0
  4  5  1  0
  5  6  1  0
  6  7  1  0
  7  8  1  0
  8  9  1  0
  9 10  1  0
 10 11  1  0
 11 12  2  0
 12 13  1  0
 13 14  2  0
 14 15  1  0
 15 16  2  0
 16 17  1  0
 17 18  2  0
 18 19  1  0
 18 20  1  0
 20 21  2  0
 21 22  1  0
 22 23  2  0
 23 24  1  0
 24 25  1  0
 24 26  2  0
 26 11  1  0
 17 12  1  0
 26 20  1  0
  1 27  1  0
  1 28  1  0
  1 29  1  0
  2 30  1  0
  2 31  1  0
  3 32  1  0
  3 33  1  0
  4 34  1  0
  4 35  1  0
  5 36  1  0
  5 37  1  0
  6 38  1  0
  6 39  1  0
  7 40  1  0
  8 41  1  0
  8 42  1  0
  9 43  1  0
  9 44  1  0
 10 45  1  0
 13 46  1  0
 14 47  1  0
 15 48  1  0
 16 49  1  0
 19 50  1  0
 19 51  1  0
 19 52  1  0
 21 53  1  0
 22 54  1  0
 23 55  1  0
M  CHG  2   3   1  18   1
M  END
>  <UniqueID>  (15) 
15

>  <SMILES>  (15) 
CC[NH2+]CCCNCCNc1c2ccccc2[n+](C)c2cccc(F)c12

>  <Energy>  (15) 
76.63165994845812

>  <Genealogy>  (15) 
CC[NH2+]CCCNCCNc1c2ccccc2[n+](C)c2cccc(F)c12 (protonated)
CC[NH2+]CCCNCCNc1c2ccccc2[n+](C)c2cccc(F)c12 (3D coordinates assigned)
CC[NH2+]CCCNCCNc1c2ccccc2[n+](C)c2cccc(F)c12 (optimized conformer: 76.63165994845812 kcal/mol)

>  <smiles>  (15) 
CCNCCCNCCNc1c2ccccc2[n+](C)c2cccc(F)c12

>  <score_type>  (15) 
oracle

>  <origin>  (15) 
adg

>  <m_score__min__energy>  (15) 
-4.0099999999999998

>  <m_primary>  (15) 
energy

$$$$
15:0
     RDKit          3D

 51 55  0  0  0  0  0  0  0  0999 V2000
   59.6210   34.5980   49.2660 C   0  0  0  0  0  0  0  0  0  0  0  0
   60.6460   34.1980   48.2990 N   0  0  0  0  0  0  0  0  0  0  0  0
   60.6190   34.2560   46.9360 C   0  0  0  0  0  0  0  0  0  0  0  0
   59.4510   34.7220   46.1070 C   0  0  0  0  0  0  0  0  0  0  0  0
   58.3410   33.7470   46.0370 N   0  0  0  0  0  0  0  0  0  0  0  0
   57.5680   33.7020   44.7870 C   0  0  0  0  0  0  0  0  0  0  0  0
   58.0990   32.6470   43.8090 C   0  0  0  0  0  0  0  0  0  0  0  0
   58.3090   31.3290   44.4290 N   0  0  0  0  0  0  0  0  0  0  0  0
   57.0960   30.5420   44.6590 C   0  0  0  0  0  0  0  0  0  0  0  0
   57.4330   29.5380   45.7650 C   0  0  1  0  0  0  0  0  0  0  0  0
   57.4660   28.2130   45.2290 O   0  0  0  0  0  0  0  0  0  0  0  0
   57.2530   27.0380   45.9680 C   0  0  0  0  0  0  0  0  0  0  0  0
   58.3080   26.5110   46.7150 C   0  0  0  0  0  0  0  0  0  0  0  0
   58.1340   25.3760   47.4400 N   0  0  0  0  0  0  0  0  0  0  0  0
   56.9370   24.7340   47.4530 C   0  0  0  0  0  0  0  0  0  0  0  0
   55.8950   25.2230   46.7330 N   0  0  0  0  0  0  0  0  0  0  0  0
   56.0260   26.3550   45.9940 C   0  0  0  0  0  0  0  0  0  0  0  0
   58.8130   29.9580   46.2830 C   0  0  0  0  0  0  0  0  0  0  0  0
   59.0490   31.3440   45.6910 C   0  0  2  0  0  0  0  0  0  0  0  0
   58.5560   32.4390   46.6740 C   0  0  0  0  0  0  0  0  0  0  0  0
   61.7710   33.8200   46.3600 N   0  0  0  0  0  0  0  0  0  0  0  0
   62.5480   33.5200   47.4130 C   0  0  0  0  0  0  0  0  0  0  0  0
   63.8600   33.0530   47.3920 C   0  0  0  0  0  0  0  0  0  0  0  0
   64.4950   32.8270   48.6270 C   0  0  0  0  0  0  0  0  0  0  0  0
   63.8110   33.0720   49.8390 C   0  0  0  0  0  0  0  0  0  0  0  0
   62.4850   33.5450   49.8250 C   0  0  0  0  0  0  0  0  0  0  0  0
   61.8840   33.7530   48.5810 C   0  0  0  0  0  0  0  0  0  0  0  0
   60.0022   34.4492   50.2870 H   0  0  0  0  0  0  0  0  0  0  0  0
   59.3720   35.6593   49.1186 H   0  0  0  0  0  0  0  0  0  0  0  0
   58.7190   33.9859   49.1186 H   0  0  0  0  0  0  0  0  0  0  0  0
   59.0658   35.6550   46.5442 H   0  0  0  0  0  0  0  0  0  0  0  0
   59.8216   34.8593   45.0805 H   0  0  0  0  0  0  0  0  0  0  0  0
   56.5210   33.4656   45.0275 H   0  0  0  0  0  0  0  0  0  0  0  0
   57.6580   34.6849   44.3014 H   0  0  0  0  0  0  0  0  0  0  0  0
   57.3742   32.5353   42.9892 H   0  0  0  0  0  0  0  0  0  0  0  0
   59.0786   32.9982   43.4526 H   0  0  0  0  0  0  0  0  0  0  0  0
   56.2725   31.1975   44.9787 H   0  0  0  0  0  0  0  0  0  0  0  0
   56.7741   30.0293   43.7406 H   0  0  0  0  0  0  0  0  0  0  0  0
   56.6854   29.5349   46.5719 H   0  0  0  0  0  0  0  0  0  0  0  0
   59.2845   27.0173   46.7164 H   0  0  0  0  0  0  0  0  0  0  0  0
   56.8118   23.8170   48.0475 H   0  0  0  0  0  0  0  0  0  0  0  0
   55.1714   26.7367   45.4161 H   0  0  0  0  0  0  0  0  0  0  0  0
   58.8173   30.0007   47.3822 H   0  0  0  0  0  0  0  0  0  0  0  0
   59.5988   29.2447   45.9936 H   0  0  0  0  0  0  0  0  0  0  0  0
   60.1105   31.5754   45.5186 H   0  0  0  0  0  0  0  0  0  0  0  0
   57.6052   32.1069   47.1164 H   0  0  0  0  0  0  0  0  0  0  0  0
   59.3440   32.5733   47.4296 H   0  0  0  0  0  0  0  0  0  0  0  0
   64.3822   32.8671   46.4418 H   0  0  0  0  0  0  0  0  0  0  0  0
   65.5307   32.4572   48.6492 H   0  0  0  0  0  0  0  0  0  0  0  0
   64.3174   32.8921   50.7988 H   0  0  0  0  0  0  0  0  0  0  0  0
   61.9414   33.7438   50.7604 H   0  0  0  0  0  0  0  0  0  0  0  0
  1  2  1  0
  2  3  1  0
  3  4  1  0
  4  5  1  0
  5  6  1  0
  6  7  1  0
  7  8  1  0
  8  9  1  0
  9 10  1  0
 10 11  1  0
 11 12  1  0
 12 13  2  0
 13 14  1  0
 14 15  2  0
 15 16  1  0
 16 17  2  0
 10 18  1  0
 18 19  1  0
 19 20  1  0
  3 21  2  0
 21 22  1  0
 22 23  2  0
 23 24  1  0
 24 25  2  0
 25 26  1  0
 26 27  2  0
 27  2  1  0
 20  5  1  0
 27 22  1  0
 19  8  1  0
 17 12  1  0
  1 28  1  0
  1 29  1  0
  1 30  1  0
  4 31  1  0
  4 32  1  0
  6 33  1  0
  6 34  1  0
  7 35  1  0
  7 36  1  0
  9 37  1  0
  9 38  1  0
 10 39  1  1
 13 40  1  0
 15 41  1  0
 17 42  1  0
 18 43  1  0
 18 44  1  0
 19 45  1  6
 20 46  1  0
 20 47  1  0
 23 48  1  0
 24 49  1  0
 25 50  1  0
 26 51  1  0
M  END
>  <UniqueID>  (16) 
16

>  <SMILES>  (16) 
Cn1c(CN2CCN3C[C@@H](Oc4cncnc4)C[C@@H]3C2)nc2ccccc21

>  <Energy>  (16) 
110.95005649230042

>  <Genealogy>  (16) 
Cn1c(CN2CCN3C[C@@H](Oc4cncnc4)C[C@@H]3C2)nc2ccccc21 (chirality)
Cn1c(CN2CCN3C[C@@H](Oc4cncnc4)C[C@@H]3C2)nc2ccccc21 (3D coordinates assigned)
Cn1c(CN2CCN3C[C@@H](Oc4cncnc4)C[C@@H]3C2)nc2ccccc21 (nonaromatic ring conformer: 110.95005649230042 kcal/mol)

>  <smiles>  (16) 
Cn1c(CN2CCN3CC(Oc4cncnc4)CC3C2)nc2ccccc21

>  <score_type>  (16) 
oracle

>  <origin>  (16) 
adg

>  <m_score__min__energy>  (16) 
-7.9500000000000002

>  <m_primary>  (16) 
energy

$$$$
16:0
     RDKit          3D

 38 40  0  0  0  0  0  0  0  0999 V2000
   56.6140   29.4920   43.2310 C   0  0  0  0  0  0  0  0  0  0  0  0
   56.7040   31.0220   43.2730 C   0  0  0  0  0  0  0  0  0  0  0  0
   57.0460   31.5930   41.8910 C   0  0  0  0  0  0  0  0  0  0  0  0
   57.7040   31.4840   44.3170 C   0  0  0  0  0  0  0  0  0  0  0  0
   57.8660   32.8500   44.6130 C   0  0  0  0  0  0  0  0  0  0  0  0
   58.7910   33.2610   45.5770 C   0  0  0  0  0  0  0  0  0  0  0  0
   59.5740   32.3190   46.2660 C   0  0  0  0  0  0  0  0  0  0  0  0
   60.5560   32.7570   47.2910 C   0  0  0  0  0  0  0  0  0  0  0  0
   60.1240   33.4790   48.4380 C   0  0  0  0  0  0  0  0  0  0  0  0
   61.0450   33.8970   49.4170 C   0  0  0  0  0  0  0  0  0  0  0  0
   62.3870   33.5820   49.2190 C   0  0  0  0  0  0  0  0  0  0  0  0
   62.8110   32.8890   48.1230 C   0  0  0  0  0  0  0  0  0  0  0  0
   61.9310   32.4560   47.1340 C   0  0  0  0  0  0  0  0  0  0  0  0
   64.1410   32.7040   48.1930 N   0  0  0  0  0  0  0  0  0  0  0  0
   64.5040   33.3020   49.3530 C   0  0  0  0  0  0  0  0  0  0  0  0
   63.4480   33.8560   49.9990 N   0  0  0  0  0  0  0  0  0  0  0  0
   63.4600   34.5340   51.2900 C   0  0  0  0  0  0  0  0  0  0  0  0
   59.4100   30.9540   45.9700 C   0  0  0  0  0  0  0  0  0  0  0  0
   58.4850   30.5420   45.0060 C   0  0  0  0  0  0  0  0  0  0  0  0
   56.5908   29.0977   44.2577 H   0  0  0  0  0  0  0  0  0  0  0  0
   55.6967   29.1930   42.7026 H   0  0  0  0  0  0  0  0  0  0  0  0
   57.4899   29.0875   42.7026 H   0  0  0  0  0  0  0  0  0  0  0  0
   55.7152   31.4079   43.5618 H   0  0  0  0  0  0  0  0  0  0  0  0
   57.6079   32.5311   42.0107 H   0  0  0  0  0  0  0  0  0  0  0  0
   57.6582   30.8672   41.3356 H   0  0  0  0  0  0  0  0  0  0  0  0
   56.1172   31.7902   41.3356 H   0  0  0  0  0  0  0  0  0  0  0  0
   57.2606   33.5995   44.0822 H   0  0  0  0  0  0  0  0  0  0  0  0
   58.9072   34.3322   45.7985 H   0  0  0  0  0  0  0  0  0  0  0  0
   59.0564   33.7137   48.5615 H   0  0  0  0  0  0  0  0  0  0  0  0
   60.7162   34.4530   50.3073 H   0  0  0  0  0  0  0  0  0  0  0  0
   62.2928   31.8975   46.2581 H   0  0  0  0  0  0  0  0  0  0  0  0
   64.7560   32.2030   47.5130 H   0  0  0  0  0  0  0  0  0  0  0  0
   65.5375   33.3346   49.7283 H   0  0  0  0  0  0  0  0  0  0  0  0
   63.4468   33.7865   52.0969 H   0  0  0  0  0  0  0  0  0  0  0  0
   64.3691   35.1476   51.3735 H   0  0  0  0  0  0  0  0  0  0  0  0
   62.5731   35.1794   51.3735 H   0  0  0  0  0  0  0  0  0  0  0  0
   60.0145   30.2042   46.5014 H   0  0  0  0  0  0  0  0  0  0  0  0
   58.3680   29.4707   44.7853 H   0  0  0  0  0  0  0  0  0  0  0  0
  1  2  1  0
  2  3  1  0
  2  4  1  0
  4  5  2  0
  5  6  1  0
  6  7  2  0
  7  8  1  0
  8  9  2  0
  9 10  1  0
 10 11  2  0
 11 12  1  0
 12 13  2  0
 12 14  1  0
 14 15  2  0
 15 16  1  0
 16 17  1  0
  7 18  1  0
 18 19  2  0
 19  4  1  0
 13  8  1  0
 16 11  1  0
  1 20  1  0
  1 21  1  0
  1 22  1  0
  2 23  1  0
  3 24  1  0
  3 25  1  0
  3 26  1  0
  5 27  1  0
  6 28  1  0
  9 29  1  0
 10 30  1  0
 13 31  1  0
 14 32  1  0
 15 33  1  0
 17 34  1  0
 17 35  1  0
 17 36  1  0
 18 37  1  0
 19 38  1  0
M  CHG  1  14   1
M  END
>  <UniqueID>  (17) 
17

>  <SMILES>  (17) 
CC(C)c1ccc(-c2ccc3c(c2)[nH+]cn3C)cc1

>  <Energy>  (17) 
79.65350131255524

>  <Genealogy>  (17) 
CC(C)c1ccc(-c2ccc3c(c2)[nH+]cn3C)cc1 (protonated)
CC(C)c1ccc(-c2ccc3c(c2)[nH+]cn3C)cc1 (3D coordinates assigned)
CC(C)c1ccc(-c2ccc3c(c2)[nH+]cn3C)cc1 (optimized conformer: 79.65350131255524 kcal/mol)

>  <smiles>  (17) 
CC(C)c1ccc(-c2ccc3c(c2)ncn3C)cc1

>  <score_type>  (17) 
oracle

>  <origin>  (17) 
adg

>  <m_score__min__energy>  (17) 
-5.9800000000000004

>  <m_primary>  (17) 
energy

$$$$
17:0
     RDKit          3D

 32 35  0  0  0  0  0  0  0  0999 V2000
   58.7590   35.2730   44.8720 F   0  0  0  0  0  0  0  0  0  0  0  0
   58.6510   33.9310   45.0310 C   0  0  0  0  0  0  0  0  0  0  0  0
   59.2840   33.3060   46.1060 C   0  0  0  0  0  0  0  0  0  0  0  0
   59.1900   31.9160   46.2910 C   0  0  0  0  0  0  0  0  0  0  0  0
   59.8780   31.3040   47.4930 C   0  0  0  0  0  0  0  0  0  0  0  0
   61.2510   31.7950   47.5990 N   0  0  0  0  0  0  0  0  0  0  0  0
   62.3930   31.2170   47.1260 C   0  0  0  0  0  0  0  0  0  0  0  0
   63.5200   31.8740   47.5250 N   0  0  0  0  0  0  0  0  0  0  0  0
   63.0380   32.8790   48.2710 C   0  0  0  0  0  0  0  0  0  0  0  0
   63.6270   33.8450   49.0700 C   0  0  0  0  0  0  0  0  0  0  0  0
   62.6280   34.5650   49.7510 C   0  0  0  0  0  0  0  0  0  0  0  0
   61.0660   33.9590   49.3610 S   0  0  0  0  0  0  0  0  0  0  0  0
   61.7140   32.8280   48.3130 C   0  0  0  0  0  0  0  0  0  0  0  0
   58.4220   31.1450   45.3770 C   0  0  0  0  0  0  0  0  0  0  0  0
   58.2680   29.7490   45.5140 C   0  0  0  0  0  0  0  0  0  0  0  0
   57.5040   29.0230   44.5960 C   0  0  0  0  0  0  0  0  0  0  0  0
   56.8840   29.6710   43.5280 C   0  0  0  0  0  0  0  0  0  0  0  0
   57.0210   31.0500   43.3720 C   0  0  0  0  0  0  0  0  0  0  0  0
   57.7830   31.7950   44.2850 C   0  0  0  0  0  0  0  0  0  0  0  0
   57.9070   33.1810   44.1240 C   0  0  0  0  0  0  0  0  0  0  0  0
   59.8648   33.9098   46.8188 H   0  0  0  0  0  0  0  0  0  0  0  0
   59.3247   31.5751   48.4043 H   0  0  0  0  0  0  0  0  0  0  0  0
   59.8982   30.2106   47.3743 H   0  0  0  0  0  0  0  0  0  0  0  0
   62.4037   30.3185   46.4916 H   0  0  0  0  0  0  0  0  0  0  0  0
   64.5170   31.6230   47.3390 H   0  0  0  0  0  0  0  0  0  0  0  0
   64.7090   34.0221   49.1586 H   0  0  0  0  0  0  0  0  0  0  0  0
   62.8198   35.4015   50.4391 H   0  0  0  0  0  0  0  0  0  0  0  0
   58.7540   29.2271   46.3515 H   0  0  0  0  0  0  0  0  0  0  0  0
   57.3912   27.9354   44.7165 H   0  0  0  0  0  0  0  0  0  0  0  0
   56.2860   29.0935   42.8076 H   0  0  0  0  0  0  0  0  0  0  0  0
   56.5290   31.5566   42.5286 H   0  0  0  0  0  0  0  0  0  0  0  0
   57.4139   33.6795   43.2764 H   0  0  0  0  0  0  0  0  0  0  0  0
  1  2  1  0
  2  3  2  0
  3  4  1  0
  4  5  1  0
  5  6  1  0
  6  7  1  0
  7  8  2  0
  8  9  1  0
  9 10  1  0
 10 11  2  0
 11 12  1  0
 12 13  1  0
  4 14  2  0
 14 15  1  0
 15 16  2  0
 16 17  1  0
 17 18  2  0
 18 19  1  0
 19 20  2  0
 20  2  1  0
 13  6  1  0
 19 14  1  0
 13  9  2  0
  3 21  1  0
  5 22  1  0
  5 23  1  0
  7 24  1  0
  8 25  1  0
 10 26  1  0
 11 27  1  0
 15 28  1  0
 16 29  1  0
 17 30  1  0
 18 31  1  0
 20 32  1  0
M  CHG  1   8   1
M  END
>  <UniqueID>  (18) 
18

>  <SMILES>  (18) 
Fc1cc(Cn2c[nH+]c3ccsc32)c2ccccc2c1

>  <Energy>  (18) 
122.54189085936666

>  <Genealogy>  (18) 
Fc1cc(Cn2c[nH+]c3ccsc32)c2ccccc2c1 (protonated)
Fc1cc(Cn2c[nH+]c3ccsc32)c2ccccc2c1 (3D coordinates assigned)
Fc1cc(Cn2c[nH+]c3ccsc32)c2ccccc2c1 (optimized conformer: 122.54189085936666 kcal/mol)

>  <smiles>  (18) 
Fc1cc(Cn2cnc3ccsc32)c2ccccc2c1

>  <score_type>  (18) 
oracle

>  <origin>  (18) 
adg

>  <m_score__min__energy>  (18) 
-6.0199999999999996

>  <m_primary>  (18) 
energy

$$$$
18:0
     RDKit          3D

 62 63  0  0  0  0  0  0  0  0999 V2000
   63.9440   32.5440   49.4370 C   0  0  0  0  0  0  0  0  0  0  0  0
   63.0600   31.8820   48.3730 C   0  0  0  0  0  0  0  0  0  0  0  0
   61.8470   32.6740   48.0420 N   0  0  0  0  0  0  0  0  0  0  0  0
   61.9590   33.4240   46.7600 C   0  0  0  0  0  0  0  0  0  0  0  0
   63.3900   33.8420   46.3860 C   0  0  0  0  0  0  0  0  0  0  0  0
   61.4780   33.5890   49.1570 C   0  0  0  0  0  0  0  0  0  0  0  0
   60.4760   32.9690   50.1520 C   0  0  0  0  0  0  0  0  0  0  0  0
   59.8460   31.8510   49.5640 O   0  0  0  0  0  0  0  0  0  0  0  0
   60.1750   30.6850   50.2880 C   0  0  0  0  0  0  0  0  0  0  0  0
   60.7010   29.6130   49.3340 C   0  0  0  0  0  0  0  0  0  0  0  0
   60.7450   30.1050   47.9940 O   0  0  0  0  0  0  0  0  0  0  0  0
   59.9310   29.6790   46.9300 C   0  0  0  0  0  0  0  0  0  0  0  0
   59.8440   28.3320   46.5340 C   0  0  0  0  0  0  0  0  0  0  0  0
   59.0160   27.9560   45.4760 C   0  0  0  0  0  0  0  0  0  0  0  0
   58.2560   28.9160   44.7970 C   0  0  0  0  0  0  0  0  0  0  0  0
   57.4320   28.5410   43.7240 C   0  0  0  0  0  0  0  0  0  0  0  0
   56.6830   29.5040   43.0430 C   0  0  0  0  0  0  0  0  0  0  0  0
   56.7460   30.8430   43.4310 C   0  0  0  0  0  0  0  0  0  0  0  0
   57.5600   31.2300   44.4970 C   0  0  0  0  0  0  0  0  0  0  0  0
   58.3250   30.2750   45.1910 C   0  0  0  0  0  0  0  0  0  0  0  0
   59.1750   30.6480   46.2510 C   0  0  0  0  0  0  0  0  0  0  0  0
   59.2930   31.9880   46.6290 O   0  0  0  0  0  0  0  0  0  0  0  0
   58.2440   32.6510   47.3230 C   0  0  0  0  0  0  0  0  0  0  0  0
   57.5710   33.7050   46.4270 C   0  0  0  0  0  0  0  0  0  0  0  0
   58.4870   34.7020   45.8270 N   0  0  0  0  0  0  0  0  0  0  0  0
   59.4080   35.3120   46.7990 C   0  0  0  0  0  0  0  0  0  0  0  0
   59.2050   34.2040   44.6440 C   0  0  0  0  0  0  0  0  0  0  0  0
   63.5794   32.2710   50.4383 H   0  0  0  0  0  0  0  0  0  0  0  0
   64.9817   32.1990   49.3180 H   0  0  0  0  0  0  0  0  0  0  0  0
   63.9050   33.6368   49.3180 H   0  0  0  0  0  0  0  0  0  0  0  0
   63.6540   31.7532   47.4562 H   0  0  0  0  0  0  0  0  0  0  0  0
   62.7194   30.9203   48.7842 H   0  0  0  0  0  0  0  0  0  0  0  0
   61.0570   32.0000   47.9080 H   0  0  0  0  0  0  0  0  0  0  0  0
   61.5661   32.7866   45.9542 H   0  0  0  0  0  0  0  0  0  0  0  0
   61.3870   34.3543   46.8921 H   0  0  0  0  0  0  0  0  0  0  0  0
   63.9736   34.0125   47.3027 H   0  0  0  0  0  0  0  0  0  0  0  0
   63.8621   33.0442   45.7938 H   0  0  0  0  0  0  0  0  0  0  0  0
   63.3584   34.7685   45.7938 H   0  0  0  0  0  0  0  0  0  0  0  0
   62.3931   33.8573   49.7053 H   0  0  0  0  0  0  0  0  0  0  0  0
   60.9895   34.4667   48.7087 H   0  0  0  0  0  0  0  0  0  0  0  0
   61.0115   32.6511   51.0588 H   0  0  0  0  0  0  0  0  0  0  0  0
   59.7144   33.7182   50.4139 H   0  0  0  0  0  0  0  0  0  0  0  0
   60.9496   30.9236   51.0317 H   0  0  0  0  0  0  0  0  0  0  0  0
   59.2755   30.3080   50.7967 H   0  0  0  0  0  0  0  0  0  0  0  0
   61.7149   29.3201   49.6442 H   0  0  0  0  0  0  0  0  0  0  0  0
   60.0246   28.7463   49.3697 H   0  0  0  0  0  0  0  0  0  0  0  0
   60.4337   27.5688   47.0629 H   0  0  0  0  0  0  0  0  0  0  0  0
   58.9600   26.8998   45.1737 H   0  0  0  0  0  0  0  0  0  0  0  0
   57.3759   27.4858   43.4185 H   0  0  0  0  0  0  0  0  0  0  0  0
   56.0426   29.2062   42.1996 H   0  0  0  0  0  0  0  0  0  0  0  0
   56.1515   31.5970   42.8944 H   0  0  0  0  0  0  0  0  0  0  0  0
   57.6035   32.2877   44.7960 H   0  0  0  0  0  0  0  0  0  0  0  0
   57.4928   31.9096   47.6330 H   0  0  0  0  0  0  0  0  0  0  0  0
   58.6701   33.1579   48.2014 H   0  0  0  0  0  0  0  0  0  0  0  0
   57.0584   33.1783   45.6086 H   0  0  0  0  0  0  0  0  0  0  0  0
   56.8907   34.2708   47.0805 H   0  0  0  0  0  0  0  0  0  0  0  0
   59.0663   35.0857   47.8198 H   0  0  0  0  0  0  0  0  0  0  0  0
   60.4190   34.9044   46.6519 H   0  0  0  0  0  0  0  0  0  0  0  0
   59.4271   36.4020   46.6519 H   0  0  0  0  0  0  0  0  0  0  0  0
   60.0695   33.6044   44.9652 H   0  0  0  0  0  0  0  0  0  0  0  0
   58.5294   33.5796   44.0410 H   0  0  0  0  0  0  0  0  0  0  0  0
   59.5532   35.0556   44.0410 H   0  0  0  0  0  0  0  0  0  0  0  0
  1  2  1  0
  2  3  1  0
  3  4  1  0
  4  5  1  0
  3  6  1  0
  6  7  1  0
  7  8  1  0
  8  9  1  0
  9 10  1  0
 10 11  1  0
 11 12  1  0
 12 13  2  0
 13 14  1  0
 14 15  2  0
 15 16  1  0
 16 17  2  0
 17 18  1  0
 18 19  2  0
 19 20  1  0
 20 21  2  0
 21 22  1  0
 22 23  1  0
 23 24  1  0
 24 25  1  0
 25 26  1  0
 25 27  1  0
 21 12  1  0
 20 15  1  0
  1 28  1  0
  1 29  1  0
  1 30  1  0
  2 31  1  0
  2 32  1  0
  3 33  1  0
  4 34  1  0
  4 35  1  0
  5 36  1  0
  5 37  1  0
  5 38  1  0
  6 39  1  0
  6 40  1  0
  7 41  1  0
  7 42  1  0
  9 43  1  0
  9 44  1  0
 10 45  1  0
 10 46  1  0
 13 47  1  0
 14 48  1  0
 16 49  1  0
 17 50  1  0
 18 51  1  0
 19 52  1  0
 23 53  1  0
 23 54  1  0
 24 55  1  0
 24 56  1  0
 26 57  1  0
 26 58  1  0
 26 59  1  0
 27 60  1  0
 27 61  1  0
 27 62  1  0
M  CHG  1   3   1
M  END
>  <UniqueID>  (19) 
19

>  <SMILES>  (19) 
CC[NH+](CC)CCOCCOc1ccc2ccccc2c1OCCN(C)C

>  <Energy>  (19) 
69.42097437488927

>  <Genealogy>  (19) 
CC[NH+](CC)CCOCCOc1ccc2ccccc2c1OCCN(C)C (protonated)
CC[NH+](CC)CCOCCOc1ccc2ccccc2c1OCCN(C)C (3D coordinates assigned)
CC[NH+](CC)CCOCCOc1ccc2ccccc2c1OCCN(C)C (optimized conformer: 69.42097437488927 kcal/mol)

>  <smiles>  (19) 
CCN(CC)CCOCCOc1ccc2ccccc2c1OCCN(C)C

>  <score_type>  (19) 
oracle

>  <origin>  (19) 
adg

>  <m_score__min__energy>  (19) 
-4.0499999999999998

>  <m_primary>  (19) 
energy

$$$$
19:0
     RDKit          3D

 57 59  0  0  0  0  0  0  0  0999 V2000
   61.1650   26.3490   46.3560 C   0  0  0  0  0  0  0  0  0  0  0  0
   59.7280   26.1520   46.8300 C   0  0  0  0  0  0  0  0  0  0  0  0
   59.0950   27.4630   47.1000 N   0  0  0  0  0  0  0  0  0  0  0  0
   57.6680   27.4580   46.7010 C   0  0  0  0  0  0  0  0  0  0  0  0
   57.5400   27.3270   45.1850 C   0  0  0  0  0  0  0  0  0  0  0  0
   59.2500   27.8470   48.5220 C   0  0  0  0  0  0  0  0  0  0  0  0
   60.0370   29.1580   48.6330 C   0  0  0  0  0  0  0  0  0  0  0  0
   60.3680   29.6780   47.3070 N   0  0  0  0  0  0  0  0  0  0  0  0
   60.2830   31.0800   47.0050 C   0  0  0  0  0  0  0  0  0  0  0  0
   59.2170   31.5720   46.2320 C   0  0  0  0  0  0  0  0  0  0  0  0
   58.2690   30.6910   45.6700 C   0  0  0  0  0  0  0  0  0  0  0  0
   57.2170   31.1750   44.8750 C   0  0  0  0  0  0  0  0  0  0  0  0
   56.2480   30.3320   44.3110 O   0  0  0  0  0  0  0  0  0  0  0  0
   56.3410   29.7510   43.0140 C   0  0  0  0  0  0  0  0  0  0  0  0
   57.1300   32.5420   44.6240 C   0  0  0  0  0  0  0  0  0  0  0  0
   58.0540   33.4290   45.1780 C   0  0  0  0  0  0  0  0  0  0  0  0
   59.0950   32.9700   46.0220 C   0  0  0  0  0  0  0  0  0  0  0  0
   59.9810   33.8420   46.6260 N   0  0  0  0  0  0  0  0  0  0  0  0
   59.6880   35.2920   46.6580 C   0  0  0  0  0  0  0  0  0  0  0  0
   61.1330   33.3560   47.2180 C   0  0  0  0  0  0  0  0  0  0  0  0
   62.1940   34.2140   47.6020 C   0  0  0  0  0  0  0  0  0  0  0  0
   63.3370   33.7150   48.2250 C   0  0  0  0  0  0  0  0  0  0  0  0
   63.4730   32.3420   48.4650 C   0  0  0  0  0  0  0  0  0  0  0  0
   64.6050   31.7950   49.0880 O   0  0  0  0  0  0  0  0  0  0  0  0
   65.3530   32.4440   50.1110 C   0  0  0  0  0  0  0  0  0  0  0  0
   62.4560   31.4770   48.0620 C   0  0  0  0  0  0  0  0  0  0  0  0
   61.2870   31.9630   47.4390 C   0  0  0  0  0  0  0  0  0  0  0  0
   61.8295   26.4401   47.2279 H   0  0  0  0  0  0  0  0  0  0  0  0
   61.4727   25.4846   45.7492 H   0  0  0  0  0  0  0  0  0  0  0  0
   61.2287   27.2643   45.7492 H   0  0  0  0  0  0  0  0  0  0  0  0
   59.1570   25.6263   46.0505 H   0  0  0  0  0  0  0  0  0  0  0  0
   59.7334   25.5582   47.7560 H   0  0  0  0  0  0  0  0  0  0  0  0
   57.1600   26.6094   47.1824 H   0  0  0  0  0  0  0  0  0  0  0  0
   57.2054   28.4044   47.0179 H   0  0  0  0  0  0  0  0  0  0  0  0
   56.7897   26.5591   44.9454 H   0  0  0  0  0  0  0  0  0  0  0  0
   57.2266   28.2914   44.7588 H   0  0  0  0  0  0  0  0  0  0  0  0
   58.5114   27.0361   44.7588 H   0  0  0  0  0  0  0  0  0  0  0  0
   58.2556   27.9807   48.9728 H   0  0  0  0  0  0  0  0  0  0  0  0
   59.7980   27.0532   49.0507 H   0  0  0  0  0  0  0  0  0  0  0  0
   59.4278   29.9001   49.1698 H   0  0  0  0  0  0  0  0  0  0  0  0
   60.9718   28.9633   49.1791 H   0  0  0  0  0  0  0  0  0  0  0  0
   60.6250   29.0100   46.5450 H   0  0  0  0  0  0  0  0  0  0  0  0
   58.3549   29.6104   45.8570 H   0  0  0  0  0  0  0  0  0  0  0  0
   56.5142   28.6688   43.1085 H   0  0  0  0  0  0  0  0  0  0  0  0
   55.4034   29.9258   42.4659 H   0  0  0  0  0  0  0  0  0  0  0  0
   57.1772   30.2097   42.4659 H   0  0  0  0  0  0  0  0  0  0  0  0
   56.3240   32.9269   43.9819 H   0  0  0  0  0  0  0  0  0  0  0  0
   57.9726   34.5032   44.9555 H   0  0  0  0  0  0  0  0  0  0  0  0
   59.6198   35.6293   47.7028 H   0  0  0  0  0  0  0  0  0  0  0  0
   60.4935   35.8402   46.1475 H   0  0  0  0  0  0  0  0  0  0  0  0
   58.7328   35.4844   46.1475 H   0  0  0  0  0  0  0  0  0  0  0  0
   62.1140   35.2932   47.4048 H   0  0  0  0  0  0  0  0  0  0  0  0
   64.1378   34.4047   48.5302 H   0  0  0  0  0  0  0  0  0  0  0  0
   64.9828   32.1228   51.0958 H   0  0  0  0  0  0  0  0  0  0  0  0
   66.4156   32.1769   50.0138 H   0  0  0  0  0  0  0  0  0  0  0  0
   65.2384   33.5337   50.0138 H   0  0  0  0  0  0  0  0  0  0  0  0
   62.5672   30.3961   48.2329 H   0  0  0  0  0  0  0  0  0  0  0  0
  1  2  1  0
  2  3  1  0
  3  4  1  0
  4  5  1  0
  3  6  1  0
  6  7  1  0
  7  8  1  0
  8  9  1  0
  9 10  2  0
 10 11  1  0
 11 12  2  0
 12 13  1  0
 13 14  1  0
 12 15  1  0
 15 16  2  0
 16 17  1  0
 17 18  2  0
 18 19  1  0
 18 20  1  0
 20 21  2  0
 21 22  1  0
 22 23  2  0
 23 24  1  0
 24 25  1  0
 23 26  1  0
 26 27  2  0
 27  9  1  0
 17 10  1  0
 27 20  1  0
  1 28  1  0
  1 29  1  0
  1 30  1  0
  2 31  1  0
  2 32  1  0
  4 33  1  0
  4 34  1  0
  5 35  1  0
  5 36  1  0
  5 37  1  0
  6 38  1  0
  6 39  1  0
  7 40  1  0
  7 41  1  0
  8 42  1  0
 11 43  1  0
 14 44  1  0
 14 45  1  0
 14 46  1  0
 15 47  1  0
 16 48  1  0
 19 49  1  0
 19 50  1  0
 19 51  1  0
 21 52  1  0
 22 53  1  0
 25 54  1  0
 25 55  1  0
 25 56  1  0
 26 57  1  0
M  CHG  1  18   1
M  END
>  <UniqueID>  (20) 
20

>  <SMILES>  (20) 
CCN(CC)CCNc1c2cc(OC)ccc2[n+](C)c2ccc(OC)cc12

>  <Energy>  (20) 
79.17696790618517

>  <Genealogy>  (20) 
CCN(CC)CCNc1c2cc(OC)ccc2[n+](C)c2ccc(OC)cc12 (3D coordinates assigned)
CCN(CC)CCNc1c2cc(OC)ccc2[n+](C)c2ccc(OC)cc12 (optimized conformer: 79.17696790618517 kcal/mol)

>  <smiles>  (20) 
CCN(CC)CCNc1c2cc(OC)ccc2[n+](C)c2ccc(OC)cc12

>  <score_type>  (20) 
oracle

>  <origin>  (20) 
adg

>  <m_score__min__energy>  (20) 
-5.4699999999999998

>  <m_primary>  (20) 
energy

$$$$
20:0
     RDKit          3D

 47 49  0  0  0  0  0  0  0  0999 V2000
   63.3500   33.8600   46.0190 C   0  0  0  0  0  0  0  0  0  0  0  0
   63.3260   33.7190   47.5440 C   0  0  0  0  0  0  0  0  0  0  0  0
   64.1850   32.6220   48.0230 N   0  0  0  0  0  0  0  0  0  0  0  0
   63.5570   31.8600   49.1170 C   0  0  0  0  0  0  0  0  0  0  0  0
   62.0280   31.9010   48.9990 C   0  0  0  0  0  0  0  0  0  0  0  0
   61.5030   30.7150   48.1830 C   0  0  0  0  0  0  0  0  0  0  0  0
   60.0500   30.7910   48.0370 N   0  0  0  0  0  0  0  0  0  0  0  0
   59.4270   30.8890   46.7450 C   0  0  0  0  0  0  0  0  0  0  0  0
   59.1690   32.1470   46.1720 C   0  0  0  0  0  0  0  0  0  0  0  0
   59.6310   33.3280   46.7880 C   0  0  0  0  0  0  0  0  0  0  0  0
   59.4090   34.5710   46.1990 C   0  0  0  0  0  0  0  0  0  0  0  0
   58.7430   34.6560   44.9810 C   0  0  0  0  0  0  0  0  0  0  0  0
   58.2840   33.5000   44.3500 C   0  0  0  0  0  0  0  0  0  0  0  0
   58.4630   32.2220   44.9410 C   0  0  0  0  0  0  0  0  0  0  0  0
   57.9930   31.0700   44.3400 N   0  0  0  0  0  0  0  0  0  0  0  0
   57.0220   31.1580   43.2270 C   0  0  0  0  0  0  0  0  0  0  0  0
   58.4160   29.8330   44.7910 C   0  0  0  0  0  0  0  0  0  0  0  0
   58.1850   28.6460   44.0490 C   0  0  0  0  0  0  0  0  0  0  0  0
   58.5710   27.4010   44.5420 C   0  0  0  0  0  0  0  0  0  0  0  0
   59.2080   27.3020   45.7750 C   0  0  0  0  0  0  0  0  0  0  0  0
   59.6880   25.7310   46.3910 Cl  0  0  0  0  0  0  0  0  0  0  0  0
   59.4870   28.4530   46.5090 C   0  0  0  0  0  0  0  0  0  0  0  0
   59.1150   29.7250   46.0230 C   0  0  0  0  0  0  0  0  0  0  0  0
   63.5290   34.9117   45.7508 H   0  0  0  0  0  0  0  0  0  0  0  0
   64.1545   33.2341   45.6055 H   0  0  0  0  0  0  0  0  0  0  0  0
   62.3837   33.5355   45.6055 H   0  0  0  0  0  0  0  0  0  0  0  0
   63.6754   34.6614   47.9909 H   0  0  0  0  0  0  0  0  0  0  0  0
   62.2925   33.4886   47.8420 H   0  0  0  0  0  0  0  0  0  0  0  0
   64.3560   31.9750   47.2180 H   0  0  0  0  0  0  0  0  0  0  0  0
   65.1080   33.0030   48.3380 H   0  0  0  0  0  0  0  0  0  0  0  0
   63.8949   30.8143   49.0689 H   0  0  0  0  0  0  0  0  0  0  0  0
   63.8497   32.3122   50.0761 H   0  0  0  0  0  0  0  0  0  0  0  0
   61.5893   31.8652   50.0071 H   0  0  0  0  0  0  0  0  0  0  0  0
   61.7432   32.8308   48.4848 H   0  0  0  0  0  0  0  0  0  0  0  0
   61.9673   30.7289   47.1859 H   0  0  0  0  0  0  0  0  0  0  0  0
   61.7573   29.7832   48.7094 H   0  0  0  0  0  0  0  0  0  0  0  0
   59.4510   30.8310   48.8920 H   0  0  0  0  0  0  0  0  0  0  0  0
   60.1724   33.2675   47.7436 H   0  0  0  0  0  0  0  0  0  0  0  0
   59.7608   35.4861   46.6978 H   0  0  0  0  0  0  0  0  0  0  0  0
   58.5777   35.6381   44.5139 H   0  0  0  0  0  0  0  0  0  0  0  0
   57.7748   33.5800   43.3782 H   0  0  0  0  0  0  0  0  0  0  0  0
   56.0045   31.2502   43.6346 H   0  0  0  0  0  0  0  0  0  0  0  0
   57.2509   32.0391   42.6095 H   0  0  0  0  0  0  0  0  0  0  0  0
   57.0888   30.2501   42.6095 H   0  0  0  0  0  0  0  0  0  0  0  0
   57.6926   28.7095   43.0674 H   0  0  0  0  0  0  0  0  0  0  0  0
   58.3713   26.4930   43.9540 H   0  0  0  0  0  0  0  0  0  0  0  0
   60.0025   28.3696   47.4772 H   0  0  0  0  0  0  0  0  0  0  0  0
  1  2  1  0
  2  3  1  0
  3  4  1  0
  4  5  1  0
  5  6  1  0
  6  7  1  0
  7  8  1  0
  8  9  2  0
  9 10  1  0
 10 11  2  0
 11 12  1  0
 12 13  2  0
 13 14  1  0
 14 15  2  0
 15 16  1  0
 15 17  1  0
 17 18  2  0
 18 19  1  0
 19 20  2  0
 20 21  1  0
 20 22  1  0
 22 23  2  0
 23  8  1  0
 14  9  1  0
 23 17  1  0
  1 24  1  0
  1 25  1  0
  1 26  1  0
  2 27  1  0
  2 28  1  0
  3 29  1  0
  3 30  1  0
  4 31  1  0
  4 32  1  0
  5 33  1  0
  5 34  1  0
  6 35  1  0
  6 36  1  0
  7 37  1  0
 10 38  1  0
 11 39  1  0
 12 40  1  0
 13 41  1  0
 16 42  1  0
 16 43  1  0
 16 44  1  0
 18 45  1  0
 19 46  1  0
 22 47  1  0
M  CHG  2   3   1  15   1
M  END
>  <UniqueID>  (21) 
21

>  <SMILES>  (21) 
CC[NH2+]CCCNc1c2ccccc2[n+](C)c2ccc(Cl)cc12

>  <Energy>  (21) 
67.85520841524084

>  <Genealogy>  (21) 
CC[NH2+]CCCNc1c2ccccc2[n+](C)c2ccc(Cl)cc12 (protonated)
CC[NH2+]CCCNc1c2ccccc2[n+](C)c2ccc(Cl)cc12 (3D coordinates assigned)
CC[NH2+]CCCNc1c2ccccc2[n+](C)c2ccc(Cl)cc12 (optimized conformer: 67.85520841524084 kcal/mol)

>  <smiles>  (21) 
CCNCCCNc1c2ccccc2[n+](C)c2ccc(Cl)cc12

>  <score_type>  (21) 
oracle

>  <origin>  (21) 
adg

>  <m_score__min__energy>  (21) 
-4.6799999999999997

>  <m_primary>  (21) 
energy

$$$$
21:0
     RDKit          3D

 50 52  0  0  0  0  0  0  0  0999 V2000
   61.7136   30.3956   46.4852 H   0  0  0  0  0  0  0  0  0  0  0  0
   60.8450   30.7800   47.0400 C   0  0  0  0  0  0  0  0  0  0  0  0
   61.0020   31.1340   48.2810 N   0  0  0  0  0  0  0  0  0  0  0  0
   60.0460   31.9390   49.0410 C   0  0  0  0  0  0  0  0  0  0  0  0
   59.6702   31.3505   49.8910 H   0  0  0  0  0  0  0  0  0  0  0  0
   59.2117   32.2224   48.3825 H   0  0  0  0  0  0  0  0  0  0  0  0
   60.7220   33.2070   49.5640 C   0  0  0  0  0  0  0  0  0  0  0  0
   61.1726   32.9920   50.5441 H   0  0  0  0  0  0  0  0  0  0  0  0
   59.9576   33.9939   49.6446 H   0  0  0  0  0  0  0  0  0  0  0  0
   61.8240   33.7050   48.6060 C   0  0  0  0  0  0  0  0  0  0  0  0
   62.0804   34.7420   48.8683 H   0  0  0  0  0  0  0  0  0  0  0  0
   61.4364   33.6382   47.5787 H   0  0  0  0  0  0  0  0  0  0  0  0
   63.0550   32.8700   48.6880 N   0  0  0  0  0  0  0  0  0  0  0  0
   62.7790   31.8840   48.9110 H   0  0  0  0  0  0  0  0  0  0  0  0
   63.9480   33.3710   49.7690 C   0  0  0  0  0  0  0  0  0  0  0  0
   63.4716   33.1749   50.7409 H   0  0  0  0  0  0  0  0  0  0  0  0
   64.1012   34.4482   49.6071 H   0  0  0  0  0  0  0  0  0  0  0  0
   65.3230   32.6930   49.7480 C   0  0  0  0  0  0  0  0  0  0  0  0
   65.6646   32.5246   50.7800 H   0  0  0  0  0  0  0  0  0  0  0  0
   65.2483   31.7285   49.2245 H   0  0  0  0  0  0  0  0  0  0  0  0
   66.0427   33.3395   49.2245 H   0  0  0  0  0  0  0  0  0  0  0  0
   63.7700   32.8800   47.3810 C   0  0  0  0  0  0  0  0  0  0  0  0
   64.8114   33.1913   47.5498 H   0  0  0  0  0  0  0  0  0  0  0  0
   63.7173   31.8648   46.9607 H   0  0  0  0  0  0  0  0  0  0  0  0
   63.1260   33.8390   46.3730 C   0  0  0  0  0  0  0  0  0  0  0  0
   62.5918   34.6344   46.9133 H   0  0  0  0  0  0  0  0  0  0  0  0
   63.9077   34.2860   45.7412 H   0  0  0  0  0  0  0  0  0  0  0  0
   62.4164   33.2846   45.7412 H   0  0  0  0  0  0  0  0  0  0  0  0
   59.5400   30.8750   46.3450 C   0  0  0  0  0  0  0  0  0  0  0  0
   59.0520   32.1280   45.9010 C   0  0  0  0  0  0  0  0  0  0  0  0
   59.7730   33.3280   46.0830 C   0  0  0  0  0  0  0  0  0  0  0  0
   60.7531   33.3064   46.5819 H   0  0  0  0  0  0  0  0  0  0  0  0
   59.2490   34.5440   45.6330 C   0  0  0  0  0  0  0  0  0  0  0  0
   59.8182   35.4735   45.7813 H   0  0  0  0  0  0  0  0  0  0  0  0
   58.0080   34.5840   44.9970 C   0  0  0  0  0  0  0  0  0  0  0  0
   57.6006   35.5440   44.6471 H   0  0  0  0  0  0  0  0  0  0  0  0
   57.2820   33.4060   44.8040 C   0  0  0  0  0  0  0  0  0  0  0  0
   56.3034   33.4404   44.3028 H   0  0  0  0  0  0  0  0  0  0  0  0
   57.7970   32.1820   45.2470 C   0  0  0  0  0  0  0  0  0  0  0  0
   57.0850   31.0440   45.0400 N   0  0  0  0  0  0  0  0  0  0  0  0
   57.5310   29.8290   45.4410 C   0  0  0  0  0  0  0  0  0  0  0  0
   56.7530   28.6930   45.1880 C   0  0  0  0  0  0  0  0  0  0  0  0
   55.7914   28.7928   44.6632 H   0  0  0  0  0  0  0  0  0  0  0  0
   57.1940   27.4330   45.6000 C   0  0  0  0  0  0  0  0  0  0  0  0
   56.5788   26.5432   45.4004 H   0  0  0  0  0  0  0  0  0  0  0  0
   58.4150   27.3020   46.2650 C   0  0  0  0  0  0  0  0  0  0  0  0
   58.7591   26.3084   46.5879 H   0  0  0  0  0  0  0  0  0  0  0  0
   59.2020   28.4290   46.5220 C   0  0  0  0  0  0  0  0  0  0  0  0
   60.1605   28.3175   47.0500 H   0  0  0  0  0  0  0  0  0  0  0  0
   58.7740   29.7090   46.1080 C   0  0  0  0  0  0  0  0  0  0  0  0
  1  2  1  0
  2  3  2  0
  3  4  1  0
  4  5  1  0
  4  6  1  0
  4  7  1  0
  7  8  1  0
  7  9  1  0
  7 10  1  0
 10 11  1  0
 10 12  1  0
 10 13  1  0
 13 14  1  0
 13 15  1  0
 15 16  1  0
 15 17  1  0
 15 18  1  0
 18 19  1  0
 18 20  1  0
 18 21  1  0
 13 22  1  0
 22 23  1  0
 22 24  1  0
 22 25  1  0
 25 26  1  0
 25 27  1  0
 25 28  1  0
  2 29  1  0
 29 30  2  0
 30 31  1  0
 31 32  1  0
 31 33  2  0
 33 34  1  0
 33 35  1  0
 35 36  1  0
 35 37  2  0
 37 38  1  0
 37 39  1  0
 39 40  2  0
 40 41  1  0
 41 42  2  0
 42 43  1  0
 42 44  1  0
 44 45  1  0
 44 46  2  0
 46 47  1  0
 46 48  1  0
 48 49  1  0
 48 50  2  0
 50 29  1  0
 39 30  1  0
 50 41  1  0
M  CHG  1  13   1
M  END
>  <UniqueID>  (22) 
22

>  <SMILES>  (22) 
CC[NH+](CC)CCC/N=C\c1c2ccccc2nc2ccccc12

>  <Energy>  (22) 
66.03538011966268

>  <Genealogy>  (22) 
CC[NH+](CC)CCCN=Cc1c2ccccc2nc2ccccc12 (protonated)
CC[NH+](CC)CCC/N=C\c1c2ccccc2nc2ccccc12 (cis-trans isomerization)
CC[NH+](CC)CCC/N=C\c1c2ccccc2nc2ccccc12 (3D coordinates assigned)
CC[NH+](CC)CCC/N=C\c1c2ccccc2nc2ccccc12 (optimized conformer: 66.03538011966268 kcal/mol)

>  <smiles>  (22) 
CCN(CC)CCCN=Cc1c2ccccc2nc2ccccc12

>  <score_type>  (22) 
oracle

>  <origin>  (22) 
adg

>  <m_score__min__energy>  (22) 
-6.3499999999999996

>  <m_primary>  (22) 
energy

$$$$
22:0
     RDKit          3D

 70 73  0  0  0  0  0  0  0  0999 V2000
   56.6840   31.0800   51.6410 C   0  0  0  0  0  0  0  0  0  0  0  0
   58.1750   30.8530   51.8910 C   0  0  0  0  0  0  0  0  0  0  0  0
   58.9880   32.0310   51.5020 N   0  0  0  0  0  0  0  0  0  0  0  0
   59.1170   33.0050   52.6210 C   0  0  0  0  0  0  0  0  0  0  0  0
   58.2000   34.2020   52.3870 C   0  0  0  0  0  0  0  0  0  0  0  0
   60.3210   31.5820   51.0300 C   0  0  0  0  0  0  0  0  0  0  0  0
   60.3740   31.4850   49.4980 C   0  0  0  0  0  0  0  0  0  0  0  0
   59.0560   31.7130   48.9030 N   0  0  0  0  0  0  0  0  0  0  0  0
   58.9030   31.7130   47.4780 C   0  0  0  0  0  0  0  0  0  0  0  0
   58.9980   32.9180   46.7440 C   0  0  0  0  0  0  0  0  0  0  0  0
   59.3650   34.1210   47.3810 C   0  0  0  0  0  0  0  0  0  0  0  0
   59.4920   35.3010   46.6530 C   0  0  0  0  0  0  0  0  0  0  0  0
   59.2730   35.3030   45.2800 C   0  0  0  0  0  0  0  0  0  0  0  0
   58.9000   34.1300   44.6240 C   0  0  0  0  0  0  0  0  0  0  0  0
   58.7210   32.9200   45.3370 C   0  0  0  0  0  0  0  0  0  0  0  0
   58.3040   31.7580   44.7070 N   0  0  0  0  0  0  0  0  0  0  0  0
   57.7120   31.7860   43.3590 C   0  0  0  0  0  0  0  0  0  0  0  0
   58.3820   30.5800   45.4070 C   0  0  0  0  0  0  0  0  0  0  0  0
   58.1960   29.2580   45.0000 C   0  0  0  0  0  0  0  0  0  0  0  0
   58.0080   28.6650   43.7470 C   0  0  0  0  0  0  0  0  0  0  0  0
   57.8560   27.2720   43.6820 C   0  0  0  0  0  0  0  0  0  0  0  0
   57.9190   26.4730   44.8510 C   0  0  0  0  0  0  0  0  0  0  0  0
   57.7470   25.0370   44.7740 N   0  0  0  0  0  0  0  0  0  0  0  0
   58.2620   24.1540   45.8350 C   0  0  0  0  0  0  0  0  0  0  0  0
   58.9310   22.9200   45.2350 C   0  0  0  0  0  0  0  0  0  0  0  0
   57.0340   24.4360   43.6350 C   0  0  0  0  0  0  0  0  0  0  0  0
   55.7540   23.7400   44.0940 C   0  0  0  0  0  0  0  0  0  0  0  0
   58.1670   27.0960   46.0950 C   0  0  0  0  0  0  0  0  0  0  0  0
   58.3200   28.4880   46.1410 C   0  0  0  0  0  0  0  0  0  0  0  0
   58.6180   29.2520   47.2210 N   0  0  0  0  0  0  0  0  0  0  0  0
   58.8650   28.7770   48.5860 C   0  0  0  0  0  0  0  0  0  0  0  0
   58.6460   30.5340   46.7650 C   0  0  0  0  0  0  0  0  0  0  0  0
   56.1587   31.1600   52.6042 H   0  0  0  0  0  0  0  0  0  0  0  0
   56.5454   32.0096   51.0695 H   0  0  0  0  0  0  0  0  0  0  0  0
   56.2750   30.2338   51.0695 H   0  0  0  0  0  0  0  0  0  0  0  0
   58.3294   30.6525   52.9615 H   0  0  0  0  0  0  0  0  0  0  0  0
   58.4970   29.9993   51.2765 H   0  0  0  0  0  0  0  0  0  0  0  0
   58.8385   32.5131   53.5646 H   0  0  0  0  0  0  0  0  0  0  0  0
   60.1583   33.3557   52.6730 H   0  0  0  0  0  0  0  0  0  0  0  0
   57.8829   34.6159   53.3556 H   0  0  0  0  0  0  0  0  0  0  0  0
   58.7410   34.9727   51.8184 H   0  0  0  0  0  0  0  0  0  0  0  0
   57.3150   33.8803   51.8184 H   0  0  0  0  0  0  0  0  0  0  0  0
   61.0809   32.3016   51.3688 H   0  0  0  0  0  0  0  0  0  0  0  0
   60.5147   30.5821   51.4454 H   0  0  0  0  0  0  0  0  0  0  0  0
   61.0752   32.2413   49.1154 H   0  0  0  0  0  0  0  0  0  0  0  0
   60.7063   30.4722   49.2263 H   0  0  0  0  0  0  0  0  0  0  0  0
   58.1940   31.5880   49.4810 H   0  0  0  0  0  0  0  0  0  0  0  0
   59.5530   34.1274   48.4648 H   0  0  0  0  0  0  0  0  0  0  0  0
   59.7665   36.2347   47.1657 H   0  0  0  0  0  0  0  0  0  0  0  0
   59.3946   36.2347   44.7080 H   0  0  0  0  0  0  0  0  0  0  0  0
   58.7424   34.1452   43.5355 H   0  0  0  0  0  0  0  0  0  0  0  0
   56.6163   31.8378   43.4408 H   0  0  0  0  0  0  0  0  0  0  0  0
   58.0812   32.6677   42.8146 H   0  0  0  0  0  0  0  0  0  0  0  0
   57.9963   30.8734   42.8146 H   0  0  0  0  0  0  0  0  0  0  0  0
   57.9800   29.2771   42.8335 H   0  0  0  0  0  0  0  0  0  0  0  0
   57.6850   26.7916   42.7073 H   0  0  0  0  0  0  0  0  0  0  0  0
   58.9979   24.7060   46.4381 H   0  0  0  0  0  0  0  0  0  0  0  0
   57.4196   23.8285   46.4630 H   0  0  0  0  0  0  0  0  0  0  0  0
   59.2860   22.2653   46.0445 H   0  0  0  0  0  0  0  0  0  0  0  0
   58.2050   22.3747   44.6141 H   0  0  0  0  0  0  0  0  0  0  0  0
   59.7841   23.2308   44.6141 H   0  0  0  0  0  0  0  0  0  0  0  0
   56.7750   25.2266   42.9154 H   0  0  0  0  0  0  0  0  0  0  0  0
   57.6904   23.6877   43.1668 H   0  0  0  0  0  0  0  0  0  0  0  0
   55.7205   23.7218   45.1933 H   0  0  0  0  0  0  0  0  0  0  0  0
   54.8808   24.2875   43.7096 H   0  0  0  0  0  0  0  0  0  0  0  0
   55.7389   22.7095   43.7096 H   0  0  0  0  0  0  0  0  0  0  0  0
   58.2389   26.4964   47.0144 H   0  0  0  0  0  0  0  0  0  0  0  0
   58.4813   29.5148   49.3060 H   0  0  0  0  0  0  0  0  0  0  0  0
   58.3526   27.8156   48.7380 H   0  0  0  0  0  0  0  0  0  0  0  0
   59.9463   28.6443   48.7380 H   0  0  0  0  0  0  0  0  0  0  0  0
  1  2  1  0
  2  3  1  0
  3  4  1  0
  4  5  1  0
  3  6  1  0
  6  7  1  0
  7  8  1  0
  8  9  1  0
  9 10  2  0
 10 11  1  0
 11 12  2  0
 12 13  1  0
 13 14  2  0
 14 15  1  0
 15 16  2  0
 16 17  1  0
 16 18  1  0
 18 19  1  0
 19 20  2  0
 20 21  1  0
 21 22  2  0
 22 23  1  0
 23 24  1  0
 24 25  1  0
 23 26  1  0
 26 27  1  0
 22 28  1  0
 28 29  2  0
 29 30  1  0
 30 31  1  0
 30 32  1  0
 32  9  1  0
 15 10  1  0
 32 18  2  0
 29 19  1  0
  1 33  1  0
  1 34  1  0
  1 35  1  0
  2 36  1  0
  2 37  1  0
  4 38  1  0
  4 39  1  0
  5 40  1  0
  5 41  1  0
  5 42  1  0
  6 43  1  0
  6 44  1  0
  7 45  1  0
  7 46  1  0
  8 47  1  0
 11 48  1  0
 12 49  1  0
 13 50  1  0
 14 51  1  0
 17 52  1  0
 17 53  1  0
 17 54  1  0
 20 55  1  0
 21 56  1  0
 24 57  1  0
 24 58  1  0
 25 59  1  0
 25 60  1  0
 25 61  1  0
 26 62  1  0
 26 63  1  0
 27 64  1  0
 27 65  1  0
 27 66  1  0
 28 67  1  0
 31 68  1  0
 31 69  1  0
 31 70  1  0
M  CHG  1  16   1
M  END
>  <UniqueID>  (23) 
23

>  <SMILES>  (23) 
CCN(CC)CCNc1c2ccccc2[n+](C)c2c3ccc(N(CC)CC)cc3n(C)c12

>  <Energy>  (23) 
134.56382034662656

>  <Genealogy>  (23) 
CCN(CC)CCNc1c2ccccc2[n+](C)c2c3ccc(N(CC)CC)cc3n(C)c12 (3D coordinates assigned)
CCN(CC)CCNc1c2ccccc2[n+](C)c2c3ccc(N(CC)CC)cc3n(C)c12 (optimized conformer: 134.56382034662656 kcal/mol)

>  <smiles>  (23) 
CCN(CC)CCNc1c2ccccc2[n+](C)c2c3ccc(N(CC)CC)cc3n(C)c12

>  <score_type>  (23) 
oracle

>  <origin>  (23) 
adg

>  <m_score__min__energy>  (23) 
-6.75

>  <m_primary>  (23) 
energy

$$$$
23:0
     RDKit          3D

 49 51  0  0  0  0  0  0  0  0999 V2000
   63.2170   32.5990   47.7670 C   0  0  0  0  0  0  0  0  0  0  0  0
   62.7720   32.7940   49.2120 C   0  0  0  0  0  0  0  0  0  0  0  0
   61.5710   31.9960   49.4760 N   0  0  0  0  0  0  0  0  0  0  0  0
   61.7830   30.5950   49.0970 C   0  0  0  0  0  0  0  0  0  0  0  0
   60.8480   30.1990   47.9420 C   0  0  0  0  0  0  0  0  0  0  0  0
   59.5140   30.8290   48.0320 N   0  0  0  0  0  0  0  0  0  0  0  0
   59.0480   31.3360   46.7450 C   0  0  0  0  0  0  0  0  0  0  0  0
   59.2970   32.6900   46.3810 C   0  0  0  0  0  0  0  0  0  0  0  0
   59.9780   33.5840   47.2470 C   0  0  0  0  0  0  0  0  0  0  0  0
   60.1540   34.9230   46.9110 C   0  0  0  0  0  0  0  0  0  0  0  0
   59.6500   35.4120   45.7150 C   0  0  0  0  0  0  0  0  0  0  0  0
   59.0050   34.5560   44.8300 C   0  0  0  0  0  0  0  0  0  0  0  0
   58.8540   33.1740   45.1180 C   0  0  0  0  0  0  0  0  0  0  0  0
   58.2830   32.3140   44.2050 N   0  0  0  0  0  0  0  0  0  0  0  0
   58.1400   32.7310   42.7910 C   0  0  0  0  0  0  0  0  0  0  0  0
   57.8830   31.0530   44.5950 C   0  0  0  0  0  0  0  0  0  0  0  0
   57.0440   30.2680   43.7640 C   0  0  0  0  0  0  0  0  0  0  0  0
   56.7120   28.9630   44.0980 C   0  0  0  0  0  0  0  0  0  0  0  0
   57.1900   28.3870   45.2700 C   0  0  0  0  0  0  0  0  0  0  0  0
   56.8600   27.0140   45.5610 N   0  0  0  0  0  0  0  0  0  0  0  0
   57.3480   26.2900   46.7300 C   0  0  0  0  0  0  0  0  0  0  0  0
   57.9720   29.1650   46.1400 C   0  0  0  0  0  0  0  0  0  0  0  0
   58.3020   30.5140   45.8440 C   0  0  0  0  0  0  0  0  0  0  0  0
   64.2244   32.1576   47.7500 H   0  0  0  0  0  0  0  0  0  0  0  0
   62.5134   31.9267   47.2542 H   0  0  0  0  0  0  0  0  0  0  0  0
   63.2343   33.5720   47.2542 H   0  0  0  0  0  0  0  0  0  0  0  0
   63.5784   32.4742   49.8883 H   0  0  0  0  0  0  0  0  0  0  0  0
   62.5449   33.8570   49.3808 H   0  0  0  0  0  0  0  0  0  0  0  0
   61.3770   32.0290   50.5040 H   0  0  0  0  0  0  0  0  0  0  0  0
   62.8274   30.4607   48.7789 H   0  0  0  0  0  0  0  0  0  0  0  0
   61.5643   29.9559   49.9652 H   0  0  0  0  0  0  0  0  0  0  0  0
   61.3152   30.5031   46.9937 H   0  0  0  0  0  0  0  0  0  0  0  0
   60.7004   29.1104   47.9988 H   0  0  0  0  0  0  0  0  0  0  0  0
   58.8450   30.1870   48.5010 H   0  0  0  0  0  0  0  0  0  0  0  0
   59.5530   31.6130   48.7200 H   0  0  0  0  0  0  0  0  0  0  0  0
   60.3747   33.2114   48.2029 H   0  0  0  0  0  0  0  0  0  0  0  0
   60.6936   35.5945   47.5950 H   0  0  0  0  0  0  0  0  0  0  0  0
   59.7608   36.4779   45.4667 H   0  0  0  0  0  0  0  0  0  0  0  0
   58.6036   34.9573   43.8878 H   0  0  0  0  0  0  0  0  0  0  0  0
   57.7834   33.7708   42.7496 H   0  0  0  0  0  0  0  0  0  0  0  0
   59.1148   32.6573   42.2866 H   0  0  0  0  0  0  0  0  0  0  0  0
   57.4156   32.0746   42.2866 H   0  0  0  0  0  0  0  0  0  0  0  0
   56.6479   30.7031   42.8346 H   0  0  0  0  0  0  0  0  0  0  0  0
   56.0640   28.3779   43.4289 H   0  0  0  0  0  0  0  0  0  0  0  0
   56.2400   26.4950   44.9000 H   0  0  0  0  0  0  0  0  0  0  0  0
   57.0062   26.7971   47.6444 H   0  0  0  0  0  0  0  0  0  0  0  0
   56.9581   25.2616   46.7135 H   0  0  0  0  0  0  0  0  0  0  0  0
   58.4476   26.2655   46.7135 H   0  0  0  0  0  0  0  0  0  0  0  0
   58.3385   28.7172   47.0755 H   0  0  0  0  0  0  0  0  0  0  0  0
  1  2  1  0
  2  3  1  0
  3  4  1  0
  4  5  1  0
  5  6  1  0
  6  7  1  0
  7  8  2  0
  8  9  1  0
  9 10  2  0
 10 11  1  0
 11 12  2  0
 12 13  1  0
 13 14  2  0
 14 15  1  0
 14 16  1  0
 16 17  2  0
 17 18  1  0
 18 19  2  0
 19 20  1  0
 20 21  1  0
 19 22  1  0
 22 23  2  0
 23  7  1  0
 13  8  1  0
 23 16  1  0
  1 24  1  0
  1 25  1  0
  1 26  1  0
  2 27  1  0
  2 28  1  0
  3 29  1  0
  4 30  1  0
  4 31  1  0
  5 32  1  0
  5 33  1  0
  6 34  1  0
  6 35  1  0
  9 36  1  0
 10 37  1  0
 11 38  1  0
 12 39  1  0
 15 40  1  0
 15 41  1  0
 15 42  1  0
 17 43  1  0
 18 44  1  0
 20 45  1  0
 21 46  1  0
 21 47  1  0
 21 48  1  0
 22 49  1  0
M  CHG  2   6   1  14   1
M  END
>  <UniqueID>  (24) 
24

>  <SMILES>  (24) 
CCNCC[NH2+]c1c2ccccc2[n+](C)c2ccc(NC)cc12

>  <Energy>  (24) 
71.7689408253775

>  <Genealogy>  (24) 
CCNCC[NH2+]c1c2ccccc2[n+](C)c2ccc(NC)cc12 (protonated)
CCNCC[NH2+]c1c2ccccc2[n+](C)c2ccc(NC)cc12 (3D coordinates assigned)
CCNCC[NH2+]c1c2ccccc2[n+](C)c2ccc(NC)cc12 (optimized conformer: 71.7689408253775 kcal/mol)

>  <smiles>  (24) 
CCNCCNc1c2ccccc2[n+](C)c2ccc(NC)cc12

>  <score_type>  (24) 
oracle

>  <origin>  (24) 
adg

>  <m_score__min__energy>  (24) 
-3.8999999999999999

>  <m_primary>  (24) 
energy

$$$$
24:0
     RDKit          3D

 45 45  0  0  0  0  0  0  0  0999 V2000
   59.6940   30.1150   48.7770 C   0  0  0  0  0  0  0  0  0  0  0  0
   58.8640   31.1280   47.9970 C   0  0  0  0  0  0  0  0  0  0  0  0
   58.5770   30.6090   46.6520 N   0  0  0  0  0  0  0  0  0  0  0  0
   59.0690   29.2320   46.4900 C   0  0  0  0  0  0  0  0  0  0  0  0
   57.9290   28.2750   46.1140 C   0  0  0  0  0  0  0  0  0  0  0  0
   57.2600   28.6680   44.7890 C   0  0  0  0  0  0  0  0  0  0  0  0
   56.2410   29.7020   45.0180 N   0  0  0  0  0  0  0  0  0  0  0  0
   55.8370   30.3480   43.7610 C   0  0  0  0  0  0  0  0  0  0  0  0
   57.0610   30.9840   43.0910 C   0  0  0  0  0  0  0  0  0  0  0  0
   57.6120   32.1810   43.8780 C   0  0  0  0  0  0  0  0  0  0  0  0
   56.9340   32.3120   45.1750 N   0  0  0  0  0  0  0  0  0  0  0  0
   57.2870   33.5900   45.8080 C   0  0  0  0  0  0  0  0  0  0  0  0
   58.6700   34.0420   45.3360 C   0  0  0  0  0  0  0  0  0  0  0  0
   59.6300   34.0820   46.4840 C   0  0  0  0  0  0  0  0  0  0  0  0
   59.3240   34.4550   47.7880 C   0  0  0  0  0  0  0  0  0  0  0  0
   60.4060   34.3200   48.6660 C   0  0  0  0  0  0  0  0  0  0  0  0
   61.5560   33.8280   48.0630 C   0  0  0  0  0  0  0  0  0  0  0  0
   61.2280   33.5600   46.4350 S   0  0  0  0  0  0  0  0  0  0  0  0
   59.5573   30.2818   49.8557 H   0  0  0  0  0  0  0  0  0  0  0  0
   59.3671   29.0968   48.5191 H   0  0  0  0  0  0  0  0  0  0  0  0
   60.7566   30.2353   48.5191 H   0  0  0  0  0  0  0  0  0  0  0  0
   57.9177   31.3101   48.5274 H   0  0  0  0  0  0  0  0  0  0  0  0
   59.4280   32.0684   47.9099 H   0  0  0  0  0  0  0  0  0  0  0  0
   57.5350   30.5900   46.5370 H   0  0  0  0  0  0  0  0  0  0  0  0
   59.8293   29.2139   45.6953 H   0  0  0  0  0  0  0  0  0  0  0  0
   59.4996   28.9015   47.4467 H   0  0  0  0  0  0  0  0  0  0  0  0
   58.3366   27.2579   46.0178 H   0  0  0  0  0  0  0  0  0  0  0  0
   57.1679   28.3260   46.9066 H   0  0  0  0  0  0  0  0  0  0  0  0
   58.0230   29.0573   44.0989 H   0  0  0  0  0  0  0  0  0  0  0  0
   56.7769   27.7800   44.3554 H   0  0  0  0  0  0  0  0  0  0  0  0
   56.6670   30.4400   45.6270 H   0  0  0  0  0  0  0  0  0  0  0  0
   55.4005   29.5961   43.0871 H   0  0  0  0  0  0  0  0  0  0  0  0
   55.0919   31.1284   43.9752 H   0  0  0  0  0  0  0  0  0  0  0  0
   57.8515   30.2236   43.0078 H   0  0  0  0  0  0  0  0  0  0  0  0
   56.7454   31.3524   42.1037 H   0  0  0  0  0  0  0  0  0  0  0  0
   58.6891   32.0356   44.0476 H   0  0  0  0  0  0  0  0  0  0  0  0
   57.4353   33.0967   43.2947 H   0  0  0  0  0  0  0  0  0  0  0  0
   57.2840   31.5500   45.8010 H   0  0  0  0  0  0  0  0  0  0  0  0
   56.5415   34.3509   45.5335 H   0  0  0  0  0  0  0  0  0  0  0  0
   57.3023   33.4604   46.9002 H   0  0  0  0  0  0  0  0  0  0  0  0
   59.0418   33.3370   44.5779 H   0  0  0  0  0  0  0  0  0  0  0  0
   58.5866   35.0516   44.9073 H   0  0  0  0  0  0  0  0  0  0  0  0
   58.3333   34.8189   48.0980 H   0  0  0  0  0  0  0  0  0  0  0  0
   60.3504   34.5794   49.7335 H   0  0  0  0  0  0  0  0  0  0  0  0
   62.5177   33.6447   48.5645 H   0  0  0  0  0  0  0  0  0  0  0  0
  1  2  1  0
  2  3  1  0
  3  4  1  0
  4  5  1  0
  5  6  1  0
  6  7  1  0
  7  8  1  0
  8  9  1  0
  9 10  1  0
 10 11  1  0
 11 12  1  0
 12 13  1  0
 13 14  1  0
 14 15  2  0
 15 16  1  0
 16 17  2  0
 17 18  1  0
 18 14  1  0
  1 19  1  0
  1 20  1  0
  1 21  1  0
  2 22  1  0
  2 23  1  0
  3 24  1  0
  4 25  1  0
  4 26  1  0
  5 27  1  0
  5 28  1  0
  6 29  1  0
  6 30  1  0
  7 31  1  0
  8 32  1  0
  8 33  1  0
  9 34  1  0
  9 35  1  0
 10 36  1  0
 10 37  1  0
 11 38  1  0
 12 39  1  0
 12 40  1  0
 13 41  1  0
 13 42  1  0
 15 43  1  0
 16 44  1  0
 17 45  1  0
M  END
>  <UniqueID>  (25) 
25

>  <SMILES>  (25) 
CCNCCCNCCCNCCc1cccs1

>  <Energy>  (25) 
51.92527616116486

>  <Genealogy>  (25) 
CCNCCCNCCCNCCc1cccs1 (3D coordinates assigned)
CCNCCCNCCCNCCc1cccs1 (optimized conformer: 51.92527616116486 kcal/mol)

>  <smiles>  (25) 
CCNCCCNCCCNCCc1cccs1

>  <score_type>  (25) 
oracle

>  <origin>  (25) 
adg

>  <m_score__min__energy>  (25) 
-5

>  <m_primary>  (25) 
energy

$$$$
25:0
     RDKit          3D

 51 53  0  0  0  0  0  0  0  0999 V2000
   64.5760   33.0770   49.3680 C   0  0  0  0  0  0  0  0  0  0  0  0
   63.4520   32.1110   48.9680 C   0  0  0  0  0  0  0  0  0  0  0  0
   63.2450   31.9960   47.5030 N   0  0  0  0  0  0  0  0  0  0  0  0
   63.3870   33.3010   46.8150 C   0  0  0  0  0  0  0  0  0  0  0  0
   62.0210   33.8400   46.4020 C   0  0  0  0  0  0  0  0  0  0  0  0
   61.9800   31.3230   47.1220 C   0  0  0  0  0  0  0  0  0  0  0  0
   61.3740   30.4830   48.2610 C   0  0  0  0  0  0  0  0  0  0  0  0
   59.9410   30.2350   48.0730 N   0  0  0  0  0  0  0  0  0  0  0  0
   59.2440   30.5800   46.8610 C   0  0  0  0  0  0  0  0  0  0  0  0
   58.8780   31.9120   46.5960 C   0  0  0  0  0  0  0  0  0  0  0  0
   58.9600   32.9010   47.5990 C   0  0  0  0  0  0  0  0  0  0  0  0
   58.5780   34.2150   47.3390 C   0  0  0  0  0  0  0  0  0  0  0  0
   58.0830   34.5600   46.0870 C   0  0  0  0  0  0  0  0  0  0  0  0
   57.9660   33.5940   45.0870 C   0  0  0  0  0  0  0  0  0  0  0  0
   58.3720   32.2540   45.3130 C   0  0  0  0  0  0  0  0  0  0  0  0
   58.2620   31.2880   44.3320 N   0  0  0  0  0  0  0  0  0  0  0  0
   58.0310   31.6820   42.9250 C   0  0  0  0  0  0  0  0  0  0  0  0
   58.3790   29.9510   44.6660 C   0  0  0  0  0  0  0  0  0  0  0  0
   57.9850   28.9230   43.7740 C   0  0  0  0  0  0  0  0  0  0  0  0
   58.1640   27.5740   44.0970 C   0  0  0  0  0  0  0  0  0  0  0  0
   57.7670   26.5530   43.1750 N   0  0  0  0  0  0  0  0  0  0  0  0
   58.7310   27.2260   45.3220 C   0  0  0  0  0  0  0  0  0  0  0  0
   59.0930   28.2140   46.2330 C   0  0  0  0  0  0  0  0  0  0  0  0
   58.9050   29.5790   45.9310 C   0  0  0  0  0  0  0  0  0  0  0  0
   64.6395   33.1316   50.4648 H   0  0  0  0  0  0  0  0  0  0  0  0
   65.5323   32.7147   48.9629 H   0  0  0  0  0  0  0  0  0  0  0  0
   64.3615   34.0770   48.9629 H   0  0  0  0  0  0  0  0  0  0  0  0
   63.6973   31.1136   49.3616 H   0  0  0  0  0  0  0  0  0  0  0  0
   62.5203   32.5165   49.3892 H   0  0  0  0  0  0  0  0  0  0  0  0
   63.8682   34.0185   47.4959 H   0  0  0  0  0  0  0  0  0  0  0  0
   64.0016   33.1622   45.9133 H   0  0  0  0  0  0  0  0  0  0  0  0
   61.4315   34.0726   47.3011 H   0  0  0  0  0  0  0  0  0  0  0  0
   62.1529   34.7535   45.8036 H   0  0  0  0  0  0  0  0  0  0  0  0
   61.4936   33.0826   45.8036 H   0  0  0  0  0  0  0  0  0  0  0  0
   61.2500   32.0913   46.8275 H   0  0  0  0  0  0  0  0  0  0  0  0
   62.2114   30.6351   46.2954 H   0  0  0  0  0  0  0  0  0  0  0  0
   61.8970   29.5162   48.3034 H   0  0  0  0  0  0  0  0  0  0  0  0
   61.4959   31.0494   49.1961 H   0  0  0  0  0  0  0  0  0  0  0  0
   59.4410   29.6720   48.7970 H   0  0  0  0  0  0  0  0  0  0  0  0
   59.3303   32.6309   48.5990 H   0  0  0  0  0  0  0  0  0  0  0  0
   58.6681   34.9797   48.1246 H   0  0  0  0  0  0  0  0  0  0  0  0
   57.7824   35.5984   45.8837 H   0  0  0  0  0  0  0  0  0  0  0  0
   57.5522   33.8763   44.1076 H   0  0  0  0  0  0  0  0  0  0  0  0
   57.4748   32.6306   42.8965 H   0  0  0  0  0  0  0  0  0  0  0  0
   58.9980   31.8085   42.4161 H   0  0  0  0  0  0  0  0  0  0  0  0
   57.4484   30.8999   42.4161 H   0  0  0  0  0  0  0  0  0  0  0  0
   57.5297   29.1910   42.8092 H   0  0  0  0  0  0  0  0  0  0  0  0
   58.4770   26.0370   42.6100 H   0  0  0  0  0  0  0  0  0  0  0  0
   56.7600   26.3080   43.0490 H   0  0  0  0  0  0  0  0  0  0  0  0
   58.8929   26.1665   45.5696 H   0  0  0  0  0  0  0  0  0  0  0  0
   59.5311   27.9269   47.2003 H   0  0  0  0  0  0  0  0  0  0  0  0
  1  2  1  0
  2  3  1  0
  3  4  1  0
  4  5  1  0
  3  6  1  0
  6  7  1  0
  7  8  1  0
  8  9  1  0
  9 10  2  0
 10 11  1  0
 11 12  2  0
 12 13  1  0
 13 14  2  0
 14 15  1  0
 15 16  2  0
 16 17  1  0
 16 18  1  0
 18 19  2  0
 19 20  1  0
 20 21  1  0
 20 22  2  0
 22 23  1  0
 23 24  2  0
 24  9  1  0
 15 10  1  0
 24 18  1  0
  1 25  1  0
  1 26  1  0
  1 27  1  0
  2 28  1  0
  2 29  1  0
  4 30  1  0
  4 31  1  0
  5 32  1  0
  5 33  1  0
  5 34  1  0
  6 35  1  0
  6 36  1  0
  7 37  1  0
  7 38  1  0
  8 39  1  0
 11 40  1  0
 12 41  1  0
 13 42  1  0
 14 43  1  0
 17 44  1  0
 17 45  1  0
 17 46  1  0
 19 47  1  0
 21 48  1  0
 21 49  1  0
 22 50  1  0
 23 51  1  0
M  CHG  1  16   1
M  END
>  <UniqueID>  (26) 
26

>  <SMILES>  (26) 
CCN(CC)CCNc1c2ccccc2[n+](C)c2cc(N)ccc12

>  <Energy>  (26) 
75.21387719672646

>  <Genealogy>  (26) 
CCN(CC)CCNc1c2ccccc2[n+](C)c2cc(N)ccc12 (3D coordinates assigned)
CCN(CC)CCNc1c2ccccc2[n+](C)c2cc(N)ccc12 (optimized conformer: 75.21387719672646 kcal/mol)

>  <smiles>  (26) 
CCN(CC)CCNc1c2ccccc2[n+](C)c2cc(N)ccc12

>  <score_type>  (26) 
oracle

>  <origin>  (26) 
adg

>  <m_score__min__energy>  (26) 
-5.54

>  <m_primary>  (26) 
energy

$$$$
