0:0
     RDKit          3D

 51 53  0  0  0  0  0  0  0  0999 V2000
   56.2840   24.9430   46.9000 C   0  0  0  0  0  0  0  0  0  0  0  0
   57.1770   25.1790   45.7660 N   0  0  0  0  0  0  0  0  0  0  0  0
   56.7370   24.8590   44.4090 C   0  0  0  0  0  0  0  0  0  0  0  0
   58.3410   25.9980   45.9420 C   0  0  0  0  0  0  0  0  0  0  0  0
   59.5830   25.3720   46.1340 C   0  0  0  0  0  0  0  0  0  0  0  0
   60.7310   26.1300   46.3660 C   0  0  0  0  0  0  0  0  0  0  0  0
   60.6500   27.5210   46.4100 C   0  0  0  0  0  0  0  0  0  0  0  0
   59.4240   28.1600   46.2110 C   0  0  0  0  0  0  0  0  0  0  0  0
   58.2540   27.4130   45.9670 C   0  0  0  0  0  0  0  0  0  0  0  0
   56.9780   28.1340   45.7200 C   0  0  0  0  0  0  0  0  0  0  0  0
   55.8990   27.4940   45.5870 O   0  0  0  0  0  0  0  0  0  0  0  0
   56.9740   29.5660   45.6670 N   0  0  0  0  0  0  0  0  0  0  0  0
   57.1190   30.3920   44.5010 C   0  0  0  0  0  0  0  0  0  0  0  0
   56.5430   30.0270   43.2700 C   0  0  0  0  0  0  0  0  0  0  0  0
   56.6800   30.8540   42.1520 C   0  0  0  0  0  0  0  0  0  0  0  0
   57.4010   32.0440   42.2470 C   0  0  0  0  0  0  0  0  0  0  0  0
   58.0010   32.4040   43.4540 C   0  0  0  0  0  0  0  0  0  0  0  0
   57.8820   31.5770   44.5850 C   0  0  0  0  0  0  0  0  0  0  0  0
   58.5230   31.9610   45.8170 N   0  0  0  0  0  0  0  0  0  0  0  0
   57.9900   33.0600   46.6300 C   0  0  0  0  0  0  0  0  0  0  0  0
   58.1580   32.7220   48.1170 C   0  0  0  0  0  0  0  0  0  0  0  0
   59.5670   32.4020   48.4940 N   0  0  0  0  0  0  0  0  0  0  0  0
   60.1670   33.5030   49.2670 C   0  0  0  0  0  0  0  0  0  0  0  0
   60.4480   32.0560   47.3470 C   0  0  0  0  0  0  0  0  0  0  0  0
   59.7110   31.2370   46.2820 C   0  0  0  0  0  0  0  0  0  0  0  0
   56.8375   25.0893   47.8392 H   0  0  0  0  0  0  0  0  0  0  0  0
   55.4419   25.6494   46.8568 H   0  0  0  0  0  0  0  0  0  0  0  0
   55.9009   23.9128   46.8568 H   0  0  0  0  0  0  0  0  0  0  0  0
   55.8482   24.2126   44.4546 H   0  0  0  0  0  0  0  0  0  0  0  0
   56.4876   25.7882   43.8757 H   0  0  0  0  0  0  0  0  0  0  0  0
   57.5442   24.3355   43.8757 H   0  0  0  0  0  0  0  0  0  0  0  0
   59.6515   24.2746   46.1012 H   0  0  0  0  0  0  0  0  0  0  0  0
   61.6997   25.6303   46.5141 H   0  0  0  0  0  0  0  0  0  0  0  0
   61.5543   28.1171   46.6020 H   0  0  0  0  0  0  0  0  0  0  0  0
   59.3711   29.2582   46.2451 H   0  0  0  0  0  0  0  0  0  0  0  0
   55.9814   29.0848   43.1873 H   0  0  0  0  0  0  0  0  0  0  0  0
   56.2186   30.5661   41.1959 H   0  0  0  0  0  0  0  0  0  0  0  0
   57.4968   32.6997   41.3690 H   0  0  0  0  0  0  0  0  0  0  0  0
   58.5716   33.3420   43.5214 H   0  0  0  0  0  0  0  0  0  0  0  0
   58.5378   33.9858   46.3999 H   0  0  0  0  0  0  0  0  0  0  0  0
   56.9228   33.2004   46.4035 H   0  0  0  0  0  0  0  0  0  0  0  0
   57.8251   33.5857   48.7112 H   0  0  0  0  0  0  0  0  0  0  0  0
   57.5550   31.8241   48.3174 H   0  0  0  0  0  0  0  0  0  0  0  0
   59.5420   31.5670   49.1290 H   0  0  0  0  0  0  0  0  0  0  0  0
   60.0559   33.2992   50.3422 H   0  0  0  0  0  0  0  0  0  0  0  0
   61.2352   33.5862   49.0180 H   0  0  0  0  0  0  0  0  0  0  0  0
   59.6579   34.4458   49.0180 H   0  0  0  0  0  0  0  0  0  0  0  0
   60.8152   32.9860   46.8884 H   0  0  0  0  0  0  0  0  0  0  0  0
   61.2789   31.4452   47.7297 H   0  0  0  0  0  0  0  0  0  0  0  0
   60.3842   31.0590   45.4305 H   0  0  0  0  0  0  0  0  0  0  0  0
   59.3976   30.2781   46.7205 H   0  0  0  0  0  0  0  0  0  0  0  0
  1  2  1  0
  2  3  1  0
  2  4  1  0
  4  5  2  0
  5  6  1  0
  6  7  2  0
  7  8  1  0
  8  9  2  0
  9 10  1  0
 10 11  2  0
 10 12  1  0
 12 13  1  0
 13 14  2  0
 14 15  1  0
 15 16  2  0
 16 17  1  0
 17 18  2  0
 18 19  1  0
 19 20  1  0
 20 21  1  0
 21 22  1  0
 22 23  1  0
 22 24  1  0
 24 25  1  0
  9  4  1  0
 18 13  1  0
 25 19  1  0
  1 26  1  0
  1 27  1  0
  1 28  1  0
  3 29  1  0
  3 30  1  0
  3 31  1  0
  5 32  1  0
  6 33  1  0
  7 34  1  0
  8 35  1  0
 14 36  1  0
 15 37  1  0
 16 38  1  0
 17 39  1  0
 20 40  1  0
 20 41  1  0
 21 42  1  0
 21 43  1  0
 22 44  1  0
 23 45  1  0
 23 46  1  0
 23 47  1  0
 24 48  1  0
 24 49  1  0
 25 50  1  0
 25 51  1  0
M  CHG  2  12  -1  22   1
M  END
>  <UniqueID>  (1) 
1

>  <SMILES>  (1) 
CN(C)c1ccccc1C(=O)[N-]c1ccccc1N1CC[NH+](C)CC1

>  <Energy>  (1) 
73.20214193696981

>  <Genealogy>  (1) 
CN(C)c1ccccc1C(=O)[N-]c1ccccc1N1CC[NH+](C)CC1 (protonated)
CN(C)c1ccccc1C(=O)[N-]c1ccccc1N1CC[NH+](C)CC1 (3D coordinates assigned)
CN(C)c1ccccc1C(=O)[N-]c1ccccc1N1CC[NH+](C)CC1 (nonaromatic ring conformer: 73.20214193696981 kcal/mol)

>  <smiles>  (1) 
CN1CCN(c2ccccc2NC(=O)c2ccccc2N(C)C)CC1

>  <score_type>  (1) 
oracle

>  <origin>  (1) 
adg

>  <m_score__min__energy>  (1) 
-7.5700000000000003

>  <m_primary>  (1) 
energy

$$$$
1:0
     RDKit          3D

 40 43  0  0  0  0  0  0  0  0999 V2000
   57.3810   28.1490   43.1500 N   0  0  0  0  0  0  0  0  0  0  0  0
   58.5840   27.5200   43.7010 C   0  0  0  0  0  0  0  0  0  0  0  0
   58.4350   27.2430   45.2070 C   0  0  0  0  0  0  0  0  0  0  0  0
   57.4170   28.1580   45.9200 C   0  0  0  0  0  0  0  0  0  0  0  0
   57.9540   29.5180   46.1390 N   0  0  0  0  0  0  0  0  0  0  0  0
   58.8740   29.8290   47.1220 C   0  0  0  0  0  0  0  0  0  0  0  0
   59.2730   31.1510   47.3410 C   0  0  0  0  0  0  0  0  0  0  0  0
   58.8070   32.1970   46.5390 C   0  0  0  0  0  0  0  0  0  0  0  0
   59.2120   33.5350   46.7150 C   0  0  0  0  0  0  0  0  0  0  0  0
   58.7150   34.5400   45.8810 C   0  0  0  0  0  0  0  0  0  0  0  0
   57.8140   34.2260   44.8670 C   0  0  0  0  0  0  0  0  0  0  0  0
   57.4010   32.9060   44.6790 C   0  0  0  0  0  0  0  0  0  0  0  0
   57.8910   31.8770   45.5100 C   0  0  0  0  0  0  0  0  0  0  0  0
   57.4700   30.5350   45.3360 C   0  0  0  0  0  0  0  0  0  0  0  0
   56.6250   30.2770   44.4320 O   0  0  0  0  0  0  0  0  0  0  0  0
   60.1710   31.1830   48.4960 C   0  0  0  0  0  0  0  0  0  0  0  0
   60.7210   32.1920   49.0120 O   0  0  0  0  0  0  0  0  0  0  0  0
   60.3170   29.8220   48.9590 C   0  0  0  0  0  0  0  0  0  0  0  0
   61.1010   29.3530   50.0120 C   0  0  0  0  0  0  0  0  0  0  0  0
   61.1410   27.9760   50.2500 C   0  0  0  0  0  0  0  0  0  0  0  0
   60.4190   27.0990   49.4260 C   0  0  0  0  0  0  0  0  0  0  0  0
   59.6380   27.5890   48.3660 C   0  0  0  0  0  0  0  0  0  0  0  0
   59.5650   28.9780   48.1480 C   0  0  0  0  0  0  0  0  0  0  0  0
   56.6400   28.1790   43.8870 H   0  0  0  0  0  0  0  0  0  0  0  0
   57.5800   29.1210   42.8250 H   0  0  0  0  0  0  0  0  0  0  0  0
   57.0290   27.5870   42.3420 H   0  0  0  0  0  0  0  0  0  0  0  0
   58.7615   26.5686   43.1782 H   0  0  0  0  0  0  0  0  0  0  0  0
   59.4300   28.2084   43.5584 H   0  0  0  0  0  0  0  0  0  0  0  0
   58.1107   26.1998   45.3356 H   0  0  0  0  0  0  0  0  0  0  0  0
   59.4152   27.4435   45.6642 H   0  0  0  0  0  0  0  0  0  0  0  0
   56.5098   28.2295   45.3020 H   0  0  0  0  0  0  0  0  0  0  0  0
   57.1945   27.7179   46.9032 H   0  0  0  0  0  0  0  0  0  0  0  0
   59.9239   33.7900   47.5139 H   0  0  0  0  0  0  0  0  0  0  0  0
   59.0364   35.5820   46.0260 H   0  0  0  0  0  0  0  0  0  0  0  0
   57.4265   35.0204   44.2122 H   0  0  0  0  0  0  0  0  0  0  0  0
   56.6878   32.6664   43.8765 H   0  0  0  0  0  0  0  0  0  0  0  0
   61.6746   30.0499   50.6407 H   0  0  0  0  0  0  0  0  0  0  0  0
   61.7389   27.5796   51.0839 H   0  0  0  0  0  0  0  0  0  0  0  0
   60.4651   26.0158   49.6122 H   0  0  0  0  0  0  0  0  0  0  0  0
   59.0891   26.8945   47.7130 H   0  0  0  0  0  0  0  0  0  0  0  0
  1  2  1  0
  2  3  1  0
  3  4  1  0
  4  5  1  0
  5  6  1  0
  6  7  2  0
  7  8  1  0
  8  9  2  0
  9 10  1  0
 10 11  2  0
 11 12  1  0
 12 13  2  0
 13 14  1  0
 14 15  2  0
  7 16  1  0
 16 17  2  0
 16 18  1  0
 18 19  2  0
 19 20  1  0
 20 21  2  0
 21 22  1  0
 22 23  2  0
 14  5  1  0
 23 18  1  0
 23  6  1  0
 13  8  1  0
  1 24  1  0
  1 25  1  0
  1 26  1  0
  2 27  1  0
  2 28  1  0
  3 29  1  0
  3 30  1  0
  4 31  1  0
  4 32  1  0
  9 33  1  0
 10 34  1  0
 11 35  1  0
 12 36  1  0
 19 37  1  0
 20 38  1  0
 21 39  1  0
 22 40  1  0
M  CHG  1   1   1
M  END
>  <UniqueID>  (2) 
2

>  <SMILES>  (2) 
[NH3+]CCCn1c2c(c3ccccc3c1=O)C(=O)c1ccccc1-2

>  <Energy>  (2) 
94.36976174585537

>  <Genealogy>  (2) 
[NH3+]CCCn1c2c(c3ccccc3c1=O)C(=O)c1ccccc1-2 (protonated)
[NH3+]CCCn1c2c(c3ccccc3c1=O)C(=O)c1ccccc1-2 (3D coordinates assigned)
[NH3+]CCCn1c2c(c3ccccc3c1=O)C(=O)c1ccccc1-2 (nonaromatic ring conformer: 94.36976174585537 kcal/mol)

>  <smiles>  (2) 
NCCCn1c2c(c3ccccc3c1=O)C(=O)c1ccccc1-2

>  <score_type>  (2) 
oracle

>  <origin>  (2) 
adg

>  <m_score__min__energy>  (2) 
-6.9800000000000004

>  <m_primary>  (2) 
energy

$$$$
2:0
     RDKit          3D

 57 59  0  0  0  0  0  0  0  0999 V2000
   56.4660   29.6750   42.8970 C   0  0  0  0  0  0  0  0  0  0  0  0
   55.9830   30.4320   44.1350 C   0  0  0  0  0  0  0  0  0  0  0  0
   56.9740   30.3520   45.2360 N   0  0  0  0  0  0  0  0  0  0  0  0
   57.6700   29.0410   45.2520 C   0  0  0  0  0  0  0  0  0  0  0  0
   59.1850   29.2000   45.1180 C   0  0  0  0  0  0  0  0  0  0  0  0
   57.8920   31.5200   45.2910 C   0  0  0  0  0  0  0  0  0  0  0  0
   57.2190   32.8930   45.0290 C   0  0  0  0  0  0  0  0  0  0  0  0
   57.3760   33.8450   46.2220 C   0  0  0  0  0  0  0  0  0  0  0  0
   58.1360   33.2040   47.2950 N   0  0  0  0  0  0  0  0  0  0  0  0
   59.5740   33.2660   47.4090 C   0  0  0  0  0  0  0  0  0  0  0  0
   60.3670   33.4920   46.2720 C   0  0  0  0  0  0  0  0  0  0  0  0
   61.7530   33.5800   46.3730 C   0  0  0  0  0  0  0  0  0  0  0  0
   62.3840   33.4440   47.6140 C   0  0  0  0  0  0  0  0  0  0  0  0
   63.7830   33.5310   47.7030 C   0  0  0  0  0  0  0  0  0  0  0  0
   64.4200   33.3880   48.9370 C   0  0  0  0  0  0  0  0  0  0  0  0
   63.6690   33.1550   50.0890 C   0  0  0  0  0  0  0  0  0  0  0  0
   62.2760   33.0630   50.0170 C   0  0  0  0  0  0  0  0  0  0  0  0
   61.6100   33.2130   48.7810 C   0  0  0  0  0  0  0  0  0  0  0  0
   60.1970   33.1280   48.6740 C   0  0  0  0  0  0  0  0  0  0  0  0
   59.3600   32.8500   49.8650 C   0  0  0  0  0  0  0  0  0  0  0  0
   59.3770   33.7450   50.9460 C   0  0  0  0  0  0  0  0  0  0  0  0
   58.5690   33.5170   52.0620 C   0  0  0  0  0  0  0  0  0  0  0  0
   57.7380   32.3950   52.1050 C   0  0  0  0  0  0  0  0  0  0  0  0
   57.7150   31.4960   51.0340 C   0  0  0  0  0  0  0  0  0  0  0  0
   58.5270   31.7150   49.9030 C   0  0  0  0  0  0  0  0  0  0  0  0
   58.5330   30.8340   48.8090 O   0  0  0  0  0  0  0  0  0  0  0  0
   59.5030   29.8130   48.5990 C   0  0  0  0  0  0  0  0  0  0  0  0
   57.0334   28.7858   43.2091 H   0  0  0  0  0  0  0  0  0  0  0  0
   55.5989   29.3643   42.2957 H   0  0  0  0  0  0  0  0  0  0  0  0
   57.1132   30.3305   42.2957 H   0  0  0  0  0  0  0  0  0  0  0  0
   55.8256   31.4881   43.8706 H   0  0  0  0  0  0  0  0  0  0  0  0
   55.0443   29.9729   44.4786 H   0  0  0  0  0  0  0  0  0  0  0  0
   57.4481   28.5318   46.2015 H   0  0  0  0  0  0  0  0  0  0  0  0
   57.3110   28.4531   44.3944 H   0  0  0  0  0  0  0  0  0  0  0  0
   59.6386   29.2476   46.1190 H   0  0  0  0  0  0  0  0  0  0  0  0
   59.5968   28.3401   44.5693 H   0  0  0  0  0  0  0  0  0  0  0  0
   59.4093   30.1266   44.5693 H   0  0  0  0  0  0  0  0  0  0  0  0
   58.3488   31.5487   46.2913 H   0  0  0  0  0  0  0  0  0  0  0  0
   58.6234   31.3757   44.4821 H   0  0  0  0  0  0  0  0  0  0  0  0
   57.6825   33.3529   44.1438 H   0  0  0  0  0  0  0  0  0  0  0  0
   56.1443   32.7207   44.8700 H   0  0  0  0  0  0  0  0  0  0  0  0
   57.9068   34.7510   45.8943 H   0  0  0  0  0  0  0  0  0  0  0  0
   56.3771   34.1059   46.6016 H   0  0  0  0  0  0  0  0  0  0  0  0
   57.5980   32.6200   47.9750 H   0  0  0  0  0  0  0  0  0  0  0  0
   59.8867   33.6010   45.2884 H   0  0  0  0  0  0  0  0  0  0  0  0
   62.3561   33.7578   45.4704 H   0  0  0  0  0  0  0  0  0  0  0  0
   64.3792   33.7126   46.7966 H   0  0  0  0  0  0  0  0  0  0  0  0
   65.5158   33.4592   49.0009 H   0  0  0  0  0  0  0  0  0  0  0  0
   64.1754   33.0431   51.0591 H   0  0  0  0  0  0  0  0  0  0  0  0
   61.6939   32.8722   50.9307 H   0  0  0  0  0  0  0  0  0  0  0  0
   60.0296   34.6299   50.9140 H   0  0  0  0  0  0  0  0  0  0  0  0
   58.5870   34.2209   52.9071 H   0  0  0  0  0  0  0  0  0  0  0  0
   57.1001   32.2181   52.9835 H   0  0  0  0  0  0  0  0  0  0  0  0
   57.0598   30.6134   51.0745 H   0  0  0  0  0  0  0  0  0  0  0  0
   59.8581   29.4392   49.5707 H   0  0  0  0  0  0  0  0  0  0  0  0
   59.0490   28.9869   48.0320 H   0  0  0  0  0  0  0  0  0  0  0  0
   60.3513   30.2241   48.0320 H   0  0  0  0  0  0  0  0  0  0  0  0
  1  2  1  0
  2  3  1  0
  3  4  1  0
  4  5  1  0
  3  6  1  0
  6  7  1  0
  7  8  1  0
  8  9  1  0
  9 10  1  0
 10 11  2  0
 11 12  1  0
 12 13  2  0
 13 14  1  0
 14 15  2  0
 15 16  1  0
 16 17  2  0
 17 18  1  0
 18 19  2  0
 19 20  1  0
 20 21  2  0
 21 22  1  0
 22 23  2  0
 23 24  1  0
 24 25  2  0
 25 26  1  0
 26 27  1  0
 19 10  1  0
 25 20  1  0
 18 13  1  0
  1 28  1  0
  1 29  1  0
  1 30  1  0
  2 31  1  0
  2 32  1  0
  4 33  1  0
  4 34  1  0
  5 35  1  0
  5 36  1  0
  5 37  1  0
  6 38  1  0
  6 39  1  0
  7 40  1  0
  7 41  1  0
  8 42  1  0
  8 43  1  0
  9 44  1  0
 11 45  1  0
 12 46  1  0
 14 47  1  0
 15 48  1  0
 16 49  1  0
 17 50  1  0
 21 51  1  0
 22 52  1  0
 23 53  1  0
 24 54  1  0
 27 55  1  0
 27 56  1  0
 27 57  1  0
M  END
>  <UniqueID>  (3) 
3

>  <SMILES>  (3) 
CCN(CC)CCCNc1ccc2ccccc2c1-c1ccccc1OC

>  <Energy>  (3) 
72.18036833263079

>  <Genealogy>  (3) 
CCN(CC)CCCNc1ccc2ccccc2c1-c1ccccc1OC (3D coordinates assigned)
CCN(CC)CCCNc1ccc2ccccc2c1-c1ccccc1OC (optimized conformer: 72.18036833263079 kcal/mol)

>  <smiles>  (3) 
CCN(CC)CCCNc1ccc2ccccc2c1-c1ccccc1OC

>  <score_type>  (3) 
oracle

>  <origin>  (3) 
adg

>  <m_score__min__energy>  (3) 
-7.79

>  <m_primary>  (3) 
energy

$$$$
3:0
     RDKit          3D

 33 35  0  0  0  0  0  0  0  0999 V2000
   55.8530   29.7250   43.1470 C   0  0  0  0  0  0  0  0  0  0  0  0
   56.1050   30.0660   44.5020 O   0  0  0  0  0  0  0  0  0  0  0  0
   57.3780   30.2540   45.0570 C   0  0  0  0  0  0  0  0  0  0  0  0
   58.1450   31.4000   44.8910 C   0  0  0  0  0  0  0  0  0  0  0  0
   57.7680   32.5980   44.0780 C   0  0  0  0  0  0  0  0  0  0  0  0
   57.0190   33.8870   45.1330 S   0  0  0  0  0  0  0  0  0  0  0  0
   58.3670   33.9230   46.3210 C   0  0  0  0  0  0  0  0  0  0  0  0
   58.2030   33.3410   47.5850 C   0  0  0  0  0  0  0  0  0  0  0  0
   59.2470   33.3800   48.5140 C   0  0  0  0  0  0  0  0  0  0  0  0
   60.4600   33.9910   48.1790 C   0  0  0  0  0  0  0  0  0  0  0  0
   60.6290   34.5630   46.9140 C   0  0  0  0  0  0  0  0  0  0  0  0
   59.5840   34.5280   45.9840 C   0  0  0  0  0  0  0  0  0  0  0  0
   59.2970   31.2780   45.5210 O   0  0  0  0  0  0  0  0  0  0  0  0
   59.3150   30.0990   46.0930 C   0  0  0  0  0  0  0  0  0  0  0  0
   60.3450   29.5550   46.8560 C   0  0  0  0  0  0  0  0  0  0  0  0
   60.1680   28.2630   47.3790 C   0  0  0  0  0  0  0  0  0  0  0  0
   58.9770   27.5500   47.1290 C   0  0  0  0  0  0  0  0  0  0  0  0
   57.9500   28.1200   46.3550 C   0  0  0  0  0  0  0  0  0  0  0  0
   58.1490   29.4090   45.8450 C   0  0  0  0  0  0  0  0  0  0  0  0
   55.1997   28.8409   43.1068 H   0  0  0  0  0  0  0  0  0  0  0  0
   55.3597   30.5687   42.6422 H   0  0  0  0  0  0  0  0  0  0  0  0
   56.8044   29.5011   42.6422 H   0  0  0  0  0  0  0  0  0  0  0  0
   58.6691   33.0050   43.5959 H   0  0  0  0  0  0  0  0  0  0  0  0
   57.0330   32.2922   43.3188 H   0  0  0  0  0  0  0  0  0  0  0  0
   57.2524   32.8532   47.8465 H   0  0  0  0  0  0  0  0  0  0  0  0
   59.1145   32.9300   49.5090 H   0  0  0  0  0  0  0  0  0  0  0  0
   61.2809   34.0216   48.9105 H   0  0  0  0  0  0  0  0  0  0  0  0
   61.5840   35.0407   46.6499 H   0  0  0  0  0  0  0  0  0  0  0  0
   59.7186   34.9757   44.9883 H   0  0  0  0  0  0  0  0  0  0  0  0
   61.2699   30.1201   47.0437 H   0  0  0  0  0  0  0  0  0  0  0  0
   60.9625   27.8052   47.9866 H   0  0  0  0  0  0  0  0  0  0  0  0
   58.8501   26.5389   47.5431 H   0  0  0  0  0  0  0  0  0  0  0  0
   57.0185   27.5697   46.1563 H   0  0  0  0  0  0  0  0  0  0  0  0
  1  2  1  0
  2  3  1  0
  3  4  2  0
  4  5  1  0
  5  6  1  0
  6  7  1  0
  7  8  2  0
  8  9  1  0
  9 10  2  0
 10 11  1  0
 11 12  2  0
  4 13  1  0
 13 14  1  0
 14 15  2  0
 15 16  1  0
 16 17  2  0
 17 18  1  0
 18 19  2  0
 19  3  1  0
 12  7  1  0
 19 14  1  0
  1 20  1  0
  1 21  1  0
  1 22  1  0
  5 23  1  0
  5 24  1  0
  8 25  1  0
  9 26  1  0
 10 27  1  0
 11 28  1  0
 12 29  1  0
 15 30  1  0
 16 31  1  0
 17 32  1  0
 18 33  1  0
M  END
>  <UniqueID>  (4) 
4

>  <SMILES>  (4) 
COc1c(CSc2ccccc2)oc2ccccc12

>  <Energy>  (4) 
65.19457987641425

>  <Genealogy>  (4) 
COc1c(CSc2ccccc2)oc2ccccc12 (3D coordinates assigned)
COc1c(CSc2ccccc2)oc2ccccc12 (optimized conformer: 65.19457987641425 kcal/mol)

>  <smiles>  (4) 
COc1c(CSc2ccccc2)oc2ccccc12

>  <score_type>  (4) 
oracle

>  <origin>  (4) 
adg

>  <m_score__min__energy>  (4) 
-7.25

>  <m_primary>  (4) 
energy

$$$$
4:0
     RDKit          3D

 44 44  0  0  0  0  0  0  0  0999 V2000
   55.2170   23.3400   44.0230 C   0  0  0  0  0  0  0  0  0  0  0  0
   54.6630   23.0350   45.4090 C   0  0  0  0  0  0  0  0  0  0  0  0
   55.1040   24.0420   46.3660 N   0  0  0  0  0  0  0  0  0  0  0  0
   55.5140   25.3620   45.9930 C   0  0  0  0  0  0  0  0  0  0  0  0
   54.6820   26.3090   45.9750 O   0  0  0  0  0  0  0  0  0  0  0  0
   56.9510   25.6300   45.6760 C   0  0  0  0  0  0  0  0  0  0  0  0
   57.1940   27.0700   45.6560 N   0  0  0  0  0  0  0  0  0  0  0  0
   58.4280   27.6460   46.1070 C   0  0  0  0  0  0  0  0  0  0  0  0
   59.4170   26.9010   46.3570 O   0  0  0  0  0  0  0  0  0  0  0  0
   58.5200   29.1370   46.3150 C   0  0  1  0  0  0  0  0  0  0  0  0
   59.7060   29.7870   45.5790 C   0  0  0  0  0  0  0  0  0  0  0  0
   60.8320   30.6230   46.7600 S   0  0  0  0  0  0  0  0  0  0  0  0
   59.5750   31.6710   47.5800 C   0  0  0  0  0  0  0  0  0  0  0  0
   59.0010   32.6800   46.6250 C   0  0  0  0  0  0  0  0  0  0  0  0
   57.6150   32.7240   46.3990 C   0  0  0  0  0  0  0  0  0  0  0  0
   57.0730   33.6810   45.5360 C   0  0  0  0  0  0  0  0  0  0  0  0
   57.9080   34.5990   44.8930 C   0  0  0  0  0  0  0  0  0  0  0  0
   59.2880   34.5590   45.1110 C   0  0  0  0  0  0  0  0  0  0  0  0
   59.8350   33.6050   45.9740 C   0  0  0  0  0  0  0  0  0  0  0  0
   57.2480   29.7940   45.9980 N   0  0  0  0  0  0  0  0  0  0  0  0
   56.4810   29.7510   44.7830 C   0  0  0  0  0  0  0  0  0  0  0  0
   57.0140   30.2140   43.4620 C   0  0  0  0  0  0  0  0  0  0  0  0
   55.2900   29.3490   44.8410 O   0  0  0  0  0  0  0  0  0  0  0  0
   56.1769   23.8684   44.1199 H   0  0  0  0  0  0  0  0  0  0  0  0
   55.3702   22.3991   43.4742 H   0  0  0  0  0  0  0  0  0  0  0  0
   54.5039   23.9727   43.4742 H   0  0  0  0  0  0  0  0  0  0  0  0
   53.5638   23.0317   45.3672 H   0  0  0  0  0  0  0  0  0  0  0  0
   55.0322   22.0504   45.7318 H   0  0  0  0  0  0  0  0  0  0  0  0
   57.5871   25.1631   46.4424 H   0  0  0  0  0  0  0  0  0  0  0  0
   57.1894   25.2081   44.6885 H   0  0  0  0  0  0  0  0  0  0  0  0
   56.4130   27.7020   45.3660 H   0  0  0  0  0  0  0  0  0  0  0  0
   58.7235   29.2892   47.3852 H   0  0  0  0  0  0  0  0  0  0  0  0
   60.2646   29.0085   45.0387 H   0  0  0  0  0  0  0  0  0  0  0  0
   59.3144   30.5374   44.8764 H   0  0  0  0  0  0  0  0  0  0  0  0
   58.7635   31.0304   47.9555 H   0  0  0  0  0  0  0  0  0  0  0  0
   60.0581   32.2107   48.4079 H   0  0  0  0  0  0  0  0  0  0  0  0
   56.9542   32.0031   46.9027 H   0  0  0  0  0  0  0  0  0  0  0  0
   55.9872   33.7116   45.3627 H   0  0  0  0  0  0  0  0  0  0  0  0
   57.4794   35.3525   44.2158 H   0  0  0  0  0  0  0  0  0  0  0  0
   59.9451   35.2798   44.6024 H   0  0  0  0  0  0  0  0  0  0  0  0
   60.9214   33.5782   46.1440 H   0  0  0  0  0  0  0  0  0  0  0  0
   57.8350   30.9272   43.6275 H   0  0  0  0  0  0  0  0  0  0  0  0
   57.3882   29.3494   42.8942 H   0  0  0  0  0  0  0  0  0  0  0  0
   56.2102   30.7055   42.8942 H   0  0  0  0  0  0  0  0  0  0  0  0
  1  2  1  0
  2  3  1  0
  3  4  1  0
  4  5  2  0
  4  6  1  0
  6  7  1  0
  7  8  1  0
  8  9  2  0
  8 10  1  0
 10 11  1  0
 11 12  1  0
 12 13  1  0
 13 14  1  0
 14 15  2  0
 15 16  1  0
 16 17  2  0
 17 18  1  0
 18 19  2  0
 10 20  1  0
 20 21  1  0
 21 22  1  0
 21 23  2  0
 19 14  1  0
  1 24  1  0
  1 25  1  0
  1 26  1  0
  2 27  1  0
  2 28  1  0
  6 29  1  0
  6 30  1  0
  7 31  1  0
 10 32  1  1
 11 33  1  0
 11 34  1  0
 13 35  1  0
 13 36  1  0
 15 37  1  0
 16 38  1  0
 17 39  1  0
 18 40  1  0
 19 41  1  0
 22 42  1  0
 22 43  1  0
 22 44  1  0
M  CHG  2   3  -1  20  -1
M  END
>  <UniqueID>  (5) 
5

>  <SMILES>  (5) 
CC[N-]C(=O)CNC(=O)[C@@H](CSCc1ccccc1)[N-]C(C)=O

>  <Energy>  (5) 
27.307184354354767

>  <Genealogy>  (5) 
CC[N-]C(=O)CNC(=O)C(CSCc1ccccc1)[N-]C(C)=O (protonated)
CC[N-]C(=O)CNC(=O)[C@@H](CSCc1ccccc1)[N-]C(C)=O (chirality)
CC[N-]C(=O)CNC(=O)[C@@H](CSCc1ccccc1)[N-]C(C)=O (3D coordinates assigned)
CC[N-]C(=O)CNC(=O)[C@@H](CSCc1ccccc1)[N-]C(C)=O (optimized conformer: 27.307184354354767 kcal/mol)

>  <smiles>  (5) 
CCNC(=O)CNC(=O)C(CSCc1ccccc1)NC(C)=O

>  <score_type>  (5) 
oracle

>  <origin>  (5) 
adg

>  <m_score__min__energy>  (5) 
-11.35

>  <m_primary>  (5) 
energy

$$$$
5:0
     RDKit          3D

 60 63  0  0  0  0  0  0  0  0999 V2000
   56.6530   30.3120   42.5410 C   0  0  0  0  0  0  0  0  0  0  0  0
   55.7010   29.7590   43.5880 C   0  0  0  0  0  0  0  0  0  0  0  0
   56.2890   29.8920   44.8760 O   0  0  0  0  0  0  0  0  0  0  0  0
   57.5400   29.3700   45.2430 C   0  0  0  0  0  0  0  0  0  0  0  0
   57.8270   27.9920   45.1800 C   0  0  0  0  0  0  0  0  0  0  0  0
   59.0950   27.5200   45.5350 C   0  0  0  0  0  0  0  0  0  0  0  0
   60.0840   28.4110   45.9520 C   0  0  0  0  0  0  0  0  0  0  0  0
   59.8110   29.7790   46.0200 C   0  0  0  0  0  0  0  0  0  0  0  0
   58.5400   30.2610   45.6740 C   0  0  0  0  0  0  0  0  0  0  0  0
   58.2590   31.6650   45.7550 N   0  0  0  0  0  0  0  0  0  0  0  0
   58.0070   32.4360   44.5390 C   0  0  0  0  0  0  0  0  0  0  0  0
   58.7860   33.7660   44.5630 C   0  0  0  0  0  0  0  0  0  0  0  0
   59.0260   34.3160   45.9250 N   0  0  0  0  0  0  0  0  0  0  0  0
   60.4330   34.1420   46.3490 C   0  0  0  0  0  0  0  0  0  0  0  0
   60.5710   34.1290   47.8530 C   0  0  0  0  0  0  0  0  0  0  0  0
   59.8300   34.8920   48.5310 O   0  0  0  0  0  0  0  0  0  0  0  0
   61.5820   33.3340   48.5130 N   0  0  0  0  0  0  0  0  0  0  0  0
   61.5090   33.0890   49.9600 C   0  0  0  0  0  0  0  0  0  0  0  0
   62.8200   33.5240   50.6210 C   0  0  0  0  0  0  0  0  0  0  0  0
   63.9920   33.0120   49.8910 N   0  0  0  0  0  0  0  0  0  0  0  0
   65.3070   33.2180   50.4460 C   0  0  0  0  0  0  0  0  0  0  0  0
   66.3730   32.5060   49.9870 N   0  0  0  0  0  0  0  0  0  0  0  0
   67.6180   32.6920   50.4970 C   0  0  0  0  0  0  0  0  0  0  0  0
   67.8200   33.6270   51.5110 C   0  0  0  0  0  0  0  0  0  0  0  0
   66.7230   34.3500   51.9750 C   0  0  0  0  0  0  0  0  0  0  0  0
   65.4950   34.1340   51.4380 N   0  0  0  0  0  0  0  0  0  0  0  0
   63.7990   32.1970   48.6800 C   0  0  0  0  0  0  0  0  0  0  0  0
   62.7450   32.8320   47.7620 C   0  0  0  0  0  0  0  0  0  0  0  0
   58.0470   33.8230   46.9240 C   0  0  0  0  0  0  0  0  0  0  0  0
   58.0900   32.2950   47.0640 C   0  0  0  0  0  0  0  0  0  0  0  0
   57.5007   30.8044   43.0398 H   0  0  0  0  0  0  0  0  0  0  0  0
   57.0249   29.4893   41.9126 H   0  0  0  0  0  0  0  0  0  0  0  0
   56.1226   31.0426   41.9126 H   0  0  0  0  0  0  0  0  0  0  0  0
   54.7548   30.3192   43.5566 H   0  0  0  0  0  0  0  0  0  0  0  0
   55.5033   28.6968   43.3815 H   0  0  0  0  0  0  0  0  0  0  0  0
   57.0513   27.2850   44.8506 H   0  0  0  0  0  0  0  0  0  0  0  0
   59.3129   26.4430   45.4852 H   0  0  0  0  0  0  0  0  0  0  0  0
   61.0805   28.0355   46.2277 H   0  0  0  0  0  0  0  0  0  0  0  0
   60.5941   30.4796   46.3455 H   0  0  0  0  0  0  0  0  0  0  0  0
   58.3255   31.8472   43.6661 H   0  0  0  0  0  0  0  0  0  0  0  0
   56.9314   32.6584   44.4790 H   0  0  0  0  0  0  0  0  0  0  0  0
   59.7615   33.6016   44.0820 H   0  0  0  0  0  0  0  0  0  0  0  0
   58.1640   34.5025   44.0332 H   0  0  0  0  0  0  0  0  0  0  0  0
   60.8095   33.1889   45.9492 H   0  0  0  0  0  0  0  0  0  0  0  0
   61.0134   34.9921   45.9610 H   0  0  0  0  0  0  0  0  0  0  0  0
   60.6748   33.6649   50.3872 H   0  0  0  0  0  0  0  0  0  0  0  0
   61.3466   32.0163   50.1413 H   0  0  0  0  0  0  0  0  0  0  0  0
   62.8630   34.6230   50.6391 H   0  0  0  0  0  0  0  0  0  0  0  0
   62.8437   33.1127   51.6409 H   0  0  0  0  0  0  0  0  0  0  0  0
   68.4651   32.1061   50.1107 H   0  0  0  0  0  0  0  0  0  0  0  0
   68.8219   33.7902   51.9349 H   0  0  0  0  0  0  0  0  0  0  0  0
   66.8517   35.0942   52.7747 H   0  0  0  0  0  0  0  0  0  0  0  0
   64.7533   32.1239   48.1379 H   0  0  0  0  0  0  0  0  0  0  0  0
   63.4523   31.1965   48.9781 H   0  0  0  0  0  0  0  0  0  0  0  0
   63.2062   33.6713   47.2209 H   0  0  0  0  0  0  0  0  0  0  0  0
   62.3894   32.0554   47.0689 H   0  0  0  0  0  0  0  0  0  0  0  0
   58.2764   34.2758   47.8999 H   0  0  0  0  0  0  0  0  0  0  0  0
   57.0403   34.1052   46.5819 H   0  0  0  0  0  0  0  0  0  0  0  0
   58.9333   32.0145   47.7122 H   0  0  0  0  0  0  0  0  0  0  0  0
   57.1424   31.9514   47.5044 H   0  0  0  0  0  0  0  0  0  0  0  0
  1  2  1  0
  2  3  1  0
  3  4  1  0
  4  5  2  0
  5  6  1  0
  6  7  2  0
  7  8  1  0
  8  9  2  0
  9 10  1  0
 10 11  1  0
 11 12  1  0
 12 13  1  0
 13 14  1  0
 14 15  1  0
 15 16  2  0
 15 17  1  0
 17 18  1  0
 18 19  1  0
 19 20  1  0
 20 21  1  0
 21 22  2  0
 22 23  1  0
 23 24  2  0
 24 25  1  0
 25 26  2  0
 20 27  1  0
 27 28  1  0
 13 29  1  0
 29 30  1  0
  9  4  1  0
 30 10  1  0
 28 17  1  0
 26 21  1  0
  1 31  1  0
  1 32  1  0
  1 33  1  0
  2 34  1  0
  2 35  1  0
  5 36  1  0
  6 37  1  0
  7 38  1  0
  8 39  1  0
 11 40  1  0
 11 41  1  0
 12 42  1  0
 12 43  1  0
 14 44  1  0
 14 45  1  0
 18 46  1  0
 18 47  1  0
 19 48  1  0
 19 49  1  0
 23 50  1  0
 24 51  1  0
 25 52  1  0
 27 53  1  0
 27 54  1  0
 28 55  1  0
 28 56  1  0
 29 57  1  0
 29 58  1  0
 30 59  1  0
 30 60  1  0
M  END
>  <UniqueID>  (6) 
6

>  <SMILES>  (6) 
CCOc1ccccc1N1CCN(CC(=O)N2CCN(c3ncccn3)CC2)CC1

>  <Energy>  (6) 
73.2575436513968

>  <Genealogy>  (6) 
CCOc1ccccc1N1CCN(CC(=O)N2CCN(c3ncccn3)CC2)CC1 (3D coordinates assigned)
CCOc1ccccc1N1CCN(CC(=O)N2CCN(c3ncccn3)CC2)CC1 (nonaromatic ring conformer: 73.2575436513968 kcal/mol)

>  <smiles>  (6) 
CCOc1ccccc1N1CCN(CC(=O)N2CCN(c3ncccn3)CC2)CC1

>  <score_type>  (6) 
oracle

>  <origin>  (6) 
adg

>  <m_score__min__energy>  (6) 
-8.5999999999999996

>  <m_primary>  (6) 
energy

$$$$
6:0
     RDKit          3D

 32 34  0  0  0  0  0  0  0  0999 V2000
   63.0529   33.9629   45.2712 H   0  0  0  0  0  0  0  0  0  0  0  0
   62.8310   33.8440   46.3420 C   0  0  0  0  0  0  0  0  0  0  0  0
   63.6960   33.4240   47.2650 C   0  0  0  0  0  0  0  0  0  0  0  0
   64.7444   33.1448   47.0836 H   0  0  0  0  0  0  0  0  0  0  0  0
   63.0180   33.3970   48.5560 C   0  0  0  0  0  0  0  0  0  0  0  0
   63.5130   33.0210   49.8040 C   0  0  0  0  0  0  0  0  0  0  0  0
   64.5552   32.6898   49.9226 H   0  0  0  0  0  0  0  0  0  0  0  0
   62.6430   33.0770   50.9060 C   0  0  0  0  0  0  0  0  0  0  0  0
   63.0053   32.7881   51.9036 H   0  0  0  0  0  0  0  0  0  0  0  0
   61.3090   33.5010   50.7410 C   0  0  0  0  0  0  0  0  0  0  0  0
   60.6365   33.5410   51.6105 H   0  0  0  0  0  0  0  0  0  0  0  0
   60.8330   33.8730   49.4720 C   0  0  0  0  0  0  0  0  0  0  0  0
   59.7938   34.2059   49.3330 H   0  0  0  0  0  0  0  0  0  0  0  0
   61.7170   33.8080   48.3920 C   0  0  0  0  0  0  0  0  0  0  0  0
   61.5290   34.1250   46.9790 C   0  0  0  0  0  0  0  0  0  0  0  0
   60.3850   34.5100   46.3960 C   0  0  0  0  0  0  0  0  0  0  0  0
   60.2203   35.5868   46.2433 H   0  0  0  0  0  0  0  0  0  0  0  0
   59.3320   33.5770   45.9460 C   0  0  0  0  0  0  0  0  0  0  0  0
   59.2980   32.2420   46.3810 C   0  0  0  0  0  0  0  0  0  0  0  0
   60.0521   31.8797   47.0952 H   0  0  0  0  0  0  0  0  0  0  0  0
   58.3110   31.3720   45.9110 C   0  0  0  0  0  0  0  0  0  0  0  0
   58.2848   30.3327   46.2703 H   0  0  0  0  0  0  0  0  0  0  0  0
   57.3560   31.8100   44.9880 C   0  0  0  0  0  0  0  0  0  0  0  0
   56.3840   30.8980   44.5480 O   0  0  0  0  0  0  0  0  0  0  0  0
   56.5240   30.0650   43.4030 C   0  0  0  0  0  0  0  0  0  0  0  0
   56.6984   29.0273   43.7236 H   0  0  0  0  0  0  0  0  0  0  0  0
   55.6052   30.1130   42.8001 H   0  0  0  0  0  0  0  0  0  0  0  0
   57.3766   30.4107   42.8001 H   0  0  0  0  0  0  0  0  0  0  0  0
   57.4060   33.1400   44.5290 C   0  0  0  0  0  0  0  0  0  0  0  0
   56.6646   33.4954   43.7983 H   0  0  0  0  0  0  0  0  0  0  0  0
   58.3940   34.0110   44.9980 C   0  0  0  0  0  0  0  0  0  0  0  0
   58.4359   35.0435   44.6210 H   0  0  0  0  0  0  0  0  0  0  0  0
  1  2  1  0
  2  3  2  0
  3  4  1  0
  3  5  1  0
  5  6  2  0
  6  7  1  0
  6  8  1  0
  8  9  1  0
  8 10  2  0
 10 11  1  0
 10 12  1  0
 12 13  1  0
 12 14  2  0
 14 15  1  0
 15 16  2  0
 16 17  1  0
 16 18  1  0
 18 19  2  0
 19 20  1  0
 19 21  1  0
 21 22  1  0
 21 23  2  0
 23 24  1  0
 24 25  1  0
 25 26  1  0
 25 27  1  0
 25 28  1  0
 23 29  1  0
 29 30  1  0
 29 31  2  0
 31 32  1  0
 15  2  1  0
 31 18  1  0
 14  5  1  0
M  END
>  <UniqueID>  (7) 
7

>  <SMILES>  (7) 
COc1ccc(/C=C2\C=Cc3ccccc32)cc1

>  <Energy>  (7) 
65.8352155470193

>  <Genealogy>  (7) 
COc1ccc(/C=C2\C=Cc3ccccc32)cc1 (cis-trans isomerization)
COc1ccc(/C=C2\C=Cc3ccccc32)cc1 (3D coordinates assigned)
COc1ccc(/C=C2\C=Cc3ccccc32)cc1 (nonaromatic ring conformer: 65.8352155470193 kcal/mol)

>  <smiles>  (7) 
COc1ccc(C=C2C=Cc3ccccc32)cc1

>  <score_type>  (7) 
oracle

>  <origin>  (7) 
adg

>  <m_score__min__energy>  (7) 
-7.3099999999999996

>  <m_primary>  (7) 
energy

$$$$
7:0
     RDKit          3D

 54 58  0  0  0  0  0  0  0  0999 V2000
   64.3917   34.9661   50.2663 H   0  0  0  0  0  0  0  0  0  0  0  0
   63.6800   34.2160   49.8910 C   0  0  0  0  0  0  0  0  0  0  0  0
   64.1460   33.1070   49.1860 C   0  0  0  0  0  0  0  0  0  0  0  0
   65.2239   32.9853   49.0032 H   0  0  0  0  0  0  0  0  0  0  0  0
   63.2460   32.1510   48.7120 C   0  0  0  0  0  0  0  0  0  0  0  0
   63.6190   31.2766   48.1586 H   0  0  0  0  0  0  0  0  0  0  0  0
   61.8670   32.2980   48.9370 C   0  0  0  0  0  0  0  0  0  0  0  0
   60.9310   31.2610   48.4370 C   0  0  0  0  0  0  0  0  0  0  0  0
   60.0110   31.5860   47.4350 C   0  0  0  0  0  0  0  0  0  0  0  0
   59.9785   32.6076   47.0284 H   0  0  0  0  0  0  0  0  0  0  0  0
   59.1360   30.6160   46.9520 C   0  0  0  0  0  0  0  0  0  0  0  0
   58.2170   30.8950   45.9370 C   0  0  0  0  0  0  0  0  0  0  0  0
   58.1636   31.9049   45.5042 H   0  0  0  0  0  0  0  0  0  0  0  0
   57.3900   29.9170   45.4860 N   0  0  0  0  0  0  0  0  0  0  0  0
   57.4380   28.6610   45.9990 C   0  0  0  0  0  0  0  0  0  0  0  0
   56.6120   27.7610   45.5520 N   0  0  0  0  0  0  0  0  0  0  0  0
   56.7840   26.3330   45.6010 C   0  0  0  0  0  0  0  0  0  0  0  0
   57.3790   25.6160   44.5490 C   0  0  0  0  0  0  0  0  0  0  0  0
   57.7483   26.1515   43.6619 H   0  0  0  0  0  0  0  0  0  0  0  0
   57.5040   24.2260   44.6240 C   0  0  0  0  0  0  0  0  0  0  0  0
   57.9845   23.6774   43.8005 H   0  0  0  0  0  0  0  0  0  0  0  0
   57.0220   23.5220   45.7410 C   0  0  0  0  0  0  0  0  0  0  0  0
   57.1600   22.0860   45.8030 N   0  0  0  0  0  0  0  0  0  0  0  0
   57.4100   21.4130   46.9160 N   0  0  0  0  0  0  0  0  0  0  0  0
   57.4550   20.1110   46.5700 C   0  0  0  0  0  0  0  0  0  0  0  0
   57.6457   19.2885   47.2751 H   0  0  0  0  0  0  0  0  0  0  0  0
   57.2370   19.9450   45.2520 N   0  0  0  0  0  0  0  0  0  0  0  0
   57.2100   19.0530   44.7130 H   0  0  0  0  0  0  0  0  0  0  0  0
   57.0540   21.1950   44.7950 C   0  0  0  0  0  0  0  0  0  0  0  0
   56.8469   21.4556   43.7466 H   0  0  0  0  0  0  0  0  0  0  0  0
   56.3920   24.2430   46.7740 C   0  0  0  0  0  0  0  0  0  0  0  0
   55.9938   23.7080   47.6488 H   0  0  0  0  0  0  0  0  0  0  0  0
   56.2690   25.6320   46.6960 C   0  0  0  0  0  0  0  0  0  0  0  0
   55.7620   26.1800   47.5039 H   0  0  0  0  0  0  0  0  0  0  0  0
   58.3170   28.3780   47.0000 N   0  0  0  0  0  0  0  0  0  0  0  0
   59.1710   29.3180   47.4930 C   0  0  0  0  0  0  0  0  0  0  0  0
   60.0540   29.0060   48.4980 N   0  0  0  0  0  0  0  0  0  0  0  0
   60.0940   27.6310   49.0300 C   0  0  0  0  0  0  0  0  0  0  0  0
   60.0931   27.6631   50.1295 H   0  0  0  0  0  0  0  0  0  0  0  0
   59.2116   27.0761   48.6786 H   0  0  0  0  0  0  0  0  0  0  0  0
   61.0072   27.1283   48.6786 H   0  0  0  0  0  0  0  0  0  0  0  0
   60.9470   29.9490   48.9530 C   0  0  0  0  0  0  0  0  0  0  0  0
   61.8050   29.6400   49.8280 O   0  0  0  0  0  0  0  0  0  0  0  0
   61.3880   33.4250   49.6440 C   0  0  0  0  0  0  0  0  0  0  0  0
   60.0030   33.5600   49.8420 O   0  0  0  0  0  0  0  0  0  0  0  0
   59.2760   33.1300   50.9930 C   0  0  0  0  0  0  0  0  0  0  0  0
   58.6902   33.9741   51.3858 H   0  0  0  0  0  0  0  0  0  0  0  0
   59.9912   32.7755   51.7499 H   0  0  0  0  0  0  0  0  0  0  0  0
   58.3310   31.9870   50.6400 C   0  0  0  0  0  0  0  0  0  0  0  0
   57.9507   31.5270   51.5640 H   0  0  0  0  0  0  0  0  0  0  0  0
   57.4880   32.3769   50.0506 H   0  0  0  0  0  0  0  0  0  0  0  0
   58.8724   31.2323   50.0506 H   0  0  0  0  0  0  0  0  0  0  0  0
   62.3120   34.3770   50.1220 C   0  0  0  0  0  0  0  0  0  0  0  0
   61.9525   35.2534   50.6812 H   0  0  0  0  0  0  0  0  0  0  0  0
  1  2  1  0
  2  3  2  0
  3  4  1  0
  3  5  1  0
  5  6  1  0
  5  7  2  0
  7  8  1  0
  8  9  2  0
  9 10  1  0
  9 11  1  0
 11 12  2  0
 12 13  1  0
 12 14  1  0
 14 15  1  0
 15 16  2  0
 16 17  1  0
 17 18  2  0
 18 19  1  0
 18 20  1  0
 20 21  1  0
 20 22  2  0
 22 23  1  0
 23 24  1  0
 24 25  2  0
 25 26  1  0
 25 27  1  0
 27 28  1  0
 27 29  2  0
 29 30  1  0
 22 31  1  0
 31 32  1  0
 31 33  2  0
 33 34  1  0
 15 35  1  0
 35 36  2  0
 36 37  1  0
 37 38  1  0
 38 39  1  0
 38 40  1  0
 38 41  1  0
 37 42  1  0
 42 43  2  0
  7 44  1  0
 44 45  1  0
 45 46  1  0
 46 47  1  0
 46 48  1  0
 46 49  1  0
 49 50  1  0
 49 51  1  0
 49 52  1  0
 44 53  2  0
 53 54  1  0
 53  2  1  0
 42  8  1  0
 36 11  1  0
 33 17  1  0
 29 23  1  0
M  CHG  2  14  -1  27   1
M  END
>  <UniqueID>  (8) 
8

>  <SMILES>  (8) 
CCOc1ccccc1-c1cc2c[n-]/c(=N/c3ccc(-n4c[nH+]cn4)cc3)nc2n(C)c1=O

>  <Energy>  (8) 
116.11131959944757

>  <Genealogy>  (8) 
CCOc1ccccc1-c1cc2c[n-]c(=Nc3ccc(-n4c[nH+]cn4)cc3)nc2n(C)c1=O (protonated)
CCOc1ccccc1-c1cc2c[n-]/c(=N/c3ccc(-n4c[nH+]cn4)cc3)nc2n(C)c1=O (cis-trans isomerization)
CCOc1ccccc1-c1cc2c[n-]/c(=N/c3ccc(-n4c[nH+]cn4)cc3)nc2n(C)c1=O (3D coordinates assigned)
CCOc1ccccc1-c1cc2c[n-]/c(=N/c3ccc(-n4c[nH+]cn4)cc3)nc2n(C)c1=O (optimized conformer: 116.11131959944757 kcal/mol)

>  <smiles>  (8) 
CCOc1ccccc1-c1cc2c[nH]c(=Nc3ccc(-n4cncn4)cc3)nc2n(C)c1=O

>  <score_type>  (8) 
oracle

>  <origin>  (8) 
adg

>  <m_score__min__energy>  (8) 
-7.8200000000000003

>  <m_primary>  (8) 
energy

$$$$
8:0
     RDKit          3D

 34 35  0  0  0  0  0  0  0  0999 V2000
   57.9520   28.0980   44.1300 C   0  0  0  0  0  0  0  0  0  0  0  0
   56.9890   28.4380   45.2710 C   0  0  0  0  0  0  0  0  0  0  0  0
   55.9310   29.3740   44.8590 N   0  0  0  0  0  0  0  0  0  0  0  0
   56.2710   30.0860   43.6190 C   0  0  0  0  0  0  0  0  0  0  0  0
   57.0170   31.3820   43.9430 C   0  0  0  0  0  0  0  0  0  0  0  0
   57.4880   31.3940   45.3310 N   0  0  0  0  0  0  0  0  0  0  0  0
   58.6300   32.1560   45.7680 C   0  0  0  0  0  0  0  0  0  0  0  0
   58.6340   33.5650   45.5740 C   0  0  0  0  0  0  0  0  0  0  0  0
   59.7290   34.3480   45.9870 C   0  0  0  0  0  0  0  0  0  0  0  0
   60.7980   33.6940   46.5870 C   0  0  0  0  0  0  0  0  0  0  0  0
   61.9150   34.1980   47.0510 O   0  0  0  0  0  0  0  0  0  0  0  0
   62.6070   33.1710   47.5200 C   0  0  0  0  0  0  0  0  0  0  0  0
   63.9460   33.3000   48.1620 C   0  0  0  0  0  0  0  0  0  0  0  0
   61.9530   31.9920   47.3750 N   0  0  0  0  0  0  0  0  0  0  0  0
   60.8050   32.3450   46.7770 C   0  0  0  0  0  0  0  0  0  0  0  0
   59.7450   31.5340   46.3850 C   0  0  0  0  0  0  0  0  0  0  0  0
   58.9113   27.7593   44.5485 H   0  0  0  0  0  0  0  0  0  0  0  0
   57.5192   27.2983   43.5110 H   0  0  0  0  0  0  0  0  0  0  0  0
   58.1173   28.9921   43.5110 H   0  0  0  0  0  0  0  0  0  0  0  0
   56.5189   27.5083   45.6240 H   0  0  0  0  0  0  0  0  0  0  0  0
   57.5732   28.9247   46.0659 H   0  0  0  0  0  0  0  0  0  0  0  0
   55.7680   30.0720   45.6220 H   0  0  0  0  0  0  0  0  0  0  0  0
   56.9107   29.4445   42.9951 H   0  0  0  0  0  0  0  0  0  0  0  0
   55.3443   30.3300   43.0789 H   0  0  0  0  0  0  0  0  0  0  0  0
   57.8824   31.4748   43.2704 H   0  0  0  0  0  0  0  0  0  0  0  0
   56.3238   32.2248   43.8048 H   0  0  0  0  0  0  0  0  0  0  0  0
   56.9750   30.8270   46.0440 H   0  0  0  0  0  0  0  0  0  0  0  0
   57.7703   34.0494   45.0950 H   0  0  0  0  0  0  0  0  0  0  0  0
   59.7378   35.4381   45.8399 H   0  0  0  0  0  0  0  0  0  0  0  0
   63.8308   33.2889   49.2559 H   0  0  0  0  0  0  0  0  0  0  0  0
   64.5838   32.4591   47.8519 H   0  0  0  0  0  0  0  0  0  0  0  0
   64.4116   34.2472   47.8519 H   0  0  0  0  0  0  0  0  0  0  0  0
   62.2660   31.0380   47.6610 H   0  0  0  0  0  0  0  0  0  0  0  0
   59.7708   30.4465   46.5482 H   0  0  0  0  0  0  0  0  0  0  0  0
  1  2  1  0
  2  3  1  0
  3  4  1  0
  4  5  1  0
  5  6  1  0
  6  7  1  0
  7  8  2  0
  8  9  1  0
  9 10  2  0
 10 11  1  0
 11 12  1  0
 12 13  1  0
 12 14  2  0
 14 15  1  0
 15 16  2  0
 16  7  1  0
 15 10  1  0
  1 17  1  0
  1 18  1  0
  1 19  1  0
  2 20  1  0
  2 21  1  0
  3 22  1  0
  4 23  1  0
  4 24  1  0
  5 25  1  0
  5 26  1  0
  6 27  1  0
  8 28  1  0
  9 29  1  0
 13 30  1  0
 13 31  1  0
 13 32  1  0
 14 33  1  0
 16 34  1  0
M  CHG  1  14   1
M  END
>  <UniqueID>  (9) 
9

>  <SMILES>  (9) 
CCNCCNc1ccc2oc(C)[nH+]c2c1

>  <Energy>  (9) 
66.20784473342664

>  <Genealogy>  (9) 
CCNCCNc1ccc2oc(C)[nH+]c2c1 (protonated)
CCNCCNc1ccc2oc(C)[nH+]c2c1 (3D coordinates assigned)
CCNCCNc1ccc2oc(C)[nH+]c2c1 (optimized conformer: 66.20784473342664 kcal/mol)

>  <smiles>  (9) 
CCNCCNc1ccc2oc(C)nc2c1

>  <score_type>  (9) 
oracle

>  <origin>  (9) 
adg

>  <m_score__min__energy>  (9) 
-4.7400000000000002

>  <m_primary>  (9) 
energy

$$$$
9:0
     RDKit          3D

 33 34  0  0  0  0  0  0  0  0999 V2000
   60.1150   28.7010   45.0170 C   0  0  0  0  0  0  0  0  0  0  0  0
   59.1050   28.3630   44.4520 C   0  0  0  0  0  0  0  0  0  0  0  0
   57.8750   27.9550   43.7620 C   0  0  0  0  0  0  0  0  0  0  0  0
   57.0250   29.1680   43.3600 C   0  0  0  0  0  0  0  0  0  0  0  0
   56.2470   29.8010   44.5220 C   0  0  0  0  0  0  0  0  0  0  0  0
   56.3790   31.2250   44.5200 O   0  0  0  0  0  0  0  0  0  0  0  0
   57.4100   31.9740   45.1130 C   0  0  0  0  0  0  0  0  0  0  0  0
   58.2130   31.3390   46.0660 C   0  0  0  0  0  0  0  0  0  0  0  0
   59.2540   32.0250   46.6960 C   0  0  0  0  0  0  0  0  0  0  0  0
   59.5200   33.3690   46.3800 C   0  0  0  0  0  0  0  0  0  0  0  0
   60.6280   34.0900   47.0590 C   0  0  0  0  0  0  0  0  0  0  0  0
   60.3660   34.9620   47.9310 O   0  0  0  0  0  0  0  0  0  0  0  0
   62.0680   33.8430   46.6970 C   0  0  0  0  0  0  0  0  0  0  0  0
   62.6350   32.5320   47.2230 C   0  0  0  0  0  0  0  0  0  0  0  0
   63.0400   33.8440   47.8700 C   0  0  0  0  0  0  0  0  0  0  0  0
   58.7160   34.0070   45.4180 C   0  0  0  0  0  0  0  0  0  0  0  0
   57.6760   33.3180   44.7870 C   0  0  0  0  0  0  0  0  0  0  0  0
   61.0365   29.0094   45.5325 H   0  0  0  0  0  0  0  0  0  0  0  0
   58.1437   27.3913   42.8565 H   0  0  0  0  0  0  0  0  0  0  0  0
   57.2839   27.3331   44.4504 H   0  0  0  0  0  0  0  0  0  0  0  0
   57.6925   29.9318   42.9345 H   0  0  0  0  0  0  0  0  0  0  0  0
   56.2781   28.8066   42.6379 H   0  0  0  0  0  0  0  0  0  0  0  0
   55.1829   29.5395   44.4256 H   0  0  0  0  0  0  0  0  0  0  0  0
   56.6581   29.4152   45.4665 H   0  0  0  0  0  0  0  0  0  0  0  0
   58.0224   30.2864   46.3225 H   0  0  0  0  0  0  0  0  0  0  0  0
   59.8713   31.5091   47.4462 H   0  0  0  0  0  0  0  0  0  0  0  0
   62.0292   34.3453   45.7191 H   0  0  0  0  0  0  0  0  0  0  0  0
   61.9843   31.8298   47.7648 H   0  0  0  0  0  0  0  0  0  0  0  0
   63.1777   31.6856   46.7768 H   0  0  0  0  0  0  0  0  0  0  0  0
   62.6824   34.0923   48.8802 H   0  0  0  0  0  0  0  0  0  0  0  0
   63.9970   34.3414   48.0862 H   0  0  0  0  0  0  0  0  0  0  0  0
   58.9076   35.0589   45.1596 H   0  0  0  0  0  0  0  0  0  0  0  0
   57.0615   33.8289   44.0311 H   0  0  0  0  0  0  0  0  0  0  0  0
  1  2  3  0
  2  3  1  0
  3  4  1  0
  4  5  1  0
  5  6  1  0
  6  7  1  0
  7  8  2  0
  8  9  1  0
  9 10  2  0
 10 11  1  0
 11 12  2  0
 11 13  1  0
 13 14  1  0
 14 15  1  0
 10 16  1  0
 16 17  2  0
 17  7  1  0
 15 13  1  0
  1 18  1  0
  3 19  1  0
  3 20  1  0
  4 21  1  0
  4 22  1  0
  5 23  1  0
  5 24  1  0
  8 25  1  0
  9 26  1  0
 13 27  1  0
 14 28  1  0
 14 29  1  0
 15 30  1  0
 15 31  1  0
 16 32  1  0
 17 33  1  0
M  END
>  <UniqueID>  (10) 
10

>  <SMILES>  (10) 
C#CCCCOc1ccc(C(=O)C2CC2)cc1

>  <Energy>  (10) 
293.02941729186097

>  <Genealogy>  (10) 
C#CCCCOc1ccc(C(=O)C2CC2)cc1 (3D coordinates assigned)
C#CCCCOc1ccc(C(=O)C2CC2)cc1 (nonaromatic ring conformer: 293.02941729186097 kcal/mol)

>  <smiles>  (10) 
C#CCCCOc1ccc(C(=O)C2CC2)cc1

>  <score_type>  (10) 
oracle

>  <origin>  (10) 
adg

>  <m_score__min__energy>  (10) 
-6.1500000000000004

>  <m_primary>  (10) 
energy

$$$$
10:0
     RDKit          3D

 63 65  0  0  0  0  0  0  0  0999 V2000
   58.1370   27.7870   44.7540 C   0  0  0  0  0  0  0  0  0  0  0  0
   57.4740   28.6260   45.6970 O   0  0  0  0  0  0  0  0  0  0  0  0
   58.0730   29.7440   46.2930 C   0  0  0  0  0  0  0  0  0  0  0  0
   58.8760   29.5430   47.4250 C   0  0  0  0  0  0  0  0  0  0  0  0
   59.5840   30.6040   48.0170 C   0  0  0  0  0  0  0  0  0  0  0  0
   60.7180   30.3690   49.0190 C   0  0  2  0  0  0  0  0  0  0  0  0
   60.8230   28.9720   49.6250 C   0  0  0  0  0  0  0  0  0  0  0  0
   61.8070   29.1810   50.7450 C   0  0  0  0  0  0  0  0  0  0  0  0
   61.3960   30.5340   51.2910 C   0  0  0  0  0  0  0  0  0  0  0  0
   60.9380   31.3560   50.1420 N   0  0  2  0  0  0  0  0  0  0  0  0
   59.8360   32.2520   50.5250 C   0  0  0  0  0  0  0  0  0  0  0  0
   58.7100   31.8280   50.6990 O   0  0  0  0  0  0  0  0  0  0  0  0
   60.0050   33.7710   50.5750 C   0  0  0  0  0  0  0  0  0  0  0  0
   61.0460   34.2980   49.6610 N   0  0  0  0  0  0  0  0  0  0  0  0
   62.4360   34.1810   50.1370 C   0  0  0  0  0  0  0  0  0  0  0  0
   63.3690   33.4580   49.1310 C   0  0  0  0  0  0  0  0  0  0  0  0
   62.6330   32.8050   48.0270 N   0  0  0  0  0  0  0  0  0  0  0  0
   62.4090   33.7290   46.8900 C   0  0  0  0  0  0  0  0  0  0  0  0
   63.3870   31.6220   47.5690 C   0  0  0  0  0  0  0  0  0  0  0  0
   59.4440   31.8870   47.4650 C   0  0  0  0  0  0  0  0  0  0  0  0
   58.6450   32.1090   46.3400 C   0  0  0  0  0  0  0  0  0  0  0  0
   57.9620   31.0340   45.7320 C   0  0  0  0  0  0  0  0  0  0  0  0
   57.3950   31.2390   44.4250 N   0  0  0  0  0  0  0  0  0  0  0  0
   58.1740   31.8510   43.3330 C   0  0  0  0  0  0  0  0  0  0  0  0
   57.3130   31.9990   42.0710 C   0  0  0  0  0  0  0  0  0  0  0  0
   56.6430   30.8010   41.6560 O   0  0  0  0  0  0  0  0  0  0  0  0
   56.2710   29.9200   42.7220 C   0  0  0  0  0  0  0  0  0  0  0  0
   56.1130   30.6020   44.0810 C   0  0  0  0  0  0  0  0  0  0  0  0
   58.7328   27.0330   45.2893 H   0  0  0  0  0  0  0  0  0  0  0  0
   57.3902   27.2835   44.1226 H   0  0  0  0  0  0  0  0  0  0  0  0
   58.7995   28.3972   44.1226 H   0  0  0  0  0  0  0  0  0  0  0  0
   58.9536   28.5350   47.8586 H   0  0  0  0  0  0  0  0  0  0  0  0
   61.5170   30.5340   48.2812 H   0  0  0  0  0  0  0  0  0  0  0  0
   59.8503   28.6298   50.0081 H   0  0  0  0  0  0  0  0  0  0  0  0
   61.1336   28.2014   48.9040 H   0  0  0  0  0  0  0  0  0  0  0  0
   61.7109   28.3970   51.5106 H   0  0  0  0  0  0  0  0  0  0  0  0
   62.8573   29.1384   50.4210 H   0  0  0  0  0  0  0  0  0  0  0  0
   60.5784   30.4139   52.0170 H   0  0  0  0  0  0  0  0  0  0  0  0
   62.2400   31.0188   51.8034 H   0  0  0  0  0  0  0  0  0  0  0  0
   61.7540   31.9480   49.8580 H   0  0  0  0  0  0  0  0  0  0  0  0
   59.0440   34.2338   50.3063 H   0  0  0  0  0  0  0  0  0  0  0  0
   60.3273   34.0192   51.5970 H   0  0  0  0  0  0  0  0  0  0  0  0
   60.9860   33.7840   48.7490 H   0  0  0  0  0  0  0  0  0  0  0  0
   62.8307   35.1923   50.3148 H   0  0  0  0  0  0  0  0  0  0  0  0
   62.4164   33.5768   51.0560 H   0  0  0  0  0  0  0  0  0  0  0  0
   64.0615   34.1970   48.7017 H   0  0  0  0  0  0  0  0  0  0  0  0
   63.9008   32.6695   49.6836 H   0  0  0  0  0  0  0  0  0  0  0  0
   62.1661   34.7308   47.2740 H   0  0  0  0  0  0  0  0  0  0  0  0
   63.3202   33.7826   46.2761 H   0  0  0  0  0  0  0  0  0  0  0  0
   61.5744   33.3594   46.2761 H   0  0  0  0  0  0  0  0  0  0  0  0
   63.7473   31.0566   48.4411 H   0  0  0  0  0  0  0  0  0  0  0  0
   62.7305   30.9810   46.9623 H   0  0  0  0  0  0  0  0  0  0  0  0
   64.2452   31.9465   46.9623 H   0  0  0  0  0  0  0  0  0  0  0  0
   59.9732   32.7337   47.9266 H   0  0  0  0  0  0  0  0  0  0  0  0
   58.5482   33.1241   45.9274 H   0  0  0  0  0  0  0  0  0  0  0  0
   58.5230   32.8446   43.6509 H   0  0  0  0  0  0  0  0  0  0  0  0
   59.0315   31.2017   43.1026 H   0  0  0  0  0  0  0  0  0  0  0  0
   56.5505   32.7677   42.2652 H   0  0  0  0  0  0  0  0  0  0  0  0
   58.0016   32.2667   41.2561 H   0  0  0  0  0  0  0  0  0  0  0  0
   55.3119   29.4493   42.4601 H   0  0  0  0  0  0  0  0  0  0  0  0
   57.0907   29.1943   42.8291 H   0  0  0  0  0  0  0  0  0  0  0  0
   55.3211   31.3636   44.0262 H   0  0  0  0  0  0  0  0  0  0  0  0
   55.8365   29.8636   44.8480 H   0  0  0  0  0  0  0  0  0  0  0  0
  1  2  1  0
  2  3  1  0
  3  4  2  0
  4  5  1  0
  5  6  1  0
  6  7  1  0
  7  8  1  0
  8  9  1  0
  9 10  1  0
 10 11  1  0
 11 12  2  0
 11 13  1  0
 13 14  1  0
 14 15  1  0
 15 16  1  0
 16 17  1  0
 17 18  1  0
 17 19  1  0
  5 20  2  0
 20 21  1  0
 21 22  2  0
 22 23  1  0
 23 24  1  0
 24 25  1  0
 25 26  1  0
 26 27  1  0
 27 28  1  0
 22  3  1  0
 28 23  1  0
 10  6  1  0
  1 29  1  0
  1 30  1  0
  1 31  1  0
  4 32  1  0
  6 33  1  6
  7 34  1  0
  7 35  1  0
  8 36  1  0
  8 37  1  0
  9 38  1  0
  9 39  1  0
 10 40  1  6
 13 41  1  0
 13 42  1  0
 14 43  1  0
 15 44  1  0
 15 45  1  0
 16 46  1  0
 16 47  1  0
 18 48  1  0
 18 49  1  0
 18 50  1  0
 19 51  1  0
 19 52  1  0
 19 53  1  0
 20 54  1  0
 21 55  1  0
 24 56  1  0
 24 57  1  0
 25 58  1  0
 25 59  1  0
 27 60  1  0
 27 61  1  0
 28 62  1  0
 28 63  1  0
M  CHG  1  10   1
M  END
>  <UniqueID>  (11) 
11

>  <SMILES>  (11) 
COc1cc([C@@H]2CCC[N@@H+]2C(=O)CNCCN(C)C)ccc1N1CCOCC1

>  <Energy>  (11) 
119.41071077306488

>  <Genealogy>  (11) 
COc1cc(C2CCC[NH+]2C(=O)CNCCN(C)C)ccc1N1CCOCC1 (protonated)
COc1cc([C@@H]2CCC[N@@H+]2C(=O)CNCCN(C)C)ccc1N1CCOCC1 (chirality)
COc1cc([C@@H]2CCC[N@@H+]2C(=O)CNCCN(C)C)ccc1N1CCOCC1 (3D coordinates assigned)
COc1cc([C@@H]2CCC[N@@H+]2C(=O)CNCCN(C)C)ccc1N1CCOCC1 (nonaromatic ring conformer: 119.41071077306488 kcal/mol)

>  <smiles>  (11) 
COc1cc(C2CCCN2C(=O)CNCCN(C)C)ccc1N1CCOCC1

>  <score_type>  (11) 
oracle

>  <origin>  (11) 
adg

>  <m_score__min__energy>  (11) 
-5.8600000000000003

>  <m_primary>  (11) 
energy

$$$$
11:0
     RDKit          3D

 65 67  0  0  0  0  0  0  0  0999 V2000
   62.8891   34.5182   45.9787 H   0  0  0  0  0  0  0  0  0  0  0  0
   62.9230   33.7940   46.8060 C   0  0  0  0  0  0  0  0  0  0  0  0
   62.1110   32.6590   46.7710 C   0  0  0  0  0  0  0  0  0  0  0  0
   61.4339   32.4976   45.9193 H   0  0  0  0  0  0  0  0  0  0  0  0
   62.1530   31.7230   47.8150 C   0  0  0  0  0  0  0  0  0  0  0  0
   61.2880   30.5750   47.7690 N   0  0  0  0  0  0  0  0  0  0  0  0
   61.6020   29.7030   48.2510 H   0  0  0  0  0  0  0  0  0  0  0  0
   60.0000   30.5620   47.1310 C   0  0  0  0  0  0  0  0  0  0  0  0
   59.3720   31.6800   46.9080 N   0  0  0  0  0  0  0  0  0  0  0  0
   58.2460   31.7860   46.0760 C   0  0  0  0  0  0  0  0  0  0  0  0
   57.3190   31.8740   45.3890 N   0  0  0  0  0  0  0  0  0  0  0  0
   59.3900   29.3000   46.8170 N   0  0  0  0  0  0  0  0  0  0  0  0
   59.3580   28.8550   45.4190 C   0  0  0  0  0  0  0  0  0  0  0  0
   58.5906   29.4297   44.8797 H   0  0  0  0  0  0  0  0  0  0  0  0
   60.3545   29.0214   44.9840 H   0  0  0  0  0  0  0  0  0  0  0  0
   59.0310   27.3610   45.3050 C   0  0  0  0  0  0  0  0  0  0  0  0
   58.7759   27.1263   44.2610 H   0  0  0  0  0  0  0  0  0  0  0  0
   59.9105   26.7823   45.6237 H   0  0  0  0  0  0  0  0  0  0  0  0
   57.8940   27.0070   46.1710 N   0  0  0  0  0  0  0  0  0  0  0  0
   56.9230   26.0190   45.7640 C   0  0  0  0  0  0  0  0  0  0  0  0
   55.7860   26.0070   46.3130 O   0  0  0  0  0  0  0  0  0  0  0  0
   57.2220   25.0280   44.6630 C   0  0  0  0  0  0  0  0  0  0  0  0
   56.9036   25.4593   43.7025 H   0  0  0  0  0  0  0  0  0  0  0  0
   58.3036   24.8281   44.6739 H   0  0  0  0  0  0  0  0  0  0  0  0
   56.4950   23.6930   44.8700 C   0  0  0  0  0  0  0  0  0  0  0  0
   55.8657   23.7570   45.7699 H   0  0  0  0  0  0  0  0  0  0  0  0
   55.8690   23.4834   43.9901 H   0  0  0  0  0  0  0  0  0  0  0  0
   57.4790   22.5990   45.0370 N   0  0  0  0  0  0  0  0  0  0  0  0
   58.1450   22.2340   43.7630 C   0  0  0  0  0  0  0  0  0  0  0  0
   58.1724   23.1207   43.1127 H   0  0  0  0  0  0  0  0  0  0  0  0
   59.1574   21.8784   44.0052 H   0  0  0  0  0  0  0  0  0  0  0  0
   57.4140   21.0960   43.0180 C   0  0  0  0  0  0  0  0  0  0  0  0
   57.5058   21.2571   41.9337 H   0  0  0  0  0  0  0  0  0  0  0  0
   57.8717   20.1369   43.3019 H   0  0  0  0  0  0  0  0  0  0  0  0
   56.0460   21.0670   43.3680 O   0  0  0  0  0  0  0  0  0  0  0  0
   55.8980   20.6830   44.7250 C   0  0  0  0  0  0  0  0  0  0  0  0
   54.8713   20.9152   45.0443 H   0  0  0  0  0  0  0  0  0  0  0  0
   56.1155   19.6065   44.7863 H   0  0  0  0  0  0  0  0  0  0  0  0
   56.8840   21.4070   45.6730 C   0  0  0  0  0  0  0  0  0  0  0  0
   56.3433   21.7189   46.5787 H   0  0  0  0  0  0  0  0  0  0  0  0
   57.6972   20.7085   45.9195 H   0  0  0  0  0  0  0  0  0  0  0  0
   57.7740   27.5960   47.5150 C   0  0  0  0  0  0  0  0  0  0  0  0
   56.9065   28.2721   47.5317 H   0  0  0  0  0  0  0  0  0  0  0  0
   57.6495   26.7767   48.2384 H   0  0  0  0  0  0  0  0  0  0  0  0
   59.0270   28.3870   47.9010 C   0  0  0  0  0  0  0  0  0  0  0  0
   58.8263   28.9661   48.8144 H   0  0  0  0  0  0  0  0  0  0  0  0
   59.8571   27.6878   48.0804 H   0  0  0  0  0  0  0  0  0  0  0  0
   62.9960   31.9620   48.9160 C   0  0  0  0  0  0  0  0  0  0  0  0
   63.0063   31.2535   49.7574 H   0  0  0  0  0  0  0  0  0  0  0  0
   63.8240   33.0950   48.9520 C   0  0  0  0  0  0  0  0  0  0  0  0
   64.7440   33.3310   50.1330 C   0  0  0  0  0  0  0  0  0  0  0  0
   64.2695   32.9092   51.0313 H   0  0  0  0  0  0  0  0  0  0  0  0
   64.8965   34.4179   50.2064 H   0  0  0  0  0  0  0  0  0  0  0  0
   66.0870   32.7170   49.9820 N   0  0  0  0  0  0  0  0  0  0  0  0
   66.2660   32.6300   48.9530 H   0  0  0  0  0  0  0  0  0  0  0  0
   67.1590   33.5600   50.5420 C   0  0  0  0  0  0  0  0  0  0  0  0
   67.1160   33.5262   51.6406 H   0  0  0  0  0  0  0  0  0  0  0  0
   68.1356   33.1854   50.2016 H   0  0  0  0  0  0  0  0  0  0  0  0
   67.0253   34.5974   50.2016 H   0  0  0  0  0  0  0  0  0  0  0  0
   66.1470   31.3550   50.5430 C   0  0  0  0  0  0  0  0  0  0  0  0
   66.1446   31.4105   51.6416 H   0  0  0  0  0  0  0  0  0  0  0  0
   65.2733   30.7796   50.2030 H   0  0  0  0  0  0  0  0  0  0  0  0
   67.0679   30.8586   50.2030 H   0  0  0  0  0  0  0  0  0  0  0  0
   63.7790   34.0130   47.8890 C   0  0  0  0  0  0  0  0  0  0  0  0
   64.4196   34.9070   47.9093 H   0  0  0  0  0  0  0  0  0  0  0  0
  1  2  1  0
  2  3  2  0
  3  4  1  0
  3  5  1  0
  5  6  1  0
  6  7  1  0
  6  8  1  0
  8  9  2  0
  9 10  1  0
 10 11  3  0
  8 12  1  0
 12 13  1  0
 13 14  1  0
 13 15  1  0
 13 16  1  0
 16 17  1  0
 16 18  1  0
 16 19  1  0
 19 20  1  0
 20 21  2  0
 20 22  1  0
 22 23  1  0
 22 24  1  0
 22 25  1  0
 25 26  1  0
 25 27  1  0
 25 28  1  0
 28 29  1  0
 29 30  1  0
 29 31  1  0
 29 32  1  0
 32 33  1  0
 32 34  1  0
 32 35  1  0
 35 36  1  0
 36 37  1  0
 36 38  1  0
 36 39  1  0
 39 40  1  0
 39 41  1  0
 19 42  1  0
 42 43  1  0
 42 44  1  0
 42 45  1  0
 45 46  1  0
 45 47  1  0
  5 48  2  0
 48 49  1  0
 48 50  1  0
 50 51  1  0
 51 52  1  0
 51 53  1  0
 51 54  1  0
 54 55  1  0
 54 56  1  0
 56 57  1  0
 56 58  1  0
 56 59  1  0
 54 60  1  0
 60 61  1  0
 60 62  1  0
 60 63  1  0
 50 64  2  0
 64 65  1  0
 64  2  1  0
 45 12  1  0
 39 28  1  0
M  CHG  1  54   1
M  END
>  <UniqueID>  (12) 
12

>  <SMILES>  (12) 
C[NH+](C)Cc1cccc(N/C(=N/C#N)N2CCN(C(=O)CCN3CCOCC3)CC2)c1

>  <Energy>  (12) 
85.68014389482052

>  <Genealogy>  (12) 
C[NH+](C)Cc1cccc(NC(=NC#N)N2CCN(C(=O)CCN3CCOCC3)CC2)c1 (protonated)
C[NH+](C)Cc1cccc(N/C(=N/C#N)N2CCN(C(=O)CCN3CCOCC3)CC2)c1 (cis-trans isomerization)
C[NH+](C)Cc1cccc(N/C(=N/C#N)N2CCN(C(=O)CCN3CCOCC3)CC2)c1 (3D coordinates assigned)
C[NH+](C)Cc1cccc(N/C(=N/C#N)N2CCN(C(=O)CCN3CCOCC3)CC2)c1 (nonaromatic ring conformer: 85.68014389482052 kcal/mol)

>  <smiles>  (12) 
CN(C)Cc1cccc(NC(=NC#N)N2CCN(C(=O)CCN3CCOCC3)CC2)c1

>  <score_type>  (12) 
oracle

>  <origin>  (12) 
adg

>  <m_score__min__energy>  (12) 
-6.8300000000000001

>  <m_primary>  (12) 
energy

$$$$
12:0
     RDKit          3D

 43 45  0  0  0  0  0  0  0  0999 V2000
   63.4170   32.7460   47.1560 C   0  0  0  0  0  0  0  0  0  0  0  0
   62.3400   31.7270   47.5010 C   0  0  0  0  0  0  0  0  0  0  0  0
   61.0140   32.3960   47.5510 N   0  0  0  0  0  0  0  0  0  0  0  0
   61.0510   33.6320   48.3660 C   0  0  0  0  0  0  0  0  0  0  0  0
   59.6520   34.2300   48.4960 C   0  0  0  0  0  0  0  0  0  0  0  0
   59.9450   31.4860   48.0220 C   0  0  0  0  0  0  0  0  0  0  0  0
   59.3030   30.7320   46.8540 C   0  0  0  0  0  0  0  0  0  0  0  0
   58.7570   31.4150   45.7220 C   0  0  0  0  0  0  0  0  0  0  0  0
   58.7360   32.8310   45.6230 C   0  0  0  0  0  0  0  0  0  0  0  0
   58.2410   33.4730   44.4910 C   0  0  0  0  0  0  0  0  0  0  0  0
   57.7580   32.7340   43.4240 C   0  0  0  0  0  0  0  0  0  0  0  0
   57.7430   31.3450   43.4900 C   0  0  0  0  0  0  0  0  0  0  0  0
   58.2120   30.6640   44.6380 C   0  0  0  0  0  0  0  0  0  0  0  0
   58.1630   29.2540   44.6980 C   0  0  0  0  0  0  0  0  0  0  0  0
   57.5960   28.5070   43.6070 N   0  0  0  0  0  0  0  0  0  0  0  0
   58.6620   28.5760   45.8300 C   0  0  0  0  0  0  0  0  0  0  0  0
   58.5610   27.1680   45.9260 C   0  0  0  0  0  0  0  0  0  0  0  0
   59.0550   26.4870   47.0350 C   0  0  0  0  0  0  0  0  0  0  0  0
   59.6470   27.1900   48.0740 C   0  0  0  0  0  0  0  0  0  0  0  0
   59.7410   28.5780   48.0170 C   0  0  0  0  0  0  0  0  0  0  0  0
   59.2440   29.3060   46.9040 C   0  0  0  0  0  0  0  0  0  0  0  0
   63.8471   33.1530   48.0830 H   0  0  0  0  0  0  0  0  0  0  0  0
   64.2083   32.2583   46.5678 H   0  0  0  0  0  0  0  0  0  0  0  0
   62.9738   33.5631   46.5678 H   0  0  0  0  0  0  0  0  0  0  0  0
   62.3231   30.9390   46.7337 H   0  0  0  0  0  0  0  0  0  0  0  0
   62.5606   31.2825   48.4827 H   0  0  0  0  0  0  0  0  0  0  0  0
   61.4370   33.3933   49.3680 H   0  0  0  0  0  0  0  0  0  0  0  0
   61.7060   34.3644   47.8714 H   0  0  0  0  0  0  0  0  0  0  0  0
   59.3973   34.3389   49.5605 H   0  0  0  0  0  0  0  0  0  0  0  0
   59.6285   35.2168   48.0106 H   0  0  0  0  0  0  0  0  0  0  0  0
   58.9225   33.5651   48.0106 H   0  0  0  0  0  0  0  0  0  0  0  0
   60.3774   30.7581   48.7242 H   0  0  0  0  0  0  0  0  0  0  0  0
   59.1683   32.0883   48.5159 H   0  0  0  0  0  0  0  0  0  0  0  0
   59.1193   33.4343   46.4591 H   0  0  0  0  0  0  0  0  0  0  0  0
   58.2335   34.5720   44.4440 H   0  0  0  0  0  0  0  0  0  0  0  0
   57.3862   33.2458   42.5241 H   0  0  0  0  0  0  0  0  0  0  0  0
   57.3604   30.7666   42.6361 H   0  0  0  0  0  0  0  0  0  0  0  0
   57.8120   28.7510   42.6160 H   0  0  0  0  0  0  0  0  0  0  0  0
   56.9490   27.7060   43.7810 H   0  0  0  0  0  0  0  0  0  0  0  0
   58.0846   26.6026   45.1115 H   0  0  0  0  0  0  0  0  0  0  0  0
   58.9759   25.3911   47.0875 H   0  0  0  0  0  0  0  0  0  0  0  0
   60.0435   26.6491   48.9459 H   0  0  0  0  0  0  0  0  0  0  0  0
   60.2096   29.1213   48.8508 H   0  0  0  0  0  0  0  0  0  0  0  0
  1  2  1  0
  2  3  1  0
  3  4  1  0
  4  5  1  0
  3  6  1  0
  6  7  1  0
  7  8  2  0
  8  9  1  0
  9 10  2  0
 10 11  1  0
 11 12  2  0
 12 13  1  0
 13 14  2  0
 14 15  1  0
 14 16  1  0
 16 17  2  0
 17 18  1  0
 18 19  2  0
 19 20  1  0
 20 21  2  0
 21  7  1  0
 13  8  1  0
 21 16  1  0
  1 22  1  0
  1 23  1  0
  1 24  1  0
  2 25  1  0
  2 26  1  0
  4 27  1  0
  4 28  1  0
  5 29  1  0
  5 30  1  0
  5 31  1  0
  6 32  1  0
  6 33  1  0
  9 34  1  0
 10 35  1  0
 11 36  1  0
 12 37  1  0
 15 38  1  0
 15 39  1  0
 17 40  1  0
 18 41  1  0
 19 42  1  0
 20 43  1  0
M  END
>  <UniqueID>  (13) 
13

>  <SMILES>  (13) 
CCN(CC)Cc1c2ccccc2c(N)c2ccccc12

>  <Energy>  (13) 
67.90440895357119

>  <Genealogy>  (13) 
CCN(CC)Cc1c2ccccc2c(N)c2ccccc12 (3D coordinates assigned)
CCN(CC)Cc1c2ccccc2c(N)c2ccccc12 (optimized conformer: 67.90440895357119 kcal/mol)

>  <smiles>  (13) 
CCN(CC)Cc1c2ccccc2c(N)c2ccccc12

>  <score_type>  (13) 
oracle

>  <origin>  (13) 
adg

>  <m_score__min__energy>  (13) 
-7.0800000000000001

>  <m_primary>  (13) 
energy

$$$$
13:0
     RDKit          3D

 52 54  0  0  0  0  0  0  0  0999 V2000
   60.6650   29.7110   46.2740 C   0  0  0  0  0  0  0  0  0  0  0  0
   59.5170   29.4510   47.2370 C   0  0  0  0  0  0  0  0  0  0  0  0
   58.3000   29.7840   46.6020 O   0  0  0  0  0  0  0  0  0  0  0  0
   58.0170   28.8690   45.5590 C   0  0  0  0  0  0  0  0  0  0  0  0
   56.6910   29.2080   44.8660 C   0  0  0  0  0  0  0  0  0  0  0  0
   56.4480   30.6030   44.8610 O   0  0  0  0  0  0  0  0  0  0  0  0
   57.0280   31.2370   43.7330 C   0  0  0  0  0  0  0  0  0  0  0  0
   58.1480   32.1850   44.1850 C   0  0  0  0  0  0  0  0  0  0  0  0
   58.3510   32.1890   45.6460 N   0  0  0  0  0  0  0  0  0  0  0  0
   58.4900   33.5490   46.1910 C   0  0  0  0  0  0  0  0  0  0  0  0
   58.4520   33.5250   47.7250 C   0  0  0  0  0  0  0  0  0  0  0  0
   59.7120   32.9220   48.2760 C   0  0  0  0  0  0  0  0  0  0  0  0
   59.8700   32.0570   49.3730 C   0  0  0  0  0  0  0  0  0  0  0  0
   58.8160   31.5220   50.2660 C   0  0  0  0  0  0  0  0  0  0  0  0
   57.9140   32.2180   51.0530 C   0  0  0  0  0  0  0  0  0  0  0  0
   57.1220   31.2610   51.6510 C   0  0  0  0  0  0  0  0  0  0  0  0
   57.4990   30.0650   51.2630 O   0  0  0  0  0  0  0  0  0  0  0  0
   58.5070   30.1840   50.4320 C   0  0  0  0  0  0  0  0  0  0  0  0
   61.1820   31.7560   49.5410 N   0  0  0  0  0  0  0  0  0  0  0  0
   61.8440   32.3910   48.5630 C   0  0  0  0  0  0  0  0  0  0  0  0
   63.2180   32.3670   48.3230 C   0  0  0  0  0  0  0  0  0  0  0  0
   63.7080   33.1050   47.2310 C   0  0  0  0  0  0  0  0  0  0  0  0
   62.8250   33.8400   46.4110 C   0  0  0  0  0  0  0  0  0  0  0  0
   61.4430   33.8460   46.6770 C   0  0  0  0  0  0  0  0  0  0  0  0
   60.9860   33.1060   47.7710 C   0  0  0  0  0  0  0  0  0  0  0  0
   61.5823   29.9187   46.8445 H   0  0  0  0  0  0  0  0  0  0  0  0
   60.8199   28.8252   45.6405 H   0  0  0  0  0  0  0  0  0  0  0  0
   60.4232   30.5771   45.6405 H   0  0  0  0  0  0  0  0  0  0  0  0
   59.5066   28.3881   47.5201 H   0  0  0  0  0  0  0  0  0  0  0  0
   59.6443   30.0641   48.1414 H   0  0  0  0  0  0  0  0  0  0  0  0
   58.8290   28.9078   44.8179 H   0  0  0  0  0  0  0  0  0  0  0  0
   57.9348   27.8616   45.9931 H   0  0  0  0  0  0  0  0  0  0  0  0
   56.7288   28.8484   43.8271 H   0  0  0  0  0  0  0  0  0  0  0  0
   55.8773   28.7187   45.4213 H   0  0  0  0  0  0  0  0  0  0  0  0
   57.4457   30.4736   43.0601 H   0  0  0  0  0  0  0  0  0  0  0  0
   56.2552   31.8151   43.2052 H   0  0  0  0  0  0  0  0  0  0  0  0
   59.0860   31.8732   43.7025 H   0  0  0  0  0  0  0  0  0  0  0  0
   57.8521   33.2035   43.8931 H   0  0  0  0  0  0  0  0  0  0  0  0
   57.5150   31.7370   46.0850 H   0  0  0  0  0  0  0  0  0  0  0  0
   59.1920   31.6170   45.8920 H   0  0  0  0  0  0  0  0  0  0  0  0
   59.4490   33.9744   45.8601 H   0  0  0  0  0  0  0  0  0  0  0  0
   57.6538   34.1635   45.8260 H   0  0  0  0  0  0  0  0  0  0  0  0
   58.3497   34.5540   48.1001 H   0  0  0  0  0  0  0  0  0  0  0  0
   57.5960   32.9148   48.0488 H   0  0  0  0  0  0  0  0  0  0  0  0
   57.8439   33.3089   51.1757 H   0  0  0  0  0  0  0  0  0  0  0  0
   56.2975   31.4686   52.3489 H   0  0  0  0  0  0  0  0  0  0  0  0
   59.0270   29.3476   49.9421 H   0  0  0  0  0  0  0  0  0  0  0  0
   61.5990   31.1350   50.2700 H   0  0  0  0  0  0  0  0  0  0  0  0
   63.8966   31.7891   48.9676 H   0  0  0  0  0  0  0  0  0  0  0  0
   64.7864   33.1096   47.0144 H   0  0  0  0  0  0  0  0  0  0  0  0
   63.2197   34.4120   45.5583 H   0  0  0  0  0  0  0  0  0  0  0  0
   60.7453   34.4145   46.0445 H   0  0  0  0  0  0  0  0  0  0  0  0
  1  2  1  0
  2  3  1  0
  3  4  1  0
  4  5  1  0
  5  6  1  0
  6  7  1  0
  7  8  1  0
  8  9  1  0
  9 10  1  0
 10 11  1  0
 11 12  1  0
 12 13  2  0
 13 14  1  0
 14 15  1  0
 15 16  2  0
 16 17  1  0
 17 18  1  0
 13 19  1  0
 19 20  1  0
 20 21  2  0
 21 22  1  0
 22 23  2  0
 23 24  1  0
 24 25  2  0
 25 12  1  0
 18 14  2  0
 25 20  1  0
  1 26  1  0
  1 27  1  0
  1 28  1  0
  2 29  1  0
  2 30  1  0
  4 31  1  0
  4 32  1  0
  5 33  1  0
  5 34  1  0
  7 35  1  0
  7 36  1  0
  8 37  1  0
  8 38  1  0
  9 39  1  0
  9 40  1  0
 10 41  1  0
 10 42  1  0
 11 43  1  0
 11 44  1  0
 15 45  1  0
 16 46  1  0
 18 47  1  0
 19 48  1  0
 21 49  1  0
 22 50  1  0
 23 51  1  0
 24 52  1  0
M  CHG  1   9   1
M  END
>  <UniqueID>  (14) 
14

>  <SMILES>  (14) 
CCOCCOCC[NH2+]CCc1c(-c2ccoc2)[nH]c2ccccc12

>  <Energy>  (14) 
110.64077872510734

>  <Genealogy>  (14) 
CCOCCOCC[NH2+]CCc1c(-c2ccoc2)[nH]c2ccccc12 (protonated)
CCOCCOCC[NH2+]CCc1c(-c2ccoc2)[nH]c2ccccc12 (3D coordinates assigned)
CCOCCOCC[NH2+]CCc1c(-c2ccoc2)[nH]c2ccccc12 (optimized conformer: 110.64077872510734 kcal/mol)

>  <smiles>  (14) 
CCOCCOCCNCCc1c(-c2ccoc2)[nH]c2ccccc12

>  <score_type>  (14) 
oracle

>  <origin>  (14) 
adg

>  <m_score__min__energy>  (14) 
-4.7000000000000002

>  <m_primary>  (14) 
energy

$$$$
14:0
     RDKit          3D

 51 53  0  0  0  0  0  0  0  0999 V2000
   63.1180   32.4860   47.5500 C   0  0  0  0  0  0  0  0  0  0  0  0
   62.4290   33.8430   47.4690 C   0  0  0  0  0  0  0  0  0  0  0  0
   60.9690   33.6910   47.1200 C   0  0  0  0  0  0  0  0  0  0  0  0
   60.1090   34.7090   47.2600 C   0  0  0  0  0  0  0  0  0  0  0  0
   58.6640   34.4770   46.9330 C   0  0  0  0  0  0  0  0  0  0  0  0
   58.1930   33.1340   47.5320 C   0  0  0  0  0  0  0  0  0  0  0  0
   59.1820   32.0170   47.4020 N   0  0  0  0  0  0  0  0  0  0  0  0
   59.5110   31.4060   48.7110 C   0  0  0  0  0  0  0  0  0  0  0  0
   59.5170   29.8730   48.6220 C   0  0  0  0  0  0  0  0  0  0  0  0
   60.3600   29.3720   47.4390 C   0  0  0  0  0  0  0  0  0  0  0  0
   59.5520   28.5390   46.5360 N   0  0  0  0  0  0  0  0  0  0  0  0
   60.0210   27.2220   46.2170 C   0  0  0  0  0  0  0  0  0  0  0  0
   61.1670   27.0740   45.7150 O   0  0  0  0  0  0  0  0  0  0  0  0
   59.1990   26.0170   46.5610 C   0  0  0  0  0  0  0  0  0  0  0  0
   57.8240   26.0320   45.8880 C   0  0  0  0  0  0  0  0  0  0  0  0
   56.9490   27.1980   46.3680 C   0  0  0  0  0  0  0  0  0  0  0  0
   57.2480   28.4690   45.6110 C   0  0  0  0  0  0  0  0  0  0  0  0
   56.2520   29.0420   44.8010 C   0  0  0  0  0  0  0  0  0  0  0  0
   56.4890   30.2390   44.1240 C   0  0  0  0  0  0  0  0  0  0  0  0
   57.7230   30.8790   44.2460 C   0  0  0  0  0  0  0  0  0  0  0  0
   58.0440   32.5190   43.3200 Br  0  0  0  0  0  0  0  0  0  0  0  0
   58.7250   30.3180   45.0390 C   0  0  0  0  0  0  0  0  0  0  0  0
   58.5030   29.1120   45.7300 C   0  0  0  0  0  0  0  0  0  0  0  0
   60.4080   32.3710   46.6450 C   0  0  0  0  0  0  0  0  0  0  0  0
   63.2588   32.2087   48.6051 H   0  0  0  0  0  0  0  0  0  0  0  0
   62.4954   31.7283   47.0517 H   0  0  0  0  0  0  0  0  0  0  0  0
   64.0971   32.5416   47.0517 H   0  0  0  0  0  0  0  0  0  0  0  0
   62.5150   34.3482   48.4423 H   0  0  0  0  0  0  0  0  0  0  0  0
   62.9166   34.4359   46.6812 H   0  0  0  0  0  0  0  0  0  0  0  0
   60.4555   35.6936   47.6073 H   0  0  0  0  0  0  0  0  0  0  0  0
   58.0601   35.2946   47.3535 H   0  0  0  0  0  0  0  0  0  0  0  0
   58.5429   34.4458   45.8401 H   0  0  0  0  0  0  0  0  0  0  0  0
   57.9867   33.2880   48.6015 H   0  0  0  0  0  0  0  0  0  0  0  0
   57.3020   32.8318   46.9622 H   0  0  0  0  0  0  0  0  0  0  0  0
   60.5062   31.7510   49.0281 H   0  0  0  0  0  0  0  0  0  0  0  0
   58.7451   31.7098   49.4397 H   0  0  0  0  0  0  0  0  0  0  0  0
   59.9337   29.4641   49.5543 H   0  0  0  0  0  0  0  0  0  0  0  0
   58.4810   29.5359   48.4699 H   0  0  0  0  0  0  0  0  0  0  0  0
   60.7478   30.2370   46.8809 H   0  0  0  0  0  0  0  0  0  0  0  0
   61.1895   28.7647   47.8301 H   0  0  0  0  0  0  0  0  0  0  0  0
   59.7406   25.1164   46.2362 H   0  0  0  0  0  0  0  0  0  0  0  0
   59.0380   26.0225   47.6491 H   0  0  0  0  0  0  0  0  0  0  0  0
   57.9642   26.1202   44.8005 H   0  0  0  0  0  0  0  0  0  0  0  0
   57.3106   25.0963   46.1543 H   0  0  0  0  0  0  0  0  0  0  0  0
   55.8914   26.9348   46.2191 H   0  0  0  0  0  0  0  0  0  0  0  0
   57.1655   27.3737   47.4321 H   0  0  0  0  0  0  0  0  0  0  0  0
   55.2772   28.5424   44.7000 H   0  0  0  0  0  0  0  0  0  0  0  0
   55.7021   30.6786   43.4934 H   0  0  0  0  0  0  0  0  0  0  0  0
   59.6982   30.8235   45.1249 H   0  0  0  0  0  0  0  0  0  0  0  0
   61.1627   31.5844   46.7924 H   0  0  0  0  0  0  0  0  0  0  0  0
   60.1511   32.4600   45.5791 H   0  0  0  0  0  0  0  0  0  0  0  0
  1  2  1  0
  2  3  1  0
  3  4  2  0
  4  5  1  0
  5  6  1  0
  6  7  1  0
  7  8  1  0
  8  9  1  0
  9 10  1  0
 10 11  1  0
 11 12  1  0
 12 13  2  0
 12 14  1  0
 14 15  1  0
 15 16  1  0
 16 17  1  0
 17 18  2  0
 18 19  1  0
 19 20  2  0
 20 21  1  0
 20 22  1  0
 22 23  2  0
  7 24  1  0
 24  3  1  0
 23 11  1  0
 23 17  1  0
  1 25  1  0
  1 26  1  0
  1 27  1  0
  2 28  1  0
  2 29  1  0
  4 30  1  0
  5 31  1  0
  5 32  1  0
  6 33  1  0
  6 34  1  0
  8 35  1  0
  8 36  1  0
  9 37  1  0
  9 38  1  0
 10 39  1  0
 10 40  1  0
 14 41  1  0
 14 42  1  0
 15 43  1  0
 15 44  1  0
 16 45  1  0
 16 46  1  0
 18 47  1  0
 19 48  1  0
 22 49  1  0
 24 50  1  0
 24 51  1  0
M  END
>  <UniqueID>  (15) 
15

>  <SMILES>  (15) 
CCC1=CCCN(CCCN2C(=O)CCCc3ccc(Br)cc32)C1

>  <Energy>  (15) 
62.404615010368325

>  <Genealogy>  (15) 
CCC1=CCCN(CCCN2C(=O)CCCc3ccc(Br)cc32)C1 (3D coordinates assigned)
CCC1=CCCN(CCCN2C(=O)CCCc3ccc(Br)cc32)C1 (nonaromatic ring conformer: 62.404615010368325 kcal/mol)

>  <smiles>  (15) 
CCC1=CCCN(CCCN2C(=O)CCCc3ccc(Br)cc32)C1

>  <score_type>  (15) 
oracle

>  <origin>  (15) 
adg

>  <m_score__min__energy>  (15) 
-6.7800000000000002

>  <m_primary>  (15) 
energy

$$$$
15:0
     RDKit          3D

 53 55  0  0  0  0  0  0  0  0999 V2000
   59.3360   33.4880   50.1010 C   0  0  0  0  0  0  0  0  0  0  0  0
   58.6680   32.3430   49.3460 C   0  0  0  0  0  0  0  0  0  0  0  0
   59.6360   31.5520   48.6580 O   0  0  0  0  0  0  0  0  0  0  0  0
   61.0220   31.7900   48.6130 C   0  0  0  0  0  0  0  0  0  0  0  0
   61.8760   31.3500   49.6480 C   0  0  0  0  0  0  0  0  0  0  0  0
   63.2500   31.5830   49.5840 C   0  0  0  0  0  0  0  0  0  0  0  0
   63.7940   32.2590   48.4970 C   0  0  0  0  0  0  0  0  0  0  0  0
   62.9670   32.7140   47.4710 C   0  0  0  0  0  0  0  0  0  0  0  0
   61.5750   32.4950   47.5110 C   0  0  0  0  0  0  0  0  0  0  0  0
   60.7220   33.0400   46.3690 C   0  0  2  0  0  0  0  0  0  0  0  0
   60.2260   34.4770   46.6420 C   0  0  0  0  0  0  0  0  0  0  0  0
   59.3040   34.9310   45.5410 C   0  0  0  0  0  0  0  0  0  0  0  0
   59.3350   36.0920   45.1630 O   0  0  0  0  0  0  0  0  0  0  0  0
   58.2740   33.9800   44.9780 C   0  0  2  0  0  0  0  0  0  0  0  0
   57.0090   34.0190   45.8470 C   0  0  0  0  0  0  0  0  0  0  0  0
   58.9100   32.5700   44.8240 C   0  0  2  0  0  0  0  0  0  0  0  0
   57.9480   31.5190   44.2600 C   0  0  0  0  0  0  0  0  0  0  0  0
   57.5350   31.6670   42.9190 C   0  0  0  0  0  0  0  0  0  0  0  0
   56.6550   30.7610   42.3310 C   0  0  0  0  0  0  0  0  0  0  0  0
   56.1560   29.6950   43.0700 C   0  0  0  0  0  0  0  0  0  0  0  0
   56.5260   29.5360   44.4050 C   0  0  0  0  0  0  0  0  0  0  0  0
   57.4150   30.4420   45.0210 C   0  0  0  0  0  0  0  0  0  0  0  0
   57.7570   30.3120   46.3780 O   0  0  0  0  0  0  0  0  0  0  0  0
   58.5950   29.3040   46.9440 C   0  0  0  0  0  0  0  0  0  0  0  0
   59.7000   28.9120   45.9690 C   0  0  0  0  0  0  0  0  0  0  0  0
   59.6030   32.1270   46.0560 N   0  0  0  0  0  0  0  0  0  0  0  0
   59.2379   33.3199   51.1836 H   0  0  0  0  0  0  0  0  0  0  0  0
   60.4017   33.5323   49.8319 H   0  0  0  0  0  0  0  0  0  0  0  0
   58.8501   34.4375   49.8319 H   0  0  0  0  0  0  0  0  0  0  0  0
   58.1267   31.7071   50.0620 H   0  0  0  0  0  0  0  0  0  0  0  0
   57.9729   32.7682   48.6070 H   0  0  0  0  0  0  0  0  0  0  0  0
   61.4536   30.8182   50.5133 H   0  0  0  0  0  0  0  0  0  0  0  0
   63.9046   31.2313   50.3950 H   0  0  0  0  0  0  0  0  0  0  0  0
   64.8787   32.4349   48.4468 H   0  0  0  0  0  0  0  0  0  0  0  0
   63.4070   33.2516   46.6181 H   0  0  0  0  0  0  0  0  0  0  0  0
   61.3687   33.0955   45.4809 H   0  0  0  0  0  0  0  0  0  0  0  0
   59.6853   34.4982   47.5997 H   0  0  0  0  0  0  0  0  0  0  0  0
   61.0932   35.1525   46.6832 H   0  0  0  0  0  0  0  0  0  0  0  0
   57.9536   34.2827   43.9702 H   0  0  0  0  0  0  0  0  0  0  0  0
   57.2936   34.0102   46.9095 H   0  0  0  0  0  0  0  0  0  0  0  0
   56.4412   34.9351   45.6271 H   0  0  0  0  0  0  0  0  0  0  0  0
   56.3858   33.1396   45.6271 H   0  0  0  0  0  0  0  0  0  0  0  0
   59.6885   32.6765   44.0542 H   0  0  0  0  0  0  0  0  0  0  0  0
   57.9146   32.5129   42.3271 H   0  0  0  0  0  0  0  0  0  0  0  0
   56.3548   30.8895   41.2806 H   0  0  0  0  0  0  0  0  0  0  0  0
   55.4683   28.9758   42.6012 H   0  0  0  0  0  0  0  0  0  0  0  0
   56.1199   28.6941   44.9848 H   0  0  0  0  0  0  0  0  0  0  0  0
   59.0493   29.6894   47.8687 H   0  0  0  0  0  0  0  0  0  0  0  0
   57.9831   28.4160   47.1608 H   0  0  0  0  0  0  0  0  0  0  0  0
   60.5906   28.5960   46.5320 H   0  0  0  0  0  0  0  0  0  0  0  0
   59.3529   28.0821   45.3359 H   0  0  0  0  0  0  0  0  0  0  0  0
   59.9535   29.7751   45.3359 H   0  0  0  0  0  0  0  0  0  0  0  0
   58.9410   32.1520   46.8580 H   0  0  0  0  0  0  0  0  0  0  0  0
  1  2  1  0
  2  3  1  0
  3  4  1  0
  4  5  2  0
  5  6  1  0
  6  7  2  0
  7  8  1  0
  8  9  2  0
  9 10  1  0
 10 11  1  0
 11 12  1  0
 12 13  2  0
 12 14  1  0
 14 15  1  0
 14 16  1  0
 16 17  1  0
 17 18  2  0
 18 19  1  0
 19 20  2  0
 20 21  1  0
 21 22  2  0
 22 23  1  0
 23 24  1  0
 24 25  1  0
 16 26  1  0
  9  4  1  0
 26 10  1  0
 22 17  1  0
  1 27  1  0
  1 28  1  0
  1 29  1  0
  2 30  1  0
  2 31  1  0
  5 32  1  0
  6 33  1  0
  7 34  1  0
  8 35  1  0
 10 36  1  6
 11 37  1  0
 11 38  1  0
 14 39  1  6
 15 40  1  0
 15 41  1  0
 15 42  1  0
 16 43  1  6
 18 44  1  0
 19 45  1  0
 20 46  1  0
 21 47  1  0
 24 48  1  0
 24 49  1  0
 25 50  1  0
 25 51  1  0
 25 52  1  0
 26 53  1  0
M  END
>  <UniqueID>  (16) 
16

>  <SMILES>  (16) 
CCOc1ccccc1C1N[C@H](c2ccccc2OCC)CC(=O)[C@@H]1C

>  <Energy>  (16) 
57.08058164681994

>  <Genealogy>  (16) 
CCOc1ccccc1C1N[C@H](c2ccccc2OCC)CC(=O)[C@@H]1C (chirality)
CCOc1ccccc1C1N[C@H](c2ccccc2OCC)CC(=O)[C@@H]1C (3D coordinates assigned)
CCOc1ccccc1C1N[C@H](c2ccccc2OCC)CC(=O)[C@@H]1C (nonaromatic ring conformer: 57.08058164681994 kcal/mol)

>  <smiles>  (16) 
CCOc1ccccc1C1CC(=O)C(C)C(c2ccccc2OCC)N1

>  <score_type>  (16) 
oracle

>  <origin>  (16) 
adg

>  <m_score__min__energy>  (16) 
-8.1699999999999999

>  <m_primary>  (16) 
energy

$$$$
16:0
     RDKit          3D

 63 65  0  0  0  0  0  0  0  0999 V2000
   58.1480   34.1860   45.4500 C   0  0  0  0  0  0  0  0  0  0  0  0
   59.6510   34.4060   45.6700 C   0  0  0  0  0  0  0  0  0  0  0  0
   60.2060   33.6510   46.8160 N   0  0  0  0  0  0  0  0  0  0  0  0
   59.2250   33.4710   47.8990 C   0  0  0  0  0  0  0  0  0  0  0  0
   61.4890   34.2020   47.3040 C   0  0  0  0  0  0  0  0  0  0  0  0
   62.6610   33.7160   46.4430 C   0  0  0  0  0  0  0  0  0  0  0  0
   63.5380   32.8290   47.2090 N   0  0  0  0  0  0  0  0  0  0  0  0
   63.0770   32.0950   48.3550 C   0  0  0  0  0  0  0  0  0  0  0  0
   63.6290   32.3590   49.6180 C   0  0  0  0  0  0  0  0  0  0  0  0
   63.1800   31.6520   50.7310 C   0  0  0  0  0  0  0  0  0  0  0  0
   62.2110   30.7120   50.5990 N   0  0  0  0  0  0  0  0  0  0  0  0
   61.6450   30.4270   49.3950 C   0  0  0  0  0  0  0  0  0  0  0  0
   60.6420   29.4590   49.3150 C   0  0  0  0  0  0  0  0  0  0  0  0
   60.0330   29.1640   48.0820 C   0  0  0  0  0  0  0  0  0  0  0  0
   59.0310   28.1870   47.9560 O   0  0  0  0  0  0  0  0  0  0  0  0
   59.2470   26.7790   47.8530 C   0  0  0  0  0  0  0  0  0  0  0  0
   59.9050   26.4050   46.5150 C   0  0  0  0  0  0  0  0  0  0  0  0
   59.4180   25.0520   45.9730 C   0  0  0  0  0  0  0  0  0  0  0  0
   58.0440   25.1550   45.4370 N   0  0  0  0  0  0  0  0  0  0  0  0
   57.0740   24.5510   46.3720 C   0  0  0  0  0  0  0  0  0  0  0  0
   55.6400   24.9700   46.0050 C   0  0  0  0  0  0  0  0  0  0  0  0
   55.4140   26.3750   45.9830 O   0  0  0  0  0  0  0  0  0  0  0  0
   56.6050   27.1450   45.9660 C   0  0  0  0  0  0  0  0  0  0  0  0
   57.6860   26.5430   45.0520 C   0  0  0  0  0  0  0  0  0  0  0  0
   60.4210   29.8630   46.9300 C   0  0  0  0  0  0  0  0  0  0  0  0
   59.7760   29.5560   45.7200 O   0  0  0  0  0  0  0  0  0  0  0  0
   60.4080   28.9500   44.5960 C   0  0  0  0  0  0  0  0  0  0  0  0
   61.4350   30.8380   47.0090 C   0  0  0  0  0  0  0  0  0  0  0  0
   62.0640   31.1170   48.2350 C   0  0  0  0  0  0  0  0  0  0  0  0
   57.6419   34.1119   46.4238 H   0  0  0  0  0  0  0  0  0  0  0  0
   57.7324   35.0329   44.8843 H   0  0  0  0  0  0  0  0  0  0  0  0
   57.9926   33.2555   44.8843 H   0  0  0  0  0  0  0  0  0  0  0  0
   60.1836   34.0945   44.7594 H   0  0  0  0  0  0  0  0  0  0  0  0
   59.7880   35.4741   45.8947 H   0  0  0  0  0  0  0  0  0  0  0  0
   59.7310   33.5639   48.8713 H   0  0  0  0  0  0  0  0  0  0  0  0
   58.4434   34.2407   47.8174 H   0  0  0  0  0  0  0  0  0  0  0  0
   58.7676   32.4739   47.8174 H   0  0  0  0  0  0  0  0  0  0  0  0
   61.4461   35.3005   47.2656 H   0  0  0  0  0  0  0  0  0  0  0  0
   61.6473   33.8574   48.3366 H   0  0  0  0  0  0  0  0  0  0  0  0
   62.2670   33.1699   45.5732 H   0  0  0  0  0  0  0  0  0  0  0  0
   63.2434   34.5899   46.1158 H   0  0  0  0  0  0  0  0  0  0  0  0
   64.5120   32.6740   46.8630 H   0  0  0  0  0  0  0  0  0  0  0  0
   64.4138   33.1218   49.7286 H   0  0  0  0  0  0  0  0  0  0  0  0
   63.6131   31.8568   51.7212 H   0  0  0  0  0  0  0  0  0  0  0  0
   60.3260   28.9235   50.2224 H   0  0  0  0  0  0  0  0  0  0  0  0
   59.9024   26.4571   48.6757 H   0  0  0  0  0  0  0  0  0  0  0  0
   58.2706   26.2756   47.9094 H   0  0  0  0  0  0  0  0  0  0  0  0
   59.6694   27.1855   45.7765 H   0  0  0  0  0  0  0  0  0  0  0  0
   60.9882   26.3233   46.6885 H   0  0  0  0  0  0  0  0  0  0  0  0
   60.0932   24.7233   45.1692 H   0  0  0  0  0  0  0  0  0  0  0  0
   59.4165   24.3256   46.7990 H   0  0  0  0  0  0  0  0  0  0  0  0
   57.1555   23.4552   46.3204 H   0  0  0  0  0  0  0  0  0  0  0  0
   57.2971   24.9001   47.3910 H   0  0  0  0  0  0  0  0  0  0  0  0
   55.4127   24.5715   45.0052 H   0  0  0  0  0  0  0  0  0  0  0  0
   54.9886   24.5647   46.7933 H   0  0  0  0  0  0  0  0  0  0  0  0
   56.3650   28.1572   45.6083 H   0  0  0  0  0  0  0  0  0  0  0  0
   57.0059   27.1609   46.9902 H   0  0  0  0  0  0  0  0  0  0  0  0
   57.3110   26.5372   44.0179 H   0  0  0  0  0  0  0  0  0  0  0  0
   58.5902   27.1618   45.1495 H   0  0  0  0  0  0  0  0  0  0  0  0
   61.1612   28.2278   44.9441 H   0  0  0  0  0  0  0  0  0  0  0  0
   59.6538   28.4289   43.9881 H   0  0  0  0  0  0  0  0  0  0  0  0
   60.8970   29.7254   43.9881 H   0  0  0  0  0  0  0  0  0  0  0  0
   61.7370   31.3854   46.1040 H   0  0  0  0  0  0  0  0  0  0  0  0
  1  2  1  0
  2  3  1  0
  3  4  1  0
  3  5  1  0
  5  6  1  0
  6  7  1  0
  7  8  1  0
  8  9  2  0
  9 10  1  0
 10 11  2  0
 11 12  1  0
 12 13  2  0
 13 14  1  0
 14 15  1  0
 15 16  1  0
 16 17  1  0
 17 18  1  0
 18 19  1  0
 19 20  1  0
 20 21  1  0
 21 22  1  0
 22 23  1  0
 23 24  1  0
 14 25  2  0
 25 26  1  0
 26 27  1  0
 25 28  1  0
 28 29  2  0
 29  8  1  0
 29 12  1  0
 24 19  1  0
  1 30  1  0
  1 31  1  0
  1 32  1  0
  2 33  1  0
  2 34  1  0
  4 35  1  0
  4 36  1  0
  4 37  1  0
  5 38  1  0
  5 39  1  0
  6 40  1  0
  6 41  1  0
  7 42  1  0
  9 43  1  0
 10 44  1  0
 13 45  1  0
 16 46  1  0
 16 47  1  0
 17 48  1  0
 17 49  1  0
 18 50  1  0
 18 51  1  0
 20 52  1  0
 20 53  1  0
 21 54  1  0
 21 55  1  0
 23 56  1  0
 23 57  1  0
 24 58  1  0
 24 59  1  0
 27 60  1  0
 27 61  1  0
 27 62  1  0
 28 63  1  0
M  END
>  <UniqueID>  (17) 
17

>  <SMILES>  (17) 
CCN(C)CCNc1ccnc2cc(OCCCN3CCOCC3)c(OC)cc12

>  <Energy>  (17) 
79.49650692089008

>  <Genealogy>  (17) 
CCN(C)CCNc1ccnc2cc(OCCCN3CCOCC3)c(OC)cc12 (3D coordinates assigned)
CCN(C)CCNc1ccnc2cc(OCCCN3CCOCC3)c(OC)cc12 (nonaromatic ring conformer: 79.49650692089008 kcal/mol)

>  <smiles>  (17) 
CCN(C)CCNc1ccnc2cc(OCCCN3CCOCC3)c(OC)cc12

>  <score_type>  (17) 
oracle

>  <origin>  (17) 
adg

>  <m_score__min__energy>  (17) 
-6.9699999999999998

>  <m_primary>  (17) 
energy

$$$$
17:0
     RDKit          3D

 40 42  0  0  0  0  0  0  0  0999 V2000
   59.1120   25.9830   47.7800 O   0  0  0  0  0  0  0  0  0  0  0  0
   58.8190   26.9550   47.0350 C   0  0  0  0  0  0  0  0  0  0  0  0
   59.5630   28.2670   47.0140 C   0  0  0  0  0  0  0  0  0  0  0  0
   59.1400   28.7100   45.6190 C   0  0  2  0  0  0  0  0  0  0  0  0
   59.0150   30.0960   45.0420 C   0  0  0  0  0  0  0  0  0  0  0  0
   58.0600   29.9190   43.9030 N   0  0  2  0  0  0  0  0  0  0  0  0
   57.0870   31.0300   43.8070 C   0  0  0  0  0  0  0  0  0  0  0  0
   57.7670   32.3520   43.4130 C   0  0  0  0  0  0  0  0  0  0  0  0
   58.1750   33.1220   44.6410 C   0  0  0  0  0  0  0  0  0  0  0  0
   57.5580   32.8640   45.8760 C   0  0  0  0  0  0  0  0  0  0  0  0
   57.9140   33.6030   47.0090 C   0  0  0  0  0  0  0  0  0  0  0  0
   58.8800   34.6090   46.9150 C   0  0  0  0  0  0  0  0  0  0  0  0
   59.4890   34.8800   45.6860 C   0  0  0  0  0  0  0  0  0  0  0  0
   59.1360   34.1440   44.5510 C   0  0  0  0  0  0  0  0  0  0  0  0
   57.3720   28.6070   44.1230 C   0  0  0  0  0  0  0  0  0  0  0  0
   57.7200   28.2610   45.5480 C   0  0  1  0  0  0  0  0  0  0  0  0
   57.7710   26.9100   46.0610 N   0  0  0  0  0  0  0  0  0  0  0  0
   57.4180   25.7990   45.3680 O   0  0  0  0  0  0  0  0  0  0  0  0
   55.9030   25.3630   45.9630 S   0  0  0  0  0  0  0  0  0  0  0  0
   56.0590   24.8290   47.3580 O   0  0  0  0  0  0  0  0  0  0  0  0
   55.3000   24.2980   45.0900 O   0  0  0  0  0  0  0  0  0  0  0  0
   54.8890   26.7040   45.9980 O   0  0  0  0  0  0  0  0  0  0  0  0
   59.2163   28.9581   47.7964 H   0  0  0  0  0  0  0  0  0  0  0  0
   60.6454   28.2179   47.2038 H   0  0  0  0  0  0  0  0  0  0  0  0
   60.0104   28.3331   45.0619 H   0  0  0  0  0  0  0  0  0  0  0  0
   58.6113   30.7968   45.7876 H   0  0  0  0  0  0  0  0  0  0  0  0
   59.9816   30.5166   44.7276 H   0  0  0  0  0  0  0  0  0  0  0  0
   58.6000   29.8590   43.0060 H   0  0  0  0  0  0  0  0  0  0  0  0
   56.3322   30.7777   43.0477 H   0  0  0  0  0  0  0  0  0  0  0  0
   56.6235   31.1651   44.7954 H   0  0  0  0  0  0  0  0  0  0  0  0
   58.6602   32.1337   42.8093 H   0  0  0  0  0  0  0  0  0  0  0  0
   57.0560   32.9585   42.8329 H   0  0  0  0  0  0  0  0  0  0  0  0
   56.7922   32.0781   45.9525 H   0  0  0  0  0  0  0  0  0  0  0  0
   57.4330   33.3922   47.9755 H   0  0  0  0  0  0  0  0  0  0  0  0
   59.1609   35.1872   47.8076 H   0  0  0  0  0  0  0  0  0  0  0  0
   60.2471   35.6736   45.6120 H   0  0  0  0  0  0  0  0  0  0  0  0
   59.6119   34.3654   43.5843 H   0  0  0  0  0  0  0  0  0  0  0  0
   56.2838   28.7079   43.9975 H   0  0  0  0  0  0  0  0  0  0  0  0
   57.6851   27.8338   43.4060 H   0  0  0  0  0  0  0  0  0  0  0  0
   56.9000   28.6983   46.1365 H   0  0  0  0  0  0  0  0  0  0  0  0
  1  2  2  0
  2  3  1  0
  3  4  1  0
  4  5  1  0
  5  6  1  0
  6  7  1  0
  7  8  1  0
  8  9  1  0
  9 10  2  0
 10 11  1  0
 11 12  2  0
 12 13  1  0
 13 14  2  0
  6 15  1  0
 15 16  1  0
 16 17  1  0
 17 18  1  0
 18 19  1  0
 19 20  2  0
 19 21  2  0
 19 22  1  0
 17  2  1  0
 16  4  1  0
 14  9  1  0
  3 23  1  0
  3 24  1  0
  4 25  1  6
  5 26  1  0
  5 27  1  0
  6 28  1  6
  7 29  1  0
  7 30  1  0
  8 31  1  0
  8 32  1  0
 10 33  1  0
 11 34  1  0
 12 35  1  0
 13 36  1  0
 14 37  1  0
 15 38  1  0
 15 39  1  0
 16 40  1  1
M  CHG  2   6   1  22  -1
M  END
>  <UniqueID>  (18) 
18

>  <SMILES>  (18) 
O=C1C[C@@H]2C[N@H+](CCc3ccccc3)CC2N1OS(=O)(=O)[O-]

>  <Energy>  (18) 
86.78010488509736

>  <Genealogy>  (18) 
O=C1CC2C[NH+](CCc3ccccc3)CC2N1OS(=O)(=O)[O-] (protonated)
O=C1C[C@@H]2C[N@H+](CCc3ccccc3)CC2N1OS(=O)(=O)[O-] (chirality)
O=C1C[C@@H]2C[N@H+](CCc3ccccc3)CC2N1OS(=O)(=O)[O-] (3D coordinates assigned)
O=C1C[C@@H]2C[N@H+](CCc3ccccc3)CC2N1OS(=O)(=O)[O-] (nonaromatic ring conformer: 86.78010488509736 kcal/mol)

>  <smiles>  (18) 
O=C1CC2CN(CCc3ccccc3)CC2N1OS(=O)(=O)O

>  <score_type>  (18) 
oracle

>  <origin>  (18) 
adg

>  <m_score__min__energy>  (18) 
-10.449999999999999

>  <m_primary>  (18) 
energy

$$$$
18:0
     RDKit          3D

 62 65  0  0  0  0  0  0  0  0999 V2000
   59.5020   32.7900   49.6540 C   0  0  0  0  0  0  0  0  0  0  0  0
   60.2700   31.4660   49.4610 C   0  0  2  0  0  0  0  0  0  0  0  0
   61.7590   31.6060   49.8840 C   0  0  0  0  0  0  0  0  0  0  0  0
   62.7450   31.6370   48.7080 C   0  0  0  0  0  0  0  0  0  0  0  0
   62.1830   32.4150   47.5170 C   0  0  0  0  0  0  0  0  0  0  0  0
   60.8620   31.8190   46.9880 C   0  0  0  0  0  0  0  0  0  0  0  0
   60.1050   30.9380   48.0070 C   0  0  1  0  0  0  0  0  0  0  0  0
   60.5810   29.5570   47.8980 N   0  0  0  0  0  0  0  0  0  0  0  0
   60.5360   28.7910   46.6910 C   0  0  0  0  0  0  0  0  0  0  0  0
   60.6220   29.3620   45.5700 O   0  0  0  0  0  0  0  0  0  0  0  0
   60.4000   27.2970   46.7600 C   0  0  0  0  0  0  0  0  0  0  0  0
   59.0900   26.8600   46.2460 N   0  0  0  0  0  0  0  0  0  0  0  0
   58.3920   25.7610   46.9370 C   0  0  0  0  0  0  0  0  0  0  0  0
   57.7260   24.8290   45.9500 C   0  0  0  0  0  0  0  0  0  0  0  0
   58.4870   23.8430   45.3010 C   0  0  0  0  0  0  0  0  0  0  0  0
   57.8820   22.9700   44.3930 C   0  0  0  0  0  0  0  0  0  0  0  0
   56.5190   23.0810   44.1120 C   0  0  0  0  0  0  0  0  0  0  0  0
   55.7520   24.0560   44.7530 C   0  0  0  0  0  0  0  0  0  0  0  0
   56.3470   24.9260   45.6720 C   0  0  0  0  0  0  0  0  0  0  0  0
   55.5710   25.8340   46.3100 F   0  0  0  0  0  0  0  0  0  0  0  0
   58.4290   27.5480   45.1510 C   0  0  0  0  0  0  0  0  0  0  0  0
   59.0310   27.6820   44.0490 O   0  0  0  0  0  0  0  0  0  0  0  0
   57.0030   28.0300   45.2320 C   0  0  0  0  0  0  0  0  0  0  0  0
   56.9530   29.4760   45.0620 N   0  0  0  0  0  0  0  0  0  0  0  0
   55.9460   30.1280   44.5120 N   0  0  0  0  0  0  0  0  0  0  0  0
   56.1950   31.4270   44.5700 N   0  0  0  0  0  0  0  0  0  0  0  0
   57.3910   31.5270   45.1850 C   0  0  0  0  0  0  0  0  0  0  0  0
   58.0840   32.8010   45.4650 C   0  0  0  0  0  0  0  0  0  0  0  0
   58.8080   33.4530   44.4520 C   0  0  0  0  0  0  0  0  0  0  0  0
   59.4600   34.6630   44.7140 C   0  0  0  0  0  0  0  0  0  0  0  0
   59.3970   35.2310   45.9910 C   0  0  0  0  0  0  0  0  0  0  0  0
   60.0250   36.4100   46.2430 F   0  0  0  0  0  0  0  0  0  0  0  0
   58.6830   34.5860   47.0080 C   0  0  0  0  0  0  0  0  0  0  0  0
   58.0280   33.3770   46.7480 C   0  0  0  0  0  0  0  0  0  0  0  0
   57.8760   30.3130   45.5020 N   0  0  0  0  0  0  0  0  0  0  0  0
   59.3846   32.9924   50.7288 H   0  0  0  0  0  0  0  0  0  0  0  0
   60.0638   33.6114   49.1854 H   0  0  0  0  0  0  0  0  0  0  0  0
   58.5100   32.7101   49.1854 H   0  0  0  0  0  0  0  0  0  0  0  0
   59.8303   30.7100   50.1282 H   0  0  0  0  0  0  0  0  0  0  0  0
   61.8700   32.5412   50.4525 H   0  0  0  0  0  0  0  0  0  0  0  0
   62.0043   30.7145   50.4799 H   0  0  0  0  0  0  0  0  0  0  0  0
   63.6783   32.1164   49.0382 H   0  0  0  0  0  0  0  0  0  0  0  0
   62.9258   30.6010   48.3855 H   0  0  0  0  0  0  0  0  0  0  0  0
   62.0005   33.4538   47.8294 H   0  0  0  0  0  0  0  0  0  0  0  0
   62.9222   32.3592   46.7043 H   0  0  0  0  0  0  0  0  0  0  0  0
   60.2030   32.6496   46.6951 H   0  0  0  0  0  0  0  0  0  0  0  0
   61.1286   31.1647   46.1449 H   0  0  0  0  0  0  0  0  0  0  0  0
   59.0309   30.9768   47.7729 H   0  0  0  0  0  0  0  0  0  0  0  0
   61.1952   26.8355   46.1561 H   0  0  0  0  0  0  0  0  0  0  0  0
   60.4842   26.9864   47.8119 H   0  0  0  0  0  0  0  0  0  0  0  0
   59.1208   25.1915   47.5325 H   0  0  0  0  0  0  0  0  0  0  0  0
   57.6157   26.1945   47.5846 H   0  0  0  0  0  0  0  0  0  0  0  0
   59.5639   23.7576   45.5084 H   0  0  0  0  0  0  0  0  0  0  0  0
   58.4820   22.1923   43.8977 H   0  0  0  0  0  0  0  0  0  0  0  0
   56.0496   22.4008   43.3861 H   0  0  0  0  0  0  0  0  0  0  0  0
   54.6772   24.1399   44.5345 H   0  0  0  0  0  0  0  0  0  0  0  0
   56.4110   27.5497   44.4390 H   0  0  0  0  0  0  0  0  0  0  0  0
   56.5901   27.7688   46.2175 H   0  0  0  0  0  0  0  0  0  0  0  0
   58.8624   33.0093   43.4469 H   0  0  0  0  0  0  0  0  0  0  0  0
   60.0227   35.1682   43.9151 H   0  0  0  0  0  0  0  0  0  0  0  0
   58.6368   35.0304   48.0132 H   0  0  0  0  0  0  0  0  0  0  0  0
   57.4670   32.8747   47.5498 H   0  0  0  0  0  0  0  0  0  0  0  0
  1  2  1  0
  2  3  1  0
  3  4  1  0
  4  5  1  0
  5  6  1  0
  6  7  1  0
  7  8  1  0
  8  9  1  0
  9 10  2  0
  9 11  1  0
 11 12  1  0
 12 13  1  0
 13 14  1  0
 14 15  2  0
 15 16  1  0
 16 17  2  0
 17 18  1  0
 18 19  2  0
 19 20  1  0
 12 21  1  0
 21 22  2  0
 21 23  1  0
 23 24  1  0
 24 25  1  0
 25 26  2  0
 26 27  1  0
 27 28  1  0
 28 29  2  0
 29 30  1  0
 30 31  2  0
 31 32  1  0
 31 33  1  0
 33 34  2  0
 27 35  2  0
  7  2  1  0
 19 14  1  0
 35 24  1  0
 34 28  1  0
  1 36  1  0
  1 37  1  0
  1 38  1  0
  2 39  1  1
  3 40  1  0
  3 41  1  0
  4 42  1  0
  4 43  1  0
  5 44  1  0
  5 45  1  0
  6 46  1  0
  6 47  1  0
  7 48  1  6
 11 49  1  0
 11 50  1  0
 13 51  1  0
 13 52  1  0
 15 53  1  0
 16 54  1  0
 17 55  1  0
 18 56  1  0
 23 57  1  0
 23 58  1  0
 29 59  1  0
 30 60  1  0
 33 61  1  0
 34 62  1  0
M  CHG  1   8  -1
M  END
>  <UniqueID>  (19) 
19

>  <SMILES>  (19) 
C[C@@H]1CCCC[C@H]1[N-]C(=O)CN(Cc1ccccc1F)C(=O)Cn1nnc(-c2ccc(F)cc2)n1

>  <Energy>  (19) 
100.36925143579317

>  <Genealogy>  (19) 
CC1CCCCC1[N-]C(=O)CN(Cc1ccccc1F)C(=O)Cn1nnc(-c2ccc(F)cc2)n1 (protonated)
C[C@@H]1CCCC[C@H]1[N-]C(=O)CN(Cc1ccccc1F)C(=O)Cn1nnc(-c2ccc(F)cc2)n1 (chirality)
C[C@@H]1CCCC[C@H]1[N-]C(=O)CN(Cc1ccccc1F)C(=O)Cn1nnc(-c2ccc(F)cc2)n1 (3D coordinates assigned)
C[C@@H]1CCCC[C@H]1[N-]C(=O)CN(Cc1ccccc1F)C(=O)Cn1nnc(-c2ccc(F)cc2)n1 (nonaromatic ring conformer: 100.36925143579317 kcal/mol)

>  <smiles>  (19) 
CC1CCCCC1NC(=O)CN(Cc1ccccc1F)C(=O)Cn1nnc(-c2ccc(F)cc2)n1

>  <score_type>  (19) 
oracle

>  <origin>  (19) 
adg

>  <m_score__min__energy>  (19) 
-11.16

>  <m_primary>  (19) 
energy

$$$$
19:0
     RDKit          3D

 61 64  0  0  0  0  0  0  0  0999 V2000
   64.1055   34.6210   48.2430 H   0  0  0  0  0  0  0  0  0  0  0  0
   63.3450   33.8300   48.1660 C   0  0  0  0  0  0  0  0  0  0  0  0
   62.1760   33.9070   48.9290 C   0  0  0  0  0  0  0  0  0  0  0  0
   62.0082   34.7697   49.5905 H   0  0  0  0  0  0  0  0  0  0  0  0
   61.2190   32.8890   48.8530 C   0  0  0  0  0  0  0  0  0  0  0  0
   60.2965   32.9576   49.4481 H   0  0  0  0  0  0  0  0  0  0  0  0
   61.4330   31.7830   48.0210 C   0  0  0  0  0  0  0  0  0  0  0  0
   60.4110   30.7820   47.9050 N   0  0  0  0  0  0  0  0  0  0  0  0
   59.6350   30.4680   46.8940 C   0  0  0  0  0  0  0  0  0  0  0  0
   58.9160   31.4220   46.1060 C   0  0  0  0  0  0  0  0  0  0  0  0
   59.2330   32.7990   46.0540 C   0  0  0  0  0  0  0  0  0  0  0  0
   60.0955   33.1747   46.6240 H   0  0  0  0  0  0  0  0  0  0  0  0
   58.4720   33.6950   45.2920 C   0  0  0  0  0  0  0  0  0  0  0  0
   58.8270   35.0530   45.3120 O   0  0  0  0  0  0  0  0  0  0  0  0
   59.6650   35.6520   46.2970 C   0  0  0  0  0  0  0  0  0  0  0  0
   59.2975   35.3893   47.3000 H   0  0  0  0  0  0  0  0  0  0  0  0
   60.6944   35.2838   46.1756 H   0  0  0  0  0  0  0  0  0  0  0  0
   59.6499   36.7452   46.1756 H   0  0  0  0  0  0  0  0  0  0  0  0
   57.3950   33.2130   44.5330 C   0  0  0  0  0  0  0  0  0  0  0  0
   56.7624   33.9143   43.9692 H   0  0  0  0  0  0  0  0  0  0  0  0
   57.1260   31.8450   44.4930 C   0  0  0  0  0  0  0  0  0  0  0  0
   56.3003   31.4677   43.8718 H   0  0  0  0  0  0  0  0  0  0  0  0
   57.9010   30.9500   45.2390 C   0  0  0  0  0  0  0  0  0  0  0  0
   57.7020   29.6200   45.0730 N   0  0  0  0  0  0  0  0  0  0  0  0
   58.4600   28.6840   45.6970 C   0  0  0  0  0  0  0  0  0  0  0  0
   58.2330   27.3120   45.4420 C   0  0  0  0  0  0  0  0  0  0  0  0
   57.2220   26.8870   44.5020 N   0  0  0  0  0  0  0  0  0  0  0  0
   56.6900   27.7130   44.1430 H   0  0  0  0  0  0  0  0  0  0  0  0
   56.5350   26.2630   44.9860 H   0  0  0  0  0  0  0  0  0  0  0  0
   57.8410   26.1530   43.3880 C   0  0  0  0  0  0  0  0  0  0  0  0
   58.9336   26.1583   43.5148 H   0  0  0  0  0  0  0  0  0  0  0  0
   57.5642   26.6442   42.4435 H   0  0  0  0  0  0  0  0  0  0  0  0
   57.3410   24.6900   43.3530 C   0  0  0  0  0  0  0  0  0  0  0  0
   58.1838   24.0482   43.0565 H   0  0  0  0  0  0  0  0  0  0  0  0
   56.5037   24.6680   42.6399 H   0  0  0  0  0  0  0  0  0  0  0  0
   56.8040   24.1800   44.6400 N   0  0  0  0  0  0  0  0  0  0  0  0
   57.7300   23.3100   45.3970 C   0  0  0  0  0  0  0  0  0  0  0  0
   57.1417   22.7177   46.1133 H   0  0  0  0  0  0  0  0  0  0  0  0
   58.4565   23.9705   45.8929 H   0  0  0  0  0  0  0  0  0  0  0  0
   58.5320   22.3460   44.5170 C   0  0  0  0  0  0  0  0  0  0  0  0
   59.1050   21.6573   45.1553 H   0  0  0  0  0  0  0  0  0  0  0  0
   57.8430   21.7698   43.8819 H   0  0  0  0  0  0  0  0  0  0  0  0
   59.2239   22.9187   43.8819 H   0  0  0  0  0  0  0  0  0  0  0  0
   55.3950   23.7250   44.6450 C   0  0  0  0  0  0  0  0  0  0  0  0
   54.9857   23.8093   43.6275 H   0  0  0  0  0  0  0  0  0  0  0  0
   55.3644   22.6796   44.9859 H   0  0  0  0  0  0  0  0  0  0  0  0
   54.5520   24.5730   45.5950 C   0  0  0  0  0  0  0  0  0  0  0  0
   54.8044   24.3191   46.6351 H   0  0  0  0  0  0  0  0  0  0  0  0
   54.7591   25.6386   45.4171 H   0  0  0  0  0  0  0  0  0  0  0  0
   53.4852   24.3722   45.4171 H   0  0  0  0  0  0  0  0  0  0  0  0
   59.0420   26.3530   46.0740 C   0  0  0  0  0  0  0  0  0  0  0  0
   58.8898   25.2846   45.8609 H   0  0  0  0  0  0  0  0  0  0  0  0
   60.0360   26.7450   46.9690 C   0  0  0  0  0  0  0  0  0  0  0  0
   60.6593   25.9847   47.4624 H   0  0  0  0  0  0  0  0  0  0  0  0
   60.2440   28.0980   47.2420 C   0  0  0  0  0  0  0  0  0  0  0  0
   61.0216   28.3949   47.9611 H   0  0  0  0  0  0  0  0  0  0  0  0
   59.4670   29.0890   46.6050 C   0  0  0  0  0  0  0  0  0  0  0  0
   62.5880   31.7330   47.2180 C   0  0  0  0  0  0  0  0  0  0  0  0
   62.7364   30.8950   46.5210 H   0  0  0  0  0  0  0  0  0  0  0  0
   63.5470   32.7470   47.3050 C   0  0  0  0  0  0  0  0  0  0  0  0
   64.4611   32.6926   46.6955 H   0  0  0  0  0  0  0  0  0  0  0  0
  1  2  1  0
  2  3  2  0
  3  4  1  0
  3  5  1  0
  5  6  1  0
  5  7  2  0
  7  8  1  0
  8  9  2  0
  9 10  1  0
 10 11  2  0
 11 12  1  0
 11 13  1  0
 13 14  1  0
 14 15  1  0
 15 16  1  0
 15 17  1  0
 15 18  1  0
 13 19  2  0
 19 20  1  0
 19 21  1  0
 21 22  1  0
 21 23  2  0
 23 24  1  0
 24 25  1  0
 25 26  2  0
 26 27  1  0
 27 28  1  0
 27 29  1  0
 27 30  1  0
 30 31  1  0
 30 32  1  0
 30 33  1  0
 33 34  1  0
 33 35  1  0
 33 36  1  0
 36 37  1  0
 37 38  1  0
 37 39  1  0
 37 40  1  0
 40 41  1  0
 40 42  1  0
 40 43  1  0
 36 44  1  0
 44 45  1  0
 44 46  1  0
 44 47  1  0
 47 48  1  0
 47 49  1  0
 47 50  1  0
 26 51  1  0
 51 52  1  0
 51 53  2  0
 53 54  1  0
 53 55  1  0
 55 56  1  0
 55 57  2  0
  7 58  1  0
 58 59  1  0
 58 60  2  0
 60 61  1  0
 60  2  1  0
 57  9  1  0
 23 10  1  0
 57 25  1  0
M  CHG  2  24  -1  27   1
M  END
>  <UniqueID>  (20) 
20

>  <SMILES>  (20) 
CCN(CC)CC[NH2+]c1cccc2/c(=N/c3ccccc3)c3cc(OC)ccc3[n-]c12

>  <Energy>  (20) 
97.76882549489036

>  <Genealogy>  (20) 
CCN(CC)CC[NH2+]c1cccc2c(=Nc3ccccc3)c3cc(OC)ccc3[n-]c12 (protonated)
CCN(CC)CC[NH2+]c1cccc2/c(=N/c3ccccc3)c3cc(OC)ccc3[n-]c12 (cis-trans isomerization)
CCN(CC)CC[NH2+]c1cccc2/c(=N/c3ccccc3)c3cc(OC)ccc3[n-]c12 (3D coordinates assigned)
CCN(CC)CC[NH2+]c1cccc2/c(=N/c3ccccc3)c3cc(OC)ccc3[n-]c12 (optimized conformer: 97.76882549489036 kcal/mol)

>  <smiles>  (20) 
CCN(CC)CCNc1cccc2c(=Nc3ccccc3)c3cc(OC)ccc3[nH]c12

>  <score_type>  (20) 
oracle

>  <origin>  (20) 
adg

>  <m_score__min__energy>  (20) 
-7.3499999999999996

>  <m_primary>  (20) 
energy

$$$$
20:0
     RDKit          3D

 52 54  0  0  0  0  0  0  0  0999 V2000
   56.2170   22.3010   48.9510 C   0  0  0  0  0  0  0  0  0  0  0  0
   57.2630   22.4710   47.9980 O   0  0  0  0  0  0  0  0  0  0  0  0
   57.0920   22.4160   46.6050 C   0  0  0  0  0  0  0  0  0  0  0  0
   57.6200   21.3590   45.8360 C   0  0  0  0  0  0  0  0  0  0  0  0
   57.3850   21.2990   44.4600 C   0  0  0  0  0  0  0  0  0  0  0  0
   56.6240   22.2920   43.8280 C   0  0  0  0  0  0  0  0  0  0  0  0
   56.3130   22.1900   42.3670 C   0  0  0  0  0  0  0  0  0  0  0  0
   56.0920   23.3410   44.5880 C   0  0  0  0  0  0  0  0  0  0  0  0
   56.3460   23.4290   45.9620 C   0  0  0  0  0  0  0  0  0  0  0  0
   55.7660   24.5160   46.6930 N   0  0  0  0  0  0  0  0  0  0  0  0
   56.1350   25.8930   46.5570 C   0  0  0  0  0  0  0  0  0  0  0  0
   55.3620   26.7120   45.9850 O   0  0  0  0  0  0  0  0  0  0  0  0
   57.4370   26.3660   47.1230 C   0  0  0  0  0  0  0  0  0  0  0  0
   58.4770   26.3440   46.0710 N   0  0  0  0  0  0  0  0  0  0  0  0
   59.7100   27.0350   46.4980 C   0  0  0  0  0  0  0  0  0  0  0  0
   59.4790   28.5420   46.6590 C   0  0  0  0  0  0  0  0  0  0  0  0
   58.6910   29.0670   45.5430 N   0  0  0  0  0  0  0  0  0  0  0  0
   58.4730   30.4810   45.4610 C   0  0  0  0  0  0  0  0  0  0  0  0
   59.4210   31.3580   46.0080 C   0  0  0  0  0  0  0  0  0  0  0  0
   59.2080   32.7370   45.9720 C   0  0  0  0  0  0  0  0  0  0  0  0
   58.0450   33.2510   45.3950 C   0  0  0  0  0  0  0  0  0  0  0  0
   57.0970   32.3880   44.8430 C   0  0  0  0  0  0  0  0  0  0  0  0
   57.3040   30.9970   44.8660 C   0  0  0  0  0  0  0  0  0  0  0  0
   56.2490   30.0770   44.3170 C   0  0  0  0  0  0  0  0  0  0  0  0
   58.4490   28.2370   44.3620 C   0  0  0  0  0  0  0  0  0  0  0  0
   57.9710   26.8220   44.7570 C   0  0  0  0  0  0  0  0  0  0  0  0
   56.6324   22.3685   49.9673 H   0  0  0  0  0  0  0  0  0  0  0  0
   55.4616   23.0882   48.8106 H   0  0  0  0  0  0  0  0  0  0  0  0
   55.7497   21.3151   48.8106 H   0  0  0  0  0  0  0  0  0  0  0  0
   58.2209   20.5764   46.3224 H   0  0  0  0  0  0  0  0  0  0  0  0
   57.7993   20.4683   43.8698 H   0  0  0  0  0  0  0  0  0  0  0  0
   55.2752   21.8496   42.2359 H   0  0  0  0  0  0  0  0  0  0  0  0
   56.4377   23.1761   41.8958 H   0  0  0  0  0  0  0  0  0  0  0  0
   56.9975   21.4693   41.8958 H   0  0  0  0  0  0  0  0  0  0  0  0
   55.4678   24.1041   44.1002 H   0  0  0  0  0  0  0  0  0  0  0  0
   57.3201   27.3928   47.4998 H   0  0  0  0  0  0  0  0  0  0  0  0
   57.7384   25.7017   47.9463 H   0  0  0  0  0  0  0  0  0  0  0  0
   60.0385   26.6183   47.4615 H   0  0  0  0  0  0  0  0  0  0  0  0
   60.4777   26.8829   45.7250 H   0  0  0  0  0  0  0  0  0  0  0  0
   58.9397   28.7261   47.5999 H   0  0  0  0  0  0  0  0  0  0  0  0
   60.4547   29.0498   46.6726 H   0  0  0  0  0  0  0  0  0  0  0  0
   60.3366   30.9573   46.4675 H   0  0  0  0  0  0  0  0  0  0  0  0
   59.9574   33.4198   46.3988 H   0  0  0  0  0  0  0  0  0  0  0  0
   57.8757   34.3377   45.3754 H   0  0  0  0  0  0  0  0  0  0  0  0
   56.1834   32.7978   44.3877 H   0  0  0  0  0  0  0  0  0  0  0  0
   55.7063   29.6038   45.1486 H   0  0  0  0  0  0  0  0  0  0  0  0
   55.5441   30.6540   43.7004 H   0  0  0  0  0  0  0  0  0  0  0  0
   56.7247   29.3002   43.7004 H   0  0  0  0  0  0  0  0  0  0  0  0
   57.6776   28.7150   43.7404 H   0  0  0  0  0  0  0  0  0  0  0  0
   59.3934   28.1412   43.8062 H   0  0  0  0  0  0  0  0  0  0  0  0
   56.8716   26.8288   44.7941 H   0  0  0  0  0  0  0  0  0  0  0  0
   58.3719   26.1336   43.9985 H   0  0  0  0  0  0  0  0  0  0  0  0
  1  2  1  0
  2  3  1  0
  3  4  2  0
  4  5  1  0
  5  6  2  0
  6  7  1  0
  6  8  1  0
  8  9  2  0
  9 10  1  0
 10 11  1  0
 11 12  2  0
 11 13  1  0
 13 14  1  0
 14 15  1  0
 15 16  1  0
 16 17  1  0
 17 18  1  0
 18 19  2  0
 19 20  1  0
 20 21  2  0
 21 22  1  0
 22 23  2  0
 23 24  1  0
 17 25  1  0
 25 26  1  0
  9  3  1  0
 26 14  1  0
 23 18  1  0
  1 27  1  0
  1 28  1  0
  1 29  1  0
  4 30  1  0
  5 31  1  0
  7 32  1  0
  7 33  1  0
  7 34  1  0
  8 35  1  0
 13 36  1  0
 13 37  1  0
 15 38  1  0
 15 39  1  0
 16 40  1  0
 16 41  1  0
 19 42  1  0
 20 43  1  0
 21 44  1  0
 22 45  1  0
 24 46  1  0
 24 47  1  0
 24 48  1  0
 25 49  1  0
 25 50  1  0
 26 51  1  0
 26 52  1  0
M  CHG  1  10  -1
M  END
>  <UniqueID>  (21) 
21

>  <SMILES>  (21) 
COc1ccc(C)cc1[N-]C(=O)CN1CCN(c2ccccc2C)CC1

>  <Energy>  (21) 
68.55898859098261

>  <Genealogy>  (21) 
COc1ccc(C)cc1[N-]C(=O)CN1CCN(c2ccccc2C)CC1 (protonated)
COc1ccc(C)cc1[N-]C(=O)CN1CCN(c2ccccc2C)CC1 (3D coordinates assigned)
COc1ccc(C)cc1[N-]C(=O)CN1CCN(c2ccccc2C)CC1 (nonaromatic ring conformer: 68.55898859098261 kcal/mol)

>  <smiles>  (21) 
COc1ccc(C)cc1NC(=O)CN1CCN(c2ccccc2C)CC1

>  <score_type>  (21) 
oracle

>  <origin>  (21) 
adg

>  <m_score__min__energy>  (21) 
-9.9800000000000004

>  <m_primary>  (21) 
energy

$$$$
21:0
     RDKit          3D

 38 40  0  0  0  0  0  0  0  0999 V2000
   63.3880   33.9020   46.3680 C   0  0  0  0  0  0  0  0  0  0  0  0
   63.6950   32.7400   47.3110 C   0  0  0  0  0  0  0  0  0  0  0  0
   62.8110   32.7790   48.4950 N   0  0  0  0  0  0  0  0  0  0  0  0
   63.4730   32.1730   49.6610 C   0  0  0  0  0  0  0  0  0  0  0  0
   61.3340   31.9030   48.1580 S   0  0  0  0  0  0  0  0  0  0  0  0
   60.6610   31.5280   49.4500 O   0  0  0  0  0  0  0  0  0  0  0  0
   61.6730   30.6540   47.3900 O   0  0  0  0  0  0  0  0  0  0  0  0
   60.2090   32.9020   47.2140 C   0  0  0  0  0  0  0  0  0  0  0  0
   60.1820   34.2850   47.4550 C   0  0  0  0  0  0  0  0  0  0  0  0
   59.3440   35.1240   46.7230 C   0  0  0  0  0  0  0  0  0  0  0  0
   58.5050   34.5990   45.7440 C   0  0  0  0  0  0  0  0  0  0  0  0
   58.4830   33.2200   45.4980 C   0  0  0  0  0  0  0  0  0  0  0  0
   57.6170   32.7040   44.5220 C   0  0  0  0  0  0  0  0  0  0  0  0
   57.5640   31.3280   44.2760 C   0  0  0  0  0  0  0  0  0  0  0  0
   56.6960   30.8090   43.3010 C   0  0  0  0  0  0  0  0  0  0  0  0
   56.6430   29.4330   43.0670 C   0  0  0  0  0  0  0  0  0  0  0  0
   57.4530   28.5650   43.8040 C   0  0  0  0  0  0  0  0  0  0  0  0
   58.3200   29.0670   44.7770 C   0  0  0  0  0  0  0  0  0  0  0  0
   58.3840   30.4500   45.0200 C   0  0  0  0  0  0  0  0  0  0  0  0
   59.2530   30.9620   45.9950 C   0  0  0  0  0  0  0  0  0  0  0  0
   59.3280   32.3500   46.2410 C   0  0  0  0  0  0  0  0  0  0  0  0
   63.1508   34.7998   46.9576 H   0  0  0  0  0  0  0  0  0  0  0  0
   64.2644   34.1008   45.7337 H   0  0  0  0  0  0  0  0  0  0  0  0
   62.5277   33.6420   45.7337 H   0  0  0  0  0  0  0  0  0  0  0  0
   63.5407   31.7910   46.7765 H   0  0  0  0  0  0  0  0  0  0  0  0
   64.7391   32.8241   47.6469 H   0  0  0  0  0  0  0  0  0  0  0  0
   63.0318   32.5769   50.5841 H   0  0  0  0  0  0  0  0  0  0  0  0
   63.3346   31.0820   49.6353 H   0  0  0  0  0  0  0  0  0  0  0  0
   64.5475   32.4070   49.6353 H   0  0  0  0  0  0  0  0  0  0  0  0
   60.8318   34.7124   48.2329 H   0  0  0  0  0  0  0  0  0  0  0  0
   59.3455   36.2063   46.9197 H   0  0  0  0  0  0  0  0  0  0  0  0
   57.8566   35.2697   45.1611 H   0  0  0  0  0  0  0  0  0  0  0  0
   56.9750   33.3866   43.9460 H   0  0  0  0  0  0  0  0  0  0  0  0
   56.0557   31.4888   42.7197 H   0  0  0  0  0  0  0  0  0  0  0  0
   55.9626   29.0320   42.3014 H   0  0  0  0  0  0  0  0  0  0  0  0
   57.4075   27.4820   43.6170 H   0  0  0  0  0  0  0  0  0  0  0  0
   58.9543   28.3785   45.3546 H   0  0  0  0  0  0  0  0  0  0  0  0
   59.8842   30.2729   46.5754 H   0  0  0  0  0  0  0  0  0  0  0  0
  1  2  1  0
  2  3  1  0
  3  4  1  0
  3  5  1  0
  5  6  2  0
  5  7  2  0
  5  8  1  0
  8  9  2  0
  9 10  1  0
 10 11  2  0
 11 12  1  0
 12 13  2  0
 13 14  1  0
 14 15  2  0
 15 16  1  0
 16 17  2  0
 17 18  1  0
 18 19  2  0
 19 20  1  0
 20 21  2  0
 21  8  1  0
 21 12  1  0
 19 14  1  0
  1 22  1  0
  1 23  1  0
  1 24  1  0
  2 25  1  0
  2 26  1  0
  4 27  1  0
  4 28  1  0
  4 29  1  0
  9 30  1  0
 10 31  1  0
 11 32  1  0
 13 33  1  0
 15 34  1  0
 16 35  1  0
 17 36  1  0
 18 37  1  0
 20 38  1  0
M  END
>  <UniqueID>  (22) 
22

>  <SMILES>  (22) 
CCN(C)S(=O)(=O)c1cccc2cc3ccccc3cc12

>  <Energy>  (22) 
47.22602097197966

>  <Genealogy>  (22) 
CCN(C)S(=O)(=O)c1cccc2cc3ccccc3cc12 (3D coordinates assigned)
CCN(C)S(=O)(=O)c1cccc2cc3ccccc3cc12 (optimized conformer: 47.22602097197966 kcal/mol)

>  <smiles>  (22) 
CCN(C)S(=O)(=O)c1cccc2cc3ccccc3cc12

>  <score_type>  (22) 
oracle

>  <origin>  (22) 
adg

>  <m_score__min__energy>  (22) 
-8.2200000000000006

>  <m_primary>  (22) 
energy

$$$$
22:0
     RDKit          3D

 44 44  0  0  0  0  0  0  0  0999 V2000
   63.0410   33.8410   46.3970 C   0  0  0  0  0  0  0  0  0  0  0  0
   62.1380   33.1730   47.4260 C   0  0  0  0  0  0  0  0  0  0  0  0
   60.8050   32.9310   46.8260 N   0  0  0  0  0  0  0  0  0  0  0  0
   60.3020   31.5580   47.0690 C   0  0  0  0  0  0  0  0  0  0  0  0
   59.0170   31.5090   47.9100 C   0  0  0  0  0  0  0  0  0  0  0  0
   59.8080   33.9680   47.1670 C   0  0  0  0  0  0  0  0  0  0  0  0
   59.6050   34.9420   45.9970 C   0  0  0  0  0  0  0  0  0  0  0  0
   58.5560   34.4220   44.9920 C   0  0  0  0  0  0  0  0  0  0  0  0
   58.3380   32.9670   45.1010 N   0  0  0  0  0  0  0  0  0  0  0  0
   57.8100   32.3390   43.8770 C   0  0  0  0  0  0  0  0  0  0  0  0
   57.2020   30.9840   44.1230 C   0  0  0  0  0  0  0  0  0  0  0  0
   56.0280   30.8920   44.5730 O   0  0  0  0  0  0  0  0  0  0  0  0
   57.9360   29.8010   43.7750 N   0  0  0  0  0  0  0  0  0  0  0  0
   57.8460   28.5570   44.4930 C   0  0  0  0  0  0  0  0  0  0  0  0
   57.7460   28.5250   45.8970 C   0  0  0  0  0  0  0  0  0  0  0  0
   57.7210   27.3040   46.5770 C   0  0  0  0  0  0  0  0  0  0  0  0
   57.8020   26.1040   45.8680 C   0  0  0  0  0  0  0  0  0  0  0  0
   57.7730   24.5730   46.7250 Cl  0  0  0  0  0  0  0  0  0  0  0  0
   57.9160   26.1240   44.4750 C   0  0  0  0  0  0  0  0  0  0  0  0
   57.9450   27.3430   43.7890 C   0  0  0  0  0  0  0  0  0  0  0  0
   58.0640   27.3400   42.4370 F   0  0  0  0  0  0  0  0  0  0  0  0
   63.8216   34.4184   46.9140 H   0  0  0  0  0  0  0  0  0  0  0  0
   63.5109   33.0714   45.7670 H   0  0  0  0  0  0  0  0  0  0  0  0
   62.4426   34.5155   45.7670 H   0  0  0  0  0  0  0  0  0  0  0  0
   62.5806   32.2149   47.7360 H   0  0  0  0  0  0  0  0  0  0  0  0
   62.0331   33.8278   48.3036 H   0  0  0  0  0  0  0  0  0  0  0  0
   60.0984   31.0859   46.0965 H   0  0  0  0  0  0  0  0  0  0  0  0
   61.0790   31.0280   47.6394 H   0  0  0  0  0  0  0  0  0  0  0  0
   59.2776   31.5189   48.9786 H   0  0  0  0  0  0  0  0  0  0  0  0
   58.3925   32.3840   47.6767 H   0  0  0  0  0  0  0  0  0  0  0  0
   58.4610   30.5890   47.6767 H   0  0  0  0  0  0  0  0  0  0  0  0
   58.8493   33.4821   47.4011 H   0  0  0  0  0  0  0  0  0  0  0  0
   60.1748   34.5349   48.0354 H   0  0  0  0  0  0  0  0  0  0  0  0
   59.2673   35.9104   46.3947 H   0  0  0  0  0  0  0  0  0  0  0  0
   60.5638   35.0439   45.4675 H   0  0  0  0  0  0  0  0  0  0  0  0
   57.6021   34.9362   45.1808 H   0  0  0  0  0  0  0  0  0  0  0  0
   58.9343   34.6272   43.9797 H   0  0  0  0  0  0  0  0  0  0  0  0
   59.2540   32.5170   45.3350 H   0  0  0  0  0  0  0  0  0  0  0  0
   57.0381   32.9969   43.4511 H   0  0  0  0  0  0  0  0  0  0  0  0
   58.6569   32.1983   43.1892 H   0  0  0  0  0  0  0  0  0  0  0  0
   58.6340   29.8780   43.0010 H   0  0  0  0  0  0  0  0  0  0  0  0
   57.6872   29.4668   46.4624 H   0  0  0  0  0  0  0  0  0  0  0  0
   57.6373   27.2886   47.6737 H   0  0  0  0  0  0  0  0  0  0  0  0
   57.9831   25.1787   43.9166 H   0  0  0  0  0  0  0  0  0  0  0  0
  1  2  1  0
  2  3  1  0
  3  4  1  0
  4  5  1  0
  3  6  1  0
  6  7  1  0
  7  8  1  0
  8  9  1  0
  9 10  1  0
 10 11  1  0
 11 12  2  0
 11 13  1  0
 13 14  1  0
 14 15  2  0
 15 16  1  0
 16 17  2  0
 17 18  1  0
 17 19  1  0
 19 20  2  0
 20 21  1  0
 20 14  1  0
  1 22  1  0
  1 23  1  0
  1 24  1  0
  2 25  1  0
  2 26  1  0
  4 27  1  0
  4 28  1  0
  5 29  1  0
  5 30  1  0
  5 31  1  0
  6 32  1  0
  6 33  1  0
  7 34  1  0
  7 35  1  0
  8 36  1  0
  8 37  1  0
  9 38  1  0
 10 39  1  0
 10 40  1  0
 13 41  1  0
 15 42  1  0
 16 43  1  0
 19 44  1  0
M  END
>  <UniqueID>  (23) 
23

>  <SMILES>  (23) 
CCN(CC)CCCNCC(=O)Nc1ccc(Cl)cc1F

>  <Energy>  (23) 
44.603503663479124

>  <Genealogy>  (23) 
CCN(CC)CCCNCC(=O)Nc1ccc(Cl)cc1F (3D coordinates assigned)
CCN(CC)CCCNCC(=O)Nc1ccc(Cl)cc1F (optimized conformer: 44.603503663479124 kcal/mol)

>  <smiles>  (23) 
CCN(CC)CCCNCC(=O)Nc1ccc(Cl)cc1F

>  <score_type>  (23) 
oracle

>  <origin>  (23) 
adg

>  <m_score__min__energy>  (23) 
-6.5599999999999996

>  <m_primary>  (23) 
energy

$$$$
23:0
     RDKit          3D

 43 44  0  0  0  0  0  0  0  0999 V2000
   58.9440   30.0400   46.5150 C   0  0  0  0  0  0  0  0  0  0  0  0
   57.7800   29.1650   46.0640 C   0  0  0  0  0  0  0  0  0  0  0  0
   56.8860   29.9140   45.2620 O   0  0  0  0  0  0  0  0  0  0  0  0
   57.5120   30.3130   44.0590 C   0  0  0  0  0  0  0  0  0  0  0  0
   57.5450   31.8450   44.0000 C   0  0  0  0  0  0  0  0  0  0  0  0
   56.6360   32.4720   44.9730 N   0  0  0  0  0  0  0  0  0  0  0  0
   57.0010   33.8640   45.2620 C   0  0  0  0  0  0  0  0  0  0  0  0
   58.2720   33.8930   46.0620 C   0  0  0  0  0  0  0  0  0  0  0  0
   58.2730   33.4800   47.4030 C   0  0  0  0  0  0  0  0  0  0  0  0
   59.4610   33.4700   48.1400 C   0  0  0  0  0  0  0  0  0  0  0  0
   60.6700   33.8670   47.5440 C   0  0  0  0  0  0  0  0  0  0  0  0
   61.8980   33.8480   48.2960 N   0  0  0  0  0  0  0  0  0  0  0  0
   63.1790   33.5950   47.6210 C   0  0  0  0  0  0  0  0  0  0  0  0
   64.1400   32.7840   48.5220 C   0  0  0  0  0  0  0  0  0  0  0  0
   63.6700   32.6120   49.8490 O   0  0  0  0  0  0  0  0  0  0  0  0
   63.2230   33.8450   50.3700 C   0  0  0  0  0  0  0  0  0  0  0  0
   61.8920   34.2190   49.7170 C   0  0  0  0  0  0  0  0  0  0  0  0
   60.6710   34.2580   46.1960 C   0  0  0  0  0  0  0  0  0  0  0  0
   59.4820   34.2670   45.4590 C   0  0  0  0  0  0  0  0  0  0  0  0
   58.9787   30.0661   47.6141 H   0  0  0  0  0  0  0  0  0  0  0  0
   59.8863   29.6247   46.1281 H   0  0  0  0  0  0  0  0  0  0  0  0
   58.8069   31.0606   46.1281 H   0  0  0  0  0  0  0  0  0  0  0  0
   58.1679   28.3170   45.4805 H   0  0  0  0  0  0  0  0  0  0  0  0
   57.2435   28.7971   46.9510 H   0  0  0  0  0  0  0  0  0  0  0  0
   58.5391   29.9202   44.0294 H   0  0  0  0  0  0  0  0  0  0  0  0
   56.9509   29.9191   43.1987 H   0  0  0  0  0  0  0  0  0  0  0  0
   58.5708   32.1829   44.2087 H   0  0  0  0  0  0  0  0  0  0  0  0
   57.2134   32.1454   42.9951 H   0  0  0  0  0  0  0  0  0  0  0  0
   56.6490   31.9230   45.8650 H   0  0  0  0  0  0  0  0  0  0  0  0
   57.1499   34.4076   44.3174 H   0  0  0  0  0  0  0  0  0  0  0  0
   56.1948   34.3424   45.8374 H   0  0  0  0  0  0  0  0  0  0  0  0
   57.3329   33.1620   47.8775 H   0  0  0  0  0  0  0  0  0  0  0  0
   59.4492   33.1496   49.1922 H   0  0  0  0  0  0  0  0  0  0  0  0
   62.9911   33.0287   46.6969 H   0  0  0  0  0  0  0  0  0  0  0  0
   63.6494   34.5635   47.3958 H   0  0  0  0  0  0  0  0  0  0  0  0
   64.2815   31.7901   48.0724 H   0  0  0  0  0  0  0  0  0  0  0  0
   65.0786   33.3542   48.5853 H   0  0  0  0  0  0  0  0  0  0  0  0
   63.0860   33.7558   51.4578 H   0  0  0  0  0  0  0  0  0  0  0  0
   63.9686   34.6256   50.1583 H   0  0  0  0  0  0  0  0  0  0  0  0
   61.0756   33.6870   50.2273 H   0  0  0  0  0  0  0  0  0  0  0  0
   61.7453   35.3059   49.8019 H   0  0  0  0  0  0  0  0  0  0  0  0
   61.6135   34.5595   45.7156 H   0  0  0  0  0  0  0  0  0  0  0  0
   59.4960   34.5689   44.4013 H   0  0  0  0  0  0  0  0  0  0  0  0
  1  2  1  0
  2  3  1  0
  3  4  1  0
  4  5  1  0
  5  6  1  0
  6  7  1  0
  7  8  1  0
  8  9  2  0
  9 10  1  0
 10 11  2  0
 11 12  1  0
 12 13  1  0
 13 14  1  0
 14 15  1  0
 15 16  1  0
 16 17  1  0
 11 18  1  0
 18 19  2  0
 19  8  1  0
 17 12  1  0
  1 20  1  0
  1 21  1  0
  1 22  1  0
  2 23  1  0
  2 24  1  0
  4 25  1  0
  4 26  1  0
  5 27  1  0
  5 28  1  0
  6 29  1  0
  7 30  1  0
  7 31  1  0
  9 32  1  0
 10 33  1  0
 13 34  1  0
 13 35  1  0
 14 36  1  0
 14 37  1  0
 16 38  1  0
 16 39  1  0
 17 40  1  0
 17 41  1  0
 18 42  1  0
 19 43  1  0
M  END
>  <UniqueID>  (24) 
24

>  <SMILES>  (24) 
CCOCCNCc1ccc(N2CCOCC2)cc1

>  <Energy>  (24) 
49.75943470297373

>  <Genealogy>  (24) 
CCOCCNCc1ccc(N2CCOCC2)cc1 (3D coordinates assigned)
CCOCCNCc1ccc(N2CCOCC2)cc1 (nonaromatic ring conformer: 49.75943470297373 kcal/mol)

>  <smiles>  (24) 
CCOCCNCc1ccc(N2CCOCC2)cc1

>  <score_type>  (24) 
oracle

>  <origin>  (24) 
adg

>  <m_score__min__energy>  (24) 
-6.25

>  <m_primary>  (24) 
energy

$$$$
24:0
     RDKit          3D

 41 44  0  0  0  0  0  0  0  0999 V2000
   60.3560   27.4970   46.0990 C   0  0  0  0  0  0  0  0  0  0  0  0
   59.2190   27.2150   45.2890 O   0  0  0  0  0  0  0  0  0  0  0  0
   58.3910   28.1940   44.7190 C   0  0  0  0  0  0  0  0  0  0  0  0
   57.7730   28.0230   43.4650 C   0  0  0  0  0  0  0  0  0  0  0  0
   56.9530   29.0260   42.9450 C   0  0  0  0  0  0  0  0  0  0  0  0
   56.7440   30.2060   43.6620 C   0  0  0  0  0  0  0  0  0  0  0  0
   57.3570   30.3970   44.9040 C   0  0  0  0  0  0  0  0  0  0  0  0
   57.1200   31.5980   45.5910 O   0  0  0  0  0  0  0  0  0  0  0  0
   57.9930   32.6940   45.5940 C   0  0  0  0  0  0  0  0  0  0  0  0
   57.6430   33.8300   44.8590 C   0  0  0  0  0  0  0  0  0  0  0  0
   58.4790   34.9480   44.8670 C   0  0  0  0  0  0  0  0  0  0  0  0
   59.6370   34.9280   45.5760 N   0  0  0  0  0  0  0  0  0  0  0  0
   60.0260   33.8340   46.2840 C   0  0  0  0  0  0  0  0  0  0  0  0
   61.2330   33.8510   46.9870 C   0  0  0  0  0  0  0  0  0  0  0  0
   61.6390   32.7080   47.6930 C   0  0  0  0  0  0  0  0  0  0  0  0
   62.9070   32.6750   48.4500 C   0  0  0  0  0  0  0  0  0  0  0  0
   64.0220   33.4660   48.2270 C   0  0  0  0  0  0  0  0  0  0  0  0
   64.9870   33.1370   49.1080 N   0  0  0  0  0  0  0  0  0  0  0  0
   64.5080   32.1780   49.8840 N   0  0  0  0  0  0  0  0  0  0  0  0
   65.2840   31.5110   50.9220 C   0  0  0  0  0  0  0  0  0  0  0  0
   63.2550   31.8580   49.5110 C   0  0  0  0  0  0  0  0  0  0  0  0
   60.8510   31.5970   47.6730 N   0  0  0  0  0  0  0  0  0  0  0  0
   59.6690   31.5520   47.0030 C   0  0  0  0  0  0  0  0  0  0  0  0
   59.2150   32.6790   46.3010 C   0  0  0  0  0  0  0  0  0  0  0  0
   58.1750   29.3790   45.4320 C   0  0  0  0  0  0  0  0  0  0  0  0
   60.0762   27.4276   47.1606 H   0  0  0  0  0  0  0  0  0  0  0  0
   61.1512   26.7689   45.8810 H   0  0  0  0  0  0  0  0  0  0  0  0
   60.7188   28.5123   45.8810 H   0  0  0  0  0  0  0  0  0  0  0  0
   57.9368   27.0971   42.8941 H   0  0  0  0  0  0  0  0  0  0  0  0
   56.4697   28.8863   41.9668 H   0  0  0  0  0  0  0  0  0  0  0  0
   56.0932   30.9898   43.2472 H   0  0  0  0  0  0  0  0  0  0  0  0
   56.7107   33.8432   44.2754 H   0  0  0  0  0  0  0  0  0  0  0  0
   58.1992   35.8468   44.2979 H   0  0  0  0  0  0  0  0  0  0  0  0
   61.8610   34.7541   46.9872 H   0  0  0  0  0  0  0  0  0  0  0  0
   64.1065   34.2417   47.4517 H   0  0  0  0  0  0  0  0  0  0  0  0
   64.9191   31.8246   51.9112 H   0  0  0  0  0  0  0  0  0  0  0  0
   65.1738   30.4214   50.8191 H   0  0  0  0  0  0  0  0  0  0  0  0
   66.3447   31.7836   50.8191 H   0  0  0  0  0  0  0  0  0  0  0  0
   62.6205   31.0845   49.9683 H   0  0  0  0  0  0  0  0  0  0  0  0
   59.0677   30.6309   47.0112 H   0  0  0  0  0  0  0  0  0  0  0  0
   58.6490   29.5167   46.4150 H   0  0  0  0  0  0  0  0  0  0  0  0
  1  2  1  0
  2  3  1  0
  3  4  2  0
  4  5  1  0
  5  6  2  0
  6  7  1  0
  7  8  1  0
  8  9  1  0
  9 10  2  0
 10 11  1  0
 11 12  2  0
 12 13  1  0
 13 14  2  0
 14 15  1  0
 15 16  1  0
 16 17  1  0
 17 18  2  0
 18 19  1  0
 19 20  1  0
 19 21  1  0
 15 22  2  0
 22 23  1  0
 23 24  2  0
  7 25  2  0
 25  3  1  0
 24  9  1  0
 24 13  1  0
 21 16  2  0
  1 26  1  0
  1 27  1  0
  1 28  1  0
  4 29  1  0
  5 30  1  0
  6 31  1  0
 10 32  1  0
 11 33  1  0
 14 34  1  0
 17 35  1  0
 20 36  1  0
 20 37  1  0
 20 38  1  0
 21 39  1  0
 23 40  1  0
 25 41  1  0
M  END
>  <UniqueID>  (25) 
25

>  <SMILES>  (25) 
COc1cccc(Oc2ccnc3cc(-c4cnn(C)c4)ncc23)c1

>  <Energy>  (25) 
87.44488173408209

>  <Genealogy>  (25) 
COc1cccc(Oc2ccnc3cc(-c4cnn(C)c4)ncc23)c1 (3D coordinates assigned)
COc1cccc(Oc2ccnc3cc(-c4cnn(C)c4)ncc23)c1 (optimized conformer: 87.44488173408209 kcal/mol)

>  <smiles>  (25) 
COc1cccc(Oc2ccnc3cc(-c4cnn(C)c4)ncc23)c1

>  <score_type>  (25) 
oracle

>  <origin>  (25) 
adg

>  <m_score__min__energy>  (25) 
-7.21

>  <m_primary>  (25) 
energy

$$$$
25:0
     RDKit          3D

 33 35  0  0  0  0  0  0  0  0999 V2000
   60.2950   29.1940   45.9040 C   0  0  0  0  0  0  0  0  0  0  0  0
   59.1810   29.6500   46.8380 C   0  0  0  0  0  0  0  0  0  0  0  0
   58.8630   31.0560   46.5950 N   0  0  0  0  0  0  0  0  0  0  0  0
   58.2810   31.5880   45.4950 C   0  0  0  0  0  0  0  0  0  0  0  0
   58.2060   32.9270   45.5570 C   0  0  0  0  0  0  0  0  0  0  0  0
   58.7520   33.3040   46.7610 C   0  0  0  0  0  0  0  0  0  0  0  0
   59.0230   34.5550   47.3040 C   0  0  0  0  0  0  0  0  0  0  0  0
   59.6530   34.5960   48.5620 C   0  0  0  0  0  0  0  0  0  0  0  0
   60.0120   33.3990   49.2230 C   0  0  0  0  0  0  0  0  0  0  0  0
   59.7560   32.1480   48.6330 C   0  0  0  0  0  0  0  0  0  0  0  0
   59.1200   32.1280   47.3890 C   0  0  0  0  0  0  0  0  0  0  0  0
   57.9550   33.5700   44.2560 C   0  0  0  0  0  0  0  0  0  0  0  0
   57.7710   32.3470   43.3130 C   0  0  0  0  0  0  0  0  0  0  0  0
   58.0900   31.0540   44.1310 C   0  0  2  0  0  0  0  0  0  0  0  0
   56.9680   30.0500   44.0950 C   0  0  0  0  0  0  0  0  0  0  0  0
   57.0440   28.9150   43.2330 N   0  0  0  0  0  0  0  0  0  0  0  0
   55.9580   30.2030   44.8350 O   0  0  0  0  0  0  0  0  0  0  0  0
   61.1515   28.8434   46.4986 H   0  0  0  0  0  0  0  0  0  0  0  0
   59.9287   28.3735   45.2695 H   0  0  0  0  0  0  0  0  0  0  0  0
   60.6091   30.0359   45.2695 H   0  0  0  0  0  0  0  0  0  0  0  0
   58.2842   29.0385   46.6598 H   0  0  0  0  0  0  0  0  0  0  0  0
   59.5148   29.5321   47.8795 H   0  0  0  0  0  0  0  0  0  0  0  0
   58.7549   35.4786   46.7701 H   0  0  0  0  0  0  0  0  0  0  0  0
   59.8675   35.5661   49.0341 H   0  0  0  0  0  0  0  0  0  0  0  0
   60.4967   33.4464   50.2093 H   0  0  0  0  0  0  0  0  0  0  0  0
   60.0476   31.2140   49.1356 H   0  0  0  0  0  0  0  0  0  0  0  0
   57.0468   34.1899   44.2865 H   0  0  0  0  0  0  0  0  0  0  0  0
   58.7568   34.2536   43.9401 H   0  0  0  0  0  0  0  0  0  0  0  0
   56.7344   32.3107   42.9467 H   0  0  0  0  0  0  0  0  0  0  0  0
   58.4447   32.4273   42.4472 H   0  0  0  0  0  0  0  0  0  0  0  0
   58.9553   30.5029   43.7341 H   0  0  0  0  0  0  0  0  0  0  0  0
   56.2670   28.2170   43.2150 H   0  0  0  0  0  0  0  0  0  0  0  0
   57.8720   28.7650   42.6170 H   0  0  0  0  0  0  0  0  0  0  0  0
  1  2  1  0
  2  3  1  0
  3  4  1  0
  4  5  2  0
  5  6  1  0
  6  7  2  0
  7  8  1  0
  8  9  2  0
  9 10  1  0
 10 11  2  0
  5 12  1  0
 12 13  1  0
 13 14  1  0
 14 15  1  0
 15 16  1  0
 15 17  2  0
 11  3  1  0
 14  4  1  0
 11  6  1  0
  1 18  1  0
  1 19  1  0
  1 20  1  0
  2 21  1  0
  2 22  1  0
  7 23  1  0
  8 24  1  0
  9 25  1  0
 10 26  1  0
 12 27  1  0
 12 28  1  0
 13 29  1  0
 13 30  1  0
 14 31  1  6
 16 32  1  0
 16 33  1  0
M  END
>  <UniqueID>  (26) 
26

>  <SMILES>  (26) 
CCn1c2c(c3ccccc31)CC[C@@H]2C(N)=O

>  <Energy>  (26) 
84.60487100602904

>  <Genealogy>  (26) 
CCn1c2c(c3ccccc31)CC[C@@H]2C(N)=O (chirality)
CCn1c2c(c3ccccc31)CC[C@@H]2C(N)=O (3D coordinates assigned)
CCn1c2c(c3ccccc31)CC[C@@H]2C(N)=O (nonaromatic ring conformer: 84.60487100602904 kcal/mol)

>  <smiles>  (26) 
CCn1c2c(c3ccccc31)CCC2C(N)=O

>  <score_type>  (26) 
oracle

>  <origin>  (26) 
adg

>  <m_score__min__energy>  (26) 
-7.5999999999999996

>  <m_primary>  (26) 
energy

$$$$
26:0
     RDKit          3D

 70 73  0  0  0  0  0  0  0  0999 V2000
   58.1190   27.0530   42.9150 C   0  0  0  0  0  0  0  0  0  0  0  0
   58.2820   27.5790   44.3380 C   0  0  0  0  0  0  0  0  0  0  0  0
   56.9750   27.7130   45.0000 N   0  0  0  0  0  0  0  0  0  0  0  0
   56.2290   28.9750   44.8570 C   0  0  0  0  0  0  0  0  0  0  0  0
   56.8460   29.8770   43.7770 C   0  0  0  0  0  0  0  0  0  0  0  0
   57.0270   31.3290   44.2500 C   0  0  0  0  0  0  0  0  0  0  0  0
   57.6680   32.2300   43.1760 C   0  0  0  0  0  0  0  0  0  0  0  0
   58.4020   33.4610   43.7390 C   0  0  0  0  0  0  0  0  0  0  0  0
   57.6090   34.2090   45.2090 S   0  0  0  0  0  0  0  0  0  0  0  0
   58.7040   33.4550   46.4070 C   0  0  0  0  0  0  0  0  0  0  0  0
   59.2700   34.2160   47.3770 N   0  0  0  0  0  0  0  0  0  0  0  0
   60.1100   33.6800   48.2600 N   0  0  0  0  0  0  0  0  0  0  0  0
   60.4270   32.3580   48.2330 C   0  0  0  0  0  0  0  0  0  0  0  0
   61.4260   31.8540   49.2050 C   0  0  0  0  0  0  0  0  0  0  0  0
   61.0290   31.1500   50.3580 C   0  0  0  0  0  0  0  0  0  0  0  0
   61.9870   30.6780   51.2620 C   0  0  0  0  0  0  0  0  0  0  0  0
   63.3490   30.8850   51.0130 C   0  0  0  0  0  0  0  0  0  0  0  0
   64.2750   30.4170   51.8880 F   0  0  0  0  0  0  0  0  0  0  0  0
   63.7540   31.5540   49.8550 C   0  0  0  0  0  0  0  0  0  0  0  0
   62.7990   32.0350   48.9530 C   0  0  0  0  0  0  0  0  0  0  0  0
   59.8130   31.5460   47.2490 C   0  0  0  0  0  0  0  0  0  0  0  0
   59.9770   30.0760   47.1960 C   0  0  0  0  0  0  0  0  0  0  0  0
   59.5010   29.2640   48.2380 C   0  0  0  0  0  0  0  0  0  0  0  0
   59.6620   27.8770   48.1800 C   0  0  0  0  0  0  0  0  0  0  0  0
   60.2900   27.2790   47.0810 C   0  0  0  0  0  0  0  0  0  0  0  0
   60.4430   25.8830   47.0780 O   0  0  0  0  0  0  0  0  0  0  0  0
   60.0740   25.0360   45.9970 C   0  0  0  0  0  0  0  0  0  0  0  0
   60.7430   28.0900   46.0230 C   0  0  0  0  0  0  0  0  0  0  0  0
   60.5800   29.4790   46.0800 C   0  0  0  0  0  0  0  0  0  0  0  0
   58.9820   32.1320   46.3460 N   0  0  0  0  0  0  0  0  0  0  0  0
   56.3670   26.5690   45.6370 C   0  0  0  0  0  0  0  0  0  0  0  0
   55.1620   26.6200   46.0090 O   0  0  0  0  0  0  0  0  0  0  0  0
   57.1190   25.3620   45.8280 N   0  0  0  0  0  0  0  0  0  0  0  0
   56.9910   24.1640   45.0480 C   0  0  0  0  0  0  0  0  0  0  0  0
   56.6620   24.2800   43.6910 C   0  0  0  0  0  0  0  0  0  0  0  0
   56.5450   23.1410   42.8910 C   0  0  0  0  0  0  0  0  0  0  0  0
   56.7790   21.8760   43.4360 C   0  0  0  0  0  0  0  0  0  0  0  0
   56.6730   20.7730   42.6570 F   0  0  0  0  0  0  0  0  0  0  0  0
   57.1390   21.7500   44.7810 C   0  0  0  0  0  0  0  0  0  0  0  0
   57.2530   22.8880   45.5890 C   0  0  0  0  0  0  0  0  0  0  0  0
   57.6710   22.7410   46.8700 F   0  0  0  0  0  0  0  0  0  0  0  0
   57.7935   26.0027   42.9473 H   0  0  0  0  0  0  0  0  0  0  0  0
   57.3651   27.6544   42.3859 H   0  0  0  0  0  0  0  0  0  0  0  0
   59.0809   27.1227   42.3859 H   0  0  0  0  0  0  0  0  0  0  0  0
   58.9064   26.8784   44.9118 H   0  0  0  0  0  0  0  0  0  0  0  0
   58.7577   28.5699   44.2946 H   0  0  0  0  0  0  0  0  0  0  0  0
   55.1895   28.7458   44.5797 H   0  0  0  0  0  0  0  0  0  0  0  0
   56.2704   29.5100   45.8172 H   0  0  0  0  0  0  0  0  0  0  0  0
   57.8304   29.4717   43.5000 H   0  0  0  0  0  0  0  0  0  0  0  0
   56.1561   29.8898   42.9204 H   0  0  0  0  0  0  0  0  0  0  0  0
   56.0403   31.7397   44.5105 H   0  0  0  0  0  0  0  0  0  0  0  0
   57.7036   31.3136   45.1172 H   0  0  0  0  0  0  0  0  0  0  0  0
   58.3916   31.6273   42.6075 H   0  0  0  0  0  0  0  0  0  0  0  0
   56.8460   32.6108   42.5520 H   0  0  0  0  0  0  0  0  0  0  0  0
   59.4219   33.1561   44.0163 H   0  0  0  0  0  0  0  0  0  0  0  0
   58.3823   34.2261   42.9489 H   0  0  0  0  0  0  0  0  0  0  0  0
   59.9607   30.9703   50.5489 H   0  0  0  0  0  0  0  0  0  0  0  0
   61.6696   30.1436   52.1695 H   0  0  0  0  0  0  0  0  0  0  0  0
   64.8249   31.7026   49.6524 H   0  0  0  0  0  0  0  0  0  0  0  0
   63.1230   32.5579   48.0411 H   0  0  0  0  0  0  0  0  0  0  0  0
   58.9993   29.7215   49.1035 H   0  0  0  0  0  0  0  0  0  0  0  0
   59.2922   27.2500   49.0047 H   0  0  0  0  0  0  0  0  0  0  0  0
   59.6640   24.0948   46.3921 H   0  0  0  0  0  0  0  0  0  0  0  0
   59.3129   25.5377   45.3814 H   0  0  0  0  0  0  0  0  0  0  0  0
   60.9597   24.8203   45.3814 H   0  0  0  0  0  0  0  0  0  0  0  0
   61.2267   27.6304   45.1485 H   0  0  0  0  0  0  0  0  0  0  0  0
   60.9268   30.1054   45.2449 H   0  0  0  0  0  0  0  0  0  0  0  0
   56.4947   25.2749   43.2526 H   0  0  0  0  0  0  0  0  0  0  0  0
   56.2684   23.2401   41.8310 H   0  0  0  0  0  0  0  0  0  0  0  0
   57.3333   20.7541   45.2058 H   0  0  0  0  0  0  0  0  0  0  0  0
  1  2  1  0
  2  3  1  0
  3  4  1  0
  4  5  1  0
  5  6  1  0
  6  7  1  0
  7  8  1  0
  8  9  1  0
  9 10  1  0
 10 11  2  0
 11 12  1  0
 12 13  2  0
 13 14  1  0
 14 15  2  0
 15 16  1  0
 16 17  2  0
 17 18  1  0
 17 19  1  0
 19 20  2  0
 13 21  1  0
 21 22  1  0
 22 23  2  0
 23 24  1  0
 24 25  2  0
 25 26  1  0
 26 27  1  0
 25 28  1  0
 28 29  2  0
 21 30  2  0
  3 31  1  0
 31 32  2  0
 31 33  1  0
 33 34  1  0
 34 35  2  0
 35 36  1  0
 36 37  2  0
 37 38  1  0
 37 39  1  0
 39 40  2  0
 40 41  1  0
 30 10  1  0
 40 34  1  0
 20 14  1  0
 29 22  1  0
  1 42  1  0
  1 43  1  0
  1 44  1  0
  2 45  1  0
  2 46  1  0
  4 47  1  0
  4 48  1  0
  5 49  1  0
  5 50  1  0
  6 51  1  0
  6 52  1  0
  7 53  1  0
  7 54  1  0
  8 55  1  0
  8 56  1  0
 15 57  1  0
 16 58  1  0
 19 59  1  0
 20 60  1  0
 23 61  1  0
 24 62  1  0
 27 63  1  0
 27 64  1  0
 27 65  1  0
 28 66  1  0
 29 67  1  0
 35 68  1  0
 36 69  1  0
 39 70  1  0
M  CHG  1  33  -1
M  END
>  <UniqueID>  (27) 
27

>  <SMILES>  (27) 
CCN(CCCCCSc1nnc(-c2ccc(F)cc2)c(-c2ccc(OC)cc2)n1)C(=O)[N-]c1ccc(F)cc1F

>  <Energy>  (27) 
79.54507714748658

>  <Genealogy>  (27) 
CCN(CCCCCSc1nnc(-c2ccc(F)cc2)c(-c2ccc(OC)cc2)n1)C(=O)[N-]c1ccc(F)cc1F (protonated)
CCN(CCCCCSc1nnc(-c2ccc(F)cc2)c(-c2ccc(OC)cc2)n1)C(=O)[N-]c1ccc(F)cc1F (3D coordinates assigned)
CCN(CCCCCSc1nnc(-c2ccc(F)cc2)c(-c2ccc(OC)cc2)n1)C(=O)[N-]c1ccc(F)cc1F (optimized conformer: 79.54507714748658 kcal/mol)

>  <smiles>  (27) 
CCN(CCCCCSc1nnc(-c2ccc(F)cc2)c(-c2ccc(OC)cc2)n1)C(=O)Nc1ccc(F)cc1F

>  <score_type>  (27) 
oracle

>  <origin>  (27) 
adg

>  <m_score__min__energy>  (27) 
-11.6

>  <m_primary>  (27) 
energy

$$$$
27:0
     RDKit          3D

 55 57  0  0  0  0  0  0  0  0999 V2000
   60.4800   33.4320   51.2990 C   0  0  0  0  0  0  0  0  0  0  0  0
   61.3790   34.1840   50.4920 O   0  0  0  0  0  0  0  0  0  0  0  0
   62.0660   33.6770   49.3760 C   0  0  0  0  0  0  0  0  0  0  0  0
   63.2850   32.9840   49.5120 C   0  0  0  0  0  0  0  0  0  0  0  0
   63.9390   32.4740   48.3890 C   0  0  0  0  0  0  0  0  0  0  0  0
   63.3860   32.6440   47.1200 C   0  0  0  0  0  0  0  0  0  0  0  0
   62.1850   33.3350   46.9680 C   0  0  0  0  0  0  0  0  0  0  0  0
   61.5170   33.8610   48.0870 C   0  0  0  0  0  0  0  0  0  0  0  0
   60.2220   34.6070   47.8850 C   0  0  0  0  0  0  0  0  0  0  0  0
   59.1120   33.6710   47.6430 N   0  0  0  0  0  0  0  0  0  0  0  0
   58.2480   33.8650   46.4670 C   0  0  0  0  0  0  0  0  0  0  0  0
   57.4130   32.6100   46.1670 C   0  0  0  0  0  0  0  0  0  0  0  0
   57.9480   31.8910   44.9890 N   0  0  0  0  0  0  0  0  0  0  0  0
   57.7740   32.6940   43.7520 C   0  0  0  0  0  0  0  0  0  0  0  0
   57.8360   31.8260   42.4910 C   0  0  0  0  0  0  0  0  0  0  0  0
   56.7030   30.7870   42.4820 C   0  0  0  0  0  0  0  0  0  0  0  0
   56.2560   30.3850   43.8980 C   0  0  0  0  0  0  0  0  0  0  0  0
   57.4150   30.5040   44.8950 C   0  0  0  0  0  0  0  0  0  0  0  0
   58.9580   32.4980   48.4710 C   0  0  0  0  0  0  0  0  0  0  0  0
   57.9840   32.4110   49.2670 O   0  0  0  0  0  0  0  0  0  0  0  0
   59.8870   31.4110   48.3560 N   0  0  0  0  0  0  0  0  0  0  0  0
   59.7790   30.2800   47.4800 C   0  0  0  0  0  0  0  0  0  0  0  0
   60.6220   30.2140   46.3620 C   0  0  0  0  0  0  0  0  0  0  0  0
   60.5610   29.1200   45.4940 C   0  0  0  0  0  0  0  0  0  0  0  0
   59.6680   28.0760   45.7450 C   0  0  0  0  0  0  0  0  0  0  0  0
   58.8410   28.1200   46.8710 C   0  0  0  0  0  0  0  0  0  0  0  0
   58.8990   29.2130   47.7410 C   0  0  0  0  0  0  0  0  0  0  0  0
   60.6995   33.6156   52.3611 H   0  0  0  0  0  0  0  0  0  0  0  0
   59.4465   33.7385   51.0798 H   0  0  0  0  0  0  0  0  0  0  0  0
   60.5990   32.3606   51.0798 H   0  0  0  0  0  0  0  0  0  0  0  0
   63.7248   32.8437   50.5105 H   0  0  0  0  0  0  0  0  0  0  0  0
   64.8921   31.9372   48.5052 H   0  0  0  0  0  0  0  0  0  0  0  0
   63.8983   32.2323   46.2379 H   0  0  0  0  0  0  0  0  0  0  0  0
   61.7565   33.4697   45.9639 H   0  0  0  0  0  0  0  0  0  0  0  0
   60.0035   35.2006   48.7850 H   0  0  0  0  0  0  0  0  0  0  0  0
   60.3265   35.2641   47.0091 H   0  0  0  0  0  0  0  0  0  0  0  0
   57.5687   34.7088   46.6581 H   0  0  0  0  0  0  0  0  0  0  0  0
   58.8901   34.0678   45.5972 H   0  0  0  0  0  0  0  0  0  0  0  0
   57.4402   31.9417   47.0403 H   0  0  0  0  0  0  0  0  0  0  0  0
   56.3791   32.9179   45.9521 H   0  0  0  0  0  0  0  0  0  0  0  0
   56.7963   33.1967   43.7895 H   0  0  0  0  0  0  0  0  0  0  0  0
   58.5951   33.4243   43.7026 H   0  0  0  0  0  0  0  0  0  0  0  0
   57.7399   32.4709   41.6051 H   0  0  0  0  0  0  0  0  0  0  0  0
   58.7992   31.2948   42.4778 H   0  0  0  0  0  0  0  0  0  0  0  0
   55.8403   31.2115   41.9477 H   0  0  0  0  0  0  0  0  0  0  0  0
   57.0845   29.8832   41.9845 H   0  0  0  0  0  0  0  0  0  0  0  0
   55.4371   31.0461   44.2179 H   0  0  0  0  0  0  0  0  0  0  0  0
   55.9197   29.3379   43.8751 H   0  0  0  0  0  0  0  0  0  0  0  0
   57.0582   30.1954   45.8887 H   0  0  0  0  0  0  0  0  0  0  0  0
   58.2298   29.8570   44.5381 H   0  0  0  0  0  0  0  0  0  0  0  0
   61.3357   31.0279   46.1666 H   0  0  0  0  0  0  0  0  0  0  0  0
   61.2173   29.0814   44.6121 H   0  0  0  0  0  0  0  0  0  0  0  0
   59.6155   27.2194   45.0569 H   0  0  0  0  0  0  0  0  0  0  0  0
   58.1436   27.2936   47.0729 H   0  0  0  0  0  0  0  0  0  0  0  0
   58.2548   29.2391   48.6323 H   0  0  0  0  0  0  0  0  0  0  0  0
  1  2  1  0
  2  3  1  0
  3  4  2  0
  4  5  1  0
  5  6  2  0
  6  7  1  0
  7  8  2  0
  8  9  1  0
  9 10  1  0
 10 11  1  0
 11 12  1  0
 12 13  1  0
 13 14  1  0
 14 15  1  0
 15 16  1  0
 16 17  1  0
 17 18  1  0
 10 19  1  0
 19 20  2  0
 19 21  1  0
 21 22  1  0
 22 23  2  0
 23 24  1  0
 24 25  2  0
 25 26  1  0
 26 27  2  0
  8  3  1  0
 18 13  1  0
 27 22  1  0
  1 28  1  0
  1 29  1  0
  1 30  1  0
  4 31  1  0
  5 32  1  0
  6 33  1  0
  7 34  1  0
  9 35  1  0
  9 36  1  0
 11 37  1  0
 11 38  1  0
 12 39  1  0
 12 40  1  0
 14 41  1  0
 14 42  1  0
 15 43  1  0
 15 44  1  0
 16 45  1  0
 16 46  1  0
 17 47  1  0
 17 48  1  0
 18 49  1  0
 18 50  1  0
 23 51  1  0
 24 52  1  0
 25 53  1  0
 26 54  1  0
 27 55  1  0
M  CHG  1  21  -1
M  END
>  <UniqueID>  (28) 
28

>  <SMILES>  (28) 
COc1ccccc1CN(CCN1CCCCC1)C(=O)[N-]c1ccccc1

>  <Energy>  (28) 
59.69256394781126

>  <Genealogy>  (28) 
COc1ccccc1CN(CCN1CCCCC1)C(=O)[N-]c1ccccc1 (protonated)
COc1ccccc1CN(CCN1CCCCC1)C(=O)[N-]c1ccccc1 (3D coordinates assigned)
COc1ccccc1CN(CCN1CCCCC1)C(=O)[N-]c1ccccc1 (nonaromatic ring conformer: 59.69256394781126 kcal/mol)

>  <smiles>  (28) 
COc1ccccc1CN(CCN1CCCCC1)C(=O)Nc1ccccc1

>  <score_type>  (28) 
oracle

>  <origin>  (28) 
adg

>  <m_score__min__energy>  (28) 
-9.0700000000000003

>  <m_primary>  (28) 
energy

$$$$
28:0
     RDKit          3D

 43 44  0  0  0  0  0  0  0  0999 V2000
   57.0450   31.2770   42.3650 C   0  0  0  0  0  0  0  0  0  0  0  0
   56.3130   30.1770   43.1250 C   0  0  0  0  0  0  0  0  0  0  0  0
   56.5300   30.2990   44.5290 O   0  0  0  0  0  0  0  0  0  0  0  0
   57.3580   29.4740   45.3130 C   0  0  0  0  0  0  0  0  0  0  0  0
   57.3940   28.0780   45.1460 C   0  0  0  0  0  0  0  0  0  0  0  0
   58.2100   27.2820   45.9570 C   0  0  0  0  0  0  0  0  0  0  0  0
   58.2110   25.5020   45.7210 S   0  0  0  0  0  0  0  0  0  0  0  0
   56.4250   25.4260   45.6710 C   0  0  0  0  0  0  0  0  0  0  0  0
   55.7390   24.4220   45.0960 N   0  0  0  0  0  0  0  0  0  0  0  0
   54.4650   24.7990   45.3200 C   0  0  0  0  0  0  0  0  0  0  0  0
   54.3860   25.9630   45.9910 N   0  0  0  0  0  0  0  0  0  0  0  0
   55.6260   26.3600   46.2130 N   0  0  0  0  0  0  0  0  0  0  0  0
   59.0100   27.8670   46.9480 C   0  0  0  0  0  0  0  0  0  0  0  0
   59.8130   27.0370   47.7470 O   0  0  0  0  0  0  0  0  0  0  0  0
   60.4230   27.4370   48.9690 C   0  0  0  0  0  0  0  0  0  0  0  0
   58.9780   29.2630   47.1190 C   0  0  0  0  0  0  0  0  0  0  0  0
   58.1650   30.0690   46.3040 C   0  0  0  0  0  0  0  0  0  0  0  0
   58.1220   31.5590   46.5530 C   0  0  0  0  0  0  0  0  0  0  0  0
   58.5830   32.3440   45.3180 C   0  0  0  0  0  0  0  0  0  0  0  0
   58.4230   33.8020   45.5230 N   0  0  0  0  0  0  0  0  0  0  0  0
   57.0350   34.2110   45.2570 C   0  0  0  0  0  0  0  0  0  0  0  0
   58.7970   34.1890   46.8950 C   0  0  0  0  0  0  0  0  0  0  0  0
   57.5075   31.9721   43.0812 H   0  0  0  0  0  0  0  0  0  0  0  0
   57.8256   30.8288   41.7327 H   0  0  0  0  0  0  0  0  0  0  0  0
   56.3301   31.8239   41.7327 H   0  0  0  0  0  0  0  0  0  0  0  0
   55.2351   30.2527   42.9191 H   0  0  0  0  0  0  0  0  0  0  0  0
   56.6996   29.2023   42.7925 H   0  0  0  0  0  0  0  0  0  0  0  0
   56.7738   27.6069   44.3692 H   0  0  0  0  0  0  0  0  0  0  0  0
   53.5887   24.2209   44.9916 H   0  0  0  0  0  0  0  0  0  0  0  0
   59.8355   27.0517   49.8154 H   0  0  0  0  0  0  0  0  0  0  0  0
   61.4450   27.0331   49.0181 H   0  0  0  0  0  0  0  0  0  0  0  0
   60.4600   28.5353   49.0181 H   0  0  0  0  0  0  0  0  0  0  0  0
   59.5967   29.7292   47.8999 H   0  0  0  0  0  0  0  0  0  0  0  0
   57.0906   31.8516   46.7991 H   0  0  0  0  0  0  0  0  0  0  0  0
   58.8017   31.7916   47.3860 H   0  0  0  0  0  0  0  0  0  0  0  0
   59.6433   32.1223   45.1265 H   0  0  0  0  0  0  0  0  0  0  0  0
   57.9639   32.0416   44.4605 H   0  0  0  0  0  0  0  0  0  0  0  0
   56.5092   34.3659   46.2107 H   0  0  0  0  0  0  0  0  0  0  0  0
   57.0329   35.1480   44.6807 H   0  0  0  0  0  0  0  0  0  0  0  0
   56.5251   33.4249   44.6807 H   0  0  0  0  0  0  0  0  0  0  0  0
   58.2191   33.5910   47.6151 H   0  0  0  0  0  0  0  0  0  0  0  0
   59.8714   34.0083   47.0470 H   0  0  0  0  0  0  0  0  0  0  0  0
   58.5797   35.2566   47.0470 H   0  0  0  0  0  0  0  0  0  0  0  0
  1  2  1  0
  2  3  1  0
  3  4  1  0
  4  5  2  0
  5  6  1  0
  6  7  1  0
  7  8  1  0
  8  9  1  0
  9 10  2  0
 10 11  1  0
 11 12  1  0
  6 13  2  0
 13 14  1  0
 14 15  1  0
 13 16  1  0
 16 17  2  0
 17 18  1  0
 18 19  1  0
 19 20  1  0
 20 21  1  0
 20 22  1  0
 17  4  1  0
 12  8  2  0
  1 23  1  0
  1 24  1  0
  1 25  1  0
  2 26  1  0
  2 27  1  0
  5 28  1  0
 10 29  1  0
 15 30  1  0
 15 31  1  0
 15 32  1  0
 16 33  1  0
 18 34  1  0
 18 35  1  0
 19 36  1  0
 19 37  1  0
 21 38  1  0
 21 39  1  0
 21 40  1  0
 22 41  1  0
 22 42  1  0
 22 43  1  0
M  CHG  1  11  -1
M  END
>  <UniqueID>  (29) 
29

>  <SMILES>  (29) 
CCOc1cc(Sc2nc[n-]n2)c(OC)cc1CCN(C)C

>  <Energy>  (29) 
65.42296266365945

>  <Genealogy>  (29) 
CCOc1cc(Sc2nc[n-]n2)c(OC)cc1CCN(C)C (protonated)
CCOc1cc(Sc2nc[n-]n2)c(OC)cc1CCN(C)C (3D coordinates assigned)
CCOc1cc(Sc2nc[n-]n2)c(OC)cc1CCN(C)C (optimized conformer: 65.42296266365945 kcal/mol)

>  <smiles>  (29) 
CCOc1cc(Sc2nc[nH]n2)c(OC)cc1CCN(C)C

>  <score_type>  (29) 
oracle

>  <origin>  (29) 
adg

>  <m_score__min__energy>  (29) 
-8.5999999999999996

>  <m_primary>  (29) 
energy

$$$$
29:0
     RDKit          3D

 39 41  0  0  0  0  0  0  0  0999 V2000
   58.9260   34.7190   45.2170 C   0  0  0  0  0  0  0  0  0  0  0  0
   57.8790   33.8730   44.4970 C   0  0  0  0  0  0  0  0  0  0  0  0
   57.0350   33.0730   45.4900 C   0  0  0  0  0  0  0  0  0  0  0  0
   57.6180   31.7490   45.6890 N   0  0  0  0  0  0  0  0  0  0  0  0
   57.1270   30.6320   45.1660 N   0  0  0  0  0  0  0  0  0  0  0  0
   57.9550   29.6110   45.5010 C   0  0  0  0  0  0  0  0  0  0  0  0
   57.7430   28.2320   45.0330 C   0  0  0  0  0  0  0  0  0  0  0  0
   58.1570   27.8610   43.7460 C   0  0  0  0  0  0  0  0  0  0  0  0
   57.9850   26.5440   43.3040 C   0  0  0  0  0  0  0  0  0  0  0  0
   57.4150   25.5900   44.1520 C   0  0  0  0  0  0  0  0  0  0  0  0
   57.2500   24.3150   43.7240 F   0  0  0  0  0  0  0  0  0  0  0  0
   57.0250   25.9500   45.4460 C   0  0  0  0  0  0  0  0  0  0  0  0
   57.1950   27.2640   45.8900 C   0  0  0  0  0  0  0  0  0  0  0  0
   59.0080   30.1120   46.2650 C   0  0  0  0  0  0  0  0  0  0  0  0
   60.1080   29.5540   46.9380 C   0  0  0  0  0  0  0  0  0  0  0  0
   60.3870   28.0800   46.9710 C   0  0  0  0  0  0  0  0  0  0  0  0
   60.9660   30.4530   47.6090 C   0  0  0  0  0  0  0  0  0  0  0  0
   60.6810   31.8400   47.6210 C   0  0  0  0  0  0  0  0  0  0  0  0
   61.5730   32.7840   48.3610 C   0  0  0  0  0  0  0  0  0  0  0  0
   59.5630   32.3170   46.9960 N   0  0  0  0  0  0  0  0  0  0  0  0
   58.7550   31.4520   46.3380 C   0  0  0  0  0  0  0  0  0  0  0  0
   58.7970   34.6148   46.3044 H   0  0  0  0  0  0  0  0  0  0  0  0
   59.9322   34.3773   44.9327 H   0  0  0  0  0  0  0  0  0  0  0  0
   58.8032   35.7745   44.9327 H   0  0  0  0  0  0  0  0  0  0  0  0
   57.2192   34.5355   43.9176 H   0  0  0  0  0  0  0  0  0  0  0  0
   58.3990   33.1662   43.8337 H   0  0  0  0  0  0  0  0  0  0  0  0
   57.0029   33.6051   46.4522 H   0  0  0  0  0  0  0  0  0  0  0  0
   56.0162   32.9622   45.0904 H   0  0  0  0  0  0  0  0  0  0  0  0
   58.6182   28.6068   43.0818 H   0  0  0  0  0  0  0  0  0  0  0  0
   58.2986   26.2596   42.2887 H   0  0  0  0  0  0  0  0  0  0  0  0
   56.5835   25.1972   46.1156 H   0  0  0  0  0  0  0  0  0  0  0  0
   56.8990   27.5406   46.9127 H   0  0  0  0  0  0  0  0  0  0  0  0
   60.4509   27.7422   48.0159 H   0  0  0  0  0  0  0  0  0  0  0  0
   59.5748   27.5416   46.4606 H   0  0  0  0  0  0  0  0  0  0  0  0
   61.3398   27.8756   46.4606 H   0  0  0  0  0  0  0  0  0  0  0  0
   61.8604   30.0738   48.1250 H   0  0  0  0  0  0  0  0  0  0  0  0
   61.4392   32.6424   49.4436 H   0  0  0  0  0  0  0  0  0  0  0  0
   62.6209   32.5853   48.0920 H   0  0  0  0  0  0  0  0  0  0  0  0
   61.3153   33.8190   48.0920 H   0  0  0  0  0  0  0  0  0  0  0  0
  1  2  1  0
  2  3  1  0
  3  4  1  0
  4  5  1  0
  5  6  2  0
  6  7  1  0
  7  8  2  0
  8  9  1  0
  9 10  2  0
 10 11  1  0
 10 12  1  0
 12 13  2  0
  6 14  1  0
 14 15  2  0
 15 16  1  0
 15 17  1  0
 17 18  2  0
 18 19  1  0
 18 20  1  0
 20 21  2  0
 21  4  1  0
 13  7  1  0
 21 14  1  0
  1 22  1  0
  1 23  1  0
  1 24  1  0
  2 25  1  0
  2 26  1  0
  3 27  1  0
  3 28  1  0
  8 29  1  0
  9 30  1  0
 12 31  1  0
 13 32  1  0
 16 33  1  0
 16 34  1  0
 16 35  1  0
 17 36  1  0
 19 37  1  0
 19 38  1  0
 19 39  1  0
M  END
>  <UniqueID>  (30) 
30

>  <SMILES>  (30) 
CCCn1nc(-c2ccc(F)cc2)c2c(C)cc(C)nc21

>  <Energy>  (30) 
81.03798655152004

>  <Genealogy>  (30) 
CCCn1nc(-c2ccc(F)cc2)c2c(C)cc(C)nc21 (3D coordinates assigned)
CCCn1nc(-c2ccc(F)cc2)c2c(C)cc(C)nc21 (optimized conformer: 81.03798655152004 kcal/mol)

>  <smiles>  (30) 
CCCn1nc(-c2ccc(F)cc2)c2c(C)cc(C)nc21

>  <score_type>  (30) 
oracle

>  <origin>  (30) 
adg

>  <m_score__min__energy>  (30) 
-6.7400000000000002

>  <m_primary>  (30) 
energy

$$$$
30:0
     RDKit          3D

 52 54  0  0  0  0  0  0  0  0999 V2000
   59.9840   28.4990   46.8460 C   0  0  0  0  0  0  0  0  0  0  0  0
   60.3280   29.2790   45.7390 C   0  0  0  0  0  0  0  0  0  0  0  0
   59.3640   29.5970   44.7770 C   0  0  0  0  0  0  0  0  0  0  0  0
   58.0430   29.1410   44.9230 C   0  0  0  0  0  0  0  0  0  0  0  0
   57.0110   29.4500   43.8730 C   0  0  0  0  0  0  0  0  0  0  0  0
   57.0110   30.9460   43.5420 C   0  0  0  0  0  0  0  0  0  0  0  0
   56.7220   31.7380   44.7380 N   0  0  0  0  0  0  0  0  0  0  0  0
   57.5990   32.7400   45.2900 C   0  0  0  0  0  0  0  0  0  0  0  0
   58.0600   33.8310   44.5270 C   0  0  0  0  0  0  0  0  0  0  0  0
   58.9110   34.7810   45.0960 C   0  0  0  0  0  0  0  0  0  0  0  0
   59.3160   34.6560   46.4260 C   0  0  0  0  0  0  0  0  0  0  0  0
   58.8710   33.5760   47.2010 C   0  0  0  0  0  0  0  0  0  0  0  0
   59.2990   33.4390   48.6460 C   0  0  0  0  0  0  0  0  0  0  0  0
   60.6290   32.7890   48.7850 N   0  0  0  0  0  0  0  0  0  0  0  0
   61.7350   33.7840   48.8590 C   0  0  0  0  0  0  0  0  0  0  0  0
   62.4400   34.0840   47.5140 C   0  0  0  0  0  0  0  0  0  0  0  0
   63.3870   32.9830   46.9780 C   0  0  0  0  0  0  0  0  0  0  0  0
   63.4130   31.6860   47.8040 C   0  0  0  0  0  0  0  0  0  0  0  0
   62.0710   30.9150   47.8590 C   0  0  0  0  0  0  0  0  0  0  0  0
   60.7930   31.7700   47.7190 C   0  0  0  0  0  0  0  0  0  0  0  0
   58.0170   32.6210   46.6260 C   0  0  0  0  0  0  0  0  0  0  0  0
   57.7080   28.3450   46.0310 C   0  0  0  0  0  0  0  0  0  0  0  0
   58.6740   28.0300   46.9910 C   0  0  0  0  0  0  0  0  0  0  0  0
   60.7431   28.2537   47.6034 H   0  0  0  0  0  0  0  0  0  0  0  0
   61.3594   29.6438   45.6239 H   0  0  0  0  0  0  0  0  0  0  0  0
   59.6407   30.2058   43.9036 H   0  0  0  0  0  0  0  0  0  0  0  0
   57.2397   28.8779   42.9617 H   0  0  0  0  0  0  0  0  0  0  0  0
   56.0188   29.1715   44.2576 H   0  0  0  0  0  0  0  0  0  0  0  0
   57.9991   31.2297   43.1506 H   0  0  0  0  0  0  0  0  0  0  0  0
   56.2330   31.1428   42.7897 H   0  0  0  0  0  0  0  0  0  0  0  0
   55.8160   31.5480   45.2250 H   0  0  0  0  0  0  0  0  0  0  0  0
   57.7479   33.9351   43.4773 H   0  0  0  0  0  0  0  0  0  0  0  0
   59.2636   35.6312   44.4936 H   0  0  0  0  0  0  0  0  0  0  0  0
   59.9868   35.4077   46.8675 H   0  0  0  0  0  0  0  0  0  0  0  0
   59.3471   34.4413   49.0966 H   0  0  0  0  0  0  0  0  0  0  0  0
   58.5603   32.8026   49.1553 H   0  0  0  0  0  0  0  0  0  0  0  0
   60.6330   32.2670   49.6940 H   0  0  0  0  0  0  0  0  0  0  0  0
   61.3196   34.7271   49.2437 H   0  0  0  0  0  0  0  0  0  0  0  0
   62.5005   33.3427   49.5142 H   0  0  0  0  0  0  0  0  0  0  0  0
   61.6602   34.2537   46.7569 H   0  0  0  0  0  0  0  0  0  0  0  0
   63.0820   34.9563   47.7064 H   0  0  0  0  0  0  0  0  0  0  0  0
   63.0706   32.7295   45.9555 H   0  0  0  0  0  0  0  0  0  0  0  0
   64.4033   33.4005   47.0313 H   0  0  0  0  0  0  0  0  0  0  0  0
   64.1714   31.0193   47.3677 H   0  0  0  0  0  0  0  0  0  0  0  0
   63.6364   31.9861   48.8384 H   0  0  0  0  0  0  0  0  0  0  0  0
   62.0732   30.1770   47.0433 H   0  0  0  0  0  0  0  0  0  0  0  0
   62.0237   30.4735   48.8654 H   0  0  0  0  0  0  0  0  0  0  0  0
   60.8272   32.2869   46.7486 H   0  0  0  0  0  0  0  0  0  0  0  0
   59.9389   31.0818   47.8024 H   0  0  0  0  0  0  0  0  0  0  0  0
   57.6709   31.7688   47.2294 H   0  0  0  0  0  0  0  0  0  0  0  0
   56.6808   27.9679   46.1437 H   0  0  0  0  0  0  0  0  0  0  0  0
   58.4040   27.4131   47.8608 H   0  0  0  0  0  0  0  0  0  0  0  0
  1  2  2  0
  2  3  1  0
  3  4  2  0
  4  5  1  0
  5  6  1  0
  6  7  1  0
  7  8  1  0
  8  9  2  0
  9 10  1  0
 10 11  2  0
 11 12  1  0
 12 13  1  0
 13 14  1  0
 14 15  1  0
 15 16  1  0
 16 17  1  0
 17 18  1  0
 18 19  1  0
 19 20  1  0
 12 21  2  0
  4 22  1  0
 22 23  2  0
 23  1  1  0
 21  8  1  0
 20 14  1  0
  1 24  1  0
  2 25  1  0
  3 26  1  0
  5 27  1  0
  5 28  1  0
  6 29  1  0
  6 30  1  0
  7 31  1  0
  9 32  1  0
 10 33  1  0
 11 34  1  0
 13 35  1  0
 13 36  1  0
 14 37  1  0
 15 38  1  0
 15 39  1  0
 16 40  1  0
 16 41  1  0
 17 42  1  0
 17 43  1  0
 18 44  1  0
 18 45  1  0
 19 46  1  0
 19 47  1  0
 20 48  1  0
 20 49  1  0
 21 50  1  0
 22 51  1  0
 23 52  1  0
M  CHG  1  14   1
M  END
>  <UniqueID>  (31) 
31

>  <SMILES>  (31) 
c1ccc(CCNc2cccc(C[NH+]3CCCCCC3)c2)cc1

>  <Energy>  (31) 
65.27596933466745

>  <Genealogy>  (31) 
c1ccc(CCNc2cccc(C[NH+]3CCCCCC3)c2)cc1 (protonated)
c1ccc(CCNc2cccc(C[NH+]3CCCCCC3)c2)cc1 (3D coordinates assigned)
c1ccc(CCNc2cccc(C[NH+]3CCCCCC3)c2)cc1 (nonaromatic ring conformer: 65.27596933466745 kcal/mol)

>  <smiles>  (31) 
c1ccc(CCNc2cccc(CN3CCCCCC3)c2)cc1

>  <score_type>  (31) 
oracle

>  <origin>  (31) 
adg

>  <m_score__min__energy>  (31) 
-4.4699999999999998

>  <m_primary>  (31) 
energy

$$$$
31:0
     RDKit          3D

 42 44  0  0  0  0  0  0  0  0999 V2000
   56.8200   33.8150   45.5090 C   0  0  0  0  0  0  0  0  0  0  0  0
   57.9730   34.5550   44.8430 C   0  0  0  0  0  0  0  0  0  0  0  0
   58.9010   34.9890   45.8180 O   0  0  0  0  0  0  0  0  0  0  0  0
   59.6790   33.9040   46.2850 C   0  0  0  0  0  0  0  0  0  0  0  0
   59.2890   33.5590   47.7350 C   0  0  1  0  0  0  0  0  0  0  0  0
   58.7340   32.1150   47.8380 C   0  0  0  0  0  0  0  0  0  0  0  0
   59.5910   31.1770   47.0770 N   0  0  0  0  0  0  0  0  0  0  0  0
   58.8650   29.9920   46.5670 C   0  0  0  0  0  0  0  0  0  0  0  0
   58.1030   30.2530   45.2890 C   0  0  0  0  0  0  0  0  0  0  0  0
   58.4720   31.2430   44.3640 C   0  0  0  0  0  0  0  0  0  0  0  0
   57.6350   31.3160   43.2600 C   0  0  0  0  0  0  0  0  0  0  0  0
   56.4330   30.1560   43.4420 S   0  0  0  0  0  0  0  0  0  0  0  0
   56.9610   29.5490   44.9180 C   0  0  0  0  0  0  0  0  0  0  0  0
   60.8300   30.8210   47.7990 C   0  0  0  0  0  0  0  0  0  0  0  0
   61.8700   31.9160   47.7640 C   0  0  0  0  0  0  0  0  0  0  0  0
   63.1630   31.7340   47.3110 C   0  0  0  0  0  0  0  0  0  0  0  0
   63.8060   32.9470   47.4590 C   0  0  0  0  0  0  0  0  0  0  0  0
   62.8840   33.8230   47.9940 C   0  0  0  0  0  0  0  0  0  0  0  0
   61.7060   33.1930   48.1800 N   0  0  0  0  0  0  0  0  0  0  0  0
   60.4820   33.8190   48.6810 C   0  0  0  0  0  0  0  0  0  0  0  0
   56.9241   33.8818   46.6020 H   0  0  0  0  0  0  0  0  0  0  0  0
   55.8666   34.2703   45.2029 H   0  0  0  0  0  0  0  0  0  0  0  0
   56.8368   32.7586   45.2029 H   0  0  0  0  0  0  0  0  0  0  0  0
   58.4776   33.8806   44.1355 H   0  0  0  0  0  0  0  0  0  0  0  0
   57.5770   35.4310   44.3083 H   0  0  0  0  0  0  0  0  0  0  0  0
   59.5044   33.0280   45.6429 H   0  0  0  0  0  0  0  0  0  0  0  0
   60.7424   34.1839   46.2548 H   0  0  0  0  0  0  0  0  0  0  0  0
   58.4706   34.2199   48.0565 H   0  0  0  0  0  0  0  0  0  0  0  0
   58.7118   31.8098   48.8946 H   0  0  0  0  0  0  0  0  0  0  0  0
   57.7182   32.0923   47.4165 H   0  0  0  0  0  0  0  0  0  0  0  0
   59.5953   29.1911   46.3790 H   0  0  0  0  0  0  0  0  0  0  0  0
   58.1255   29.7130   47.3321 H   0  0  0  0  0  0  0  0  0  0  0  0
   59.3437   31.8996   44.5019 H   0  0  0  0  0  0  0  0  0  0  0  0
   57.7398   32.0112   42.4140 H   0  0  0  0  0  0  0  0  0  0  0  0
   56.4872   28.7378   45.4902 H   0  0  0  0  0  0  0  0  0  0  0  0
   60.5761   30.6124   48.8488 H   0  0  0  0  0  0  0  0  0  0  0  0
   61.2614   29.9419   47.2978 H   0  0  0  0  0  0  0  0  0  0  0  0
   63.5952   30.8049   46.9110 H   0  0  0  0  0  0  0  0  0  0  0  0
   64.8513   33.1715   47.2003 H   0  0  0  0  0  0  0  0  0  0  0  0
   63.0805   34.8785   48.2333 H   0  0  0  0  0  0  0  0  0  0  0  0
   60.2488   33.4056   49.6733 H   0  0  0  0  0  0  0  0  0  0  0  0
   60.6473   34.9049   48.7399 H   0  0  0  0  0  0  0  0  0  0  0  0
  1  2  1  0
  2  3  1  0
  3  4  1  0
  4  5  1  0
  5  6  1  0
  6  7  1  0
  7  8  1  0
  8  9  1  0
  9 10  1  0
 10 11  2  0
 11 12  1  0
 12 13  1  0
  7 14  1  0
 14 15  1  0
 15 16  2  0
 16 17  1  0
 17 18  2  0
 18 19  1  0
 19 20  1  0
 20  5  1  0
 13  9  2  0
 19 15  1  0
  1 21  1  0
  1 22  1  0
  1 23  1  0
  2 24  1  0
  2 25  1  0
  4 26  1  0
  4 27  1  0
  5 28  1  1
  6 29  1  0
  6 30  1  0
  8 31  1  0
  8 32  1  0
 10 33  1  0
 11 34  1  0
 13 35  1  0
 14 36  1  0
 14 37  1  0
 16 38  1  0
 17 39  1  0
 18 40  1  0
 20 41  1  0
 20 42  1  0
M  END
>  <UniqueID>  (32) 
32

>  <SMILES>  (32) 
CCOC[C@H]1CN(Cc2ccsc2)Cc2cccn2C1

>  <Energy>  (32) 
101.72735998948538

>  <Genealogy>  (32) 
CCOC[C@H]1CN(Cc2ccsc2)Cc2cccn2C1 (chirality)
CCOC[C@H]1CN(Cc2ccsc2)Cc2cccn2C1 (3D coordinates assigned)
CCOC[C@H]1CN(Cc2ccsc2)Cc2cccn2C1 (nonaromatic ring conformer: 101.72735998948538 kcal/mol)

>  <smiles>  (32) 
CCOCC1CN(Cc2ccsc2)Cc2cccn2C1

>  <score_type>  (32) 
oracle

>  <origin>  (32) 
adg

>  <m_score__min__energy>  (32) 
-4.6500000000000004

>  <m_primary>  (32) 
energy

$$$$
32:0
     RDKit          3D

 45 47  0  0  0  0  0  0  0  0999 V2000
   63.0100   33.8370   46.6750 C   0  0  0  0  0  0  0  0  0  0  0  0
   63.1450   32.3830   47.1260 C   0  0  0  0  0  0  0  0  0  0  0  0
   62.0970   32.0240   48.0060 O   0  0  0  0  0  0  0  0  0  0  0  0
   62.5420   31.9540   49.3500 C   0  0  0  0  0  0  0  0  0  0  0  0
   62.4680   33.3450   49.9730 C   0  0  0  0  0  0  0  0  0  0  0  0
   60.8640   33.5900   50.8140 S   0  0  0  0  0  0  0  0  0  0  0  0
   59.8790   33.4170   49.3200 C   0  0  0  0  0  0  0  0  0  0  0  0
   60.0930   34.2780   48.2890 N   0  0  0  0  0  0  0  0  0  0  0  0
   59.3880   34.1890   47.1330 C   0  0  0  0  0  0  0  0  0  0  0  0
   59.6370   35.0700   46.0750 C   0  0  0  0  0  0  0  0  0  0  0  0
   58.9010   34.9600   44.8900 C   0  0  0  0  0  0  0  0  0  0  0  0
   57.9160   33.9720   44.7620 C   0  0  0  0  0  0  0  0  0  0  0  0
   57.6640   33.0900   45.8180 C   0  0  0  0  0  0  0  0  0  0  0  0
   58.3990   33.1950   47.0030 C   0  0  0  0  0  0  0  0  0  0  0  0
   58.1700   32.3480   48.0390 N   0  0  0  0  0  0  0  0  0  0  0  0
   58.8890   32.4240   49.1920 C   0  0  0  0  0  0  0  0  0  0  0  0
   58.4900   31.2960   50.5360 S   0  0  0  0  0  0  0  0  0  0  0  0
   59.9480   30.2200   50.3060 C   0  0  0  0  0  0  0  0  0  0  0  0
   59.8650   29.4850   49.0050 C   0  0  0  0  0  0  0  0  0  0  0  0
   59.6820   28.2370   49.0050 O   0  0  0  0  0  0  0  0  0  0  0  0
   60.0220   30.1910   47.7690 N   0  0  0  0  0  0  0  0  0  0  0  0
   60.0020   29.4960   46.4860 C   0  0  0  0  0  0  0  0  0  0  0  0
   59.2270   30.2440   45.4160 C   0  0  0  0  0  0  0  0  0  0  0  0
   58.6260   29.0080   46.0660 C   0  0  0  0  0  0  0  0  0  0  0  0
   62.9493   34.4906   47.5577 H   0  0  0  0  0  0  0  0  0  0  0  0
   63.8861   34.1165   46.0713 H   0  0  0  0  0  0  0  0  0  0  0  0
   62.0975   33.9504   46.0713 H   0  0  0  0  0  0  0  0  0  0  0  0
   63.1127   31.7283   46.2427 H   0  0  0  0  0  0  0  0  0  0  0  0
   64.1018   32.2689   47.6567 H   0  0  0  0  0  0  0  0  0  0  0  0
   61.8998   31.2625   49.9152 H   0  0  0  0  0  0  0  0  0  0  0  0
   63.5795   31.5896   49.3786 H   0  0  0  0  0  0  0  0  0  0  0  0
   63.2809   33.4565   50.7057 H   0  0  0  0  0  0  0  0  0  0  0  0
   62.5682   34.0960   49.1756 H   0  0  0  0  0  0  0  0  0  0  0  0
   60.4092   35.8470   46.1745 H   0  0  0  0  0  0  0  0  0  0  0  0
   59.0963   35.6511   44.0568 H   0  0  0  0  0  0  0  0  0  0  0  0
   57.3394   33.8897   43.8288 H   0  0  0  0  0  0  0  0  0  0  0  0
   56.8894   32.3156   45.7165 H   0  0  0  0  0  0  0  0  0  0  0  0
   60.8576   30.8385   50.3136 H   0  0  0  0  0  0  0  0  0  0  0  0
   59.9777   29.4860   51.1248 H   0  0  0  0  0  0  0  0  0  0  0  0
   60.0850   31.2340   47.7820 H   0  0  0  0  0  0  0  0  0  0  0  0
   60.9985   29.0358   46.5585 H   0  0  0  0  0  0  0  0  0  0  0  0
   58.8090   31.2380   45.6332 H   0  0  0  0  0  0  0  0  0  0  0  0
   59.4330   30.5567   44.3817 H   0  0  0  0  0  0  0  0  0  0  0  0
   57.7733   29.1076   46.7538 H   0  0  0  0  0  0  0  0  0  0  0  0
   58.2171   28.0557   45.6973 H   0  0  0  0  0  0  0  0  0  0  0  0
  1  2  1  0
  2  3  1  0
  3  4  1  0
  4  5  1  0
  5  6  1  0
  6  7  1  0
  7  8  2  0
  8  9  1  0
  9 10  2  0
 10 11  1  0
 11 12  2  0
 12 13  1  0
 13 14  2  0
 14 15  1  0
 15 16  2  0
 16 17  1  0
 17 18  1  0
 18 19  1  0
 19 20  2  0
 19 21  1  0
 21 22  1  0
 22 23  1  0
 23 24  1  0
 16  7  1  0
 24 22  1  0
 14  9  1  0
  1 25  1  0
  1 26  1  0
  1 27  1  0
  2 28  1  0
  2 29  1  0
  4 30  1  0
  4 31  1  0
  5 32  1  0
  5 33  1  0
 10 34  1  0
 11 35  1  0
 12 36  1  0
 13 37  1  0
 18 38  1  0
 18 39  1  0
 21 40  1  0
 22 41  1  0
 23 42  1  0
 23 43  1  0
 24 44  1  0
 24 45  1  0
M  END
>  <UniqueID>  (33) 
33

>  <SMILES>  (33) 
CCOCCSc1nc2ccccc2nc1SCC(=O)NC1CC1

>  <Energy>  (33) 
301.5342309783954

>  <Genealogy>  (33) 
CCOCCSc1nc2ccccc2nc1SCC(=O)NC1CC1 (3D coordinates assigned)
CCOCCSc1nc2ccccc2nc1SCC(=O)NC1CC1 (nonaromatic ring conformer: 301.5342309783954 kcal/mol)

>  <smiles>  (33) 
CCOCCSc1nc2ccccc2nc1SCC(=O)NC1CC1

>  <score_type>  (33) 
oracle

>  <origin>  (33) 
adg

>  <m_score__min__energy>  (33) 
-7.1699999999999999

>  <m_primary>  (33) 
energy

$$$$
33:0
     RDKit          3D

 81 82  0  0  0  0  0  0  0  0999 V2000
   63.3190   33.8450   46.3290 C   0  0  0  0  0  0  0  0  0  0  0  0
   63.4800   32.8010   47.4310 C   0  0  0  0  0  0  0  0  0  0  0  0
   63.6520   33.4290   48.8240 C   0  0  0  0  0  0  0  0  0  0  0  0
   64.1690   32.4250   49.8700 C   0  0  0  0  0  0  0  0  0  0  0  0
   63.1710   32.2550   51.0430 C   0  0  0  0  0  0  0  0  0  0  0  0
   63.1410   30.8340   51.6310 C   0  0  0  0  0  0  0  0  0  0  0  0
   62.2070   29.8870   50.8560 C   0  0  0  0  0  0  0  0  0  0  0  0
   61.3970   30.6230   49.8850 N   0  0  0  0  0  0  0  0  0  0  0  0
   60.7290   30.1210   48.8820 C   0  0  0  0  0  0  0  0  0  0  0  0
   59.7800   29.1280   49.1410 C   0  0  0  0  0  0  0  0  0  0  0  0
   59.0930   28.5280   48.0800 C   0  0  0  0  0  0  0  0  0  0  0  0
   59.3170   28.9240   46.7900 N   0  0  0  0  0  0  0  0  0  0  0  0
   58.6230   28.2430   45.6860 C   0  0  0  0  0  0  0  0  0  0  0  0
   58.5110   29.1550   44.4540 C   0  0  0  0  0  0  0  0  0  0  0  0
   57.0470   29.4520   44.0890 C   0  0  0  0  0  0  0  0  0  0  0  0
   56.8560   30.8490   43.4800 C   0  0  0  0  0  0  0  0  0  0  0  0
   57.9770   31.8190   43.8860 C   0  0  0  0  0  0  0  0  0  0  0  0
   57.4030   33.0970   44.5160 C   0  0  0  0  0  0  0  0  0  0  0  0
   58.5070   34.0690   44.9610 C   0  0  0  0  0  0  0  0  0  0  0  0
   58.8570   33.8690   46.3750 N   0  0  0  0  0  0  0  0  0  0  0  0
   59.9120   34.5460   46.9200 C   0  0  0  0  0  0  0  0  0  0  0  0
   60.2850   34.3330   48.2490 C   0  0  0  0  0  0  0  0  0  0  0  0
   59.5830   33.4120   49.0310 C   0  0  0  0  0  0  0  0  0  0  0  0
   59.9530   33.2300   50.2670 N   0  0  0  0  0  0  0  0  0  0  0  0
   59.3390   33.8210   51.4560 C   0  0  0  0  0  0  0  0  0  0  0  0
   58.9390   32.7160   52.4500 C   0  0  0  0  0  0  0  0  0  0  0  0
   59.0480   31.3440   51.8920 N   0  0  0  0  0  0  0  0  0  0  0  0
   57.7560   30.9520   51.2990 C   0  0  0  0  0  0  0  0  0  0  0  0
   59.4450   30.3560   52.9110 C   0  0  0  0  0  0  0  0  0  0  0  0
   58.5000   32.7200   48.4550 C   0  0  0  0  0  0  0  0  0  0  0  0
   58.1510   32.9690   47.1250 C   0  0  0  0  0  0  0  0  0  0  0  0
   60.2130   29.9190   46.5200 C   0  0  0  0  0  0  0  0  0  0  0  0
   60.9420   30.5230   47.5480 C   0  0  0  0  0  0  0  0  0  0  0  0
   63.1662   34.8357   46.7820 H   0  0  0  0  0  0  0  0  0  0  0  0
   64.2250   33.8627   45.7055 H   0  0  0  0  0  0  0  0  0  0  0  0
   62.4497   33.5889   45.7055 H   0  0  0  0  0  0  0  0  0  0  0  0
   62.5859   32.1603   47.4419 H   0  0  0  0  0  0  0  0  0  0  0  0
   64.3911   32.2249   47.2119 H   0  0  0  0  0  0  0  0  0  0  0  0
   64.3693   34.2596   48.7492 H   0  0  0  0  0  0  0  0  0  0  0  0
   62.6620   33.7743   49.1567 H   0  0  0  0  0  0  0  0  0  0  0  0
   64.3181   31.4493   49.3845 H   0  0  0  0  0  0  0  0  0  0  0  0
   65.1150   32.8109   50.2777 H   0  0  0  0  0  0  0  0  0  0  0  0
   63.4532   32.9555   51.8428 H   0  0  0  0  0  0  0  0  0  0  0  0
   62.1670   32.4571   50.6415 H   0  0  0  0  0  0  0  0  0  0  0  0
   64.1603   30.4213   51.6049 H   0  0  0  0  0  0  0  0  0  0  0  0
   62.7573   30.9092   52.6592 H   0  0  0  0  0  0  0  0  0  0  0  0
   62.8142   29.1397   50.3241 H   0  0  0  0  0  0  0  0  0  0  0  0
   61.5323   29.3976   51.5738 H   0  0  0  0  0  0  0  0  0  0  0  0
   59.5738   28.8190   50.1764 H   0  0  0  0  0  0  0  0  0  0  0  0
   58.3650   27.7293   48.2854 H   0  0  0  0  0  0  0  0  0  0  0  0
   59.1852   27.3379   45.4126 H   0  0  0  0  0  0  0  0  0  0  0  0
   57.6079   27.9825   46.0203 H   0  0  0  0  0  0  0  0  0  0  0  0
   59.0236   30.1046   44.6672 H   0  0  0  0  0  0  0  0  0  0  0  0
   58.9749   28.6351   43.6028 H   0  0  0  0  0  0  0  0  0  0  0  0
   56.7076   28.7016   43.3599 H   0  0  0  0  0  0  0  0  0  0  0  0
   56.4600   29.4133   45.0185 H   0  0  0  0  0  0  0  0  0  0  0  0
   56.8456   30.7589   42.3837 H   0  0  0  0  0  0  0  0  0  0  0  0
   55.9059   31.2545   43.8580 H   0  0  0  0  0  0  0  0  0  0  0  0
   58.6342   31.3230   44.6155 H   0  0  0  0  0  0  0  0  0  0  0  0
   58.5408   32.0978   42.9836 H   0  0  0  0  0  0  0  0  0  0  0  0
   56.7640   33.6010   43.7760 H   0  0  0  0  0  0  0  0  0  0  0  0
   56.8284   32.8062   45.4078 H   0  0  0  0  0  0  0  0  0  0  0  0
   59.4018   33.9020   44.3433 H   0  0  0  0  0  0  0  0  0  0  0  0
   58.1351   35.0968   44.8375 H   0  0  0  0  0  0  0  0  0  0  0  0
   60.4729   35.2658   46.3057 H   0  0  0  0  0  0  0  0  0  0  0  0
   61.1304   34.8896   48.6796 H   0  0  0  0  0  0  0  0  0  0  0  0
   60.0581   34.5002   51.9372 H   0  0  0  0  0  0  0  0  0  0  0  0
   58.4394   34.3788   51.1569 H   0  0  0  0  0  0  0  0  0  0  0  0
   59.5951   32.7862   53.3301 H   0  0  0  0  0  0  0  0  0  0  0  0
   57.8806   32.8777   52.7021 H   0  0  0  0  0  0  0  0  0  0  0  0
   59.7650   31.3410   51.1290 H   0  0  0  0  0  0  0  0  0  0  0  0
   57.0357   30.7334   52.1011 H   0  0  0  0  0  0  0  0  0  0  0  0
   57.3735   31.7745   50.6768 H   0  0  0  0  0  0  0  0  0  0  0  0
   57.8951   30.0556   50.6768 H   0  0  0  0  0  0  0  0  0  0  0  0
   59.2764   30.7755   53.9138 H   0  0  0  0  0  0  0  0  0  0  0  0
   58.8441   29.4427   52.7899 H   0  0  0  0  0  0  0  0  0  0  0  0
   60.5108   30.1124   52.7899 H   0  0  0  0  0  0  0  0  0  0  0  0
   57.9324   31.9881   49.0484 H   0  0  0  0  0  0  0  0  0  0  0  0
   57.2998   32.4358   46.6766 H   0  0  0  0  0  0  0  0  0  0  0  0
   60.3625   30.2487   45.4813 H   0  0  0  0  0  0  0  0  0  0  0  0
   61.6777   31.3076   47.3174 H   0  0  0  0  0  0  0  0  0  0  0  0
  1  2  1  0
  2  3  1  0
  3  4  1  0
  4  5  1  0
  5  6  1  0
  6  7  1  0
  7  8  1  0
  8  9  2  3
  9 10  1  0
 10 11  2  0
 11 12  1  0
 12 13  1  0
 13 14  1  0
 14 15  1  0
 15 16  1  0
 16 17  1  0
 17 18  1  0
 18 19  1  0
 19 20  1  0
 20 21  1  0
 21 22  2  0
 22 23  1  0
 23 24  2  3
 24 25  1  0
 25 26  1  0
 26 27  1  0
 27 28  1  0
 27 29  1  0
 23 30  1  0
 30 31  2  0
 12 32  1  0
 32 33  2  0
 33  9  1  0
 31 20  1  0
  1 34  1  0
  1 35  1  0
  1 36  1  0
  2 37  1  0
  2 38  1  0
  3 39  1  0
  3 40  1  0
  4 41  1  0
  4 42  1  0
  5 43  1  0
  5 44  1  0
  6 45  1  0
  6 46  1  0
  7 47  1  0
  7 48  1  0
 10 49  1  0
 11 50  1  0
 13 51  1  0
 13 52  1  0
 14 53  1  0
 14 54  1  0
 15 55  1  0
 15 56  1  0
 16 57  1  0
 16 58  1  0
 17 59  1  0
 17 60  1  0
 18 61  1  0
 18 62  1  0
 19 63  1  0
 19 64  1  0
 21 65  1  0
 22 66  1  0
 25 67  1  0
 25 68  1  0
 26 69  1  0
 26 70  1  0
 27 71  1  0
 28 72  1  0
 28 73  1  0
 28 74  1  0
 29 75  1  0
 29 76  1  0
 29 77  1  0
 30 78  1  0
 31 79  1  0
 32 80  1  0
 33 81  1  0
M  CHG  1  27   1
M  END
>  <UniqueID>  (34) 
34

>  <SMILES>  (34) 
CCCCCCCN=c1ccn(CCCCCCCn2ccc(=NCC[NH+](C)C)cc2)cc1

>  <Energy>  (34) 
63.033632983404864

>  <Genealogy>  (34) 
CCCCCCCN=c1ccn(CCCCCCCn2ccc(=NCC[NH+](C)C)cc2)cc1 (protonated)
CCCCCCCN=c1ccn(CCCCCCCn2ccc(=NCC[NH+](C)C)cc2)cc1 (3D coordinates assigned)
CCCCCCCN=c1ccn(CCCCCCCn2ccc(=NCC[NH+](C)C)cc2)cc1 (optimized conformer: 63.033632983404864 kcal/mol)

>  <smiles>  (34) 
CCCCCCCN=c1ccn(CCCCCCCn2ccc(=NCCN(C)C)cc2)cc1

>  <score_type>  (34) 
oracle

>  <origin>  (34) 
adg

>  <m_score__min__energy>  (34) 
-5.6399999999999997

>  <m_primary>  (34) 
energy

$$$$
34:0
     RDKit          3D

 40 42  0  0  0  0  0  0  0  0999 V2000
   65.9010   32.6830   50.1170 C   0  0  0  0  0  0  0  0  0  0  0  0
   64.6930   33.0590   49.2670 C   0  0  0  0  0  0  0  0  0  0  0  0
   63.9310   31.9050   48.9640 O   0  0  0  0  0  0  0  0  0  0  0  0
   63.2290   32.0800   47.7520 C   0  0  0  0  0  0  0  0  0  0  0  0
   61.8970   31.4170   47.8710 C   0  0  0  0  0  0  0  0  0  0  0  0
   61.4220   30.8720   49.0100 N   0  0  0  0  0  0  0  0  0  0  0  0
   60.2260   30.3550   48.6740 C   0  0  0  0  0  0  0  0  0  0  0  0
   60.0330   30.6060   47.3350 C   0  0  0  0  0  0  0  0  0  0  0  0
   58.8900   30.2210   46.5650 N   0  0  0  0  0  0  0  0  0  0  0  0
   58.6910   28.8650   46.1390 C   0  0  0  0  0  0  0  0  0  0  0  0
   59.7010   27.9320   46.3990 C   0  0  0  0  0  0  0  0  0  0  0  0
   59.5270   26.5840   46.0840 C   0  0  0  0  0  0  0  0  0  0  0  0
   58.3310   26.1380   45.4900 C   0  0  0  0  0  0  0  0  0  0  0  0
   58.0610   24.6870   45.1260 C   0  0  0  0  0  0  0  0  0  0  0  0
   56.6110   24.2220   45.1350 C   0  0  0  0  0  0  0  0  0  0  0  0
   57.3400   24.4180   43.8120 C   0  0  0  0  0  0  0  0  0  0  0  0
   57.3310   27.0790   45.2010 C   0  0  0  0  0  0  0  0  0  0  0  0
   57.5000   28.4450   45.4980 C   0  0  0  0  0  0  0  0  0  0  0  0
   56.4520   29.4040   45.0740 C   0  0  0  0  0  0  0  0  0  0  0  0
   56.7280   30.6240   44.9270 O   0  0  0  0  0  0  0  0  0  0  0  0
   55.1420   28.9830   44.8750 O   0  0  0  0  0  0  0  0  0  0  0  0
   61.0680   31.2600   46.8620 O   0  0  0  0  0  0  0  0  0  0  0  0
   65.6394   32.7644   51.1823 H   0  0  0  0  0  0  0  0  0  0  0  0
   66.2008   31.6490   49.8911 H   0  0  0  0  0  0  0  0  0  0  0  0
   66.7346   33.3642   49.8911 H   0  0  0  0  0  0  0  0  0  0  0  0
   64.0664   33.7730   49.8216 H   0  0  0  0  0  0  0  0  0  0  0  0
   65.0419   33.5156   48.3290 H   0  0  0  0  0  0  0  0  0  0  0  0
   63.0920   33.1535   47.5552 H   0  0  0  0  0  0  0  0  0  0  0  0
   63.7969   31.6344   46.9220 H   0  0  0  0  0  0  0  0  0  0  0  0
   61.8810   30.8460   49.9480 H   0  0  0  0  0  0  0  0  0  0  0  0
   59.5313   29.8291   49.3454 H   0  0  0  0  0  0  0  0  0  0  0  0
   58.3200   30.9730   46.1150 H   0  0  0  0  0  0  0  0  0  0  0  0
   60.6437   28.2655   46.8574 H   0  0  0  0  0  0  0  0  0  0  0  0
   60.3301   25.8644   46.3013 H   0  0  0  0  0  0  0  0  0  0  0  0
   58.9946   24.3335   45.5880 H   0  0  0  0  0  0  0  0  0  0  0  0
   56.3607   23.2080   45.4801 H   0  0  0  0  0  0  0  0  0  0  0  0
   55.6751   24.6014   45.5711 H   0  0  0  0  0  0  0  0  0  0  0  0
   57.6162   23.5455   43.2017 H   0  0  0  0  0  0  0  0  0  0  0  0
   57.1487   24.9976   42.8969 H   0  0  0  0  0  0  0  0  0  0  0  0
   56.3946   26.7422   44.7322 H   0  0  0  0  0  0  0  0  0  0  0  0
  1  2  1  0
  2  3  1  0
  3  4  1  0
  4  5  1  0
  5  6  2  0
  6  7  1  0
  7  8  2  0
  8  9  1  0
  9 10  1  0
 10 11  2  0
 11 12  1  0
 12 13  2  0
 13 14  1  0
 14 15  1  0
 15 16  1  0
 13 17  1  0
 17 18  2  0
 18 19  1  0
 19 20  2  0
 19 21  1  0
  8 22  1  0
 22  5  1  0
 18 10  1  0
 16 14  1  0
  1 23  1  0
  1 24  1  0
  1 25  1  0
  2 26  1  0
  2 27  1  0
  4 28  1  0
  4 29  1  0
  6 30  1  0
  7 31  1  0
  9 32  1  0
 11 33  1  0
 12 34  1  0
 14 35  1  0
 15 36  1  0
 15 37  1  0
 16 38  1  0
 16 39  1  0
 17 40  1  0
M  CHG  2   6   1  21  -1
M  END
>  <UniqueID>  (35) 
35

>  <SMILES>  (35) 
CCOCc1[nH+]cc(Nc2ccc(C3CC3)cc2C(=O)[O-])o1

>  <Energy>  (35) 
346.27816083143296

>  <Genealogy>  (35) 
CCOCc1[nH+]cc(Nc2ccc(C3CC3)cc2C(=O)[O-])o1 (protonated)
CCOCc1[nH+]cc(Nc2ccc(C3CC3)cc2C(=O)[O-])o1 (3D coordinates assigned)
CCOCc1[nH+]cc(Nc2ccc(C3CC3)cc2C(=O)[O-])o1 (nonaromatic ring conformer: 346.27816083143296 kcal/mol)

>  <smiles>  (35) 
CCOCc1ncc(Nc2ccc(C3CC3)cc2C(=O)O)o1

>  <score_type>  (35) 
oracle

>  <origin>  (35) 
adg

>  <m_score__min__energy>  (35) 
-8.5600000000000005

>  <m_primary>  (35) 
energy

$$$$
35:0
     RDKit          3D

 50 52  0  0  0  0  0  0  0  0999 V2000
   59.9580   31.2580   47.6330 C   0  0  0  0  0  0  0  0  0  0  0  0
   58.8560   32.3150   47.6150 C   0  0  0  0  0  0  0  0  0  0  0  0
   59.2690   33.5100   46.8660 N   0  0  0  0  0  0  0  0  0  0  0  0
   58.5700   34.1810   45.9240 C   0  0  0  0  0  0  0  0  0  0  0  0
   56.9020   33.7800   45.3910 S   0  0  0  0  0  0  0  0  0  0  0  0
   57.4030   32.6740   44.0210 C   0  0  0  0  0  0  0  0  0  0  0  0
   58.2830   31.5100   44.4870 C   0  0  0  0  0  0  0  0  0  0  0  0
   57.5600   30.6130   45.3310 O   0  0  0  0  0  0  0  0  0  0  0  0
   57.8180   29.2430   45.4930 C   0  0  0  0  0  0  0  0  0  0  0  0
   59.0790   28.7520   45.8850 C   0  0  0  0  0  0  0  0  0  0  0  0
   59.2850   27.3780   46.0300 C   0  0  0  0  0  0  0  0  0  0  0  0
   58.2420   26.4830   45.7910 C   0  0  0  0  0  0  0  0  0  0  0  0
   56.9860   26.9590   45.4080 C   0  0  0  0  0  0  0  0  0  0  0  0
   56.7660   28.3430   45.2580 C   0  0  0  0  0  0  0  0  0  0  0  0
   55.5200   28.8630   44.8730 O   0  0  0  0  0  0  0  0  0  0  0  0
   55.3150   29.7330   43.7650 C   0  0  0  0  0  0  0  0  0  0  0  0
   59.2580   35.2350   45.4500 N   0  0  0  0  0  0  0  0  0  0  0  0
   60.4230   35.2510   46.0790 N   0  0  0  0  0  0  0  0  0  0  0  0
   60.4210   34.2180   46.9440 C   0  0  0  0  0  0  0  0  0  0  0  0
   61.5570   33.9290   47.8390 C   0  0  0  0  0  0  0  0  0  0  0  0
   62.7560   33.4010   47.3360 C   0  0  0  0  0  0  0  0  0  0  0  0
   63.8230   33.1260   48.1970 C   0  0  0  0  0  0  0  0  0  0  0  0
   63.6980   33.3640   49.5790 C   0  0  0  0  0  0  0  0  0  0  0  0
   64.7390   33.1090   50.4840 O   0  0  0  0  0  0  0  0  0  0  0  0
   66.0190   32.6040   50.1140 C   0  0  0  0  0  0  0  0  0  0  0  0
   62.4930   33.8690   50.0790 C   0  0  0  0  0  0  0  0  0  0  0  0
   61.4260   34.1440   49.2170 C   0  0  0  0  0  0  0  0  0  0  0  0
   60.2138   31.0127   48.6743 H   0  0  0  0  0  0  0  0  0  0  0  0
   59.6053   30.3518   47.1188 H   0  0  0  0  0  0  0  0  0  0  0  0
   60.8487   31.6482   47.1188 H   0  0  0  0  0  0  0  0  0  0  0  0
   57.9592   31.8886   47.1417 H   0  0  0  0  0  0  0  0  0  0  0  0
   58.6464   32.6132   48.6529 H   0  0  0  0  0  0  0  0  0  0  0  0
   56.4967   32.2632   43.5521 H   0  0  0  0  0  0  0  0  0  0  0  0
   57.9946   33.2725   43.3126 H   0  0  0  0  0  0  0  0  0  0  0  0
   58.6436   30.9593   43.6057 H   0  0  0  0  0  0  0  0  0  0  0  0
   59.1250   31.9224   45.0623 H   0  0  0  0  0  0  0  0  0  0  0  0
   59.9044   29.4532   46.0776 H   0  0  0  0  0  0  0  0  0  0  0  0
   60.2726   27.0006   46.3336 H   0  0  0  0  0  0  0  0  0  0  0  0
   58.4089   25.4016   45.9043 H   0  0  0  0  0  0  0  0  0  0  0  0
   56.1651   26.2507   45.2227 H   0  0  0  0  0  0  0  0  0  0  0  0
   55.0771   30.7427   44.1308 H   0  0  0  0  0  0  0  0  0  0  0  0
   56.2290   29.7702   43.1540 H   0  0  0  0  0  0  0  0  0  0  0  0
   54.4806   29.3583   43.1540 H   0  0  0  0  0  0  0  0  0  0  0  0
   62.8570   33.2024   46.2588 H   0  0  0  0  0  0  0  0  0  0  0  0
   64.7632   32.7224   47.7932 H   0  0  0  0  0  0  0  0  0  0  0  0
   66.5989   32.3752   51.0203 H   0  0  0  0  0  0  0  0  0  0  0  0
   65.8935   31.6880   49.5180 H   0  0  0  0  0  0  0  0  0  0  0  0
   66.5527   33.3589   49.5180 H   0  0  0  0  0  0  0  0  0  0  0  0
   62.3836   34.0513   51.1583 H   0  0  0  0  0  0  0  0  0  0  0  0
   60.4798   34.5309   49.6232 H   0  0  0  0  0  0  0  0  0  0  0  0
  1  2  1  0
  2  3  1  0
  3  4  1  0
  4  5  1  0
  5  6  1  0
  6  7  1  0
  7  8  1  0
  8  9  1  0
  9 10  2  0
 10 11  1  0
 11 12  2  0
 12 13  1  0
 13 14  2  0
 14 15  1  0
 15 16  1  0
  4 17  2  0
 17 18  1  0
 18 19  2  0
 19 20  1  0
 20 21  2  0
 21 22  1  0
 22 23  2  0
 23 24  1  0
 24 25  1  0
 23 26  1  0
 26 27  2  0
 19  3  1  0
 27 20  1  0
 14  9  1  0
  1 28  1  0
  1 29  1  0
  1 30  1  0
  2 31  1  0
  2 32  1  0
  6 33  1  0
  6 34  1  0
  7 35  1  0
  7 36  1  0
 10 37  1  0
 11 38  1  0
 12 39  1  0
 13 40  1  0
 16 41  1  0
 16 42  1  0
 16 43  1  0
 21 44  1  0
 22 45  1  0
 25 46  1  0
 25 47  1  0
 25 48  1  0
 26 49  1  0
 27 50  1  0
M  END
>  <UniqueID>  (36) 
36

>  <SMILES>  (36) 
CCn1c(SCCOc2ccccc2OC)nnc1-c1ccc(OC)cc1

>  <Energy>  (36) 
83.2676110881005

>  <Genealogy>  (36) 
CCn1c(SCCOc2ccccc2OC)nnc1-c1ccc(OC)cc1 (3D coordinates assigned)
CCn1c(SCCOc2ccccc2OC)nnc1-c1ccc(OC)cc1 (optimized conformer: 83.2676110881005 kcal/mol)

>  <smiles>  (36) 
CCn1c(SCCOc2ccccc2OC)nnc1-c1ccc(OC)cc1

>  <score_type>  (36) 
oracle

>  <origin>  (36) 
adg

>  <m_score__min__energy>  (36) 
-8.2799999999999994

>  <m_primary>  (36) 
energy

$$$$
36:0
     RDKit          3D

 45 47  0  0  0  0  0  0  0  0999 V2000
   66.0360   32.5550   50.2170 C   0  0  0  0  0  0  0  0  0  0  0  0
   64.5520   32.3370   49.9330 C   0  0  0  0  0  0  0  0  0  0  0  0
   64.2650   32.5480   48.5490 O   0  0  0  0  0  0  0  0  0  0  0  0
   62.9940   32.4500   47.9560 C   0  0  0  0  0  0  0  0  0  0  0  0
   62.3040   31.2280   47.8310 C   0  0  0  0  0  0  0  0  0  0  0  0
   61.0430   31.1840   47.2260 C   0  0  0  0  0  0  0  0  0  0  0  0
   60.4520   32.3570   46.7390 C   0  0  0  0  0  0  0  0  0  0  0  0
   59.2200   32.3230   46.1500 N   0  0  0  0  0  0  0  0  0  0  0  0
   58.6280   33.4540   45.6750 C   0  0  0  0  0  0  0  0  0  0  0  0
   57.0070   33.3660   44.9110 S   0  0  0  0  0  0  0  0  0  0  0  0
   57.3870   31.8330   44.0020 C   0  0  0  0  0  0  0  0  0  0  0  0
   56.9300   30.6490   44.8010 C   0  0  0  0  0  0  0  0  0  0  0  0
   55.8400   30.0970   44.4960 O   0  0  0  0  0  0  0  0  0  0  0  0
   57.7020   30.0980   45.8770 N   0  0  0  0  0  0  0  0  0  0  0  0
   58.2130   28.7280   45.9610 C   0  0  0  0  0  0  0  0  0  0  0  0
   59.1770   28.4520   44.8030 C   0  0  0  0  0  0  0  0  0  0  0  0
   60.5440   28.2040   45.4210 C   0  0  0  0  0  0  0  0  0  0  0  0
   60.2740   27.7710   46.8460 C   0  0  0  0  0  0  0  0  0  0  0  0
   59.0090   28.5100   47.2490 C   0  0  0  0  0  0  0  0  0  0  0  0
   59.2760   34.6900   45.7880 C   0  0  0  0  0  0  0  0  0  0  0  0
   60.5360   34.7550   46.3800 C   0  0  0  0  0  0  0  0  0  0  0  0
   61.1390   33.5870   46.8630 C   0  0  0  0  0  0  0  0  0  0  0  0
   62.4060   33.6230   47.4660 C   0  0  0  0  0  0  0  0  0  0  0  0
   66.2016   32.5793   51.3042 H   0  0  0  0  0  0  0  0  0  0  0  0
   66.6184   31.7328   49.7757 H   0  0  0  0  0  0  0  0  0  0  0  0
   66.3574   33.5100   49.7757 H   0  0  0  0  0  0  0  0  0  0  0  0
   64.2802   31.3064   50.2049 H   0  0  0  0  0  0  0  0  0  0  0  0
   63.9693   33.0557   50.5280 H   0  0  0  0  0  0  0  0  0  0  0  0
   62.7597   30.3020   48.2117 H   0  0  0  0  0  0  0  0  0  0  0  0
   60.5136   30.2243   47.1324 H   0  0  0  0  0  0  0  0  0  0  0  0
   58.7130   31.4140   46.0580 H   0  0  0  0  0  0  0  0  0  0  0  0
   56.8670   31.8435   43.0327 H   0  0  0  0  0  0  0  0  0  0  0  0
   58.4724   31.7655   43.8364 H   0  0  0  0  0  0  0  0  0  0  0  0
   57.3397   28.0598   45.9297 H   0  0  0  0  0  0  0  0  0  0  0  0
   58.8492   27.5656   44.2401 H   0  0  0  0  0  0  0  0  0  0  0  0
   59.2075   29.3002   44.1033 H   0  0  0  0  0  0  0  0  0  0  0  0
   61.0751   27.4117   44.8730 H   0  0  0  0  0  0  0  0  0  0  0  0
   61.1775   29.1024   45.3817 H   0  0  0  0  0  0  0  0  0  0  0  0
   60.1189   26.6832   46.8967 H   0  0  0  0  0  0  0  0  0  0  0  0
   61.1171   28.0006   47.5142 H   0  0  0  0  0  0  0  0  0  0  0  0
   58.4255   27.9071   47.9604 H   0  0  0  0  0  0  0  0  0  0  0  0
   59.2427   29.4651   47.7421 H   0  0  0  0  0  0  0  0  0  0  0  0
   58.7935   35.6042   45.4118 H   0  0  0  0  0  0  0  0  0  0  0  0
   61.0552   35.7208   46.4676 H   0  0  0  0  0  0  0  0  0  0  0  0
   62.9413   34.5799   47.5544 H   0  0  0  0  0  0  0  0  0  0  0  0
  1  2  1  0
  2  3  1  0
  3  4  1  0
  4  5  2  0
  5  6  1  0
  6  7  2  0
  7  8  1  0
  8  9  2  0
  9 10  1  0
 10 11  1  0
 11 12  1  0
 12 13  2  0
 12 14  1  0
 14 15  1  0
 15 16  1  0
 16 17  1  0
 17 18  1  0
 18 19  1  0
  9 20  1  0
 20 21  2  0
 21 22  1  0
 22 23  2  0
 23  4  1  0
 22  7  1  0
 19 15  1  0
  1 24  1  0
  1 25  1  0
  1 26  1  0
  2 27  1  0
  2 28  1  0
  5 29  1  0
  6 30  1  0
  8 31  1  0
 11 32  1  0
 11 33  1  0
 15 34  1  0
 16 35  1  0
 16 36  1  0
 17 37  1  0
 17 38  1  0
 18 39  1  0
 18 40  1  0
 19 41  1  0
 19 42  1  0
 20 43  1  0
 21 44  1  0
 23 45  1  0
M  CHG  2   8   1  14  -1
M  END
>  <UniqueID>  (37) 
37

>  <SMILES>  (37) 
CCOc1ccc2[nH+]c(SCC(=O)[N-]C3CCCC3)ccc2c1

>  <Energy>  (37) 
39.95800241311351

>  <Genealogy>  (37) 
CCOc1ccc2[nH+]c(SCC(=O)[N-]C3CCCC3)ccc2c1 (protonated)
CCOc1ccc2[nH+]c(SCC(=O)[N-]C3CCCC3)ccc2c1 (3D coordinates assigned)
CCOc1ccc2[nH+]c(SCC(=O)[N-]C3CCCC3)ccc2c1 (nonaromatic ring conformer: 39.95800241311351 kcal/mol)

>  <smiles>  (37) 
CCOc1ccc2nc(SCC(=O)NC3CCCC3)ccc2c1

>  <score_type>  (37) 
oracle

>  <origin>  (37) 
adg

>  <m_score__min__energy>  (37) 
-7.2800000000000002

>  <m_primary>  (37) 
energy

$$$$
37:0
     RDKit          3D

 56 58  0  0  0  0  0  0  0  0999 V2000
   59.6860   33.5310   50.3810 C   0  0  0  0  0  0  0  0  0  0  0  0
   61.1990   33.5130   50.1650 C   0  0  0  0  0  0  0  0  0  0  0  0
   61.6150   34.2040   48.8480 C   0  0  0  0  0  0  0  0  0  0  0  0
   61.3320   33.3770   47.6420 N   0  0  2  0  0  0  0  0  0  0  0  0
   62.3280   32.2840   47.4960 C   0  0  0  0  0  0  0  0  0  0  0  0
   63.7260   32.7960   47.1290 C   0  0  0  0  0  0  0  0  0  0  0  0
   61.1540   34.2100   46.4160 C   0  0  0  0  0  0  0  0  0  0  0  0
   59.7860   34.9200   46.2380 C   0  0  0  0  0  0  0  0  0  0  0  0
   58.7320   34.5920   47.3120 C   0  0  0  0  0  0  0  0  0  0  0  0
   57.7050   33.6830   46.8010 N   0  0  0  0  0  0  0  0  0  0  0  0
   57.9980   32.6190   45.8720 C   0  0  0  0  0  0  0  0  0  0  0  0
   57.6480   32.7650   44.5220 C   0  0  0  0  0  0  0  0  0  0  0  0
   57.8700   31.7360   43.6150 C   0  0  0  0  0  0  0  0  0  0  0  0
   57.3710   31.9240   41.9430 Cl  0  0  0  0  0  0  0  0  0  0  0  0
   58.4720   30.5510   44.0300 C   0  0  0  0  0  0  0  0  0  0  0  0
   58.8900   30.3730   45.3710 C   0  0  0  0  0  0  0  0  0  0  0  0
   58.6040   31.4090   46.3060 C   0  0  0  0  0  0  0  0  0  0  0  0
   58.9510   31.2130   47.6480 C   0  0  0  0  0  0  0  0  0  0  0  0
   59.4740   29.9970   48.0750 C   0  0  0  0  0  0  0  0  0  0  0  0
   59.7260   29.7860   49.4400 C   0  0  0  0  0  0  0  0  0  0  0  0
   60.1980   28.5540   49.8870 C   0  0  0  0  0  0  0  0  0  0  0  0
   60.4090   27.5190   48.9780 C   0  0  0  0  0  0  0  0  0  0  0  0
   60.1760   27.7190   47.6160 C   0  0  0  0  0  0  0  0  0  0  0  0
   59.7350   28.9770   47.1290 C   0  0  0  0  0  0  0  0  0  0  0  0
   59.5480   29.2230   45.7810 N   0  0  0  0  0  0  0  0  0  0  0  0
   60.0840   28.2770   44.7770 C   0  0  0  0  0  0  0  0  0  0  0  0
   59.4696   33.5336   51.4595 H   0  0  0  0  0  0  0  0  0  0  0  0
   59.2604   34.4343   49.9195 H   0  0  0  0  0  0  0  0  0  0  0  0
   59.2391   32.6381   49.9195 H   0  0  0  0  0  0  0  0  0  0  0  0
   61.6818   34.0341   51.0049 H   0  0  0  0  0  0  0  0  0  0  0  0
   61.5165   32.4614   50.1063 H   0  0  0  0  0  0  0  0  0  0  0  0
   61.0638   35.1519   48.7602 H   0  0  0  0  0  0  0  0  0  0  0  0
   62.7026   34.3636   48.8896 H   0  0  0  0  0  0  0  0  0  0  0  0
   60.4030   32.9140   47.7900 H   0  0  0  0  0  0  0  0  0  0  0  0
   62.3929   31.7386   48.4491 H   0  0  0  0  0  0  0  0  0  0  0  0
   61.9881   31.6350   46.6754 H   0  0  0  0  0  0  0  0  0  0  0  0
   64.2934   33.0038   48.0482 H   0  0  0  0  0  0  0  0  0  0  0  0
   64.2526   32.0324   46.5378 H   0  0  0  0  0  0  0  0  0  0  0  0
   63.6349   33.7191   46.5378 H   0  0  0  0  0  0  0  0  0  0  0  0
   61.9321   34.9874   46.4275 H   0  0  0  0  0  0  0  0  0  0  0  0
   61.2184   33.5008   45.5776 H   0  0  0  0  0  0  0  0  0  0  0  0
   59.9616   36.0058   46.2540 H   0  0  0  0  0  0  0  0  0  0  0  0
   59.3746   34.5552   45.2853 H   0  0  0  0  0  0  0  0  0  0  0  0
   59.2322   34.1190   48.1699 H   0  0  0  0  0  0  0  0  0  0  0  0
   58.2422   35.5306   47.6105 H   0  0  0  0  0  0  0  0  0  0  0  0
   56.7070   33.9670   46.9240 H   0  0  0  0  0  0  0  0  0  0  0  0
   57.1925   33.7049   44.1770 H   0  0  0  0  0  0  0  0  0  0  0  0
   58.6254   29.7393   43.3036 H   0  0  0  0  0  0  0  0  0  0  0  0
   58.8086   32.0288   48.3720 H   0  0  0  0  0  0  0  0  0  0  0  0
   59.5497   30.5982   50.1606 H   0  0  0  0  0  0  0  0  0  0  0  0
   60.4039   28.3983   50.9563 H   0  0  0  0  0  0  0  0  0  0  0  0
   60.7608   26.5399   49.3352 H   0  0  0  0  0  0  0  0  0  0  0  0
   60.3364   26.8902   46.9108 H   0  0  0  0  0  0  0  0  0  0  0  0
   60.5636   27.4305   45.2902 H   0  0  0  0  0  0  0  0  0  0  0  0
   59.2620   27.9059   44.1473 H   0  0  0  0  0  0  0  0  0  0  0  0
   60.8248   28.7914   44.1473 H   0  0  0  0  0  0  0  0  0  0  0  0
  1  2  1  0
  2  3  1  0
  3  4  1  0
  4  5  1  0
  5  6  1  0
  4  7  1  0
  7  8  1  0
  8  9  1  0
  9 10  1  0
 10 11  1  0
 11 12  2  0
 12 13  1  0
 13 14  1  0
 13 15  2  0
 15 16  1  0
 16 17  2  0
 17 18  1  0
 18 19  2  0
 19 20  1  0
 20 21  2  0
 21 22  1  0
 22 23  2  0
 23 24  1  0
 24 25  2  0
 25 26  1  0
 17 11  1  0
 24 19  1  0
 25 16  1  0
  1 27  1  0
  1 28  1  0
  1 29  1  0
  2 30  1  0
  2 31  1  0
  3 32  1  0
  3 33  1  0
  4 34  1  1
  5 35  1  0
  5 36  1  0
  6 37  1  0
  6 38  1  0
  6 39  1  0
  7 40  1  0
  7 41  1  0
  8 42  1  0
  8 43  1  0
  9 44  1  0
  9 45  1  0
 10 46  1  0
 12 47  1  0
 15 48  1  0
 18 49  1  0
 20 50  1  0
 21 51  1  0
 22 52  1  0
 23 53  1  0
 26 54  1  0
 26 55  1  0
 26 56  1  0
M  CHG  2   4   1  25   1
M  END
>  <UniqueID>  (38) 
38

>  <SMILES>  (38) 
CCC[N@H+](CC)CCCNc1cc(Cl)cc2c1cc1ccccc1[n+]2C

>  <Energy>  (38) 
82.72294327094791

>  <Genealogy>  (38) 
CCC[NH+](CC)CCCNc1cc(Cl)cc2c1cc1ccccc1[n+]2C (protonated)
CCC[N@H+](CC)CCCNc1cc(Cl)cc2c1cc1ccccc1[n+]2C (chirality)
CCC[N@H+](CC)CCCNc1cc(Cl)cc2c1cc1ccccc1[n+]2C (3D coordinates assigned)
CCC[N@H+](CC)CCCNc1cc(Cl)cc2c1cc1ccccc1[n+]2C (optimized conformer: 82.72294327094791 kcal/mol)

>  <smiles>  (38) 
CCCN(CC)CCCNc1cc(Cl)cc2c1cc1ccccc1[n+]2C

>  <score_type>  (38) 
oracle

>  <origin>  (38) 
adg

>  <m_score__min__energy>  (38) 
-5.0899999999999999

>  <m_primary>  (38) 
energy

$$$$
38:0
     RDKit          3D

 36 37  0  0  0  0  0  0  0  0999 V2000
   57.1980   33.8090   45.8640 C   0  0  0  0  0  0  0  0  0  0  0  0
   57.9800   33.6440   44.5660 C   0  0  0  0  0  0  0  0  0  0  0  0
   59.2590   34.2660   44.6680 O   0  0  0  0  0  0  0  0  0  0  0  0
   59.8840   34.5580   45.8880 C   0  0  0  0  0  0  0  0  0  0  0  0
   59.7080   35.6820   46.4340 O   0  0  0  0  0  0  0  0  0  0  0  0
   60.7440   33.5440   46.5360 C   0  0  0  0  0  0  0  0  0  0  0  0
   62.0720   33.8470   46.8840 C   0  0  0  0  0  0  0  0  0  0  0  0
   62.8830   32.8830   47.4880 C   0  0  0  0  0  0  0  0  0  0  0  0
   62.3810   31.6080   47.7520 C   0  0  0  0  0  0  0  0  0  0  0  0
   61.0540   31.2850   47.4200 C   0  0  0  0  0  0  0  0  0  0  0  0
   60.5440   29.9580   47.6610 N   0  0  0  0  0  0  0  0  0  0  0  0
   59.8410   29.4910   46.4920 C   0  0  0  0  0  0  0  0  0  0  0  0
   60.4570   28.5960   45.6040 C   0  0  0  0  0  0  0  0  0  0  0  0
   59.7630   28.1200   44.4920 C   0  0  0  0  0  0  0  0  0  0  0  0
   58.4470   28.5230   44.2520 C   0  0  0  0  0  0  0  0  0  0  0  0
   57.8090   28.0340   43.1580 F   0  0  0  0  0  0  0  0  0  0  0  0
   57.8030   29.4150   45.1370 C   0  0  0  0  0  0  0  0  0  0  0  0
   56.4430   29.8410   44.9160 N   0  0  0  0  0  0  0  0  0  0  0  0
   55.4970   29.0270   44.9650 O   0  0  0  0  0  0  0  0  0  0  0  0
   56.1610   31.1610   44.6460 O   0  0  0  0  0  0  0  0  0  0  0  0
   58.5130   29.8890   46.2550 C   0  0  0  0  0  0  0  0  0  0  0  0
   60.2430   32.2580   46.8070 C   0  0  0  0  0  0  0  0  0  0  0  0
   57.8740   33.6664   46.7200 H   0  0  0  0  0  0  0  0  0  0  0  0
   56.7633   34.8186   45.9043 H   0  0  0  0  0  0  0  0  0  0  0  0
   56.3924   33.0610   45.9043 H   0  0  0  0  0  0  0  0  0  0  0  0
   58.1148   32.5721   44.3590 H   0  0  0  0  0  0  0  0  0  0  0  0
   57.4176   34.1214   43.7501 H   0  0  0  0  0  0  0  0  0  0  0  0
   62.4752   34.8498   46.6794 H   0  0  0  0  0  0  0  0  0  0  0  0
   63.9208   33.1299   47.7564 H   0  0  0  0  0  0  0  0  0  0  0  0
   63.0270   30.8520   48.2223 H   0  0  0  0  0  0  0  0  0  0  0  0
   59.9050   29.9650   48.4910 H   0  0  0  0  0  0  0  0  0  0  0  0
   61.3300   29.3060   47.8940 H   0  0  0  0  0  0  0  0  0  0  0  0
   61.4913   28.2686   45.7857 H   0  0  0  0  0  0  0  0  0  0  0  0
   60.2553   27.4221   43.7988 H   0  0  0  0  0  0  0  0  0  0  0  0
   58.0221   30.5815   46.9546 H   0  0  0  0  0  0  0  0  0  0  0  0
   59.2059   32.0101   46.5368 H   0  0  0  0  0  0  0  0  0  0  0  0
  1  2  1  0
  2  3  1  0
  3  4  1  0
  4  5  2  0
  4  6  1  0
  6  7  2  0
  7  8  1  0
  8  9  2  0
  9 10  1  0
 10 11  1  0
 11 12  1  0
 12 13  2  0
 13 14  1  0
 14 15  2  0
 15 16  1  0
 15 17  1  0
 17 18  1  0
 18 19  2  0
 18 20  1  0
 17 21  2  0
 10 22  2  0
 22  6  1  0
 21 12  1  0
  1 23  1  0
  1 24  1  0
  1 25  1  0
  2 26  1  0
  2 27  1  0
  7 28  1  0
  8 29  1  0
  9 30  1  0
 11 31  1  0
 11 32  1  0
 13 33  1  0
 14 34  1  0
 21 35  1  0
 22 36  1  0
M  CHG  3  11   1  18   1  20  -1
M  END
>  <UniqueID>  (39) 
39

>  <SMILES>  (39) 
CCOC(=O)c1cccc([NH2+]c2ccc(F)c([N+](=O)[O-])c2)c1

>  <Energy>  (39) 
36.88512112591114

>  <Genealogy>  (39) 
CCOC(=O)c1cccc([NH2+]c2ccc(F)c([N+](=O)[O-])c2)c1 (protonated)
CCOC(=O)c1cccc([NH2+]c2ccc(F)c([N+](=O)[O-])c2)c1 (3D coordinates assigned)
CCOC(=O)c1cccc([NH2+]c2ccc(F)c([N+](=O)[O-])c2)c1 (optimized conformer: 36.88512112591114 kcal/mol)

>  <smiles>  (39) 
CCOC(=O)c1cccc(Nc2ccc(F)c([N+](=O)[O-])c2)c1

>  <score_type>  (39) 
oracle

>  <origin>  (39) 
adg

>  <m_score__min__energy>  (39) 
-5.8200000000000003

>  <m_primary>  (39) 
energy

$$$$
39:0
     RDKit          3D

 36 36  0  0  0  0  0  0  0  0999 V2000
   57.4310   33.4560   46.0300 C   0  0  0  0  0  0  0  0  0  0  0  0
   57.4250   33.5090   44.4950 C   0  0  0  0  0  0  0  0  0  0  0  0
   57.4540   32.1730   43.8530 N   0  0  0  0  0  0  0  0  0  0  0  0
   58.1720   32.1770   42.5610 C   0  0  0  0  0  0  0  0  0  0  0  0
   57.2010   32.3790   41.4010 C   0  0  0  0  0  0  0  0  0  0  0  0
   57.8960   31.0990   44.7740 C   0  0  0  0  0  0  0  0  0  0  0  0
   58.1030   29.8100   43.9820 C   0  0  0  0  0  0  0  0  0  0  0  0
   57.1160   28.4940   44.6680 S   0  0  0  0  0  0  0  0  0  0  0  0
   55.6110   29.0470   45.1640 O   0  0  0  0  0  0  0  0  0  0  0  0
   57.9460   27.6800   45.9860 C   0  0  0  0  0  0  0  0  0  0  0  0
   59.1750   28.1470   46.3360 N   0  0  0  0  0  0  0  0  0  0  0  0
   59.9270   27.5600   47.3010 C   0  0  0  0  0  0  0  0  0  0  0  0
   59.4530   26.4310   47.9620 C   0  0  0  0  0  0  0  0  0  0  0  0
   58.2000   25.9200   47.6270 C   0  0  0  0  0  0  0  0  0  0  0  0
   57.4150   26.5370   46.6360 C   0  0  0  0  0  0  0  0  0  0  0  0
   56.0820   25.9620   46.3150 C   0  0  0  0  0  0  0  0  0  0  0  0
   55.1340   26.7180   45.9760 O   0  0  0  0  0  0  0  0  0  0  0  0
   55.8610   24.5910   46.3450 O   0  0  0  0  0  0  0  0  0  0  0  0
   57.3158   34.4732   46.4325 H   0  0  0  0  0  0  0  0  0  0  0  0
   56.5983   32.8274   46.3784 H   0  0  0  0  0  0  0  0  0  0  0  0
   58.3832   33.0295   46.3784 H   0  0  0  0  0  0  0  0  0  0  0  0
   56.5135   34.0314   44.1690 H   0  0  0  0  0  0  0  0  0  0  0  0
   58.3417   34.0336   44.1876 H   0  0  0  0  0  0  0  0  0  0  0  0
   58.9089   32.9937   42.5606 H   0  0  0  0  0  0  0  0  0  0  0  0
   58.6749   31.2069   42.4345 H   0  0  0  0  0  0  0  0  0  0  0  0
   56.1960   32.5881   41.7963 H   0  0  0  0  0  0  0  0  0  0  0  0
   57.5365   33.2266   40.7853 H   0  0  0  0  0  0  0  0  0  0  0  0
   57.1707   31.4679   40.7853 H   0  0  0  0  0  0  0  0  0  0  0  0
   58.8418   31.3919   45.2533 H   0  0  0  0  0  0  0  0  0  0  0  0
   57.1305   30.9379   45.5473 H   0  0  0  0  0  0  0  0  0  0  0  0
   57.8082   29.9764   42.9354 H   0  0  0  0  0  0  0  0  0  0  0  0
   59.1641   29.5251   44.0351 H   0  0  0  0  0  0  0  0  0  0  0  0
   55.1470   28.2380   45.4960 H   0  0  0  0  0  0  0  0  0  0  0  0
   60.9113   27.9767   47.5607 H   0  0  0  0  0  0  0  0  0  0  0  0
   60.0606   25.9468   48.7407 H   0  0  0  0  0  0  0  0  0  0  0  0
   57.8213   25.0253   48.1428 H   0  0  0  0  0  0  0  0  0  0  0  0
  1  2  1  0
  2  3  1  0
  3  4  1  0
  4  5  1  0
  3  6  1  0
  6  7  1  0
  7  8  1  0
  8  9  1  1
  8 10  1  0
 10 11  2  0
 11 12  1  0
 12 13  2  0
 13 14  1  0
 14 15  2  0
 15 16  1  0
 16 17  2  0
 16 18  1  0
 15 10  1  0
  1 19  1  0
  1 20  1  0
  1 21  1  0
  2 22  1  0
  2 23  1  0
  4 24  1  0
  4 25  1  0
  5 26  1  0
  5 27  1  0
  5 28  1  0
  6 29  1  0
  6 30  1  0
  7 31  1  0
  7 32  1  0
  9 33  1  0
 12 34  1  0
 13 35  1  0
 14 36  1  0
M  CHG  2   8   1  18  -1
M  END
>  <UniqueID>  (40) 
40

>  <SMILES>  (40) 
CCN(CC)CC[S@+](O)c1ncccc1C(=O)[O-]

>  <Energy>  (40) 
33.68978859181269

>  <Genealogy>  (40) 
CCN(CC)CC[S+](O)c1ncccc1C(=O)[O-] (protonated)
CCN(CC)CC[S@+](O)c1ncccc1C(=O)[O-] (chirality)
CCN(CC)CC[S@+](O)c1ncccc1C(=O)[O-] (3D coordinates assigned)
CCN(CC)CC[S@+](O)c1ncccc1C(=O)[O-] (optimized conformer: 33.68978859181269 kcal/mol)

>  <smiles>  (40) 
CCN(CC)CC[S+]([O-])c1ncccc1C(=O)O

>  <score_type>  (40) 
oracle

>  <origin>  (40) 
adg

>  <m_score__min__energy>  (40) 
-7.2699999999999996

>  <m_primary>  (40) 
energy

$$$$
40:0
     RDKit          3D

 59 62  0  0  0  0  0  0  0  0999 V2000
   59.7860   35.8140   46.1860 O   0  0  0  0  0  0  0  0  0  0  0  0
   59.3900   34.9020   46.9590 C   0  0  0  0  0  0  0  0  0  0  0  0
   60.0370   34.5880   48.1720 N   0  0  0  0  0  0  0  0  0  0  0  0
   59.3030   33.4760   48.7690 C   0  0  0  0  0  0  0  0  0  0  0  0
   58.1660   33.1140   47.7810 C   0  0  0  0  0  0  0  0  0  0  0  0
   58.2750   34.0790   46.6970 N   0  0  0  0  0  0  0  0  0  0  0  0
   57.4560   34.0900   45.4850 C   0  0  0  0  0  0  0  0  0  0  0  0
   57.0920   32.6620   45.0560 C   0  0  0  0  0  0  0  0  0  0  0  0
   58.0810   32.0960   44.1240 N   0  0  0  0  0  0  0  0  0  0  0  0
   57.5040   31.2890   43.0340 C   0  0  0  0  0  0  0  0  0  0  0  0
   56.5380   30.1740   43.4930 C   0  0  0  0  0  0  0  0  0  0  0  0
   57.1790   29.0300   44.3080 C   0  0  0  0  0  0  0  0  0  0  0  0
   58.3880   29.4220   45.0530 N   0  0  0  0  0  0  0  0  0  0  0  0
   59.3630   28.3300   45.1660 C   0  0  0  0  0  0  0  0  0  0  0  0
   59.5610   27.9700   46.6400 C   0  0  0  0  0  0  0  0  0  0  0  0
   59.0960   29.1070   47.5560 C   0  0  0  0  0  0  0  0  0  0  0  0
   60.2410   29.9370   47.9580 N   0  0  0  0  0  0  0  0  0  0  0  0
   60.6850   31.0210   47.1190 C   0  0  0  0  0  0  0  0  0  0  0  0
   60.1060   31.2490   46.0200 O   0  0  0  0  0  0  0  0  0  0  0  0
   61.8190   31.8720   47.5480 C   0  0  0  0  0  0  0  0  0  0  0  0
   62.2830   32.9120   46.7230 C   0  0  0  0  0  0  0  0  0  0  0  0
   63.3510   33.7130   47.1260 C   0  0  0  0  0  0  0  0  0  0  0  0
   63.9730   33.4930   48.3540 C   0  0  0  0  0  0  0  0  0  0  0  0
   63.5280   32.4630   49.1960 C   0  0  0  0  0  0  0  0  0  0  0  0
   64.1500   32.2430   50.4330 C   0  0  0  0  0  0  0  0  0  0  0  0
   63.7060   31.2210   51.2710 C   0  0  0  0  0  0  0  0  0  0  0  0
   62.6390   30.4080   50.8850 C   0  0  0  0  0  0  0  0  0  0  0  0
   61.9990   30.6070   49.6490 C   0  0  0  0  0  0  0  0  0  0  0  0
   62.4430   31.6410   48.7940 C   0  0  0  0  0  0  0  0  0  0  0  0
   60.8670   29.7430   49.2410 C   0  0  0  0  0  0  0  0  0  0  0  0
   60.4520   28.8400   50.0180 O   0  0  0  0  0  0  0  0  0  0  0  0
   59.9708   32.6136   48.9115 H   0  0  0  0  0  0  0  0  0  0  0  0
   58.8992   33.7512   49.7545 H   0  0  0  0  0  0  0  0  0  0  0  0
   58.2983   32.0906   47.4001 H   0  0  0  0  0  0  0  0  0  0  0  0
   57.1779   33.1498   48.2631 H   0  0  0  0  0  0  0  0  0  0  0  0
   56.5319   34.6539   45.6801 H   0  0  0  0  0  0  0  0  0  0  0  0
   58.0320   34.5635   44.6763 H   0  0  0  0  0  0  0  0  0  0  0  0
   57.0422   32.0244   45.9510 H   0  0  0  0  0  0  0  0  0  0  0  0
   56.1217   32.6999   44.5392 H   0  0  0  0  0  0  0  0  0  0  0  0
   58.7740   31.5280   44.6610 H   0  0  0  0  0  0  0  0  0  0  0  0
   56.9526   31.9645   42.3634 H   0  0  0  0  0  0  0  0  0  0  0  0
   58.3487   30.7834   42.5433 H   0  0  0  0  0  0  0  0  0  0  0  0
   55.7579   30.6370   44.1152 H   0  0  0  0  0  0  0  0  0  0  0  0
   56.1550   29.7097   42.5723 H   0  0  0  0  0  0  0  0  0  0  0  0
   56.4344   28.6609   45.0287 H   0  0  0  0  0  0  0  0  0  0  0  0
   57.4894   28.2621   43.5841 H   0  0  0  0  0  0  0  0  0  0  0  0
   58.8410   30.2480   44.5960 H   0  0  0  0  0  0  0  0  0  0  0  0
   58.9918   27.4497   44.6207 H   0  0  0  0  0  0  0  0  0  0  0  0
   60.3231   28.6512   44.7360 H   0  0  0  0  0  0  0  0  0  0  0  0
   58.9802   27.0644   46.8692 H   0  0  0  0  0  0  0  0  0  0  0  0
   60.6333   27.7982   46.8153 H   0  0  0  0  0  0  0  0  0  0  0  0
   58.3662   29.7306   47.0189 H   0  0  0  0  0  0  0  0  0  0  0  0
   58.6324   28.6758   48.4555 H   0  0  0  0  0  0  0  0  0  0  0  0
   61.7996   33.0951   45.7520 H   0  0  0  0  0  0  0  0  0  0  0  0
   63.7046   34.5230   46.4712 H   0  0  0  0  0  0  0  0  0  0  0  0
   64.8153   34.1290   48.6637 H   0  0  0  0  0  0  0  0  0  0  0  0
   64.9918   32.8793   50.7437 H   0  0  0  0  0  0  0  0  0  0  0  0
   64.1986   31.0547   52.2404 H   0  0  0  0  0  0  0  0  0  0  0  0
   62.2959   29.6047   51.5536 H   0  0  0  0  0  0  0  0  0  0  0  0
  1  2  2  0
  2  3  1  0
  3  4  1  0
  4  5  1  0
  5  6  1  0
  6  7  1  0
  7  8  1  0
  8  9  1  0
  9 10  1  0
 10 11  1  0
 11 12  1  0
 12 13  1  0
 13 14  1  0
 14 15  1  0
 15 16  1  0
 16 17  1  0
 17 18  1  0
 18 19  2  0
 18 20  1  0
 20 21  2  0
 21 22  1  0
 22 23  2  0
 23 24  1  0
 24 25  2  0
 25 26  1  0
 26 27  2  0
 27 28  1  0
 28 29  2  0
 28 30  1  0
 30 31  2  0
  6  2  1  0
 30 17  1  0
 29 20  1  0
 29 24  1  0
  4 32  1  0
  4 33  1  0
  5 34  1  0
  5 35  1  0
  7 36  1  0
  7 37  1  0
  8 38  1  0
  8 39  1  0
  9 40  1  0
 10 41  1  0
 10 42  1  0
 11 43  1  0
 11 44  1  0
 12 45  1  0
 12 46  1  0
 13 47  1  0
 14 48  1  0
 14 49  1  0
 15 50  1  0
 15 51  1  0
 16 52  1  0
 16 53  1  0
 21 54  1  0
 22 55  1  0
 23 56  1  0
 25 57  1  0
 26 58  1  0
 27 59  1  0
M  CHG  1   3  -1
M  END
>  <UniqueID>  (41) 
41

>  <SMILES>  (41) 
O=C1[N-]CCN1CCNCCCNCCCN1C(=O)c2cccc3cccc(c23)C1=O

>  <Energy>  (41) 
73.99896387991295

>  <Genealogy>  (41) 
O=C1[N-]CCN1CCNCCCNCCCN1C(=O)c2cccc3cccc(c23)C1=O (protonated)
O=C1[N-]CCN1CCNCCCNCCCN1C(=O)c2cccc3cccc(c23)C1=O (3D coordinates assigned)
O=C1[N-]CCN1CCNCCCNCCCN1C(=O)c2cccc3cccc(c23)C1=O (nonaromatic ring conformer: 73.99896387991295 kcal/mol)

>  <smiles>  (41) 
O=C1NCCN1CCNCCCNCCCN1C(=O)c2cccc3cccc(c23)C1=O

>  <score_type>  (41) 
oracle

>  <origin>  (41) 
adg

>  <m_score__min__energy>  (41) 
-11.619999999999999

>  <m_primary>  (41) 
energy

$$$$
41:0
     RDKit          3D

 34 36  0  0  0  0  0  0  0  0999 V2000
   63.4380   31.9730   48.6340 C   0  0  0  0  0  0  0  0  0  0  0  0
   63.3340   33.4340   48.4730 N   0  0  0  0  0  0  0  0  0  0  0  0
   63.3490   33.8330   47.0520 C   0  0  0  0  0  0  0  0  0  0  0  0
   62.0220   33.6320   46.3650 C   0  0  0  0  0  0  0  0  0  0  0  0
   60.8600   33.6010   47.0380 C   0  0  0  0  0  0  0  0  0  0  0  0
   59.5780   33.5010   46.2980 C   0  0  0  0  0  0  0  0  0  0  0  0
   58.9390   34.6580   45.7960 C   0  0  0  0  0  0  0  0  0  0  0  0
   57.7170   34.5620   45.0960 C   0  0  0  0  0  0  0  0  0  0  0  0
   57.1160   33.3120   44.8760 C   0  0  0  0  0  0  0  0  0  0  0  0
   57.7670   32.1830   45.3630 C   0  0  0  0  0  0  0  0  0  0  0  0
   57.3880   30.9340   45.2440 O   0  0  0  0  0  0  0  0  0  0  0  0
   58.3070   30.1870   45.8260 C   0  0  0  0  0  0  0  0  0  0  0  0
   58.2260   28.7000   45.9240 C   0  0  0  0  0  0  0  0  0  0  0  0
   58.1880   27.9330   44.1480 Br  0  0  0  0  0  0  0  0  0  0  0  0
   59.3240   30.9740   46.3530 C   0  0  0  0  0  0  0  0  0  0  0  0
   58.9520   32.2680   46.0490 C   0  0  0  0  0  0  0  0  0  0  0  0
   60.8390   33.5340   48.5460 C   0  0  0  0  0  0  0  0  0  0  0  0
   62.1630   33.9970   49.1710 C   0  0  0  0  0  0  0  0  0  0  0  0
   63.4558   31.7225   49.7049 H   0  0  0  0  0  0  0  0  0  0  0  0
   62.5720   31.4892   48.1586 H   0  0  0  0  0  0  0  0  0  0  0  0
   64.3638   31.6167   48.1586 H   0  0  0  0  0  0  0  0  0  0  0  0
   63.6167   34.8982   46.9907 H   0  0  0  0  0  0  0  0  0  0  0  0
   64.0825   33.1927   46.5402 H   0  0  0  0  0  0  0  0  0  0  0  0
   62.0049   33.5061   45.2724 H   0  0  0  0  0  0  0  0  0  0  0  0
   59.3995   35.6446   45.9528 H   0  0  0  0  0  0  0  0  0  0  0  0
   57.2312   35.4743   44.7195 H   0  0  0  0  0  0  0  0  0  0  0  0
   56.1613   33.2282   44.3360 H   0  0  0  0  0  0  0  0  0  0  0  0
   59.1037   28.3207   46.4678 H   0  0  0  0  0  0  0  0  0  0  0  0
   57.3091   28.4190   46.4628 H   0  0  0  0  0  0  0  0  0  0  0  0
   60.2234   30.6406   46.8914 H   0  0  0  0  0  0  0  0  0  0  0  0
   60.0287   34.1788   48.9170 H   0  0  0  0  0  0  0  0  0  0  0  0
   60.6818   32.4838   48.8329 H   0  0  0  0  0  0  0  0  0  0  0  0
   62.2141   35.0947   49.1205 H   0  0  0  0  0  0  0  0  0  0  0  0
   62.1875   33.6433   50.2123 H   0  0  0  0  0  0  0  0  0  0  0  0
  1  2  1  0
  2  3  1  0
  3  4  1  0
  4  5  2  0
  5  6  1  0
  6  7  2  0
  7  8  1  0
  8  9  2  0
  9 10  1  0
 10 11  1  0
 11 12  1  0
 12 13  1  0
 13 14  1  0
 12 15  2  0
 15 16  1  0
  5 17  1  0
 17 18  1  0
 18  2  1  0
 16  6  1  0
 16 10  2  0
  1 19  1  0
  1 20  1  0
  1 21  1  0
  3 22  1  0
  3 23  1  0
  4 24  1  0
  7 25  1  0
  8 26  1  0
  9 27  1  0
 13 28  1  0
 13 29  1  0
 15 30  1  0
 17 31  1  0
 17 32  1  0
 18 33  1  0
 18 34  1  0
M  END
>  <UniqueID>  (42) 
42

>  <SMILES>  (42) 
CN1CC=C(c2cccc3oc(CBr)cc23)CC1

>  <Energy>  (42) 
76.22140696055352

>  <Genealogy>  (42) 
CN1CC=C(c2cccc3oc(CBr)cc23)CC1 (3D coordinates assigned)
CN1CC=C(c2cccc3oc(CBr)cc23)CC1 (nonaromatic ring conformer: 76.22140696055352 kcal/mol)

>  <smiles>  (42) 
CN1CC=C(c2cccc3oc(CBr)cc23)CC1

>  <score_type>  (42) 
oracle

>  <origin>  (42) 
adg

>  <m_score__min__energy>  (42) 
-7.4000000000000004

>  <m_primary>  (42) 
energy

$$$$
42:0
     RDKit          3D

 43 46  0  0  0  0  0  0  0  0999 V2000
   66.5230   33.4450   50.5070 C   0  0  0  0  0  0  0  0  0  0  0  0
   65.5480   32.4840   49.8360 C   0  0  0  0  0  0  0  0  0  0  0  0
   64.2150   33.1380   49.6440 C   0  0  0  0  0  0  0  0  0  0  0  0
   63.3450   32.7970   48.6700 N   0  0  0  0  0  0  0  0  0  0  0  0
   62.3510   33.6920   48.8700 C   0  0  0  0  0  0  0  0  0  0  0  0
   61.1190   33.7600   48.0610 C   0  0  0  0  0  0  0  0  0  0  0  0
   61.1650   34.1690   46.7180 C   0  0  0  0  0  0  0  0  0  0  0  0
   59.9930   34.2320   45.9570 C   0  0  0  0  0  0  0  0  0  0  0  0
   58.7550   33.8870   46.5290 C   0  0  0  0  0  0  0  0  0  0  0  0
   57.5530   33.9320   45.8070 O   0  0  0  0  0  0  0  0  0  0  0  0
   57.3940   33.4490   44.4760 C   0  0  0  0  0  0  0  0  0  0  0  0
   57.4520   31.9530   44.4810 C   0  0  0  0  0  0  0  0  0  0  0  0
   57.0210   31.2210   43.3660 C   0  0  0  0  0  0  0  0  0  0  0  0
   57.0650   29.8260   43.3960 C   0  0  0  0  0  0  0  0  0  0  0  0
   57.5400   29.1690   44.5390 C   0  0  0  0  0  0  0  0  0  0  0  0
   57.5970   27.7690   44.6050 C   0  0  0  0  0  0  0  0  0  0  0  0
   58.0770   27.1440   45.7610 C   0  0  0  0  0  0  0  0  0  0  0  0
   58.5010   27.9110   46.8510 C   0  0  0  0  0  0  0  0  0  0  0  0
   58.4460   29.3070   46.7940 C   0  0  0  0  0  0  0  0  0  0  0  0
   57.9670   29.9420   45.6430 C   0  0  0  0  0  0  0  0  0  0  0  0
   57.9090   31.2990   45.5840 N   0  0  0  0  0  0  0  0  0  0  0  0
   58.7110   33.4810   47.8680 C   0  0  0  0  0  0  0  0  0  0  0  0
   59.8810   33.4160   48.6290 C   0  0  0  0  0  0  0  0  0  0  0  0
   62.6210   34.5000   49.8720 O   0  0  0  0  0  0  0  0  0  0  0  0
   63.7750   34.1810   50.3680 N   0  0  0  0  0  0  0  0  0  0  0  0
   66.4324   33.3557   51.5996 H   0  0  0  0  0  0  0  0  0  0  0  0
   67.5505   33.1967   50.2028 H   0  0  0  0  0  0  0  0  0  0  0  0
   66.2896   34.4760   50.2028 H   0  0  0  0  0  0  0  0  0  0  0  0
   65.9497   32.1865   48.8561 H   0  0  0  0  0  0  0  0  0  0  0  0
   65.4212   31.6001   50.4783 H   0  0  0  0  0  0  0  0  0  0  0  0
   62.1283   34.4413   46.2620 H   0  0  0  0  0  0  0  0  0  0  0  0
   60.0397   34.5530   44.9059 H   0  0  0  0  0  0  0  0  0  0  0  0
   56.4218   33.7775   44.0798 H   0  0  0  0  0  0  0  0  0  0  0  0
   58.2000   33.8464   43.8416 H   0  0  0  0  0  0  0  0  0  0  0  0
   56.6499   31.7432   42.4718 H   0  0  0  0  0  0  0  0  0  0  0  0
   56.7279   29.2444   42.5253 H   0  0  0  0  0  0  0  0  0  0  0  0
   57.2647   27.1633   43.7490 H   0  0  0  0  0  0  0  0  0  0  0  0
   58.1211   26.0461   45.8128 H   0  0  0  0  0  0  0  0  0  0  0  0
   58.8792   27.4141   47.7566 H   0  0  0  0  0  0  0  0  0  0  0  0
   58.7794   29.9061   47.6542 H   0  0  0  0  0  0  0  0  0  0  0  0
   57.7474   33.2109   48.3248 H   0  0  0  0  0  0  0  0  0  0  0  0
   59.8324   33.0934   49.6795 H   0  0  0  0  0  0  0  0  0  0  0  0
   64.2510   34.6590   51.1640 H   0  0  0  0  0  0  0  0  0  0  0  0
  1  2  1  0
  2  3  1  0
  3  4  1  0
  4  5  2  0
  5  6  1  0
  6  7  2  0
  7  8  1  0
  8  9  2  0
  9 10  1  0
 10 11  1  0
 11 12  1  0
 12 13  2  0
 13 14  1  0
 14 15  2  0
 15 16  1  0
 16 17  2  0
 17 18  1  0
 18 19  2  0
 19 20  1  0
 20 21  2  0
  9 22  1  0
 22 23  2  0
  5 24  1  0
 24 25  1  0
 25  3  2  0
 23  6  1  0
 21 12  1  0
 20 15  1  0
  1 26  1  0
  1 27  1  0
  1 28  1  0
  2 29  1  0
  2 30  1  0
  7 31  1  0
  8 32  1  0
 11 33  1  0
 11 34  1  0
 13 35  1  0
 14 36  1  0
 16 37  1  0
 17 38  1  0
 18 39  1  0
 19 40  1  0
 22 41  1  0
 23 42  1  0
 25 43  1  0
M  CHG  1  25   1
M  END
>  <UniqueID>  (43) 
43

>  <SMILES>  (43) 
CCc1nc(-c2ccc(OCc3ccc4ccccc4n3)cc2)o[nH+]1

>  <Energy>  (43) 
79.44702042271246

>  <Genealogy>  (43) 
CCc1nc(-c2ccc(OCc3ccc4ccccc4n3)cc2)o[nH+]1 (protonated)
CCc1nc(-c2ccc(OCc3ccc4ccccc4n3)cc2)o[nH+]1 (3D coordinates assigned)
CCc1nc(-c2ccc(OCc3ccc4ccccc4n3)cc2)o[nH+]1 (optimized conformer: 79.44702042271246 kcal/mol)

>  <smiles>  (43) 
CCc1noc(-c2ccc(OCc3ccc4ccccc4n3)cc2)n1

>  <score_type>  (43) 
oracle

>  <origin>  (43) 
adg

>  <m_score__min__energy>  (43) 
-7.2199999999999998

>  <m_primary>  (43) 
energy

$$$$
43:0
     RDKit          3D

 29 30  0  0  0  0  0  0  0  0999 V2000
   58.1620   27.2560   43.1880 C   0  0  0  0  0  0  0  0  0  0  0  0
   57.7440   26.0910   44.0760 C   0  0  0  0  0  0  0  0  0  0  0  0
   57.5830   26.6180   45.8170 S   0  0  0  0  0  0  0  0  0  0  0  0
   57.2040   28.3350   45.4350 C   0  0  0  0  0  0  0  0  0  0  0  0
   55.9950   28.7530   45.0330 N   0  0  0  0  0  0  0  0  0  0  0  0
   56.0530   30.0620   44.8520 N   0  0  0  0  0  0  0  0  0  0  0  0
   57.3090   30.4360   45.1700 C   0  0  0  0  0  0  0  0  0  0  0  0
   57.7580   31.8360   45.0650 C   0  0  0  0  0  0  0  0  0  0  0  0
   58.1260   32.5230   43.9120 C   0  0  0  0  0  0  0  0  0  0  0  0
   58.5680   33.8270   44.1620 C   0  0  0  0  0  0  0  0  0  0  0  0
   58.5670   34.1700   45.5070 C   0  0  0  0  0  0  0  0  0  0  0  0
   58.0220   32.8450   46.3840 S   0  0  0  0  0  0  0  0  0  0  0  0
   58.0660   29.3700   45.5390 N   0  0  0  0  0  0  0  0  0  0  0  0
   59.5000   29.3050   45.8530 C   0  0  0  0  0  0  0  0  0  0  0  0
   59.7280   28.8530   47.2940 C   0  0  0  0  0  0  0  0  0  0  0  0
   58.4668   28.1055   43.8169 H   0  0  0  0  0  0  0  0  0  0  0  0
   59.0059   26.9486   42.5529 H   0  0  0  0  0  0  0  0  0  0  0  0
   57.3152   27.5552   42.5529 H   0  0  0  0  0  0  0  0  0  0  0  0
   56.7759   25.7024   43.7271 H   0  0  0  0  0  0  0  0  0  0  0  0
   58.5172   25.3109   44.0167 H   0  0  0  0  0  0  0  0  0  0  0  0
   55.1440   28.1680   44.8790 H   0  0  0  0  0  0  0  0  0  0  0  0
   58.0746   32.0846   42.9044 H   0  0  0  0  0  0  0  0  0  0  0  0
   58.8867   34.5164   43.3663 H   0  0  0  0  0  0  0  0  0  0  0  0
   58.8704   35.1408   45.9258 H   0  0  0  0  0  0  0  0  0  0  0  0
   59.9849   28.5905   45.1715 H   0  0  0  0  0  0  0  0  0  0  0  0
   59.9302   30.3099   45.7301 H   0  0  0  0  0  0  0  0  0  0  0  0
   59.3421   29.6181   47.9837 H   0  0  0  0  0  0  0  0  0  0  0  0
   59.2012   27.9032   47.4681 H   0  0  0  0  0  0  0  0  0  0  0  0
   60.8050   28.7122   47.4681 H   0  0  0  0  0  0  0  0  0  0  0  0
  1  2  1  0
  2  3  1  0
  3  4  1  0
  4  5  2  0
  5  6  1  0
  6  7  2  0
  7  8  1  0
  8  9  2  0
  9 10  1  0
 10 11  2  0
 11 12  1  0
  7 13  1  0
 13 14  1  0
 14 15  1  0
 13  4  1  0
 12  8  1  0
  1 16  1  0
  1 17  1  0
  1 18  1  0
  2 19  1  0
  2 20  1  0
  5 21  1  0
  9 22  1  0
 10 23  1  0
 11 24  1  0
 14 25  1  0
 14 26  1  0
 15 27  1  0
 15 28  1  0
 15 29  1  0
M  CHG  1   5   1
M  END
>  <UniqueID>  (44) 
44

>  <SMILES>  (44) 
CCSc1[nH+]nc(-c2cccs2)n1CC

>  <Energy>  (44) 
85.02565084430523

>  <Genealogy>  (44) 
CCSc1[nH+]nc(-c2cccs2)n1CC (protonated)
CCSc1[nH+]nc(-c2cccs2)n1CC (3D coordinates assigned)
CCSc1[nH+]nc(-c2cccs2)n1CC (optimized conformer: 85.02565084430523 kcal/mol)

>  <smiles>  (44) 
CCSc1nnc(-c2cccs2)n1CC

>  <score_type>  (44) 
oracle

>  <origin>  (44) 
adg

>  <m_score__min__energy>  (44) 
-4.7599999999999998

>  <m_primary>  (44) 
energy

$$$$
44:0
     RDKit          3D

 49 52  0  0  0  0  0  0  0  0999 V2000
   66.8150   32.6990   50.1620 C   0  0  0  0  0  0  0  0  0  0  0  0
   65.5140   32.8920   50.7060 O   0  0  0  0  0  0  0  0  0  0  0  0
   64.3530   33.0600   49.9360 C   0  0  0  0  0  0  0  0  0  0  0  0
   64.1770   32.2480   48.8100 C   0  0  0  0  0  0  0  0  0  0  0  0
   63.0320   32.3700   48.0180 C   0  0  0  0  0  0  0  0  0  0  0  0
   62.0410   33.3040   48.3470 C   0  0  0  0  0  0  0  0  0  0  0  0
   60.8320   33.4440   47.5150 C   0  0  0  0  0  0  0  0  0  0  0  0
   60.7640   34.2340   46.3710 C   0  0  0  0  0  0  0  0  0  0  0  0
   59.4550   34.1530   45.9530 C   0  0  0  0  0  0  0  0  0  0  0  0
   58.8150   34.7730   44.8810 C   0  0  0  0  0  0  0  0  0  0  0  0
   57.4350   34.5510   44.7220 C   0  0  0  0  0  0  0  0  0  0  0  0
   56.7350   33.7320   45.6350 C   0  0  0  0  0  0  0  0  0  0  0  0
   57.4080   33.1220   46.7100 C   0  0  0  0  0  0  0  0  0  0  0  0
   58.7840   33.3460   46.8360 C   0  0  0  0  0  0  0  0  0  0  0  0
   59.6190   32.8920   47.7970 N   0  0  0  0  0  0  0  0  0  0  0  0
   59.2340   32.1470   49.0030 C   0  0  0  0  0  0  0  0  0  0  0  0
   59.2400   30.6690   48.7510 C   0  0  0  0  0  0  0  0  0  0  0  0
   59.8420   29.8880   49.5380 O   0  0  0  0  0  0  0  0  0  0  0  0
   58.6100   30.1590   47.5730 N   0  0  0  0  0  0  0  0  0  0  0  0
   59.3600   29.6830   46.4200 C   0  0  0  0  0  0  0  0  0  0  0  0
   58.4780   29.7110   45.2060 C   0  0  0  0  0  0  0  0  0  0  0  0
   58.1490   30.9280   44.5950 C   0  0  0  0  0  0  0  0  0  0  0  0
   57.2970   30.9450   43.4890 C   0  0  0  0  0  0  0  0  0  0  0  0
   56.7720   29.7430   43.0120 C   0  0  0  0  0  0  0  0  0  0  0  0
   57.0770   28.5700   43.6310 N   0  0  0  0  0  0  0  0  0  0  0  0
   57.9020   28.5290   44.7120 C   0  0  0  0  0  0  0  0  0  0  0  0
   62.2250   34.1380   49.4590 C   0  0  0  0  0  0  0  0  0  0  0  0
   63.3680   34.0150   50.2550 C   0  0  0  0  0  0  0  0  0  0  0  0
   67.5423   32.5911   50.9802 H   0  0  0  0  0  0  0  0  0  0  0  0
   66.8223   31.7899   49.5427 H   0  0  0  0  0  0  0  0  0  0  0  0
   67.0859   33.5668   49.5427 H   0  0  0  0  0  0  0  0  0  0  0  0
   64.9464   31.5074   48.5460 H   0  0  0  0  0  0  0  0  0  0  0  0
   62.9083   31.7297   47.1322 H   0  0  0  0  0  0  0  0  0  0  0  0
   61.5811   34.8014   45.9016 H   0  0  0  0  0  0  0  0  0  0  0  0
   59.3711   35.4151   44.1820 H   0  0  0  0  0  0  0  0  0  0  0  0
   56.8986   35.0175   43.8826 H   0  0  0  0  0  0  0  0  0  0  0  0
   55.6549   33.5695   45.5049 H   0  0  0  0  0  0  0  0  0  0  0  0
   56.8689   32.4883   47.4296 H   0  0  0  0  0  0  0  0  0  0  0  0
   59.9460   32.3766   49.8094 H   0  0  0  0  0  0  0  0  0  0  0  0
   58.2152   32.4480   49.2885 H   0  0  0  0  0  0  0  0  0  0  0  0
   60.2319   30.3332   46.2554 H   0  0  0  0  0  0  0  0  0  0  0  0
   59.7011   28.6533   46.6029 H   0  0  0  0  0  0  0  0  0  0  0  0
   58.5616   31.8696   44.9864 H   0  0  0  0  0  0  0  0  0  0  0  0
   57.0421   31.8961   42.9986 H   0  0  0  0  0  0  0  0  0  0  0  0
   56.1100   29.7438   42.1335 H   0  0  0  0  0  0  0  0  0  0  0  0
   56.6670   27.6800   43.2680 H   0  0  0  0  0  0  0  0  0  0  0  0
   58.1186   27.5675   45.2005 H   0  0  0  0  0  0  0  0  0  0  0  0
   61.4653   34.8939   49.7068 H   0  0  0  0  0  0  0  0  0  0  0  0
   63.4982   34.6656   51.1324 H   0  0  0  0  0  0  0  0  0  0  0  0
  1  2  1  0
  2  3  1  0
  3  4  2  0
  4  5  1  0
  5  6  2  0
  6  7  1  0
  7  8  2  0
  8  9  1  0
  9 10  2  0
 10 11  1  0
 11 12  2  0
 12 13  1  0
 13 14  2  0
 14 15  1  0
 15 16  1  0
 16 17  1  0
 17 18  2  0
 17 19  1  0
 19 20  1  0
 20 21  1  0
 21 22  2  0
 22 23  1  0
 23 24  2  0
 24 25  1  0
 25 26  2  0
  6 27  1  0
 27 28  2  0
 28  3  1  0
 15  7  1  0
 26 21  1  0
 14  9  1  0
  1 29  1  0
  1 30  1  0
  1 31  1  0
  4 32  1  0
  5 33  1  0
  8 34  1  0
 10 35  1  0
 11 36  1  0
 12 37  1  0
 13 38  1  0
 16 39  1  0
 16 40  1  0
 20 41  1  0
 20 42  1  0
 22 43  1  0
 23 44  1  0
 24 45  1  0
 25 46  1  0
 26 47  1  0
 27 48  1  0
 28 49  1  0
M  CHG  2  19  -1  25   1
M  END
>  <UniqueID>  (45) 
45

>  <SMILES>  (45) 
COc1ccc(-c2cc3ccccc3n2CC(=O)[N-]Cc2ccc[nH+]c2)cc1

>  <Energy>  (45) 
88.76630222755443

>  <Genealogy>  (45) 
COc1ccc(-c2cc3ccccc3n2CC(=O)[N-]Cc2ccc[nH+]c2)cc1 (protonated)
COc1ccc(-c2cc3ccccc3n2CC(=O)[N-]Cc2ccc[nH+]c2)cc1 (3D coordinates assigned)
COc1ccc(-c2cc3ccccc3n2CC(=O)[N-]Cc2ccc[nH+]c2)cc1 (optimized conformer: 88.76630222755443 kcal/mol)

>  <smiles>  (45) 
COc1ccc(-c2cc3ccccc3n2CC(=O)NCc2cccnc2)cc1

>  <score_type>  (45) 
oracle

>  <origin>  (45) 
adg

>  <m_score__min__energy>  (45) 
-8.7599999999999998

>  <m_primary>  (45) 
energy

$$$$
45:0
     RDKit          3D

 33 34  0  0  1  0  0  0  0  0999 V2000
   57.3800   21.4420   43.0170 C   0  0  0  0  0  0  0  0  0  0  0  0
   56.6870   20.7050   44.1560 C   0  0  0  0  0  0  0  0  0  0  0  0
   55.5320   21.4510   44.4900 O   0  0  0  0  0  0  0  0  0  0  0  0
   55.5870   22.8170   44.6580 C   0  0  0  0  0  0  0  0  0  0  0  0
   55.1520   23.5250   43.6950 O   0  0  0  0  0  0  0  0  0  0  0  0
   56.1280   23.4090   45.9050 C   0  0  0  0  0  0  0  0  0  0  0  0
   56.1760   24.8870   45.7920 C   0  0  0  0  0  0  0  0  0  0  0  0
   55.4900   25.8920   45.9670 N   0  0  0  0  0  0  0  0  0  0  0  0
   55.8320   27.1100   45.7730 N   0  0  0  0  0  0  0  0  0  0  0  0
   57.0470   27.3580   45.3390 C   0  0  0  0  0  0  0  0  0  0  0  0
   57.6730   28.4160   45.0580 N   0  0  0  0  0  0  0  0  0  0  0  0
   56.9390   29.5370   44.5780 C   0  0  0  0  0  0  0  0  0  0  0  0
   55.7160   29.6250   44.8730 O   0  0  0  0  0  0  0  0  0  0  0  0
   57.6510   30.5490   43.7530 C   0  0  0  0  0  0  0  0  0  0  0  0
   57.8430   31.7900   44.5280 C   0  0  0  0  0  0  0  0  0  0  0  0
   57.8120   33.0980   44.2020 C   0  0  0  0  0  0  0  0  0  0  0  0
   58.0230   34.0420   45.1090 C   0  0  0  0  0  0  0  0  0  0  0  0
   58.2800   33.6500   46.4230 C   0  0  0  0  0  0  0  0  0  0  0  0
   58.2130   31.7810   46.3420 S   0  0  0  0  0  0  0  0  0  0  0  0
   57.7910   25.6690   45.1880 S   0  0  0  0  0  0  0  0  0  0  0  0
   58.0780   22.1843   43.4316 H   0  0  0  0  0  0  0  0  0  0  0  0
   57.9355   20.7217   42.3985 H   0  0  0  0  0  0  0  0  0  0  0  0
   56.6269   21.9522   42.3985 H   0  0  0  0  0  0  0  0  0  0  0  0
   56.4024   19.6927   43.8330 H   0  0  0  0  0  0  0  0  0  0  0  0
   57.3554   20.6071   45.0241 H   0  0  0  0  0  0  0  0  0  0  0  0
   55.4812   23.1301   46.7499 H   0  0  0  0  0  0  0  0  0  0  0  0
   57.1468   23.0286   46.0701 H   0  0  0  0  0  0  0  0  0  0  0  0
   55.1420   27.9220   45.9600 H   0  0  0  0  0  0  0  0  0  0  0  0
   58.6320   30.1506   43.4549 H   0  0  0  0  0  0  0  0  0  0  0  0
   57.0505   30.7719   42.8587 H   0  0  0  0  0  0  0  0  0  0  0  0
   57.6072   33.3883   43.1609 H   0  0  0  0  0  0  0  0  0  0  0  0
   57.9961   35.1064   44.8326 H   0  0  0  0  0  0  0  0  0  0  0  0
   58.4754   34.2873   47.2980 H   0  0  0  0  0  0  0  0  0  0  0  0
  1  2  1  0
  2  3  1  0
  3  4  1  0
  4  5  2  0
  4  6  1  0
  6  7  1  0
  7  8  2  0
  8  9  1  0
  9 10  1  0
 10 11  2  0
 11 12  1  0
 12 13  2  0
 12 14  1  0
 14 15  1  0
 15 16  2  0
 16 17  1  0
 17 18  2  0
 18 19  1  0
 10 20  1  0
 20  7  1  0
 19 15  1  0
  1 21  1  0
  1 22  1  0
  1 23  1  0
  2 24  1  0
  2 25  1  0
  6 26  1  0
  6 27  1  0
  9 28  1  0
 14 29  1  0
 14 30  1  0
 16 31  1  0
 17 32  1  0
 18 33  1  0
M  END
>  <smiles>  (46) 
CCOC(=O)Cc1n[nH]c(=NC(=O)Cc2cccs2)s1

>  <score_type>  (46) 
oracle

>  <origin>  (46) 
adg

>  <m_score__min__energy>  (46) 
-7.6500000000000004

>  <m_primary>  (46) 
energy

$$$$
