0:0
     RDKit          3D

 41 43  0  0  0  0  0  0  0  0999 V2000
   56.2420   23.1480   47.3670 C   0  0  0  0  0  0  0  0  0  0  0  0
   56.3500   23.3260   45.9210 N   0  0  0  0  0  0  0  0  0  0  0  0
   57.2230   22.6910   45.1160 C   0  0  0  0  0  0  0  0  0  0  0  0
   57.0450   23.1060   43.8120 C   0  0  0  0  0  0  0  0  0  0  0  0
   56.0200   24.0310   43.8230 C   0  0  0  0  0  0  0  0  0  0  0  0
   55.5990   24.1320   45.1360 C   0  0  0  0  0  0  0  0  0  0  0  0
   54.4900   25.0280   45.6220 C   0  0  0  0  0  0  0  0  0  0  0  0
   54.9960   26.3580   45.9590 N   0  0  0  0  0  0  0  0  0  0  0  0
   56.3760   26.6940   46.1650 C   0  0  0  0  0  0  0  0  0  0  0  0
   57.0240   26.0660   47.0440 O   0  0  0  0  0  0  0  0  0  0  0  0
   57.0680   27.7190   45.2950 C   0  0  0  0  0  0  0  0  0  0  0  0
   56.2420   28.9240   44.8590 C   0  0  0  0  0  0  0  0  0  0  0  0
   57.1130   29.8700   45.5740 N   0  0  0  0  0  0  0  0  0  0  0  0
   57.8790   30.7990   44.6990 C   0  0  0  0  0  0  0  0  0  0  0  0
   58.2490   32.1580   45.2890 C   0  0  0  0  0  0  0  0  0  0  0  0
   57.9640   33.3400   44.5780 C   0  0  0  0  0  0  0  0  0  0  0  0
   58.2990   34.5880   45.1070 C   0  0  0  0  0  0  0  0  0  0  0  0
   58.9530   34.6740   46.3370 C   0  0  0  0  0  0  0  0  0  0  0  0
   59.2990   33.5090   47.0260 C   0  0  0  0  0  0  0  0  0  0  0  0
   58.9680   32.2550   46.4990 C   0  0  0  0  0  0  0  0  0  0  0  0
   59.3860   31.1430   47.1540 F   0  0  0  0  0  0  0  0  0  0  0  0
   57.8840   28.7290   46.0890 C   0  0  0  0  0  0  0  0  0  0  0  0
   56.7474   23.9809   47.8777 H   0  0  0  0  0  0  0  0  0  0  0  0
   55.1808   23.1304   47.6560 H   0  0  0  0  0  0  0  0  0  0  0  0
   56.7165   22.1986   47.6560 H   0  0  0  0  0  0  0  0  0  0  0  0
   57.9669   21.9519   45.4482 H   0  0  0  0  0  0  0  0  0  0  0  0
   57.6111   22.7653   42.9326 H   0  0  0  0  0  0  0  0  0  0  0  0
   55.6179   24.5791   42.9582 H   0  0  0  0  0  0  0  0  0  0  0  0
   53.7316   25.1222   44.8308 H   0  0  0  0  0  0  0  0  0  0  0  0
   54.0519   24.5817   46.5269 H   0  0  0  0  0  0  0  0  0  0  0  0
   57.4876   27.0160   44.5603 H   0  0  0  0  0  0  0  0  0  0  0  0
   56.2308   29.0764   43.7697 H   0  0  0  0  0  0  0  0  0  0  0  0
   55.1622   28.9325   45.0689 H   0  0  0  0  0  0  0  0  0  0  0  0
   58.8144   30.2938   44.4165 H   0  0  0  0  0  0  0  0  0  0  0  0
   57.2036   31.0251   43.8607 H   0  0  0  0  0  0  0  0  0  0  0  0
   57.4724   33.2793   43.5958 H   0  0  0  0  0  0  0  0  0  0  0  0
   58.0471   35.5047   44.5536 H   0  0  0  0  0  0  0  0  0  0  0  0
   59.1958   35.6584   46.7636 H   0  0  0  0  0  0  0  0  0  0  0  0
   59.8330   33.5772   47.9853 H   0  0  0  0  0  0  0  0  0  0  0  0
   58.9461   28.7543   45.8038 H   0  0  0  0  0  0  0  0  0  0  0  0
   57.9754   28.5987   47.1774 H   0  0  0  0  0  0  0  0  0  0  0  0
  1  2  1  0
  2  3  1  0
  3  4  2  0
  4  5  1  0
  5  6  2  0
  6  7  1  0
  7  8  1  0
  8  9  1  0
  9 10  2  0
  9 11  1  0
 11 12  1  0
 12 13  1  0
 13 14  1  0
 14 15  1  0
 15 16  2  0
 16 17  1  0
 17 18  2  0
 18 19  1  0
 19 20  2  0
 20 21  1  0
 13 22  1  0
  6  2  1  0
 22 11  1  0
 20 15  1  0
  1 23  1  0
  1 24  1  0
  1 25  1  0
  3 26  1  0
  4 27  1  0
  5 28  1  0
  7 29  1  0
  7 30  1  0
 11 31  1  0
 12 32  1  0
 12 33  1  0
 14 34  1  0
 14 35  1  0
 16 36  1  0
 17 37  1  0
 18 38  1  0
 19 39  1  0
 22 40  1  0
 22 41  1  0
M  CHG  1   8  -1
M  END
>  <UniqueID>  (1) 
1

>  <SMILES>  (1) 
Cn1cccc1C[N-]C(=O)C1CN(Cc2ccccc2F)C1

>  <Energy>  (1) 
140.61154228312867

>  <Genealogy>  (1) 
Cn1cccc1C[N-]C(=O)C1CN(Cc2ccccc2F)C1 (protonated)
Cn1cccc1C[N-]C(=O)C1CN(Cc2ccccc2F)C1 (3D coordinates assigned)
Cn1cccc1C[N-]C(=O)C1CN(Cc2ccccc2F)C1 (nonaromatic ring conformer: 140.61154228312867 kcal/mol)

>  <smiles>  (1) 
Cn1cccc1CNC(=O)C1CN(Cc2ccccc2F)C1

>  <score_type>  (1) 
oracle

>  <origin>  (1) 
adg

>  <m_score__min__energy>  (1) 
-9.3800000000000008

>  <m_primary>  (1) 
energy

$$$$
1:0
     RDKit          3D

 76 79  0  0  0  0  0  0  0  0999 V2000
   56.5900   30.2600   52.8180 C   0  0  0  0  0  0  0  0  0  0  0  0
   57.3990   31.4710   53.3030 C   0  0  0  0  0  0  0  0  0  0  0  0
   58.2550   32.0560   52.2370 N   0  0  0  0  0  0  0  0  0  0  0  0
   57.6100   31.8350   50.9170 C   0  0  0  0  0  0  0  0  0  0  0  0
   58.5650   32.1200   49.7500 C   0  0  0  0  0  0  0  0  0  0  0  0
   58.5060   33.5100   52.4760 C   0  0  0  0  0  0  0  0  0  0  0  0
   59.9730   33.7820   52.8540 C   0  0  0  0  0  0  0  0  0  0  0  0
   60.6650   32.5710   53.1020 O   0  0  0  0  0  0  0  0  0  0  0  0
   61.7960   32.4380   52.2570 C   0  0  0  0  0  0  0  0  0  0  0  0
   61.7480   31.1410   51.4420 C   0  0  0  0  0  0  0  0  0  0  0  0
   60.5180   30.4650   51.6430 O   0  0  0  0  0  0  0  0  0  0  0  0
   60.5530   29.1530   51.1150 C   0  0  0  0  0  0  0  0  0  0  0  0
   59.6220   29.0010   49.8990 C   0  0  0  0  0  0  0  0  0  0  0  0
   60.3300   28.7090   48.7070 O   0  0  0  0  0  0  0  0  0  0  0  0
   59.5230   28.0100   47.7760 C   0  0  0  0  0  0  0  0  0  0  0  0
   60.3910   27.4520   46.6510 C   0  0  0  0  0  0  0  0  0  0  0  0
   60.6340   28.4700   45.6290 N   0  0  0  0  0  0  0  0  0  0  0  0
   59.9890   29.7550   45.6540 C   0  0  0  0  0  0  0  0  0  0  0  0
   60.5620   30.7920   46.3830 C   0  0  0  0  0  0  0  0  0  0  0  0
   59.9520   32.0290   46.4650 C   0  0  0  0  0  0  0  0  0  0  0  0
   58.8330   32.3360   45.7330 N   0  0  0  0  0  0  0  0  0  0  0  0
   58.4040   33.7380   45.5960 C   0  0  0  0  0  0  0  0  0  0  0  0
   58.1790   31.3130   45.0620 C   0  0  0  0  0  0  0  0  0  0  0  0
   56.9170   31.5140   44.4510 C   0  0  0  0  0  0  0  0  0  0  0  0
   56.3090   30.5000   43.7110 C   0  0  0  0  0  0  0  0  0  0  0  0
   56.9350   29.2680   43.5630 C   0  0  0  0  0  0  0  0  0  0  0  0
   58.1550   29.0210   44.1880 C   0  0  0  0  0  0  0  0  0  0  0  0
   58.7740   30.0120   44.9760 C   0  0  0  0  0  0  0  0  0  0  0  0
   60.7350   32.8500   47.3980 C   0  0  0  0  0  0  0  0  0  0  0  0
   60.4620   34.0840   48.0060 C   0  0  0  0  0  0  0  0  0  0  0  0
   61.3720   34.5880   48.9490 C   0  0  0  0  0  0  0  0  0  0  0  0
   62.5120   33.8460   49.3050 C   0  0  0  0  0  0  0  0  0  0  0  0
   62.7380   32.5850   48.7380 C   0  0  0  0  0  0  0  0  0  0  0  0
   61.8320   32.1020   47.7930 C   0  0  0  0  0  0  0  0  0  0  0  0
   61.8250   30.7370   47.1900 C   0  0  0  0  0  0  0  0  0  0  0  0
   56.2147   29.6983   53.6861 H   0  0  0  0  0  0  0  0  0  0  0  0
   55.7409   30.6059   52.2102 H   0  0  0  0  0  0  0  0  0  0  0  0
   57.2346   29.6081   52.2102 H   0  0  0  0  0  0  0  0  0  0  0  0
   56.6991   32.2431   53.6551 H   0  0  0  0  0  0  0  0  0  0  0  0
   58.0632   31.1247   54.1086 H   0  0  0  0  0  0  0  0  0  0  0  0
   59.1570   31.5200   52.2360 H   0  0  0  0  0  0  0  0  0  0  0  0
   57.2783   30.7880   50.8557 H   0  0  0  0  0  0  0  0  0  0  0  0
   56.7608   32.5295   50.8357 H   0  0  0  0  0  0  0  0  0  0  0  0
   59.5489   32.4136   50.1447 H   0  0  0  0  0  0  0  0  0  0  0  0
   58.6722   31.2147   49.1344 H   0  0  0  0  0  0  0  0  0  0  0  0
   58.1585   32.9360   49.1344 H   0  0  0  0  0  0  0  0  0  0  0  0
   58.2651   34.0683   51.5594 H   0  0  0  0  0  0  0  0  0  0  0  0
   57.8713   33.8334   53.3142 H   0  0  0  0  0  0  0  0  0  0  0  0
   60.4650   34.3148   52.0269 H   0  0  0  0  0  0  0  0  0  0  0  0
   59.9924   34.3912   53.7697 H   0  0  0  0  0  0  0  0  0  0  0  0
   61.8259   33.2925   51.5650 H   0  0  0  0  0  0  0  0  0  0  0  0
   62.6949   32.4107   52.8905 H   0  0  0  0  0  0  0  0  0  0  0  0
   61.8568   31.3819   50.3742 H   0  0  0  0  0  0  0  0  0  0  0  0
   62.5680   30.4865   51.7725 H   0  0  0  0  0  0  0  0  0  0  0  0
   61.5829   28.9209   50.8061 H   0  0  0  0  0  0  0  0  0  0  0  0
   60.2092   28.4604   51.8974 H   0  0  0  0  0  0  0  0  0  0  0  0
   58.9130   28.1837   50.0975 H   0  0  0  0  0  0  0  0  0  0  0  0
   59.1031   29.9599   49.7533 H   0  0  0  0  0  0  0  0  0  0  0  0
   59.0113   27.1812   48.2871 H   0  0  0  0  0  0  0  0  0  0  0  0
   58.7798   28.7007   47.3510 H   0  0  0  0  0  0  0  0  0  0  0  0
   61.3541   27.1225   47.0681 H   0  0  0  0  0  0  0  0  0  0  0  0
   59.8650   26.6048   46.1868 H   0  0  0  0  0  0  0  0  0  0  0  0
   61.3830   28.3050   44.9210 H   0  0  0  0  0  0  0  0  0  0  0  0
   58.2689   34.1794   46.5945 H   0  0  0  0  0  0  0  0  0  0  0  0
   59.1701   34.3038   45.0456 H   0  0  0  0  0  0  0  0  0  0  0  0
   57.4525   33.7782   45.0456 H   0  0  0  0  0  0  0  0  0  0  0  0
   56.4093   32.4835   44.5617 H   0  0  0  0  0  0  0  0  0  0  0  0
   55.3295   30.6762   43.2424 H   0  0  0  0  0  0  0  0  0  0  0  0
   56.4651   28.4849   42.9499 H   0  0  0  0  0  0  0  0  0  0  0  0
   58.6407   28.0417   44.0652 H   0  0  0  0  0  0  0  0  0  0  0  0
   59.5522   34.6463   47.7490 H   0  0  0  0  0  0  0  0  0  0  0  0
   61.1920   35.5694   49.4121 H   0  0  0  0  0  0  0  0  0  0  0  0
   63.2288   34.2570   50.0311 H   0  0  0  0  0  0  0  0  0  0  0  0
   63.6131   31.9870   49.0322 H   0  0  0  0  0  0  0  0  0  0  0  0
   62.7059   30.5718   46.5522 H   0  0  0  0  0  0  0  0  0  0  0  0
   61.8625   29.9161   47.9213 H   0  0  0  0  0  0  0  0  0  0  0  0
  1  2  1  0
  2  3  1  0
  3  4  1  0
  4  5  1  0
  3  6  1  0
  6  7  1  0
  7  8  1  0
  8  9  1  0
  9 10  1  0
 10 11  1  0
 11 12  1  0
 12 13  1  0
 13 14  1  0
 14 15  1  0
 15 16  1  0
 16 17  1  0
 17 18  1  0
 18 19  2  0
 19 20  1  0
 20 21  2  0
 21 22  1  0
 21 23  1  0
 23 24  2  0
 24 25  1  0
 25 26  2  0
 26 27  1  0
 27 28  2  0
 20 29  1  0
 29 30  2  0
 30 31  1  0
 31 32  2  0
 32 33  1  0
 33 34  2  0
 34 35  1  0
 28 18  1  0
 34 29  1  0
 35 19  1  0
 28 23  1  0
  1 36  1  0
  1 37  1  0
  1 38  1  0
  2 39  1  0
  2 40  1  0
  3 41  1  0
  4 42  1  0
  4 43  1  0
  5 44  1  0
  5 45  1  0
  5 46  1  0
  6 47  1  0
  6 48  1  0
  7 49  1  0
  7 50  1  0
  9 51  1  0
  9 52  1  0
 10 53  1  0
 10 54  1  0
 12 55  1  0
 12 56  1  0
 13 57  1  0
 13 58  1  0
 15 59  1  0
 15 60  1  0
 16 61  1  0
 16 62  1  0
 17 63  1  0
 22 64  1  0
 22 65  1  0
 22 66  1  0
 24 67  1  0
 25 68  1  0
 26 69  1  0
 27 70  1  0
 30 71  1  0
 31 72  1  0
 32 73  1  0
 33 74  1  0
 35 75  1  0
 35 76  1  0
M  CHG  2   3   1  21   1
M  END
>  <UniqueID>  (2) 
2

>  <SMILES>  (2) 
CC[NH+](CC)CCOCCOCCOCCNc1c2c([n+](C)c3ccccc13)-c1ccccc1C2

>  <Energy>  (2) 
128.59999406511952

>  <Genealogy>  (2) 
CC[NH+](CC)CCOCCOCCOCCNc1c2c([n+](C)c3ccccc13)-c1ccccc1C2 (protonated)
CC[NH+](CC)CCOCCOCCOCCNc1c2c([n+](C)c3ccccc13)-c1ccccc1C2 (3D coordinates assigned)
CC[NH+](CC)CCOCCOCCOCCNc1c2c([n+](C)c3ccccc13)-c1ccccc1C2 (nonaromatic ring conformer: 128.59999406511952 kcal/mol)

>  <smiles>  (2) 
CCN(CC)CCOCCOCCOCCNc1c2c([n+](C)c3ccccc13)-c1ccccc1C2

>  <score_type>  (2) 
oracle

>  <origin>  (2) 
adg

>  <m_score__min__energy>  (2) 
-4.3499999999999996

>  <m_primary>  (2) 
energy

$$$$
2:0
     RDKit          3D

 87 90  0  0  0  0  0  0  0  0999 V2000
   59.1685   35.3367   49.1415 H   0  0  0  0  0  0  0  0  0  0  0  0
   59.7110   34.4230   48.8570 C   0  0  0  0  0  0  0  0  0  0  0  0
   59.3140   33.7610   47.7650 C   0  0  0  0  0  0  0  0  0  0  0  0
   59.8778   33.8767   46.8276 H   0  0  0  0  0  0  0  0  0  0  0  0
   58.1110   32.8620   47.7970 C   0  0  0  0  0  0  0  0  0  0  0  0
   57.6705   32.8841   48.8047 H   0  0  0  0  0  0  0  0  0  0  0  0
   58.4267   31.8400   47.5405 H   0  0  0  0  0  0  0  0  0  0  0  0
   57.1400   33.2890   46.8550 O   0  0  0  0  0  0  0  0  0  0  0  0
   57.4630   32.8440   45.5480 C   0  0  0  0  0  0  0  0  0  0  0  0
   58.1347   33.5757   45.0753 H   0  0  0  0  0  0  0  0  0  0  0  0
   56.5308   32.7460   44.9723 H   0  0  0  0  0  0  0  0  0  0  0  0
   58.1560   31.4810   45.5850 C   0  0  0  0  0  0  0  0  0  0  0  0
   58.5579   31.2999   46.5928 H   0  0  0  0  0  0  0  0  0  0  0  0
   58.9803   31.4657   44.8568 H   0  0  0  0  0  0  0  0  0  0  0  0
   57.1720   30.4240   45.2460 N   0  0  0  0  0  0  0  0  0  0  0  0
   56.2810   30.8380   44.1390 C   0  0  0  0  0  0  0  0  0  0  0  0
   56.6384   31.7919   43.7239 H   0  0  0  0  0  0  0  0  0  0  0  0
   55.2589   30.9538   44.5288 H   0  0  0  0  0  0  0  0  0  0  0  0
   56.2730   29.7810   43.0360 C   0  0  0  0  0  0  0  0  0  0  0  0
   56.2654   28.7786   43.4888 H   0  0  0  0  0  0  0  0  0  0  0  0
   55.3758   29.9085   42.4125 H   0  0  0  0  0  0  0  0  0  0  0  0
   57.1720   29.8949   42.4125 H   0  0  0  0  0  0  0  0  0  0  0  0
   57.8290   29.1250   44.9660 C   0  0  0  0  0  0  0  0  0  0  0  0
   57.3270   28.6391   44.1163 H   0  0  0  0  0  0  0  0  0  0  0  0
   58.8875   29.3017   44.7243 H   0  0  0  0  0  0  0  0  0  0  0  0
   57.7410   28.2180   46.1900 C   0  0  0  0  0  0  0  0  0  0  0  0
   57.8002   28.8280   47.1034 H   0  0  0  0  0  0  0  0  0  0  0  0
   56.7857   27.6728   46.1744 H   0  0  0  0  0  0  0  0  0  0  0  0
   58.5736   27.4993   46.1744 H   0  0  0  0  0  0  0  0  0  0  0  0
   60.8490   33.9840   49.7040 C   0  0  0  0  0  0  0  0  0  0  0  0
   62.1410   33.8430   49.1390 C   0  0  0  0  0  0  0  0  0  0  0  0
   62.2990   33.9840   47.7480 O   0  0  0  0  0  0  0  0  0  0  0  0
   62.4240   32.9190   46.8020 C   0  0  0  0  0  0  0  0  0  0  0  0
   61.6557   33.0434   46.0247 H   0  0  0  0  0  0  0  0  0  0  0  0
   63.4365   32.9638   46.3743 H   0  0  0  0  0  0  0  0  0  0  0  0
   62.2480   31.5390   47.4560 C   0  0  0  0  0  0  0  0  0  0  0  0
   63.2104   31.0073   47.4212 H   0  0  0  0  0  0  0  0  0  0  0  0
   61.9112   31.7011   48.4906 H   0  0  0  0  0  0  0  0  0  0  0  0
   61.1880   30.6830   46.7510 C   0  0  0  0  0  0  0  0  0  0  0  0
   60.3473   31.3247   46.4487 H   0  0  0  0  0  0  0  0  0  0  0  0
   61.6426   30.2112   45.8674 H   0  0  0  0  0  0  0  0  0  0  0  0
   60.6720   29.5840   47.6890 C   0  0  0  0  0  0  0  0  0  0  0  0
   60.2263   28.7818   47.0825 H   0  0  0  0  0  0  0  0  0  0  0  0
   61.5253   29.2158   48.2775 H   0  0  0  0  0  0  0  0  0  0  0  0
   59.6180   30.1040   48.6680 C   0  0  0  0  0  0  0  0  0  0  0  0
   60.0689   30.8684   49.3180 H   0  0  0  0  0  0  0  0  0  0  0  0
   58.7829   30.5437   48.1029 H   0  0  0  0  0  0  0  0  0  0  0  0
   59.1340   29.0370   49.4630 O   0  0  0  0  0  0  0  0  0  0  0  0
   59.5340   29.2650   50.7470 N   0  0  0  0  0  0  0  0  0  0  0  0
   60.6710   28.5500   51.2730 C   0  0  0  0  0  0  0  0  0  0  0  0
   61.1900   27.4080   50.5860 N   0  0  0  0  0  0  0  0  0  0  0  0
   61.9600   26.8440   51.0050 H   0  0  0  0  0  0  0  0  0  0  0  0
   60.7300   27.0480   49.7210 H   0  0  0  0  0  0  0  0  0  0  0  0
   61.2240   28.9570   52.3780 N   0  0  0  0  0  0  0  0  0  0  0  0
   62.0660   28.4660   52.7560 H   0  0  0  0  0  0  0  0  0  0  0  0
   60.7230   30.1160   53.0590 C   0  0  0  0  0  0  0  0  0  0  0  0
   61.4940   30.7230   54.0950 N   0  0  0  0  0  0  0  0  0  0  0  0
   61.1230   31.5500   54.6190 H   0  0  0  0  0  0  0  0  0  0  0  0
   62.4300   30.3360   54.3520 H   0  0  0  0  0  0  0  0  0  0  0  0
   59.5850   30.6390   52.7120 N   0  0  0  0  0  0  0  0  0  0  0  0
   58.7030   30.0340   51.7000 C   0  0  0  0  0  0  0  0  0  0  0  0
   57.7250   29.0600   52.3970 C   0  0  0  0  0  0  0  0  0  0  0  0
   56.9843   28.7237   51.6566 H   0  0  0  0  0  0  0  0  0  0  0  0
   58.3287   28.2315   52.7958 H   0  0  0  0  0  0  0  0  0  0  0  0
   56.9700   29.6820   53.5930 C   0  0  0  0  0  0  0  0  0  0  0  0
   55.9667   29.2330   53.6350 H   0  0  0  0  0  0  0  0  0  0  0  0
   57.5778   29.4719   54.4854 H   0  0  0  0  0  0  0  0  0  0  0  0
   56.7760   31.5090   53.5180 S   0  0  0  0  0  0  0  0  0  0  0  0
   56.6170   31.5920   51.7100 C   0  0  0  0  0  0  0  0  0  0  0  0
   55.7979   30.9278   51.3972 H   0  0  0  0  0  0  0  0  0  0  0  0
   56.4145   32.6390   51.4403 H   0  0  0  0  0  0  0  0  0  0  0  0
   57.9050   31.1630   50.9840 C   0  0  0  0  0  0  0  0  0  0  0  0
   57.6313   30.8068   49.9799 H   0  0  0  0  0  0  0  0  0  0  0  0
   58.5614   32.0455   50.9626 H   0  0  0  0  0  0  0  0  0  0  0  0
   63.2380   33.5900   49.9790 C   0  0  0  0  0  0  0  0  0  0  0  0
   64.2469   33.5174   49.5467 H   0  0  0  0  0  0  0  0  0  0  0  0
   63.0660   33.4300   51.3500 C   0  0  0  0  0  0  0  0  0  0  0  0
   63.9384   33.2279   51.9888 H   0  0  0  0  0  0  0  0  0  0  0  0
   61.7910   33.5240   51.9250 C   0  0  0  0  0  0  0  0  0  0  0  0
   61.6030   33.3460   53.3120 C   0  0  0  0  0  0  0  0  0  0  0  0
   62.5800   33.1030   54.0720 O   0  0  0  0  0  0  0  0  0  0  0  0
   60.3580   33.4390   53.8450 N   0  0  0  0  0  0  0  0  0  0  0  0
   59.2660   33.6970   53.0830 C   0  0  0  0  0  0  0  0  0  0  0  0
   58.2730   33.7612   53.5519 H   0  0  0  0  0  0  0  0  0  0  0  0
   59.3980   33.8810   51.7080 C   0  0  0  0  0  0  0  0  0  0  0  0
   58.5086   34.0835   51.0932 H   0  0  0  0  0  0  0  0  0  0  0  0
   60.6710   33.8080   51.1030 C   0  0  0  0  0  0  0  0  0  0  0  0
  1  2  1  0
  2  3  2  0
  3  4  1  0
  3  5  1  0
  5  6  1  0
  5  7  1  0
  5  8  1  0
  8  9  1  0
  9 10  1  0
  9 11  1  0
  9 12  1  0
 12 13  1  0
 12 14  1  0
 12 15  1  0
 15 16  1  0
 16 17  1  0
 16 18  1  0
 16 19  1  0
 19 20  1  0
 19 21  1  0
 19 22  1  0
 15 23  1  0
 23 24  1  0
 23 25  1  0
 23 26  1  0
 26 27  1  0
 26 28  1  0
 26 29  1  0
  2 30  1  0
 30 31  2  0
 31 32  1  0
 32 33  1  0
 33 34  1  0
 33 35  1  0
 33 36  1  0
 36 37  1  0
 36 38  1  0
 36 39  1  0
 39 40  1  0
 39 41  1  0
 39 42  1  0
 42 43  1  0
 42 44  1  0
 42 45  1  0
 45 46  1  0
 45 47  1  0
 45 48  1  0
 48 49  1  0
 49 50  1  0
 50 51  1  0
 51 52  1  0
 51 53  1  0
 50 54  2  0
 54 55  1  0
 54 56  1  0
 56 57  1  0
 57 58  1  0
 57 59  1  0
 56 60  2  0
 60 61  1  0
 61 62  1  0
 62 63  1  0
 62 64  1  0
 62 65  1  0
 65 66  1  0
 65 67  1  0
 65 68  1  0
 68 69  1  0
 69 70  1  0
 69 71  1  0
 69 72  1  0
 72 73  1  0
 72 74  1  0
 31 75  1  0
 75 76  1  0
 75 77  2  0
 77 78  1  0
 77 79  1  0
 79 80  1  0
 80 81  2  0
 80 82  1  0
 82 83  1  0
 83 84  1  0
 83 85  2  0
 85 86  1  0
 85 87  1  0
 87 30  1  0
 61 49  1  0
 87 79  2  0
 72 61  1  0
M  CHG  2  54   1  82  -1
M  END
>  <UniqueID>  (3) 
3

>  <SMILES>  (3) 
CCN(CC)CCOC/C=C/c1c(OCCCCCON2C(N)=[NH+]C(N)=NC23CCSCC3)ccc2c(=O)[n-]ccc12

>  <Energy>  (3) 
98.58694995247579

>  <Genealogy>  (3) 
CCN(CC)CCOCC=Cc1c(OCCCCCON2C(N)=[NH+]C(N)=NC23CCSCC3)ccc2c(=O)[n-]ccc12 (protonated)
CCN(CC)CCOC/C=C/c1c(OCCCCCON2C(N)=[NH+]C(N)=NC23CCSCC3)ccc2c(=O)[n-]ccc12 (cis-trans isomerization)
CCN(CC)CCOC/C=C/c1c(OCCCCCON2C(N)=[NH+]C(N)=NC23CCSCC3)ccc2c(=O)[n-]ccc12 (3D coordinates assigned)
CCN(CC)CCOC/C=C/c1c(OCCCCCON2C(N)=[NH+]C(N)=NC23CCSCC3)ccc2c(=O)[n-]ccc12 (nonaromatic ring conformer: 98.58694995247579 kcal/mol)

>  <smiles>  (3) 
CCN(CC)CCOCC=Cc1c(OCCCCCON2C(N)=NC(N)=NC23CCSCC3)ccc2c(=O)[nH]ccc12

>  <score_type>  (3) 
oracle

>  <origin>  (3) 
adg

>  <m_score__min__energy>  (3) 
-9.1300000000000008

>  <m_primary>  (3) 
energy

$$$$
3:0
     RDKit          3D

 49 51  0  0  0  0  0  0  0  0999 V2000
   59.6410   35.5200   46.3700 C   0  0  0  0  0  0  0  0  0  0  0  0
   59.1110   34.2050   45.8810 C   0  0  0  0  0  0  0  0  0  0  0  0
   58.1340   34.1670   44.8860 C   0  0  0  0  0  0  0  0  0  0  0  0
   57.6460   32.9470   44.4210 C   0  0  0  0  0  0  0  0  0  0  0  0
   58.1320   31.7180   44.9360 C   0  0  0  0  0  0  0  0  0  0  0  0
   59.2050   31.7600   45.8650 C   0  0  0  0  0  0  0  0  0  0  0  0
   59.6550   33.0060   46.3530 C   0  0  0  0  0  0  0  0  0  0  0  0
   59.7980   30.5590   46.2950 C   0  0  0  0  0  0  0  0  0  0  0  0
   60.9190   30.5830   47.1990 N   0  0  0  0  0  0  0  0  0  0  0  0
   60.7440   30.4060   48.6420 C   0  0  0  0  0  0  0  0  0  0  0  0
   61.8830   31.0670   49.4300 C   0  0  0  0  0  0  0  0  0  0  0  0
   63.0230   31.5890   48.5390 C   0  0  0  0  0  0  0  0  0  0  0  0
   62.5830   32.7270   47.7010 N   0  0  0  0  0  0  0  0  0  0  0  0
   62.1760   33.8570   48.5510 C   0  0  0  0  0  0  0  0  0  0  0  0
   63.6550   33.1610   46.7890 C   0  0  0  0  0  0  0  0  0  0  0  0
   59.3260   29.3340   45.7910 C   0  0  0  0  0  0  0  0  0  0  0  0
   59.9300   28.1160   46.1660 C   0  0  0  0  0  0  0  0  0  0  0  0
   59.5090   26.9090   45.6120 C   0  0  0  0  0  0  0  0  0  0  0  0
   58.4930   26.8970   44.6650 C   0  0  0  0  0  0  0  0  0  0  0  0
   57.8690   28.0860   44.2890 C   0  0  0  0  0  0  0  0  0  0  0  0
   58.2430   29.3260   44.8690 C   0  0  0  0  0  0  0  0  0  0  0  0
   57.5980   30.5050   44.5440 N   0  0  0  0  0  0  0  0  0  0  0  0
   56.3110   30.4650   43.8130 C   0  0  0  0  0  0  0  0  0  0  0  0
   59.6442   35.5279   47.4700 H   0  0  0  0  0  0  0  0  0  0  0  0
   60.6668   35.6626   45.9993 H   0  0  0  0  0  0  0  0  0  0  0  0
   59.0007   36.3341   45.9993 H   0  0  0  0  0  0  0  0  0  0  0  0
   57.7460   35.1065   44.4654 H   0  0  0  0  0  0  0  0  0  0  0  0
   56.8704   32.9371   43.6410 H   0  0  0  0  0  0  0  0  0  0  0  0
   60.4462   33.0343   47.1167 H   0  0  0  0  0  0  0  0  0  0  0  0
   61.8500   30.8870   46.8350 H   0  0  0  0  0  0  0  0  0  0  0  0
   59.7889   30.8599   48.9449 H   0  0  0  0  0  0  0  0  0  0  0  0
   60.7513   29.3282   48.8617 H   0  0  0  0  0  0  0  0  0  0  0  0
   61.4686   31.9137   49.9969 H   0  0  0  0  0  0  0  0  0  0  0  0
   62.3125   30.2958   50.0864 H   0  0  0  0  0  0  0  0  0  0  0  0
   63.8545   31.9181   49.1796 H   0  0  0  0  0  0  0  0  0  0  0  0
   63.3393   30.7732   47.8723 H   0  0  0  0  0  0  0  0  0  0  0  0
   62.2776   33.5749   49.6094 H   0  0  0  0  0  0  0  0  0  0  0  0
   62.8181   34.7248   48.3395 H   0  0  0  0  0  0  0  0  0  0  0  0
   61.1281   34.1161   48.3395 H   0  0  0  0  0  0  0  0  0  0  0  0
   64.5171   33.5100   47.3763 H   0  0  0  0  0  0  0  0  0  0  0  0
   63.9613   32.3160   46.1548 H   0  0  0  0  0  0  0  0  0  0  0  0
   63.2872   33.9811   46.1548 H   0  0  0  0  0  0  0  0  0  0  0  0
   60.7442   28.1190   46.9056 H   0  0  0  0  0  0  0  0  0  0  0  0
   59.9811   25.9659   45.9245 H   0  0  0  0  0  0  0  0  0  0  0  0
   58.1794   25.9459   44.2099 H   0  0  0  0  0  0  0  0  0  0  0  0
   57.0733   28.0624   43.5299 H   0  0  0  0  0  0  0  0  0  0  0  0
   55.4805   30.4392   44.5339 H   0  0  0  0  0  0  0  0  0  0  0  0
   56.2203   31.3608   43.1810 H   0  0  0  0  0  0  0  0  0  0  0  0
   56.2761   29.5653   43.1810 H   0  0  0  0  0  0  0  0  0  0  0  0
  1  2  1  0
  2  3  2  0
  3  4  1  0
  4  5  2  0
  5  6  1  0
  6  7  2  0
  6  8  1  0
  8  9  1  0
  9 10  1  0
 10 11  1  0
 11 12  1  0
 12 13  1  0
 13 14  1  0
 13 15  1  0
  8 16  2  0
 16 17  1  0
 17 18  2  0
 18 19  1  0
 19 20  2  0
 20 21  1  0
 21 22  2  0
 22 23  1  0
  7  2  1  0
 21 16  1  0
 22  5  1  0
  1 24  1  0
  1 25  1  0
  1 26  1  0
  3 27  1  0
  4 28  1  0
  7 29  1  0
  9 30  1  0
 10 31  1  0
 10 32  1  0
 11 33  1  0
 11 34  1  0
 12 35  1  0
 12 36  1  0
 14 37  1  0
 14 38  1  0
 14 39  1  0
 15 40  1  0
 15 41  1  0
 15 42  1  0
 17 43  1  0
 18 44  1  0
 19 45  1  0
 20 46  1  0
 23 47  1  0
 23 48  1  0
 23 49  1  0
M  CHG  1  22   1
M  END
>  <UniqueID>  (4) 
4

>  <SMILES>  (4) 
Cc1ccc2c(c1)c(NCCCN(C)C)c1ccccc1[n+]2C

>  <Energy>  (4) 
73.41798721541622

>  <Genealogy>  (4) 
Cc1ccc2c(c1)c(NCCCN(C)C)c1ccccc1[n+]2C (3D coordinates assigned)
Cc1ccc2c(c1)c(NCCCN(C)C)c1ccccc1[n+]2C (optimized conformer: 73.41798721541622 kcal/mol)

>  <smiles>  (4) 
Cc1ccc2c(c1)c(NCCCN(C)C)c1ccccc1[n+]2C

>  <score_type>  (4) 
oracle

>  <origin>  (4) 
adg

>  <m_score__min__energy>  (4) 
-5.6600000000000001

>  <m_primary>  (4) 
energy

$$$$
4:0
     RDKit          3D

 57 59  0  0  0  0  0  0  0  0999 V2000
   55.5030   29.9460   43.9310 C   0  0  0  0  0  0  0  0  0  0  0  0
   55.9220   28.9520   44.9210 N   0  0  0  0  0  0  0  0  0  0  0  0
   57.2580   28.4170   44.6170 C   0  0  0  0  0  0  0  0  0  0  0  0
   58.3420   29.1720   45.3900 C   0  0  0  0  0  0  0  0  0  0  0  0
   57.7470   30.0700   46.3820 N   0  0  0  0  0  0  0  0  0  0  0  0
   58.5200   31.0800   47.0560 C   0  0  0  0  0  0  0  0  0  0  0  0
   58.7130   32.3390   46.4570 C   0  0  0  0  0  0  0  0  0  0  0  0
   58.1920   32.6280   45.1770 C   0  0  0  0  0  0  0  0  0  0  0  0
   58.3840   33.8800   44.5970 C   0  0  0  0  0  0  0  0  0  0  0  0
   59.0890   34.8650   45.2800 C   0  0  0  0  0  0  0  0  0  0  0  0
   59.6050   34.6050   46.5490 C   0  0  0  0  0  0  0  0  0  0  0  0
   59.4260   33.3420   47.1640 C   0  0  0  0  0  0  0  0  0  0  0  0
   59.9260   33.0810   48.4220 N   0  0  0  0  0  0  0  0  0  0  0  0
   60.1500   34.2200   49.3390 C   0  0  0  0  0  0  0  0  0  0  0  0
   59.9660   31.7840   48.8950 C   0  0  0  0  0  0  0  0  0  0  0  0
   60.8080   31.3700   49.9800 C   0  0  0  0  0  0  0  0  0  0  0  0
   62.0830   32.0050   50.2630 N   0  0  0  0  0  0  0  0  0  0  0  0
   63.2010   31.3200   49.5820 C   0  0  0  0  0  0  0  0  0  0  0  0
   63.4660   31.8560   48.1580 C   0  0  0  0  0  0  0  0  0  0  0  0
   62.8280   33.1720   47.9330 N   0  0  0  0  0  0  0  0  0  0  0  0
   63.4410   34.2110   48.7780 C   0  0  0  0  0  0  0  0  0  0  0  0
   62.9460   33.5570   46.5190 C   0  0  0  0  0  0  0  0  0  0  0  0
   60.5150   30.1660   50.6440 C   0  0  0  0  0  0  0  0  0  0  0  0
   59.5320   29.3080   50.1680 C   0  0  0  0  0  0  0  0  0  0  0  0
   58.8730   29.6010   48.9800 C   0  0  0  0  0  0  0  0  0  0  0  0
   59.1210   30.8100   48.3010 C   0  0  0  0  0  0  0  0  0  0  0  0
   55.1257   30.8411   44.4472 H   0  0  0  0  0  0  0  0  0  0  0  0
   56.3619   30.2207   43.3010 H   0  0  0  0  0  0  0  0  0  0  0  0
   54.7066   29.5230   43.3010 H   0  0  0  0  0  0  0  0  0  0  0  0
   55.2390   28.1600   44.8700 H   0  0  0  0  0  0  0  0  0  0  0  0
   57.2916   27.3537   44.8968 H   0  0  0  0  0  0  0  0  0  0  0  0
   57.4469   28.5392   43.5403 H   0  0  0  0  0  0  0  0  0  0  0  0
   58.9896   28.4463   45.9037 H   0  0  0  0  0  0  0  0  0  0  0  0
   58.9272   29.7728   44.6783 H   0  0  0  0  0  0  0  0  0  0  0  0
   56.7040   30.1170   46.4370 H   0  0  0  0  0  0  0  0  0  0  0  0
   57.6285   31.8564   44.6319 H   0  0  0  0  0  0  0  0  0  0  0  0
   57.9771   34.0898   43.5968 H   0  0  0  0  0  0  0  0  0  0  0  0
   59.2400   35.8518   44.8180 H   0  0  0  0  0  0  0  0  0  0  0  0
   60.1594   35.3927   47.0803 H   0  0  0  0  0  0  0  0  0  0  0  0
   60.0815   33.8715   50.3801 H   0  0  0  0  0  0  0  0  0  0  0  0
   61.1488   34.6444   49.1594 H   0  0  0  0  0  0  0  0  0  0  0  0
   59.3863   34.9910   49.1594 H   0  0  0  0  0  0  0  0  0  0  0  0
   62.1230   33.0020   49.9820 H   0  0  0  0  0  0  0  0  0  0  0  0
   62.2520   31.9710   51.2960 H   0  0  0  0  0  0  0  0  0  0  0  0
   64.1125   31.4568   50.1823 H   0  0  0  0  0  0  0  0  0  0  0  0
   62.9248   30.2596   49.4860 H   0  0  0  0  0  0  0  0  0  0  0  0
   64.5516   31.9584   48.0135 H   0  0  0  0  0  0  0  0  0  0  0  0
   63.0345   31.1423   47.4408 H   0  0  0  0  0  0  0  0  0  0  0  0
   63.2913   33.9572   49.8378 H   0  0  0  0  0  0  0  0  0  0  0  0
   64.5183   34.2695   48.5636 H   0  0  0  0  0  0  0  0  0  0  0  0
   62.9712   35.1823   48.5636 H   0  0  0  0  0  0  0  0  0  0  0  0
   63.2677   34.6067   46.4504 H   0  0  0  0  0  0  0  0  0  0  0  0
   63.6880   32.9130   46.0243 H   0  0  0  0  0  0  0  0  0  0  0  0
   61.9706   33.4394   46.0243 H   0  0  0  0  0  0  0  0  0  0  0  0
   61.0725   29.8995   51.5540 H   0  0  0  0  0  0  0  0  0  0  0  0
   59.2755   28.3981   50.7304 H   0  0  0  0  0  0  0  0  0  0  0  0
   58.1508   28.8819   48.5660 H   0  0  0  0  0  0  0  0  0  0  0  0
  1  2  1  0
  2  3  1  0
  3  4  1  0
  4  5  1  0
  5  6  1  0
  6  7  2  0
  7  8  1  0
  8  9  2  0
  9 10  1  0
 10 11  2  0
 11 12  1  0
 12 13  2  0
 13 14  1  0
 13 15  1  0
 15 16  2  0
 16 17  1  0
 17 18  1  0
 18 19  1  0
 19 20  1  0
 20 21  1  0
 20 22  1  0
 16 23  1  0
 23 24  2  0
 24 25  1  0
 25 26  2  0
 26  6  1  0
 12  7  1  0
 26 15  1  0
  1 27  1  0
  1 28  1  0
  1 29  1  0
  2 30  1  0
  3 31  1  0
  3 32  1  0
  4 33  1  0
  4 34  1  0
  5 35  1  0
  8 36  1  0
  9 37  1  0
 10 38  1  0
 11 39  1  0
 14 40  1  0
 14 41  1  0
 14 42  1  0
 17 43  1  0
 17 44  1  0
 18 45  1  0
 18 46  1  0
 19 47  1  0
 19 48  1  0
 21 49  1  0
 21 50  1  0
 21 51  1  0
 22 52  1  0
 22 53  1  0
 22 54  1  0
 23 55  1  0
 24 56  1  0
 25 57  1  0
M  CHG  2  13   1  17   1
M  END
>  <UniqueID>  (5) 
5

>  <SMILES>  (5) 
CNCCNc1c2ccccc2[n+](C)c2c([NH2+]CCN(C)C)cccc12

>  <Energy>  (5) 
90.6525443719243

>  <Genealogy>  (5) 
CNCCNc1c2ccccc2[n+](C)c2c([NH2+]CCN(C)C)cccc12 (protonated)
CNCCNc1c2ccccc2[n+](C)c2c([NH2+]CCN(C)C)cccc12 (3D coordinates assigned)
CNCCNc1c2ccccc2[n+](C)c2c([NH2+]CCN(C)C)cccc12 (optimized conformer: 90.6525443719243 kcal/mol)

>  <smiles>  (5) 
CNCCNc1c2ccccc2[n+](C)c2c(NCCN(C)C)cccc12

>  <score_type>  (5) 
oracle

>  <origin>  (5) 
adg

>  <m_score__min__energy>  (5) 
-4.6500000000000004

>  <m_primary>  (5) 
energy

$$$$
5:0
     RDKit          3D

 82 85  0  0  0  0  0  0  0  0999 V2000
   63.0780   33.8860   50.0180 C   0  0  0  0  0  0  0  0  0  0  0  0
   61.8730   34.2300   49.1240 C   0  0  0  0  0  0  0  0  0  0  0  0
   61.8150   33.5500   47.7960 N   0  0  0  0  0  0  0  0  0  0  0  0
   63.1560   33.1750   47.2740 C   0  0  0  0  0  0  0  0  0  0  0  0
   63.4070   31.6650   47.1650 C   0  0  0  0  0  0  0  0  0  0  0  0
   60.9610   34.2090   46.7650 C   0  0  0  0  0  0  0  0  0  0  0  0
   59.5460   34.5530   47.2740 C   0  0  0  0  0  0  0  0  0  0  0  0
   58.8970   33.4200   47.9310 N   0  0  0  0  0  0  0  0  0  0  0  0
   58.9860   32.1180   47.3270 C   0  0  0  0  0  0  0  0  0  0  0  0
   58.5540   31.9210   46.0050 C   0  0  0  0  0  0  0  0  0  0  0  0
   58.1350   33.0100   45.2130 C   0  0  0  0  0  0  0  0  0  0  0  0
   57.7480   32.8200   43.8890 C   0  0  0  0  0  0  0  0  0  0  0  0
   57.7980   31.5500   43.3260 C   0  0  0  0  0  0  0  0  0  0  0  0
   58.2090   30.4580   44.0900 C   0  0  0  0  0  0  0  0  0  0  0  0
   58.5650   30.6120   45.4550 C   0  0  0  0  0  0  0  0  0  0  0  0
   58.9290   29.5330   46.2390 N   0  0  0  0  0  0  0  0  0  0  0  0
   58.6470   28.1550   45.7790 C   0  0  0  0  0  0  0  0  0  0  0  0
   59.5240   29.7430   47.4700 C   0  0  0  0  0  0  0  0  0  0  0  0
   60.1350   28.6870   48.1930 C   0  0  0  0  0  0  0  0  0  0  0  0
   60.6750   28.8830   49.4660 C   0  0  0  0  0  0  0  0  0  0  0  0
   61.2140   27.7660   50.1270 O   0  0  0  0  0  0  0  0  0  0  0  0
   61.0060   27.4020   51.4940 C   0  0  0  0  0  0  0  0  0  0  0  0
   62.1710   26.5250   52.0220 C   0  0  0  0  0  0  0  0  0  0  0  0
   63.2180   27.2060   52.8560 N   0  0  0  0  0  0  0  0  0  0  0  0
   62.5790   27.9230   53.9930 C   0  0  0  0  0  0  0  0  0  0  0  0
   63.8920   28.2290   51.9810 C   0  0  0  0  0  0  0  0  0  0  0  0
   65.3620   28.4810   52.3780 C   0  0  0  0  0  0  0  0  0  0  0  0
   66.2060   27.2490   52.2350 N   0  0  0  0  0  0  0  0  0  0  0  0
   66.8120   27.2160   50.8810 C   0  0  0  0  0  0  0  0  0  0  0  0
   67.3080   27.3020   53.2270 C   0  0  0  0  0  0  0  0  0  0  0  0
   65.4040   26.0010   52.4390 C   0  0  0  0  0  0  0  0  0  0  0  0
   64.2170   26.2250   53.3960 C   0  0  0  0  0  0  0  0  0  0  0  0
   60.6160   30.1600   50.0430 C   0  0  0  0  0  0  0  0  0  0  0  0
   60.0540   31.2220   49.3420 C   0  0  0  0  0  0  0  0  0  0  0  0
   59.5280   31.0380   48.0460 C   0  0  0  0  0  0  0  0  0  0  0  0
   62.7859   33.9694   51.0752 H   0  0  0  0  0  0  0  0  0  0  0  0
   63.4081   32.8578   49.8088 H   0  0  0  0  0  0  0  0  0  0  0  0
   63.9012   34.5850   49.8088 H   0  0  0  0  0  0  0  0  0  0  0  0
   60.9598   33.9636   49.6764 H   0  0  0  0  0  0  0  0  0  0  0  0
   61.9733   35.3020   48.8988 H   0  0  0  0  0  0  0  0  0  0  0  0
   61.3790   32.6180   47.9960 H   0  0  0  0  0  0  0  0  0  0  0  0
   63.2673   33.6133   46.2712 H   0  0  0  0  0  0  0  0  0  0  0  0
   63.8882   33.5582   48.0000 H   0  0  0  0  0  0  0  0  0  0  0  0
   63.4791   31.2316   48.1734 H   0  0  0  0  0  0  0  0  0  0  0  0
   62.5749   31.1933   46.6217 H   0  0  0  0  0  0  0  0  0  0  0  0
   64.3469   31.4878   46.6217 H   0  0  0  0  0  0  0  0  0  0  0  0
   61.4534   35.1397   46.4467 H   0  0  0  0  0  0  0  0  0  0  0  0
   60.8445   33.4969   45.9348 H   0  0  0  0  0  0  0  0  0  0  0  0
   59.6216   35.3819   47.9932 H   0  0  0  0  0  0  0  0  0  0  0  0
   58.9348   34.8288   46.4020 H   0  0  0  0  0  0  0  0  0  0  0  0
   58.0960   33.6000   48.5720 H   0  0  0  0  0  0  0  0  0  0  0  0
   58.1137   34.0209   45.6461 H   0  0  0  0  0  0  0  0  0  0  0  0
   57.4028   33.6747   43.2887 H   0  0  0  0  0  0  0  0  0  0  0  0
   57.5122   31.4057   42.2736 H   0  0  0  0  0  0  0  0  0  0  0  0
   58.2580   29.4614   43.6271 H   0  0  0  0  0  0  0  0  0  0  0  0
   58.5125   27.4978   46.6507 H   0  0  0  0  0  0  0  0  0  0  0  0
   57.7295   28.1516   45.1722 H   0  0  0  0  0  0  0  0  0  0  0  0
   59.4894   27.7914   45.1722 H   0  0  0  0  0  0  0  0  0  0  0  0
   60.1850   27.6864   47.7388 H   0  0  0  0  0  0  0  0  0  0  0  0
   60.9397   28.3157   52.1029 H   0  0  0  0  0  0  0  0  0  0  0  0
   60.0735   26.8226   51.5632 H   0  0  0  0  0  0  0  0  0  0  0  0
   61.7311   25.7229   52.6329 H   0  0  0  0  0  0  0  0  0  0  0  0
   62.7023   26.1858   51.1205 H   0  0  0  0  0  0  0  0  0  0  0  0
   62.9487   27.5082   54.9423 H   0  0  0  0  0  0  0  0  0  0  0  0
   62.8285   28.9929   53.9385 H   0  0  0  0  0  0  0  0  0  0  0  0
   61.4875   27.7978   53.9385 H   0  0  0  0  0  0  0  0  0  0  0  0
   63.8651   27.8737   50.9403 H   0  0  0  0  0  0  0  0  0  0  0  0
   63.3490   29.1779   52.1027 H   0  0  0  0  0  0  0  0  0  0  0  0
   65.7736   29.2696   51.7310 H   0  0  0  0  0  0  0  0  0  0  0  0
   65.3796   28.7819   53.4359 H   0  0  0  0  0  0  0  0  0  0  0  0
   67.9067   27.1564   50.9706 H   0  0  0  0  0  0  0  0  0  0  0  0
   66.4404   26.3368   50.3343 H   0  0  0  0  0  0  0  0  0  0  0  0
   66.5381   28.1304   50.3343 H   0  0  0  0  0  0  0  0  0  0  0  0
   66.8877   27.2818   54.2433 H   0  0  0  0  0  0  0  0  0  0  0  0
   67.9698   26.4346   53.0866 H   0  0  0  0  0  0  0  0  0  0  0  0
   67.8835   28.2289   53.0866 H   0  0  0  0  0  0  0  0  0  0  0  0
   65.0166   25.6652   51.4658 H   0  0  0  0  0  0  0  0  0  0  0  0
   66.0635   25.2441   52.8885 H   0  0  0  0  0  0  0  0  0  0  0  0
   63.7114   25.2622   53.5616 H   0  0  0  0  0  0  0  0  0  0  0  0
   64.6178   26.6390   54.3330 H   0  0  0  0  0  0  0  0  0  0  0  0
   61.0161   30.3225   51.0547 H   0  0  0  0  0  0  0  0  0  0  0  0
   60.0193   32.2193   49.8048 H   0  0  0  0  0  0  0  0  0  0  0  0
  1  2  1  0
  2  3  1  0
  3  4  1  0
  4  5  1  0
  3  6  1  0
  6  7  1  0
  7  8  1  0
  8  9  1  0
  9 10  2  0
 10 11  1  0
 11 12  2  0
 12 13  1  0
 13 14  2  0
 14 15  1  0
 15 16  2  0
 16 17  1  0
 16 18  1  0
 18 19  2  0
 19 20  1  0
 20 21  1  0
 21 22  1  0
 22 23  1  0
 23 24  1  0
 24 25  1  0
 24 26  1  0
 26 27  1  0
 27 28  1  0
 28 29  1  0
 28 30  1  0
 28 31  1  0
 31 32  1  0
 20 33  2  0
 33 34  1  0
 34 35  2  0
 35  9  1  0
 15 10  1  0
 35 18  1  0
 32 24  1  0
  1 36  1  0
  1 37  1  0
  1 38  1  0
  2 39  1  0
  2 40  1  0
  3 41  1  0
  4 42  1  0
  4 43  1  0
  5 44  1  0
  5 45  1  0
  5 46  1  0
  6 47  1  0
  6 48  1  0
  7 49  1  0
  7 50  1  0
  8 51  1  0
 11 52  1  0
 12 53  1  0
 13 54  1  0
 14 55  1  0
 17 56  1  0
 17 57  1  0
 17 58  1  0
 19 59  1  0
 22 60  1  0
 22 61  1  0
 23 62  1  0
 23 63  1  0
 25 64  1  0
 25 65  1  0
 25 66  1  0
 26 67  1  0
 26 68  1  0
 27 69  1  0
 27 70  1  0
 29 71  1  0
 29 72  1  0
 29 73  1  0
 30 74  1  0
 30 75  1  0
 30 76  1  0
 31 77  1  0
 31 78  1  0
 32 79  1  0
 32 80  1  0
 33 81  1  0
 34 82  1  0
M  CHG  4   3   1  16   1  24   1  28   1
M  END
>  <UniqueID>  (6) 
6

>  <SMILES>  (6) 
CC[NH+](CC)CCNc1c2ccccc2[n+](C)c2cc(OCC[N+]3(C)CC[N+](C)(C)CC3)ccc12

>  <Energy>  (6) 
151.8308329314762

>  <Genealogy>  (6) 
CC[NH+](CC)CCNc1c2ccccc2[n+](C)c2cc(OCC[N+]3(C)CC[N+](C)(C)CC3)ccc12 (protonated)
CC[NH+](CC)CCNc1c2ccccc2[n+](C)c2cc(OCC[N+]3(C)CC[N+](C)(C)CC3)ccc12 (3D coordinates assigned)
CC[NH+](CC)CCNc1c2ccccc2[n+](C)c2cc(OCC[N+]3(C)CC[N+](C)(C)CC3)ccc12 (nonaromatic ring conformer: 151.8308329314762 kcal/mol)

>  <smiles>  (6) 
CCN(CC)CCNc1c2ccccc2[n+](C)c2cc(OCC[N+]3(C)CC[N+](C)(C)CC3)ccc12

>  <score_type>  (6) 
oracle

>  <origin>  (6) 
adg

>  <m_score__min__energy>  (6) 
-2.48

>  <m_primary>  (6) 
energy

$$$$
6:0
     RDKit          3D

 62 63  0  0  0  0  0  0  0  0999 V2000
   64.5300   32.3860   49.4910 C   0  0  0  0  0  0  0  0  0  0  0  0
   63.2540   33.1860   49.7470 C   0  0  0  0  0  0  0  0  0  0  0  0
   62.2540   32.9660   48.6760 N   0  0  0  0  0  0  0  0  0  0  0  0
   62.8940   32.6050   47.3820 C   0  0  0  0  0  0  0  0  0  0  0  0
   63.0930   33.8550   46.5300 C   0  0  0  0  0  0  0  0  0  0  0  0
   61.3750   34.1510   48.5350 C   0  0  0  0  0  0  0  0  0  0  0  0
   60.1600   34.0450   49.4640 C   0  0  0  0  0  0  0  0  0  0  0  0
   60.1850   32.8180   50.1720 O   0  0  0  0  0  0  0  0  0  0  0  0
   59.6980   32.9830   51.4880 C   0  0  0  0  0  0  0  0  0  0  0  0
   59.5190   31.6120   52.1450 C   0  0  0  0  0  0  0  0  0  0  0  0
   59.5590   30.5610   51.1960 O   0  0  0  0  0  0  0  0  0  0  0  0
   60.6550   29.6970   51.4290 C   0  0  0  0  0  0  0  0  0  0  0  0
   61.4770   29.5430   50.1420 C   0  0  0  0  0  0  0  0  0  0  0  0
   61.2160   30.5990   49.1410 N   0  0  0  0  0  0  0  0  0  0  0  0
   60.5660   30.1450   47.8950 C   0  0  0  0  0  0  0  0  0  0  0  0
   59.0210   30.2510   47.9220 C   0  0  1  0  0  0  0  0  0  0  0  0
   58.5840   31.2030   48.8610 O   0  0  0  0  0  0  0  0  0  0  0  0
   58.4850   30.5920   46.5370 C   0  0  0  0  0  0  0  0  0  0  0  0
   58.0370   29.5220   45.7360 C   0  0  0  0  0  0  0  0  0  0  0  0
   57.5310   29.7380   44.4570 C   0  0  0  0  0  0  0  0  0  0  0  0
   57.4640   31.0260   43.9370 C   0  0  0  0  0  0  0  0  0  0  0  0
   57.9200   32.1160   44.6890 C   0  0  0  0  0  0  0  0  0  0  0  0
   57.8570   33.4070   44.1410 C   0  0  0  0  0  0  0  0  0  0  0  0
   58.3200   34.5040   44.8660 C   0  0  0  0  0  0  0  0  0  0  0  0
   58.8500   34.3240   46.1410 C   0  0  0  0  0  0  0  0  0  0  0  0
   58.9160   33.0470   46.7040 C   0  0  0  0  0  0  0  0  0  0  0  0
   58.4460   31.9160   45.9970 C   0  0  0  0  0  0  0  0  0  0  0  0
   64.9835   32.1017   50.4520 H   0  0  0  0  0  0  0  0  0  0  0  0
   64.2856   31.4792   48.9183 H   0  0  0  0  0  0  0  0  0  0  0  0
   65.2397   33.0011   48.9183 H   0  0  0  0  0  0  0  0  0  0  0  0
   62.8225   32.8733   50.7093 H   0  0  0  0  0  0  0  0  0  0  0  0
   63.5132   34.2549   49.7644 H   0  0  0  0  0  0  0  0  0  0  0  0
   63.8707   32.1379   47.5767 H   0  0  0  0  0  0  0  0  0  0  0  0
   62.2438   31.9007   46.8424 H   0  0  0  0  0  0  0  0  0  0  0  0
   63.2319   34.7273   47.1856 H   0  0  0  0  0  0  0  0  0  0  0  0
   63.9823   33.7282   45.8951 H   0  0  0  0  0  0  0  0  0  0  0  0
   62.2083   34.0106   45.8951 H   0  0  0  0  0  0  0  0  0  0  0  0
   61.9462   35.0555   48.7910 H   0  0  0  0  0  0  0  0  0  0  0  0
   61.0190   34.2026   47.4955 H   0  0  0  0  0  0  0  0  0  0  0  0
   60.1790   34.8782   50.1820 H   0  0  0  0  0  0  0  0  0  0  0  0
   59.2429   34.0887   48.8583 H   0  0  0  0  0  0  0  0  0  0  0  0
   60.4156   33.5779   52.0720 H   0  0  0  0  0  0  0  0  0  0  0  0
   58.7288   33.5023   51.4564 H   0  0  0  0  0  0  0  0  0  0  0  0
   60.3259   31.4607   52.8771 H   0  0  0  0  0  0  0  0  0  0  0  0
   58.5327   31.5939   52.6316 H   0  0  0  0  0  0  0  0  0  0  0  0
   61.2913   30.1194   52.2206 H   0  0  0  0  0  0  0  0  0  0  0  0
   60.2807   28.7110   51.7416 H   0  0  0  0  0  0  0  0  0  0  0  0
   62.5445   29.5709   50.4061 H   0  0  0  0  0  0  0  0  0  0  0  0
   61.1829   28.5866   49.6849 H   0  0  0  0  0  0  0  0  0  0  0  0
   62.1250   31.0530   48.8870 H   0  0  0  0  0  0  0  0  0  0  0  0
   60.6250   31.3390   49.5850 H   0  0  0  0  0  0  0  0  0  0  0  0
   60.9414   30.7600   47.0639 H   0  0  0  0  0  0  0  0  0  0  0  0
   60.8122   29.0797   47.7747 H   0  0  0  0  0  0  0  0  0  0  0  0
   58.6262   29.2706   48.2270 H   0  0  0  0  0  0  0  0  0  0  0  0
   59.0740   31.0330   49.7080 H   0  0  0  0  0  0  0  0  0  0  0  0
   58.0882   28.4960   46.1293 H   0  0  0  0  0  0  0  0  0  0  0  0
   57.1826   28.8858   43.8550 H   0  0  0  0  0  0  0  0  0  0  0  0
   57.0511   31.1894   42.9306 H   0  0  0  0  0  0  0  0  0  0  0  0
   57.4399   33.5538   43.1338 H   0  0  0  0  0  0  0  0  0  0  0  0
   58.2666   35.5127   44.4305 H   0  0  0  0  0  0  0  0  0  0  0  0
   59.2186   35.1916   46.7079 H   0  0  0  0  0  0  0  0  0  0  0  0
   59.3394   32.9196   47.7112 H   0  0  0  0  0  0  0  0  0  0  0  0
  1  2  1  0
  2  3  1  0
  3  4  1  0
  4  5  1  0
  3  6  1  0
  6  7  1  0
  7  8  1  0
  8  9  1  0
  9 10  1  0
 10 11  1  0
 11 12  1  0
 12 13  1  0
 13 14  1  0
 14 15  1  0
 15 16  1  0
 16 17  1  0
 16 18  1  0
 18 19  2  0
 19 20  1  0
 20 21  2  0
 21 22  1  0
 22 23  2  0
 23 24  1  0
 24 25  2  0
 25 26  1  0
 26 27  2  0
 27 18  1  0
 27 22  1  0
  1 28  1  0
  1 29  1  0
  1 30  1  0
  2 31  1  0
  2 32  1  0
  4 33  1  0
  4 34  1  0
  5 35  1  0
  5 36  1  0
  5 37  1  0
  6 38  1  0
  6 39  1  0
  7 40  1  0
  7 41  1  0
  9 42  1  0
  9 43  1  0
 10 44  1  0
 10 45  1  0
 12 46  1  0
 12 47  1  0
 13 48  1  0
 13 49  1  0
 14 50  1  0
 14 51  1  0
 15 52  1  0
 15 53  1  0
 16 54  1  1
 17 55  1  0
 19 56  1  0
 20 57  1  0
 21 58  1  0
 23 59  1  0
 24 60  1  0
 25 61  1  0
 26 62  1  0
M  CHG  1  14   1
M  END
>  <UniqueID>  (7) 
7

>  <SMILES>  (7) 
CCN(CC)CCOCCOCC[NH2+]C[C@@H](O)c1cccc2ccccc12

>  <Energy>  (7) 
71.506180737888

>  <Genealogy>  (7) 
CCN(CC)CCOCCOCC[NH2+]CC(O)c1cccc2ccccc12 (protonated)
CCN(CC)CCOCCOCC[NH2+]C[C@@H](O)c1cccc2ccccc12 (chirality)
CCN(CC)CCOCCOCC[NH2+]C[C@@H](O)c1cccc2ccccc12 (3D coordinates assigned)
CCN(CC)CCOCCOCC[NH2+]C[C@@H](O)c1cccc2ccccc12 (optimized conformer: 71.506180737888 kcal/mol)

>  <smiles>  (7) 
CCN(CC)CCOCCOCCNCC(O)c1cccc2ccccc12

>  <score_type>  (7) 
oracle

>  <origin>  (7) 
adg

>  <m_score__min__energy>  (7) 
-5.1900000000000004

>  <m_primary>  (7) 
energy

$$$$
7:0
     RDKit          3D

 86 89  0  0  0  0  0  0  0  0999 V2000
   62.6850   33.4640   47.5230 C   0  0  0  0  0  0  0  0  0  0  0  0
   61.8810   34.1810   48.6140 C   0  0  0  0  0  0  0  0  0  0  0  0
   60.4560   33.7520   48.6930 N   0  0  0  0  0  0  0  0  0  0  0  0
   59.9830   33.8360   50.1000 C   0  0  0  0  0  0  0  0  0  0  0  0
   58.9980   32.7150   50.4620 C   0  0  0  0  0  0  0  0  0  0  0  0
   59.5410   34.4500   47.7400 C   0  0  0  0  0  0  0  0  0  0  0  0
   58.8170   33.5400   46.7160 C   0  0  0  0  0  0  0  0  0  0  0  0
   59.6560   32.4240   46.2670 N   0  0  0  0  0  0  0  0  0  0  0  0
   59.1160   31.0900   46.2280 C   0  0  0  0  0  0  0  0  0  0  0  0
   58.2530   30.7030   45.1870 C   0  0  0  0  0  0  0  0  0  0  0  0
   57.7980   31.6440   44.2360 C   0  0  0  0  0  0  0  0  0  0  0  0
   57.0380   31.2400   43.1440 C   0  0  0  0  0  0  0  0  0  0  0  0
   56.7080   29.8990   42.9840 C   0  0  0  0  0  0  0  0  0  0  0  0
   57.0950   28.9600   43.9420 C   0  0  0  0  0  0  0  0  0  0  0  0
   57.8370   29.3480   45.0890 C   0  0  0  0  0  0  0  0  0  0  0  0
   58.1710   28.4430   46.0850 N   0  0  0  0  0  0  0  0  0  0  0  0
   57.5220   27.1160   46.1210 C   0  0  0  0  0  0  0  0  0  0  0  0
   59.0950   28.7900   47.0570 C   0  0  0  0  0  0  0  0  0  0  0  0
   59.6360   27.8300   47.9540 C   0  0  0  0  0  0  0  0  0  0  0  0
   60.5070   28.2020   48.9950 C   0  0  0  0  0  0  0  0  0  0  0  0
   60.9940   27.2800   49.9360 O   0  0  0  0  0  0  0  0  0  0  0  0
   60.9590   27.4230   51.3560 C   0  0  0  0  0  0  0  0  0  0  0  0
   62.0340   26.5630   52.0770 C   0  0  0  0  0  0  0  0  0  0  0  0
   63.0730   27.3070   52.8690 N   0  0  0  0  0  0  0  0  0  0  0  0
   62.4210   28.0370   53.9900 C   0  0  0  0  0  0  0  0  0  0  0  0
   64.0180   26.2970   53.4660 C   0  0  0  0  0  0  0  0  0  0  0  0
   65.2470   26.0320   52.5720 C   0  0  0  0  0  0  0  0  0  0  0  0
   66.0810   27.2640   52.3790 N   0  0  0  0  0  0  0  0  0  0  0  0
   66.7480   27.1890   51.0530 C   0  0  0  0  0  0  0  0  0  0  0  0
   67.1460   27.3150   53.4170 C   0  0  0  0  0  0  0  0  0  0  0  0
   65.2600   28.5140   52.4590 C   0  0  0  0  0  0  0  0  0  0  0  0
   63.8080   28.2820   51.9930 C   0  0  0  0  0  0  0  0  0  0  0  0
   60.9150   29.5340   49.1100 C   0  0  0  0  0  0  0  0  0  0  0  0
   61.7940   29.8680   50.1550 O   0  0  0  0  0  0  0  0  0  0  0  0
   62.6310   31.0210   50.1780 C   0  0  0  0  0  0  0  0  0  0  0  0
   60.4510   30.4830   48.1880 C   0  0  0  0  0  0  0  0  0  0  0  0
   59.5460   30.1300   47.1660 C   0  0  0  0  0  0  0  0  0  0  0  0
   63.4280   32.8014   47.9908 H   0  0  0  0  0  0  0  0  0  0  0  0
   62.0041   32.8678   46.8978 H   0  0  0  0  0  0  0  0  0  0  0  0
   63.1997   34.2084   46.8978 H   0  0  0  0  0  0  0  0  0  0  0  0
   62.3578   33.9798   49.5846 H   0  0  0  0  0  0  0  0  0  0  0  0
   61.8791   35.2510   48.3588 H   0  0  0  0  0  0  0  0  0  0  0  0
   60.4500   32.7420   48.4130 H   0  0  0  0  0  0  0  0  0  0  0  0
   60.8539   33.7687   50.7686 H   0  0  0  0  0  0  0  0  0  0  0  0
   59.4540   34.7934   50.2161 H   0  0  0  0  0  0  0  0  0  0  0  0
   58.9242   32.6310   51.5563 H   0  0  0  0  0  0  0  0  0  0  0  0
   58.0074   32.9483   50.0445 H   0  0  0  0  0  0  0  0  0  0  0  0
   59.3568   31.7627   50.0445 H   0  0  0  0  0  0  0  0  0  0  0  0
   58.7735   34.9727   48.3297 H   0  0  0  0  0  0  0  0  0  0  0  0
   60.1803   35.1201   47.1465 H   0  0  0  0  0  0  0  0  0  0  0  0
   57.9094   33.1328   47.1854 H   0  0  0  0  0  0  0  0  0  0  0  0
   58.5756   34.1530   45.8351 H   0  0  0  0  0  0  0  0  0  0  0  0
   60.5490   32.6110   45.7580 H   0  0  0  0  0  0  0  0  0  0  0  0
   58.0479   32.7079   44.3610 H   0  0  0  0  0  0  0  0  0  0  0  0
   56.6977   31.9817   42.4064 H   0  0  0  0  0  0  0  0  0  0  0  0
   56.1397   29.5765   42.0991 H   0  0  0  0  0  0  0  0  0  0  0  0
   56.8209   27.9034   43.8062 H   0  0  0  0  0  0  0  0  0  0  0  0
   57.3721   26.8094   47.1667 H   0  0  0  0  0  0  0  0  0  0  0  0
   56.5486   27.1700   45.6115 H   0  0  0  0  0  0  0  0  0  0  0  0
   58.1622   26.3808   45.6115 H   0  0  0  0  0  0  0  0  0  0  0  0
   59.3675   26.7703   47.8318 H   0  0  0  0  0  0  0  0  0  0  0  0
   61.1294   28.4804   51.6066 H   0  0  0  0  0  0  0  0  0  0  0  0
   59.9734   27.0749   51.6987 H   0  0  0  0  0  0  0  0  0  0  0  0
   61.5107   25.8851   52.7673 H   0  0  0  0  0  0  0  0  0  0  0  0
   62.5894   26.0594   51.2721 H   0  0  0  0  0  0  0  0  0  0  0  0
   62.7808   27.6342   54.9483 H   0  0  0  0  0  0  0  0  0  0  0  0
   62.6700   29.1065   53.9252 H   0  0  0  0  0  0  0  0  0  0  0  0
   61.3303   27.9099   53.9252 H   0  0  0  0  0  0  0  0  0  0  0  0
   64.3654   26.6725   54.4398 H   0  0  0  0  0  0  0  0  0  0  0  0
   63.4702   25.3486   53.5682 H   0  0  0  0  0  0  0  0  0  0  0  0
   65.8667   25.2544   53.0424 H   0  0  0  0  0  0  0  0  0  0  0  0
   64.8844   25.7105   51.5845 H   0  0  0  0  0  0  0  0  0  0  0  0
   67.8321   27.0671   51.1942 H   0  0  0  0  0  0  0  0  0  0  0  0
   66.3524   26.3297   50.4917 H   0  0  0  0  0  0  0  0  0  0  0  0
   66.5532   28.1147   50.4917 H   0  0  0  0  0  0  0  0  0  0  0  0
   66.6858   27.2930   54.4159 H   0  0  0  0  0  0  0  0  0  0  0  0
   67.8127   26.4478   53.3012 H   0  0  0  0  0  0  0  0  0  0  0  0
   67.7268   28.2420   53.3012 H   0  0  0  0  0  0  0  0  0  0  0  0
   65.2468   28.8641   53.5017 H   0  0  0  0  0  0  0  0  0  0  0  0
   65.7150   29.2627   51.7938 H   0  0  0  0  0  0  0  0  0  0  0  0
   63.2740   29.2435   52.0095 H   0  0  0  0  0  0  0  0  0  0  0  0
   63.8454   27.8585   50.9785 H   0  0  0  0  0  0  0  0  0  0  0  0
   62.8365   31.3041   51.2209 H   0  0  0  0  0  0  0  0  0  0  0  0
   63.5781   30.7968   49.6654 H   0  0  0  0  0  0  0  0  0  0  0  0
   62.1245   31.8521   49.6654 H   0  0  0  0  0  0  0  0  0  0  0  0
   60.7999   31.5235   48.2635 H   0  0  0  0  0  0  0  0  0  0  0  0
  1  2  1  0
  2  3  1  0
  3  4  1  0
  4  5  1  0
  3  6  1  0
  6  7  1  0
  7  8  1  0
  8  9  1  0
  9 10  2  0
 10 11  1  0
 11 12  2  0
 12 13  1  0
 13 14  2  0
 14 15  1  0
 15 16  2  0
 16 17  1  0
 16 18  1  0
 18 19  2  0
 19 20  1  0
 20 21  1  0
 21 22  1  0
 22 23  1  0
 23 24  1  0
 24 25  1  0
 24 26  1  0
 26 27  1  0
 27 28  1  0
 28 29  1  0
 28 30  1  0
 28 31  1  0
 31 32  1  0
 20 33  2  0
 33 34  1  0
 34 35  1  0
 33 36  1  0
 36 37  2  0
 37  9  1  0
 15 10  1  0
 37 18  1  0
 32 24  1  0
  1 38  1  0
  1 39  1  0
  1 40  1  0
  2 41  1  0
  2 42  1  0
  3 43  1  0
  4 44  1  0
  4 45  1  0
  5 46  1  0
  5 47  1  0
  5 48  1  0
  6 49  1  0
  6 50  1  0
  7 51  1  0
  7 52  1  0
  8 53  1  0
 11 54  1  0
 12 55  1  0
 13 56  1  0
 14 57  1  0
 17 58  1  0
 17 59  1  0
 17 60  1  0
 19 61  1  0
 22 62  1  0
 22 63  1  0
 23 64  1  0
 23 65  1  0
 25 66  1  0
 25 67  1  0
 25 68  1  0
 26 69  1  0
 26 70  1  0
 27 71  1  0
 27 72  1  0
 29 73  1  0
 29 74  1  0
 29 75  1  0
 30 76  1  0
 30 77  1  0
 30 78  1  0
 31 79  1  0
 31 80  1  0
 32 81  1  0
 32 82  1  0
 35 83  1  0
 35 84  1  0
 35 85  1  0
 36 86  1  0
M  CHG  4   3   1  16   1  24   1  28   1
M  END
>  <UniqueID>  (8) 
8

>  <SMILES>  (8) 
CC[NH+](CC)CCNc1c2ccccc2[n+](C)c2cc(OCC[N+]3(C)CC[N+](C)(C)CC3)c(OC)cc12

>  <Energy>  (8) 
146.77112046920723

>  <Genealogy>  (8) 
CC[NH+](CC)CCNc1c2ccccc2[n+](C)c2cc(OCC[N+]3(C)CC[N+](C)(C)CC3)c(OC)cc12 (protonated)
CC[NH+](CC)CCNc1c2ccccc2[n+](C)c2cc(OCC[N+]3(C)CC[N+](C)(C)CC3)c(OC)cc12 (3D coordinates assigned)
CC[NH+](CC)CCNc1c2ccccc2[n+](C)c2cc(OCC[N+]3(C)CC[N+](C)(C)CC3)c(OC)cc12 (nonaromatic ring conformer: 146.77112046920723 kcal/mol)

>  <smiles>  (8) 
CCN(CC)CCNc1c2ccccc2[n+](C)c2cc(OCC[N+]3(C)CC[N+](C)(C)CC3)c(OC)cc12

>  <score_type>  (8) 
oracle

>  <origin>  (8) 
adg

>  <m_score__min__energy>  (8) 
-2.04

>  <m_primary>  (8) 
energy

$$$$
8:0
     RDKit          3D

 58 60  0  0  0  0  0  0  0  0999 V2000
   60.7310   28.0040   49.5840 C   0  0  0  0  0  0  0  0  0  0  0  0
   60.0370   28.8850   50.6150 C   0  0  0  0  0  0  0  0  0  0  0  0
   59.5650   30.1220   49.9800 N   0  0  0  0  0  0  0  0  0  0  0  0
   58.4500   30.7180   50.7270 C   0  0  0  0  0  0  0  0  0  0  0  0
   58.4160   32.2330   50.5060 C   0  0  0  0  0  0  0  0  0  0  0  0
   59.2420   32.5860   49.4120 O   0  0  0  0  0  0  0  0  0  0  0  0
   59.9190   33.7970   49.6750 C   0  0  0  0  0  0  0  0  0  0  0  0
   61.4150   33.6380   49.3730 C   0  0  0  0  0  0  0  0  0  0  0  0
   61.8480   32.2270   49.3560 N   0  0  0  0  0  0  0  0  0  0  0  0
   62.7820   31.9300   48.2600 C   0  0  0  0  0  0  0  0  0  0  0  0
   62.0560   31.2190   47.1140 C   0  0  0  0  0  0  0  0  0  0  0  0
   60.6290   31.0870   47.4070 N   0  0  0  0  0  0  0  0  0  0  0  0
   59.6720   31.0530   46.3370 C   0  0  0  0  0  0  0  0  0  0  0  0
   59.0610   32.2360   45.8930 C   0  0  0  0  0  0  0  0  0  0  0  0
   59.3860   33.4780   46.4770 C   0  0  0  0  0  0  0  0  0  0  0  0
   58.7320   34.6420   46.0820 C   0  0  0  0  0  0  0  0  0  0  0  0
   57.7410   34.5880   45.1090 C   0  0  0  0  0  0  0  0  0  0  0  0
   57.4250   33.3750   44.4970 C   0  0  0  0  0  0  0  0  0  0  0  0
   58.1070   32.1790   44.8430 C   0  0  0  0  0  0  0  0  0  0  0  0
   57.8550   30.9830   44.1960 N   0  0  0  0  0  0  0  0  0  0  0  0
   57.0900   30.9710   42.9300 C   0  0  0  0  0  0  0  0  0  0  0  0
   58.3480   29.7980   44.7150 C   0  0  0  0  0  0  0  0  0  0  0  0
   57.9180   28.5350   44.2340 C   0  0  0  0  0  0  0  0  0  0  0  0
   58.4570   27.3510   44.7380 C   0  0  0  0  0  0  0  0  0  0  0  0
   59.4210   27.3890   45.7400 C   0  0  0  0  0  0  0  0  0  0  0  0
   60.0920   25.8950   46.3690 Cl  0  0  0  0  0  0  0  0  0  0  0  0
   59.8340   28.6130   46.2600 C   0  0  0  0  0  0  0  0  0  0  0  0
   59.2960   29.8230   45.7730 C   0  0  0  0  0  0  0  0  0  0  0  0
   61.3324   27.2406   50.0993 H   0  0  0  0  0  0  0  0  0  0  0  0
   59.9753   27.5119   48.9541 H   0  0  0  0  0  0  0  0  0  0  0  0
   61.3864   28.6234   48.9541 H   0  0  0  0  0  0  0  0  0  0  0  0
   59.1792   28.3429   51.0395 H   0  0  0  0  0  0  0  0  0  0  0  0
   60.7500   29.1376   51.4136 H   0  0  0  0  0  0  0  0  0  0  0  0
   60.3600   30.8020   49.9850 H   0  0  0  0  0  0  0  0  0  0  0  0
   57.5034   30.2786   50.3792 H   0  0  0  0  0  0  0  0  0  0  0  0
   58.5866   30.5144   51.7993 H   0  0  0  0  0  0  0  0  0  0  0  0
   57.3826   32.5466   50.2971 H   0  0  0  0  0  0  0  0  0  0  0  0
   58.7853   32.7363   51.4117 H   0  0  0  0  0  0  0  0  0  0  0  0
   59.5018   34.5928   49.0405 H   0  0  0  0  0  0  0  0  0  0  0  0
   59.7905   34.0596   50.7354 H   0  0  0  0  0  0  0  0  0  0  0  0
   61.6239   34.0817   48.3884 H   0  0  0  0  0  0  0  0  0  0  0  0
   61.9707   34.1455   50.1753 H   0  0  0  0  0  0  0  0  0  0  0  0
   61.0170   31.5940   49.2740 H   0  0  0  0  0  0  0  0  0  0  0  0
   63.2132   32.8707   47.8870 H   0  0  0  0  0  0  0  0  0  0  0  0
   63.5778   31.2721   48.6393 H   0  0  0  0  0  0  0  0  0  0  0  0
   62.1822   31.8023   46.1900 H   0  0  0  0  0  0  0  0  0  0  0  0
   62.4861   30.2138   46.9934 H   0  0  0  0  0  0  0  0  0  0  0  0
   60.2710   31.2460   48.3760 H   0  0  0  0  0  0  0  0  0  0  0  0
   60.1644   33.5276   47.2527 H   0  0  0  0  0  0  0  0  0  0  0  0
   58.9999   35.6053   46.5405 H   0  0  0  0  0  0  0  0  0  0  0  0
   57.2046   35.5041   44.8208 H   0  0  0  0  0  0  0  0  0  0  0  0
   56.6339   33.3447   43.7333 H   0  0  0  0  0  0  0  0  0  0  0  0
   56.0129   30.9541   43.1526 H   0  0  0  0  0  0  0  0  0  0  0  0
   57.3300   31.8730   42.3480 H   0  0  0  0  0  0  0  0  0  0  0  0
   57.3582   30.0770   42.3480 H   0  0  0  0  0  0  0  0  0  0  0  0
   57.1470   28.4882   43.4508 H   0  0  0  0  0  0  0  0  0  0  0  0
   58.1180   26.3827   44.3411 H   0  0  0  0  0  0  0  0  0  0  0  0
   60.5887   28.6368   47.0600 H   0  0  0  0  0  0  0  0  0  0  0  0
  1  2  1  0
  2  3  1  0
  3  4  1  0
  4  5  1  0
  5  6  1  0
  6  7  1  0
  7  8  1  0
  8  9  1  0
  9 10  1  0
 10 11  1  0
 11 12  1  0
 12 13  1  0
 13 14  2  0
 14 15  1  0
 15 16  2  0
 16 17  1  0
 17 18  2  0
 18 19  1  0
 19 20  2  0
 20 21  1  0
 20 22  1  0
 22 23  2  0
 23 24  1  0
 24 25  2  0
 25 26  1  0
 25 27  1  0
 27 28  2  0
 28 13  1  0
 19 14  1  0
 28 22  1  0
  1 29  1  0
  1 30  1  0
  1 31  1  0
  2 32  1  0
  2 33  1  0
  3 34  1  0
  4 35  1  0
  4 36  1  0
  5 37  1  0
  5 38  1  0
  7 39  1  0
  7 40  1  0
  8 41  1  0
  8 42  1  0
  9 43  1  0
 10 44  1  0
 10 45  1  0
 11 46  1  0
 11 47  1  0
 12 48  1  0
 15 49  1  0
 16 50  1  0
 17 51  1  0
 18 52  1  0
 21 53  1  0
 21 54  1  0
 21 55  1  0
 23 56  1  0
 24 57  1  0
 27 58  1  0
M  CHG  1  20   1
M  END
>  <UniqueID>  (9) 
9

>  <SMILES>  (9) 
CCNCCOCCNCCNc1c2ccccc2[n+](C)c2ccc(Cl)cc12

>  <Energy>  (9) 
80.71059909049994

>  <Genealogy>  (9) 
CCNCCOCCNCCNc1c2ccccc2[n+](C)c2ccc(Cl)cc12 (3D coordinates assigned)
CCNCCOCCNCCNc1c2ccccc2[n+](C)c2ccc(Cl)cc12 (optimized conformer: 80.71059909049994 kcal/mol)

>  <smiles>  (9) 
CCNCCOCCNCCNc1c2ccccc2[n+](C)c2ccc(Cl)cc12

>  <score_type>  (9) 
oracle

>  <origin>  (9) 
adg

>  <m_score__min__energy>  (9) 
-5.4400000000000004

>  <m_primary>  (9) 
energy

$$$$
9:0
     RDKit          3D

 49 51  0  0  0  0  0  0  0  0999 V2000
   63.3700   33.8200   46.3890 C   0  0  0  0  0  0  0  0  0  0  0  0
   62.3780   33.3510   47.4640 C   0  0  0  0  0  0  0  0  0  0  0  0
   62.7540   32.0870   48.1420 N   0  0  0  0  0  0  0  0  0  0  0  0
   64.1230   32.1320   48.6840 C   0  0  0  0  0  0  0  0  0  0  0  0
   61.7970   31.6210   49.1690 C   0  0  0  0  0  0  0  0  0  0  0  0
   60.5270   31.0170   48.5540 C   0  0  0  0  0  0  0  0  0  0  0  0
   60.6630   30.8400   47.1070 N   0  0  0  0  0  0  0  0  0  0  0  0
   59.5130   30.8600   46.2450 C   0  0  0  0  0  0  0  0  0  0  0  0
   58.9280   32.0920   45.9150 C   0  0  0  0  0  0  0  0  0  0  0  0
   59.1880   33.2490   46.6790 C   0  0  0  0  0  0  0  0  0  0  0  0
   58.5890   34.4640   46.3570 C   0  0  0  0  0  0  0  0  0  0  0  0
   57.7100   34.5440   45.2830 C   0  0  0  0  0  0  0  0  0  0  0  0
   57.4470   33.4140   44.5070 C   0  0  0  0  0  0  0  0  0  0  0  0
   58.0750   32.1740   44.7860 C   0  0  0  0  0  0  0  0  0  0  0  0
   57.8900   31.0660   43.9840 N   0  0  0  0  0  0  0  0  0  0  0  0
   57.3130   31.2250   42.6290 C   0  0  0  0  0  0  0  0  0  0  0  0
   58.2500   29.8130   44.4450 C   0  0  0  0  0  0  0  0  0  0  0  0
   57.8260   28.6370   43.7800 C   0  0  0  0  0  0  0  0  0  0  0  0
   58.1960   27.3780   44.2340 C   0  0  0  0  0  0  0  0  0  0  0  0
   58.9320   27.2440   45.4000 C   0  0  0  0  0  0  0  0  0  0  0  0
   59.3200   28.3720   46.1380 C   0  0  0  0  0  0  0  0  0  0  0  0
   59.9100   28.1220   47.5060 C   0  0  0  0  0  0  0  0  0  0  0  0
   59.0480   29.6780   45.6210 C   0  0  0  0  0  0  0  0  0  0  0  0
   64.2629   34.2422   46.8732 H   0  0  0  0  0  0  0  0  0  0  0  0
   63.6626   32.9649   45.7620 H   0  0  0  0  0  0  0  0  0  0  0  0
   62.8948   34.5888   45.7620 H   0  0  0  0  0  0  0  0  0  0  0  0
   62.3007   34.1397   48.2269 H   0  0  0  0  0  0  0  0  0  0  0  0
   61.4270   33.1562   46.9467 H   0  0  0  0  0  0  0  0  0  0  0  0
   64.0824   32.1307   49.7832 H   0  0  0  0  0  0  0  0  0  0  0  0
   64.6840   31.2518   48.3367 H   0  0  0  0  0  0  0  0  0  0  0  0
   64.6249   33.0471   48.3367 H   0  0  0  0  0  0  0  0  0  0  0  0
   62.2880   30.8558   49.7882 H   0  0  0  0  0  0  0  0  0  0  0  0
   61.4973   32.4932   49.7686 H   0  0  0  0  0  0  0  0  0  0  0  0
   60.3364   30.0378   49.0175 H   0  0  0  0  0  0  0  0  0  0  0  0
   59.6914   31.7078   48.7400 H   0  0  0  0  0  0  0  0  0  0  0  0
   61.5990   30.5990   46.7110 H   0  0  0  0  0  0  0  0  0  0  0  0
   59.8716   33.1907   47.5388 H   0  0  0  0  0  0  0  0  0  0  0  0
   58.8115   35.3614   46.9530 H   0  0  0  0  0  0  0  0  0  0  0  0
   57.2207   35.4998   45.0442 H   0  0  0  0  0  0  0  0  0  0  0  0
   56.7416   33.4867   43.6661 H   0  0  0  0  0  0  0  0  0  0  0  0
   56.2556   31.5164   42.7126 H   0  0  0  0  0  0  0  0  0  0  0  0
   57.8661   32.0042   42.0841 H   0  0  0  0  0  0  0  0  0  0  0  0
   57.3889   30.2725   42.0841 H   0  0  0  0  0  0  0  0  0  0  0  0
   57.1909   28.7225   42.8860 H   0  0  0  0  0  0  0  0  0  0  0  0
   57.9034   26.4830   43.6653 H   0  0  0  0  0  0  0  0  0  0  0  0
   59.2155   26.2409   45.7513 H   0  0  0  0  0  0  0  0  0  0  0  0
   59.1885   28.4277   48.2780 H   0  0  0  0  0  0  0  0  0  0  0  0
   60.1352   27.0511   47.6181 H   0  0  0  0  0  0  0  0  0  0  0  0
   60.8360   28.7051   47.6181 H   0  0  0  0  0  0  0  0  0  0  0  0
  1  2  1  0
  2  3  1  0
  3  4  1  0
  3  5  1  0
  5  6  1  0
  6  7  1  0
  7  8  1  0
  8  9  2  0
  9 10  1  0
 10 11  2  0
 11 12  1  0
 12 13  2  0
 13 14  1  0
 14 15  2  0
 15 16  1  0
 15 17  1  0
 17 18  2  0
 18 19  1  0
 19 20  2  0
 20 21  1  0
 21 22  1  0
 21 23  2  0
 23  8  1  0
 14  9  1  0
 23 17  1  0
  1 24  1  0
  1 25  1  0
  1 26  1  0
  2 27  1  0
  2 28  1  0
  4 29  1  0
  4 30  1  0
  4 31  1  0
  5 32  1  0
  5 33  1  0
  6 34  1  0
  6 35  1  0
  7 36  1  0
 10 37  1  0
 11 38  1  0
 12 39  1  0
 13 40  1  0
 16 41  1  0
 16 42  1  0
 16 43  1  0
 18 44  1  0
 19 45  1  0
 20 46  1  0
 22 47  1  0
 22 48  1  0
 22 49  1  0
M  CHG  1  15   1
M  END
>  <UniqueID>  (10) 
10

>  <SMILES>  (10) 
CCN(C)CCNc1c2ccccc2[n+](C)c2cccc(C)c12

>  <Energy>  (10) 
84.3721812281467

>  <Genealogy>  (10) 
CCN(C)CCNc1c2ccccc2[n+](C)c2cccc(C)c12 (3D coordinates assigned)
CCN(C)CCNc1c2ccccc2[n+](C)c2cccc(C)c12 (optimized conformer: 84.3721812281467 kcal/mol)

>  <smiles>  (10) 
CCN(C)CCNc1c2ccccc2[n+](C)c2cccc(C)c12

>  <score_type>  (10) 
oracle

>  <origin>  (10) 
adg

>  <m_score__min__energy>  (10) 
-5.6600000000000001

>  <m_primary>  (10) 
energy

$$$$
10:0
     RDKit          3D

 63 65  0  0  0  0  0  0  0  0999 V2000
   58.5234   26.7887   42.3153 H   0  0  0  0  0  0  0  0  0  0  0  0
   58.1180   27.0130   43.3130 C   0  0  0  0  0  0  0  0  0  0  0  0
   57.7780   25.9870   44.1020 C   0  0  0  0  0  0  0  0  0  0  0  0
   57.5309   25.0163   43.6473 H   0  0  0  0  0  0  0  0  0  0  0  0
   57.7270   26.1340   45.5950 C   0  0  0  0  0  0  0  0  0  0  0  0
   58.0166   25.1809   46.0616 H   0  0  0  0  0  0  0  0  0  0  0  0
   58.4210   26.9329   45.8951 H   0  0  0  0  0  0  0  0  0  0  0  0
   56.3130   26.5110   46.0560 C   0  0  0  0  0  0  0  0  0  0  0  0
   56.3844   27.2210   46.8932 H   0  0  0  0  0  0  0  0  0  0  0  0
   55.7774   26.9669   45.2103 H   0  0  0  0  0  0  0  0  0  0  0  0
   55.5650   25.3130   46.4990 N   0  0  0  0  0  0  0  0  0  0  0  0
   56.4600   24.4060   47.2400 C   0  0  0  0  0  0  0  0  0  0  0  0
   56.3164   24.5515   48.3208 H   0  0  0  0  0  0  0  0  0  0  0  0
   56.2264   23.3640   46.9761 H   0  0  0  0  0  0  0  0  0  0  0  0
   57.5050   24.6257   46.9761 H   0  0  0  0  0  0  0  0  0  0  0  0
   54.9930   24.5960   45.3460 C   0  0  0  0  0  0  0  0  0  0  0  0
   54.3445   23.7831   45.7047 H   0  0  0  0  0  0  0  0  0  0  0  0
   54.4016   25.2949   44.7362 H   0  0  0  0  0  0  0  0  0  0  0  0
   55.8058   24.1747   44.7362 H   0  0  0  0  0  0  0  0  0  0  0  0
   57.9790   28.4340   43.7080 C   0  0  0  0  0  0  0  0  0  0  0  0
   57.0040   29.2800   43.1400 C   0  0  0  0  0  0  0  0  0  0  0  0
   56.3398   28.8951   42.3521 H   0  0  0  0  0  0  0  0  0  0  0  0
   56.8750   30.6030   43.5700 C   0  0  0  0  0  0  0  0  0  0  0  0
   56.1054   31.2515   43.1260 H   0  0  0  0  0  0  0  0  0  0  0  0
   57.7230   31.1060   44.5650 C   0  0  0  0  0  0  0  0  0  0  0  0
   57.5830   32.4170   45.0400 C   0  0  0  0  0  0  0  0  0  0  0  0
   56.8068   33.0753   44.6227 H   0  0  0  0  0  0  0  0  0  0  0  0
   58.4350   32.8860   46.0480 C   0  0  0  0  0  0  0  0  0  0  0  0
   58.2950   34.1770   46.5730 C   0  0  0  0  0  0  0  0  0  0  0  0
   57.5161   34.8475   46.1809 H   0  0  0  0  0  0  0  0  0  0  0  0
   59.1430   34.6150   47.5940 C   0  0  0  0  0  0  0  0  0  0  0  0
   59.0224   35.6269   48.0082 H   0  0  0  0  0  0  0  0  0  0  0  0
   60.1510   33.7690   48.0960 C   0  0  0  0  0  0  0  0  0  0  0  0
   61.0070   34.1610   49.1350 O   0  0  0  0  0  0  0  0  0  0  0  0
   61.1180   33.4740   50.3780 C   0  0  0  0  0  0  0  0  0  0  0  0
   60.2716   32.7788   50.4796 H   0  0  0  0  0  0  0  0  0  0  0  0
   61.1104   34.2189   51.1874 H   0  0  0  0  0  0  0  0  0  0  0  0
   62.4350   32.6770   50.4640 C   0  0  0  0  0  0  0  0  0  0  0  0
   62.2261   31.6423   50.1544 H   0  0  0  0  0  0  0  0  0  0  0  0
   62.7757   32.7671   51.5060 H   0  0  0  0  0  0  0  0  0  0  0  0
   63.5510   33.1920   49.6220 N   0  0  0  0  0  0  0  0  0  0  0  0
   63.1870   34.1010   49.2410 H   0  0  0  0  0  0  0  0  0  0  0  0
   64.7790   33.4640   50.4280 C   0  0  0  0  0  0  0  0  0  0  0  0
   64.5415   33.3164   51.4919 H   0  0  0  0  0  0  0  0  0  0  0  0
   65.0903   34.4984   50.2203 H   0  0  0  0  0  0  0  0  0  0  0  0
   65.9490   32.5440   50.0540 C   0  0  0  0  0  0  0  0  0  0  0  0
   66.4272   32.1680   50.9705 H   0  0  0  0  0  0  0  0  0  0  0  0
   65.5740   31.6963   49.4617 H   0  0  0  0  0  0  0  0  0  0  0  0
   66.6844   33.1083   49.4617 H   0  0  0  0  0  0  0  0  0  0  0  0
   63.8110   32.2960   48.4580 C   0  0  0  0  0  0  0  0  0  0  0  0
   64.8411   31.9171   48.5307 H   0  0  0  0  0  0  0  0  0  0  0  0
   63.0706   31.4834   48.4967 H   0  0  0  0  0  0  0  0  0  0  0  0
   63.6450   33.0030   47.1090 C   0  0  0  0  0  0  0  0  0  0  0  0
   63.3965   34.0612   47.2777 H   0  0  0  0  0  0  0  0  0  0  0  0
   64.5840   32.9330   46.5403 H   0  0  0  0  0  0  0  0  0  0  0  0
   62.8353   32.5224   46.5403 H   0  0  0  0  0  0  0  0  0  0  0  0
   60.3030   32.4850   47.5560 C   0  0  0  0  0  0  0  0  0  0  0  0
   61.1040   31.8283   47.9262 H   0  0  0  0  0  0  0  0  0  0  0  0
   59.4430   32.0320   46.5490 C   0  0  0  0  0  0  0  0  0  0  0  0
   59.5610   30.7660   46.0690 N   0  0  0  0  0  0  0  0  0  0  0  0
   58.7300   30.2820   45.1070 C   0  0  0  0  0  0  0  0  0  0  0  0
   58.8560   28.9560   44.6730 C   0  0  0  0  0  0  0  0  0  0  0  0
   59.6485   28.3182   45.0915 H   0  0  0  0  0  0  0  0  0  0  0  0
  1  2  1  0
  2  3  2  0
  3  4  1  0
  3  5  1  0
  5  6  1  0
  5  7  1  0
  5  8  1  0
  8  9  1  0
  8 10  1  0
  8 11  1  0
 11 12  1  0
 12 13  1  0
 12 14  1  0
 12 15  1  0
 11 16  1  0
 16 17  1  0
 16 18  1  0
 16 19  1  0
  2 20  1  0
 20 21  2  0
 21 22  1  0
 21 23  1  0
 23 24  1  0
 23 25  2  0
 25 26  1  0
 26 27  1  0
 26 28  2  0
 28 29  1  0
 29 30  1  0
 29 31  2  0
 31 32  1  0
 31 33  1  0
 33 34  1  0
 34 35  1  0
 35 36  1  0
 35 37  1  0
 35 38  1  0
 38 39  1  0
 38 40  1  0
 38 41  1  0
 41 42  1  0
 41 43  1  0
 43 44  1  0
 43 45  1  0
 43 46  1  0
 46 47  1  0
 46 48  1  0
 46 49  1  0
 41 50  1  0
 50 51  1  0
 50 52  1  0
 50 53  1  0
 53 54  1  0
 53 55  1  0
 53 56  1  0
 33 57  2  0
 57 58  1  0
 57 59  1  0
 59 60  2  0
 60 61  1  0
 61 62  2  0
 62 63  1  0
 62 20  1  0
 61 25  1  0
 59 28  1  0
M  CHG  1  41   1
M  END
>  <UniqueID>  (11) 
11

>  <SMILES>  (11) 
CC[NH+](CC)CCOc1ccc2cc3ccc(/C=C/CCN(C)C)cc3nc2c1

>  <Energy>  (11) 
73.63650331907957

>  <Genealogy>  (11) 
CC[NH+](CC)CCOc1ccc2cc3ccc(C=CCCN(C)C)cc3nc2c1 (protonated)
CC[NH+](CC)CCOc1ccc2cc3ccc(/C=C/CCN(C)C)cc3nc2c1 (cis-trans isomerization)
CC[NH+](CC)CCOc1ccc2cc3ccc(/C=C/CCN(C)C)cc3nc2c1 (3D coordinates assigned)
CC[NH+](CC)CCOc1ccc2cc3ccc(/C=C/CCN(C)C)cc3nc2c1 (optimized conformer: 73.63650331907957 kcal/mol)

>  <smiles>  (11) 
CCN(CC)CCOc1ccc2cc3ccc(C=CCCN(C)C)cc3nc2c1

>  <score_type>  (11) 
oracle

>  <origin>  (11) 
adg

>  <m_score__min__energy>  (11) 
-6.9299999999999997

>  <m_primary>  (11) 
energy

$$$$
11:0
     RDKit          3D

 64 66  0  0  0  0  0  0  0  0999 V2000
   57.0100   30.4750   43.4870 C   0  0  0  0  0  0  0  0  0  0  0  0
   56.3970   29.4600   44.4450 C   0  0  0  0  0  0  0  0  0  0  0  0
   57.4390   28.8240   45.2900 N   0  0  0  0  0  0  0  0  0  0  0  0
   57.0240   27.4470   45.6560 C   0  0  0  0  0  0  0  0  0  0  0  0
   57.9460   26.8790   46.7290 C   0  0  0  0  0  0  0  0  0  0  0  0
   58.7390   28.8010   44.5750 C   0  0  0  0  0  0  0  0  0  0  0  0
   59.8810   29.3880   45.4380 C   0  0  0  0  0  0  0  0  0  0  0  0
   59.4330   29.8430   46.7710 N   0  0  0  0  0  0  0  0  0  0  0  0
   60.0630   31.0840   47.2090 C   0  0  0  0  0  0  0  0  0  0  0  0
   59.7150   32.3170   46.6050 C   0  0  0  0  0  0  0  0  0  0  0  0
   58.4930   32.4990   45.9210 C   0  0  0  0  0  0  0  0  0  0  0  0
   58.2100   33.7030   45.2780 C   0  0  0  0  0  0  0  0  0  0  0  0
   59.1320   34.7450   45.3090 C   0  0  0  0  0  0  0  0  0  0  0  0
   60.3360   34.5930   45.9930 C   0  0  0  0  0  0  0  0  0  0  0  0
   60.6400   33.3840   46.6620 C   0  0  0  0  0  0  0  0  0  0  0  0
   61.8300   33.2180   47.3240 N   0  0  0  0  0  0  0  0  0  0  0  0
   63.0230   33.9170   46.8070 C   0  0  0  0  0  0  0  0  0  0  0  0
   61.9380   32.2400   48.2940 C   0  0  0  0  0  0  0  0  0  0  0  0
   61.0530   31.1170   48.2360 C   0  0  0  0  0  0  0  0  0  0  0  0
   61.1810   30.1080   49.2340 C   0  0  0  0  0  0  0  0  0  0  0  0
   60.1230   29.1760   49.5290 N   0  0  0  0  0  0  0  0  0  0  0  0
   58.9370   29.6400   50.2480 C   0  0  0  0  0  0  0  0  0  0  0  0
   60.3840   27.7360   49.4730 C   0  0  0  0  0  0  0  0  0  0  0  0
   62.2730   30.1390   50.0950 C   0  0  0  0  0  0  0  0  0  0  0  0
   63.1010   31.2450   50.1260 C   0  0  0  0  0  0  0  0  0  0  0  0
   62.8680   32.3230   49.3210 N   0  0  0  0  0  0  0  0  0  0  0  0
   63.4300   33.6050   49.8020 C   0  0  0  0  0  0  0  0  0  0  0  0
   64.8500   33.4450   50.3540 C   0  0  0  0  0  0  0  0  0  0  0  0
   57.4944   31.2770   44.0633 H   0  0  0  0  0  0  0  0  0  0  0  0
   57.7578   29.9759   42.8532 H   0  0  0  0  0  0  0  0  0  0  0  0
   56.2202   30.9045   42.8532 H   0  0  0  0  0  0  0  0  0  0  0  0
   55.6713   29.9718   45.0942 H   0  0  0  0  0  0  0  0  0  0  0  0
   55.9016   28.6764   43.8530 H   0  0  0  0  0  0  0  0  0  0  0  0
   55.9932   27.4694   46.0393 H   0  0  0  0  0  0  0  0  0  0  0  0
   57.0824   26.8084   44.7623 H   0  0  0  0  0  0  0  0  0  0  0  0
   57.5463   27.1253   47.7238 H   0  0  0  0  0  0  0  0  0  0  0  0
   58.0074   25.7863   46.6187 H   0  0  0  0  0  0  0  0  0  0  0  0
   58.9496   27.3156   46.6187 H   0  0  0  0  0  0  0  0  0  0  0  0
   58.9857   27.7602   44.3185 H   0  0  0  0  0  0  0  0  0  0  0  0
   58.6422   29.4193   43.6704 H   0  0  0  0  0  0  0  0  0  0  0  0
   60.6495   28.6128   45.5739 H   0  0  0  0  0  0  0  0  0  0  0  0
   60.2700   30.2694   44.9071 H   0  0  0  0  0  0  0  0  0  0  0  0
   59.6250   29.0480   47.4090 H   0  0  0  0  0  0  0  0  0  0  0  0
   58.3950   29.9710   46.7670 H   0  0  0  0  0  0  0  0  0  0  0  0
   57.7568   31.6821   45.8953 H   0  0  0  0  0  0  0  0  0  0  0  0
   57.2561   33.8297   44.7451 H   0  0  0  0  0  0  0  0  0  0  0  0
   58.9096   35.6904   44.7924 H   0  0  0  0  0  0  0  0  0  0  0  0
   61.0584   35.4222   46.0132 H   0  0  0  0  0  0  0  0  0  0  0  0
   63.6327   34.2742   47.6500 H   0  0  0  0  0  0  0  0  0  0  0  0
   63.6167   33.2239   46.1929 H   0  0  0  0  0  0  0  0  0  0  0  0
   62.7086   34.7737   46.1929 H   0  0  0  0  0  0  0  0  0  0  0  0
   59.1145   29.5706   51.3314 H   0  0  0  0  0  0  0  0  0  0  0  0
   58.7295   30.6856   49.9767 H   0  0  0  0  0  0  0  0  0  0  0  0
   58.0750   29.0128   49.9767 H   0  0  0  0  0  0  0  0  0  0  0  0
   60.4564   27.3365   50.4953 H   0  0  0  0  0  0  0  0  0  0  0  0
   59.5621   27.2348   48.9408 H   0  0  0  0  0  0  0  0  0  0  0  0
   61.3296   27.5552   48.9408 H   0  0  0  0  0  0  0  0  0  0  0  0
   62.4779   29.2814   50.7526 H   0  0  0  0  0  0  0  0  0  0  0  0
   63.9620   31.2571   50.8105 H   0  0  0  0  0  0  0  0  0  0  0  0
   63.4540   34.3175   48.9643 H   0  0  0  0  0  0  0  0  0  0  0  0
   62.7896   33.9683   50.6192 H   0  0  0  0  0  0  0  0  0  0  0  0
   64.8185   33.4485   51.4535 H   0  0  0  0  0  0  0  0  0  0  0  0
   65.2750   32.4933   50.0024 H   0  0  0  0  0  0  0  0  0  0  0  0
   65.4761   34.2783   50.0024 H   0  0  0  0  0  0  0  0  0  0  0  0
  1  2  1  0
  2  3  1  0
  3  4  1  0
  4  5  1  0
  3  6  1  0
  6  7  1  0
  7  8  1  0
  8  9  1  0
  9 10  2  0
 10 11  1  0
 11 12  2  0
 12 13  1  0
 13 14  2  0
 14 15  1  0
 15 16  2  0
 16 17  1  0
 16 18  1  0
 18 19  2  0
 19 20  1  0
 20 21  1  0
 21 22  1  0
 21 23  1  0
 20 24  2  0
 24 25  1  0
 25 26  2  0
 26 27  1  0
 27 28  1  0
 19  9  1  0
 15 10  1  0
 26 18  1  0
  1 29  1  0
  1 30  1  0
  1 31  1  0
  2 32  1  0
  2 33  1  0
  4 34  1  0
  4 35  1  0
  5 36  1  0
  5 37  1  0
  5 38  1  0
  6 39  1  0
  6 40  1  0
  7 41  1  0
  7 42  1  0
  8 43  1  0
  8 44  1  0
 11 45  1  0
 12 46  1  0
 13 47  1  0
 14 48  1  0
 17 49  1  0
 17 50  1  0
 17 51  1  0
 22 52  1  0
 22 53  1  0
 22 54  1  0
 23 55  1  0
 23 56  1  0
 23 57  1  0
 24 58  1  0
 25 59  1  0
 27 60  1  0
 27 61  1  0
 28 62  1  0
 28 63  1  0
 28 64  1  0
M  CHG  3   8   1  16   1  26   1
M  END
>  <UniqueID>  (12) 
12

>  <SMILES>  (12) 
CCN(CC)CC[NH2+]c1c2ccccc2[n+](C)c2c1c(N(C)C)cc[n+]2CC

>  <Energy>  (12) 
115.03531936923785

>  <Genealogy>  (12) 
CCN(CC)CC[NH2+]c1c2ccccc2[n+](C)c2c1c(N(C)C)cc[n+]2CC (protonated)
CCN(CC)CC[NH2+]c1c2ccccc2[n+](C)c2c1c(N(C)C)cc[n+]2CC (3D coordinates assigned)
CCN(CC)CC[NH2+]c1c2ccccc2[n+](C)c2c1c(N(C)C)cc[n+]2CC (optimized conformer: 115.03531936923785 kcal/mol)

>  <smiles>  (12) 
CCN(CC)CCNc1c2ccccc2[n+](C)c2c1c(N(C)C)cc[n+]2CC

>  <score_type>  (12) 
oracle

>  <origin>  (12) 
adg

>  <m_score__min__energy>  (12) 
-2.8199999999999998

>  <m_primary>  (12) 
energy

$$$$
12:0
     RDKit          3D

 78 81  0  0  0  0  0  0  0  0999 V2000
   57.2230   32.3020   52.1690 C   0  0  0  0  0  0  0  0  0  0  0  0
   56.7180   30.9050   51.7980 C   0  0  0  0  0  0  0  0  0  0  0  0
   57.7700   30.0830   51.1550 N   0  0  0  0  0  0  0  0  0  0  0  0
   58.7240   29.5690   52.1590 C   0  0  0  0  0  0  0  0  0  0  0  0
   58.4920   30.8850   50.1360 C   0  0  0  0  0  0  0  0  0  0  0  0
   59.2370   29.9750   49.1530 C   0  0  0  0  0  0  0  0  0  0  0  0
   59.9450   30.7630   48.1450 N   0  0  0  0  0  0  0  0  0  0  0  0
   59.2420   31.2660   46.9950 C   0  0  0  0  0  0  0  0  0  0  0  0
   58.5200   30.3760   46.1840 C   0  0  0  0  0  0  0  0  0  0  0  0
   58.3000   29.0400   46.5860 C   0  0  0  0  0  0  0  0  0  0  0  0
   57.5240   28.1840   45.8100 C   0  0  0  0  0  0  0  0  0  0  0  0
   56.9530   28.6400   44.6280 C   0  0  0  0  0  0  0  0  0  0  0  0
   57.1890   29.9420   44.1930 C   0  0  0  0  0  0  0  0  0  0  0  0
   58.0080   30.8260   44.9390 C   0  0  0  0  0  0  0  0  0  0  0  0
   58.3170   32.0910   44.4840 N   0  0  0  0  0  0  0  0  0  0  0  0
   58.0880   32.4420   43.0640 C   0  0  0  0  0  0  0  0  0  0  0  0
   58.8550   33.0270   45.3480 C   0  0  0  0  0  0  0  0  0  0  0  0
   58.9580   34.3930   44.9880 C   0  0  0  0  0  0  0  0  0  0  0  0
   59.5120   35.3260   45.8560 C   0  0  0  0  0  0  0  0  0  0  0  0
   59.9180   34.9470   47.1270 C   0  0  0  0  0  0  0  0  0  0  0  0
   59.7650   33.6200   47.5570 C   0  0  0  0  0  0  0  0  0  0  0  0
   60.0070   33.2600   48.8950 O   0  0  0  0  0  0  0  0  0  0  0  0
   59.6440   34.0020   50.0560 C   0  0  0  0  0  0  0  0  0  0  0  0
   60.2540   33.4520   51.3730 C   0  0  0  0  0  0  0  0  0  0  0  0
   61.6950   33.0120   51.3620 N   0  0  0  0  0  0  0  0  0  0  0  0
   62.0560   32.7490   52.7850 C   0  0  0  0  0  0  0  0  0  0  0  0
   62.6250   34.0710   50.8400 C   0  0  0  0  0  0  0  0  0  0  0  0
   63.0450   33.8310   49.3730 C   0  0  0  0  0  0  0  0  0  0  0  0
   63.7670   32.5290   49.1870 N   0  0  0  0  0  0  0  0  0  0  0  0
   63.5620   32.0480   47.7990 C   0  0  0  0  0  0  0  0  0  0  0  0
   65.2260   32.7430   49.3800 C   0  0  0  0  0  0  0  0  0  0  0  0
   63.2900   31.4790   50.1460 C   0  0  0  0  0  0  0  0  0  0  0  0
   61.8390   31.7240   50.6090 C   0  0  0  0  0  0  0  0  0  0  0  0
   59.3040   32.6330   46.6420 C   0  0  0  0  0  0  0  0  0  0  0  0
   57.2585   32.4002   53.2640 H   0  0  0  0  0  0  0  0  0  0  0  0
   58.2313   32.4494   51.7548 H   0  0  0  0  0  0  0  0  0  0  0  0
   56.5420   33.0600   51.7548 H   0  0  0  0  0  0  0  0  0  0  0  0
   56.3800   30.3959   52.7126 H   0  0  0  0  0  0  0  0  0  0  0  0
   55.8944   31.0232   51.0785 H   0  0  0  0  0  0  0  0  0  0  0  0
   58.3403   29.7757   53.1690 H   0  0  0  0  0  0  0  0  0  0  0  0
   58.8450   28.4836   52.0278 H   0  0  0  0  0  0  0  0  0  0  0  0
   59.6971   30.0649   52.0278 H   0  0  0  0  0  0  0  0  0  0  0  0
   57.7674   31.4987   49.5807 H   0  0  0  0  0  0  0  0  0  0  0  0
   59.2253   31.5260   50.6473 H   0  0  0  0  0  0  0  0  0  0  0  0
   59.9640   29.3641   49.7082 H   0  0  0  0  0  0  0  0  0  0  0  0
   58.5032   29.3324   48.6445 H   0  0  0  0  0  0  0  0  0  0  0  0
   60.8680   31.1830   48.3880 H   0  0  0  0  0  0  0  0  0  0  0  0
   58.7464   28.6724   47.5217 H   0  0  0  0  0  0  0  0  0  0  0  0
   57.3624   27.1449   46.1328 H   0  0  0  0  0  0  0  0  0  0  0  0
   56.3129   27.9709   44.0343 H   0  0  0  0  0  0  0  0  0  0  0  0
   56.7321   30.2899   43.2548 H   0  0  0  0  0  0  0  0  0  0  0  0
   57.4878   33.3620   43.0059 H   0  0  0  0  0  0  0  0  0  0  0  0
   59.0553   32.6032   42.5655 H   0  0  0  0  0  0  0  0  0  0  0  0
   57.5508   31.6216   42.5655 H   0  0  0  0  0  0  0  0  0  0  0  0
   58.5929   34.7212   44.0036 H   0  0  0  0  0  0  0  0  0  0  0  0
   59.6292   36.3711   45.5333 H   0  0  0  0  0  0  0  0  0  0  0  0
   60.3631   35.6921   47.8028 H   0  0  0  0  0  0  0  0  0  0  0  0
   59.9846   35.0396   49.9239 H   0  0  0  0  0  0  0  0  0  0  0  0
   58.5512   33.9242   50.1546 H   0  0  0  0  0  0  0  0  0  0  0  0
   60.1607   34.2437   52.1310 H   0  0  0  0  0  0  0  0  0  0  0  0
   59.6891   32.5289   51.5698 H   0  0  0  0  0  0  0  0  0  0  0  0
   61.3450   33.2670   53.4454 H   0  0  0  0  0  0  0  0  0  0  0  0
   62.0158   31.6671   52.9796 H   0  0  0  0  0  0  0  0  0  0  0  0
   63.0735   33.1189   52.9796 H   0  0  0  0  0  0  0  0  0  0  0  0
   62.1193   35.0457   50.9055 H   0  0  0  0  0  0  0  0  0  0  0  0
   63.5372   34.0415   51.4540 H   0  0  0  0  0  0  0  0  0  0  0  0
   62.1426   33.8268   48.7440 H   0  0  0  0  0  0  0  0  0  0  0  0
   63.7343   34.6390   49.0866 H   0  0  0  0  0  0  0  0  0  0  0  0
   63.1308   31.0363   47.8215 H   0  0  0  0  0  0  0  0  0  0  0  0
   62.8753   32.7276   47.2731 H   0  0  0  0  0  0  0  0  0  0  0  0
   64.5278   32.0234   47.2731 H   0  0  0  0  0  0  0  0  0  0  0  0
   65.4525   32.7762   50.4559 H   0  0  0  0  0  0  0  0  0  0  0  0
   65.7826   31.9169   48.9134 H   0  0  0  0  0  0  0  0  0  0  0  0
   65.5220   33.6942   48.9134 H   0  0  0  0  0  0  0  0  0  0  0  0
   63.3424   30.4980   49.6511 H   0  0  0  0  0  0  0  0  0  0  0  0
   63.9373   31.5161   51.0346 H   0  0  0  0  0  0  0  0  0  0  0  0
   61.1855   31.7556   49.7247 H   0  0  0  0  0  0  0  0  0  0  0  0
   61.5573   30.9038   51.2857 H   0  0  0  0  0  0  0  0  0  0  0  0
  1  2  1  0
  2  3  1  0
  3  4  1  0
  3  5  1  0
  5  6  1  0
  6  7  1  0
  7  8  1  0
  8  9  2  0
  9 10  1  0
 10 11  2  0
 11 12  1  0
 12 13  2  0
 13 14  1  0
 14 15  2  0
 15 16  1  0
 15 17  1  0
 17 18  2  0
 18 19  1  0
 19 20  2  0
 20 21  1  0
 21 22  1  0
 22 23  1  0
 23 24  1  0
 24 25  1  0
 25 26  1  0
 25 27  1  0
 27 28  1  0
 28 29  1  0
 29 30  1  0
 29 31  1  0
 29 32  1  0
 32 33  1  0
 21 34  2  0
 34  8  1  0
 14  9  1  0
 34 17  1  0
 33 25  1  0
  1 35  1  0
  1 36  1  0
  1 37  1  0
  2 38  1  0
  2 39  1  0
  4 40  1  0
  4 41  1  0
  4 42  1  0
  5 43  1  0
  5 44  1  0
  6 45  1  0
  6 46  1  0
  7 47  1  0
 10 48  1  0
 11 49  1  0
 12 50  1  0
 13 51  1  0
 16 52  1  0
 16 53  1  0
 16 54  1  0
 18 55  1  0
 19 56  1  0
 20 57  1  0
 23 58  1  0
 23 59  1  0
 24 60  1  0
 24 61  1  0
 26 62  1  0
 26 63  1  0
 26 64  1  0
 27 65  1  0
 27 66  1  0
 28 67  1  0
 28 68  1  0
 30 69  1  0
 30 70  1  0
 30 71  1  0
 31 72  1  0
 31 73  1  0
 31 74  1  0
 32 75  1  0
 32 76  1  0
 33 77  1  0
 33 78  1  0
M  CHG  3  15   1  25   1  29   1
M  END
>  <UniqueID>  (13) 
13

>  <SMILES>  (13) 
CCN(C)CCNc1c2ccccc2[n+](C)c2cccc(OCC[N+]3(C)CC[N+](C)(C)CC3)c12

>  <Energy>  (13) 
134.40099298865275

>  <Genealogy>  (13) 
CCN(C)CCNc1c2ccccc2[n+](C)c2cccc(OCC[N+]3(C)CC[N+](C)(C)CC3)c12 (3D coordinates assigned)
CCN(C)CCNc1c2ccccc2[n+](C)c2cccc(OCC[N+]3(C)CC[N+](C)(C)CC3)c12 (nonaromatic ring conformer: 134.40099298865275 kcal/mol)

>  <smiles>  (13) 
CCN(C)CCNc1c2ccccc2[n+](C)c2cccc(OCC[N+]3(C)CC[N+](C)(C)CC3)c12

>  <score_type>  (13) 
oracle

>  <origin>  (13) 
adg

>  <m_score__min__energy>  (13) 
-3.98

>  <m_primary>  (13) 
energy

$$$$
13:0
     RDKit          3D

 57 60  0  0  0  0  0  0  0  0999 V2000
   57.7550   33.7650   44.6230 C   0  0  0  0  0  0  0  0  0  0  0  0
   57.4050   32.4360   43.9450 C   0  0  0  0  0  0  0  0  0  0  0  0
   56.8010   31.4650   44.8740 N   0  0  0  0  0  0  0  0  0  0  0  0
   55.9090   30.5170   44.1850 C   0  0  0  0  0  0  0  0  0  0  0  0
   56.6700   29.2320   43.7990 C   0  0  0  0  0  0  0  0  0  0  0  0
   58.1420   29.3730   43.8770 N   0  0  0  0  0  0  0  0  0  0  0  0
   58.7520   28.8430   45.0920 C   0  0  0  0  0  0  0  0  0  0  0  0
   58.5070   27.5060   45.4840 C   0  0  0  0  0  0  0  0  0  0  0  0
   59.1370   26.9530   46.5950 C   0  0  0  0  0  0  0  0  0  0  0  0
   59.9870   27.7250   47.3750 C   0  0  0  0  0  0  0  0  0  0  0  0
   60.1730   29.0820   47.0850 C   0  0  0  0  0  0  0  0  0  0  0  0
   60.9760   29.8630   47.9200 C   0  0  0  0  0  0  0  0  0  0  0  0
   61.1180   31.2370   47.6800 C   0  0  0  0  0  0  0  0  0  0  0  0
   60.4070   31.8190   46.6600 N   0  0  0  0  0  0  0  0  0  0  0  0
   59.6480   31.0660   45.8070 C   0  0  0  0  0  0  0  0  0  0  0  0
   59.5270   29.6690   45.9690 C   0  0  0  0  0  0  0  0  0  0  0  0
   60.5110   33.2720   46.4260 C   0  0  0  0  0  0  0  0  0  0  0  0
   60.5770   34.0390   47.7520 C   0  0  0  0  0  0  0  0  0  0  0  0
   61.6680   33.4760   48.6200 C   0  0  0  0  0  0  0  0  0  0  0  0
   62.3680   34.3090   49.5030 C   0  0  0  0  0  0  0  0  0  0  0  0
   63.3910   33.7880   50.3180 C   0  0  0  0  0  0  0  0  0  0  0  0
   64.1110   34.5900   51.2210 O   0  0  0  0  0  0  0  0  0  0  0  0
   64.0990   34.4230   52.6350 C   0  0  0  0  0  0  0  0  0  0  0  0
   63.7160   32.4270   50.2370 C   0  0  0  0  0  0  0  0  0  0  0  0
   64.7650   31.9450   51.0360 O   0  0  0  0  0  0  0  0  0  0  0  0
   66.1470   32.0360   50.6980 C   0  0  0  0  0  0  0  0  0  0  0  0
   62.9910   31.5870   49.3670 C   0  0  0  0  0  0  0  0  0  0  0  0
   61.9390   32.0970   48.5840 C   0  0  0  0  0  0  0  0  0  0  0  0
   57.7219   33.6393   45.7153 H   0  0  0  0  0  0  0  0  0  0  0  0
   58.7657   34.0761   44.3202 H   0  0  0  0  0  0  0  0  0  0  0  0
   57.0286   34.5336   44.3202 H   0  0  0  0  0  0  0  0  0  0  0  0
   56.6927   32.6335   43.1304 H   0  0  0  0  0  0  0  0  0  0  0  0
   58.3416   31.9980   43.5695 H   0  0  0  0  0  0  0  0  0  0  0  0
   56.2520   31.9820   45.6030 H   0  0  0  0  0  0  0  0  0  0  0  0
   55.0751   30.2556   44.8530 H   0  0  0  0  0  0  0  0  0  0  0  0
   55.5300   30.9917   43.2680 H   0  0  0  0  0  0  0  0  0  0  0  0
   56.3606   28.4258   44.4804 H   0  0  0  0  0  0  0  0  0  0  0  0
   56.4207   29.0100   42.7509 H   0  0  0  0  0  0  0  0  0  0  0  0
   58.3870   30.3880   43.8060 H   0  0  0  0  0  0  0  0  0  0  0  0
   58.5060   28.8910   43.0290 H   0  0  0  0  0  0  0  0  0  0  0  0
   57.8056   26.8921   44.8999 H   0  0  0  0  0  0  0  0  0  0  0  0
   58.9605   25.8991   46.8562 H   0  0  0  0  0  0  0  0  0  0  0  0
   60.5166   27.2688   48.2244 H   0  0  0  0  0  0  0  0  0  0  0  0
   61.4988   29.3981   48.7689 H   0  0  0  0  0  0  0  0  0  0  0  0
   59.1207   31.5595   44.9772 H   0  0  0  0  0  0  0  0  0  0  0  0
   61.4221   33.4785   45.8453 H   0  0  0  0  0  0  0  0  0  0  0  0
   59.6189   33.6027   45.8740 H   0  0  0  0  0  0  0  0  0  0  0  0
   60.7846   35.1000   47.5488 H   0  0  0  0  0  0  0  0  0  0  0  0
   59.6139   33.9397   48.2740 H   0  0  0  0  0  0  0  0  0  0  0  0
   62.1163   35.3783   49.5598 H   0  0  0  0  0  0  0  0  0  0  0  0
   64.1697   35.4072   53.1211 H   0  0  0  0  0  0  0  0  0  0  0  0
   63.1632   33.9307   52.9381 H   0  0  0  0  0  0  0  0  0  0  0  0
   64.9548   33.8020   52.9381 H   0  0  0  0  0  0  0  0  0  0  0  0
   66.7478   32.0756   51.6186 H   0  0  0  0  0  0  0  0  0  0  0  0
   66.4388   31.1551   50.1073 H   0  0  0  0  0  0  0  0  0  0  0  0
   66.3208   32.9475   50.1073 H   0  0  0  0  0  0  0  0  0  0  0  0
   63.2509   30.5203   49.2996 H   0  0  0  0  0  0  0  0  0  0  0  0
  1  2  1  0
  2  3  1  0
  3  4  1  0
  4  5  1  0
  5  6  1  0
  6  7  1  0
  7  8  2  0
  8  9  1  0
  9 10  2  0
 10 11  1  0
 11 12  2  0
 12 13  1  0
 13 14  2  0
 14 15  1  0
 15 16  2  0
 14 17  1  0
 17 18  1  0
 18 19  1  0
 19 20  2  0
 20 21  1  0
 21 22  1  0
 22 23  1  0
 21 24  2  0
 24 25  1  0
 25 26  1  0
 24 27  1  0
 27 28  2  0
 16  7  1  0
 28 19  1  0
 16 11  1  0
 28 13  1  0
  1 29  1  0
  1 30  1  0
  1 31  1  0
  2 32  1  0
  2 33  1  0
  3 34  1  0
  4 35  1  0
  4 36  1  0
  5 37  1  0
  5 38  1  0
  6 39  1  0
  6 40  1  0
  8 41  1  0
  9 42  1  0
 10 43  1  0
 12 44  1  0
 15 45  1  0
 17 46  1  0
 17 47  1  0
 18 48  1  0
 18 49  1  0
 20 50  1  0
 23 51  1  0
 23 52  1  0
 23 53  1  0
 26 54  1  0
 26 55  1  0
 26 56  1  0
 27 57  1  0
M  CHG  2   6   1  14   1
M  END
>  <UniqueID>  (14) 
14

>  <SMILES>  (14) 
CCNCC[NH2+]c1cccc2cc3[n+](cc12)CCc1cc(OC)c(OC)cc1-3

>  <Energy>  (14) 
75.82837113012657

>  <Genealogy>  (14) 
CCNCC[NH2+]c1cccc2cc3[n+](cc12)CCc1cc(OC)c(OC)cc1-3 (protonated)
CCNCC[NH2+]c1cccc2cc3[n+](cc12)CCc1cc(OC)c(OC)cc1-3 (3D coordinates assigned)
CCNCC[NH2+]c1cccc2cc3[n+](cc12)CCc1cc(OC)c(OC)cc1-3 (nonaromatic ring conformer: 75.82837113012657 kcal/mol)

>  <smiles>  (14) 
CCNCCNc1cccc2cc3[n+](cc12)CCc1cc(OC)c(OC)cc1-3

>  <score_type>  (14) 
oracle

>  <origin>  (14) 
adg

>  <m_score__min__energy>  (14) 
-4.6600000000000001

>  <m_primary>  (14) 
energy

$$$$
14:0
     RDKit          3D

 48 49  0  0  0  0  0  0  0  0999 V2000
   58.8990   31.8290   46.0360 C   0  0  0  0  0  0  0  0  0  0  0  0
   60.0610   30.8590   46.2270 C   0  0  0  0  0  0  0  0  0  0  0  0
   59.9420   29.7460   45.3410 O   0  0  0  0  0  0  0  0  0  0  0  0
   59.2590   28.5470   45.6120 C   0  0  0  0  0  0  0  0  0  0  0  0
   59.4780   27.8110   46.7940 C   0  0  0  0  0  0  0  0  0  0  0  0
   58.7760   26.6280   47.0320 C   0  0  0  0  0  0  0  0  0  0  0  0
   57.8420   26.1610   46.1030 C   0  0  0  0  0  0  0  0  0  0  0  0
   56.9680   24.6660   46.4220 S   0  0  0  0  0  0  0  0  0  0  0  0
   57.2960   24.2030   47.8150 O   0  0  0  0  0  0  0  0  0  0  0  0
   55.4840   24.9020   46.3300 O   0  0  0  0  0  0  0  0  0  0  0  0
   57.4490   23.4520   45.2620 N   0  0  0  0  0  0  0  0  0  0  0  0
   57.4580   23.9980   43.8860 C   0  0  0  0  0  0  0  0  0  0  0  0
   56.2630   23.4980   43.0550 C   0  0  0  0  0  0  0  0  0  0  0  0
   56.2090   22.0820   42.9520 O   0  0  0  0  0  0  0  0  0  0  0  0
   56.6440   21.4040   44.1250 C   0  0  0  0  0  0  0  0  0  0  0  0
   56.5950   22.2590   45.4030 C   0  0  0  0  0  0  0  0  0  0  0  0
   57.6200   26.8810   44.9250 C   0  0  0  0  0  0  0  0  0  0  0  0
   58.3190   28.0760   44.6690 C   0  0  0  0  0  0  0  0  0  0  0  0
   58.0520   28.8190   43.4570 N   0  0  0  0  0  0  0  0  0  0  0  0
   56.6870   29.3780   43.4460 C   0  0  0  0  0  0  0  0  0  0  0  0
   56.6660   30.9030   43.2580 C   0  0  0  0  0  0  0  0  0  0  0  0
   57.9720   31.3730   42.9980 O   0  0  0  0  0  0  0  0  0  0  0  0
   57.9230   32.3590   41.9910 C   0  0  0  0  0  0  0  0  0  0  0  0
   58.5201   32.1453   47.0190 H   0  0  0  0  0  0  0  0  0  0  0  0
   59.2451   32.7100   45.4756 H   0  0  0  0  0  0  0  0  0  0  0  0
   58.0940   31.3310   45.4756 H   0  0  0  0  0  0  0  0  0  0  0  0
   61.0061   31.3834   46.0226 H   0  0  0  0  0  0  0  0  0  0  0  0
   60.0452   30.4889   47.2628 H   0  0  0  0  0  0  0  0  0  0  0  0
   60.2074   28.1714   47.5343 H   0  0  0  0  0  0  0  0  0  0  0  0
   58.9590   26.0601   47.9561 H   0  0  0  0  0  0  0  0  0  0  0  0
   57.4173   25.0959   43.9401 H   0  0  0  0  0  0  0  0  0  0  0  0
   58.3796   23.6557   43.3926 H   0  0  0  0  0  0  0  0  0  0  0  0
   55.3351   23.8501   43.5293 H   0  0  0  0  0  0  0  0  0  0  0  0
   56.3821   23.8965   42.0367 H   0  0  0  0  0  0  0  0  0  0  0  0
   56.0004   20.5244   44.2736 H   0  0  0  0  0  0  0  0  0  0  0  0
   57.6990   21.1380   43.9632 H   0  0  0  0  0  0  0  0  0  0  0  0
   55.5578   22.5764   45.5860 H   0  0  0  0  0  0  0  0  0  0  0  0
   56.9632   21.6570   46.2468 H   0  0  0  0  0  0  0  0  0  0  0  0
   56.8909   26.5095   44.1899 H   0  0  0  0  0  0  0  0  0  0  0  0
   58.7370   29.6050   43.3780 H   0  0  0  0  0  0  0  0  0  0  0  0
   58.1980   28.2150   42.6140 H   0  0  0  0  0  0  0  0  0  0  0  0
   56.1249   28.9151   42.6215 H   0  0  0  0  0  0  0  0  0  0  0  0
   56.2335   29.1601   44.4242 H   0  0  0  0  0  0  0  0  0  0  0  0
   56.0115   31.1572   42.4112 H   0  0  0  0  0  0  0  0  0  0  0  0
   56.2868   31.3760   44.1759 H   0  0  0  0  0  0  0  0  0  0  0  0
   57.8735   33.3550   42.4552 H   0  0  0  0  0  0  0  0  0  0  0  0
   58.8257   32.2901   41.3662 H   0  0  0  0  0  0  0  0  0  0  0  0
   57.0316   32.2010   41.3662 H   0  0  0  0  0  0  0  0  0  0  0  0
  1  2  1  0
  2  3  1  0
  3  4  1  0
  4  5  2  0
  5  6  1  0
  6  7  2  0
  7  8  1  0
  8  9  2  0
  8 10  2  0
  8 11  1  0
 11 12  1  0
 12 13  1  0
 13 14  1  0
 14 15  1  0
 15 16  1  0
  7 17  1  0
 17 18  2  0
 18 19  1  0
 19 20  1  0
 20 21  1  0
 21 22  1  0
 22 23  1  0
 18  4  1  0
 16 11  1  0
  1 24  1  0
  1 25  1  0
  1 26  1  0
  2 27  1  0
  2 28  1  0
  5 29  1  0
  6 30  1  0
 12 31  1  0
 12 32  1  0
 13 33  1  0
 13 34  1  0
 15 35  1  0
 15 36  1  0
 16 37  1  0
 16 38  1  0
 17 39  1  0
 19 40  1  0
 19 41  1  0
 20 42  1  0
 20 43  1  0
 21 44  1  0
 21 45  1  0
 23 46  1  0
 23 47  1  0
 23 48  1  0
M  CHG  1  19   1
M  END
>  <UniqueID>  (15) 
15

>  <SMILES>  (15) 
CCOc1ccc(S(=O)(=O)N2CCOCC2)cc1[NH2+]CCOC

>  <Energy>  (15) 
56.78293135914681

>  <Genealogy>  (15) 
CCOc1ccc(S(=O)(=O)N2CCOCC2)cc1[NH2+]CCOC (protonated)
CCOc1ccc(S(=O)(=O)N2CCOCC2)cc1[NH2+]CCOC (3D coordinates assigned)
CCOc1ccc(S(=O)(=O)N2CCOCC2)cc1[NH2+]CCOC (nonaromatic ring conformer: 56.78293135914681 kcal/mol)

>  <smiles>  (15) 
CCOc1ccc(S(=O)(=O)N2CCOCC2)cc1NCCOC

>  <score_type>  (15) 
oracle

>  <origin>  (15) 
adg

>  <m_score__min__energy>  (15) 
-5.4100000000000001

>  <m_primary>  (15) 
energy

$$$$
15:0
     RDKit          3D

 47 49  0  0  0  0  0  0  0  0999 V2000
   63.3460   34.1630   46.3620 C   0  0  0  0  0  0  0  0  0  0  0  0
   63.7970   33.5370   47.6840 C   0  0  0  0  0  0  0  0  0  0  0  0
   63.6840   32.0670   47.6800 N   0  0  0  0  0  0  0  0  0  0  0  0
   63.1150   31.5500   48.9350 C   0  0  0  0  0  0  0  0  0  0  0  0
   61.6350   31.3340   48.7900 C   0  0  0  0  0  0  0  0  0  0  0  0
   60.9190   30.5830   49.7300 C   0  0  0  0  0  0  0  0  0  0  0  0
   59.5480   30.3930   49.5500 C   0  0  0  0  0  0  0  0  0  0  0  0
   58.9070   30.9400   48.4370 C   0  0  0  0  0  0  0  0  0  0  0  0
   59.6530   31.6750   47.5020 C   0  0  0  0  0  0  0  0  0  0  0  0
   59.0140   32.2770   46.3030 C   0  0  0  0  0  0  0  0  0  0  0  0
   58.8630   33.6750   46.2280 C   0  0  0  0  0  0  0  0  0  0  0  0
   58.2140   34.2650   45.1420 C   0  0  0  0  0  0  0  0  0  0  0  0
   57.7010   33.4700   44.1170 C   0  0  0  0  0  0  0  0  0  0  0  0
   57.8410   32.0840   44.1710 C   0  0  0  0  0  0  0  0  0  0  0  0
   58.4980   31.4740   45.2520 C   0  0  0  0  0  0  0  0  0  0  0  0
   58.6690   30.0020   45.2350 C   0  0  0  0  0  0  0  0  0  0  0  0
   59.9500   29.4530   45.4080 C   0  0  0  0  0  0  0  0  0  0  0  0
   60.1270   28.0690   45.4290 C   0  0  0  0  0  0  0  0  0  0  0  0
   59.0290   27.2220   45.2730 C   0  0  0  0  0  0  0  0  0  0  0  0
   57.7490   27.7560   45.0980 C   0  0  0  0  0  0  0  0  0  0  0  0
   57.5560   29.1510   45.0800 C   0  0  0  0  0  0  0  0  0  0  0  0
   56.2810   29.7220   44.9280 O   0  0  0  0  0  0  0  0  0  0  0  0
   55.5730   29.7970   43.6960 C   0  0  0  0  0  0  0  0  0  0  0  0
   60.9910   31.8390   47.7030 N   0  0  0  0  0  0  0  0  0  0  0  0
   62.7144   35.0397   46.5681 H   0  0  0  0  0  0  0  0  0  0  0  0
   64.2285   34.4746   45.7839 H   0  0  0  0  0  0  0  0  0  0  0  0
   62.7710   33.4246   45.7839 H   0  0  0  0  0  0  0  0  0  0  0  0
   64.8475   33.8096   47.8632 H   0  0  0  0  0  0  0  0  0  0  0  0
   63.1387   33.9207   48.4774 H   0  0  0  0  0  0  0  0  0  0  0  0
   64.6220   31.6360   47.5090 H   0  0  0  0  0  0  0  0  0  0  0  0
   63.0520   31.7980   46.8890 H   0  0  0  0  0  0  0  0  0  0  0  0
   63.5980   30.5938   49.1850 H   0  0  0  0  0  0  0  0  0  0  0  0
   63.2915   32.2836   49.7354 H   0  0  0  0  0  0  0  0  0  0  0  0
   61.4312   30.1476   50.6006 H   0  0  0  0  0  0  0  0  0  0  0  0
   58.9723   29.8120   50.2855 H   0  0  0  0  0  0  0  0  0  0  0  0
   57.8259   30.7963   48.2937 H   0  0  0  0  0  0  0  0  0  0  0  0
   59.2608   34.3091   47.0340 H   0  0  0  0  0  0  0  0  0  0  0  0
   58.1069   35.3587   45.0944 H   0  0  0  0  0  0  0  0  0  0  0  0
   57.1854   33.9373   43.2651 H   0  0  0  0  0  0  0  0  0  0  0  0
   57.4333   31.4628   43.3599 H   0  0  0  0  0  0  0  0  0  0  0  0
   60.8184   30.1175   45.5276 H   0  0  0  0  0  0  0  0  0  0  0  0
   61.1325   27.6455   45.5686 H   0  0  0  0  0  0  0  0  0  0  0  0
   59.1711   26.1313   45.2878 H   0  0  0  0  0  0  0  0  0  0  0  0
   56.8878   27.0830   44.9737 H   0  0  0  0  0  0  0  0  0  0  0  0
   54.4976   29.9109   43.8974 H   0  0  0  0  0  0  0  0  0  0  0  0
   55.9316   30.6622   43.1191 H   0  0  0  0  0  0  0  0  0  0  0  0
   55.7424   28.8759   43.1191 H   0  0  0  0  0  0  0  0  0  0  0  0
  1  2  1  0
  2  3  1  0
  3  4  1  0
  4  5  1  0
  5  6  2  0
  6  7  1  0
  7  8  2  0
  8  9  1  0
  9 10  1  0
 10 11  2  0
 11 12  1  0
 12 13  2  0
 13 14  1  0
 14 15  2  0
 15 16  1  0
 16 17  2  0
 17 18  1  0
 18 19  2  0
 19 20  1  0
 20 21  2  0
 21 22  1  0
 22 23  1  0
  9 24  2  0
 24  5  1  0
 15 10  1  0
 21 16  1  0
  1 25  1  0
  1 26  1  0
  1 27  1  0
  2 28  1  0
  2 29  1  0
  3 30  1  0
  3 31  1  0
  4 32  1  0
  4 33  1  0
  6 34  1  0
  7 35  1  0
  8 36  1  0
 11 37  1  0
 12 38  1  0
 13 39  1  0
 14 40  1  0
 17 41  1  0
 18 42  1  0
 19 43  1  0
 20 44  1  0
 23 45  1  0
 23 46  1  0
 23 47  1  0
M  CHG  1   3   1
M  END
>  <UniqueID>  (16) 
16

>  <SMILES>  (16) 
CC[NH2+]Cc1cccc(-c2ccccc2-c2ccccc2OC)n1

>  <Energy>  (16) 
57.67597034779036

>  <Genealogy>  (16) 
CC[NH2+]Cc1cccc(-c2ccccc2-c2ccccc2OC)n1 (protonated)
CC[NH2+]Cc1cccc(-c2ccccc2-c2ccccc2OC)n1 (3D coordinates assigned)
CC[NH2+]Cc1cccc(-c2ccccc2-c2ccccc2OC)n1 (optimized conformer: 57.67597034779036 kcal/mol)

>  <smiles>  (16) 
CCNCc1cccc(-c2ccccc2-c2ccccc2OC)n1

>  <score_type>  (16) 
oracle

>  <origin>  (16) 
adg

>  <m_score__min__energy>  (16) 
-6.5499999999999998

>  <m_primary>  (16) 
energy

$$$$
16:0
     RDKit          3D

 30 32  0  0  0  0  0  0  0  0999 V2000
   64.3710   33.0920   48.2170 C   0  0  0  0  0  0  0  0  0  0  0  0
   62.8820   33.2170   48.1380 C   0  0  0  0  0  0  0  0  0  0  0  0
   62.0890   32.6720   47.1460 C   0  0  0  0  0  0  0  0  0  0  0  0
   60.7830   33.0130   47.4610 C   0  0  0  0  0  0  0  0  0  0  0  0
   59.5860   32.6540   46.6730 C   0  0  0  0  0  0  0  0  0  0  0  0
   59.2180   31.3090   46.4500 C   0  0  0  0  0  0  0  0  0  0  0  0
   58.1020   31.0830   45.7130 N   0  0  0  0  0  0  0  0  0  0  0  0
   57.4840   29.9580   45.3200 C   0  0  0  0  0  0  0  0  0  0  0  0
   57.9350   28.5700   45.6410 C   0  0  0  0  0  0  0  0  0  0  0  0
   56.3850   30.2510   44.5870 N   0  0  0  0  0  0  0  0  0  0  0  0
   56.2990   31.5770   44.5100 N   0  0  0  0  0  0  0  0  0  0  0  0
   57.3500   32.0580   45.1990 C   0  0  0  0  0  0  0  0  0  0  0  0
   57.6890   33.3890   45.4040 C   0  0  0  0  0  0  0  0  0  0  0  0
   58.8080   33.6500   46.1410 N   0  0  0  0  0  0  0  0  0  0  0  0
   60.8350   33.7470   48.6370 C   0  0  0  0  0  0  0  0  0  0  0  0
   62.1140   33.8540   49.0470 N   0  0  0  0  0  0  0  0  0  0  0  0
   62.5760   34.5860   50.2220 C   0  0  0  0  0  0  0  0  0  0  0  0
   64.6813   33.0659   49.2720 H   0  0  0  0  0  0  0  0  0  0  0  0
   64.6880   32.1641   47.7185 H   0  0  0  0  0  0  0  0  0  0  0  0
   64.8383   33.9541   47.7185 H   0  0  0  0  0  0  0  0  0  0  0  0
   62.4269   32.0848   46.2794 H   0  0  0  0  0  0  0  0  0  0  0  0
   59.8125   30.4781   46.8576 H   0  0  0  0  0  0  0  0  0  0  0  0
   57.9768   28.4413   46.7326 H   0  0  0  0  0  0  0  0  0  0  0  0
   57.2259   27.8459   45.2133 H   0  0  0  0  0  0  0  0  0  0  0  0
   58.9343   28.4010   45.2133 H   0  0  0  0  0  0  0  0  0  0  0  0
   57.0780   34.2034   44.9876 H   0  0  0  0  0  0  0  0  0  0  0  0
   59.9650   34.1761   49.1556 H   0  0  0  0  0  0  0  0  0  0  0  0
   62.2464   34.0638   51.1323 H   0  0  0  0  0  0  0  0  0  0  0  0
   63.6744   34.6436   50.2097 H   0  0  0  0  0  0  0  0  0  0  0  0
   62.1554   35.6023   50.2097 H   0  0  0  0  0  0  0  0  0  0  0  0
  1  2  1  0
  2  3  2  0
  3  4  1  0
  4  5  1  0
  5  6  2  0
  6  7  1  0
  7  8  1  0
  8  9  1  0
  8 10  2  0
 10 11  1  0
 11 12  2  0
 12 13  1  0
 13 14  2  0
  4 15  2  0
 15 16  1  0
 16 17  1  0
 16  2  1  0
 14  5  1  0
 12  7  1  0
  1 18  1  0
  1 19  1  0
  1 20  1  0
  3 21  1  0
  6 22  1  0
  9 23  1  0
  9 24  1  0
  9 25  1  0
 13 26  1  0
 15 27  1  0
 17 28  1  0
 17 29  1  0
 17 30  1  0
M  END
>  <UniqueID>  (17) 
17

>  <SMILES>  (17) 
Cc1cc(-c2cn3c(C)nnc3cn2)cn1C

>  <Energy>  (17) 
98.73305071989198

>  <Genealogy>  (17) 
Cc1cc(-c2cn3c(C)nnc3cn2)cn1C (3D coordinates assigned)
Cc1cc(-c2cn3c(C)nnc3cn2)cn1C (optimized conformer: 98.73305071989198 kcal/mol)

>  <smiles>  (17) 
Cc1cc(-c2cn3c(C)nnc3cn2)cn1C

>  <score_type>  (17) 
oracle

>  <origin>  (17) 
adg

>  <m_score__min__energy>  (17) 
-6.1699999999999999

>  <m_primary>  (17) 
energy

$$$$
17:0
     RDKit          3D

 64 66  0  0  0  0  0  0  0  0999 V2000
   59.6930   33.8430   50.3280 C   0  0  0  0  0  0  0  0  0  0  0  0
   60.2070   33.1740   51.5930 C   0  0  0  0  0  0  0  0  0  0  0  0
   59.4250   32.0300   51.8600 O   0  0  0  0  0  0  0  0  0  0  0  0
   58.0700   32.3990   52.0010 C   0  0  0  0  0  0  0  0  0  0  0  0
   57.1850   31.4060   51.2460 C   0  0  0  0  0  0  0  0  0  0  0  0
   57.7560   30.1100   51.2500 O   0  0  0  0  0  0  0  0  0  0  0  0
   57.4640   29.4350   52.4580 C   0  0  0  0  0  0  0  0  0  0  0  0
   58.7550   28.8950   53.0800 C   0  0  0  0  0  0  0  0  0  0  0  0
   59.9370   29.6390   52.6070 N   0  0  0  0  0  0  0  0  0  0  0  0
   60.9160   28.7510   51.9500 C   0  0  0  0  0  0  0  0  0  0  0  0
   61.0260   29.0170   50.4320 C   0  0  0  0  0  0  0  0  0  0  0  0
   60.6060   30.3720   50.0400 N   0  0  0  0  0  0  0  0  0  0  0  0
   61.2770   31.1290   49.0170 C   0  0  0  0  0  0  0  0  0  0  0  0
   62.5830   31.5950   49.2520 C   0  0  0  0  0  0  0  0  0  0  0  0
   63.3620   31.0550   50.2980 C   0  0  0  0  0  0  0  0  0  0  0  0
   64.6280   31.5620   50.5790 C   0  0  0  0  0  0  0  0  0  0  0  0
   65.1360   32.6170   49.8320 C   0  0  0  0  0  0  0  0  0  0  0  0
   64.3950   33.1490   48.7770 C   0  0  0  0  0  0  0  0  0  0  0  0
   63.1220   32.6220   48.4360 C   0  0  0  0  0  0  0  0  0  0  0  0
   62.3940   33.1130   47.3690 N   0  0  0  0  0  0  0  0  0  0  0  0
   63.0390   34.0190   46.3900 C   0  0  0  0  0  0  0  0  0  0  0  0
   61.0820   32.7180   47.1820 C   0  0  0  0  0  0  0  0  0  0  0  0
   60.2230   33.4130   46.2950 C   0  0  0  0  0  0  0  0  0  0  0  0
   58.9290   32.9610   46.0340 C   0  0  0  0  0  0  0  0  0  0  0  0
   58.0480   33.7010   45.0690 C   0  0  0  0  0  0  0  0  0  0  0  0
   58.5000   31.7570   46.5870 C   0  0  0  0  0  0  0  0  0  0  0  0
   59.3030   31.0550   47.4940 C   0  0  0  0  0  0  0  0  0  0  0  0
   58.8310   29.6850   47.9210 C   0  0  0  0  0  0  0  0  0  0  0  0
   60.5520   31.6130   47.9050 C   0  0  0  0  0  0  0  0  0  0  0  0
   59.0434   34.6885   50.5984 H   0  0  0  0  0  0  0  0  0  0  0  0
   60.5441   34.2094   49.7352 H   0  0  0  0  0  0  0  0  0  0  0  0
   59.1197   33.1150   49.7352 H   0  0  0  0  0  0  0  0  0  0  0  0
   61.2571   32.8780   51.4527 H   0  0  0  0  0  0  0  0  0  0  0  0
   60.1385   33.8754   52.4376 H   0  0  0  0  0  0  0  0  0  0  0  0
   57.7985   32.3939   53.0670 H   0  0  0  0  0  0  0  0  0  0  0  0
   57.9217   33.4074   51.5873 H   0  0  0  0  0  0  0  0  0  0  0  0
   56.1976   31.3652   51.7290 H   0  0  0  0  0  0  0  0  0  0  0  0
   57.0912   31.7437   50.2033 H   0  0  0  0  0  0  0  0  0  0  0  0
   56.9859   30.1342   53.1599 H   0  0  0  0  0  0  0  0  0  0  0  0
   56.7850   28.5954   52.2481 H   0  0  0  0  0  0  0  0  0  0  0  0
   58.6897   28.9865   54.1742 H   0  0  0  0  0  0  0  0  0  0  0  0
   58.8678   27.8426   52.7803 H   0  0  0  0  0  0  0  0  0  0  0  0
   60.4000   30.0880   53.4320 H   0  0  0  0  0  0  0  0  0  0  0  0
   59.6400   30.3980   51.9570 H   0  0  0  0  0  0  0  0  0  0  0  0
   61.9026   28.9116   52.4093 H   0  0  0  0  0  0  0  0  0  0  0  0
   60.5726   27.7147   52.0851 H   0  0  0  0  0  0  0  0  0  0  0  0
   62.0741   28.8764   50.1292 H   0  0  0  0  0  0  0  0  0  0  0  0
   60.3478   28.3110   49.9305 H   0  0  0  0  0  0  0  0  0  0  0  0
   59.6080   30.6180   50.2290 H   0  0  0  0  0  0  0  0  0  0  0  0
   62.9641   30.2236   50.8984 H   0  0  0  0  0  0  0  0  0  0  0  0
   65.2262   31.1267   51.3931 H   0  0  0  0  0  0  0  0  0  0  0  0
   66.1250   33.0339   50.0730 H   0  0  0  0  0  0  0  0  0  0  0  0
   64.8040   33.9911   48.1995 H   0  0  0  0  0  0  0  0  0  0  0  0
   63.5960   34.8014   46.9262 H   0  0  0  0  0  0  0  0  0  0  0  0
   63.7316   33.4432   45.7585 H   0  0  0  0  0  0  0  0  0  0  0  0
   62.2682   34.4850   45.7585 H   0  0  0  0  0  0  0  0  0  0  0  0
   60.5837   34.3278   45.8020 H   0  0  0  0  0  0  0  0  0  0  0  0
   57.3226   34.3103   45.6280 H   0  0  0  0  0  0  0  0  0  0  0  0
   58.6657   34.3551   44.4361 H   0  0  0  0  0  0  0  0  0  0  0  0
   57.5104   32.9796   44.4361 H   0  0  0  0  0  0  0  0  0  0  0  0
   57.5164   31.3518   46.3072 H   0  0  0  0  0  0  0  0  0  0  0  0
   58.8119   29.6296   49.0194 H   0  0  0  0  0  0  0  0  0  0  0  0
   57.8195   29.5064   47.5272 H   0  0  0  0  0  0  0  0  0  0  0  0
   59.5179   28.9213   47.5272 H   0  0  0  0  0  0  0  0  0  0  0  0
  1  2  1  0
  2  3  1  0
  3  4  1  0
  4  5  1  0
  5  6  1  0
  6  7  1  0
  7  8  1  0
  8  9  1  0
  9 10  1  0
 10 11  1  0
 11 12  1  0
 12 13  1  0
 13 14  2  0
 14 15  1  0
 15 16  2  0
 16 17  1  0
 17 18  2  0
 18 19  1  0
 19 20  2  0
 20 21  1  0
 20 22  1  0
 22 23  2  0
 23 24  1  0
 24 25  1  0
 24 26  2  0
 26 27  1  0
 27 28  1  0
 27 29  2  0
 29 13  1  0
 19 14  1  0
 29 22  1  0
  1 30  1  0
  1 31  1  0
  1 32  1  0
  2 33  1  0
  2 34  1  0
  4 35  1  0
  4 36  1  0
  5 37  1  0
  5 38  1  0
  7 39  1  0
  7 40  1  0
  8 41  1  0
  8 42  1  0
  9 43  1  0
  9 44  1  0
 10 45  1  0
 10 46  1  0
 11 47  1  0
 11 48  1  0
 12 49  1  0
 15 50  1  0
 16 51  1  0
 17 52  1  0
 18 53  1  0
 21 54  1  0
 21 55  1  0
 21 56  1  0
 23 57  1  0
 25 58  1  0
 25 59  1  0
 25 60  1  0
 26 61  1  0
 28 62  1  0
 28 63  1  0
 28 64  1  0
M  CHG  2   9   1  20   1
M  END
>  <UniqueID>  (18) 
18

>  <SMILES>  (18) 
CCOCCOCC[NH2+]CCNc1c2ccccc2[n+](C)c2cc(C)cc(C)c12

>  <Energy>  (18) 
95.03380951657012

>  <Genealogy>  (18) 
CCOCCOCC[NH2+]CCNc1c2ccccc2[n+](C)c2cc(C)cc(C)c12 (protonated)
CCOCCOCC[NH2+]CCNc1c2ccccc2[n+](C)c2cc(C)cc(C)c12 (3D coordinates assigned)
CCOCCOCC[NH2+]CCNc1c2ccccc2[n+](C)c2cc(C)cc(C)c12 (optimized conformer: 95.03380951657012 kcal/mol)

>  <smiles>  (18) 
CCOCCOCCNCCNc1c2ccccc2[n+](C)c2cc(C)cc(C)c12

>  <score_type>  (18) 
oracle

>  <origin>  (18) 
adg

>  <m_score__min__energy>  (18) 
-3.75

>  <m_primary>  (18) 
energy

$$$$
18:0
     RDKit          3D

 48 51  0  0  0  0  0  0  0  0999 V2000
   60.7080   29.3020   49.3360 C   0  0  0  0  0  0  0  0  0  0  0  0
   60.2750   27.9470   48.7900 C   0  0  0  0  0  0  0  0  0  0  0  0
   58.9110   27.9840   48.3710 O   0  0  0  0  0  0  0  0  0  0  0  0
   58.5360   27.8180   47.0330 C   0  0  0  0  0  0  0  0  0  0  0  0
   58.2530   26.5240   46.5700 C   0  0  0  0  0  0  0  0  0  0  0  0
   58.3850   25.4500   47.4660 O   0  0  0  0  0  0  0  0  0  0  0  0
   57.3870   24.4610   47.6940 C   0  0  0  0  0  0  0  0  0  0  0  0
   57.8400   26.3380   45.2390 C   0  0  0  0  0  0  0  0  0  0  0  0
   57.7200   27.4290   44.3800 C   0  0  0  0  0  0  0  0  0  0  0  0
   58.0280   28.7230   44.8260 C   0  0  0  0  0  0  0  0  0  0  0  0
   57.9280   29.8080   43.9520 C   0  0  0  0  0  0  0  0  0  0  0  0
   58.2500   31.1220   44.3660 C   0  0  0  0  0  0  0  0  0  0  0  0
   58.6920   31.3340   45.7060 C   0  0  0  0  0  0  0  0  0  0  0  0
   58.7980   30.2180   46.5730 C   0  0  0  0  0  0  0  0  0  0  0  0
   58.4500   28.9240   46.1540 C   0  0  0  0  0  0  0  0  0  0  0  0
   59.0150   32.6590   46.1240 C   0  0  0  0  0  0  0  0  0  0  0  0
   59.4390   32.9860   47.4390 C   0  0  0  0  0  0  0  0  0  0  0  0
   59.7510   34.3010   47.8010 C   0  0  0  0  0  0  0  0  0  0  0  0
   60.1660   34.5480   49.1200 O   0  0  0  0  0  0  0  0  0  0  0  0
   60.6540   33.5520   50.0110 C   0  0  0  0  0  0  0  0  0  0  0  0
   59.6410   35.3240   46.8480 C   0  0  0  0  0  0  0  0  0  0  0  0
   59.2200   35.0310   45.5540 C   0  0  0  0  0  0  0  0  0  0  0  0
   58.9040   33.7130   45.1880 C   0  0  0  0  0  0  0  0  0  0  0  0
   58.4740   33.4480   43.8890 C   0  0  0  0  0  0  0  0  0  0  0  0
   58.1500   32.1850   43.4900 N   0  0  0  0  0  0  0  0  0  0  0  0
   57.6970   32.0040   42.0990 C   0  0  0  0  0  0  0  0  0  0  0  0
   60.6991   29.2741   50.4356 H   0  0  0  0  0  0  0  0  0  0  0  0
   61.7243   29.5317   48.9833 H   0  0  0  0  0  0  0  0  0  0  0  0
   60.0132   30.0785   48.9833 H   0  0  0  0  0  0  0  0  0  0  0  0
   60.9096   27.6845   47.9307 H   0  0  0  0  0  0  0  0  0  0  0  0
   60.3800   27.1952   49.5861 H   0  0  0  0  0  0  0  0  0  0  0  0
   57.2479   24.3232   48.7764 H   0  0  0  0  0  0  0  0  0  0  0  0
   56.4387   24.7857   47.2409 H   0  0  0  0  0  0  0  0  0  0  0  0
   57.7031   23.5098   47.2409 H   0  0  0  0  0  0  0  0  0  0  0  0
   57.6104   25.3262   44.8737 H   0  0  0  0  0  0  0  0  0  0  0  0
   57.3814   27.2744   43.3449 H   0  0  0  0  0  0  0  0  0  0  0  0
   57.5914   29.6370   42.9188 H   0  0  0  0  0  0  0  0  0  0  0  0
   59.1620   30.3694   47.5999 H   0  0  0  0  0  0  0  0  0  0  0  0
   59.5241   32.1872   48.1904 H   0  0  0  0  0  0  0  0  0  0  0  0
   60.4940   33.8786   51.0491 H   0  0  0  0  0  0  0  0  0  0  0  0
   60.1161   32.6085   49.8364 H   0  0  0  0  0  0  0  0  0  0  0  0
   61.7292   33.3988   49.8364 H   0  0  0  0  0  0  0  0  0  0  0  0
   59.8879   36.3599   47.1236 H   0  0  0  0  0  0  0  0  0  0  0  0
   59.1342   35.8387   44.8122 H   0  0  0  0  0  0  0  0  0  0  0  0
   58.3942   34.2763   43.1695 H   0  0  0  0  0  0  0  0  0  0  0  0
   56.6755   31.5959   42.0962 H   0  0  0  0  0  0  0  0  0  0  0  0
   57.7055   32.9746   41.5814 H   0  0  0  0  0  0  0  0  0  0  0  0
   58.3720   31.3065   41.5814 H   0  0  0  0  0  0  0  0  0  0  0  0
  1  2  1  0
  2  3  1  0
  3  4  1  0
  4  5  2  0
  5  6  1  0
  6  7  1  0
  5  8  1  0
  8  9  2  0
  9 10  1  0
 10 11  2  0
 11 12  1  0
 12 13  2  0
 13 14  1  0
 14 15  2  0
 13 16  1  0
 16 17  2  0
 17 18  1  0
 18 19  1  0
 19 20  1  0
 18 21  2  0
 21 22  1  0
 22 23  2  0
 23 24  1  0
 24 25  2  0
 25 26  1  0
 15  4  1  0
 23 16  1  0
 15 10  1  0
 25 12  1  0
  1 27  1  0
  1 28  1  0
  1 29  1  0
  2 30  1  0
  2 31  1  0
  7 32  1  0
  7 33  1  0
  7 34  1  0
  8 35  1  0
  9 36  1  0
 11 37  1  0
 14 38  1  0
 17 39  1  0
 20 40  1  0
 20 41  1  0
 20 42  1  0
 21 43  1  0
 22 44  1  0
 24 45  1  0
 26 46  1  0
 26 47  1  0
 26 48  1  0
M  CHG  1  25   1
M  END
>  <UniqueID>  (19) 
19

>  <SMILES>  (19) 
CCOc1c(OC)ccc2cc3c(cc12)c1cc(OC)ccc1c[n+]3C

>  <Energy>  (19) 
74.65165654073134

>  <Genealogy>  (19) 
CCOc1c(OC)ccc2cc3c(cc12)c1cc(OC)ccc1c[n+]3C (3D coordinates assigned)
CCOc1c(OC)ccc2cc3c(cc12)c1cc(OC)ccc1c[n+]3C (optimized conformer: 74.65165654073134 kcal/mol)

>  <smiles>  (19) 
CCOc1c(OC)ccc2cc3c(cc12)c1cc(OC)ccc1c[n+]3C

>  <score_type>  (19) 
oracle

>  <origin>  (19) 
adg

>  <m_score__min__energy>  (19) 
-5.6299999999999999

>  <m_primary>  (19) 
energy

$$$$
19:0
     RDKit          3D

 42 44  0  0  0  0  0  0  0  0999 V2000
   57.4060   32.4450   40.6760 C   0  0  0  0  0  0  0  0  0  0  0  0
   58.1460   32.5080   42.0080 C   0  0  0  0  0  0  0  0  0  0  0  0
   57.6300   31.4580   42.9540 C   0  0  0  0  0  0  0  0  0  0  0  0
   56.6500   30.5470   42.5350 C   0  0  0  0  0  0  0  0  0  0  0  0
   56.1940   29.5510   43.4040 C   0  0  0  0  0  0  0  0  0  0  0  0
   56.7200   29.4380   44.7000 C   0  0  0  0  0  0  0  0  0  0  0  0
   56.2370   28.3930   45.5660 N   0  0  0  0  0  0  0  0  0  0  0  0
   57.1030   27.5130   46.3510 C   0  0  0  0  0  0  0  0  0  0  0  0
   56.8130   26.1080   46.0470 N   0  0  0  0  0  0  0  0  0  0  0  0
   55.5800   25.5670   45.9070 C   0  0  0  0  0  0  0  0  0  0  0  0
   54.3950   26.2890   45.9930 O   0  0  0  0  0  0  0  0  0  0  0  0
   55.6670   24.2110   45.6720 C   0  0  0  0  0  0  0  0  0  0  0  0
   57.0070   23.9060   45.6450 C   0  0  0  0  0  0  0  0  0  0  0  0
   57.6880   25.0780   45.9120 C   0  0  0  0  0  0  0  0  0  0  0  0
   59.0730   25.1690   46.0340 O   0  0  0  0  0  0  0  0  0  0  0  0
   57.5460   22.5160   45.4920 C   0  0  0  0  0  0  0  0  0  0  0  0
   56.4750   21.5930   44.8770 C   0  0  0  0  0  0  0  0  0  0  0  0
   55.0970   21.7860   45.5480 C   0  0  0  0  0  0  0  0  0  0  0  0
   54.5770   23.2280   45.3820 C   0  0  0  0  0  0  0  0  0  0  0  0
   57.7080   30.3500   45.1160 C   0  0  0  0  0  0  0  0  0  0  0  0
   58.1630   31.3470   44.2470 C   0  0  0  0  0  0  0  0  0  0  0  0
   56.3255   32.3530   40.8608 H   0  0  0  0  0  0  0  0  0  0  0  0
   57.6032   33.3632   40.1032 H   0  0  0  0  0  0  0  0  0  0  0  0
   57.7555   31.5734   40.1032 H   0  0  0  0  0  0  0  0  0  0  0  0
   59.2190   32.3404   41.8331 H   0  0  0  0  0  0  0  0  0  0  0  0
   57.9823   33.4989   42.4566 H   0  0  0  0  0  0  0  0  0  0  0  0
   56.2378   30.6162   41.5175 H   0  0  0  0  0  0  0  0  0  0  0  0
   55.4158   28.8496   43.0686 H   0  0  0  0  0  0  0  0  0  0  0  0
   55.2080   28.2120   45.6060 H   0  0  0  0  0  0  0  0  0  0  0  0
   58.1541   27.7272   46.1074 H   0  0  0  0  0  0  0  0  0  0  0  0
   56.9192   27.6924   47.4206 H   0  0  0  0  0  0  0  0  0  0  0  0
   59.6150   25.8980   45.5920 H   0  0  0  0  0  0  0  0  0  0  0  0
   58.4272   22.5386   44.8339 H   0  0  0  0  0  0  0  0  0  0  0  0
   57.8263   22.1292   46.4829 H   0  0  0  0  0  0  0  0  0  0  0  0
   56.3835   21.8192   43.8044 H   0  0  0  0  0  0  0  0  0  0  0  0
   56.7896   20.5510   45.0360 H   0  0  0  0  0  0  0  0  0  0  0  0
   54.3770   21.0927   45.0888 H   0  0  0  0  0  0  0  0  0  0  0  0
   55.2088   21.5842   46.6235 H   0  0  0  0  0  0  0  0  0  0  0  0
   54.2257   23.3702   44.3493 H   0  0  0  0  0  0  0  0  0  0  0  0
   53.7499   23.3930   46.0882 H   0  0  0  0  0  0  0  0  0  0  0  0
   58.1251   30.2782   46.1313 H   0  0  0  0  0  0  0  0  0  0  0  0
   58.9430   32.0479   44.5792 H   0  0  0  0  0  0  0  0  0  0  0  0
  1  2  1  0
  2  3  1  0
  3  4  2  0
  4  5  1  0
  5  6  2  0
  6  7  1  0
  7  8  1  0
  8  9  1  0
  9 10  1  0
 10 11  1  0
 10 12  2  0
 12 13  1  0
 13 14  2  0
 14 15  1  0
 13 16  1  0
 16 17  1  0
 17 18  1  0
 18 19  1  0
  6 20  1  0
 20 21  2  0
 21  3  1  0
 14  9  1  0
 19 12  1  0
  1 22  1  0
  1 23  1  0
  1 24  1  0
  2 25  1  0
  2 26  1  0
  4 27  1  0
  5 28  1  0
  7 29  1  0
  8 30  1  0
  8 31  1  0
 15 32  1  0
 16 33  1  0
 16 34  1  0
 17 35  1  0
 17 36  1  0
 18 37  1  0
 18 38  1  0
 19 39  1  0
 19 40  1  0
 20 41  1  0
 21 42  1  0
M  CHG  1  11  -1
M  END
>  <UniqueID>  (20) 
20

>  <SMILES>  (20) 
CCc1ccc(NCn2c([O-])c3c(c2O)CCCC3)cc1

>  <Energy>  (20) 
67.44761616115574

>  <Genealogy>  (20) 
CCc1ccc(NCn2c([O-])c3c(c2O)CCCC3)cc1 (protonated)
CCc1ccc(NCn2c([O-])c3c(c2O)CCCC3)cc1 (3D coordinates assigned)
CCc1ccc(NCn2c([O-])c3c(c2O)CCCC3)cc1 (nonaromatic ring conformer: 67.44761616115574 kcal/mol)

>  <smiles>  (20) 
CCc1ccc(NCn2c(O)c3c(c2O)CCCC3)cc1

>  <score_type>  (20) 
oracle

>  <origin>  (20) 
adg

>  <m_score__min__energy>  (20) 
-10.82

>  <m_primary>  (20) 
energy

$$$$
20:0
     RDKit          3D

 54 57  0  0  0  0  0  0  0  0999 V2000
   63.5620   33.1030   47.0790 C   0  0  0  0  0  0  0  0  0  0  0  0
   63.0450   33.9340   48.2640 C   0  0  0  0  0  0  0  0  0  0  0  0
   62.3650   33.1450   49.3200 N   0  0  0  0  0  0  0  0  0  0  0  0
   63.3060   32.5540   50.2850 C   0  0  0  0  0  0  0  0  0  0  0  0
   61.2710   33.8810   49.9900 C   0  0  0  0  0  0  0  0  0  0  0  0
   59.9270   33.1810   49.7330 C   0  0  0  0  0  0  0  0  0  0  0  0
   60.0880   31.6620   49.5020 C   0  0  0  0  0  0  0  0  0  0  0  0
   60.8590   31.3280   48.2860 N   0  0  0  0  0  0  0  0  0  0  0  0
   60.0200   31.2440   47.1030 C   0  0  0  0  0  0  0  0  0  0  0  0
   59.5680   29.9930   46.6560 C   0  0  0  0  0  0  0  0  0  0  0  0
   58.6740   29.8740   45.6060 C   0  0  0  0  0  0  0  0  0  0  0  0
   58.1050   30.9730   45.0220 N   0  0  0  0  0  0  0  0  0  0  0  0
   56.9040   30.8220   44.1820 C   0  0  0  0  0  0  0  0  0  0  0  0
   58.6380   32.2200   45.2960 C   0  0  0  0  0  0  0  0  0  0  0  0
   58.2670   33.3540   44.5320 C   0  0  0  0  0  0  0  0  0  0  0  0
   58.7620   34.6180   44.8320 C   0  0  0  0  0  0  0  0  0  0  0  0
   59.6500   34.7890   45.8830 C   0  0  0  0  0  0  0  0  0  0  0  0
   60.0680   33.6950   46.6360 C   0  0  0  0  0  0  0  0  0  0  0  0
   59.5910   32.3900   46.3610 C   0  0  0  0  0  0  0  0  0  0  0  0
   58.4340   28.4330   45.3520 C   0  0  0  0  0  0  0  0  0  0  0  0
   57.7920   27.7660   44.2980 C   0  0  0  0  0  0  0  0  0  0  0  0
   57.7990   26.3610   44.2860 C   0  0  0  0  0  0  0  0  0  0  0  0
   58.4770   25.6390   45.2850 C   0  0  0  0  0  0  0  0  0  0  0  0
   59.1740   26.3180   46.2960 C   0  0  0  0  0  0  0  0  0  0  0  0
   59.1400   27.7110   46.3000 C   0  0  0  0  0  0  0  0  0  0  0  0
   59.8720   28.6400   47.1420 C   0  0  0  0  0  0  0  0  0  0  0  0
   60.6500   28.3200   48.0800 O   0  0  0  0  0  0  0  0  0  0  0  0
   64.1078   32.2258   47.4567 H   0  0  0  0  0  0  0  0  0  0  0  0
   62.7115   32.7698   46.4661 H   0  0  0  0  0  0  0  0  0  0  0  0
   64.2367   33.7187   46.4661 H   0  0  0  0  0  0  0  0  0  0  0  0
   63.9018   34.4515   48.7202 H   0  0  0  0  0  0  0  0  0  0  0  0
   62.2919   34.6244   47.8563 H   0  0  0  0  0  0  0  0  0  0  0  0
   62.9646   32.7684   51.3085 H   0  0  0  0  0  0  0  0  0  0  0  0
   63.3507   31.4653   50.1339 H   0  0  0  0  0  0  0  0  0  0  0  0
   64.3061   32.9865   50.1339 H   0  0  0  0  0  0  0  0  0  0  0  0
   61.4635   33.9123   51.0726 H   0  0  0  0  0  0  0  0  0  0  0  0
   61.2265   34.9037   49.5874 H   0  0  0  0  0  0  0  0  0  0  0  0
   59.2745   33.3384   50.6045 H   0  0  0  0  0  0  0  0  0  0  0  0
   59.4925   33.6146   48.8202 H   0  0  0  0  0  0  0  0  0  0  0  0
   60.6055   31.2307   50.3716 H   0  0  0  0  0  0  0  0  0  0  0  0
   59.0782   31.2467   49.3685 H   0  0  0  0  0  0  0  0  0  0  0  0
   61.6560   31.9880   48.1880 H   0  0  0  0  0  0  0  0  0  0  0  0
   61.3220   30.4030   48.4340 H   0  0  0  0  0  0  0  0  0  0  0  0
   56.0185   30.7107   44.8250 H   0  0  0  0  0  0  0  0  0  0  0  0
   56.7864   31.7124   43.5469 H   0  0  0  0  0  0  0  0  0  0  0  0
   57.0105   29.9302   43.5469 H   0  0  0  0  0  0  0  0  0  0  0  0
   57.5746   33.2321   43.6860 H   0  0  0  0  0  0  0  0  0  0  0  0
   58.4480   35.4857   44.2333 H   0  0  0  0  0  0  0  0  0  0  0  0
   60.0263   35.7943   46.1232 H   0  0  0  0  0  0  0  0  0  0  0  0
   60.7815   33.8469   47.4593 H   0  0  0  0  0  0  0  0  0  0  0  0
   57.2932   28.3315   43.4971 H   0  0  0  0  0  0  0  0  0  0  0  0
   57.2692   25.8204   43.4878 H   0  0  0  0  0  0  0  0  0  0  0  0
   58.4607   24.5392   45.2736 H   0  0  0  0  0  0  0  0  0  0  0  0
   59.7327   25.7650   47.0654 H   0  0  0  0  0  0  0  0  0  0  0  0
  1  2  1  0
  2  3  1  0
  3  4  1  0
  3  5  1  0
  5  6  1  0
  6  7  1  0
  7  8  1  0
  8  9  1  0
  9 10  2  0
 10 11  1  0
 11 12  2  0
 12 13  1  0
 12 14  1  0
 14 15  2  0
 15 16  1  0
 16 17  2  0
 17 18  1  0
 18 19  2  0
 11 20  1  0
 20 21  2  0
 21 22  1  0
 22 23  2  0
 23 24  1  0
 24 25  2  0
 25 26  1  0
 26 27  2  0
 19  9  1  0
 25 20  1  0
 26 10  1  0
 19 14  1  0
  1 28  1  0
  1 29  1  0
  1 30  1  0
  2 31  1  0
  2 32  1  0
  4 33  1  0
  4 34  1  0
  4 35  1  0
  5 36  1  0
  5 37  1  0
  6 38  1  0
  6 39  1  0
  7 40  1  0
  7 41  1  0
  8 42  1  0
  8 43  1  0
 13 44  1  0
 13 45  1  0
 13 46  1  0
 15 47  1  0
 16 48  1  0
 17 49  1  0
 18 50  1  0
 21 51  1  0
 22 52  1  0
 23 53  1  0
 24 54  1  0
M  CHG  2   8   1  12   1
M  END
>  <UniqueID>  (21) 
21

>  <SMILES>  (21) 
CCN(C)CCC[NH2+]c1c2c([n+](C)c3ccccc13)-c1ccccc1C2=O

>  <Energy>  (21) 
111.44220642729648

>  <Genealogy>  (21) 
CCN(C)CCC[NH2+]c1c2c([n+](C)c3ccccc13)-c1ccccc1C2=O (protonated)
CCN(C)CCC[NH2+]c1c2c([n+](C)c3ccccc13)-c1ccccc1C2=O (3D coordinates assigned)
CCN(C)CCC[NH2+]c1c2c([n+](C)c3ccccc13)-c1ccccc1C2=O (nonaromatic ring conformer: 111.44220642729648 kcal/mol)

>  <smiles>  (21) 
CCN(C)CCCNc1c2c([n+](C)c3ccccc13)-c1ccccc1C2=O

>  <score_type>  (21) 
oracle

>  <origin>  (21) 
adg

>  <m_score__min__energy>  (21) 
-4.8700000000000001

>  <m_primary>  (21) 
energy

$$$$
21:0
     RDKit          3D

 77 80  0  0  0  0  0  0  0  0999 V2000
   59.1410   34.6750   53.8090 C   0  0  0  0  0  0  0  0  0  0  0  0
   58.5990   34.0030   52.5500 C   0  0  0  0  0  0  0  0  0  0  0  0
   59.3510   32.6920   52.2480 C   0  0  0  0  0  0  0  0  0  0  0  0
   58.8800   32.0120   51.0130 N   0  0  2  0  0  0  0  0  0  0  0  0
   57.3940   31.9300   50.9110 C   0  0  0  0  0  0  0  0  0  0  0  0
   56.7170   31.0730   51.9900 C   0  0  0  0  0  0  0  0  0  0  0  0
   59.5540   30.6910   50.8970 C   0  0  0  0  0  0  0  0  0  0  0  0
   59.3010   29.9880   49.5500 C   0  0  0  0  0  0  0  0  0  0  0  0
   59.9570   30.7080   48.4580 N   0  0  0  0  0  0  0  0  0  0  0  0
   59.2590   31.0130   47.2390 C   0  0  0  0  0  0  0  0  0  0  0  0
   58.6490   29.9740   46.5150 C   0  0  0  0  0  0  0  0  0  0  0  0
   58.5310   28.6800   47.0690 C   0  0  0  0  0  0  0  0  0  0  0  0
   57.9000   27.6580   46.3650 C   0  0  0  0  0  0  0  0  0  0  0  0
   57.3610   27.9100   45.1100 C   0  0  0  0  0  0  0  0  0  0  0  0
   57.4620   29.1810   44.5440 C   0  0  0  0  0  0  0  0  0  0  0  0
   58.1310   30.2330   45.2220 C   0  0  0  0  0  0  0  0  0  0  0  0
   58.2750   31.4860   44.6600 N   0  0  0  0  0  0  0  0  0  0  0  0
   58.0350   31.6740   43.2120 C   0  0  0  0  0  0  0  0  0  0  0  0
   58.6560   32.5580   45.4470 C   0  0  0  0  0  0  0  0  0  0  0  0
   58.5280   33.8880   44.9820 C   0  0  0  0  0  0  0  0  0  0  0  0
   58.9550   34.9630   45.7490 C   0  0  0  0  0  0  0  0  0  0  0  0
   59.4910   34.7550   47.0110 C   0  0  0  0  0  0  0  0  0  0  0  0
   59.5840   33.4600   47.5470 C   0  0  0  0  0  0  0  0  0  0  0  0
   60.0600   33.2570   48.8560 O   0  0  0  0  0  0  0  0  0  0  0  0
   60.8740   34.1480   49.6190 C   0  0  0  0  0  0  0  0  0  0  0  0
   62.0080   33.3670   50.3050 C   0  0  0  0  0  0  0  0  0  0  0  0
   63.2630   33.1660   49.5050 N   0  0  0  0  0  0  0  0  0  0  0  0
   64.3780   33.3610   50.4780 C   0  0  0  0  0  0  0  0  0  0  0  0
   63.4240   34.2130   48.4400 C   0  0  0  0  0  0  0  0  0  0  0  0
   62.9260   33.7930   47.0470 C   0  0  0  0  0  0  0  0  0  0  0  0
   63.4520   32.5410   46.6880 O   0  0  0  0  0  0  0  0  0  0  0  0
   62.8950   31.5670   47.5350 C   0  0  0  0  0  0  0  0  0  0  0  0
   63.3800   31.7600   48.9830 C   0  0  0  0  0  0  0  0  0  0  0  0
   59.1750   32.3420   46.7580 C   0  0  0  0  0  0  0  0  0  0  0  0
   58.7342   34.1706   54.6979 H   0  0  0  0  0  0  0  0  0  0  0  0
   60.2388   34.6054   53.8181 H   0  0  0  0  0  0  0  0  0  0  0  0
   58.8406   35.7331   53.8181 H   0  0  0  0  0  0  0  0  0  0  0  0
   57.5318   33.7790   52.6944 H   0  0  0  0  0  0  0  0  0  0  0  0
   58.7411   34.6885   51.7015 H   0  0  0  0  0  0  0  0  0  0  0  0
   60.4205   32.9221   52.1330 H   0  0  0  0  0  0  0  0  0  0  0  0
   59.1607   32.0078   53.0880 H   0  0  0  0  0  0  0  0  0  0  0  0
   59.2080   32.5910   50.2040 H   0  0  0  0  0  0  0  0  0  0  0  0
   56.9900   32.9506   50.9823 H   0  0  0  0  0  0  0  0  0  0  0  0
   57.1779   31.4416   49.9494 H   0  0  0  0  0  0  0  0  0  0  0  0
   57.0071   31.4403   52.9855 H   0  0  0  0  0  0  0  0  0  0  0  0
   55.6246   31.1391   51.8788 H   0  0  0  0  0  0  0  0  0  0  0  0
   57.0342   30.0256   51.8788 H   0  0  0  0  0  0  0  0  0  0  0  0
   60.6375   30.8416   51.0130 H   0  0  0  0  0  0  0  0  0  0  0  0
   59.1360   30.0445   51.6827 H   0  0  0  0  0  0  0  0  0  0  0  0
   59.6991   28.9636   49.5972 H   0  0  0  0  0  0  0  0  0  0  0  0
   58.2177   29.9689   49.3597 H   0  0  0  0  0  0  0  0  0  0  0  0
   60.9050   31.1210   48.6140 H   0  0  0  0  0  0  0  0  0  0  0  0
   58.9426   28.4774   48.0687 H   0  0  0  0  0  0  0  0  0  0  0  0
   57.8284   26.6513   46.8025 H   0  0  0  0  0  0  0  0  0  0  0  0
   56.8525   27.1043   44.5603 H   0  0  0  0  0  0  0  0  0  0  0  0
   57.0160   29.3708   43.5565 H   0  0  0  0  0  0  0  0  0  0  0  0
   57.1766   32.3464   43.0669 H   0  0  0  0  0  0  0  0  0  0  0  0
   58.9288   32.1147   42.7464 H   0  0  0  0  0  0  0  0  0  0  0  0
   57.8211   30.7006   42.7464 H   0  0  0  0  0  0  0  0  0  0  0  0
   58.0816   34.0736   43.9939 H   0  0  0  0  0  0  0  0  0  0  0  0
   58.8678   35.9858   45.3537 H   0  0  0  0  0  0  0  0  0  0  0  0
   59.8473   35.6138   47.5988 H   0  0  0  0  0  0  0  0  0  0  0  0
   61.3068   34.9079   48.9517 H   0  0  0  0  0  0  0  0  0  0  0  0
   60.2549   34.6350   50.3868 H   0  0  0  0  0  0  0  0  0  0  0  0
   62.2799   33.9095   51.2225 H   0  0  0  0  0  0  0  0  0  0  0  0
   61.6054   32.3573   50.4734 H   0  0  0  0  0  0  0  0  0  0  0  0
   63.9860   33.2924   51.5035 H   0  0  0  0  0  0  0  0  0  0  0  0
   65.1396   32.5824   50.3238 H   0  0  0  0  0  0  0  0  0  0  0  0
   64.8301   34.3519   50.3238 H   0  0  0  0  0  0  0  0  0  0  0  0
   62.8622   35.1065   48.7499 H   0  0  0  0  0  0  0  0  0  0  0  0
   64.5046   34.3941   48.3426 H   0  0  0  0  0  0  0  0  0  0  0  0
   61.8277   33.7331   47.0591 H   0  0  0  0  0  0  0  0  0  0  0  0
   63.2595   34.5405   46.3121 H   0  0  0  0  0  0  0  0  0  0  0  0
   61.7985   31.6499   47.5079 H   0  0  0  0  0  0  0  0  0  0  0  0
   63.2125   30.5732   47.1863 H   0  0  0  0  0  0  0  0  0  0  0  0
   62.7848   31.1026   49.6338 H   0  0  0  0  0  0  0  0  0  0  0  0
   64.4528   31.5169   48.9854 H   0  0  0  0  0  0  0  0  0  0  0  0
  1  2  1  0
  2  3  1  0
  3  4  1  0
  4  5  1  0
  5  6  1  0
  4  7  1  0
  7  8  1  0
  8  9  1  0
  9 10  1  0
 10 11  2  0
 11 12  1  0
 12 13  2  0
 13 14  1  0
 14 15  2  0
 15 16  1  0
 16 17  2  0
 17 18  1  0
 17 19  1  0
 19 20  2  0
 20 21  1  0
 21 22  2  0
 22 23  1  0
 23 24  1  0
 24 25  1  0
 25 26  1  0
 26 27  1  0
 27 28  1  0
 27 29  1  0
 29 30  1  0
 30 31  1  0
 31 32  1  0
 32 33  1  0
 23 34  2  0
 34 10  1  0
 16 11  1  0
 34 19  1  0
 33 27  1  0
  1 35  1  0
  1 36  1  0
  1 37  1  0
  2 38  1  0
  2 39  1  0
  3 40  1  0
  3 41  1  0
  4 42  1  6
  5 43  1  0
  5 44  1  0
  6 45  1  0
  6 46  1  0
  6 47  1  0
  7 48  1  0
  7 49  1  0
  8 50  1  0
  8 51  1  0
  9 52  1  0
 12 53  1  0
 13 54  1  0
 14 55  1  0
 15 56  1  0
 18 57  1  0
 18 58  1  0
 18 59  1  0
 20 60  1  0
 21 61  1  0
 22 62  1  0
 25 63  1  0
 25 64  1  0
 26 65  1  0
 26 66  1  0
 28 67  1  0
 28 68  1  0
 28 69  1  0
 29 70  1  0
 29 71  1  0
 30 72  1  0
 30 73  1  0
 32 74  1  0
 32 75  1  0
 33 76  1  0
 33 77  1  0
M  CHG  3   4   1  17   1  27   1
M  END
>  <UniqueID>  (22) 
22

>  <SMILES>  (22) 
CCC[N@H+](CC)CCNc1c2ccccc2[n+](C)c2cccc(OCC[N+]3(C)CCOCC3)c12

>  <Energy>  (22) 
127.8990021692599

>  <Genealogy>  (22) 
CCC[NH+](CC)CCNc1c2ccccc2[n+](C)c2cccc(OCC[N+]3(C)CCOCC3)c12 (protonated)
CCC[N@H+](CC)CCNc1c2ccccc2[n+](C)c2cccc(OCC[N+]3(C)CCOCC3)c12 (chirality)
CCC[N@H+](CC)CCNc1c2ccccc2[n+](C)c2cccc(OCC[N+]3(C)CCOCC3)c12 (3D coordinates assigned)
CCC[N@H+](CC)CCNc1c2ccccc2[n+](C)c2cccc(OCC[N+]3(C)CCOCC3)c12 (nonaromatic ring conformer: 127.8990021692599 kcal/mol)

>  <smiles>  (22) 
CCCN(CC)CCNc1c2ccccc2[n+](C)c2cccc(OCC[N+]3(C)CCOCC3)c12

>  <score_type>  (22) 
oracle

>  <origin>  (22) 
adg

>  <m_score__min__energy>  (22) 
-3.6800000000000002

>  <m_primary>  (22) 
energy

$$$$
22:0
     RDKit          3D

 50 53  0  0  0  0  0  0  0  0999 V2000
   57.1180   24.8870   46.6140 C   0  0  0  0  0  0  0  0  0  0  0  0
   56.2790   26.1360   46.3670 C   0  0  0  0  0  0  0  0  0  0  0  0
   57.0900   27.1700   45.7060 N   0  0  0  0  0  0  0  0  0  0  0  0
   58.5140   26.8030   45.6160 C   0  0  0  0  0  0  0  0  0  0  0  0
   59.3590   27.4780   46.7120 C   0  0  0  0  0  0  0  0  0  0  0  0
   58.6120   28.5770   47.3460 N   0  0  0  0  0  0  0  0  0  0  0  0
   59.1540   29.8660   46.9490 C   0  0  0  0  0  0  0  0  0  0  0  0
   58.6730   30.5270   45.7880 C   0  0  0  0  0  0  0  0  0  0  0  0
   57.8160   29.8870   44.8610 C   0  0  0  0  0  0  0  0  0  0  0  0
   57.3060   30.5760   43.7590 C   0  0  0  0  0  0  0  0  0  0  0  0
   56.2490   29.7580   42.6220 Cl  0  0  0  0  0  0  0  0  0  0  0  0
   57.6400   31.9100   43.5590 C   0  0  0  0  0  0  0  0  0  0  0  0
   58.4940   32.5580   44.4470 C   0  0  0  0  0  0  0  0  0  0  0  0
   59.0330   31.8810   45.5680 C   0  0  0  0  0  0  0  0  0  0  0  0
   59.8820   32.5210   46.4400 N   0  0  0  0  0  0  0  0  0  0  0  0
   59.7810   33.9910   46.5760 C   0  0  0  0  0  0  0  0  0  0  0  0
   60.6470   31.7820   47.3220 C   0  0  0  0  0  0  0  0  0  0  0  0
   60.2020   30.4810   47.6900 C   0  0  0  0  0  0  0  0  0  0  0  0
   60.8160   29.8330   48.7850 C   0  0  0  0  0  0  0  0  0  0  0  0
   61.8670   30.4240   49.4740 C   0  0  0  0  0  0  0  0  0  0  0  0
   62.4190   31.6210   49.0250 C   0  0  0  0  0  0  0  0  0  0  0  0
   63.5680   32.1320   49.6510 C   0  0  0  0  0  0  0  0  0  0  0  0
   64.2160   33.2480   49.1260 C   0  0  0  0  0  0  0  0  0  0  0  0
   63.7460   33.8370   47.9550 C   0  0  0  0  0  0  0  0  0  0  0  0
   62.5940   33.3470   47.3340 C   0  0  0  0  0  0  0  0  0  0  0  0
   61.8590   32.2820   47.9020 C   0  0  0  0  0  0  0  0  0  0  0  0
   57.2261   24.7261   47.6968 H   0  0  0  0  0  0  0  0  0  0  0  0
   56.6210   24.0161   46.1617 H   0  0  0  0  0  0  0  0  0  0  0  0
   58.1121   25.0177   46.1617 H   0  0  0  0  0  0  0  0  0  0  0  0
   55.4244   25.8784   45.7241 H   0  0  0  0  0  0  0  0  0  0  0  0
   55.9198   26.5237   47.3317 H   0  0  0  0  0  0  0  0  0  0  0  0
   56.7100   27.3450   44.7470 H   0  0  0  0  0  0  0  0  0  0  0  0
   58.6058   25.7117   45.7196 H   0  0  0  0  0  0  0  0  0  0  0  0
   58.8900   27.1456   44.6407 H   0  0  0  0  0  0  0  0  0  0  0  0
   59.6206   26.7317   47.4766 H   0  0  0  0  0  0  0  0  0  0  0  0
   60.2692   27.8900   46.2517 H   0  0  0  0  0  0  0  0  0  0  0  0
   58.6220   28.4760   48.3850 H   0  0  0  0  0  0  0  0  0  0  0  0
   57.5980   28.5100   47.1070 H   0  0  0  0  0  0  0  0  0  0  0  0
   57.5477   28.8308   45.0111 H   0  0  0  0  0  0  0  0  0  0  0  0
   57.2285   32.4553   42.6968 H   0  0  0  0  0  0  0  0  0  0  0  0
   58.7543   33.6128   44.2752 H   0  0  0  0  0  0  0  0  0  0  0  0
   59.7625   34.2602   47.6424 H   0  0  0  0  0  0  0  0  0  0  0  0
   60.6487   34.4644   46.0933 H   0  0  0  0  0  0  0  0  0  0  0  0
   58.8567   34.3412   46.0933 H   0  0  0  0  0  0  0  0  0  0  0  0
   60.4549   28.8421   49.0976 H   0  0  0  0  0  0  0  0  0  0  0  0
   62.2658   29.9438   50.3797 H   0  0  0  0  0  0  0  0  0  0  0  0
   63.9577   31.6491   50.5593 H   0  0  0  0  0  0  0  0  0  0  0  0
   65.0978   33.6633   49.6359 H   0  0  0  0  0  0  0  0  0  0  0  0
   64.2835   34.6911   47.5172 H   0  0  0  0  0  0  0  0  0  0  0  0
   62.2544   33.7968   46.3894 H   0  0  0  0  0  0  0  0  0  0  0  0
  1  2  1  0
  2  3  1  0
  3  4  1  0
  4  5  1  0
  5  6  1  0
  6  7  1  0
  7  8  2  0
  8  9  1  0
  9 10  2  0
 10 11  1  0
 10 12  1  0
 12 13  2  0
 13 14  1  0
 14 15  2  0
 15 16  1  0
 15 17  1  0
 17 18  2  0
 18 19  1  0
 19 20  2  0
 20 21  1  0
 21 22  2  0
 22 23  1  0
 23 24  2  0
 24 25  1  0
 25 26  2  0
 18  7  1  0
 26 21  1  0
 14  8  1  0
 26 17  1  0
  1 27  1  0
  1 28  1  0
  1 29  1  0
  2 30  1  0
  2 31  1  0
  3 32  1  0
  4 33  1  0
  4 34  1  0
  5 35  1  0
  5 36  1  0
  6 37  1  0
  6 38  1  0
  9 39  1  0
 12 40  1  0
 13 41  1  0
 16 42  1  0
 16 43  1  0
 16 44  1  0
 19 45  1  0
 20 46  1  0
 22 47  1  0
 23 48  1  0
 24 49  1  0
 25 50  1  0
M  CHG  2   6   1  15   1
M  END
>  <UniqueID>  (23) 
23

>  <SMILES>  (23) 
CCNCC[NH2+]c1c2cc(Cl)ccc2[n+](C)c2c1ccc1ccccc12

>  <Energy>  (23) 
93.36698050288321

>  <Genealogy>  (23) 
CCNCC[NH2+]c1c2cc(Cl)ccc2[n+](C)c2c1ccc1ccccc12 (protonated)
CCNCC[NH2+]c1c2cc(Cl)ccc2[n+](C)c2c1ccc1ccccc12 (3D coordinates assigned)
CCNCC[NH2+]c1c2cc(Cl)ccc2[n+](C)c2c1ccc1ccccc12 (optimized conformer: 93.36698050288321 kcal/mol)

>  <smiles>  (23) 
CCNCCNc1c2cc(Cl)ccc2[n+](C)c2c1ccc1ccccc12

>  <score_type>  (23) 
oracle

>  <origin>  (23) 
adg

>  <m_score__min__energy>  (23) 
-4.8300000000000001

>  <m_primary>  (23) 
energy

$$$$
23:0
     RDKit          3D

 57 59  0  0  0  0  0  0  0  0999 V2000
   55.0870   23.7420   45.0980 C   0  0  0  0  0  0  0  0  0  0  0  0
   55.2970   23.6360   46.6050 C   0  0  0  0  0  0  0  0  0  0  0  0
   55.9700   24.8260   47.1150 N   0  0  0  0  0  0  0  0  0  0  0  0
   56.1770   26.0150   46.3380 C   0  0  0  0  0  0  0  0  0  0  0  0
   55.1900   26.7030   45.9580 O   0  0  0  0  0  0  0  0  0  0  0  0
   57.5800   26.3820   45.9180 C   0  0  2  0  0  0  0  0  0  0  0  0
   57.9950   27.7770   46.4300 C   0  0  0  0  0  0  0  0  0  0  0  0
   57.3590   28.9400   45.6340 C   0  0  0  0  0  0  0  0  0  0  0  0
   57.0910   28.6150   44.2070 N   0  0  1  0  0  0  0  0  0  0  0  0
   57.0070   29.8340   43.3520 C   0  0  0  0  0  0  0  0  0  0  0  0
   58.0240   30.9670   43.6440 C   0  0  0  0  0  0  0  0  0  0  0  0
   57.3890   32.2840   44.1080 C   0  0  0  0  0  0  0  0  0  0  0  0
   57.4330   32.3870   45.5310 O   0  0  0  0  0  0  0  0  0  0  0  0
   58.5860   32.6260   46.2980 C   0  0  0  0  0  0  0  0  0  0  0  0
   59.2020   31.5370   46.9220 C   0  0  0  0  0  0  0  0  0  0  0  0
   60.3560   31.7130   47.6900 C   0  0  0  0  0  0  0  0  0  0  0  0
   60.9180   32.9910   47.8530 C   0  0  0  0  0  0  0  0  0  0  0  0
   62.1520   33.1790   48.6600 C   0  0  0  0  0  0  0  0  0  0  0  0
   63.3770   32.6270   48.2350 C   0  0  0  0  0  0  0  0  0  0  0  0
   64.5370   32.8090   48.9940 C   0  0  0  0  0  0  0  0  0  0  0  0
   64.4900   33.5410   50.1830 C   0  0  0  0  0  0  0  0  0  0  0  0
   63.2820   34.0930   50.6160 C   0  0  0  0  0  0  0  0  0  0  0  0
   62.1180   33.9140   49.8610 C   0  0  0  0  0  0  0  0  0  0  0  0
   60.2930   34.0890   47.2350 C   0  0  0  0  0  0  0  0  0  0  0  0
   59.1390   33.9110   46.4650 C   0  0  0  0  0  0  0  0  0  0  0  0
   57.9960   27.5750   43.6730 C   0  0  0  0  0  0  0  0  0  0  0  0
   57.7710   26.2320   44.3880 C   0  0  0  0  0  0  0  0  0  0  0  0
   54.1218   24.2292   44.8957 H   0  0  0  0  0  0  0  0  0  0  0  0
   55.8986   24.3384   44.6557 H   0  0  0  0  0  0  0  0  0  0  0  0
   55.0892   22.7348   44.6557 H   0  0  0  0  0  0  0  0  0  0  0  0
   54.3199   23.5333   47.0998 H   0  0  0  0  0  0  0  0  0  0  0  0
   55.9241   22.7569   46.8146 H   0  0  0  0  0  0  0  0  0  0  0  0
   58.2624   25.6650   46.3978 H   0  0  0  0  0  0  0  0  0  0  0  0
   57.6887   27.8669   47.4826 H   0  0  0  0  0  0  0  0  0  0  0  0
   59.0849   27.8568   46.3046 H   0  0  0  0  0  0  0  0  0  0  0  0
   56.4060   29.2082   46.1135 H   0  0  0  0  0  0  0  0  0  0  0  0
   58.0828   29.7683   45.6435 H   0  0  0  0  0  0  0  0  0  0  0  0
   56.1270   28.2010   44.1800 H   0  0  0  0  0  0  0  0  0  0  0  0
   57.1517   29.5184   42.3082 H   0  0  0  0  0  0  0  0  0  0  0  0
   56.0212   30.2702   43.5707 H   0  0  0  0  0  0  0  0  0  0  0  0
   58.7096   30.6196   44.4309 H   0  0  0  0  0  0  0  0  0  0  0  0
   58.5354   31.1824   42.6943 H   0  0  0  0  0  0  0  0  0  0  0  0
   57.9411   33.1270   43.6669 H   0  0  0  0  0  0  0  0  0  0  0  0
   56.3385   32.3062   43.7824 H   0  0  0  0  0  0  0  0  0  0  0  0
   58.7734   30.5305   46.8071 H   0  0  0  0  0  0  0  0  0  0  0  0
   60.8287   30.8440   48.1711 H   0  0  0  0  0  0  0  0  0  0  0  0
   63.4208   32.0492   47.3000 H   0  0  0  0  0  0  0  0  0  0  0  0
   65.4889   32.3748   48.6542 H   0  0  0  0  0  0  0  0  0  0  0  0
   65.4042   33.6827   50.7782 H   0  0  0  0  0  0  0  0  0  0  0  0
   63.2460   34.6694   51.5522 H   0  0  0  0  0  0  0  0  0  0  0  0
   61.1696   34.3503   50.2077 H   0  0  0  0  0  0  0  0  0  0  0  0
   60.7157   35.0970   47.3584 H   0  0  0  0  0  0  0  0  0  0  0  0
   58.6607   34.7788   45.9873 H   0  0  0  0  0  0  0  0  0  0  0  0
   57.8030   27.4473   42.5976 H   0  0  0  0  0  0  0  0  0  0  0  0
   59.0354   27.8932   43.8417 H   0  0  0  0  0  0  0  0  0  0  0  0
   56.8716   25.7582   43.9678 H   0  0  0  0  0  0  0  0  0  0  0  0
   58.6716   25.6208   44.2285 H   0  0  0  0  0  0  0  0  0  0  0  0
  1  2  1  0
  2  3  1  0
  3  4  1  0
  4  5  2  0
  4  6  1  0
  6  7  1  0
  7  8  1  0
  8  9  1  0
  9 10  1  0
 10 11  1  0
 11 12  1  0
 12 13  1  0
 13 14  1  0
 14 15  2  0
 15 16  1  0
 16 17  2  0
 17 18  1  0
 18 19  2  0
 19 20  1  0
 20 21  2  0
 21 22  1  0
 22 23  2  0
 17 24  1  0
 24 25  2  0
  9 26  1  0
 26 27  1  0
 27  6  1  0
 25 14  1  0
 23 18  1  0
  1 28  1  0
  1 29  1  0
  1 30  1  0
  2 31  1  0
  2 32  1  0
  6 33  1  1
  7 34  1  0
  7 35  1  0
  8 36  1  0
  8 37  1  0
  9 38  1  1
 10 39  1  0
 10 40  1  0
 11 41  1  0
 11 42  1  0
 12 43  1  0
 12 44  1  0
 15 45  1  0
 16 46  1  0
 19 47  1  0
 20 48  1  0
 21 49  1  0
 22 50  1  0
 23 51  1  0
 24 52  1  0
 25 53  1  0
 26 54  1  0
 26 55  1  0
 27 56  1  0
 27 57  1  0
M  CHG  2   3  -1   9   1
M  END
>  <UniqueID>  (24) 
24

>  <SMILES>  (24) 
CC[N-]C(=O)C1CC[NH+](CCCOc2ccc(-c3ccccc3)cc2)CC1

>  <Energy>  (24) 
71.74600227267238

>  <Genealogy>  (24) 
CC[N-]C(=O)C1CC[NH+](CCCOc2ccc(-c3ccccc3)cc2)CC1 (protonated)
CC[N-]C(=O)C1CC[NH+](CCCOc2ccc(-c3ccccc3)cc2)CC1 (3D coordinates assigned)
CC[N-]C(=O)C1CC[NH+](CCCOc2ccc(-c3ccccc3)cc2)CC1 (nonaromatic ring conformer: 71.74600227267238 kcal/mol)

>  <smiles>  (24) 
CCNC(=O)C1CCN(CCCOc2ccc(-c3ccccc3)cc2)CC1

>  <score_type>  (24) 
oracle

>  <origin>  (24) 
adg

>  <m_score__min__energy>  (24) 
-9

>  <m_primary>  (24) 
energy

$$$$
24:0
     RDKit          3D

 37 37  0  0  0  0  0  0  0  0999 V2000
   55.4890   23.9370   46.4330 C   0  0  0  0  0  0  0  0  0  0  0  0
   54.7000   24.9470   45.6070 C   0  0  0  0  0  0  0  0  0  0  0  0
   55.0580   26.2650   45.9750 O   0  0  0  0  0  0  0  0  0  0  0  0
   56.3920   26.3060   46.4390 C   0  0  0  0  0  0  0  0  0  0  0  0
   57.3450   26.3980   45.2500 C   0  0  0  0  0  0  0  0  0  0  0  0
   58.6850   26.4920   45.7020 O   0  0  0  0  0  0  0  0  0  0  0  0
   58.7480   26.8100   47.0800 C   0  0  0  0  0  0  0  0  0  0  0  0
   58.9800   28.3110   47.2740 C   0  0  0  0  0  0  0  0  0  0  0  0
   58.0880   29.0670   46.4550 O   0  0  0  0  0  0  0  0  0  0  0  0
   58.2380   30.4240   46.1190 C   0  0  0  0  0  0  0  0  0  0  0  0
   58.9800   31.3230   46.9130 C   0  0  0  0  0  0  0  0  0  0  0  0
   59.1030   32.6620   46.5360 C   0  0  0  0  0  0  0  0  0  0  0  0
   58.4900   33.1220   45.3660 C   0  0  0  0  0  0  0  0  0  0  0  0
   58.6490   34.8430   44.8860 S   0  0  0  0  0  0  0  0  0  0  0  0
   59.6560   35.2810   46.3370 C   0  0  0  0  0  0  0  0  0  0  0  0
   57.7440   32.2410   44.5790 C   0  0  0  0  0  0  0  0  0  0  0  0
   57.6170   30.8980   44.9510 C   0  0  0  0  0  0  0  0  0  0  0  0
   56.5950   29.7180   43.8440 Br  0  0  0  0  0  0  0  0  0  0  0  0
   55.3329   24.1369   47.5034 H   0  0  0  0  0  0  0  0  0  0  0  0
   55.1439   22.9198   46.1958 H   0  0  0  0  0  0  0  0  0  0  0  0
   56.5594   24.0257   46.1958 H   0  0  0  0  0  0  0  0  0  0  0  0
   54.9203   24.7951   44.5401 H   0  0  0  0  0  0  0  0  0  0  0  0
   53.6256   24.8017   45.7930 H   0  0  0  0  0  0  0  0  0  0  0  0
   56.5278   27.1853   47.0859 H   0  0  0  0  0  0  0  0  0  0  0  0
   56.6083   25.3914   47.0107 H   0  0  0  0  0  0  0  0  0  0  0  0
   57.2345   25.4992   44.6256 H   0  0  0  0  0  0  0  0  0  0  0  0
   57.1007   27.2958   44.6632 H   0  0  0  0  0  0  0  0  0  0  0  0
   57.8006   26.5250   47.5609 H   0  0  0  0  0  0  0  0  0  0  0  0
   59.5847   26.2591   47.5343 H   0  0  0  0  0  0  0  0  0  0  0  0
   58.8090   28.5699   48.3294 H   0  0  0  0  0  0  0  0  0  0  0  0
   60.0145   28.5502   46.9864 H   0  0  0  0  0  0  0  0  0  0  0  0
   59.4645   30.9675   47.8343 H   0  0  0  0  0  0  0  0  0  0  0  0
   59.6835   33.3567   47.1608 H   0  0  0  0  0  0  0  0  0  0  0  0
   59.1006   35.0394   47.2552 H   0  0  0  0  0  0  0  0  0  0  0  0
   60.5963   34.7106   46.3165 H   0  0  0  0  0  0  0  0  0  0  0  0
   59.8798   36.3578   46.3165 H   0  0  0  0  0  0  0  0  0  0  0  0
   57.2546   32.6045   43.6634 H   0  0  0  0  0  0  0  0  0  0  0  0
  1  2  1  0
  2  3  1  0
  3  4  1  0
  4  5  1  0
  5  6  1  0
  6  7  1  0
  7  8  1  0
  8  9  1  0
  9 10  1  0
 10 11  2  0
 11 12  1  0
 12 13  2  0
 13 14  1  0
 14 15  1  0
 13 16  1  0
 16 17  2  0
 17 18  1  0
 17 10  1  0
  1 19  1  0
  1 20  1  0
  1 21  1  0
  2 22  1  0
  2 23  1  0
  4 24  1  0
  4 25  1  0
  5 26  1  0
  5 27  1  0
  7 28  1  0
  7 29  1  0
  8 30  1  0
  8 31  1  0
 11 32  1  0
 12 33  1  0
 15 34  1  0
 15 35  1  0
 15 36  1  0
 16 37  1  0
M  END
>  <UniqueID>  (25) 
25

>  <SMILES>  (25) 
CCOCCOCCOc1ccc(SC)cc1Br

>  <Energy>  (25) 
29.565689358144194

>  <Genealogy>  (25) 
CCOCCOCCOc1ccc(SC)cc1Br (3D coordinates assigned)
CCOCCOCCOc1ccc(SC)cc1Br (optimized conformer: 29.565689358144194 kcal/mol)

>  <smiles>  (25) 
CCOCCOCCOc1ccc(SC)cc1Br

>  <score_type>  (25) 
oracle

>  <origin>  (25) 
adg

>  <m_score__min__energy>  (25) 
-6.7400000000000002

>  <m_primary>  (25) 
energy

$$$$
25:0
     RDKit          3D

 51 53  0  0  0  0  0  0  0  0999 V2000
   59.8680   33.4960   52.2090 C   0  0  0  0  0  0  0  0  0  0  0  0
   61.0900   33.1490   51.3650 C   0  0  0  0  0  0  0  0  0  0  0  0
   60.8150   33.3900   49.9390 N   0  0  0  0  0  0  0  0  0  0  0  0
   59.6420   33.9900   49.5830 C   0  0  0  0  0  0  0  0  0  0  0  0
   59.3610   34.2700   48.2450 C   0  0  0  0  0  0  0  0  0  0  0  0
   60.3130   33.9580   47.2680 C   0  0  0  0  0  0  0  0  0  0  0  0
   59.9970   34.2630   45.8210 C   0  0  0  0  0  0  0  0  0  0  0  0
   58.5620   33.8360   45.4690 C   0  0  0  0  0  0  0  0  0  0  0  0
   58.5110   32.9130   44.2440 C   0  0  0  0  0  0  0  0  0  0  0  0
   57.8870   31.5800   44.5710 C   0  0  0  0  0  0  0  0  0  0  0  0
   56.8070   31.1030   43.8140 C   0  0  0  0  0  0  0  0  0  0  0  0
   56.2080   29.8800   44.1330 C   0  0  0  0  0  0  0  0  0  0  0  0
   56.6730   29.1200   45.2120 C   0  0  0  0  0  0  0  0  0  0  0  0
   56.0380   27.9010   45.4920 O   0  0  0  0  0  0  0  0  0  0  0  0
   56.7110   26.7260   45.9300 C   0  0  0  0  0  0  0  0  0  0  0  0
   57.7540   29.6010   45.9760 C   0  0  0  0  0  0  0  0  0  0  0  0
   58.3530   30.8230   45.6580 C   0  0  0  0  0  0  0  0  0  0  0  0
   61.4950   33.3870   47.6650 N   0  0  0  0  0  0  0  0  0  0  0  0
   61.7270   33.0840   48.9610 C   0  0  0  0  0  0  0  0  0  0  0  0
   63.0290   32.4000   49.1790 C   0  0  0  0  0  0  0  0  0  0  0  0
   63.5240   32.1390   47.7550 C   0  0  0  0  0  0  0  0  0  0  0  0
   62.6270   32.9880   46.8290 C   0  0  2  0  0  0  0  0  0  0  0  0
   63.3920   34.2180   46.3170 C   0  0  0  0  0  0  0  0  0  0  0  0
   60.1263   33.4226   53.2757 H   0  0  0  0  0  0  0  0  0  0  0  0
   59.5435   34.5218   51.9800 H   0  0  0  0  0  0  0  0  0  0  0  0
   59.0528   32.7938   51.9800 H   0  0  0  0  0  0  0  0  0  0  0  0
   61.9380   33.7742   51.6811 H   0  0  0  0  0  0  0  0  0  0  0  0
   61.3307   32.0851   51.5068 H   0  0  0  0  0  0  0  0  0  0  0  0
   58.9097   34.2559   50.3596 H   0  0  0  0  0  0  0  0  0  0  0  0
   58.4029   34.7303   47.9618 H   0  0  0  0  0  0  0  0  0  0  0  0
   60.1029   35.3444   45.6498 H   0  0  0  0  0  0  0  0  0  0  0  0
   60.6962   33.7019   45.1835 H   0  0  0  0  0  0  0  0  0  0  0  0
   58.1301   33.3048   46.3300 H   0  0  0  0  0  0  0  0  0  0  0  0
   57.9907   34.7448   45.2287 H   0  0  0  0  0  0  0  0  0  0  0  0
   57.9176   33.3999   43.4561 H   0  0  0  0  0  0  0  0  0  0  0  0
   59.5432   32.7335   43.9087 H   0  0  0  0  0  0  0  0  0  0  0  0
   56.4295   31.6931   42.9659 H   0  0  0  0  0  0  0  0  0  0  0  0
   55.3642   29.5125   43.5306 H   0  0  0  0  0  0  0  0  0  0  0  0
   56.7258   26.7002   47.0296 H   0  0  0  0  0  0  0  0  0  0  0  0
   56.1844   25.8384   45.5495 H   0  0  0  0  0  0  0  0  0  0  0  0
   57.7431   26.7312   45.5495 H   0  0  0  0  0  0  0  0  0  0  0  0
   58.1284   29.0124   46.8265 H   0  0  0  0  0  0  0  0  0  0  0  0
   59.1940   31.1938   46.2624 H   0  0  0  0  0  0  0  0  0  0  0  0
   63.7285   33.0474   49.7282 H   0  0  0  0  0  0  0  0  0  0  0  0
   62.9417   31.4842   49.7820 H   0  0  0  0  0  0  0  0  0  0  0  0
   64.5756   32.4454   47.6540 H   0  0  0  0  0  0  0  0  0  0  0  0
   63.4690   31.0705   47.4994 H   0  0  0  0  0  0  0  0  0  0  0  0
   62.3025   32.4313   45.9375 H   0  0  0  0  0  0  0  0  0  0  0  0
   63.7571   34.8050   47.1726 H   0  0  0  0  0  0  0  0  0  0  0  0
   64.2460   33.8905   45.7059 H   0  0  0  0  0  0  0  0  0  0  0  0
   62.7206   34.8392   45.7059 H   0  0  0  0  0  0  0  0  0  0  0  0
  1  2  1  0
  2  3  1  0
  3  4  2  0
  4  5  1  0
  5  6  2  0
  6  7  1  0
  7  8  1  0
  8  9  1  0
  9 10  1  0
 10 11  2  0
 11 12  1  0
 12 13  2  0
 13 14  1  0
 14 15  1  0
 13 16  1  0
 16 17  2  0
  6 18  1  0
 18 19  2  0
 19 20  1  0
 20 21  1  0
 21 22  1  0
 22 23  1  0
 19  3  1  0
 17 10  1  0
 22 18  1  0
  1 24  1  0
  1 25  1  0
  1 26  1  0
  2 27  1  0
  2 28  1  0
  4 29  1  0
  5 30  1  0
  7 31  1  0
  7 32  1  0
  8 33  1  0
  8 34  1  0
  9 35  1  0
  9 36  1  0
 11 37  1  0
 12 38  1  0
 15 39  1  0
 15 40  1  0
 15 41  1  0
 16 42  1  0
 17 43  1  0
 20 44  1  0
 20 45  1  0
 21 46  1  0
 21 47  1  0
 22 48  1  6
 23 49  1  0
 23 50  1  0
 23 51  1  0
M  CHG  2   3   1  18   1
M  END
>  <UniqueID>  (26) 
26

>  <SMILES>  (26) 
CC[n+]1ccc(CCCc2ccc(OC)cc2)[n+]2c1CC[C@@H]2C

>  <Energy>  (26) 
52.838033756866366

>  <Genealogy>  (26) 
CC[n+]1ccc(CCCc2ccc(OC)cc2)[n+]2c1CC[C@@H]2C (chirality)
CC[n+]1ccc(CCCc2ccc(OC)cc2)[n+]2c1CC[C@@H]2C (3D coordinates assigned)
CC[n+]1ccc(CCCc2ccc(OC)cc2)[n+]2c1CC[C@@H]2C (nonaromatic ring conformer: 52.838033756866366 kcal/mol)

>  <smiles>  (26) 
CC[n+]1ccc(CCCc2ccc(OC)cc2)[n+]2c1CCC2C

>  <score_type>  (26) 
oracle

>  <origin>  (26) 
adg

>  <m_score__min__energy>  (26) 
-5.2000000000000002

>  <m_primary>  (26) 
energy

$$$$
26:0
     RDKit          3D

 82 84  0  0  0  0  0  0  0  0999 V2000
   63.3800   32.6760   50.3380 C   0  0  0  0  0  0  0  0  0  0  0  0
   62.4640   33.6270   49.5710 C   0  0  0  0  0  0  0  0  0  0  0  0
   61.9060   32.9530   48.3760 N   0  0  0  0  0  0  0  0  0  0  0  0
   62.9760   32.6060   47.4110 C   0  0  0  0  0  0  0  0  0  0  0  0
   63.2630   33.7840   46.4820 C   0  0  0  0  0  0  0  0  0  0  0  0
   60.8630   33.7880   47.7340 C   0  0  0  0  0  0  0  0  0  0  0  0
   59.6630   33.9710   48.6690 C   0  0  0  0  0  0  0  0  0  0  0  0
   59.0660   32.6840   49.0180 N   0  0  0  0  0  0  0  0  0  0  0  0
   59.5100   31.9720   50.1810 C   0  0  0  0  0  0  0  0  0  0  0  0
   59.4480   32.6050   51.4330 C   0  0  0  0  0  0  0  0  0  0  0  0
   58.8560   33.8800   51.5680 C   0  0  0  0  0  0  0  0  0  0  0  0
   58.7590   34.4930   52.8150 C   0  0  0  0  0  0  0  0  0  0  0  0
   59.2320   33.8410   53.9480 C   0  0  0  0  0  0  0  0  0  0  0  0
   59.8260   32.5840   53.8380 C   0  0  0  0  0  0  0  0  0  0  0  0
   59.9750   31.9520   52.5750 C   0  0  0  0  0  0  0  0  0  0  0  0
   60.6010   30.7290   52.4430 N   0  0  0  0  0  0  0  0  0  0  0  0
   61.4190   30.1970   53.5550 C   0  0  0  0  0  0  0  0  0  0  0  0
   60.4840   30.0140   51.2630 C   0  0  0  0  0  0  0  0  0  0  0  0
   60.8610   28.6520   51.1970 C   0  0  0  0  0  0  0  0  0  0  0  0
   60.7990   27.9470   50.0040 C   0  0  0  0  0  0  0  0  0  0  0  0
   60.3470   28.5630   48.8470 C   0  0  0  0  0  0  0  0  0  0  0  0
   59.9190   29.9020   48.8640 C   0  0  0  0  0  0  0  0  0  0  0  0
   59.4250   30.5150   47.6970 O   0  0  0  0  0  0  0  0  0  0  0  0
   59.2140   29.9080   46.4190 C   0  0  0  0  0  0  0  0  0  0  0  0
   58.3820   28.6250   46.5320 C   0  0  0  0  0  0  0  0  0  0  0  0
   57.7850   28.1750   45.1950 C   0  0  0  0  0  0  0  0  0  0  0  0
   56.2900   28.1150   45.2670 C   0  0  0  0  0  0  0  0  0  0  0  0
   55.7200   27.0750   45.6980 O   0  0  0  0  0  0  0  0  0  0  0  0
   55.5160   29.2500   44.8710 N   0  0  0  0  0  0  0  0  0  0  0  0
   55.4760   29.7400   43.5000 C   0  0  0  0  0  0  0  0  0  0  0  0
   56.6640   30.6730   43.2570 C   0  0  0  0  0  0  0  0  0  0  0  0
   56.9920   31.5500   44.4790 C   0  0  0  0  0  0  0  0  0  0  0  0
   58.1100   32.5770   44.2240 C   0  0  0  0  0  0  0  0  0  0  0  0
   58.4500   33.3340   45.4490 N   0  0  0  0  0  0  0  0  0  0  0  0
   57.2740   33.4790   46.3260 C   0  0  0  0  0  0  0  0  0  0  0  0
   58.9650   34.6660   45.0970 C   0  0  0  0  0  0  0  0  0  0  0  0
   59.9650   30.6350   50.0890 C   0  0  0  0  0  0  0  0  0  0  0  0
   63.2386   32.8228   51.4189 H   0  0  0  0  0  0  0  0  0  0  0  0
   63.1338   31.6370   50.0738 H   0  0  0  0  0  0  0  0  0  0  0  0
   64.4275   32.8831   50.0738 H   0  0  0  0  0  0  0  0  0  0  0  0
   61.6396   33.9440   50.2266 H   0  0  0  0  0  0  0  0  0  0  0  0
   63.0472   34.5020   49.2480 H   0  0  0  0  0  0  0  0  0  0  0  0
   63.8920   32.3494   47.9634 H   0  0  0  0  0  0  0  0  0  0  0  0
   62.6445   31.7491   46.8061 H   0  0  0  0  0  0  0  0  0  0  0  0
   63.4812   34.6796   47.0822 H   0  0  0  0  0  0  0  0  0  0  0  0
   64.1299   33.5478   45.8474 H   0  0  0  0  0  0  0  0  0  0  0  0
   62.3846   33.9730   45.8474 H   0  0  0  0  0  0  0  0  0  0  0  0
   61.2872   34.7741   47.4940 H   0  0  0  0  0  0  0  0  0  0  0  0
   60.5227   33.2849   46.8169 H   0  0  0  0  0  0  0  0  0  0  0  0
   59.9977   34.4728   49.5889 H   0  0  0  0  0  0  0  0  0  0  0  0
   58.9060   34.5778   48.1506 H   0  0  0  0  0  0  0  0  0  0  0  0
   58.3230   32.2510   48.4240 H   0  0  0  0  0  0  0  0  0  0  0  0
   58.4667   34.3953   50.6775 H   0  0  0  0  0  0  0  0  0  0  0  0
   58.3083   35.4926   52.9032 H   0  0  0  0  0  0  0  0  0  0  0  0
   59.1374   34.3181   54.9346 H   0  0  0  0  0  0  0  0  0  0  0  0
   60.1849   32.0739   54.7441 H   0  0  0  0  0  0  0  0  0  0  0  0
   60.9683   30.4901   54.5146 H   0  0  0  0  0  0  0  0  0  0  0  0
   61.4588   29.0997   53.4886 H   0  0  0  0  0  0  0  0  0  0  0  0
   62.4381   30.6056   53.4886 H   0  0  0  0  0  0  0  0  0  0  0  0
   61.2094   28.1431   52.1078 H   0  0  0  0  0  0  0  0  0  0  0  0
   61.1104   26.8924   49.9757 H   0  0  0  0  0  0  0  0  0  0  0  0
   60.3230   27.9970   47.9041 H   0  0  0  0  0  0  0  0  0  0  0  0
   58.6847   30.6202   45.7689 H   0  0  0  0  0  0  0  0  0  0  0  0
   60.1954   29.6447   45.9977 H   0  0  0  0  0  0  0  0  0  0  0  0
   59.0283   27.8214   46.9147 H   0  0  0  0  0  0  0  0  0  0  0  0
   57.5427   28.8376   47.2105 H   0  0  0  0  0  0  0  0  0  0  0  0
   58.0789   28.8889   44.4115 H   0  0  0  0  0  0  0  0  0  0  0  0
   58.1650   27.1692   44.9626 H   0  0  0  0  0  0  0  0  0  0  0  0
   55.5298   28.8892   42.8048 H   0  0  0  0  0  0  0  0  0  0  0  0
   54.5379   30.2901   43.3344 H   0  0  0  0  0  0  0  0  0  0  0  0
   57.5466   30.0628   43.0150 H   0  0  0  0  0  0  0  0  0  0  0  0
   56.3940   31.3452   42.4292 H   0  0  0  0  0  0  0  0  0  0  0  0
   56.0812   32.0938   44.7702 H   0  0  0  0  0  0  0  0  0  0  0  0
   57.3506   30.8756   45.2706 H   0  0  0  0  0  0  0  0  0  0  0  0
   59.0073   32.0467   43.8725 H   0  0  0  0  0  0  0  0  0  0  0  0
   57.7521   33.2918   43.4684 H   0  0  0  0  0  0  0  0  0  0  0  0
   57.5938   33.4396   47.3777 H   0  0  0  0  0  0  0  0  0  0  0  0
   56.7852   34.4442   46.1273 H   0  0  0  0  0  0  0  0  0  0  0  0
   56.5654   32.6614   46.1273 H   0  0  0  0  0  0  0  0  0  0  0  0
   59.1829   35.2296   46.0162 H   0  0  0  0  0  0  0  0  0  0  0  0
   59.8863   34.5584   44.5058 H   0  0  0  0  0  0  0  0  0  0  0  0
   58.2109   35.2062   44.5058 H   0  0  0  0  0  0  0  0  0  0  0  0
  1  2  1  0
  2  3  1  0
  3  4  1  0
  4  5  1  0
  3  6  1  0
  6  7  1  0
  7  8  1  0
  8  9  1  0
  9 10  2  0
 10 11  1  0
 11 12  2  0
 12 13  1  0
 13 14  2  0
 14 15  1  0
 15 16  2  0
 16 17  1  0
 16 18  1  0
 18 19  2  0
 19 20  1  0
 20 21  2  0
 21 22  1  0
 22 23  1  0
 23 24  1  0
 24 25  1  0
 25 26  1  0
 26 27  1  0
 27 28  2  0
 27 29  1  0
 29 30  1  0
 30 31  1  0
 31 32  1  0
 32 33  1  0
 33 34  1  0
 34 35  1  0
 34 36  1  0
 22 37  2  0
 37  9  1  0
 15 10  1  0
 37 18  1  0
  1 38  1  0
  1 39  1  0
  1 40  1  0
  2 41  1  0
  2 42  1  0
  4 43  1  0
  4 44  1  0
  5 45  1  0
  5 46  1  0
  5 47  1  0
  6 48  1  0
  6 49  1  0
  7 50  1  0
  7 51  1  0
  8 52  1  0
 11 53  1  0
 12 54  1  0
 13 55  1  0
 14 56  1  0
 17 57  1  0
 17 58  1  0
 17 59  1  0
 19 60  1  0
 20 61  1  0
 21 62  1  0
 24 63  1  0
 24 64  1  0
 25 65  1  0
 25 66  1  0
 26 67  1  0
 26 68  1  0
 30 69  1  0
 30 70  1  0
 31 71  1  0
 31 72  1  0
 32 73  1  0
 32 74  1  0
 33 75  1  0
 33 76  1  0
 35 77  1  0
 35 78  1  0
 35 79  1  0
 36 80  1  0
 36 81  1  0
 36 82  1  0
M  CHG  2  16   1  29  -1
M  END
>  <UniqueID>  (27) 
27

>  <SMILES>  (27) 
CCN(CC)CCNc1c2ccccc2[n+](C)c2cccc(OCCCC(=O)[N-]CCCCN(C)C)c12

>  <Energy>  (27) 
96.76531665937301

>  <Genealogy>  (27) 
CCN(CC)CCNc1c2ccccc2[n+](C)c2cccc(OCCCC(=O)[N-]CCCCN(C)C)c12 (protonated)
CCN(CC)CCNc1c2ccccc2[n+](C)c2cccc(OCCCC(=O)[N-]CCCCN(C)C)c12 (3D coordinates assigned)
CCN(CC)CCNc1c2ccccc2[n+](C)c2cccc(OCCCC(=O)[N-]CCCCN(C)C)c12 (optimized conformer: 96.76531665937301 kcal/mol)

>  <smiles>  (27) 
CCN(CC)CCNc1c2ccccc2[n+](C)c2cccc(OCCCC(=O)NCCCCN(C)C)c12

>  <score_type>  (27) 
oracle

>  <origin>  (27) 
adg

>  <m_score__min__energy>  (27) 
-9.0399999999999991

>  <m_primary>  (27) 
energy

$$$$
27:0
     RDKit          3D

 75 78  0  0  0  0  0  0  0  0999 V2000
   58.4970   33.0260   51.6260 C   0  0  0  0  0  0  0  0  0  0  0  0
   58.5300   32.4420   50.2170 C   0  0  0  0  0  0  0  0  0  0  0  0
   58.2330   30.9930   50.2470 N   0  0  0  0  0  0  0  0  0  0  0  0
   57.7580   30.5510   51.5700 C   0  0  0  0  0  0  0  0  0  0  0  0
   59.3600   30.1690   49.7520 C   0  0  0  0  0  0  0  0  0  0  0  0
   58.9590   29.1560   48.6600 C   0  0  0  0  0  0  0  0  0  0  0  0
   60.1770   28.7300   47.8360 C   0  0  0  0  0  0  0  0  0  0  0  0
   60.7020   29.8600   47.0700 N   0  0  0  0  0  0  0  0  0  0  0  0
   59.8280   30.8130   46.4460 C   0  0  0  0  0  0  0  0  0  0  0  0
   58.8780   30.3640   45.5140 C   0  0  0  0  0  0  0  0  0  0  0  0
   58.8840   29.0260   45.0620 C   0  0  0  0  0  0  0  0  0  0  0  0
   57.9610   28.5910   44.1150 C   0  0  0  0  0  0  0  0  0  0  0  0
   57.0280   29.4790   43.5930 C   0  0  0  0  0  0  0  0  0  0  0  0
   56.9960   30.8010   44.0330 C   0  0  0  0  0  0  0  0  0  0  0  0
   57.8990   31.2650   45.0250 C   0  0  0  0  0  0  0  0  0  0  0  0
   57.8460   32.5550   45.5100 N   0  0  0  0  0  0  0  0  0  0  0  0
   56.6480   33.3870   45.2600 C   0  0  0  0  0  0  0  0  0  0  0  0
   58.9040   33.0640   46.2410 C   0  0  0  0  0  0  0  0  0  0  0  0
   59.0200   34.4520   46.4910 C   0  0  0  0  0  0  0  0  0  0  0  0
   60.0640   34.9610   47.2510 C   0  0  0  0  0  0  0  0  0  0  0  0
   61.0400   34.1170   47.7570 C   0  0  0  0  0  0  0  0  0  0  0  0
   61.0020   32.7370   47.4960 C   0  0  0  0  0  0  0  0  0  0  0  0
   62.0320   31.8930   47.9510 O   0  0  0  0  0  0  0  0  0  0  0  0
   63.4150   31.9820   47.6110 C   0  0  0  0  0  0  0  0  0  0  0  0
   64.0950   33.0980   48.4390 C   0  0  0  0  0  0  0  0  0  0  0  0
   64.4460   32.7450   49.8570 N   0  0  0  0  0  0  0  0  0  0  0  0
   65.9100   32.4970   49.9430 C   0  0  0  0  0  0  0  0  0  0  0  0
   63.7360   31.4650   50.2330 C   0  0  0  0  0  0  0  0  0  0  0  0
   62.5060   31.6450   51.1500 C   0  0  0  0  0  0  0  0  0  0  0  0
   61.7180   32.9040   50.8020 C   0  0  0  0  0  0  0  0  0  0  0  0
   62.6000   34.1610   50.8630 C   0  0  0  0  0  0  0  0  0  0  0  0
   64.1080   33.8410   50.8140 C   0  0  0  0  0  0  0  0  0  0  0  0
   59.9180   32.1940   46.7430 C   0  0  0  0  0  0  0  0  0  0  0  0
   58.5431   32.2101   52.3623 H   0  0  0  0  0  0  0  0  0  0  0  0
   59.3588   33.6952   51.7658 H   0  0  0  0  0  0  0  0  0  0  0  0
   57.5653   33.5939   51.7658 H   0  0  0  0  0  0  0  0  0  0  0  0
   57.7786   32.9523   49.5964 H   0  0  0  0  0  0  0  0  0  0  0  0
   59.5353   32.5894   49.7954 H   0  0  0  0  0  0  0  0  0  0  0  0
   58.3215   31.0753   52.3559 H   0  0  0  0  0  0  0  0  0  0  0  0
   56.6871   30.7814   51.6709 H   0  0  0  0  0  0  0  0  0  0  0  0
   57.9108   29.4663   51.6709 H   0  0  0  0  0  0  0  0  0  0  0  0
   60.1250   30.8416   49.3368 H   0  0  0  0  0  0  0  0  0  0  0  0
   59.7308   29.5865   50.6083 H   0  0  0  0  0  0  0  0  0  0  0  0
   58.5184   28.2680   49.1368 H   0  0  0  0  0  0  0  0  0  0  0  0
   58.2300   29.6333   47.9886 H   0  0  0  0  0  0  0  0  0  0  0  0
   60.9596   28.3580   48.5136 H   0  0  0  0  0  0  0  0  0  0  0  0
   59.8718   27.9385   47.1357 H   0  0  0  0  0  0  0  0  0  0  0  0
   61.7370   29.9810   46.9770 H   0  0  0  0  0  0  0  0  0  0  0  0
   59.6262   28.3198   45.4626 H   0  0  0  0  0  0  0  0  0  0  0  0
   57.9701   27.5434   43.7796 H   0  0  0  0  0  0  0  0  0  0  0  0
   56.3127   29.1374   42.8303 H   0  0  0  0  0  0  0  0  0  0  0  0
   56.2590   31.4962   43.6046 H   0  0  0  0  0  0  0  0  0  0  0  0
   56.2073   33.6931   46.2202 H   0  0  0  0  0  0  0  0  0  0  0  0
   56.9354   34.2809   44.6870 H   0  0  0  0  0  0  0  0  0  0  0  0
   55.9108   32.8055   44.6870 H   0  0  0  0  0  0  0  0  0  0  0  0
   58.2691   35.1401   46.0755 H   0  0  0  0  0  0  0  0  0  0  0  0
   60.1171   36.0410   47.4530 H   0  0  0  0  0  0  0  0  0  0  0  0
   61.8536   34.5323   48.3699 H   0  0  0  0  0  0  0  0  0  0  0  0
   63.9048   31.0206   47.8247 H   0  0  0  0  0  0  0  0  0  0  0  0
   63.5082   32.2198   46.5411 H   0  0  0  0  0  0  0  0  0  0  0  0
   65.0241   33.3814   47.9228 H   0  0  0  0  0  0  0  0  0  0  0  0
   63.3543   33.9082   48.5096 H   0  0  0  0  0  0  0  0  0  0  0  0
   66.2118   32.4459   50.9996 H   0  0  0  0  0  0  0  0  0  0  0  0
   66.1505   31.5453   49.4465 H   0  0  0  0  0  0  0  0  0  0  0  0
   66.4505   33.3164   49.4465 H   0  0  0  0  0  0  0  0  0  0  0  0
   63.4019   30.9754   49.3064 H   0  0  0  0  0  0  0  0  0  0  0  0
   64.4613   30.8683   50.8057 H   0  0  0  0  0  0  0  0  0  0  0  0
   61.8477   30.7709   51.0381 H   0  0  0  0  0  0  0  0  0  0  0  0
   62.8635   31.7413   52.1858 H   0  0  0  0  0  0  0  0  0  0  0  0
   61.3133   32.8014   49.7843 H   0  0  0  0  0  0  0  0  0  0  0  0
   60.9086   33.0167   51.5383 H   0  0  0  0  0  0  0  0  0  0  0  0
   62.3505   34.8063   50.0078 H   0  0  0  0  0  0  0  0  0  0  0  0
   62.3997   34.6576   51.8239 H   0  0  0  0  0  0  0  0  0  0  0  0
   64.6485   34.7496   50.5101 H   0  0  0  0  0  0  0  0  0  0  0  0
   64.4029   33.5011   51.8177 H   0  0  0  0  0  0  0  0  0  0  0  0
  1  2  1  0
  2  3  1  0
  3  4  1  0
  3  5  1  0
  5  6  1  0
  6  7  1  0
  7  8  1  0
  8  9  1  0
  9 10  2  0
 10 11  1  0
 11 12  2  0
 12 13  1  0
 13 14  2  0
 14 15  1  0
 15 16  2  0
 16 17  1  0
 16 18  1  0
 18 19  2  0
 19 20  1  0
 20 21  2  0
 21 22  1  0
 22 23  1  0
 23 24  1  0
 24 25  1  0
 25 26  1  0
 26 27  1  0
 26 28  1  0
 28 29  1  0
 29 30  1  0
 30 31  1  0
 31 32  1  0
 22 33  2  0
 33  9  1  0
 15 10  1  0
 33 18  1  0
 32 26  1  0
  1 34  1  0
  1 35  1  0
  1 36  1  0
  2 37  1  0
  2 38  1  0
  4 39  1  0
  4 40  1  0
  4 41  1  0
  5 42  1  0
  5 43  1  0
  6 44  1  0
  6 45  1  0
  7 46  1  0
  7 47  1  0
  8 48  1  0
 11 49  1  0
 12 50  1  0
 13 51  1  0
 14 52  1  0
 17 53  1  0
 17 54  1  0
 17 55  1  0
 19 56  1  0
 20 57  1  0
 21 58  1  0
 24 59  1  0
 24 60  1  0
 25 61  1  0
 25 62  1  0
 27 63  1  0
 27 64  1  0
 27 65  1  0
 28 66  1  0
 28 67  1  0
 29 68  1  0
 29 69  1  0
 30 70  1  0
 30 71  1  0
 31 72  1  0
 31 73  1  0
 32 74  1  0
 32 75  1  0
M  CHG  2  16   1  26   1
M  END
>  <UniqueID>  (28) 
28

>  <SMILES>  (28) 
CCN(C)CCCNc1c2ccccc2[n+](C)c2cccc(OCC[N+]3(C)CCCCC3)c12

>  <Energy>  (28) 
120.53332608141363

>  <Genealogy>  (28) 
CCN(C)CCCNc1c2ccccc2[n+](C)c2cccc(OCC[N+]3(C)CCCCC3)c12 (3D coordinates assigned)
CCN(C)CCCNc1c2ccccc2[n+](C)c2cccc(OCC[N+]3(C)CCCCC3)c12 (nonaromatic ring conformer: 120.53332608141363 kcal/mol)

>  <smiles>  (28) 
CCN(C)CCCNc1c2ccccc2[n+](C)c2cccc(OCC[N+]3(C)CCCCC3)c12

>  <score_type>  (28) 
oracle

>  <origin>  (28) 
adg

>  <m_score__min__energy>  (28) 
-5.6699999999999999

>  <m_primary>  (28) 
energy

$$$$
28:0
     RDKit          3D

 69 72  0  0  0  0  0  0  0  0999 V2000
   57.7620   33.1260   52.3800 C   0  0  0  0  0  0  0  0  0  0  0  0
   57.0300   31.7720   52.3400 C   0  0  0  0  0  0  0  0  0  0  0  0
   57.8540   30.5720   52.6730 N   0  0  0  0  0  0  0  0  0  0  0  0
   57.1370   29.4860   53.3920 C   0  0  0  0  0  0  0  0  0  0  0  0
   55.6790   29.3540   52.9400 C   0  0  0  0  0  0  0  0  0  0  0  0
   59.1540   30.9090   53.3120 C   0  0  0  0  0  0  0  0  0  0  0  0
   60.1900   29.7760   53.2880 C   0  0  0  0  0  0  0  0  0  0  0  0
   60.1060   28.9010   51.7370 S   0  0  0  0  0  0  0  0  0  0  0  0
   60.4140   27.2600   51.9410 O   0  0  0  0  0  0  0  0  0  0  0  0
   61.1000   29.6230   50.4320 C   0  0  0  0  0  0  0  0  0  0  0  0
   60.6050   31.0250   49.9950 C   0  0  2  0  0  0  0  0  0  0  0  0
   59.1050   31.1040   49.7560 C   0  0  0  0  0  0  0  0  0  0  0  0
   58.3720   30.1460   49.9520 O   0  0  0  0  0  0  0  0  0  0  0  0
   58.5280   32.3890   49.2120 C   0  0  0  0  0  0  0  0  0  0  0  0
   59.3270   32.8220   47.9570 C   0  0  1  0  0  0  0  0  0  0  0  0
   58.8630   34.2210   47.4740 C   0  0  0  0  0  0  0  0  0  0  0  0
   59.6130   34.6970   46.2100 C   0  0  0  0  0  0  0  0  0  0  0  0
   60.9970   34.0440   46.0160 C   0  0  0  0  0  0  0  0  0  0  0  0
   61.7060   33.7460   47.3450 C   0  0  0  0  0  0  0  0  0  0  0  0
   60.8270   32.9640   48.3690 C   0  0  2  0  0  0  0  0  0  0  0  0
   61.3830   31.5730   48.7510 C   0  0  2  0  0  0  0  0  0  0  0  0
   61.3550   30.6370   47.5210 C   0  0  0  0  0  0  0  0  0  0  0  0
   60.0560   30.6680   46.7520 C   0  0  0  0  0  0  0  0  0  0  0  0
   59.8160   29.6450   45.8220 C   0  0  0  0  0  0  0  0  0  0  0  0
   58.6450   29.6280   45.0680 C   0  0  0  0  0  0  0  0  0  0  0  0
   57.6850   30.6370   45.2320 C   0  0  0  0  0  0  0  0  0  0  0  0
   56.4770   30.6480   44.5170 O   0  0  0  0  0  0  0  0  0  0  0  0
   56.2990   30.0670   43.2300 C   0  0  0  0  0  0  0  0  0  0  0  0
   57.9260   31.6700   46.1420 C   0  0  0  0  0  0  0  0  0  0  0  0
   59.1240   31.7300   46.8870 C   0  0  0  0  0  0  0  0  0  0  0  0
   57.9235   33.4247   53.4263 H   0  0  0  0  0  0  0  0  0  0  0  0
   58.7328   33.0332   51.8712 H   0  0  0  0  0  0  0  0  0  0  0  0
   57.1526   33.8874   51.8712 H   0  0  0  0  0  0  0  0  0  0  0  0
   56.1975   31.8182   53.0575 H   0  0  0  0  0  0  0  0  0  0  0  0
   56.7163   31.6354   51.2946 H   0  0  0  0  0  0  0  0  0  0  0  0
   58.1340   30.1650   51.7490 H   0  0  0  0  0  0  0  0  0  0  0  0
   57.6541   28.5340   53.2014 H   0  0  0  0  0  0  0  0  0  0  0  0
   57.1362   29.7349   54.4635 H   0  0  0  0  0  0  0  0  0  0  0  0
   55.0254   29.2948   53.8228 H   0  0  0  0  0  0  0  0  0  0  0  0
   55.4014   30.2307   52.3364 H   0  0  0  0  0  0  0  0  0  0  0  0
   55.5634   28.4417   52.3364 H   0  0  0  0  0  0  0  0  0  0  0  0
   59.5808   31.7755   52.7856 H   0  0  0  0  0  0  0  0  0  0  0  0
   58.9377   31.1117   54.3713 H   0  0  0  0  0  0  0  0  0  0  0  0
   61.1969   30.2012   53.4117 H   0  0  0  0  0  0  0  0  0  0  0  0
   59.9760   29.0753   54.1085 H   0  0  0  0  0  0  0  0  0  0  0  0
   60.8680   26.9770   51.1070 H   0  0  0  0  0  0  0  0  0  0  0  0
   62.1360   29.7137   50.7906 H   0  0  0  0  0  0  0  0  0  0  0  0
   61.0232   28.9608   49.5570 H   0  0  0  0  0  0  0  0  0  0  0  0
   60.8240   31.6725   50.8569 H   0  0  0  0  0  0  0  0  0  0  0  0
   57.4740   32.2315   48.9396 H   0  0  0  0  0  0  0  0  0  0  0  0
   58.5945   33.1749   49.9788 H   0  0  0  0  0  0  0  0  0  0  0  0
   57.7873   34.1760   47.2484 H   0  0  0  0  0  0  0  0  0  0  0  0
   59.0815   34.9385   48.2787 H   0  0  0  0  0  0  0  0  0  0  0  0
   58.9938   34.4618   45.3317 H   0  0  0  0  0  0  0  0  0  0  0  0
   59.7856   35.7766   46.3311 H   0  0  0  0  0  0  0  0  0  0  0  0
   60.8661   33.0993   45.4679 H   0  0  0  0  0  0  0  0  0  0  0  0
   61.6238   34.7557   45.4586 H   0  0  0  0  0  0  0  0  0  0  0  0
   62.6042   33.1479   47.1318 H   0  0  0  0  0  0  0  0  0  0  0  0
   61.9441   34.7167   47.8044 H   0  0  0  0  0  0  0  0  0  0  0  0
   60.8760   33.6101   49.2579 H   0  0  0  0  0  0  0  0  0  0  0  0
   62.4391   31.6401   49.0511 H   0  0  0  0  0  0  0  0  0  0  0  0
   62.1662   30.9360   46.8409 H   0  0  0  0  0  0  0  0  0  0  0  0
   61.4747   29.6114   47.9002 H   0  0  0  0  0  0  0  0  0  0  0  0
   60.5612   28.8473   45.6869 H   0  0  0  0  0  0  0  0  0  0  0  0
   58.4726   28.8203   44.3414 H   0  0  0  0  0  0  0  0  0  0  0  0
   55.9784   29.0206   43.3412 H   0  0  0  0  0  0  0  0  0  0  0  0
   55.5318   30.6287   42.6770 H   0  0  0  0  0  0  0  0  0  0  0  0
   57.2492   30.1026   42.6770 H   0  0  0  0  0  0  0  0  0  0  0  0
   57.1661   32.4531   46.2808 H   0  0  0  0  0  0  0  0  0  0  0  0
  1  2  1  0
  2  3  1  0
  3  4  1  0
  4  5  1  0
  3  6  1  0
  6  7  1  0
  7  8  1  0
  8  9  1  1
  8 10  1  0
 10 11  1  0
 11 12  1  0
 12 13  2  0
 12 14  1  0
 15 14  1  1
 15 16  1  0
 16 17  1  0
 17 18  1  0
 18 19  1  0
 19 20  1  0
 20 21  1  0
 21 22  1  0
 22 23  1  0
 23 24  2  0
 24 25  1  0
 25 26  2  0
 26 27  1  0
 27 28  1  0
 26 29  1  0
 29 30  2  0
 21 11  1  0
 30 23  1  0
 20 15  1  0
 30 15  1  0
  1 31  1  0
  1 32  1  0
  1 33  1  0
  2 34  1  0
  2 35  1  0
  3 36  1  0
  4 37  1  0
  4 38  1  0
  5 39  1  0
  5 40  1  0
  5 41  1  0
  6 42  1  0
  6 43  1  0
  7 44  1  0
  7 45  1  0
  9 46  1  0
 10 47  1  0
 10 48  1  0
 11 49  1  1
 14 50  1  0
 14 51  1  0
 16 52  1  0
 16 53  1  0
 17 54  1  0
 17 55  1  0
 18 56  1  0
 18 57  1  0
 19 58  1  0
 19 59  1  0
 20 60  1  1
 21 61  1  1
 22 62  1  0
 22 63  1  0
 24 64  1  0
 25 65  1  0
 28 66  1  0
 28 67  1  0
 28 68  1  0
 29 69  1  0
M  CHG  2   3   1   8   1
M  END
>  <UniqueID>  (29) 
29

>  <SMILES>  (29) 
CC[NH+](CC)CC[S@+](O)C[C@@H]1C(=O)CC23CCCCC2C1Cc1ccc(OC)cc13

>  <Energy>  (29) 
87.85972151775148

>  <Genealogy>  (29) 
CC[NH+](CC)CC[S+](O)CC1C(=O)CC23CCCCC2C1Cc1ccc(OC)cc13 (protonated)
CC[NH+](CC)CC[S@+](O)C[C@@H]1C(=O)CC23CCCCC2C1Cc1ccc(OC)cc13 (chirality)
CC[NH+](CC)CC[S@+](O)C[C@@H]1C(=O)CC23CCCCC2C1Cc1ccc(OC)cc13 (3D coordinates assigned)
CC[NH+](CC)CC[S@+](O)C[C@@H]1C(=O)CC23CCCCC2C1Cc1ccc(OC)cc13 (nonaromatic ring conformer: 87.85972151775148 kcal/mol)

>  <smiles>  (29) 
CCN(CC)CC[S+]([O-])CC1C(=O)CC23CCCCC2C1Cc1ccc(OC)cc13

>  <score_type>  (29) 
oracle

>  <origin>  (29) 
adg

>  <m_score__min__energy>  (29) 
-5.2800000000000002

>  <m_primary>  (29) 
energy

$$$$
29:0
     RDKit          3D

 64 67  0  0  0  0  0  0  0  0999 V2000
   63.4020   32.7520   47.1180 C   0  0  0  0  0  0  0  0  0  0  0  0
   62.3890   32.6070   48.2460 C   0  0  0  0  0  0  0  0  0  0  0  0
   62.1820   31.1880   48.5660 N   0  0  0  0  0  0  0  0  0  0  0  0
   61.0000   31.0310   49.4210 C   0  0  0  0  0  0  0  0  0  0  0  0
   59.8690   30.3460   48.6490 C   0  0  0  0  0  0  0  0  0  0  0  0
   60.2580   30.0820   47.2650 N   0  0  0  0  0  0  0  0  0  0  0  0
   59.3020   30.2040   46.2070 C   0  0  0  0  0  0  0  0  0  0  0  0
   58.9460   31.4620   45.6710 C   0  0  0  0  0  0  0  0  0  0  0  0
   59.5010   32.6470   46.1940 C   0  0  0  0  0  0  0  0  0  0  0  0
   59.2080   33.8840   45.6180 C   0  0  0  0  0  0  0  0  0  0  0  0
   58.3500   33.9620   44.5250 C   0  0  0  0  0  0  0  0  0  0  0  0
   57.7620   32.8070   44.0080 C   0  0  0  0  0  0  0  0  0  0  0  0
   58.0220   31.5340   44.5750 C   0  0  0  0  0  0  0  0  0  0  0  0
   57.4200   30.3820   44.0880 N   0  0  0  0  0  0  0  0  0  0  0  0
   56.4020   30.4480   43.0200 C   0  0  0  0  0  0  0  0  0  0  0  0
   57.8050   29.1730   44.6120 C   0  0  0  0  0  0  0  0  0  0  0  0
   57.4370   27.9440   44.1700 N   0  0  0  0  0  0  0  0  0  0  0  0
   58.1330   27.0710   44.9280 C   0  0  0  0  0  0  0  0  0  0  0  0
   58.1440   25.6800   44.8010 C   0  0  0  0  0  0  0  0  0  0  0  0
   57.2950   25.0710   43.8660 O   0  0  0  0  0  0  0  0  0  0  0  0
   56.3680   24.0270   44.1610 C   0  0  0  0  0  0  0  0  0  0  0  0
   56.5730   22.8600   43.1680 C   0  0  0  0  0  0  0  0  0  0  0  0
   57.0430   21.5810   43.7780 N   0  0  0  0  0  0  0  0  0  0  0  0
   58.5230   21.4940   43.7420 C   0  0  0  0  0  0  0  0  0  0  0  0
   56.5410   21.4030   45.1630 C   0  0  0  0  0  0  0  0  0  0  0  0
   56.5240   20.5810   42.9980 O   0  0  0  0  0  0  0  0  0  0  0  0
   59.0210   24.9540   45.6380 C   0  0  0  0  0  0  0  0  0  0  0  0
   59.8360   25.6230   46.5770 C   0  0  0  0  0  0  0  0  0  0  0  0
   59.7910   27.0200   46.6950 C   0  0  0  0  0  0  0  0  0  0  0  0
   58.9290   27.7210   45.8470 C   0  0  0  0  0  0  0  0  0  0  0  0
   58.7180   29.0750   45.6440 C   0  0  0  0  0  0  0  0  0  0  0  0
   64.4062   32.8957   47.5433 H   0  0  0  0  0  0  0  0  0  0  0  0
   63.3930   31.8434   46.4980 H   0  0  0  0  0  0  0  0  0  0  0  0
   63.1384   33.6216   46.4980 H   0  0  0  0  0  0  0  0  0  0  0  0
   62.7628   33.1296   49.1388 H   0  0  0  0  0  0  0  0  0  0  0  0
   61.4320   33.0450   47.9261 H   0  0  0  0  0  0  0  0  0  0  0  0
   63.0140   30.8550   49.1090 H   0  0  0  0  0  0  0  0  0  0  0  0
   61.2643   30.4186   50.2957 H   0  0  0  0  0  0  0  0  0  0  0  0
   60.6594   32.0257   49.7445 H   0  0  0  0  0  0  0  0  0  0  0  0
   59.6246   29.3930   49.1410 H   0  0  0  0  0  0  0  0  0  0  0  0
   58.9958   31.0150   48.6438 H   0  0  0  0  0  0  0  0  0  0  0  0
   61.2590   29.9310   47.0080 H   0  0  0  0  0  0  0  0  0  0  0  0
   60.1715   32.5966   47.0645 H   0  0  0  0  0  0  0  0  0  0  0  0
   59.6567   34.8003   46.0292 H   0  0  0  0  0  0  0  0  0  0  0  0
   58.1344   34.9385   44.0667 H   0  0  0  0  0  0  0  0  0  0  0  0
   57.0845   32.8857   43.1449 H   0  0  0  0  0  0  0  0  0  0  0  0
   55.4009   30.5129   43.4712 H   0  0  0  0  0  0  0  0  0  0  0  0
   56.5816   31.3364   42.3967 H   0  0  0  0  0  0  0  0  0  0  0  0
   56.4653   29.5439   42.3967 H   0  0  0  0  0  0  0  0  0  0  0  0
   56.8220   27.6930   43.3660 H   0  0  0  0  0  0  0  0  0  0  0  0
   56.5341   23.6684   45.1876 H   0  0  0  0  0  0  0  0  0  0  0  0
   55.3414   24.4112   44.0684 H   0  0  0  0  0  0  0  0  0  0  0  0
   55.6125   22.6658   42.6682 H   0  0  0  0  0  0  0  0  0  0  0  0
   57.3694   23.1808   42.4804 H   0  0  0  0  0  0  0  0  0  0  0  0
   58.9141   21.4710   44.7699 H   0  0  0  0  0  0  0  0  0  0  0  0
   58.8237   20.5766   43.2147 H   0  0  0  0  0  0  0  0  0  0  0  0
   58.9291   22.3698   43.2147 H   0  0  0  0  0  0  0  0  0  0  0  0
   57.3293   21.6825   45.8775 H   0  0  0  0  0  0  0  0  0  0  0  0
   55.6606   22.0438   45.3191 H   0  0  0  0  0  0  0  0  0  0  0  0
   56.2609   20.3508   45.3191 H   0  0  0  0  0  0  0  0  0  0  0  0
   56.9950   19.7310   43.2180 H   0  0  0  0  0  0  0  0  0  0  0  0
   59.0692   23.8580   45.5573 H   0  0  0  0  0  0  0  0  0  0  0  0
   60.5126   25.0432   47.2221 H   0  0  0  0  0  0  0  0  0  0  0  0
   60.4146   27.5474   47.4319 H   0  0  0  0  0  0  0  0  0  0  0  0
  1  2  1  0
  2  3  1  0
  3  4  1  0
  4  5  1  0
  5  6  1  0
  6  7  1  0
  7  8  2  0
  8  9  1  0
  9 10  2  0
 10 11  1  0
 11 12  2  0
 12 13  1  0
 13 14  2  0
 14 15  1  0
 14 16  1  0
 16 17  1  0
 17 18  1  0
 18 19  2  0
 19 20  1  0
 20 21  1  0
 21 22  1  0
 22 23  1  0
 23 24  1  0
 23 25  1  0
 23 26  1  0
 19 27  1  0
 27 28  2  0
 28 29  1  0
 29 30  2  0
 30 31  1  0
 31  7  1  0
 13  8  1  0
 31 16  2  0
 30 18  1  0
  1 32  1  0
  1 33  1  0
  1 34  1  0
  2 35  1  0
  2 36  1  0
  3 37  1  0
  4 38  1  0
  4 39  1  0
  5 40  1  0
  5 41  1  0
  6 42  1  0
  9 43  1  0
 10 44  1  0
 11 45  1  0
 12 46  1  0
 15 47  1  0
 15 48  1  0
 15 49  1  0
 17 50  1  0
 21 51  1  0
 21 52  1  0
 22 53  1  0
 22 54  1  0
 24 55  1  0
 24 56  1  0
 24 57  1  0
 25 58  1  0
 25 59  1  0
 25 60  1  0
 26 61  1  0
 27 62  1  0
 28 63  1  0
 29 64  1  0
M  CHG  2  14   1  23   1
M  END
>  <UniqueID>  (30) 
30

>  <SMILES>  (30) 
CCNCCNc1c2ccccc2[n+](C)c2[nH]c3c(OCC[N+](C)(C)O)cccc3c12

>  <Energy>  (30) 
124.97392431628757

>  <Genealogy>  (30) 
CCNCCNc1c2ccccc2[n+](C)c2[nH]c3c(OCC[N+](C)(C)O)cccc3c12 (protonated)
CCNCCNc1c2ccccc2[n+](C)c2[nH]c3c(OCC[N+](C)(C)O)cccc3c12 (3D coordinates assigned)
CCNCCNc1c2ccccc2[n+](C)c2[nH]c3c(OCC[N+](C)(C)O)cccc3c12 (optimized conformer: 124.97392431628757 kcal/mol)

>  <smiles>  (30) 
CCNCCNc1c2ccccc2[n+](C)c2[nH]c3c(OCC[N+](C)(C)[O-])cccc3c12

>  <score_type>  (30) 
oracle

>  <origin>  (30) 
adg

>  <m_score__min__energy>  (30) 
-5.8300000000000001

>  <m_primary>  (30) 
energy

$$$$
