0:0
     RDKit          3D

 56 58  0  0  0  0  0  0  0  0999 V2000
   61.9732   30.2391   48.3978 H   0  0  0  0  0  0  0  0  0  0  0  0
   61.1920   30.4120   47.6430 C   0  0  0  0  0  0  0  0  0  0  0  0
   60.6130   29.3270   46.9790 C   0  0  0  0  0  0  0  0  0  0  0  0
   60.9348   28.3035   47.2216 H   0  0  0  0  0  0  0  0  0  0  0  0
   59.6240   29.5340   46.0050 C   0  0  0  0  0  0  0  0  0  0  0  0
   59.0300   28.4180   45.3100 N   0  0  0  0  0  0  0  0  0  0  0  0
   59.5450   27.0580   45.5070 C   0  0  0  0  0  0  0  0  0  0  0  0
   60.0161   26.9873   46.4985 H   0  0  0  0  0  0  0  0  0  0  0  0
   60.2856   26.8363   44.7244 H   0  0  0  0  0  0  0  0  0  0  0  0
   58.3970   26.0410   45.4160 C   0  0  0  0  0  0  0  0  0  0  0  0
   57.7814   26.1326   46.3230 H   0  0  0  0  0  0  0  0  0  0  0  0
   58.8596   25.0481   45.3155 H   0  0  0  0  0  0  0  0  0  0  0  0
   57.5100   26.2270   44.2250 N   0  0  0  0  0  0  0  0  0  0  0  0
   56.5480   26.4140   44.5990 H   0  0  0  0  0  0  0  0  0  0  0  0
   57.3670   24.9900   43.4110 C   0  0  0  0  0  0  0  0  0  0  0  0
   58.3221   24.4452   43.4427 H   0  0  0  0  0  0  0  0  0  0  0  0
   57.0903   25.3125   42.3964 H   0  0  0  0  0  0  0  0  0  0  0  0
   56.2660   24.0490   43.8830 C   0  0  0  0  0  0  0  0  0  0  0  0
   55.3460   24.4470   44.7130 N   0  0  0  0  0  0  0  0  0  0  0  0
   55.6420   24.9540   45.9590 O   0  0  0  0  0  0  0  0  0  0  0  0
   55.7490   24.0900   47.0810 C   0  0  0  0  0  0  0  0  0  0  0  0
   55.7664   23.0448   46.7386 H   0  0  0  0  0  0  0  0  0  0  0  0
   54.8862   24.2437   47.7458 H   0  0  0  0  0  0  0  0  0  0  0  0
   57.0310   24.3970   47.8360 C   0  0  0  0  0  0  0  0  0  0  0  0
   56.8392   24.3511   48.9182 H   0  0  0  0  0  0  0  0  0  0  0  0
   57.8002   23.6577   47.5683 H   0  0  0  0  0  0  0  0  0  0  0  0
   57.3819   25.4046   47.5683 H   0  0  0  0  0  0  0  0  0  0  0  0
   56.2880   22.6000   43.5050 C   0  0  0  0  0  0  0  0  0  0  0  0
   56.2974   21.9835   44.4160 H   0  0  0  0  0  0  0  0  0  0  0  0
   55.3934   22.3625   42.9107 H   0  0  0  0  0  0  0  0  0  0  0  0
   57.1894   22.3897   42.9107 H   0  0  0  0  0  0  0  0  0  0  0  0
   57.8440   27.4090   43.3950 C   0  0  0  0  0  0  0  0  0  0  0  0
   57.0314   27.5854   42.6749 H   0  0  0  0  0  0  0  0  0  0  0  0
   58.7883   27.2131   42.8659 H   0  0  0  0  0  0  0  0  0  0  0  0
   58.0200   28.6560   44.2700 C   0  0  0  0  0  0  0  0  0  0  0  0
   57.0599   28.9013   44.7475 H   0  0  0  0  0  0  0  0  0  0  0  0
   58.3531   29.4908   43.6358 H   0  0  0  0  0  0  0  0  0  0  0  0
   59.2260   30.8480   45.7040 C   0  0  0  0  0  0  0  0  0  0  0  0
   58.4604   31.0240   44.9340 H   0  0  0  0  0  0  0  0  0  0  0  0
   59.7960   31.9320   46.3760 C   0  0  0  0  0  0  0  0  0  0  0  0
   59.4070   33.1930   46.0550 F   0  0  0  0  0  0  0  0  0  0  0  0
   60.7800   31.7220   47.3500 C   0  0  0  0  0  0  0  0  0  0  0  0
   61.3700   32.8370   48.0360 N   0  0  0  0  0  0  0  0  0  0  0  0
   60.6050   33.5630   49.0530 C   0  0  0  0  0  0  0  0  0  0  0  0
   60.0000   34.3432   48.5680 H   0  0  0  0  0  0  0  0  0  0  0  0
   59.9449   32.8608   49.5832 H   0  0  0  0  0  0  0  0  0  0  0  0
   61.5670   34.2130   50.0560 C   0  0  0  0  0  0  0  0  0  0  0  0
   60.9966   34.8730   50.7261 H   0  0  0  0  0  0  0  0  0  0  0  0
   62.0645   33.4181   50.6310 H   0  0  0  0  0  0  0  0  0  0  0  0
   62.5560   34.9740   49.3880 O   0  0  0  0  0  0  0  0  0  0  0  0
   63.3690   34.1240   48.6010 C   0  0  0  0  0  0  0  0  0  0  0  0
   64.1923   34.7109   48.1677 H   0  0  0  0  0  0  0  0  0  0  0  0
   63.7679   33.3231   49.2408 H   0  0  0  0  0  0  0  0  0  0  0  0
   62.5530   33.4920   47.4710 C   0  0  0  0  0  0  0  0  0  0  0  0
   62.2379   34.2734   46.7638 H   0  0  0  0  0  0  0  0  0  0  0  0
   63.1686   32.7491   46.9427 H   0  0  0  0  0  0  0  0  0  0  0  0
  1  2  1  0
  2  3  2  0
  3  4  1  0
  3  5  1  0
  5  6  1  0
  6  7  1  0
  7  8  1  0
  7  9  1  0
  7 10  1  0
 10 11  1  0
 10 12  1  0
 10 13  1  0
 13 14  1  0
 13 15  1  0
 15 16  1  0
 15 17  1  0
 15 18  1  0
 18 19  2  0
 19 20  1  0
 20 21  1  0
 21 22  1  0
 21 23  1  0
 21 24  1  0
 24 25  1  0
 24 26  1  0
 24 27  1  0
 18 28  1  0
 28 29  1  0
 28 30  1  0
 28 31  1  0
 13 32  1  0
 32 33  1  0
 32 34  1  0
 32 35  1  0
 35 36  1  0
 35 37  1  0
  5 38  2  0
 38 39  1  0
 38 40  1  0
 40 41  1  0
 40 42  2  0
 42 43  1  0
 43 44  1  0
 44 45  1  0
 44 46  1  0
 44 47  1  0
 47 48  1  0
 47 49  1  0
 47 50  1  0
 50 51  1  0
 51 52  1  0
 51 53  1  0
 51 54  1  0
 54 55  1  0
 54 56  1  0
 42  2  1  0
 54 43  1  0
 35  6  1  0
M  CHG  1  13   1
M  END
>  <UniqueID>  (1) 
1

>  <SMILES>  (1) 
CCO/N=C(/C)C[NH+]1CCN(c2ccc(N3CCOCC3)c(F)c2)CC1

>  <Energy>  (1) 
66.46600835918615

>  <Genealogy>  (1) 
CCON=C(C)C[NH+]1CCN(c2ccc(N3CCOCC3)c(F)c2)CC1 (protonated)
CCO/N=C(/C)C[NH+]1CCN(c2ccc(N3CCOCC3)c(F)c2)CC1 (cis-trans isomerization)
CCO/N=C(/C)C[NH+]1CCN(c2ccc(N3CCOCC3)c(F)c2)CC1 (3D coordinates assigned)
CCO/N=C(/C)C[NH+]1CCN(c2ccc(N3CCOCC3)c(F)c2)CC1 (nonaromatic ring conformer: 66.46600835918615 kcal/mol)

>  <smiles>  (1) 
CCON=C(C)CN1CCN(c2ccc(N3CCOCC3)c(F)c2)CC1

>  <score_type>  (1) 
oracle

>  <origin>  (1) 
adg

>  <m_score__min__energy>  (1) 
-5.6600000000000001

>  <m_primary>  (1) 
energy

$$$$
1:0
     RDKit          3D

 83 86  0  0  0  0  0  0  0  0999 V2000
   59.6260   33.4580   50.2600 C   0  0  0  0  0  0  0  0  0  0  0  0
   59.9630   34.5850   49.2700 C   0  0  0  0  0  0  0  0  0  0  0  0
   59.8360   34.2020   47.8410 N   0  0  0  0  0  0  0  0  0  0  0  0
   59.2930   35.2790   46.9800 C   0  0  0  0  0  0  0  0  0  0  0  0
   58.9540   34.7660   45.5820 C   0  0  0  0  0  0  0  0  0  0  0  0
   61.1010   33.6600   47.2990 C   0  0  0  0  0  0  0  0  0  0  0  0
   60.8880   32.2480   46.7430 C   0  0  0  0  0  0  0  0  0  0  0  0
   59.5100   31.8110   46.9730 N   0  0  0  0  0  0  0  0  0  0  0  0
   59.1360   30.4310   46.8120 C   0  0  0  0  0  0  0  0  0  0  0  0
   58.3980   30.0270   45.6870 C   0  0  0  0  0  0  0  0  0  0  0  0
   57.9460   30.9740   44.7420 C   0  0  0  0  0  0  0  0  0  0  0  0
   57.2610   30.5690   43.6000 C   0  0  0  0  0  0  0  0  0  0  0  0
   57.0200   29.2180   43.3750 C   0  0  0  0  0  0  0  0  0  0  0  0
   57.4350   28.2670   44.3070 C   0  0  0  0  0  0  0  0  0  0  0  0
   58.0940   28.6520   45.5030 C   0  0  0  0  0  0  0  0  0  0  0  0
   58.4520   27.7280   46.4670 N   0  0  0  0  0  0  0  0  0  0  0  0
   57.8910   26.3580   46.4250 C   0  0  0  0  0  0  0  0  0  0  0  0
   59.2970   28.0940   47.4980 C   0  0  0  0  0  0  0  0  0  0  0  0
   59.9090   27.1300   48.3380 C   0  0  0  0  0  0  0  0  0  0  0  0
   60.7370   27.5130   49.3910 C   0  0  0  0  0  0  0  0  0  0  0  0
   60.9700   28.8660   49.6570 C   0  0  0  0  0  0  0  0  0  0  0  0
   61.8420   29.2600   50.7390 N   0  0  0  0  0  0  0  0  0  0  0  0
   62.0270   30.7200   50.7550 C   0  0  0  0  0  0  0  0  0  0  0  0
   63.0260   31.2400   49.6810 C   0  0  0  0  0  0  0  0  0  0  0  0
   63.8910   32.4360   50.0010 N   0  0  0  0  0  0  0  0  0  0  0  0
   64.0340   33.1880   48.7190 C   0  0  0  0  0  0  0  0  0  0  0  0
   65.2430   31.9870   50.4490 C   0  0  0  0  0  0  0  0  0  0  0  0
   66.1620   33.1410   50.9160 C   0  0  0  0  0  0  0  0  0  0  0  0
   65.5290   34.0330   51.9260 N   0  0  0  0  0  0  0  0  0  0  0  0
   65.4410   33.3540   53.2450 C   0  0  0  0  0  0  0  0  0  0  0  0
   66.3890   35.2310   52.0990 C   0  0  0  0  0  0  0  0  0  0  0  0
   64.1850   34.4850   51.4690 C   0  0  0  0  0  0  0  0  0  0  0  0
   63.2700   33.3200   51.0290 C   0  0  0  0  0  0  0  0  0  0  0  0
   60.3760   29.8320   48.8370 C   0  0  0  0  0  0  0  0  0  0  0  0
   59.5940   29.4640   47.7240 C   0  0  0  0  0  0  0  0  0  0  0  0
   59.7369   33.8290   51.2896 H   0  0  0  0  0  0  0  0  0  0  0  0
   58.5895   33.1266   50.0994 H   0  0  0  0  0  0  0  0  0  0  0  0
   60.3105   32.6120   50.0994 H   0  0  0  0  0  0  0  0  0  0  0  0
   59.2824   35.4275   49.4625 H   0  0  0  0  0  0  0  0  0  0  0  0
   61.0198   34.8426   49.4341 H   0  0  0  0  0  0  0  0  0  0  0  0
   58.3799   35.6803   47.4439 H   0  0  0  0  0  0  0  0  0  0  0  0
   60.0609   36.0605   46.8822 H   0  0  0  0  0  0  0  0  0  0  0  0
   58.3492   33.8508   45.6639 H   0  0  0  0  0  0  0  0  0  0  0  0
   58.3850   35.5340   45.0376 H   0  0  0  0  0  0  0  0  0  0  0  0
   59.8836   34.5437   45.0376 H   0  0  0  0  0  0  0  0  0  0  0  0
   61.4591   34.3161   46.4920 H   0  0  0  0  0  0  0  0  0  0  0  0
   61.8433   33.6139   48.1094 H   0  0  0  0  0  0  0  0  0  0  0  0
   61.0920   32.2496   45.6621 H   0  0  0  0  0  0  0  0  0  0  0  0
   61.5719   31.5558   47.2560 H   0  0  0  0  0  0  0  0  0  0  0  0
   58.8800   32.4370   47.5230 H   0  0  0  0  0  0  0  0  0  0  0  0
   58.1375   32.0441   44.9103 H   0  0  0  0  0  0  0  0  0  0  0  0
   56.9100   31.3181   42.8750 H   0  0  0  0  0  0  0  0  0  0  0  0
   56.5006   28.8985   42.4595 H   0  0  0  0  0  0  0  0  0  0  0  0
   57.2483   27.2007   44.1115 H   0  0  0  0  0  0  0  0  0  0  0  0
   57.7410   25.9916   47.4513 H   0  0  0  0  0  0  0  0  0  0  0  0
   56.9265   26.3728   45.8963 H   0  0  0  0  0  0  0  0  0  0  0  0
   58.5888   25.6921   45.8963 H   0  0  0  0  0  0  0  0  0  0  0  0
   59.7270   26.0607   48.1552 H   0  0  0  0  0  0  0  0  0  0  0  0
   61.2116   26.7444   50.0187 H   0  0  0  0  0  0  0  0  0  0  0  0
   62.7710   28.7890   50.6370 H   0  0  0  0  0  0  0  0  0  0  0  0
   61.4000   28.9460   51.6300 H   0  0  0  0  0  0  0  0  0  0  0  0
   61.0506   31.1949   50.5788 H   0  0  0  0  0  0  0  0  0  0  0  0
   62.4505   30.9778   51.7369 H   0  0  0  0  0  0  0  0  0  0  0  0
   63.7037   30.4073   49.4417 H   0  0  0  0  0  0  0  0  0  0  0  0
   62.3762   31.5955   48.8678 H   0  0  0  0  0  0  0  0  0  0  0  0
   64.2355   34.2474   48.9359 H   0  0  0  0  0  0  0  0  0  0  0  0
   64.8683   32.7675   48.1383 H   0  0  0  0  0  0  0  0  0  0  0  0
   63.1036   33.1031   48.1383 H   0  0  0  0  0  0  0  0  0  0  0  0
   65.1154   31.2850   51.2862 H   0  0  0  0  0  0  0  0  0  0  0  0
   65.7302   31.5217   49.5794 H   0  0  0  0  0  0  0  0  0  0  0  0
   67.0708   32.7056   51.3570 H   0  0  0  0  0  0  0  0  0  0  0  0
   66.3813   33.7578   50.0320 H   0  0  0  0  0  0  0  0  0  0  0  0
   65.5376   34.0993   54.0482 H   0  0  0  0  0  0  0  0  0  0  0  0
   64.4694   32.8455   53.3315 H   0  0  0  0  0  0  0  0  0  0  0  0
   66.2508   32.6146   53.3315 H   0  0  0  0  0  0  0  0  0  0  0  0
   66.5309   35.4287   53.1717 H   0  0  0  0  0  0  0  0  0  0  0  0
   67.3662   35.0522   51.6267 H   0  0  0  0  0  0  0  0  0  0  0  0
   65.9070   36.0997   51.6267 H   0  0  0  0  0  0  0  0  0  0  0  0
   63.6961   35.0208   52.2960 H   0  0  0  0  0  0  0  0  0  0  0  0
   64.3373   35.1312   50.5920 H   0  0  0  0  0  0  0  0  0  0  0  0
   63.0303   32.7115   51.9135 H   0  0  0  0  0  0  0  0  0  0  0  0
   62.3722   33.7652   50.5754 H   0  0  0  0  0  0  0  0  0  0  0  0
   60.5222   30.8980   49.0654 H   0  0  0  0  0  0  0  0  0  0  0  0
  1  2  1  0
  2  3  1  0
  3  4  1  0
  4  5  1  0
  3  6  1  0
  6  7  1  0
  7  8  1  0
  8  9  1  0
  9 10  2  0
 10 11  1  0
 11 12  2  0
 12 13  1  0
 13 14  2  0
 14 15  1  0
 15 16  2  0
 16 17  1  0
 16 18  1  0
 18 19  2  0
 19 20  1  0
 20 21  2  0
 21 22  1  0
 22 23  1  0
 23 24  1  0
 24 25  1  0
 25 26  1  0
 25 27  1  0
 27 28  1  0
 28 29  1  0
 29 30  1  0
 29 31  1  0
 29 32  1  0
 32 33  1  0
 21 34  1  0
 34 35  2  0
 35  9  1  0
 15 10  1  0
 35 18  1  0
 33 25  1  0
  1 36  1  0
  1 37  1  0
  1 38  1  0
  2 39  1  0
  2 40  1  0
  4 41  1  0
  4 42  1  0
  5 43  1  0
  5 44  1  0
  5 45  1  0
  6 46  1  0
  6 47  1  0
  7 48  1  0
  7 49  1  0
  8 50  1  0
 11 51  1  0
 12 52  1  0
 13 53  1  0
 14 54  1  0
 17 55  1  0
 17 56  1  0
 17 57  1  0
 19 58  1  0
 20 59  1  0
 22 60  1  0
 22 61  1  0
 23 62  1  0
 23 63  1  0
 24 64  1  0
 24 65  1  0
 26 66  1  0
 26 67  1  0
 26 68  1  0
 27 69  1  0
 27 70  1  0
 28 71  1  0
 28 72  1  0
 30 73  1  0
 30 74  1  0
 30 75  1  0
 31 76  1  0
 31 77  1  0
 31 78  1  0
 32 79  1  0
 32 80  1  0
 33 81  1  0
 33 82  1  0
 34 83  1  0
M  CHG  4  16   1  22   1  25   1  29   1
M  END
>  <UniqueID>  (2) 
2

>  <SMILES>  (2) 
CCN(CC)CCNc1c2ccccc2[n+](C)c2ccc([NH2+]CC[N+]3(C)CC[N+](C)(C)CC3)cc12

>  <Energy>  (2) 
136.369657329383

>  <Genealogy>  (2) 
CCN(CC)CCNc1c2ccccc2[n+](C)c2ccc([NH2+]CC[N+]3(C)CC[N+](C)(C)CC3)cc12 (protonated)
CCN(CC)CCNc1c2ccccc2[n+](C)c2ccc([NH2+]CC[N+]3(C)CC[N+](C)(C)CC3)cc12 (3D coordinates assigned)
CCN(CC)CCNc1c2ccccc2[n+](C)c2ccc([NH2+]CC[N+]3(C)CC[N+](C)(C)CC3)cc12 (nonaromatic ring conformer: 136.369657329383 kcal/mol)

>  <smiles>  (2) 
CCN(CC)CCNc1c2ccccc2[n+](C)c2ccc(NCC[N+]3(C)CC[N+](C)(C)CC3)cc12

>  <score_type>  (2) 
oracle

>  <origin>  (2) 
adg

>  <m_score__min__energy>  (2) 
-2.8500000000000001

>  <m_primary>  (2) 
energy

$$$$
2:0
     RDKit          3D

 56 58  0  0  0  0  0  0  0  0999 V2000
   54.8610   23.5730   46.2830 C   0  0  0  0  0  0  0  0  0  0  0  0
   54.2790   24.8120   45.6210 C   0  0  0  0  0  0  0  0  0  0  0  0
   55.0570   25.9350   45.9760 O   0  0  0  0  0  0  0  0  0  0  0  0
   56.3040   25.5280   46.5070 C   0  0  0  0  0  0  0  0  0  0  0  0
   57.4040   25.6750   45.4520 C   0  0  0  0  0  0  0  0  0  0  0  0
   57.6370   27.0450   45.1820 O   0  0  0  0  0  0  0  0  0  0  0  0
   59.0220   27.3240   45.1950 C   0  0  0  0  0  0  0  0  0  0  0  0
   59.3060   28.4930   44.2570 C   0  0  0  0  0  0  0  0  0  0  0  0
   58.3040   29.5390   44.4420 N   0  0  0  0  0  0  0  0  0  0  0  0
   58.5320   30.8490   44.6350 C   0  0  0  0  0  0  0  0  0  0  0  0
   57.2910   31.4540   44.6720 C   0  0  0  0  0  0  0  0  0  0  0  0
   57.0110   32.9180   44.8770 C   0  0  0  0  0  0  0  0  0  0  0  0
   57.8920   33.5410   45.8870 N   0  0  0  0  0  0  0  0  0  0  0  0
   59.0960   34.1600   45.2900 C   0  0  0  0  0  0  0  0  0  0  0  0
   60.0990   34.5860   46.3650 C   0  0  0  0  0  0  0  0  0  0  0  0
   60.4760   33.4360   47.1990 N   0  0  0  0  0  0  0  0  0  0  0  0
   61.7260   33.4410   47.9250 C   0  0  0  0  0  0  0  0  0  0  0  0
   62.9280   33.0660   47.2910 C   0  0  0  0  0  0  0  0  0  0  0  0
   64.1350   33.0750   47.9970 C   0  0  0  0  0  0  0  0  0  0  0  0
   64.1600   33.4600   49.3400 C   0  0  0  0  0  0  0  0  0  0  0  0
   62.9770   33.8350   49.9800 C   0  0  0  0  0  0  0  0  0  0  0  0
   61.7670   33.8280   49.2790 C   0  0  0  0  0  0  0  0  0  0  0  0
   59.5970   32.2590   47.2300 C   0  0  0  0  0  0  0  0  0  0  0  0
   58.1310   32.6910   47.0810 C   0  0  0  0  0  0  0  0  0  0  0  0
   56.3460   30.5070   44.4900 N   0  0  0  0  0  0  0  0  0  0  0  0
   56.9970   29.3620   44.3490 N   0  0  0  0  0  0  0  0  0  0  0  0
   54.8094   23.6829   47.3763 H   0  0  0  0  0  0  0  0  0  0  0  0
   54.2844   22.6880   45.9758 H   0  0  0  0  0  0  0  0  0  0  0  0
   55.9103   23.4517   45.9758 H   0  0  0  0  0  0  0  0  0  0  0  0
   54.2916   24.6859   44.5283 H   0  0  0  0  0  0  0  0  0  0  0  0
   53.2420   24.9588   45.9572 H   0  0  0  0  0  0  0  0  0  0  0  0
   56.5497   26.1544   47.3772 H   0  0  0  0  0  0  0  0  0  0  0  0
   56.2369   24.4725   46.8095 H   0  0  0  0  0  0  0  0  0  0  0  0
   58.3306   25.2148   45.8255 H   0  0  0  0  0  0  0  0  0  0  0  0
   57.0851   25.1740   44.5261 H   0  0  0  0  0  0  0  0  0  0  0  0
   59.3349   27.5871   46.2162 H   0  0  0  0  0  0  0  0  0  0  0  0
   59.5811   26.4375   44.8612 H   0  0  0  0  0  0  0  0  0  0  0  0
   60.3034   28.9016   44.4764 H   0  0  0  0  0  0  0  0  0  0  0  0
   59.2680   28.1376   43.2167 H   0  0  0  0  0  0  0  0  0  0  0  0
   59.5102   31.3407   44.7420 H   0  0  0  0  0  0  0  0  0  0  0  0
   57.1536   33.4392   43.9189 H   0  0  0  0  0  0  0  0  0  0  0  0
   55.9778   33.0060   45.2440 H   0  0  0  0  0  0  0  0  0  0  0  0
   59.5774   33.4322   44.6202 H   0  0  0  0  0  0  0  0  0  0  0  0
   58.7838   35.0565   44.7343 H   0  0  0  0  0  0  0  0  0  0  0  0
   60.9988   34.9926   45.8803 H   0  0  0  0  0  0  0  0  0  0  0  0
   59.6342   35.3521   47.0030 H   0  0  0  0  0  0  0  0  0  0  0  0
   62.9163   32.7641   46.2333 H   0  0  0  0  0  0  0  0  0  0  0  0
   65.0671   32.7783   47.4939 H   0  0  0  0  0  0  0  0  0  0  0  0
   65.1110   33.4677   49.8927 H   0  0  0  0  0  0  0  0  0  0  0  0
   62.9969   34.1365   51.0377 H   0  0  0  0  0  0  0  0  0  0  0  0
   60.8395   34.1272   49.7891 H   0  0  0  0  0  0  0  0  0  0  0  0
   59.8633   31.5842   46.4031 H   0  0  0  0  0  0  0  0  0  0  0  0
   59.7235   31.7405   48.1918 H   0  0  0  0  0  0  0  0  0  0  0  0
   57.5069   31.7889   46.9990 H   0  0  0  0  0  0  0  0  0  0  0  0
   57.8744   33.2906   47.9668 H   0  0  0  0  0  0  0  0  0  0  0  0
   56.5310   28.4430   44.1760 H   0  0  0  0  0  0  0  0  0  0  0  0
  1  2  1  0
  2  3  1  0
  3  4  1  0
  4  5  1  0
  5  6  1  0
  6  7  1  0
  7  8  1  0
  8  9  1  0
  9 10  1  0
 10 11  2  0
 11 12  1  0
 12 13  1  0
 13 14  1  0
 14 15  1  0
 15 16  1  0
 16 17  1  0
 17 18  2  0
 18 19  1  0
 19 20  2  0
 20 21  1  0
 21 22  2  0
 16 23  1  0
 23 24  1  0
 11 25  1  0
 25 26  2  0
 26  9  1  0
 24 13  1  0
 22 17  1  0
  1 27  1  0
  1 28  1  0
  1 29  1  0
  2 30  1  0
  2 31  1  0
  4 32  1  0
  4 33  1  0
  5 34  1  0
  5 35  1  0
  7 36  1  0
  7 37  1  0
  8 38  1  0
  8 39  1  0
 10 40  1  0
 12 41  1  0
 12 42  1  0
 14 43  1  0
 14 44  1  0
 15 45  1  0
 15 46  1  0
 18 47  1  0
 19 48  1  0
 20 49  1  0
 21 50  1  0
 22 51  1  0
 23 52  1  0
 23 53  1  0
 24 54  1  0
 24 55  1  0
 26 56  1  0
M  CHG  1  26   1
M  END
>  <UniqueID>  (3) 
3

>  <SMILES>  (3) 
CCOCCOCCn1cc(CN2CCN(c3ccccc3)CC2)n[nH+]1

>  <Energy>  (3) 
98.63695923894983

>  <Genealogy>  (3) 
CCOCCOCCn1cc(CN2CCN(c3ccccc3)CC2)n[nH+]1 (protonated)
CCOCCOCCn1cc(CN2CCN(c3ccccc3)CC2)n[nH+]1 (3D coordinates assigned)
CCOCCOCCn1cc(CN2CCN(c3ccccc3)CC2)n[nH+]1 (nonaromatic ring conformer: 98.63695923894983 kcal/mol)

>  <smiles>  (3) 
CCOCCOCCn1cc(CN2CCN(c3ccccc3)CC2)nn1

>  <score_type>  (3) 
oracle

>  <origin>  (3) 
adg

>  <m_score__min__energy>  (3) 
-6.9100000000000001

>  <m_primary>  (3) 
energy

$$$$
3:0
     RDKit          3D

 71 74  0  0  0  0  0  0  0  0999 V2000
   63.3580   33.8680   46.3670 C   0  0  0  0  0  0  0  0  0  0  0  0
   63.3230   33.7300   47.8850 C   0  0  0  0  0  0  0  0  0  0  0  0
   63.0680   32.3300   48.2620 N   0  0  0  0  0  0  0  0  0  0  0  0
   63.7720   31.9400   49.4970 C   0  0  0  0  0  0  0  0  0  0  0  0
   62.9250   31.0190   50.3830 C   0  0  0  0  0  0  0  0  0  0  0  0
   61.5670   31.1710   50.0270 O   0  0  0  0  0  0  0  0  0  0  0  0
   60.8980   29.9230   50.0480 C   0  0  0  0  0  0  0  0  0  0  0  0
   60.1040   29.6890   48.7560 C   0  0  0  0  0  0  0  0  0  0  0  0
   60.4940   30.6380   47.7130 N   0  0  0  0  0  0  0  0  0  0  0  0
   59.5200   31.1960   46.8160 C   0  0  0  0  0  0  0  0  0  0  0  0
   58.7170   30.3320   46.0530 C   0  0  0  0  0  0  0  0  0  0  0  0
   58.5610   28.9760   46.4110 C   0  0  0  0  0  0  0  0  0  0  0  0
   57.7310   28.1380   45.6720 C   0  0  0  0  0  0  0  0  0  0  0  0
   57.0350   28.6360   44.5770 C   0  0  0  0  0  0  0  0  0  0  0  0
   57.1940   29.9680   44.1920 C   0  0  0  0  0  0  0  0  0  0  0  0
   58.0680   30.8320   44.8980 C   0  0  0  0  0  0  0  0  0  0  0  0
   58.3160   32.1230   44.4770 N   0  0  0  0  0  0  0  0  0  0  0  0
   57.9620   32.5270   43.0970 C   0  0  0  0  0  0  0  0  0  0  0  0
   58.9060   33.0300   45.3400 C   0  0  0  0  0  0  0  0  0  0  0  0
   58.9510   34.4100   45.0350 C   0  0  0  0  0  0  0  0  0  0  0  0
   59.5550   35.3160   45.8950 C   0  0  0  0  0  0  0  0  0  0  0  0
   60.0480   34.8980   47.1210 C   0  0  0  0  0  0  0  0  0  0  0  0
   59.9590   33.5510   47.5160 C   0  0  0  0  0  0  0  0  0  0  0  0
   60.1830   33.1960   48.9050 N   0  0  0  0  0  0  0  0  0  0  0  0
   59.1350   33.0960   49.9280 C   0  0  0  0  0  0  0  0  0  0  0  0
   59.5860   33.6760   51.2770 C   0  0  0  0  0  0  0  0  0  0  0  0
   58.5390   33.5320   52.3910 C   0  0  0  0  0  0  0  0  0  0  0  0
   57.9740   32.1750   52.4420 N   0  0  0  0  0  0  0  0  0  0  0  0
   58.8020   31.0940   52.5810 C   0  0  0  0  0  0  0  0  0  0  0  0
   58.2790   29.8000   52.6160 C   0  0  0  0  0  0  0  0  0  0  0  0
   56.9010   29.6150   52.5080 C   0  0  0  0  0  0  0  0  0  0  0  0
   56.0650   30.7210   52.3660 C   0  0  0  0  0  0  0  0  0  0  0  0
   56.6210   32.0020   52.3360 C   0  0  0  0  0  0  0  0  0  0  0  0
   59.4740   32.5870   46.5720 C   0  0  0  0  0  0  0  0  0  0  0  0
   63.6203   34.9021   46.0988 H   0  0  0  0  0  0  0  0  0  0  0  0
   64.1101   33.1800   45.9535 H   0  0  0  0  0  0  0  0  0  0  0  0
   62.3689   33.6216   45.9535 H   0  0  0  0  0  0  0  0  0  0  0  0
   64.2902   34.0481   48.3012 H   0  0  0  0  0  0  0  0  0  0  0  0
   62.5163   34.3622   48.2846 H   0  0  0  0  0  0  0  0  0  0  0  0
   62.0360   32.1890   48.3860 H   0  0  0  0  0  0  0  0  0  0  0  0
   64.6992   31.4144   49.2248 H   0  0  0  0  0  0  0  0  0  0  0  0
   63.9826   32.8562   50.0681 H   0  0  0  0  0  0  0  0  0  0  0  0
   63.2326   29.9739   50.2311 H   0  0  0  0  0  0  0  0  0  0  0  0
   63.0666   31.2833   51.4413 H   0  0  0  0  0  0  0  0  0  0  0  0
   61.6418   29.1205   50.1608 H   0  0  0  0  0  0  0  0  0  0  0  0
   60.1921   29.9239   50.8916 H   0  0  0  0  0  0  0  0  0  0  0  0
   60.2941   28.6661   48.3989 H   0  0  0  0  0  0  0  0  0  0  0  0
   59.0355   29.8328   48.9743 H   0  0  0  0  0  0  0  0  0  0  0  0
   61.4740   30.9960   47.7010 H   0  0  0  0  0  0  0  0  0  0  0  0
   59.1007   28.5773   47.2827 H   0  0  0  0  0  0  0  0  0  0  0  0
   57.6258   27.0802   45.9550 H   0  0  0  0  0  0  0  0  0  0  0  0
   56.3572   27.9788   44.0125 H   0  0  0  0  0  0  0  0  0  0  0  0
   56.6327   30.3530   43.3279 H   0  0  0  0  0  0  0  0  0  0  0  0
   57.2374   33.3539   43.1315 H   0  0  0  0  0  0  0  0  0  0  0  0
   58.8683   32.8555   42.5672 H   0  0  0  0  0  0  0  0  0  0  0  0
   57.5173   31.6717   42.5672 H   0  0  0  0  0  0  0  0  0  0  0  0
   58.4992   34.7716   44.0995 H   0  0  0  0  0  0  0  0  0  0  0  0
   59.6431   36.3726   45.6019 H   0  0  0  0  0  0  0  0  0  0  0  0
   60.5158   35.6306   47.7952 H   0  0  0  0  0  0  0  0  0  0  0  0
   61.0710   32.7140   49.1600 H   0  0  0  0  0  0  0  0  0  0  0  0
   58.2488   33.6488   49.5829 H   0  0  0  0  0  0  0  0  0  0  0  0
   58.9080   32.0300   50.0769 H   0  0  0  0  0  0  0  0  0  0  0  0
   60.5016   33.1535   51.5911 H   0  0  0  0  0  0  0  0  0  0  0  0
   59.7489   34.7533   51.1258 H   0  0  0  0  0  0  0  0  0  0  0  0
   59.0150   33.7553   53.3572 H   0  0  0  0  0  0  0  0  0  0  0  0
   57.7191   34.2345   52.1805 H   0  0  0  0  0  0  0  0  0  0  0  0
   59.8881   31.2460   52.6658 H   0  0  0  0  0  0  0  0  0  0  0  0
   58.9480   28.9340   52.7278 H   0  0  0  0  0  0  0  0  0  0  0  0
   56.4759   28.6008   52.5348 H   0  0  0  0  0  0  0  0  0  0  0  0
   54.9768   30.5863   52.2783 H   0  0  0  0  0  0  0  0  0  0  0  0
   55.9658   32.8787   52.2263 H   0  0  0  0  0  0  0  0  0  0  0  0
  1  2  1  0
  2  3  1  0
  3  4  1  0
  4  5  1  0
  5  6  1  0
  6  7  1  0
  7  8  1  0
  8  9  1  0
  9 10  1  0
 10 11  2  0
 11 12  1  0
 12 13  2  0
 13 14  1  0
 14 15  2  0
 15 16  1  0
 16 17  2  0
 17 18  1  0
 17 19  1  0
 19 20  2  0
 20 21  1  0
 21 22  2  0
 22 23  1  0
 23 24  1  0
 24 25  1  0
 25 26  1  0
 26 27  1  0
 27 28  1  0
 28 29  2  0
 29 30  1  0
 30 31  2  0
 31 32  1  0
 32 33  2  0
 23 34  2  0
 34 10  1  0
 16 11  1  0
 34 19  1  0
 33 28  1  0
  1 35  1  0
  1 36  1  0
  1 37  1  0
  2 38  1  0
  2 39  1  0
  3 40  1  0
  4 41  1  0
  4 42  1  0
  5 43  1  0
  5 44  1  0
  7 45  1  0
  7 46  1  0
  8 47  1  0
  8 48  1  0
  9 49  1  0
 12 50  1  0
 13 51  1  0
 14 52  1  0
 15 53  1  0
 18 54  1  0
 18 55  1  0
 18 56  1  0
 20 57  1  0
 21 58  1  0
 22 59  1  0
 24 60  1  0
 25 61  1  0
 25 62  1  0
 26 63  1  0
 26 64  1  0
 27 65  1  0
 27 66  1  0
 29 67  1  0
 30 68  1  0
 31 69  1  0
 32 70  1  0
 33 71  1  0
M  CHG  2  17   1  28   1
M  END
>  <UniqueID>  (4) 
4

>  <SMILES>  (4) 
CCNCCOCCNc1c2ccccc2[n+](C)c2cccc(NCCC[n+]3ccccc3)c12

>  <Energy>  (4) 
102.5472043691965

>  <Genealogy>  (4) 
CCNCCOCCNc1c2ccccc2[n+](C)c2cccc(NCCC[n+]3ccccc3)c12 (3D coordinates assigned)
CCNCCOCCNc1c2ccccc2[n+](C)c2cccc(NCCC[n+]3ccccc3)c12 (optimized conformer: 102.5472043691965 kcal/mol)

>  <smiles>  (4) 
CCNCCOCCNc1c2ccccc2[n+](C)c2cccc(NCCC[n+]3ccccc3)c12

>  <score_type>  (4) 
oracle

>  <origin>  (4) 
adg

>  <m_score__min__energy>  (4) 
-4.3200000000000003

>  <m_primary>  (4) 
energy

$$$$
4:0
     RDKit          3D

 63 65  0  0  0  0  0  0  0  0999 V2000
   59.6410   35.1460   45.5970 C   0  0  0  0  0  0  0  0  0  0  0  0
   60.0340   34.9500   47.0570 C   0  0  0  0  0  0  0  0  0  0  0  0
   60.8690   33.7490   47.1950 N   0  0  0  0  0  0  0  0  0  0  0  0
   62.0900   33.8490   46.3830 C   0  0  0  0  0  0  0  0  0  0  0  0
   63.3010   33.3330   47.1720 C   0  0  0  0  0  0  0  0  0  0  0  0
   63.1300   31.8650   47.5890 C   0  0  0  0  0  0  0  0  0  0  0  0
   62.0170   31.7060   48.4470 O   0  0  0  0  0  0  0  0  0  0  0  0
   62.4190   31.7590   49.8020 C   0  0  0  0  0  0  0  0  0  0  0  0
   62.3240   33.1970   50.2940 C   0  0  0  0  0  0  0  0  0  0  0  0
   61.1150   33.3650   50.9890 O   0  0  0  0  0  0  0  0  0  0  0  0
   60.1430   33.4890   50.0450 N   0  0  0  0  0  0  0  0  0  0  0  0
   58.9950   32.6800   50.4610 C   0  0  0  0  0  0  0  0  0  0  0  0
   58.6060   31.6430   49.3880 C   0  0  0  0  0  0  0  0  0  0  0  0
   59.3140   31.8520   48.1080 N   0  0  0  0  0  0  0  0  0  0  0  0
   59.1080   30.7570   47.1650 C   0  0  0  0  0  0  0  0  0  0  0  0
   59.5310   29.4300   47.4640 C   0  0  0  0  0  0  0  0  0  0  0  0
   60.2510   29.1110   48.6460 C   0  0  0  0  0  0  0  0  0  0  0  0
   60.7040   27.8200   48.8920 C   0  0  0  0  0  0  0  0  0  0  0  0
   60.4670   26.8120   47.9730 C   0  0  0  0  0  0  0  0  0  0  0  0
   59.7470   27.0820   46.8140 C   0  0  0  0  0  0  0  0  0  0  0  0
   59.2320   28.3780   46.5510 C   0  0  0  0  0  0  0  0  0  0  0  0
   58.4690   28.6230   45.4290 N   0  0  0  0  0  0  0  0  0  0  0  0
   57.8830   27.4930   44.6710 C   0  0  0  0  0  0  0  0  0  0  0  0
   58.2260   29.9180   45.0260 C   0  0  0  0  0  0  0  0  0  0  0  0
   57.7140   30.2010   43.7330 C   0  0  0  0  0  0  0  0  0  0  0  0
   57.4010   31.5000   43.3480 C   0  0  0  0  0  0  0  0  0  0  0  0
   57.5930   32.5490   44.2320 C   0  0  0  0  0  0  0  0  0  0  0  0
   58.1390   32.3140   45.4900 C   0  0  0  0  0  0  0  0  0  0  0  0
   58.4950   31.0050   45.9040 C   0  0  0  0  0  0  0  0  0  0  0  0
   58.6577   35.6364   45.5446 H   0  0  0  0  0  0  0  0  0  0  0  0
   60.3917   35.7753   45.0965 H   0  0  0  0  0  0  0  0  0  0  0  0
   59.5900   34.1678   45.0965 H   0  0  0  0  0  0  0  0  0  0  0  0
   60.5986   35.8282   47.4034 H   0  0  0  0  0  0  0  0  0  0  0  0
   59.1240   34.8291   47.6631 H   0  0  0  0  0  0  0  0  0  0  0  0
   61.1610   33.6850   48.1990 H   0  0  0  0  0  0  0  0  0  0  0  0
   61.9687   33.2469   45.4704 H   0  0  0  0  0  0  0  0  0  0  0  0
   62.2584   34.9038   46.1203 H   0  0  0  0  0  0  0  0  0  0  0  0
   64.1991   33.4217   46.5431 H   0  0  0  0  0  0  0  0  0  0  0  0
   63.3952   33.9380   48.0858 H   0  0  0  0  0  0  0  0  0  0  0  0
   62.9803   31.2509   46.6888 H   0  0  0  0  0  0  0  0  0  0  0  0
   64.0348   31.5471   48.1277 H   0  0  0  0  0  0  0  0  0  0  0  0
   61.7604   31.1184   50.4069 H   0  0  0  0  0  0  0  0  0  0  0  0
   63.4557   31.4031   49.8952 H   0  0  0  0  0  0  0  0  0  0  0  0
   63.1681   33.4134   50.9653 H   0  0  0  0  0  0  0  0  0  0  0  0
   62.3579   33.8855   49.4368 H   0  0  0  0  0  0  0  0  0  0  0  0
   60.5220   33.1060   49.1480 H   0  0  0  0  0  0  0  0  0  0  0  0
   59.2505   32.1512   51.3911 H   0  0  0  0  0  0  0  0  0  0  0  0
   58.1386   33.3538   50.6116 H   0  0  0  0  0  0  0  0  0  0  0  0
   58.8498   30.6387   49.7648 H   0  0  0  0  0  0  0  0  0  0  0  0
   57.5291   31.7549   49.1935 H   0  0  0  0  0  0  0  0  0  0  0  0
   60.3350   31.9510   48.2990 H   0  0  0  0  0  0  0  0  0  0  0  0
   59.0780   32.7840   47.7090 H   0  0  0  0  0  0  0  0  0  0  0  0
   60.4545   29.9024   49.3824 H   0  0  0  0  0  0  0  0  0  0  0  0
   61.2524   27.5987   49.8195 H   0  0  0  0  0  0  0  0  0  0  0  0
   60.8483   25.7972   48.1595 H   0  0  0  0  0  0  0  0  0  0  0  0
   59.5733   26.2751   46.0869 H   0  0  0  0  0  0  0  0  0  0  0  0
   57.4937   26.7423   45.3745 H   0  0  0  0  0  0  0  0  0  0  0  0
   57.0628   27.8623   44.0379 H   0  0  0  0  0  0  0  0  0  0  0  0
   58.6574   27.0354   44.0379 H   0  0  0  0  0  0  0  0  0  0  0  0
   57.5617   29.3763   43.0212 H   0  0  0  0  0  0  0  0  0  0  0  0
   57.0011   31.6945   42.3419 H   0  0  0  0  0  0  0  0  0  0  0  0
   57.3128   33.5714   43.9384 H   0  0  0  0  0  0  0  0  0  0  0  0
   58.2975   33.1590   46.1761 H   0  0  0  0  0  0  0  0  0  0  0  0
  1  2  1  0
  2  3  1  0
  3  4  1  0
  4  5  1  0
  5  6  1  0
  6  7  1  0
  7  8  1  0
  8  9  1  0
  9 10  1  0
 10 11  1  0
 11 12  1  0
 12 13  1  0
 13 14  1  0
 14 15  1  0
 15 16  2  0
 16 17  1  0
 17 18  2  0
 18 19  1  0
 19 20  2  0
 20 21  1  0
 21 22  2  0
 22 23  1  0
 22 24  1  0
 24 25  2  0
 25 26  1  0
 26 27  2  0
 27 28  1  0
 28 29  2  0
 29 15  1  0
 21 16  1  0
 29 24  1  0
  1 30  1  0
  1 31  1  0
  1 32  1  0
  2 33  1  0
  2 34  1  0
  3 35  1  0
  4 36  1  0
  4 37  1  0
  5 38  1  0
  5 39  1  0
  6 40  1  0
  6 41  1  0
  8 42  1  0
  8 43  1  0
  9 44  1  0
  9 45  1  0
 11 46  1  0
 12 47  1  0
 12 48  1  0
 13 49  1  0
 13 50  1  0
 14 51  1  0
 14 52  1  0
 17 53  1  0
 18 54  1  0
 19 55  1  0
 20 56  1  0
 23 57  1  0
 23 58  1  0
 23 59  1  0
 25 60  1  0
 26 61  1  0
 27 62  1  0
 28 63  1  0
M  CHG  2  14   1  22   1
M  END
>  <UniqueID>  (5) 
5

>  <SMILES>  (5) 
CCNCCCOCCONCC[NH2+]c1c2ccccc2[n+](C)c2ccccc12

>  <Energy>  (5) 
80.29908199888344

>  <Genealogy>  (5) 
CCNCCCOCCONCC[NH2+]c1c2ccccc2[n+](C)c2ccccc12 (protonated)
CCNCCCOCCONCC[NH2+]c1c2ccccc2[n+](C)c2ccccc12 (3D coordinates assigned)
CCNCCCOCCONCC[NH2+]c1c2ccccc2[n+](C)c2ccccc12 (optimized conformer: 80.29908199888344 kcal/mol)

>  <smiles>  (5) 
CCNCCCOCCONCCNc1c2ccccc2[n+](C)c2ccccc12

>  <score_type>  (5) 
oracle

>  <origin>  (5) 
adg

>  <m_score__min__energy>  (5) 
-4.0700000000000003

>  <m_primary>  (5) 
energy

$$$$
5:0
     RDKit          3D

 60 62  0  0  0  0  0  0  0  0999 V2000
   58.9550   33.7360   51.8830 C   0  0  0  0  0  0  0  0  0  0  0  0
   59.7770   33.3090   50.6840 C   0  0  0  0  0  0  0  0  0  0  0  0
   59.2170   32.1360   50.1350 O   0  0  0  0  0  0  0  0  0  0  0  0
   57.9970   31.8360   50.7870 C   0  0  0  0  0  0  0  0  0  0  0  0
   58.0690   30.4400   51.3910 C   0  0  0  0  0  0  0  0  0  0  0  0
   58.5070   29.5370   50.4070 O   0  0  0  0  0  0  0  0  0  0  0  0
   59.7560   28.9720   50.7530 C   0  0  0  0  0  0  0  0  0  0  0  0
   60.3820   28.3040   49.5260 C   0  0  0  0  0  0  0  0  0  0  0  0
   59.9770   28.9950   48.2800 N   0  0  0  0  0  0  0  0  0  0  0  0
   60.6770   30.0770   47.7790 C   0  0  0  0  0  0  0  0  0  0  0  0
   61.8330   30.7260   48.5020 C   0  0  0  0  0  0  0  0  0  0  0  0
   62.5340   31.6470   47.6000 N   0  0  0  0  0  0  0  0  0  0  0  0
   62.7500   32.9580   48.2260 C   0  0  0  0  0  0  0  0  0  0  0  0
   61.5690   33.8920   47.9500 C   0  0  0  0  0  0  0  0  0  0  0  0
   60.3500   33.1200   47.7270 N   0  0  0  0  0  0  0  0  0  0  0  0
   59.3310   33.4660   46.7730 C   0  0  0  0  0  0  0  0  0  0  0  0
   59.6830   34.2110   45.6390 C   0  0  0  0  0  0  0  0  0  0  0  0
   58.7120   34.5900   44.7090 C   0  0  0  0  0  0  0  0  0  0  0  0
   57.3790   34.2270   44.9010 C   0  0  0  0  0  0  0  0  0  0  0  0
   57.0160   33.4820   46.0200 C   0  0  0  0  0  0  0  0  0  0  0  0
   57.9840   33.0990   46.9520 C   0  0  0  0  0  0  0  0  0  0  0  0
   60.2910   30.6520   46.6100 N   0  0  0  0  0  0  0  0  0  0  0  0
   59.2350   30.1970   45.8990 C   0  0  0  0  0  0  0  0  0  0  0  0
   58.8750   30.8230   44.6990 C   0  0  0  0  0  0  0  0  0  0  0  0
   57.7770   30.3580   43.9690 C   0  0  0  0  0  0  0  0  0  0  0  0
   57.0370   29.2700   44.4350 C   0  0  0  0  0  0  0  0  0  0  0  0
   57.3940   28.6370   45.6280 C   0  0  0  0  0  0  0  0  0  0  0  0
   58.4990   29.0990   46.3710 C   0  0  0  0  0  0  0  0  0  0  0  0
   58.9000   28.5020   47.5770 C   0  0  0  0  0  0  0  0  0  0  0  0
   58.2630   27.4990   48.0100 O   0  0  0  0  0  0  0  0  0  0  0  0
   59.4844   33.4610   52.8072 H   0  0  0  0  0  0  0  0  0  0  0  0
   58.8060   34.8255   51.8561 H   0  0  0  0  0  0  0  0  0  0  0  0
   57.9779   33.2315   51.8561 H   0  0  0  0  0  0  0  0  0  0  0  0
   59.7702   34.1089   49.9289 H   0  0  0  0  0  0  0  0  0  0  0  0
   60.8138   33.1142   50.9956 H   0  0  0  0  0  0  0  0  0  0  0  0
   57.8184   32.5713   51.5854 H   0  0  0  0  0  0  0  0  0  0  0  0
   57.1743   31.8760   50.0579 H   0  0  0  0  0  0  0  0  0  0  0  0
   58.7763   30.4388   52.2335 H   0  0  0  0  0  0  0  0  0  0  0  0
   57.0746   30.1405   51.7536 H   0  0  0  0  0  0  0  0  0  0  0  0
   60.4260   29.7639   51.1190 H   0  0  0  0  0  0  0  0  0  0  0  0
   59.6075   28.2182   51.5402 H   0  0  0  0  0  0  0  0  0  0  0  0
   61.4777   28.3395   49.6170 H   0  0  0  0  0  0  0  0  0  0  0  0
   60.0325   27.2621   49.4780 H   0  0  0  0  0  0  0  0  0  0  0  0
   61.4527   31.2847   49.3699 H   0  0  0  0  0  0  0  0  0  0  0  0
   62.5326   29.9466   48.8383 H   0  0  0  0  0  0  0  0  0  0  0  0
   61.9300   31.7960   46.7600 H   0  0  0  0  0  0  0  0  0  0  0  0
   62.8590   32.8255   49.3125 H   0  0  0  0  0  0  0  0  0  0  0  0
   63.6609   33.4059   47.8022 H   0  0  0  0  0  0  0  0  0  0  0  0
   61.4236   34.5573   48.8139 H   0  0  0  0  0  0  0  0  0  0  0  0
   61.7859   34.4842   47.0487 H   0  0  0  0  0  0  0  0  0  0  0  0
   60.2660   32.2130   48.2340 H   0  0  0  0  0  0  0  0  0  0  0  0
   60.7325   34.4996   45.4801 H   0  0  0  0  0  0  0  0  0  0  0  0
   58.9992   35.1759   43.8234 H   0  0  0  0  0  0  0  0  0  0  0  0
   56.6153   34.5290   44.1692 H   0  0  0  0  0  0  0  0  0  0  0  0
   55.9650   33.1944   46.1706 H   0  0  0  0  0  0  0  0  0  0  0  0
   57.6914   32.5067   47.8315 H   0  0  0  0  0  0  0  0  0  0  0  0
   59.4565   31.6810   44.3306 H   0  0  0  0  0  0  0  0  0  0  0  0
   57.4959   30.8501   43.0262 H   0  0  0  0  0  0  0  0  0  0  0  0
   56.1703   28.9101   43.8612 H   0  0  0  0  0  0  0  0  0  0  0  0
   56.8115   27.7762   45.9883 H   0  0  0  0  0  0  0  0  0  0  0  0
  1  2  1  0
  2  3  1  0
  3  4  1  0
  4  5  1  0
  5  6  1  0
  6  7  1  0
  7  8  1  0
  8  9  1  0
  9 10  1  0
 10 11  1  0
 11 12  1  0
 12 13  1  0
 13 14  1  0
 14 15  1  0
 15 16  1  0
 16 17  2  0
 17 18  1  0
 18 19  2  0
 19 20  1  0
 20 21  2  0
 10 22  2  0
 22 23  1  0
 23 24  2  0
 24 25  1  0
 25 26  2  0
 26 27  1  0
 27 28  2  0
 28 29  1  0
 29 30  2  0
 29  9  1  0
 21 16  1  0
 28 23  1  0
  1 31  1  0
  1 32  1  0
  1 33  1  0
  2 34  1  0
  2 35  1  0
  4 36  1  0
  4 37  1  0
  5 38  1  0
  5 39  1  0
  7 40  1  0
  7 41  1  0
  8 42  1  0
  8 43  1  0
 11 44  1  0
 11 45  1  0
 12 46  1  0
 13 47  1  0
 13 48  1  0
 14 49  1  0
 14 50  1  0
 15 51  1  0
 17 52  1  0
 18 53  1  0
 19 54  1  0
 20 55  1  0
 21 56  1  0
 24 57  1  0
 25 58  1  0
 26 59  1  0
 27 60  1  0
M  END
>  <UniqueID>  (6) 
6

>  <SMILES>  (6) 
CCOCCOCCn1c(CNCCNc2ccccc2)nc2ccccc2c1=O

>  <Energy>  (6) 
61.55658924201741

>  <Genealogy>  (6) 
CCOCCOCCn1c(CNCCNc2ccccc2)nc2ccccc2c1=O (3D coordinates assigned)
CCOCCOCCn1c(CNCCNc2ccccc2)nc2ccccc2c1=O (optimized conformer: 61.55658924201741 kcal/mol)

>  <smiles>  (6) 
CCOCCOCCn1c(CNCCNc2ccccc2)nc2ccccc2c1=O

>  <score_type>  (6) 
oracle

>  <origin>  (6) 
adg

>  <m_score__min__energy>  (6) 
-8.0299999999999994

>  <m_primary>  (6) 
energy

$$$$
6:0
     RDKit          3D

 57 60  0  0  0  0  0  0  0  0999 V2000
   56.2740   29.8700   42.7370 C   0  0  0  0  0  0  0  0  0  0  0  0
   55.8590   29.7200   44.1990 C   0  0  0  0  0  0  0  0  0  0  0  0
   56.6550   30.6010   45.0660 N   0  0  0  0  0  0  0  0  0  0  0  0
   57.9660   30.9420   44.4830 C   0  0  0  0  0  0  0  0  0  0  0  0
   58.9100   29.7440   44.6200 C   0  0  0  0  0  0  0  0  0  0  0  0
   59.6150   29.7100   45.9910 C   0  0  0  0  0  0  0  0  0  0  0  0
   58.6820   29.7570   47.0550 O   0  0  0  0  0  0  0  0  0  0  0  0
   59.3050   29.4320   48.2820 C   0  0  0  0  0  0  0  0  0  0  0  0
   58.5250   30.0670   49.4310 C   0  0  0  0  0  0  0  0  0  0  0  0
   59.2860   31.1680   50.0200 N   0  0  0  0  0  0  0  0  0  0  0  0
   60.2860   31.8620   49.2590 C   0  0  0  0  0  0  0  0  0  0  0  0
   61.6280   31.7710   49.6130 C   0  0  0  0  0  0  0  0  0  0  0  0
   62.6150   32.3850   48.8590 C   0  0  0  0  0  0  0  0  0  0  0  0
   62.3280   33.0130   47.6730 N   0  0  0  0  0  0  0  0  0  0  0  0
   63.4100   33.3470   46.7330 C   0  0  0  0  0  0  0  0  0  0  0  0
   60.9990   33.2620   47.3640 C   0  0  0  0  0  0  0  0  0  0  0  0
   60.6330   34.1120   46.2930 C   0  0  0  0  0  0  0  0  0  0  0  0
   59.2930   34.3480   45.9900 C   0  0  0  0  0  0  0  0  0  0  0  0
   58.2850   33.7620   46.7500 C   0  0  0  0  0  0  0  0  0  0  0  0
   58.6080   32.9400   47.8280 C   0  0  0  0  0  0  0  0  0  0  0  0
   59.9530   32.6740   48.1510 C   0  0  0  0  0  0  0  0  0  0  0  0
   63.9150   32.1120   49.5140 C   0  0  0  0  0  0  0  0  0  0  0  0
   65.1360   32.6810   49.3040 N   0  0  0  0  0  0  0  0  0  0  0  0
   66.1860   32.3460   50.1140 C   0  0  0  0  0  0  0  0  0  0  0  0
   66.0040   31.4640   51.1990 C   0  0  0  0  0  0  0  0  0  0  0  0
   64.7280   30.9460   51.4650 C   0  0  0  0  0  0  0  0  0  0  0  0
   63.6930   31.2930   50.6040 C   0  0  0  0  0  0  0  0  0  0  0  0
   62.2660   31.0460   50.7140 C   0  0  0  0  0  0  0  0  0  0  0  0
   61.6960   30.3660   51.6080 O   0  0  0  0  0  0  0  0  0  0  0  0
   57.3074   30.2435   42.6856 H   0  0  0  0  0  0  0  0  0  0  0  0
   56.2121   28.8926   42.2361 H   0  0  0  0  0  0  0  0  0  0  0  0
   55.6015   30.5819   42.2361 H   0  0  0  0  0  0  0  0  0  0  0  0
   54.7954   29.9818   44.2996 H   0  0  0  0  0  0  0  0  0  0  0  0
   56.0303   28.6779   44.5066 H   0  0  0  0  0  0  0  0  0  0  0  0
   56.8180   30.0910   45.9670 H   0  0  0  0  0  0  0  0  0  0  0  0
   57.8410   31.1911   43.4189 H   0  0  0  0  0  0  0  0  0  0  0  0
   58.3905   31.8071   45.0134 H   0  0  0  0  0  0  0  0  0  0  0  0
   58.3277   28.8187   44.4983 H   0  0  0  0  0  0  0  0  0  0  0  0
   59.6849   29.8350   43.8446 H   0  0  0  0  0  0  0  0  0  0  0  0
   60.2001   28.7818   46.0693 H   0  0  0  0  0  0  0  0  0  0  0  0
   60.2683   30.5918   46.0654 H   0  0  0  0  0  0  0  0  0  0  0  0
   59.3195   28.3393   48.4081 H   0  0  0  0  0  0  0  0  0  0  0  0
   60.3365   29.8142   48.2828 H   0  0  0  0  0  0  0  0  0  0  0  0
   57.5678   30.4520   49.0495 H   0  0  0  0  0  0  0  0  0  0  0  0
   58.3463   29.3047   50.2037 H   0  0  0  0  0  0  0  0  0  0  0  0
   59.3350   31.2180   51.0620 H   0  0  0  0  0  0  0  0  0  0  0  0
   64.3125   33.6256   47.2968 H   0  0  0  0  0  0  0  0  0  0  0  0
   63.6280   32.4743   46.0998 H   0  0  0  0  0  0  0  0  0  0  0  0
   63.0982   34.1907   46.0998 H   0  0  0  0  0  0  0  0  0  0  0  0
   61.4176   34.5935   45.6909 H   0  0  0  0  0  0  0  0  0  0  0  0
   59.0306   35.0015   45.1449 H   0  0  0  0  0  0  0  0  0  0  0  0
   57.2303   33.9482   46.4990 H   0  0  0  0  0  0  0  0  0  0  0  0
   57.8045   32.4944   48.4328 H   0  0  0  0  0  0  0  0  0  0  0  0
   65.2890   33.4030   48.5710 H   0  0  0  0  0  0  0  0  0  0  0  0
   67.1822   32.7688   49.9171 H   0  0  0  0  0  0  0  0  0  0  0  0
   66.8579   31.1838   51.8332 H   0  0  0  0  0  0  0  0  0  0  0  0
   64.5518   30.2862   52.3274 H   0  0  0  0  0  0  0  0  0  0  0  0
  1  2  1  0
  2  3  1  0
  3  4  1  0
  4  5  1  0
  5  6  1  0
  6  7  1  0
  7  8  1  0
  8  9  1  0
  9 10  1  0
 10 11  1  0
 11 12  2  0
 12 13  1  0
 13 14  2  0
 14 15  1  0
 14 16  1  0
 16 17  2  0
 17 18  1  0
 18 19  2  0
 19 20  1  0
 20 21  2  0
 13 22  1  0
 22 23  2  0
 23 24  1  0
 24 25  2  0
 25 26  1  0
 26 27  2  0
 27 28  1  0
 28 29  2  0
 21 11  1  0
 27 22  1  0
 28 12  1  0
 21 16  1  0
  1 30  1  0
  1 31  1  0
  1 32  1  0
  2 33  1  0
  2 34  1  0
  3 35  1  0
  4 36  1  0
  4 37  1  0
  5 38  1  0
  5 39  1  0
  6 40  1  0
  6 41  1  0
  8 42  1  0
  8 43  1  0
  9 44  1  0
  9 45  1  0
 10 46  1  0
 15 47  1  0
 15 48  1  0
 15 49  1  0
 17 50  1  0
 18 51  1  0
 19 52  1  0
 20 53  1  0
 23 54  1  0
 24 55  1  0
 25 56  1  0
 26 57  1  0
M  CHG  2  14   1  23   1
M  END
>  <UniqueID>  (7) 
7

>  <SMILES>  (7) 
CCNCCCOCCNc1c2c([n+](C)c3ccccc13)-c1[nH+]cccc1C2=O

>  <Energy>  (7) 
112.31976775016614

>  <Genealogy>  (7) 
CCNCCCOCCNc1c2c([n+](C)c3ccccc13)-c1[nH+]cccc1C2=O (protonated)
CCNCCCOCCNc1c2c([n+](C)c3ccccc13)-c1[nH+]cccc1C2=O (3D coordinates assigned)
CCNCCCOCCNc1c2c([n+](C)c3ccccc13)-c1[nH+]cccc1C2=O (nonaromatic ring conformer: 112.31976775016614 kcal/mol)

>  <smiles>  (7) 
CCNCCCOCCNc1c2c([n+](C)c3ccccc13)-c1ncccc1C2=O

>  <score_type>  (7) 
oracle

>  <origin>  (7) 
adg

>  <m_score__min__energy>  (7) 
-4.8600000000000003

>  <m_primary>  (7) 
energy

$$$$
7:0
     RDKit          3D

 35 36  0  0  0  0  0  0  0  0999 V2000
   57.3680   28.7910   43.3700 C   0  0  0  0  0  0  0  0  0  0  0  0
   57.5250   30.0450   44.1630 C   0  0  0  0  0  0  0  0  0  0  0  0
   57.7640   30.1490   45.5190 C   0  0  0  0  0  0  0  0  0  0  0  0
   57.7660   31.4520   45.8690 N   0  0  0  0  0  0  0  0  0  0  0  0
   57.5230   32.1590   44.7750 N   0  0  0  0  0  0  0  0  0  0  0  0
   57.4370   33.6160   44.7510 C   0  0  0  0  0  0  0  0  0  0  0  0
   58.6670   34.2630   45.4080 C   0  0  0  0  0  0  0  0  0  0  0  0
   59.2720   33.4130   46.4580 N   0  0  0  0  0  0  0  0  0  0  0  0
   60.3050   34.1290   47.2230 C   0  0  0  0  0  0  0  0  0  0  0  0
   61.6020   33.3650   47.2040 C   0  0  0  0  0  0  0  0  0  0  0  0
   62.8240   33.8980   46.8400 C   0  0  0  0  0  0  0  0  0  0  0  0
   63.7610   32.9020   47.0360 C   0  0  0  0  0  0  0  0  0  0  0  0
   63.0770   31.8050   47.5220 C   0  0  0  0  0  0  0  0  0  0  0  0
   61.7640   32.0920   47.6250 N   0  0  0  0  0  0  0  0  0  0  0  0
   60.7330   31.1910   48.1340 C   0  0  0  0  0  0  0  0  0  0  0  0
   57.3650   31.3390   43.7180 C   0  0  0  0  0  0  0  0  0  0  0  0
   57.2609   27.9359   44.0536 H   0  0  0  0  0  0  0  0  0  0  0  0
   56.4725   28.8679   42.7359 H   0  0  0  0  0  0  0  0  0  0  0  0
   58.2548   28.6447   42.7359 H   0  0  0  0  0  0  0  0  0  0  0  0
   57.9268   29.3043   46.2045 H   0  0  0  0  0  0  0  0  0  0  0  0
   57.3709   33.9531   43.7060 H   0  0  0  0  0  0  0  0  0  0  0  0
   56.5437   33.9187   45.3169 H   0  0  0  0  0  0  0  0  0  0  0  0
   59.4220   34.4515   44.6305 H   0  0  0  0  0  0  0  0  0  0  0  0
   58.3334   35.1946   45.8884 H   0  0  0  0  0  0  0  0  0  0  0  0
   59.6780   32.5410   46.0430 H   0  0  0  0  0  0  0  0  0  0  0  0
   58.5150   33.1240   47.1210 H   0  0  0  0  0  0  0  0  0  0  0  0
   60.4633   35.1215   46.7760 H   0  0  0  0  0  0  0  0  0  0  0  0
   59.9682   34.2309   48.2652 H   0  0  0  0  0  0  0  0  0  0  0  0
   63.0134   34.9155   46.4674 H   0  0  0  0  0  0  0  0  0  0  0  0
   64.8418   32.9695   46.8426 H   0  0  0  0  0  0  0  0  0  0  0  0
   63.5355   30.8405   47.7858 H   0  0  0  0  0  0  0  0  0  0  0  0
   60.7463   31.2026   49.2339 H   0  0  0  0  0  0  0  0  0  0  0  0
   59.7471   31.5222   47.7757 H   0  0  0  0  0  0  0  0  0  0  0  0
   60.9292   30.1697   47.7757 H   0  0  0  0  0  0  0  0  0  0  0  0
   57.1473   31.6473   42.6848 H   0  0  0  0  0  0  0  0  0  0  0  0
  1  2  1  0
  2  3  1  0
  3  4  2  0
  4  5  1  0
  5  6  1  0
  6  7  1  0
  7  8  1  0
  8  9  1  0
  9 10  1  0
 10 11  2  0
 11 12  1  0
 12 13  2  0
 13 14  1  0
 14 15  1  0
  5 16  1  0
 16  2  2  0
 14 10  1  0
  1 17  1  0
  1 18  1  0
  1 19  1  0
  3 20  1  0
  6 21  1  0
  6 22  1  0
  7 23  1  0
  7 24  1  0
  8 25  1  0
  8 26  1  0
  9 27  1  0
  9 28  1  0
 11 29  1  0
 12 30  1  0
 13 31  1  0
 15 32  1  0
 15 33  1  0
 15 34  1  0
 16 35  1  0
M  CHG  1   8   1
M  END
>  <UniqueID>  (8) 
8

>  <SMILES>  (8) 
Cc1cnn(CC[NH2+]Cc2cccn2C)c1

>  <Energy>  (8) 
84.27624604752161

>  <Genealogy>  (8) 
Cc1cnn(CC[NH2+]Cc2cccn2C)c1 (protonated)
Cc1cnn(CC[NH2+]Cc2cccn2C)c1 (3D coordinates assigned)
Cc1cnn(CC[NH2+]Cc2cccn2C)c1 (optimized conformer: 84.27624604752161 kcal/mol)

>  <smiles>  (8) 
Cc1cnn(CCNCc2cccn2C)c1

>  <score_type>  (8) 
oracle

>  <origin>  (8) 
adg

>  <m_score__min__energy>  (8) 
-3.5699999999999998

>  <m_primary>  (8) 
energy

$$$$
8:0
     RDKit          3D

 59 61  0  0  0  0  0  0  0  0999 V2000
   55.5540   23.0970   47.7420 C   0  0  0  0  0  0  0  0  0  0  0  0
   56.2640   24.4290   47.5080 C   0  0  0  0  0  0  0  0  0  0  0  0
   55.8170   25.0470   46.2360 N   0  0  0  0  0  0  0  0  0  0  0  0
   54.6150   24.3630   45.7230 C   0  0  0  0  0  0  0  0  0  0  0  0
   56.8930   25.0120   45.2190 C   0  0  0  0  0  0  0  0  0  0  0  0
   57.7810   26.2550   45.3440 C   0  0  0  0  0  0  0  0  0  0  0  0
   57.0730   27.3330   46.0350 N   0  0  0  0  0  0  0  0  0  0  0  0
   57.5460   28.6860   45.9840 C   0  0  0  0  0  0  0  0  0  0  0  0
   58.2300   29.2070   47.0800 C   0  0  0  0  0  0  0  0  0  0  0  0
   58.7170   30.5070   47.0560 C   0  0  0  0  0  0  0  0  0  0  0  0
   58.5350   31.3260   45.9320 C   0  0  0  0  0  0  0  0  0  0  0  0
   59.0600   32.6260   45.9490 O   0  0  0  0  0  0  0  0  0  0  0  0
   59.7750   33.1990   47.0120 C   0  0  0  0  0  0  0  0  0  0  0  0
   59.0720   33.9320   47.9710 C   0  0  0  0  0  0  0  0  0  0  0  0
   59.7420   34.5020   49.0530 C   0  0  0  0  0  0  0  0  0  0  0  0
   61.1220   34.3330   49.1930 C   0  0  0  0  0  0  0  0  0  0  0  0
   61.8580   33.5830   48.2510 C   0  0  0  0  0  0  0  0  0  0  0  0
   63.2870   33.3770   48.4130 N   0  0  0  0  0  0  0  0  0  0  0  0
   63.9140   33.4810   49.7370 C   0  0  0  0  0  0  0  0  0  0  0  0
   64.1380   33.0890   47.2510 C   0  0  0  0  0  0  0  0  0  0  0  0
   61.1630   33.0160   47.1590 C   0  0  0  0  0  0  0  0  0  0  0  0
   57.8730   30.8110   44.7820 C   0  0  0  0  0  0  0  0  0  0  0  0
   57.6690   31.5700   43.5880 C   0  0  0  0  0  0  0  0  0  0  0  0
   58.1500   32.9890   43.4090 C   0  0  0  0  0  0  0  0  0  0  0  0
   56.9860   30.9820   42.5130 C   0  0  0  0  0  0  0  0  0  0  0  0
   56.5120   29.6810   42.6110 C   0  0  0  0  0  0  0  0  0  0  0  0
   56.7040   28.9630   43.7430 N   0  0  0  0  0  0  0  0  0  0  0  0
   57.3680   29.4750   44.8230 C   0  0  0  0  0  0  0  0  0  0  0  0
   55.4583   22.9175   48.8230 H   0  0  0  0  0  0  0  0  0  0  0  0
   54.5536   23.1296   47.2857 H   0  0  0  0  0  0  0  0  0  0  0  0
   56.1388   22.2847   47.2857 H   0  0  0  0  0  0  0  0  0  0  0  0
   56.0352   25.1109   48.3403 H   0  0  0  0  0  0  0  0  0  0  0  0
   57.3471   24.2461   47.4500 H   0  0  0  0  0  0  0  0  0  0  0  0
   54.0027   24.0146   46.5678 H   0  0  0  0  0  0  0  0  0  0  0  0
   54.0287   25.0628   45.1093 H   0  0  0  0  0  0  0  0  0  0  0  0
   54.9172   23.5016   45.1093 H   0  0  0  0  0  0  0  0  0  0  0  0
   57.5059   24.1111   45.3696 H   0  0  0  0  0  0  0  0  0  0  0  0
   56.4392   24.9947   44.2171 H   0  0  0  0  0  0  0  0  0  0  0  0
   58.6861   25.9957   45.9127 H   0  0  0  0  0  0  0  0  0  0  0  0
   58.0484   26.5998   44.3342 H   0  0  0  0  0  0  0  0  0  0  0  0
   56.3960   27.0750   46.7880 H   0  0  0  0  0  0  0  0  0  0  0  0
   58.3857   28.5829   47.9724 H   0  0  0  0  0  0  0  0  0  0  0  0
   59.2537   30.9006   47.9318 H   0  0  0  0  0  0  0  0  0  0  0  0
   57.9840   34.0603   47.8721 H   0  0  0  0  0  0  0  0  0  0  0  0
   59.1826   35.0863   49.7984 H   0  0  0  0  0  0  0  0  0  0  0  0
   61.6412   34.7903   50.0482 H   0  0  0  0  0  0  0  0  0  0  0  0
   63.1482   33.3540   50.5164 H   0  0  0  0  0  0  0  0  0  0  0  0
   64.6787   32.6974   49.8432 H   0  0  0  0  0  0  0  0  0  0  0  0
   64.3847   34.4695   49.8432 H   0  0  0  0  0  0  0  0  0  0  0  0
   65.1276   32.7541   47.5953 H   0  0  0  0  0  0  0  0  0  0  0  0
   63.6739   32.2979   46.6437 H   0  0  0  0  0  0  0  0  0  0  0  0
   64.2498   33.9994   46.6437 H   0  0  0  0  0  0  0  0  0  0  0  0
   61.7141   32.4236   46.4138 H   0  0  0  0  0  0  0  0  0  0  0  0
   58.3064   33.4503   44.3953 H   0  0  0  0  0  0  0  0  0  0  0  0
   59.0977   32.9872   42.8506 H   0  0  0  0  0  0  0  0  0  0  0  0
   57.3965   33.5639   42.8506 H   0  0  0  0  0  0  0  0  0  0  0  0
   56.8252   31.5548   41.5877 H   0  0  0  0  0  0  0  0  0  0  0  0
   55.9764   29.2299   41.7627 H   0  0  0  0  0  0  0  0  0  0  0  0
   56.3140   27.9930   43.7600 H   0  0  0  0  0  0  0  0  0  0  0  0
  1  2  1  0
  2  3  1  0
  3  4  1  0
  3  5  1  0
  5  6  1  0
  6  7  1  0
  7  8  1  0
  8  9  2  0
  9 10  1  0
 10 11  2  0
 11 12  1  0
 12 13  1  0
 13 14  2  0
 14 15  1  0
 15 16  2  0
 16 17  1  0
 17 18  1  0
 18 19  1  0
 18 20  1  0
 17 21  2  0
 11 22  1  0
 22 23  2  0
 23 24  1  0
 23 25  1  0
 25 26  2  0
 26 27  1  0
 27 28  2  0
 28  8  1  0
 21 13  1  0
 28 22  1  0
  1 29  1  0
  1 30  1  0
  1 31  1  0
  2 32  1  0
  2 33  1  0
  4 34  1  0
  4 35  1  0
  4 36  1  0
  5 37  1  0
  5 38  1  0
  6 39  1  0
  6 40  1  0
  7 41  1  0
  9 42  1  0
 10 43  1  0
 14 44  1  0
 15 45  1  0
 16 46  1  0
 19 47  1  0
 19 48  1  0
 19 49  1  0
 20 50  1  0
 20 51  1  0
 20 52  1  0
 21 53  1  0
 24 54  1  0
 24 55  1  0
 24 56  1  0
 25 57  1  0
 26 58  1  0
 27 59  1  0
M  CHG  1  27   1
M  END
>  <UniqueID>  (9) 
9

>  <SMILES>  (9) 
CCN(C)CCNc1ccc(Oc2cccc(N(C)C)c2)c2c(C)cc[nH+]c12

>  <Energy>  (9) 
80.5154824485358

>  <Genealogy>  (9) 
CCN(C)CCNc1ccc(Oc2cccc(N(C)C)c2)c2c(C)cc[nH+]c12 (protonated)
CCN(C)CCNc1ccc(Oc2cccc(N(C)C)c2)c2c(C)cc[nH+]c12 (3D coordinates assigned)
CCN(C)CCNc1ccc(Oc2cccc(N(C)C)c2)c2c(C)cc[nH+]c12 (optimized conformer: 80.5154824485358 kcal/mol)

>  <smiles>  (9) 
CCN(C)CCNc1ccc(Oc2cccc(N(C)C)c2)c2c(C)ccnc12

>  <score_type>  (9) 
oracle

>  <origin>  (9) 
adg

>  <m_score__min__energy>  (9) 
-5.8799999999999999

>  <m_primary>  (9) 
energy

$$$$
9:0
     RDKit          3D

 85 88  0  0  0  0  0  0  0  0999 V2000
   59.0330   29.7630   48.7530 C   0  0  0  0  0  0  0  0  0  0  0  0
   58.8730   29.5740   50.2580 C   0  0  0  0  0  0  0  0  0  0  0  0
   57.8600   30.4240   50.7630 O   0  0  0  0  0  0  0  0  0  0  0  0
   57.6590   30.2300   52.1520 C   0  0  0  0  0  0  0  0  0  0  0  0
   57.0060   31.4630   52.7680 C   0  0  0  0  0  0  0  0  0  0  0  0
   57.1780   32.5690   51.9080 O   0  0  0  0  0  0  0  0  0  0  0  0
   58.0800   33.5030   52.4690 C   0  0  0  0  0  0  0  0  0  0  0  0
   59.2980   33.6820   51.5530 C   0  0  0  0  0  0  0  0  0  0  0  0
   59.3640   32.6080   50.5490 N   0  0  0  0  0  0  0  0  0  0  0  0
   60.3290   32.9410   49.5100 C   0  0  0  0  0  0  0  0  0  0  0  0
   59.8960   33.3750   48.2290 C   0  0  0  0  0  0  0  0  0  0  0  0
   58.5240   33.3950   47.8710 C   0  0  0  0  0  0  0  0  0  0  0  0
   58.1070   33.9060   46.6450 C   0  0  0  0  0  0  0  0  0  0  0  0
   59.0360   34.4110   45.7500 C   0  0  0  0  0  0  0  0  0  0  0  0
   60.3950   34.3630   46.0510 C   0  0  0  0  0  0  0  0  0  0  0  0
   60.8590   33.8000   47.2700 C   0  0  0  0  0  0  0  0  0  0  0  0
   62.2090   33.6720   47.5310 N   0  0  0  0  0  0  0  0  0  0  0  0
   63.1890   33.8190   46.4290 C   0  0  0  0  0  0  0  0  0  0  0  0
   62.6440   33.3440   48.7990 C   0  0  0  0  0  0  0  0  0  0  0  0
   64.0110   33.4660   49.1620 C   0  0  0  0  0  0  0  0  0  0  0  0
   64.4830   33.0150   50.4050 C   0  0  0  0  0  0  0  0  0  0  0  0
   65.8320   33.1060   50.7910 O   0  0  0  0  0  0  0  0  0  0  0  0
   66.3070   33.4380   52.0960 C   0  0  0  0  0  0  0  0  0  0  0  0
   67.6690   32.7450   52.3600 C   0  0  0  0  0  0  0  0  0  0  0  0
   67.6130   31.3870   53.0100 N   0  0  2  0  0  0  0  0  0  0  0  0
   67.4610   31.5420   54.4820 C   0  0  0  0  0  0  0  0  0  0  0  0
   68.9420   30.7420   52.7360 C   0  0  0  0  0  0  0  0  0  0  0  0
   69.2490   29.4150   53.4650 C   0  0  0  0  0  0  0  0  0  0  0  0
   68.6920   28.1160   52.8530 C   0  0  0  0  0  0  0  0  0  0  0  0
   67.3580   28.2220   52.1830 N   0  0  0  0  0  0  0  0  0  0  0  0
   67.5370   28.6930   50.7860 C   0  0  0  0  0  0  0  0  0  0  0  0
   66.7890   26.8500   52.1220 C   0  0  0  0  0  0  0  0  0  0  0  0
   66.3800   29.1190   52.8880 C   0  0  0  0  0  0  0  0  0  0  0  0
   66.4420   30.6090   52.4620 C   0  0  0  0  0  0  0  0  0  0  0  0
   63.5840   32.4540   51.3040 C   0  0  0  0  0  0  0  0  0  0  0  0
   62.2260   32.3900   51.0040 C   0  0  0  0  0  0  0  0  0  0  0  0
   61.7230   32.8870   49.7780 C   0  0  0  0  0  0  0  0  0  0  0  0
   59.7327   30.5895   48.5596 H   0  0  0  0  0  0  0  0  0  0  0  0
   59.4264   28.8376   48.3070 H   0  0  0  0  0  0  0  0  0  0  0  0
   58.0554   29.9982   48.3070 H   0  0  0  0  0  0  0  0  0  0  0  0
   58.6027   28.5278   50.4640 H   0  0  0  0  0  0  0  0  0  0  0  0
   59.8242   29.8258   50.7497 H   0  0  0  0  0  0  0  0  0  0  0  0
   57.0063   29.3581   52.3062 H   0  0  0  0  0  0  0  0  0  0  0  0
   58.6327   30.0610   52.6350 H   0  0  0  0  0  0  0  0  0  0  0  0
   55.9318   31.2749   52.9123 H   0  0  0  0  0  0  0  0  0  0  0  0
   57.4756   31.6786   53.7391 H   0  0  0  0  0  0  0  0  0  0  0  0
   57.5716   34.4709   52.5903 H   0  0  0  0  0  0  0  0  0  0  0  0
   58.4189   33.1307   53.4470 H   0  0  0  0  0  0  0  0  0  0  0  0
   59.2221   34.6514   51.0386 H   0  0  0  0  0  0  0  0  0  0  0  0
   60.2088   33.6432   52.1687 H   0  0  0  0  0  0  0  0  0  0  0  0
   58.4220   32.4260   50.1390 H   0  0  0  0  0  0  0  0  0  0  0  0
   59.5960   31.6990   51.0060 H   0  0  0  0  0  0  0  0  0  0  0  0
   57.7762   32.9999   48.5743 H   0  0  0  0  0  0  0  0  0  0  0  0
   57.0378   33.9088   46.3865 H   0  0  0  0  0  0  0  0  0  0  0  0
   58.6996   34.8509   44.7995 H   0  0  0  0  0  0  0  0  0  0  0  0
   61.1221   34.7683   45.3319 H   0  0  0  0  0  0  0  0  0  0  0  0
   64.1941   33.9698   46.8498 H   0  0  0  0  0  0  0  0  0  0  0  0
   63.1834   32.9100   45.8096 H   0  0  0  0  0  0  0  0  0  0  0  0
   62.9169   34.6864   45.8096 H   0  0  0  0  0  0  0  0  0  0  0  0
   64.7165   33.9243   48.4533 H   0  0  0  0  0  0  0  0  0  0  0  0
   66.4330   34.5282   52.1708 H   0  0  0  0  0  0  0  0  0  0  0  0
   65.5770   33.0933   52.8432 H   0  0  0  0  0  0  0  0  0  0  0  0
   68.1807   32.6326   51.3928 H   0  0  0  0  0  0  0  0  0  0  0  0
   68.1926   33.3924   53.0788 H   0  0  0  0  0  0  0  0  0  0  0  0
   68.1419   30.8477   54.9961 H   0  0  0  0  0  0  0  0  0  0  0  0
   67.7056   32.5753   54.7691 H   0  0  0  0  0  0  0  0  0  0  0  0
   66.4231   31.3176   54.7691 H   0  0  0  0  0  0  0  0  0  0  0  0
   68.9975   30.5457   51.6551 H   0  0  0  0  0  0  0  0  0  0  0  0
   69.6865   31.4545   53.1208 H   0  0  0  0  0  0  0  0  0  0  0  0
   70.3431   29.3124   53.5135 H   0  0  0  0  0  0  0  0  0  0  0  0
   68.7384   29.5063   54.4350 H   0  0  0  0  0  0  0  0  0  0  0  0
   69.4160   27.7595   52.1055 H   0  0  0  0  0  0  0  0  0  0  0  0
   68.5429   27.4308   53.7005 H   0  0  0  0  0  0  0  0  0  0  0  0
   67.9278   29.7212   50.7930 H   0  0  0  0  0  0  0  0  0  0  0  0
   68.2475   28.0343   50.2651 H   0  0  0  0  0  0  0  0  0  0  0  0
   66.5684   28.6724   50.2651 H   0  0  0  0  0  0  0  0  0  0  0  0
   66.6324   26.4723   53.1432 H   0  0  0  0  0  0  0  0  0  0  0  0
   65.8272   26.8753   51.5888 H   0  0  0  0  0  0  0  0  0  0  0  0
   67.4864   26.1872   51.5888 H   0  0  0  0  0  0  0  0  0  0  0  0
   65.3653   28.7465   52.6841 H   0  0  0  0  0  0  0  0  0  0  0  0
   66.6460   29.0901   53.9550 H   0  0  0  0  0  0  0  0  0  0  0  0
   66.4926   30.6469   51.3638 H   0  0  0  0  0  0  0  0  0  0  0  0
   65.5403   31.0825   52.8777 H   0  0  0  0  0  0  0  0  0  0  0  0
   63.9491   32.0564   52.2625 H   0  0  0  0  0  0  0  0  0  0  0  0
   61.5319   31.9454   51.7325 H   0  0  0  0  0  0  0  0  0  0  0  0
  1  2  1  0
  2  3  1  0
  3  4  1  0
  4  5  1  0
  5  6  1  0
  6  7  1  0
  7  8  1  0
  8  9  1  0
  9 10  1  0
 10 11  2  0
 11 12  1  0
 12 13  2  0
 13 14  1  0
 14 15  2  0
 15 16  1  0
 16 17  2  0
 17 18  1  0
 17 19  1  0
 19 20  2  0
 20 21  1  0
 21 22  1  0
 22 23  1  0
 23 24  1  0
 25 24  1  6
 25 26  1  0
 25 27  1  0
 27 28  1  0
 28 29  1  0
 29 30  1  0
 30 31  1  0
 30 32  1  0
 30 33  1  0
 33 34  1  0
 21 35  2  0
 35 36  1  0
 36 37  2  0
 37 10  1  0
 16 11  1  0
 37 19  1  0
 34 25  1  0
  1 38  1  0
  1 39  1  0
  1 40  1  0
  2 41  1  0
  2 42  1  0
  4 43  1  0
  4 44  1  0
  5 45  1  0
  5 46  1  0
  7 47  1  0
  7 48  1  0
  8 49  1  0
  8 50  1  0
  9 51  1  0
  9 52  1  0
 12 53  1  0
 13 54  1  0
 14 55  1  0
 15 56  1  0
 18 57  1  0
 18 58  1  0
 18 59  1  0
 20 60  1  0
 23 61  1  0
 23 62  1  0
 24 63  1  0
 24 64  1  0
 26 65  1  0
 26 66  1  0
 26 67  1  0
 27 68  1  0
 27 69  1  0
 28 70  1  0
 28 71  1  0
 29 72  1  0
 29 73  1  0
 31 74  1  0
 31 75  1  0
 31 76  1  0
 32 77  1  0
 32 78  1  0
 32 79  1  0
 33 80  1  0
 33 81  1  0
 34 82  1  0
 34 83  1  0
 35 84  1  0
 36 85  1  0
M  CHG  4   9   1  17   1  25   1  30   1
M  END
>  <UniqueID>  (10) 
10

>  <SMILES>  (10) 
CCOCCOCC[NH2+]c1c2ccccc2[n+](C)c2cc(OCC[N@+]3(C)CCC[N+](C)(C)CC3)ccc12

>  <Energy>  (10) 
153.75612905722537

>  <Genealogy>  (10) 
CCOCCOCC[NH2+]c1c2ccccc2[n+](C)c2cc(OCC[N+]3(C)CCC[N+](C)(C)CC3)ccc12 (protonated)
CCOCCOCC[NH2+]c1c2ccccc2[n+](C)c2cc(OCC[N@+]3(C)CCC[N+](C)(C)CC3)ccc12 (chirality)
CCOCCOCC[NH2+]c1c2ccccc2[n+](C)c2cc(OCC[N@+]3(C)CCC[N+](C)(C)CC3)ccc12 (3D coordinates assigned)
CCOCCOCC[NH2+]c1c2ccccc2[n+](C)c2cc(OCC[N@+]3(C)CCC[N+](C)(C)CC3)ccc12 (nonaromatic ring conformer: 153.75612905722537 kcal/mol)

>  <smiles>  (10) 
CCOCCOCCNc1c2ccccc2[n+](C)c2cc(OCC[N+]3(C)CCC[N+](C)(C)CC3)ccc12

>  <score_type>  (10) 
oracle

>  <origin>  (10) 
adg

>  <m_score__min__energy>  (10) 
-0.56000000000000005

>  <m_primary>  (10) 
energy

$$$$
10:0
     RDKit          3D

 43 44  0  0  0  0  0  0  0  0999 V2000
   60.3190   34.5600   46.4280 C   0  0  0  0  0  0  0  0  0  0  0  0
   59.0560   34.5840   46.8630 C   0  0  0  0  0  0  0  0  0  0  0  0
   58.2990   33.3160   47.1450 C   0  0  0  0  0  0  0  0  0  0  0  0
   57.5430   32.8820   45.9510 N   0  0  0  0  0  0  0  0  0  0  0  0
   57.0720   34.0610   45.2030 C   0  0  0  0  0  0  0  0  0  0  0  0
   58.3750   32.0160   45.0860 C   0  0  0  0  0  0  0  0  0  0  0  0
   58.4620   30.6110   45.6590 C   0  0  0  0  0  0  0  0  0  0  0  0
   59.5720   30.1700   46.4220 C   0  0  0  0  0  0  0  0  0  0  0  0
   60.7280   31.0870   46.7370 C   0  0  0  0  0  0  0  0  0  0  0  0
   59.6020   28.8910   46.9010 N   0  0  0  0  0  0  0  0  0  0  0  0
   58.5940   28.0050   46.6680 C   0  0  0  0  0  0  0  0  0  0  0  0
   58.6690   26.7010   47.1780 C   0  0  0  0  0  0  0  0  0  0  0  0
   57.6390   25.7890   46.9410 C   0  0  0  0  0  0  0  0  0  0  0  0
   56.5190   26.1570   46.1910 C   0  0  0  0  0  0  0  0  0  0  0  0
   55.5170   25.1930   45.9880 O   0  0  0  0  0  0  0  0  0  0  0  0
   55.4520   24.2750   44.8950 C   0  0  0  0  0  0  0  0  0  0  0  0
   56.7190   24.3500   44.0500 C   0  0  0  0  0  0  0  0  0  0  0  0
   56.4340   27.4670   45.6800 C   0  0  0  0  0  0  0  0  0  0  0  0
   57.4680   28.3950   45.9120 C   0  0  0  0  0  0  0  0  0  0  0  0
   57.4090   29.7070   45.4110 C   0  0  0  0  0  0  0  0  0  0  0  0
   56.4090   30.0800   44.7360 O   0  0  0  0  0  0  0  0  0  0  0  0
   60.8502   35.5025   46.2292 H   0  0  0  0  0  0  0  0  0  0  0  0
   60.8276   33.5978   46.2686 H   0  0  0  0  0  0  0  0  0  0  0  0
   58.5590   35.5529   47.0183 H   0  0  0  0  0  0  0  0  0  0  0  0
   59.0103   32.5263   47.4287 H   0  0  0  0  0  0  0  0  0  0  0  0
   57.5892   33.5028   47.9643 H   0  0  0  0  0  0  0  0  0  0  0  0
   56.7595   34.8432   45.9104 H   0  0  0  0  0  0  0  0  0  0  0  0
   57.8865   34.4431   44.5701 H   0  0  0  0  0  0  0  0  0  0  0  0
   56.2184   33.7767   44.5701 H   0  0  0  0  0  0  0  0  0  0  0  0
   57.9265   31.9698   44.0826 H   0  0  0  0  0  0  0  0  0  0  0  0
   59.3887   32.4395   45.0312 H   0  0  0  0  0  0  0  0  0  0  0  0
   60.8393   31.1753   47.8278 H   0  0  0  0  0  0  0  0  0  0  0  0
   61.6519   30.6735   46.3064 H   0  0  0  0  0  0  0  0  0  0  0  0
   60.5356   32.0808   46.3064 H   0  0  0  0  0  0  0  0  0  0  0  0
   60.4240   28.5800   47.4660 H   0  0  0  0  0  0  0  0  0  0  0  0
   59.5450   26.3947   47.7686 H   0  0  0  0  0  0  0  0  0  0  0  0
   57.7099   24.7699   47.3490 H   0  0  0  0  0  0  0  0  0  0  0  0
   55.3403   23.2536   45.2878 H   0  0  0  0  0  0  0  0  0  0  0  0
   54.5906   24.5383   44.2636 H   0  0  0  0  0  0  0  0  0  0  0  0
   57.5974   24.4020   44.7101 H   0  0  0  0  0  0  0  0  0  0  0  0
   56.7899   23.4545   43.4152 H   0  0  0  0  0  0  0  0  0  0  0  0
   56.6837   25.2476   43.4152 H   0  0  0  0  0  0  0  0  0  0  0  0
   55.5525   27.7678   45.0947 H   0  0  0  0  0  0  0  0  0  0  0  0
  1  2  2  0
  2  3  1  0
  3  4  1  0
  4  5  1  0
  4  6  1  0
  6  7  1  0
  7  8  2  0
  8  9  1  0
  8 10  1  0
 10 11  1  0
 11 12  2  0
 12 13  1  0
 13 14  2  0
 14 15  1  0
 15 16  1  0
 16 17  1  0
 14 18  1  0
 18 19  2  0
 19 20  1  0
 20 21  2  0
 20  7  1  0
 19 11  1  0
  1 22  1  0
  1 23  1  0
  2 24  1  0
  3 25  1  0
  3 26  1  0
  5 27  1  0
  5 28  1  0
  5 29  1  0
  6 30  1  0
  6 31  1  0
  9 32  1  0
  9 33  1  0
  9 34  1  0
 10 35  1  0
 12 36  1  0
 13 37  1  0
 16 38  1  0
 16 39  1  0
 17 40  1  0
 17 41  1  0
 17 42  1  0
 18 43  1  0
M  END
>  <UniqueID>  (11) 
11

>  <SMILES>  (11) 
C=CCN(C)Cc1c(C)[nH]c2ccc(OCC)cc2c1=O

>  <Energy>  (11) 
45.200623636454196

>  <Genealogy>  (11) 
C=CCN(C)Cc1c(C)[nH]c2ccc(OCC)cc2c1=O (3D coordinates assigned)
C=CCN(C)Cc1c(C)[nH]c2ccc(OCC)cc2c1=O (optimized conformer: 45.200623636454196 kcal/mol)

>  <smiles>  (11) 
C=CCN(C)Cc1c(C)[nH]c2ccc(OCC)cc2c1=O

>  <score_type>  (11) 
oracle

>  <origin>  (11) 
adg

>  <m_score__min__energy>  (11) 
-6.5599999999999996

>  <m_primary>  (11) 
energy

$$$$
11:0
     RDKit          3D

 32 33  0  0  0  0  0  0  0  0999 V2000
   54.5850   24.4780   45.3860 C   0  0  0  0  0  0  0  0  0  0  0  0
   55.6380   25.3890   45.9980 C   0  0  0  0  0  0  0  0  0  0  0  0
   55.1640   26.7130   45.9980 O   0  0  0  0  0  0  0  0  0  0  0  0
   56.2570   27.5100   45.8790 N   0  0  0  0  0  0  0  0  0  0  0  0
   56.2870   28.5980   44.9520 C   0  0  0  0  0  0  0  0  0  0  0  0
   55.3810   29.4740   44.9750 O   0  0  0  0  0  0  0  0  0  0  0  0
   57.3650   28.6650   43.9180 C   0  0  0  0  0  0  0  0  0  0  0  0
   58.7390   28.7580   44.5820 C   0  0  0  0  0  0  0  0  0  0  0  0
   58.7530   29.8440   45.5610 N   0  0  0  0  0  0  0  0  0  0  0  0
   58.9860   29.7350   46.8930 C   0  0  0  0  0  0  0  0  0  0  0  0
   58.8540   30.9190   47.5380 N   0  0  0  0  0  0  0  0  0  0  0  0
   58.5150   31.7900   46.5730 C   0  0  0  0  0  0  0  0  0  0  0  0
   58.2350   33.1500   46.6960 C   0  0  0  0  0  0  0  0  0  0  0  0
   57.8750   33.8490   45.5290 C   0  0  0  0  0  0  0  0  0  0  0  0
   57.8000   33.1800   44.2860 C   0  0  0  0  0  0  0  0  0  0  0  0
   58.0860   31.8030   44.1970 C   0  0  0  0  0  0  0  0  0  0  0  0
   58.4460   31.1420   45.3730 C   0  0  0  0  0  0  0  0  0  0  0  0
   54.0156   23.9853   46.1879 H   0  0  0  0  0  0  0  0  0  0  0  0
   53.9013   25.0741   44.7637 H   0  0  0  0  0  0  0  0  0  0  0  0
   55.0766   23.7157   44.7637 H   0  0  0  0  0  0  0  0  0  0  0  0
   55.8425   25.0719   47.0313 H   0  0  0  0  0  0  0  0  0  0  0  0
   56.5646   25.3294   45.4082 H   0  0  0  0  0  0  0  0  0  0  0  0
   57.3250   27.7599   43.2942 H   0  0  0  0  0  0  0  0  0  0  0  0
   57.2082   29.5601   43.2981 H   0  0  0  0  0  0  0  0  0  0  0  0
   58.9625   27.8081   45.0896 H   0  0  0  0  0  0  0  0  0  0  0  0
   59.4978   28.9590   43.8114 H   0  0  0  0  0  0  0  0  0  0  0  0
   59.2520   28.7919   47.3928 H   0  0  0  0  0  0  0  0  0  0  0  0
   58.9730   31.1060   48.5590 H   0  0  0  0  0  0  0  0  0  0  0  0
   58.2933   33.6582   47.6698 H   0  0  0  0  0  0  0  0  0  0  0  0
   57.6502   34.9244   45.5844 H   0  0  0  0  0  0  0  0  0  0  0  0
   57.5163   33.7383   43.3817 H   0  0  0  0  0  0  0  0  0  0  0  0
   58.0278   31.2690   43.2371 H   0  0  0  0  0  0  0  0  0  0  0  0
  1  2  1  0
  2  3  1  0
  3  4  1  0
  4  5  1  0
  5  6  2  0
  5  7  1  0
  7  8  1  0
  8  9  1  0
  9 10  1  0
 10 11  2  0
 11 12  1  0
 12 13  2  0
 13 14  1  0
 14 15  2  0
 15 16  1  0
 16 17  2  0
 17  9  1  0
 17 12  1  0
  1 18  1  0
  1 19  1  0
  1 20  1  0
  2 21  1  0
  2 22  1  0
  7 23  1  0
  7 24  1  0
  8 25  1  0
  8 26  1  0
 10 27  1  0
 11 28  1  0
 13 29  1  0
 14 30  1  0
 15 31  1  0
 16 32  1  0
M  CHG  2   4  -1  11   1
M  END
>  <UniqueID>  (12) 
12

>  <SMILES>  (12) 
CCO[N-]C(=O)CCn1c[nH+]c2ccccc21

>  <Energy>  (12) 
61.360751651485415

>  <Genealogy>  (12) 
CCO[N-]C(=O)CCn1c[nH+]c2ccccc21 (protonated)
CCO[N-]C(=O)CCn1c[nH+]c2ccccc21 (3D coordinates assigned)
CCO[N-]C(=O)CCn1c[nH+]c2ccccc21 (optimized conformer: 61.360751651485415 kcal/mol)

>  <smiles>  (12) 
CCONC(=O)CCn1cnc2ccccc21

>  <score_type>  (12) 
oracle

>  <origin>  (12) 
adg

>  <m_score__min__energy>  (12) 
-7.25

>  <m_primary>  (12) 
energy

$$$$
12:0
     RDKit          3D

 47 49  0  0  0  0  0  0  0  0999 V2000
   63.4350   33.4300   46.7110 C   0  0  0  0  0  0  0  0  0  0  0  0
   61.9650   33.0310   46.7470 C   0  0  0  0  0  0  0  0  0  0  0  0
   61.2700   33.7510   47.8170 N   0  0  0  0  0  0  0  0  0  0  0  0
   61.3070   33.5180   49.1510 C   0  0  0  0  0  0  0  0  0  0  0  0
   62.2370   32.6030   49.8280 C   0  0  0  0  0  0  0  0  0  0  0  0
   63.4000   32.9680   50.4710 C   0  0  0  0  0  0  0  0  0  0  0  0
   63.9720   31.7900   50.9090 C   0  0  0  0  0  0  0  0  0  0  0  0
   63.2280   30.7700   50.5410 O   0  0  0  0  0  0  0  0  0  0  0  0
   62.1870   31.2200   49.8780 C   0  0  0  0  0  0  0  0  0  0  0  0
   61.1600   30.3290   49.2580 C   0  0  0  0  0  0  0  0  0  0  0  0
   60.3500   34.2080   49.8050 N   0  0  0  0  0  0  0  0  0  0  0  0
   59.7010   34.8990   48.8840 N   0  0  0  0  0  0  0  0  0  0  0  0
   60.2490   34.6200   47.6890 C   0  0  0  0  0  0  0  0  0  0  0  0
   59.6680   35.3190   46.1390 S   0  0  0  0  0  0  0  0  0  0  0  0
   58.2350   34.1920   45.9720 C   0  0  0  0  0  0  0  0  0  0  0  0
   57.9510   33.8440   44.5010 C   0  0  0  0  0  0  0  0  0  0  0  0
   58.4310   32.5330   44.1910 O   0  0  0  0  0  0  0  0  0  0  0  0
   57.7740   31.3370   44.5130 C   0  0  0  0  0  0  0  0  0  0  0  0
   56.6480   30.8790   43.8080 C   0  0  0  0  0  0  0  0  0  0  0  0
   56.0310   29.6780   44.1670 C   0  0  0  0  0  0  0  0  0  0  0  0
   56.5320   28.9120   45.2360 C   0  0  0  0  0  0  0  0  0  0  0  0
   55.9530   27.6930   45.6210 O   0  0  0  0  0  0  0  0  0  0  0  0
   56.6930   26.5420   46.0090 C   0  0  0  0  0  0  0  0  0  0  0  0
   57.6480   29.3760   45.9400 C   0  0  0  0  0  0  0  0  0  0  0  0
   58.2570   30.5840   45.5880 C   0  0  0  0  0  0  0  0  0  0  0  0
   63.8124   33.5324   47.7391 H   0  0  0  0  0  0  0  0  0  0  0  0
   64.0122   32.6560   46.1839 H   0  0  0  0  0  0  0  0  0  0  0  0
   63.5417   34.3896   46.1839 H   0  0  0  0  0  0  0  0  0  0  0  0
   61.4984   33.2765   45.7816 H   0  0  0  0  0  0  0  0  0  0  0  0
   61.8917   31.9499   46.9362 H   0  0  0  0  0  0  0  0  0  0  0  0
   63.7916   33.9869   50.6071 H   0  0  0  0  0  0  0  0  0  0  0  0
   64.9093   31.7159   51.4800 H   0  0  0  0  0  0  0  0  0  0  0  0
   60.5830   29.8284   50.0495 H   0  0  0  0  0  0  0  0  0  0  0  0
   60.4819   30.9298   48.6341 H   0  0  0  0  0  0  0  0  0  0  0  0
   61.6591   29.5729   48.6341 H   0  0  0  0  0  0  0  0  0  0  0  0
   58.8790   35.5130   49.0710 H   0  0  0  0  0  0  0  0  0  0  0  0
   58.4458   33.2637   46.5233 H   0  0  0  0  0  0  0  0  0  0  0  0
   57.3497   34.7015   46.3801 H   0  0  0  0  0  0  0  0  0  0  0  0
   56.8661   33.8829   44.3235 H   0  0  0  0  0  0  0  0  0  0  0  0
   58.4686   34.5717   43.8587 H   0  0  0  0  0  0  0  0  0  0  0  0
   56.2503   31.4691   42.9692 H   0  0  0  0  0  0  0  0  0  0  0  0
   55.1484   29.3291   43.6108 H   0  0  0  0  0  0  0  0  0  0  0  0
   56.7308   26.4833   47.1068 H   0  0  0  0  0  0  0  0  0  0  0  0
   56.2048   25.6406   45.6101 H   0  0  0  0  0  0  0  0  0  0  0  0
   57.7158   26.6120   45.6101 H   0  0  0  0  0  0  0  0  0  0  0  0
   58.0495   28.7859   46.7770 H   0  0  0  0  0  0  0  0  0  0  0  0
   59.1234   30.9454   46.1614 H   0  0  0  0  0  0  0  0  0  0  0  0
  1  2  1  0
  2  3  1  0
  3  4  1  0
  4  5  1  0
  5  6  1  0
  6  7  2  0
  7  8  1  0
  8  9  1  0
  9 10  1  0
  4 11  2  0
 11 12  1  0
 12 13  2  0
 13 14  1  0
 14 15  1  0
 15 16  1  0
 16 17  1  0
 17 18  1  0
 18 19  2  0
 19 20  1  0
 20 21  2  0
 21 22  1  0
 22 23  1  0
 21 24  1  0
 24 25  2  0
 13  3  1  0
 25 18  1  0
  9  5  2  0
  1 26  1  0
  1 27  1  0
  1 28  1  0
  2 29  1  0
  2 30  1  0
  6 31  1  0
  7 32  1  0
 10 33  1  0
 10 34  1  0
 10 35  1  0
 12 36  1  0
 15 37  1  0
 15 38  1  0
 16 39  1  0
 16 40  1  0
 19 41  1  0
 20 42  1  0
 23 43  1  0
 23 44  1  0
 23 45  1  0
 24 46  1  0
 25 47  1  0
M  CHG  1  12   1
M  END
>  <UniqueID>  (13) 
13

>  <SMILES>  (13) 
CCn1c(-c2ccoc2C)n[nH+]c1SCCOc1ccc(OC)cc1

>  <Energy>  (13) 
110.59458021812418

>  <Genealogy>  (13) 
CCn1c(-c2ccoc2C)n[nH+]c1SCCOc1ccc(OC)cc1 (protonated)
CCn1c(-c2ccoc2C)n[nH+]c1SCCOc1ccc(OC)cc1 (3D coordinates assigned)
CCn1c(-c2ccoc2C)n[nH+]c1SCCOc1ccc(OC)cc1 (optimized conformer: 110.59458021812418 kcal/mol)

>  <smiles>  (13) 
CCn1c(SCCOc2ccc(OC)cc2)nnc1-c1ccoc1C

>  <score_type>  (13) 
oracle

>  <origin>  (13) 
adg

>  <m_score__min__energy>  (13) 
-5.7599999999999998

>  <m_primary>  (13) 
energy

$$$$
13:0
     RDKit          3D

 64 66  0  0  0  0  0  0  0  0999 V2000
   63.8760   33.0830   48.6830 C   0  0  0  0  0  0  0  0  0  0  0  0
   63.4640   32.7310   47.2560 C   0  0  0  0  0  0  0  0  0  0  0  0
   62.0550   32.7990   47.1150 O   0  0  0  0  0  0  0  0  0  0  0  0
   61.6610   33.9540   46.3910 C   0  0  0  0  0  0  0  0  0  0  0  0
   60.4750   34.6280   47.0770 C   0  0  0  0  0  0  0  0  0  0  0  0
   59.3430   33.7910   46.9900 O   0  0  0  0  0  0  0  0  0  0  0  0
   58.6480   34.0490   45.7880 C   0  0  0  0  0  0  0  0  0  0  0  0
   57.4100   33.1520   45.7100 C   0  0  0  0  0  0  0  0  0  0  0  0
   57.7940   31.6700   45.5790 C   0  0  0  0  0  0  0  0  0  0  0  0
   56.6610   30.8500   45.1250 N   0  0  0  0  0  0  0  0  0  0  0  0
   56.9680   30.1100   43.8840 C   0  0  0  0  0  0  0  0  0  0  0  0
   57.0220   28.5940   44.1260 C   0  0  0  0  0  0  0  0  0  0  0  0
   56.1660   28.1900   45.2560 N   0  0  0  0  0  0  0  0  0  0  0  0
   56.6120   26.9460   45.9140 C   0  0  0  0  0  0  0  0  0  0  0  0
   57.9020   26.4240   45.2700 C   0  0  0  0  0  0  0  0  0  0  0  0
   59.0740   26.6840   46.1090 N   0  0  0  0  0  0  0  0  0  0  0  0
   59.3550   27.9720   46.6870 C   0  0  0  0  0  0  0  0  0  0  0  0
   60.1990   28.9020   46.0470 C   0  0  0  0  0  0  0  0  0  0  0  0
   60.4470   30.1510   46.6230 C   0  0  0  0  0  0  0  0  0  0  0  0
   59.8550   30.4950   47.8440 C   0  0  0  0  0  0  0  0  0  0  0  0
   60.0840   31.7110   48.4170 N   0  0  0  0  0  0  0  0  0  0  0  0
   59.5090   32.0410   49.6100 C   0  0  0  0  0  0  0  0  0  0  0  0
   59.7450   33.2890   50.2040 C   0  0  0  0  0  0  0  0  0  0  0  0
   59.1510   33.6030   51.4310 C   0  0  0  0  0  0  0  0  0  0  0  0
   58.3190   32.6750   52.0690 C   0  0  0  0  0  0  0  0  0  0  0  0
   58.0740   31.4310   51.4810 C   0  0  0  0  0  0  0  0  0  0  0  0
   58.6670   31.1080   50.2550 C   0  0  0  0  0  0  0  0  0  0  0  0
   58.4410   29.8980   49.6800 N   0  0  0  0  0  0  0  0  0  0  0  0
   59.0120   29.5670   48.4940 C   0  0  0  0  0  0  0  0  0  0  0  0
   58.7700   28.3140   47.9180 C   0  0  0  0  0  0  0  0  0  0  0  0
   63.2378   32.5378   49.3940 H   0  0  0  0  0  0  0  0  0  0  0  0
   64.9269   32.7996   48.8417 H   0  0  0  0  0  0  0  0  0  0  0  0
   63.7601   34.1653   48.8417 H   0  0  0  0  0  0  0  0  0  0  0  0
   63.9323   33.4410   46.5584 H   0  0  0  0  0  0  0  0  0  0  0  0
   63.7948   31.7060   47.0327 H   0  0  0  0  0  0  0  0  0  0  0  0
   62.5037   34.6596   46.3461 H   0  0  0  0  0  0  0  0  0  0  0  0
   61.3654   33.6564   45.3741 H   0  0  0  0  0  0  0  0  0  0  0  0
   60.7173   34.8081   48.1348 H   0  0  0  0  0  0  0  0  0  0  0  0
   60.2611   35.5863   46.5812 H   0  0  0  0  0  0  0  0  0  0  0  0
   58.3381   35.1042   45.7632 H   0  0  0  0  0  0  0  0  0  0  0  0
   59.3065   33.8393   44.9322 H   0  0  0  0  0  0  0  0  0  0  0  0
   56.8131   33.2868   46.6240 H   0  0  0  0  0  0  0  0  0  0  0  0
   56.8326   33.4384   44.8186 H   0  0  0  0  0  0  0  0  0  0  0  0
   58.6142   31.5777   44.8518 H   0  0  0  0  0  0  0  0  0  0  0  0
   58.1022   31.3079   46.5709 H   0  0  0  0  0  0  0  0  0  0  0  0
   56.4570   30.1760   45.8990 H   0  0  0  0  0  0  0  0  0  0  0  0
   56.1880   30.3246   43.1386 H   0  0  0  0  0  0  0  0  0  0  0  0
   57.9556   30.4358   43.5255 H   0  0  0  0  0  0  0  0  0  0  0  0
   56.6808   28.0759   43.2176 H   0  0  0  0  0  0  0  0  0  0  0  0
   58.0600   28.3229   44.3689 H   0  0  0  0  0  0  0  0  0  0  0  0
   55.2040   28.0280   44.8740 H   0  0  0  0  0  0  0  0  0  0  0  0
   56.7963   27.1473   46.9796 H   0  0  0  0  0  0  0  0  0  0  0  0
   55.8266   26.1844   45.7995 H   0  0  0  0  0  0  0  0  0  0  0  0
   57.8087   25.3389   45.1154 H   0  0  0  0  0  0  0  0  0  0  0  0
   58.0432   26.9495   44.3140 H   0  0  0  0  0  0  0  0  0  0  0  0
   59.7220   25.8940   46.3260 H   0  0  0  0  0  0  0  0  0  0  0  0
   60.6666   28.6424   45.0857 H   0  0  0  0  0  0  0  0  0  0  0  0
   61.1101   30.8666   46.1148 H   0  0  0  0  0  0  0  0  0  0  0  0
   60.7100   32.3990   47.9370 H   0  0  0  0  0  0  0  0  0  0  0  0
   60.3971   34.0211   49.7052 H   0  0  0  0  0  0  0  0  0  0  0  0
   59.3382   34.5821   51.8961 H   0  0  0  0  0  0  0  0  0  0  0  0
   57.8571   32.9256   53.0353 H   0  0  0  0  0  0  0  0  0  0  0  0
   57.4154   30.7060   51.9816 H   0  0  0  0  0  0  0  0  0  0  0  0
   58.1178   27.5928   48.4323 H   0  0  0  0  0  0  0  0  0  0  0  0
  1  2  1  0
  2  3  1  0
  3  4  1  0
  4  5  1  0
  5  6  1  0
  6  7  1  0
  7  8  1  0
  8  9  1  0
  9 10  1  0
 10 11  1  0
 11 12  1  0
 12 13  1  0
 13 14  1  0
 14 15  1  0
 15 16  1  0
 16 17  1  0
 17 18  2  0
 18 19  1  0
 19 20  2  0
 20 21  1  0
 21 22  2  0
 22 23  1  0
 23 24  2  0
 24 25  1  0
 25 26  2  0
 26 27  1  0
 27 28  2  0
 28 29  1  0
 29 30  2  0
 30 17  1  0
 29 20  1  0
 27 22  1  0
  1 31  1  0
  1 32  1  0
  1 33  1  0
  2 34  1  0
  2 35  1  0
  4 36  1  0
  4 37  1  0
  5 38  1  0
  5 39  1  0
  7 40  1  0
  7 41  1  0
  8 42  1  0
  8 43  1  0
  9 44  1  0
  9 45  1  0
 10 46  1  0
 11 47  1  0
 11 48  1  0
 12 49  1  0
 12 50  1  0
 13 51  1  0
 14 52  1  0
 14 53  1  0
 15 54  1  0
 15 55  1  0
 16 56  1  0
 18 57  1  0
 19 58  1  0
 21 59  1  0
 23 60  1  0
 24 61  1  0
 25 62  1  0
 26 63  1  0
 30 64  1  0
M  CHG  1  21   1
M  END
>  <UniqueID>  (14) 
14

>  <SMILES>  (14) 
CCOCCOCCCNCCNCCNc1ccc2[nH+]c3ccccc3nc2c1

>  <Energy>  (14) 
62.802516461510635

>  <Genealogy>  (14) 
CCOCCOCCCNCCNCCNc1ccc2[nH+]c3ccccc3nc2c1 (protonated)
CCOCCOCCCNCCNCCNc1ccc2[nH+]c3ccccc3nc2c1 (3D coordinates assigned)
CCOCCOCCCNCCNCCNc1ccc2[nH+]c3ccccc3nc2c1 (optimized conformer: 62.802516461510635 kcal/mol)

>  <smiles>  (14) 
CCOCCOCCCNCCNCCNc1ccc2nc3ccccc3nc2c1

>  <score_type>  (14) 
oracle

>  <origin>  (14) 
adg

>  <m_score__min__energy>  (14) 
-7.0300000000000002

>  <m_primary>  (14) 
energy

$$$$
14:0
     RDKit          3D

 35 36  0  0  0  0  0  0  0  0999 V2000
   59.4960   34.9470   45.5880 C   0  0  0  0  0  0  0  0  0  0  0  0
   58.4180   34.5930   44.8850 C   0  0  0  0  0  0  0  0  0  0  0  0
   57.3880   33.6430   45.4330 C   0  0  0  0  0  0  0  0  0  0  0  0
   58.0100   32.3510   45.8000 N   0  0  0  0  0  0  0  0  0  0  0  0
   58.2670   31.3800   44.8550 C   0  0  0  0  0  0  0  0  0  0  0  0
   57.7900   31.5520   43.1240 S   0  0  0  0  0  0  0  0  0  0  0  0
   56.6860   30.0940   43.1130 C   0  0  0  0  0  0  0  0  0  0  0  0
   55.5750   30.2220   44.1570 C   0  0  0  0  0  0  0  0  0  0  0  0
   55.4370   29.0090   44.8730 O   0  0  0  0  0  0  0  0  0  0  0  0
   56.6970   28.4020   45.0590 C   0  0  0  0  0  0  0  0  0  0  0  0
   58.9050   30.2360   45.2080 N   0  0  0  0  0  0  0  0  0  0  0  0
   59.2890   29.9950   46.4830 C   0  0  0  0  0  0  0  0  0  0  0  0
   59.9380   28.7980   46.8060 C   0  0  0  0  0  0  0  0  0  0  0  0
   60.3300   28.5480   48.1240 C   0  0  0  0  0  0  0  0  0  0  0  0
   60.0770   29.4930   49.1210 C   0  0  0  0  0  0  0  0  0  0  0  0
   59.4300   30.6920   48.8050 C   0  0  0  0  0  0  0  0  0  0  0  0
   59.0310   30.9520   47.4800 C   0  0  0  0  0  0  0  0  0  0  0  0
   58.3840   32.1410   47.1080 C   0  0  0  0  0  0  0  0  0  0  0  0
   58.1530   33.0230   47.9820 O   0  0  0  0  0  0  0  0  0  0  0  0
   60.2294   35.6441   45.1566 H   0  0  0  0  0  0  0  0  0  0  0  0
   59.6510   34.5416   46.5988 H   0  0  0  0  0  0  0  0  0  0  0  0
   58.2786   35.0078   43.8758 H   0  0  0  0  0  0  0  0  0  0  0  0
   56.9258   34.0879   46.3266 H   0  0  0  0  0  0  0  0  0  0  0  0
   56.6272   33.4619   44.6595 H   0  0  0  0  0  0  0  0  0  0  0  0
   56.2303   29.9986   42.1164 H   0  0  0  0  0  0  0  0  0  0  0  0
   57.2867   29.2053   43.3565 H   0  0  0  0  0  0  0  0  0  0  0  0
   55.8263   31.0315   44.8581 H   0  0  0  0  0  0  0  0  0  0  0  0
   54.6269   30.4485   43.6473 H   0  0  0  0  0  0  0  0  0  0  0  0
   56.9013   28.3036   46.1354 H   0  0  0  0  0  0  0  0  0  0  0  0
   56.6962   27.4054   44.5933 H   0  0  0  0  0  0  0  0  0  0  0  0
   57.4758   29.0237   44.5933 H   0  0  0  0  0  0  0  0  0  0  0  0
   60.1398   28.0533   46.0220 H   0  0  0  0  0  0  0  0  0  0  0  0
   60.8384   27.6058   48.3765 H   0  0  0  0  0  0  0  0  0  0  0  0
   60.3874   29.2937   50.1573 H   0  0  0  0  0  0  0  0  0  0  0  0
   59.2325   31.4334   49.5932 H   0  0  0  0  0  0  0  0  0  0  0  0
  1  2  2  0
  2  3  1  0
  3  4  1  0
  4  5  1  0
  5  6  1  0
  6  7  1  0
  7  8  1  0
  8  9  1  0
  9 10  1  0
  5 11  2  0
 11 12  1  0
 12 13  2  0
 13 14  1  0
 14 15  2  0
 15 16  1  0
 16 17  2  0
 17 18  1  0
 18 19  2  0
 18  4  1  0
 17 12  1  0
  1 20  1  0
  1 21  1  0
  2 22  1  0
  3 23  1  0
  3 24  1  0
  7 25  1  0
  7 26  1  0
  8 27  1  0
  8 28  1  0
 10 29  1  0
 10 30  1  0
 10 31  1  0
 13 32  1  0
 14 33  1  0
 15 34  1  0
 16 35  1  0
M  END
>  <UniqueID>  (15) 
15

>  <SMILES>  (15) 
C=CCn1c(SCCOC)nc2ccccc2c1=O

>  <Energy>  (15) 
37.55892048213338

>  <Genealogy>  (15) 
C=CCn1c(SCCOC)nc2ccccc2c1=O (3D coordinates assigned)
C=CCn1c(SCCOC)nc2ccccc2c1=O (optimized conformer: 37.55892048213338 kcal/mol)

>  <smiles>  (15) 
C=CCn1c(SCCOC)nc2ccccc2c1=O

>  <score_type>  (15) 
oracle

>  <origin>  (15) 
adg

>  <m_score__min__energy>  (15) 
-6.3399999999999999

>  <m_primary>  (15) 
energy

$$$$
15:0
     RDKit          3D

 45 47  0  0  0  0  0  0  0  0999 V2000
   56.6180   30.4800   42.6170 C   0  0  0  0  0  0  0  0  0  0  0  0
   55.6840   30.1150   43.7660 C   0  0  0  0  0  0  0  0  0  0  0  0
   56.4290   29.6620   44.8820 O   0  0  0  0  0  0  0  0  0  0  0  0
   57.6770   29.1220   44.4860 C   0  0  0  0  0  0  0  0  0  0  0  0
   58.3790   28.4770   45.6830 C   0  0  0  0  0  0  0  0  0  0  0  0
   59.7820   28.6360   45.5740 O   0  0  0  0  0  0  0  0  0  0  0  0
   60.3840   28.7940   46.8460 C   0  0  0  0  0  0  0  0  0  0  0  0
   59.6790   29.8990   47.6340 C   0  0  0  0  0  0  0  0  0  0  0  0
   60.0610   31.2150   47.1130 N   0  0  0  0  0  0  0  0  0  0  0  0
   59.2510   32.1290   46.5190 C   0  0  0  0  0  0  0  0  0  0  0  0
   59.9320   33.3100   46.2900 C   0  0  0  0  0  0  0  0  0  0  0  0
   61.2170   33.1120   46.7500 C   0  0  0  0  0  0  0  0  0  0  0  0
   62.3230   33.9630   46.8060 C   0  0  0  0  0  0  0  0  0  0  0  0
   63.5010   33.4710   47.3920 C   0  0  0  0  0  0  0  0  0  0  0  0
   63.5490   32.1610   47.9130 C   0  0  0  0  0  0  0  0  0  0  0  0
   62.4190   31.3260   47.8520 C   0  0  0  0  0  0  0  0  0  0  0  0
   61.2590   31.8290   47.2530 C   0  0  0  0  0  0  0  0  0  0  0  0
   59.2780   34.4980   45.7290 C   0  0  0  0  0  0  0  0  0  0  0  0
   59.9250   35.5550   45.5030 O   0  0  0  0  0  0  0  0  0  0  0  0
   57.7910   34.4470   45.4950 C   0  0  0  0  0  0  0  0  0  0  0  0
   57.3130   33.0100   45.1950 C   0  0  0  0  0  0  0  0  0  0  0  0
   57.7730   31.9940   46.2630 C   0  0  0  0  0  0  0  0  0  0  0  0
   57.5703   30.8522   43.0227 H   0  0  0  0  0  0  0  0  0  0  0  0
   56.8056   29.5890   41.9998 H   0  0  0  0  0  0  0  0  0  0  0  0
   56.1518   31.2621   41.9998 H   0  0  0  0  0  0  0  0  0  0  0  0
   55.1010   31.0019   44.0551 H   0  0  0  0  0  0  0  0  0  0  0  0
   55.0097   29.3108   43.4365 H   0  0  0  0  0  0  0  0  0  0  0  0
   57.5133   28.3617   43.7081 H   0  0  0  0  0  0  0  0  0  0  0  0
   58.3095   29.9318   44.0933 H   0  0  0  0  0  0  0  0  0  0  0  0
   58.0304   28.9563   46.6097 H   0  0  0  0  0  0  0  0  0  0  0  0
   58.1409   27.4032   45.7016 H   0  0  0  0  0  0  0  0  0  0  0  0
   60.3100   27.8480   47.4024 H   0  0  0  0  0  0  0  0  0  0  0  0
   61.4401   29.0699   46.7100 H   0  0  0  0  0  0  0  0  0  0  0  0
   58.5901   29.7735   47.5410 H   0  0  0  0  0  0  0  0  0  0  0  0
   59.9759   29.8314   48.6910 H   0  0  0  0  0  0  0  0  0  0  0  0
   62.2732   34.9857   46.4041 H   0  0  0  0  0  0  0  0  0  0  0  0
   64.3931   34.1123   47.4450 H   0  0  0  0  0  0  0  0  0  0  0  0
   64.4778   31.7896   48.3707 H   0  0  0  0  0  0  0  0  0  0  0  0
   62.4464   30.3063   48.2636 H   0  0  0  0  0  0  0  0  0  0  0  0
   57.2751   34.8146   46.3943 H   0  0  0  0  0  0  0  0  0  0  0  0
   57.5575   35.0767   44.6238 H   0  0  0  0  0  0  0  0  0  0  0  0
   56.2137   33.0058   45.1556 H   0  0  0  0  0  0  0  0  0  0  0  0
   57.7555   32.7062   44.2349 H   0  0  0  0  0  0  0  0  0  0  0  0
   57.2253   32.1797   47.1987 H   0  0  0  0  0  0  0  0  0  0  0  0
   57.5671   30.9770   45.8979 H   0  0  0  0  0  0  0  0  0  0  0  0
  1  2  1  0
  2  3  1  0
  3  4  1  0
  4  5  1  0
  5  6  1  0
  6  7  1  0
  7  8  1  0
  8  9  1  0
  9 10  1  0
 10 11  2  0
 11 12  1  0
 12 13  2  0
 13 14  1  0
 14 15  2  0
 15 16  1  0
 16 17  2  0
 11 18  1  0
 18 19  2  0
 18 20  1  0
 20 21  1  0
 21 22  1  0
 17  9  1  0
 22 10  1  0
 17 12  1  0
  1 23  1  0
  1 24  1  0
  1 25  1  0
  2 26  1  0
  2 27  1  0
  4 28  1  0
  4 29  1  0
  5 30  1  0
  5 31  1  0
  7 32  1  0
  7 33  1  0
  8 34  1  0
  8 35  1  0
 13 36  1  0
 14 37  1  0
 15 38  1  0
 16 39  1  0
 20 40  1  0
 20 41  1  0
 21 42  1  0
 21 43  1  0
 22 44  1  0
 22 45  1  0
M  END
>  <UniqueID>  (16) 
16

>  <SMILES>  (16) 
CCOCCOCCn1c2c(c3ccccc31)C(=O)CCC2

>  <Energy>  (16) 
81.03107177176032

>  <Genealogy>  (16) 
CCOCCOCCn1c2c(c3ccccc31)C(=O)CCC2 (3D coordinates assigned)
CCOCCOCCn1c2c(c3ccccc31)C(=O)CCC2 (nonaromatic ring conformer: 81.03107177176032 kcal/mol)

>  <smiles>  (16) 
CCOCCOCCn1c2c(c3ccccc31)C(=O)CCC2

>  <score_type>  (16) 
oracle

>  <origin>  (16) 
adg

>  <m_score__min__energy>  (16) 
-7.0899999999999999

>  <m_primary>  (16) 
energy

$$$$
16:0
     RDKit          3D

 66 70  0  0  0  0  0  0  0  0999 V2000
   62.6740   32.0820   47.1220 C   0  0  0  0  0  0  0  0  0  0  0  0
   63.5920   33.2830   47.3120 C   0  0  0  0  0  0  0  0  0  0  0  0
   64.3480   33.1380   48.5620 N   0  0  0  0  0  0  0  0  0  0  0  0
   63.9580   31.9230   49.2920 C   0  0  0  0  0  0  0  0  0  0  0  0
   63.8220   32.1570   50.8130 C   0  0  0  0  0  0  0  0  0  0  0  0
   62.7190   33.1480   51.2500 C   0  0  0  0  0  0  0  0  0  0  0  0
   61.4700   32.5240   51.7350 N   0  0  0  0  0  0  0  0  0  0  0  0
   61.1710   31.2420   51.1230 C   0  0  0  0  0  0  0  0  0  0  0  0
   60.5250   31.1960   49.8790 C   0  0  0  0  0  0  0  0  0  0  0  0
   60.2600   30.0000   49.2500 C   0  0  0  0  0  0  0  0  0  0  0  0
   60.7390   28.8080   49.7230 N   0  0  0  0  0  0  0  0  0  0  0  0
   60.7740   27.6220   48.8500 C   0  0  0  0  0  0  0  0  0  0  0  0
   61.2660   28.7720   51.0030 C   0  0  0  0  0  0  0  0  0  0  0  0
   61.5460   27.5400   51.6410 C   0  0  0  0  0  0  0  0  0  0  0  0
   62.1130   27.4990   52.9110 C   0  0  0  0  0  0  0  0  0  0  0  0
   62.4050   28.6770   53.5840 C   0  0  0  0  0  0  0  0  0  0  0  0
   62.1140   29.9090   53.0030 C   0  0  0  0  0  0  0  0  0  0  0  0
   61.5270   29.9910   51.7170 C   0  0  0  0  0  0  0  0  0  0  0  0
   59.5580   30.3220   48.0010 C   0  0  0  0  0  0  0  0  0  0  0  0
   58.8590   29.4810   47.1280 C   0  0  0  0  0  0  0  0  0  0  0  0
   58.1940   30.0420   46.0110 C   0  0  0  0  0  0  0  0  0  0  0  0
   58.2030   31.4570   45.8600 C   0  0  0  0  0  0  0  0  0  0  0  0
   58.8650   32.2590   46.8100 C   0  0  0  0  0  0  0  0  0  0  0  0
   58.8580   33.5170   46.7110 O   0  0  0  0  0  0  0  0  0  0  0  0
   59.5030   31.6620   47.8500 N   0  0  0  0  0  0  0  0  0  0  0  0
   60.1060   32.3400   48.9930 C   0  0  0  0  0  0  0  0  0  0  0  0
   57.4750   32.0690   44.6860 C   0  0  0  0  0  0  0  0  0  0  0  0
   56.2760   31.3430   44.4340 O   0  0  0  0  0  0  0  0  0  0  0  0
   56.2380   29.9500   44.5390 C   0  0  0  0  0  0  0  0  0  0  0  0
   55.1430   29.3580   44.3480 O   0  0  0  0  0  0  0  0  0  0  0  0
   57.5150   29.1980   44.9130 C   0  0  1  0  0  0  0  0  0  0  0  0
   58.3990   29.1830   43.8150 O   0  0  0  0  0  0  0  0  0  0  0  0
   57.2280   27.7240   45.3540 C   0  0  0  0  0  0  0  0  0  0  0  0
   57.9890   26.6460   44.5680 C   0  0  0  0  0  0  0  0  0  0  0  0
   62.3745   31.6902   48.1053 H   0  0  0  0  0  0  0  0  0  0  0  0
   61.7788   32.3898   46.5618 H   0  0  0  0  0  0  0  0  0  0  0  0
   63.2059   31.2989   46.5618 H   0  0  0  0  0  0  0  0  0  0  0  0
   64.2928   33.3444   46.4664 H   0  0  0  0  0  0  0  0  0  0  0  0
   62.9859   34.1998   47.3583 H   0  0  0  0  0  0  0  0  0  0  0  0
   65.3620   33.0480   48.3140 H   0  0  0  0  0  0  0  0  0  0  0  0
   62.9905   31.5739   48.9021 H   0  0  0  0  0  0  0  0  0  0  0  0
   64.7517   31.1765   49.1411 H   0  0  0  0  0  0  0  0  0  0  0  0
   63.6089   31.1866   51.2851 H   0  0  0  0  0  0  0  0  0  0  0  0
   64.7721   32.6123   51.1292 H   0  0  0  0  0  0  0  0  0  0  0  0
   63.1240   33.7730   52.0595 H   0  0  0  0  0  0  0  0  0  0  0  0
   62.4463   33.7183   50.3498 H   0  0  0  0  0  0  0  0  0  0  0  0
   60.6830   33.2020   51.6690 H   0  0  0  0  0  0  0  0  0  0  0  0
   61.5810   32.3700   52.7650 H   0  0  0  0  0  0  0  0  0  0  0  0
   60.8008   26.7124   49.4680 H   0  0  0  0  0  0  0  0  0  0  0  0
   59.8759   27.6075   48.2150 H   0  0  0  0  0  0  0  0  0  0  0  0
   61.6714   27.6605   48.2150 H   0  0  0  0  0  0  0  0  0  0  0  0
   61.3112   26.5981   51.1236 H   0  0  0  0  0  0  0  0  0  0  0  0
   62.3305   26.5296   53.3831 H   0  0  0  0  0  0  0  0  0  0  0  0
   62.8684   28.6376   54.5809 H   0  0  0  0  0  0  0  0  0  0  0  0
   62.3440   30.8338   53.5524 H   0  0  0  0  0  0  0  0  0  0  0  0
   58.8265   28.3962   47.3075 H   0  0  0  0  0  0  0  0  0  0  0  0
   60.9745   32.9403   48.6842 H   0  0  0  0  0  0  0  0  0  0  0  0
   59.4241   33.0467   49.4887 H   0  0  0  0  0  0  0  0  0  0  0  0
   57.2274   33.1161   44.9147 H   0  0  0  0  0  0  0  0  0  0  0  0
   58.1198   32.0282   43.7957 H   0  0  0  0  0  0  0  0  0  0  0  0
   57.9580   29.6320   43.0470 H   0  0  0  0  0  0  0  0  0  0  0  0
   57.5004   27.6272   46.4153 H   0  0  0  0  0  0  0  0  0  0  0  0
   56.1601   27.5489   45.1565 H   0  0  0  0  0  0  0  0  0  0  0  0
   58.4767   25.9551   45.2714 H   0  0  0  0  0  0  0  0  0  0  0  0
   57.2839   26.0875   43.9349 H   0  0  0  0  0  0  0  0  0  0  0  0
   58.7514   27.1234   43.9349 H   0  0  0  0  0  0  0  0  0  0  0  0
  1  2  1  0
  2  3  1  0
  3  4  1  0
  4  5  1  0
  5  6  1  0
  6  7  1  0
  7  8  1  0
  8  9  2  0
  9 10  1  0
 10 11  2  0
 11 12  1  0
 11 13  1  0
 13 14  2  0
 14 15  1  0
 15 16  2  0
 16 17  1  0
 17 18  2  0
 10 19  1  0
 19 20  2  0
 20 21  1  0
 21 22  2  0
 22 23  1  0
 23 24  2  0
 23 25  1  0
 25 26  1  0
 22 27  1  0
 27 28  1  0
 28 29  1  0
 29 30  2  0
 29 31  1  0
 31 32  1  6
 31 33  1  0
 33 34  1  0
 18  8  1  0
 25 19  1  0
 26  9  1  0
 18 13  1  0
 31 21  1  0
  1 35  1  0
  1 36  1  0
  1 37  1  0
  2 38  1  0
  2 39  1  0
  3 40  1  0
  4 41  1  0
  4 42  1  0
  5 43  1  0
  5 44  1  0
  6 45  1  0
  6 46  1  0
  7 47  1  0
  7 48  1  0
 12 49  1  0
 12 50  1  0
 12 51  1  0
 14 52  1  0
 15 53  1  0
 16 54  1  0
 17 55  1  0
 20 56  1  0
 26 57  1  0
 26 58  1  0
 27 59  1  0
 27 60  1  0
 32 61  1  0
 33 62  1  0
 33 63  1  0
 34 64  1  0
 34 65  1  0
 34 66  1  0
M  CHG  2   7   1  11   1
M  END
>  <UniqueID>  (17) 
17

>  <SMILES>  (17) 
CCNCCC[NH2+]c1c2c([n+](C)c3ccccc13)-c1cc3c(c(=O)n1C2)COC(=O)[C@]3(O)CC

>  <Energy>  (17) 
125.18228216687058

>  <Genealogy>  (17) 
CCNCCC[NH2+]c1c2c([n+](C)c3ccccc13)-c1cc3c(c(=O)n1C2)COC(=O)C3(O)CC (protonated)
CCNCCC[NH2+]c1c2c([n+](C)c3ccccc13)-c1cc3c(c(=O)n1C2)COC(=O)[C@]3(O)CC (chirality)
CCNCCC[NH2+]c1c2c([n+](C)c3ccccc13)-c1cc3c(c(=O)n1C2)COC(=O)[C@]3(O)CC (3D coordinates assigned)
CCNCCC[NH2+]c1c2c([n+](C)c3ccccc13)-c1cc3c(c(=O)n1C2)COC(=O)[C@]3(O)CC (nonaromatic ring conformer: 125.18228216687058 kcal/mol)

>  <smiles>  (17) 
CCNCCCNc1c2c([n+](C)c3ccccc13)-c1cc3c(c(=O)n1C2)COC(=O)C3(O)CC

>  <score_type>  (17) 
oracle

>  <origin>  (17) 
adg

>  <m_score__min__energy>  (17) 
-5.5800000000000001

>  <m_primary>  (17) 
energy

$$$$
17:0
     RDKit          3D

 44 45  0  0  0  0  0  0  0  0999 V2000
   57.2920   28.9130   44.0270 C   0  0  0  0  0  0  0  0  0  0  0  0
   57.2990   30.0430   45.0430 C   0  0  0  0  0  0  0  0  0  0  0  0
   56.6800   31.1750   44.4820 O   0  0  0  0  0  0  0  0  0  0  0  0
   57.6840   31.9780   44.0290 N   0  0  0  0  0  0  0  0  0  0  0  0
   57.6530   31.9370   42.5640 C   0  0  0  0  0  0  0  0  0  0  0  0
   57.4160   33.3470   44.4980 C   0  0  0  0  0  0  0  0  0  0  0  0
   58.1560   33.6090   45.7830 C   0  0  0  0  0  0  0  0  0  0  0  0
   59.0560   34.6810   45.8800 C   0  0  0  0  0  0  0  0  0  0  0  0
   59.7070   34.9450   47.0880 C   0  0  0  0  0  0  0  0  0  0  0  0
   59.4760   34.1480   48.2140 C   0  0  0  0  0  0  0  0  0  0  0  0
   60.1870   34.4430   49.3890 O   0  0  0  0  0  0  0  0  0  0  0  0
   60.2870   33.6080   50.5460 C   0  0  0  0  0  0  0  0  0  0  0  0
   61.3090   32.4840   50.3380 C   0  0  0  0  0  0  0  0  0  0  0  0
   62.1400   32.6940   49.0990 C   0  0  0  0  0  0  0  0  0  0  0  0
   62.5040   31.6020   48.2960 C   0  0  0  0  0  0  0  0  0  0  0  0
   63.3260   31.8090   47.1880 C   0  0  0  0  0  0  0  0  0  0  0  0
   63.7740   33.0940   46.8870 C   0  0  0  0  0  0  0  0  0  0  0  0
   63.3910   34.1600   47.7030 C   0  0  0  0  0  0  0  0  0  0  0  0
   62.5900   33.9440   48.7840 N   0  0  0  0  0  0  0  0  0  0  0  0
   58.5450   33.0940   48.1250 C   0  0  0  0  0  0  0  0  0  0  0  0
   57.8940   32.8280   46.9170 C   0  0  0  0  0  0  0  0  0  0  0  0
   57.2860   27.9470   44.5531 H   0  0  0  0  0  0  0  0  0  0  0  0
   56.3943   28.9926   43.3962 H   0  0  0  0  0  0  0  0  0  0  0  0
   58.1906   28.9815   43.3962 H   0  0  0  0  0  0  0  0  0  0  0  0
   56.7490   29.7314   45.9432 H   0  0  0  0  0  0  0  0  0  0  0  0
   58.3362   30.2870   45.3164 H   0  0  0  0  0  0  0  0  0  0  0  0
   57.0202   31.1000   42.2339 H   0  0  0  0  0  0  0  0  0  0  0  0
   57.2413   32.8818   42.1794 H   0  0  0  0  0  0  0  0  0  0  0  0
   58.6742   31.7985   42.1794 H   0  0  0  0  0  0  0  0  0  0  0  0
   57.7488   34.0649   43.7339 H   0  0  0  0  0  0  0  0  0  0  0  0
   56.3364   33.4616   44.6750 H   0  0  0  0  0  0  0  0  0  0  0  0
   59.2497   35.3155   45.0026 H   0  0  0  0  0  0  0  0  0  0  0  0
   60.4091   35.7892   47.1541 H   0  0  0  0  0  0  0  0  0  0  0  0
   60.5992   34.2213   51.4041 H   0  0  0  0  0  0  0  0  0  0  0  0
   59.3031   33.1517   50.7298 H   0  0  0  0  0  0  0  0  0  0  0  0
   61.9773   32.4466   51.2109 H   0  0  0  0  0  0  0  0  0  0  0  0
   60.7551   31.5413   50.2179 H   0  0  0  0  0  0  0  0  0  0  0  0
   62.1441   30.5912   48.5383 H   0  0  0  0  0  0  0  0  0  0  0  0
   63.6199   30.9600   46.5533 H   0  0  0  0  0  0  0  0  0  0  0  0
   64.4226   33.2664   46.0155 H   0  0  0  0  0  0  0  0  0  0  0  0
   63.7372   35.1783   47.4724 H   0  0  0  0  0  0  0  0  0  0  0  0
   62.3320   34.7580   49.3860 H   0  0  0  0  0  0  0  0  0  0  0  0
   58.3295   32.4777   49.0103 H   0  0  0  0  0  0  0  0  0  0  0  0
   57.1717   32.0007   46.8559 H   0  0  0  0  0  0  0  0  0  0  0  0
  1  2  1  0
  2  3  1  0
  3  4  1  0
  4  5  1  0
  4  6  1  0
  6  7  1  0
  7  8  2  0
  8  9  1  0
  9 10  2  0
 10 11  1  0
 11 12  1  0
 12 13  1  0
 13 14  1  0
 14 15  2  0
 15 16  1  0
 16 17  2  0
 17 18  1  0
 18 19  2  0
 10 20  1  0
 20 21  2  0
 21  7  1  0
 19 14  1  0
  1 22  1  0
  1 23  1  0
  1 24  1  0
  2 25  1  0
  2 26  1  0
  5 27  1  0
  5 28  1  0
  5 29  1  0
  6 30  1  0
  6 31  1  0
  8 32  1  0
  9 33  1  0
 12 34  1  0
 12 35  1  0
 13 36  1  0
 13 37  1  0
 15 38  1  0
 16 39  1  0
 17 40  1  0
 18 41  1  0
 19 42  1  0
 20 43  1  0
 21 44  1  0
M  CHG  1  19   1
M  END
>  <UniqueID>  (18) 
18

>  <SMILES>  (18) 
CCON(C)Cc1ccc(OCCc2cccc[nH+]2)cc1

>  <Energy>  (18) 
33.53469321008239

>  <Genealogy>  (18) 
CCON(C)Cc1ccc(OCCc2cccc[nH+]2)cc1 (protonated)
CCON(C)Cc1ccc(OCCc2cccc[nH+]2)cc1 (3D coordinates assigned)
CCON(C)Cc1ccc(OCCc2cccc[nH+]2)cc1 (optimized conformer: 33.53469321008239 kcal/mol)

>  <smiles>  (18) 
CCON(C)Cc1ccc(OCCc2ccccn2)cc1

>  <score_type>  (18) 
oracle

>  <origin>  (18) 
adg

>  <m_score__min__energy>  (18) 
-5.2000000000000002

>  <m_primary>  (18) 
energy

$$$$
