0:0
     RDKit          3D

 42 43  0  0  0  0  0  0  0  0999 V2000
   58.4380   34.2530   45.0430 C   0  0  0  0  0  0  0  0  0  0  0  0
   59.6880   34.8150   45.7210 C   0  0  0  0  0  0  0  0  0  0  0  0
   60.2800   33.8490   46.6750 N   0  0  0  0  0  0  0  0  0  0  0  0
   61.7570   33.9250   46.6940 C   0  0  0  0  0  0  0  0  0  0  0  0
   62.3530   32.6470   47.2790 C   0  0  0  0  0  0  0  0  0  0  0  0
   59.6790   33.8610   48.0360 C   0  0  0  0  0  0  0  0  0  0  0  0
   58.9400   32.5680   48.4560 C   0  0  0  0  0  0  0  0  0  0  0  0
   58.2260   31.9360   47.3430 N   0  0  0  0  0  0  0  0  0  0  0  0
   58.5670   30.6890   46.6970 C   0  0  0  0  0  0  0  0  0  0  0  0
   59.5620   29.8980   47.2910 C   0  0  0  0  0  0  0  0  0  0  0  0
   59.9700   28.7000   46.7100 C   0  0  0  0  0  0  0  0  0  0  0  0
   59.3840   28.2550   45.5280 C   0  0  0  0  0  0  0  0  0  0  0  0
   58.3620   29.0030   44.9130 C   0  0  0  0  0  0  0  0  0  0  0  0
   57.7280   28.5670   43.7210 C   0  0  0  0  0  0  0  0  0  0  0  0
   58.1210   27.2880   43.0280 C   0  0  0  0  0  0  0  0  0  0  0  0
   56.6960   29.3440   43.1760 C   0  0  0  0  0  0  0  0  0  0  0  0
   56.3080   30.5240   43.8030 C   0  0  0  0  0  0  0  0  0  0  0  0
   56.9310   30.9280   44.9370 N   0  0  0  0  0  0  0  0  0  0  0  0
   57.9450   30.2270   45.5080 C   0  0  0  0  0  0  0  0  0  0  0  0
   57.7188   33.9297   45.8100 H   0  0  0  0  0  0  0  0  0  0  0  0
   57.9797   35.0317   44.4156 H   0  0  0  0  0  0  0  0  0  0  0  0
   58.7163   33.3934   44.4156 H   0  0  0  0  0  0  0  0  0  0  0  0
   60.4339   35.0551   44.9490 H   0  0  0  0  0  0  0  0  0  0  0  0
   59.3960   35.7142   46.2832 H   0  0  0  0  0  0  0  0  0  0  0  0
   62.1254   34.0582   45.6661 H   0  0  0  0  0  0  0  0  0  0  0  0
   62.0604   34.7769   47.3202 H   0  0  0  0  0  0  0  0  0  0  0  0
   62.3282   32.7002   48.3774 H   0  0  0  0  0  0  0  0  0  0  0  0
   61.7661   31.7804   46.9405 H   0  0  0  0  0  0  0  0  0  0  0  0
   63.3941   32.5396   46.9405 H   0  0  0  0  0  0  0  0  0  0  0  0
   60.4874   34.0385   48.7606 H   0  0  0  0  0  0  0  0  0  0  0  0
   58.9136   34.6508   48.0182 H   0  0  0  0  0  0  0  0  0  0  0  0
   59.6776   31.8540   48.8513 H   0  0  0  0  0  0  0  0  0  0  0  0
   58.1931   32.8445   49.2148 H   0  0  0  0  0  0  0  0  0  0  0  0
   57.3250   32.3910   47.0660 H   0  0  0  0  0  0  0  0  0  0  0  0
   60.0274   30.2296   48.2309 H   0  0  0  0  0  0  0  0  0  0  0  0
   60.7599   28.1018   47.1877 H   0  0  0  0  0  0  0  0  0  0  0  0
   59.7217   27.3128   45.0717 H   0  0  0  0  0  0  0  0  0  0  0  0
   58.3567   26.5208   43.7803 H   0  0  0  0  0  0  0  0  0  0  0  0
   57.2881   26.9409   42.3989 H   0  0  0  0  0  0  0  0  0  0  0  0
   59.0051   27.4685   42.3989 H   0  0  0  0  0  0  0  0  0  0  0  0
   56.1930   29.0207   42.2527 H   0  0  0  0  0  0  0  0  0  0  0  0
   55.4944   31.1300   43.3777 H   0  0  0  0  0  0  0  0  0  0  0  0
  1  2  1  0
  2  3  1  0
  3  4  1  0
  4  5  1  0
  3  6  1  0
  6  7  1  0
  7  8  1  0
  8  9  1  0
  9 10  2  0
 10 11  1  0
 11 12  2  0
 12 13  1  0
 13 14  2  0
 14 15  1  0
 14 16  1  0
 16 17  2  0
 17 18  1  0
 18 19  2  0
 19  9  1  0
 19 13  1  0
  1 20  1  0
  1 21  1  0
  1 22  1  0
  2 23  1  0
  2 24  1  0
  4 25  1  0
  4 26  1  0
  5 27  1  0
  5 28  1  0
  5 29  1  0
  6 30  1  0
  6 31  1  0
  7 32  1  0
  7 33  1  0
  8 34  1  0
 10 35  1  0
 11 36  1  0
 12 37  1  0
 15 38  1  0
 15 39  1  0
 15 40  1  0
 16 41  1  0
 17 42  1  0
M  END
>  <UniqueID>  (1) 
1

>  <SMILES>  (1) 
CCN(CC)CCNc1cccc2c(C)ccnc12

>  <Energy>  (1) 
51.039502033476154

>  <Genealogy>  (1) 
CCN(CC)CCNc1cccc2c(C)ccnc12 (3D coordinates assigned)
CCN(CC)CCNc1cccc2c(C)ccnc12 (optimized conformer: 51.039502033476154 kcal/mol)

>  <smiles>  (1) 
CCN(CC)CCNc1cccc2c(C)ccnc12

>  <score_type>  (1) 
oracle

>  <origin>  (1) 
adg

>  <m_score__min__energy>  (1) 
-6.25

>  <m_primary>  (1) 
energy

$$$$
1:0
     RDKit          3D

 29 30  0  0  0  0  0  0  0  0999 V2000
   57.8250   32.9660   45.0650 C   0  0  0  0  0  0  0  0  0  0  0  0
   57.7870   32.2030   43.7440 C   0  0  0  0  0  0  0  0  0  0  0  0
   58.4240   30.8870   43.8820 N   0  0  0  0  0  0  0  0  0  0  0  0
   57.4550   29.9160   44.3090 C   0  0  0  0  0  0  0  0  0  0  0  0
   56.0670   30.0370   44.2860 C   0  0  0  0  0  0  0  0  0  0  0  0
   55.5100   28.9540   44.8850 N   0  0  0  0  0  0  0  0  0  0  0  0
   56.5100   28.1830   45.2840 N   0  0  0  0  0  0  0  0  0  0  0  0
   56.4450   27.0080   45.9500 C   0  0  0  0  0  0  0  0  0  0  0  0
   55.3360   26.4920   46.2520 O   0  0  0  0  0  0  0  0  0  0  0  0
   57.6110   26.3930   46.2910 N   0  0  0  0  0  0  0  0  0  0  0  0
   58.8170   26.9600   45.9660 C   0  0  0  0  0  0  0  0  0  0  0  0
   60.0160   26.3350   46.3160 O   0  0  0  0  0  0  0  0  0  0  0  0
   60.7700   26.7050   47.4660 C   0  0  0  0  0  0  0  0  0  0  0  0
   60.0030   27.7460   48.2650 C   0  0  0  0  0  0  0  0  0  0  0  0
   58.8570   28.1490   45.2950 N   0  0  0  0  0  0  0  0  0  0  0  0
   57.6820   28.7320   44.9640 C   0  0  0  0  0  0  0  0  0  0  0  0
   57.7895   32.2527   45.9016 H   0  0  0  0  0  0  0  0  0  0  0  0
   58.7535   33.5530   45.1228 H   0  0  0  0  0  0  0  0  0  0  0  0
   56.9594   33.6423   45.1228 H   0  0  0  0  0  0  0  0  0  0  0  0
   56.7397   32.0660   43.4369 H   0  0  0  0  0  0  0  0  0  0  0  0
   58.3360   32.7822   42.9870 H   0  0  0  0  0  0  0  0  0  0  0  0
   59.1940   30.9340   44.5900 H   0  0  0  0  0  0  0  0  0  0  0  0
   58.8240   30.5850   42.9630 H   0  0  0  0  0  0  0  0  0  0  0  0
   55.5095   30.8792   43.8502 H   0  0  0  0  0  0  0  0  0  0  0  0
   60.9425   25.8171   48.0920 H   0  0  0  0  0  0  0  0  0  0  0  0
   61.7359   27.1258   47.1498 H   0  0  0  0  0  0  0  0  0  0  0  0
   60.1414   27.5582   49.3400 H   0  0  0  0  0  0  0  0  0  0  0  0
   60.3794   28.7493   48.0166 H   0  0  0  0  0  0  0  0  0  0  0  0
   58.9332   27.6838   48.0166 H   0  0  0  0  0  0  0  0  0  0  0  0
  1  2  1  0
  2  3  1  0
  3  4  1  0
  4  5  2  0
  5  6  1  0
  6  7  1  0
  7  8  1  0
  8  9  2  0
  8 10  1  0
 10 11  2  0
 11 12  1  0
 12 13  1  0
 13 14  1  0
 11 15  1  0
 15 16  2  0
 16  4  1  0
 16  7  1  0
  1 17  1  0
  1 18  1  0
  1 19  1  0
  2 20  1  0
  2 21  1  0
  3 22  1  0
  3 23  1  0
  5 24  1  0
 13 25  1  0
 13 26  1  0
 14 27  1  0
 14 28  1  0
 14 29  1  0
M  CHG  2   3   1   6  -1
M  END
>  <UniqueID>  (2) 
2

>  <SMILES>  (2) 
CC[NH2+]c1c[n-]n2c(=O)nc(OCC)nc12

>  <Energy>  (2) 
60.973029743826636

>  <Genealogy>  (2) 
CC[NH2+]c1c[n-]n2c(=O)nc(OCC)nc12 (protonated)
CC[NH2+]c1c[n-]n2c(=O)nc(OCC)nc12 (3D coordinates assigned)
CC[NH2+]c1c[n-]n2c(=O)nc(OCC)nc12 (optimized conformer: 60.973029743826636 kcal/mol)

>  <smiles>  (2) 
CCNc1c[nH]n2c(=O)nc(OCC)nc12

>  <score_type>  (2) 
oracle

>  <origin>  (2) 
adg

>  <m_score__min__energy>  (2) 
-6.1100000000000003

>  <m_primary>  (2) 
energy

$$$$
2:0
     RDKit          3D

 53 55  0  0  0  0  0  0  0  0999 V2000
   64.5765   33.2559   48.7885 H   0  0  0  0  0  0  0  0  0  0  0  0
   63.5910   33.4500   48.3400 C   0  0  0  0  0  0  0  0  0  0  0  0
   63.4560   33.5190   46.9510 C   0  0  0  0  0  0  0  0  0  0  0  0
   64.3344   33.3694   46.3060 H   0  0  0  0  0  0  0  0  0  0  0  0
   62.2060   33.7780   46.3790 C   0  0  0  0  0  0  0  0  0  0  0  0
   62.1009   33.8161   45.2847 H   0  0  0  0  0  0  0  0  0  0  0  0
   61.0820   33.9900   47.2000 C   0  0  0  0  0  0  0  0  0  0  0  0
   59.7720   34.2220   46.6550 N   0  0  0  0  0  0  0  0  0  0  0  0
   59.1280   33.4630   45.8140 C   0  0  0  0  0  0  0  0  0  0  0  0
   58.9080   33.8610   44.5280 N   0  0  0  0  0  0  0  0  0  0  0  0
   58.2200   33.0950   43.6410 C   0  0  0  0  0  0  0  0  0  0  0  0
   58.0701   33.4487   42.6103 H   0  0  0  0  0  0  0  0  0  0  0  0
   57.7020   31.8570   44.0370 C   0  0  0  0  0  0  0  0  0  0  0  0
   56.9910   31.0500   43.1410 C   0  0  0  0  0  0  0  0  0  0  0  0
   56.8240   31.3905   42.1084 H   0  0  0  0  0  0  0  0  0  0  0  0
   56.4930   29.8120   43.5570 C   0  0  0  0  0  0  0  0  0  0  0  0
   55.9361   29.1844   42.8457 H   0  0  0  0  0  0  0  0  0  0  0  0
   56.6940   29.3590   44.8700 C   0  0  0  0  0  0  0  0  0  0  0  0
   56.1870   28.0630   45.2440 N   0  0  0  0  0  0  0  0  0  0  0  0
   55.1600   27.8930   45.1500 H   0  0  0  0  0  0  0  0  0  0  0  0
   57.0050   26.9020   45.6110 C   0  0  0  0  0  0  0  0  0  0  0  0
   56.5129   25.9880   45.2472 H   0  0  0  0  0  0  0  0  0  0  0  0
   57.1055   26.8813   46.7062 H   0  0  0  0  0  0  0  0  0  0  0  0
   58.4100   26.9910   44.9980 C   0  0  0  0  0  0  0  0  0  0  0  0
   58.5870   28.0274   44.6746 H   0  0  0  0  0  0  0  0  0  0  0  0
   58.4474   26.2872   44.1535 H   0  0  0  0  0  0  0  0  0  0  0  0
   59.5170   26.5890   45.9830 C   0  0  0  0  0  0  0  0  0  0  0  0
   60.2879   26.0183   45.4444 H   0  0  0  0  0  0  0  0  0  0  0  0
   59.0710   25.9766   46.7806 H   0  0  0  0  0  0  0  0  0  0  0  0
   60.1390   27.7820   46.5970 N   0  0  0  0  0  0  0  0  0  0  0  0
   59.3740   28.2860   47.7600 C   0  0  0  0  0  0  0  0  0  0  0  0
   58.4832   27.6538   47.8900 H   0  0  0  0  0  0  0  0  0  0  0  0
   59.1175   29.3341   47.5461 H   0  0  0  0  0  0  0  0  0  0  0  0
   60.1710   28.2780   49.0750 C   0  0  0  0  0  0  0  0  0  0  0  0
   59.4742   28.2850   49.9261 H   0  0  0  0  0  0  0  0  0  0  0  0
   60.7955   27.3735   49.1198 H   0  0  0  0  0  0  0  0  0  0  0  0
   60.8135   29.1697   49.1198 H   0  0  0  0  0  0  0  0  0  0  0  0
   60.4620   28.8470   45.6160 C   0  0  0  0  0  0  0  0  0  0  0  0
   61.2470   28.4906   44.9328 H   0  0  0  0  0  0  0  0  0  0  0  0
   59.5607   29.0995   45.0382 H   0  0  0  0  0  0  0  0  0  0  0  0
   60.9550   30.0840   46.3550 C   0  0  0  0  0  0  0  0  0  0  0  0
   60.8874   29.9143   47.4397 H   0  0  0  0  0  0  0  0  0  0  0  0
   62.0012   30.2831   46.0795 H   0  0  0  0  0  0  0  0  0  0  0  0
   60.3325   30.9481   46.0795 H   0  0  0  0  0  0  0  0  0  0  0  0
   57.3880   30.1840   45.7790 C   0  0  0  0  0  0  0  0  0  0  0  0
   57.5282   29.8544   46.8191 H   0  0  0  0  0  0  0  0  0  0  0  0
   57.9010   31.4230   45.3650 C   0  0  0  0  0  0  0  0  0  0  0  0
   58.6150   32.2370   46.2550 C   0  0  0  0  0  0  0  0  0  0  0  0
   58.7716   31.9143   47.2949 H   0  0  0  0  0  0  0  0  0  0  0  0
   61.2210   33.8860   48.5910 C   0  0  0  0  0  0  0  0  0  0  0  0
   60.3407   34.0081   49.2392 H   0  0  0  0  0  0  0  0  0  0  0  0
   62.4720   33.6280   49.1590 C   0  0  0  0  0  0  0  0  0  0  0  0
   62.5761   33.5649   50.2522 H   0  0  0  0  0  0  0  0  0  0  0  0
  1  2  1  0
  2  3  2  0
  3  4  1  0
  3  5  1  0
  5  6  1  0
  5  7  2  0
  7  8  1  0
  8  9  2  0
  9 10  1  0
 10 11  1  0
 11 12  1  0
 11 13  2  0
 13 14  1  0
 14 15  1  0
 14 16  2  0
 16 17  1  0
 16 18  1  0
 18 19  1  0
 19 20  1  0
 19 21  1  0
 21 22  1  0
 21 23  1  0
 21 24  1  0
 24 25  1  0
 24 26  1  0
 24 27  1  0
 27 28  1  0
 27 29  1  0
 27 30  1  0
 30 31  1  0
 31 32  1  0
 31 33  1  0
 31 34  1  0
 34 35  1  0
 34 36  1  0
 34 37  1  0
 30 38  1  0
 38 39  1  0
 38 40  1  0
 38 41  1  0
 41 42  1  0
 41 43  1  0
 41 44  1  0
 18 45  2  0
 45 46  1  0
 45 47  1  0
 47 48  2  0
 48 49  1  0
  7 50  1  0
 50 51  1  0
 50 52  2  0
 52 53  1  0
 52  2  1  0
 48  9  1  0
 47 13  1  0
M  CHG  1  10  -1
M  END
>  <UniqueID>  (3) 
3

>  <SMILES>  (3) 
CCN(CC)CCCNc1ccc2c[n-]/c(=N\c3ccccc3)cc2c1

>  <Energy>  (3) 
63.264016529033064

>  <Genealogy>  (3) 
CCN(CC)CCCNc1ccc2c[n-]c(=Nc3ccccc3)cc2c1 (protonated)
CCN(CC)CCCNc1ccc2c[n-]/c(=N\c3ccccc3)cc2c1 (cis-trans isomerization)
CCN(CC)CCCNc1ccc2c[n-]/c(=N\c3ccccc3)cc2c1 (3D coordinates assigned)
CCN(CC)CCCNc1ccc2c[n-]/c(=N\c3ccccc3)cc2c1 (optimized conformer: 63.264016529033064 kcal/mol)

>  <smiles>  (3) 
CCN(CC)CCCNc1ccc2c[nH]c(=Nc3ccccc3)cc2c1

>  <score_type>  (3) 
oracle

>  <origin>  (3) 
adg

>  <m_score__min__energy>  (3) 
-8.6400000000000006

>  <m_primary>  (3) 
energy

$$$$
3:0
     RDKit          3D

 35 37  0  0  1  0  0  0  0  0999 V2000
   63.3970   32.7490   47.6710 C   0  0  0  0  0  0  0  0  0  0  0  0
   62.5440   33.7810   47.7200 C   0  0  0  0  0  0  0  0  0  0  0  0
   61.9810   34.2320   49.0160 C   0  0  0  0  0  0  0  0  0  0  0  0
   60.5380   34.0610   49.0180 N   0  0  0  0  0  0  0  0  0  0  0  0
   60.0310   33.0030   48.5030 C   0  0  0  0  0  0  0  0  0  0  0  0
   60.0730   31.7560   49.0820 C   0  0  0  0  0  0  0  0  0  0  0  0
   59.4930   30.6830   48.4360 C   0  0  0  0  0  0  0  0  0  0  0  0
   59.5270   29.3210   49.0430 C   0  0  0  0  0  0  0  0  0  0  0  0
   58.8890   30.8720   47.2400 N   0  0  0  0  0  0  0  0  0  0  0  0
   58.8430   32.1000   46.6640 C   0  0  0  0  0  0  0  0  0  0  0  0
   58.2880   32.5250   45.4660 C   0  0  0  0  0  0  0  0  0  0  0  0
   57.5850   31.6900   44.4970 C   0  0  0  0  0  0  0  0  0  0  0  0
   57.7380   31.9850   43.1720 C   0  0  0  0  0  0  0  0  0  0  0  0
   57.0760   31.2020   42.2430 C   0  0  0  0  0  0  0  0  0  0  0  0
   56.2760   30.1420   42.6420 C   0  0  0  0  0  0  0  0  0  0  0  0
   56.1560   29.8870   43.9970 C   0  0  0  0  0  0  0  0  0  0  0  0
   56.7980   30.6490   44.8910 N   0  0  0  0  0  0  0  0  0  0  0  0
   58.5530   33.8780   45.4150 C   0  0  0  0  0  0  0  0  0  0  0  0
   59.2290   34.2360   46.5250 N   0  0  0  0  0  0  0  0  0  0  0  0
   59.4150   33.1580   47.3010 N   0  0  0  0  0  0  0  0  0  0  0  0
   63.8094   32.4217   46.7052 H   0  0  0  0  0  0  0  0  0  0  0  0
   63.6850   32.2290   48.5966 H   0  0  0  0  0  0  0  0  0  0  0  0
   62.2590   34.2979   46.7918 H   0  0  0  0  0  0  0  0  0  0  0  0
   62.4194   33.6366   49.8304 H   0  0  0  0  0  0  0  0  0  0  0  0
   62.2185   35.2961   49.1618 H   0  0  0  0  0  0  0  0  0  0  0  0
   60.5663   31.6146   50.0550 H   0  0  0  0  0  0  0  0  0  0  0  0
   59.5248   29.4081   50.1395 H   0  0  0  0  0  0  0  0  0  0  0  0
   58.6428   28.7528   48.7186 H   0  0  0  0  0  0  0  0  0  0  0  0
   60.4385   28.7976   48.7186 H   0  0  0  0  0  0  0  0  0  0  0  0
   58.3721   32.8247   42.8514 H   0  0  0  0  0  0  0  0  0  0  0  0
   57.1860   31.4238   41.1712 H   0  0  0  0  0  0  0  0  0  0  0  0
   55.7510   29.5206   41.9016 H   0  0  0  0  0  0  0  0  0  0  0  0
   55.5284   29.0520   44.3419 H   0  0  0  0  0  0  0  0  0  0  0  0
   58.2598   34.5557   44.5997 H   0  0  0  0  0  0  0  0  0  0  0  0
   59.5640   35.2150   46.7530 H   0  0  0  0  0  0  0  0  0  0  0  0
  1  2  2  0
  2  3  1  0
  3  4  1  0
  4  5  2  0
  5  6  1  0
  6  7  2  0
  7  8  1  0
  7  9  1  0
  9 10  2  0
 10 11  1  0
 11 12  1  0
 12 13  2  0
 13 14  1  0
 14 15  2  0
 15 16  1  0
 16 17  2  0
 11 18  2  0
 18 19  1  0
 19 20  1  0
 20  5  1  0
 20 10  1  0
 17 12  1  0
  1 21  1  0
  1 22  1  0
  2 23  1  0
  3 24  1  0
  3 25  1  0
  6 26  1  0
  8 27  1  0
  8 28  1  0
  8 29  1  0
 13 30  1  0
 14 31  1  0
 15 32  1  0
 16 33  1  0
 18 34  1  0
 19 35  1  0
M  END
>  <smiles>  (4) 
C=CCN=c1cc(C)nc2c(-c3ccccn3)c[nH]n12

>  <score_type>  (4) 
oracle

>  <origin>  (4) 
adg

>  <m_score__min__energy>  (4) 
-6.6100000000000003

>  <m_primary>  (4) 
energy

$$$$
4:0
     RDKit          3D

 54 56  0  0  0  0  0  0  0  0999 V2000
   63.3970   33.8580   46.3480 C   0  0  0  0  0  0  0  0  0  0  0  0
   61.9630   33.5090   46.7370 C   0  0  0  0  0  0  0  0  0  0  0  0
   61.9310   32.2760   47.5340 N   0  0  0  0  0  0  0  0  0  0  0  0
   63.2550   31.9610   48.0910 C   0  0  0  0  0  0  0  0  0  0  0  0
   63.1790   31.8100   49.6160 C   0  0  0  0  0  0  0  0  0  0  0  0
   62.1580   30.7550   50.0980 C   0  0  0  0  0  0  0  0  0  0  0  0
   60.7480   31.1850   50.0400 N   0  0  0  0  0  0  0  0  0  0  0  0
   59.7620   30.1050   50.2150 C   0  0  0  0  0  0  0  0  0  0  0  0
   59.2300   29.5730   48.8800 C   0  0  0  0  0  0  0  0  0  0  0  0
   59.6890   30.3970   47.7590 N   0  0  0  0  0  0  0  0  0  0  0  0
   58.9470   30.4800   46.5290 C   0  0  0  0  0  0  0  0  0  0  0  0
   58.7090   29.3090   45.7830 C   0  0  0  0  0  0  0  0  0  0  0  0
   59.0980   28.0430   46.2770 C   0  0  0  0  0  0  0  0  0  0  0  0
   58.9290   26.8940   45.5090 C   0  0  0  0  0  0  0  0  0  0  0  0
   58.3760   26.9830   44.2390 C   0  0  0  0  0  0  0  0  0  0  0  0
   57.9480   28.2150   43.7450 C   0  0  0  0  0  0  0  0  0  0  0  0
   58.0610   29.3970   44.5240 C   0  0  0  0  0  0  0  0  0  0  0  0
   57.5710   30.6070   44.0790 N   0  0  0  0  0  0  0  0  0  0  0  0
   56.6490   30.6480   42.9210 C   0  0  0  0  0  0  0  0  0  0  0  0
   57.9030   31.7770   44.7390 C   0  0  0  0  0  0  0  0  0  0  0  0
   57.6420   33.0460   44.1610 C   0  0  0  0  0  0  0  0  0  0  0  0
   57.9090   34.2220   44.8510 C   0  0  0  0  0  0  0  0  0  0  0  0
   58.4450   34.1740   46.1290 C   0  0  0  0  0  0  0  0  0  0  0  0
   58.7610   32.9500   46.7160 C   0  0  0  0  0  0  0  0  0  0  0  0
   59.2800   32.9780   48.0040 O   0  0  0  0  0  0  0  0  0  0  0  0
   58.5400   31.7320   46.0140 C   0  0  0  0  0  0  0  0  0  0  0  0
   63.9983   34.0044   47.2574 H   0  0  0  0  0  0  0  0  0  0  0  0
   63.8255   33.0379   45.7531 H   0  0  0  0  0  0  0  0  0  0  0  0
   63.4007   34.7833   45.7531 H   0  0  0  0  0  0  0  0  0  0  0  0
   61.5377   34.3333   47.3284 H   0  0  0  0  0  0  0  0  0  0  0  0
   61.3736   33.3555   45.8210 H   0  0  0  0  0  0  0  0  0  0  0  0
   61.2810   32.4330   48.3400 H   0  0  0  0  0  0  0  0  0  0  0  0
   63.6167   31.0193   47.6523 H   0  0  0  0  0  0  0  0  0  0  0  0
   63.9449   32.7833   47.8507 H   0  0  0  0  0  0  0  0  0  0  0  0
   64.1743   31.5202   49.9840 H   0  0  0  0  0  0  0  0  0  0  0  0
   62.8433   32.7793   50.0133 H   0  0  0  0  0  0  0  0  0  0  0  0
   62.2686   29.8596   49.4687 H   0  0  0  0  0  0  0  0  0  0  0  0
   62.3815   30.5708   51.1592 H   0  0  0  0  0  0  0  0  0  0  0  0
   60.5660   31.6710   49.1310 H   0  0  0  0  0  0  0  0  0  0  0  0
   60.2390   29.2769   50.7597 H   0  0  0  0  0  0  0  0  0  0  0  0
   58.9092   30.5187   50.7732 H   0  0  0  0  0  0  0  0  0  0  0  0
   59.5867   28.5423   48.7370 H   0  0  0  0  0  0  0  0  0  0  0  0
   58.1307   29.6036   48.9068 H   0  0  0  0  0  0  0  0  0  0  0  0
   60.5670   30.9550   47.8580 H   0  0  0  0  0  0  0  0  0  0  0  0
   59.5400   27.9646   47.2812 H   0  0  0  0  0  0  0  0  0  0  0  0
   59.2338   25.9156   45.9088 H   0  0  0  0  0  0  0  0  0  0  0  0
   58.2750   26.0791   43.6203 H   0  0  0  0  0  0  0  0  0  0  0  0
   57.5157   28.2721   42.7351 H   0  0  0  0  0  0  0  0  0  0  0  0
   55.6105   30.6942   43.2806 H   0  0  0  0  0  0  0  0  0  0  0  0
   56.8657   31.5374   42.3111 H   0  0  0  0  0  0  0  0  0  0  0  0
   56.7859   29.7429   42.3111 H   0  0  0  0  0  0  0  0  0  0  0  0
   57.2199   33.1000   43.1466 H   0  0  0  0  0  0  0  0  0  0  0  0
   57.6946   35.1938   44.3822 H   0  0  0  0  0  0  0  0  0  0  0  0
   58.6219   35.1077   46.6830 H   0  0  0  0  0  0  0  0  0  0  0  0
  1  2  1  0
  2  3  1  0
  3  4  1  0
  4  5  1  0
  5  6  1  0
  6  7  1  0
  7  8  1  0
  8  9  1  0
  9 10  1  0
 10 11  1  0
 11 12  2  0
 12 13  1  0
 13 14  2  0
 14 15  1  0
 15 16  2  0
 16 17  1  0
 17 18  2  0
 18 19  1  0
 18 20  1  0
 20 21  2  0
 21 22  1  0
 22 23  2  0
 23 24  1  0
 24 25  1  0
 24 26  2  0
 26 11  1  0
 17 12  1  0
 26 20  1  0
  1 27  1  0
  1 28  1  0
  1 29  1  0
  2 30  1  0
  2 31  1  0
  3 32  1  0
  4 33  1  0
  4 34  1  0
  5 35  1  0
  5 36  1  0
  6 37  1  0
  6 38  1  0
  7 39  1  0
  8 40  1  0
  8 41  1  0
  9 42  1  0
  9 43  1  0
 10 44  1  0
 13 45  1  0
 14 46  1  0
 15 47  1  0
 16 48  1  0
 19 49  1  0
 19 50  1  0
 19 51  1  0
 21 52  1  0
 22 53  1  0
 23 54  1  0
M  CHG  2  18   1  25  -1
M  END
>  <UniqueID>  (5) 
4

>  <SMILES>  (5) 
CCNCCCNCCNc1c2ccccc2[n+](C)c2cccc([O-])c12

>  <Energy>  (5) 
80.94991760446683

>  <Genealogy>  (5) 
CCNCCCNCCNc1c2ccccc2[n+](C)c2cccc([O-])c12 (protonated)
CCNCCCNCCNc1c2ccccc2[n+](C)c2cccc([O-])c12 (3D coordinates assigned)
CCNCCCNCCNc1c2ccccc2[n+](C)c2cccc([O-])c12 (optimized conformer: 80.94991760446683 kcal/mol)

>  <smiles>  (5) 
CCNCCCNCCNc1c2ccccc2[n+](C)c2cccc(O)c12

>  <score_type>  (5) 
oracle

>  <origin>  (5) 
adg

>  <m_score__min__energy>  (5) 
-5.4400000000000004

>  <m_primary>  (5) 
energy

$$$$
5:0
     RDKit          3D

 37 39  0  0  0  0  0  0  0  0999 V2000
   56.4160   25.4150   45.7680 C   0  0  0  0  0  0  0  0  0  0  0  0
   57.6030   26.1980   46.2210 C   0  0  0  0  0  0  0  0  0  0  0  0
   58.1720   26.0730   47.4400 N   0  0  0  0  0  0  0  0  0  0  0  0
   59.1520   27.0080   47.4450 C   0  0  0  0  0  0  0  0  0  0  0  0
   60.0170   27.2790   48.6330 C   0  0  0  0  0  0  0  0  0  0  0  0
   59.2050   27.7090   46.2940 N   0  0  0  0  0  0  0  0  0  0  0  0
   58.2220   27.2180   45.5330 C   0  0  0  0  0  0  0  0  0  0  0  0
   57.9420   27.7480   44.1630 C   0  0  0  0  0  0  0  0  0  0  0  0
   58.3570   29.1710   44.0660 N   0  0  1  0  0  0  0  0  0  0  0  0
   57.4530   30.0540   44.7940 C   0  0  0  0  0  0  0  0  0  0  0  0
   56.2580   29.7130   45.0170 O   0  0  0  0  0  0  0  0  0  0  0  0
   57.9270   31.3290   45.3780 C   0  0  0  0  0  0  0  0  0  0  0  0
   58.1630   31.4150   46.7600 C   0  0  0  0  0  0  0  0  0  0  0  0
   58.6150   32.6090   47.3270 C   0  0  0  0  0  0  0  0  0  0  0  0
   58.8390   33.7260   46.5200 C   0  0  0  0  0  0  0  0  0  0  0  0
   58.6150   33.6530   45.1430 C   0  0  0  0  0  0  0  0  0  0  0  0
   58.8500   34.7420   44.3700 F   0  0  0  0  0  0  0  0  0  0  0  0
   58.1590   32.4590   44.5650 C   0  0  0  0  0  0  0  0  0  0  0  0
   57.9490   32.3860   42.8150 Cl  0  0  0  0  0  0  0  0  0  0  0  0
   59.7770   29.3190   44.4920 C   0  0  0  0  0  0  0  0  0  0  0  0
   60.0220   28.8740   45.9580 C   0  0  0  0  0  0  0  0  0  0  0  0
   55.8616   25.0493   46.6449 H   0  0  0  0  0  0  0  0  0  0  0  0
   55.7612   26.0590   45.1626 H   0  0  0  0  0  0  0  0  0  0  0  0
   56.7503   24.5596   45.1626 H   0  0  0  0  0  0  0  0  0  0  0  0
   59.4425   27.0990   49.5536 H   0  0  0  0  0  0  0  0  0  0  0  0
   60.8912   26.6117   48.6100 H   0  0  0  0  0  0  0  0  0  0  0  0
   60.3541   28.3258   48.6100 H   0  0  0  0  0  0  0  0  0  0  0  0
   58.5010   27.1558   43.4235 H   0  0  0  0  0  0  0  0  0  0  0  0
   56.8623   27.6758   43.9652 H   0  0  0  0  0  0  0  0  0  0  0  0
   58.3090   29.4470   43.0580 H   0  0  0  0  0  0  0  0  0  0  0  0
   57.9908   30.5368   47.3997 H   0  0  0  0  0  0  0  0  0  0  0  0
   58.7946   32.6692   48.4106 H   0  0  0  0  0  0  0  0  0  0  0  0
   59.1927   34.6657   46.9694 H   0  0  0  0  0  0  0  0  0  0  0  0
   60.4067   28.7062   43.8302 H   0  0  0  0  0  0  0  0  0  0  0  0
   60.0293   30.3877   44.4270 H   0  0  0  0  0  0  0  0  0  0  0  0
   61.0842   28.6171   46.0835 H   0  0  0  0  0  0  0  0  0  0  0  0
   59.7449   29.7019   46.6272 H   0  0  0  0  0  0  0  0  0  0  0  0
  1  2  1  0
  2  3  1  0
  3  4  2  0
  4  5  1  0
  4  6  1  0
  6  7  1  0
  7  8  1  0
  8  9  1  0
  9 10  1  0
 10 11  2  0
 10 12  1  0
 12 13  2  0
 13 14  1  0
 14 15  2  0
 15 16  1  0
 16 17  1  0
 16 18  2  0
 18 19  1  0
  9 20  1  0
 20 21  1  0
  7  2  2  0
 18 12  1  0
 21  6  1  0
  1 22  1  0
  1 23  1  0
  1 24  1  0
  5 25  1  0
  5 26  1  0
  5 27  1  0
  8 28  1  0
  8 29  1  0
  9 30  1  6
 13 31  1  0
 14 32  1  0
 15 33  1  0
 20 34  1  0
 20 35  1  0
 21 36  1  0
 21 37  1  0
M  CHG  1   9   1
M  END
>  <UniqueID>  (6) 
5

>  <SMILES>  (6) 
Cc1nc(C)n2c1C[N@@H+](C(=O)c1cccc(F)c1Cl)CC2

>  <Energy>  (6) 
80.98558916358373

>  <Genealogy>  (6) 
Cc1nc(C)n2c1C[NH+](C(=O)c1cccc(F)c1Cl)CC2 (protonated)
Cc1nc(C)n2c1C[N@@H+](C(=O)c1cccc(F)c1Cl)CC2 (chirality)
Cc1nc(C)n2c1C[N@@H+](C(=O)c1cccc(F)c1Cl)CC2 (3D coordinates assigned)
Cc1nc(C)n2c1C[N@@H+](C(=O)c1cccc(F)c1Cl)CC2 (nonaromatic ring conformer: 80.98558916358373 kcal/mol)

>  <smiles>  (6) 
Cc1nc(C)n2c1CN(C(=O)c1cccc(F)c1Cl)CC2

>  <score_type>  (6) 
oracle

>  <origin>  (6) 
adg

>  <m_score__min__energy>  (6) 
-6.0499999999999998

>  <m_primary>  (6) 
energy

$$$$
6:0
     RDKit          3D

 54 56  0  0  0  0  0  0  0  0999 V2000
   63.0260   34.1990   50.2030 C   0  0  0  0  0  0  0  0  0  0  0  0
   63.5770   32.9340   49.5190 C   0  0  0  0  0  0  0  0  0  0  0  0
   62.6470   32.2570   48.5680 N   0  0  0  0  0  0  0  0  0  0  0  0
   63.0990   32.3240   47.1500 C   0  0  0  0  0  0  0  0  0  0  0  0
   63.3450   33.7380   46.6060 C   0  0  0  0  0  0  0  0  0  0  0  0
   62.2230   30.8900   48.9880 C   0  0  0  0  0  0  0  0  0  0  0  0
   61.2340   30.2310   48.0010 C   0  0  0  0  0  0  0  0  0  0  0  0
   59.9020   30.8420   48.0730 N   0  0  0  0  0  0  0  0  0  0  0  0
   59.2080   31.2990   46.9010 C   0  0  0  0  0  0  0  0  0  0  0  0
   58.5050   30.3730   46.1100 C   0  0  0  0  0  0  0  0  0  0  0  0
   58.2580   29.0630   46.5760 C   0  0  0  0  0  0  0  0  0  0  0  0
   57.5330   28.1580   45.8030 C   0  0  0  0  0  0  0  0  0  0  0  0
   57.0250   28.5460   44.5680 C   0  0  0  0  0  0  0  0  0  0  0  0
   57.2590   29.8350   44.0890 C   0  0  0  0  0  0  0  0  0  0  0  0
   58.0270   30.7660   44.8340 C   0  0  0  0  0  0  0  0  0  0  0  0
   58.3090   32.0280   44.3520 N   0  0  0  0  0  0  0  0  0  0  0  0
   58.1290   32.3240   42.9130 C   0  0  0  0  0  0  0  0  0  0  0  0
   58.7840   33.0050   45.2070 C   0  0  0  0  0  0  0  0  0  0  0  0
   58.8050   34.3660   44.8220 C   0  0  0  0  0  0  0  0  0  0  0  0
   59.3300   35.3430   45.6570 C   0  0  0  0  0  0  0  0  0  0  0  0
   59.8260   35.0030   46.9070 C   0  0  0  0  0  0  0  0  0  0  0  0
   59.7840   33.6740   47.3570 C   0  0  0  0  0  0  0  0  0  0  0  0
   60.2330   33.3530   48.6500 O   0  0  0  0  0  0  0  0  0  0  0  0
   59.6470   33.8180   49.8600 C   0  0  0  0  0  0  0  0  0  0  0  0
   59.2610   32.6570   46.5060 C   0  0  0  0  0  0  0  0  0  0  0  0
   63.0788   34.0779   51.2950 H   0  0  0  0  0  0  0  0  0  0  0  0
   63.6263   35.0700   49.9013 H   0  0  0  0  0  0  0  0  0  0  0  0
   61.9794   34.3527   49.9013 H   0  0  0  0  0  0  0  0  0  0  0  0
   64.4825   33.2175   48.9625 H   0  0  0  0  0  0  0  0  0  0  0  0
   63.7594   32.2105   50.3273 H   0  0  0  0  0  0  0  0  0  0  0  0
   61.7910   32.8590   48.5830 H   0  0  0  0  0  0  0  0  0  0  0  0
   64.0392   31.7592   47.0660 H   0  0  0  0  0  0  0  0  0  0  0  0
   62.2782   31.9055   46.5491 H   0  0  0  0  0  0  0  0  0  0  0  0
   63.4668   34.4379   47.4458 H   0  0  0  0  0  0  0  0  0  0  0  0
   64.2571   33.7408   45.9912 H   0  0  0  0  0  0  0  0  0  0  0  0
   62.4874   34.0487   45.9912 H   0  0  0  0  0  0  0  0  0  0  0  0
   63.1174   30.2542   49.0639 H   0  0  0  0  0  0  0  0  0  0  0  0
   61.7048   30.9899   49.9531 H   0  0  0  0  0  0  0  0  0  0  0  0
   61.6229   30.3449   46.9784 H   0  0  0  0  0  0  0  0  0  0  0  0
   61.1377   29.1693   48.2721 H   0  0  0  0  0  0  0  0  0  0  0  0
   59.4100   30.8790   48.9940 H   0  0  0  0  0  0  0  0  0  0  0  0
   58.6418   28.7537   47.5594 H   0  0  0  0  0  0  0  0  0  0  0  0
   57.3623   27.1353   46.1703 H   0  0  0  0  0  0  0  0  0  0  0  0
   56.4377   27.8353   43.9679 H   0  0  0  0  0  0  0  0  0  0  0  0
   56.8407   30.1346   43.1168 H   0  0  0  0  0  0  0  0  0  0  0  0
   57.5605   33.2588   42.7993 H   0  0  0  0  0  0  0  0  0  0  0  0
   59.1137   32.4332   42.4351 H   0  0  0  0  0  0  0  0  0  0  0  0
   57.5789   31.4999   42.4351 H   0  0  0  0  0  0  0  0  0  0  0  0
   58.3975   34.6558   43.8422 H   0  0  0  0  0  0  0  0  0  0  0  0
   59.3528   36.3917   45.3258 H   0  0  0  0  0  0  0  0  0  0  0  0
   60.2567   35.7828   47.5523 H   0  0  0  0  0  0  0  0  0  0  0  0
   60.1870   33.3895   50.7172 H   0  0  0  0  0  0  0  0  0  0  0  0
   59.7087   34.9156   49.8992 H   0  0  0  0  0  0  0  0  0  0  0  0
   58.5922   33.5085   49.8992 H   0  0  0  0  0  0  0  0  0  0  0  0
  1  2  1  0
  2  3  1  0
  3  4  1  0
  4  5  1  0
  3  6  1  0
  6  7  1  0
  7  8  1  0
  8  9  1  0
  9 10  2  0
 10 11  1  0
 11 12  2  0
 12 13  1  0
 13 14  2  0
 14 15  1  0
 15 16  2  0
 16 17  1  0
 16 18  1  0
 18 19  2  0
 19 20  1  0
 20 21  2  0
 21 22  1  0
 22 23  1  0
 23 24  1  0
 22 25  2  0
 25  9  1  0
 15 10  1  0
 25 18  1  0
  1 26  1  0
  1 27  1  0
  1 28  1  0
  2 29  1  0
  2 30  1  0
  3 31  1  0
  4 32  1  0
  4 33  1  0
  5 34  1  0
  5 35  1  0
  5 36  1  0
  6 37  1  0
  6 38  1  0
  7 39  1  0
  7 40  1  0
  8 41  1  0
 11 42  1  0
 12 43  1  0
 13 44  1  0
 14 45  1  0
 17 46  1  0
 17 47  1  0
 17 48  1  0
 19 49  1  0
 20 50  1  0
 21 51  1  0
 24 52  1  0
 24 53  1  0
 24 54  1  0
M  CHG  2   3   1  16   1
M  END
>  <UniqueID>  (7) 
6

>  <SMILES>  (7) 
CC[NH+](CC)CCNc1c2ccccc2[n+](C)c2cccc(OC)c12

>  <Energy>  (7) 
91.69740444470152

>  <Genealogy>  (7) 
CC[NH+](CC)CCNc1c2ccccc2[n+](C)c2cccc(OC)c12 (protonated)
CC[NH+](CC)CCNc1c2ccccc2[n+](C)c2cccc(OC)c12 (3D coordinates assigned)
CC[NH+](CC)CCNc1c2ccccc2[n+](C)c2cccc(OC)c12 (optimized conformer: 91.69740444470152 kcal/mol)

>  <smiles>  (7) 
CCN(CC)CCNc1c2ccccc2[n+](C)c2cccc(OC)c12

>  <score_type>  (7) 
oracle

>  <origin>  (7) 
adg

>  <m_score__min__energy>  (7) 
-3.6800000000000002

>  <m_primary>  (7) 
energy

$$$$
7:0
     RDKit          3D

 36 38  0  0  0  0  0  0  0  0999 V2000
   55.6110   29.7240   43.3870 C   0  0  0  0  0  0  0  0  0  0  0  0
   57.0090   29.9770   43.9550 C   0  0  0  0  0  0  0  0  0  0  0  0
   57.0810   29.6930   45.3980 N   0  0  0  0  0  0  0  0  0  0  0  0
   58.4580   29.4670   45.8710 C   0  0  0  0  0  0  0  0  0  0  0  0
   58.6990   30.2280   47.1750 C   0  0  0  0  0  0  0  0  0  0  0  0
   59.3850   31.5000   46.9210 N   0  0  0  0  0  0  0  0  0  0  0  0
   60.6690   31.8270   47.2250 C   0  0  0  0  0  0  0  0  0  0  0  0
   61.6240   31.0480   47.8880 C   0  0  0  0  0  0  0  0  0  0  0  0
   62.9090   31.5900   48.0710 C   0  0  0  0  0  0  0  0  0  0  0  0
   63.2210   32.8800   47.5920 C   0  0  0  0  0  0  0  0  0  0  0  0
   62.2510   33.6450   46.9190 C   0  0  0  0  0  0  0  0  0  0  0  0
   60.9850   33.0870   46.7540 C   0  0  0  0  0  0  0  0  0  0  0  0
   59.8570   33.5600   46.1240 C   0  0  0  0  0  0  0  0  0  0  0  0
   59.6100   34.7540   45.4480 C   0  0  0  0  0  0  0  0  0  0  0  0
   58.3410   34.9290   44.8730 C   0  0  0  0  0  0  0  0  0  0  0  0
   57.3600   33.9200   44.9800 C   0  0  0  0  0  0  0  0  0  0  0  0
   57.6360   32.7220   45.6660 C   0  0  0  0  0  0  0  0  0  0  0  0
   58.9030   32.5690   46.2370 C   0  0  0  0  0  0  0  0  0  0  0  0
   54.8971   29.5948   44.2139 H   0  0  0  0  0  0  0  0  0  0  0  0
   55.3055   30.5814   42.7694 H   0  0  0  0  0  0  0  0  0  0  0  0
   55.6253   28.8139   42.7694 H   0  0  0  0  0  0  0  0  0  0  0  0
   57.7274   29.3302   43.4301 H   0  0  0  0  0  0  0  0  0  0  0  0
   57.2470   31.0407   43.8071 H   0  0  0  0  0  0  0  0  0  0  0  0
   56.6470   30.4810   45.9340 H   0  0  0  0  0  0  0  0  0  0  0  0
   58.6110   28.3915   46.0441 H   0  0  0  0  0  0  0  0  0  0  0  0
   59.1637   29.8283   45.1085 H   0  0  0  0  0  0  0  0  0  0  0  0
   57.7315   30.4309   47.6574 H   0  0  0  0  0  0  0  0  0  0  0  0
   59.3333   29.6116   47.8290 H   0  0  0  0  0  0  0  0  0  0  0  0
   61.3769   30.0410   48.2554 H   0  0  0  0  0  0  0  0  0  0  0  0
   63.6785   31.0022   48.5929 H   0  0  0  0  0  0  0  0  0  0  0  0
   64.2299   33.2904   47.7459 H   0  0  0  0  0  0  0  0  0  0  0  0
   62.4841   34.6495   46.5361 H   0  0  0  0  0  0  0  0  0  0  0  0
   60.3830   35.5325   45.3678 H   0  0  0  0  0  0  0  0  0  0  0  0
   58.1096   35.8600   44.3348 H   0  0  0  0  0  0  0  0  0  0  0  0
   56.3708   34.0710   44.5232 H   0  0  0  0  0  0  0  0  0  0  0  0
   56.8774   31.9299   45.7503 H   0  0  0  0  0  0  0  0  0  0  0  0
  1  2  1  0
  2  3  1  0
  3  4  1  0
  4  5  1  0
  5  6  1  0
  6  7  1  0
  7  8  2  0
  8  9  1  0
  9 10  2  0
 10 11  1  0
 11 12  2  0
 12 13  1  0
 13 14  2  0
 14 15  1  0
 15 16  2  0
 16 17  1  0
 17 18  2  0
 18  6  1  0
 12  7  1  0
 18 13  1  0
  1 19  1  0
  1 20  1  0
  1 21  1  0
  2 22  1  0
  2 23  1  0
  3 24  1  0
  4 25  1  0
  4 26  1  0
  5 27  1  0
  5 28  1  0
  8 29  1  0
  9 30  1  0
 10 31  1  0
 11 32  1  0
 14 33  1  0
 15 34  1  0
 16 35  1  0
 17 36  1  0
M  END
>  <UniqueID>  (8) 
7

>  <SMILES>  (8) 
CCNCCn1c2ccccc2c2ccccc21

>  <Energy>  (8) 
75.48244573278697

>  <Genealogy>  (8) 
CCNCCn1c2ccccc2c2ccccc21 (3D coordinates assigned)
CCNCCn1c2ccccc2c2ccccc21 (optimized conformer: 75.48244573278697 kcal/mol)

>  <smiles>  (8) 
CCNCCn1c2ccccc2c2ccccc21

>  <score_type>  (8) 
oracle

>  <origin>  (8) 
adg

>  <m_score__min__energy>  (8) 
-6.7400000000000002

>  <m_primary>  (8) 
energy

$$$$
8:0
     RDKit          3D

 47 50  0  0  0  0  0  0  0  0999 V2000
   58.0770   32.2090   42.1360 C   0  0  0  0  0  0  0  0  0  0  0  0
   57.0010   31.1400   42.2970 C   0  0  0  0  0  0  0  0  0  0  0  0
   56.7930   30.8150   43.7150 N   0  0  0  0  0  0  0  0  0  0  0  0
   55.5810   30.1160   44.1420 C   0  0  0  0  0  0  0  0  0  0  0  0
   57.7920   31.1240   44.7020 C   0  0  0  0  0  0  0  0  0  0  0  0
   58.5010   30.1210   45.3060 N   0  0  0  0  0  0  0  0  0  0  0  0
   59.4240   30.3810   46.2860 C   0  0  0  0  0  0  0  0  0  0  0  0
   59.6450   31.6650   46.7070 N   0  0  0  0  0  0  0  0  0  0  0  0
   58.9390   32.6620   46.1190 C   0  0  0  0  0  0  0  0  0  0  0  0
   58.0270   32.4280   45.1410 C   0  0  0  0  0  0  0  0  0  0  0  0
   57.4600   33.6600   44.8710 C   0  0  0  0  0  0  0  0  0  0  0  0
   58.0420   34.5830   45.6790 N   0  0  0  0  0  0  0  0  0  0  0  0
   58.9420   33.9660   46.4390 N   0  0  0  0  0  0  0  0  0  0  0  0
   59.7240   34.6260   47.4820 C   0  0  0  0  0  0  0  0  0  0  0  0
   60.9840   33.8380   47.7570 C   0  0  0  0  0  0  0  0  0  0  0  0
   62.0410   33.9050   46.8300 C   0  0  0  0  0  0  0  0  0  0  0  0
   63.2500   33.2550   47.0830 C   0  0  0  0  0  0  0  0  0  0  0  0
   63.4300   32.5450   48.2710 C   0  0  0  0  0  0  0  0  0  0  0  0
   62.3980   32.4780   49.2090 C   0  0  0  0  0  0  0  0  0  0  0  0
   61.1690   33.1130   48.9630 C   0  0  0  0  0  0  0  0  0  0  0  0
   60.1050   32.9970   49.9790 C   0  0  0  0  0  0  0  0  0  0  0  0
   59.1140   32.0090   49.8550 C   0  0  0  0  0  0  0  0  0  0  0  0
   58.1180   31.8870   50.8270 C   0  0  0  0  0  0  0  0  0  0  0  0
   58.1110   32.7410   51.9350 C   0  0  0  0  0  0  0  0  0  0  0  0
   59.1020   33.7180   52.0720 C   0  0  0  0  0  0  0  0  0  0  0  0
   60.1010   33.8440   51.1000 C   0  0  0  0  0  0  0  0  0  0  0  0
   58.4133   32.5431   43.1286 H   0  0  0  0  0  0  0  0  0  0  0  0
   58.9298   31.7903   41.5816 H   0  0  0  0  0  0  0  0  0  0  0  0
   57.6638   33.0646   41.5816 H   0  0  0  0  0  0  0  0  0  0  0  0
   56.0576   31.5115   41.8705 H   0  0  0  0  0  0  0  0  0  0  0  0
   57.3280   30.2303   41.7721 H   0  0  0  0  0  0  0  0  0  0  0  0
   55.5394   30.0920   45.2410 H   0  0  0  0  0  0  0  0  0  0  0  0
   54.6974   30.6432   43.7531 H   0  0  0  0  0  0  0  0  0  0  0  0
   55.5948   29.0871   43.7531 H   0  0  0  0  0  0  0  0  0  0  0  0
   59.9905   29.5529   46.7368 H   0  0  0  0  0  0  0  0  0  0  0  0
   56.6726   33.8582   44.1289 H   0  0  0  0  0  0  0  0  0  0  0  0
   59.9930   35.6396   47.1498 H   0  0  0  0  0  0  0  0  0  0  0  0
   59.1245   34.6830   48.4025 H   0  0  0  0  0  0  0  0  0  0  0  0
   61.9131   34.4747   45.8978 H   0  0  0  0  0  0  0  0  0  0  0  0
   64.0633   33.3025   46.3439 H   0  0  0  0  0  0  0  0  0  0  0  0
   64.3858   32.0377   48.4685 H   0  0  0  0  0  0  0  0  0  0  0  0
   62.5482   31.9241   50.1474 H   0  0  0  0  0  0  0  0  0  0  0  0
   59.1223   31.3295   48.9900 H   0  0  0  0  0  0  0  0  0  0  0  0
   57.3382   31.1184   50.7210 H   0  0  0  0  0  0  0  0  0  0  0  0
   57.3255   32.6439   52.6989 H   0  0  0  0  0  0  0  0  0  0  0  0
   59.0964   34.3880   52.9444 H   0  0  0  0  0  0  0  0  0  0  0  0
   60.8845   34.6076   51.2139 H   0  0  0  0  0  0  0  0  0  0  0  0
  1  2  1  0
  2  3  1  0
  3  4  1  0
  3  5  1  0
  5  6  2  0
  6  7  1  0
  7  8  2  0
  8  9  1  0
  9 10  2  0
 10 11  1  0
 11 12  2  0
 12 13  1  0
 13 14  1  0
 14 15  1  0
 15 16  2  0
 16 17  1  0
 17 18  2  0
 18 19  1  0
 19 20  2  0
 20 21  1  0
 21 22  2  0
 22 23  1  0
 23 24  2  0
 24 25  1  0
 25 26  2  0
 10  5  1  0
 20 15  1  0
 26 21  1  0
 13  9  1  0
  1 27  1  0
  1 28  1  0
  1 29  1  0
  2 30  1  0
  2 31  1  0
  4 32  1  0
  4 33  1  0
  4 34  1  0
  7 35  1  0
 11 36  1  0
 14 37  1  0
 14 38  1  0
 16 39  1  0
 17 40  1  0
 18 41  1  0
 19 42  1  0
 22 43  1  0
 23 44  1  0
 24 45  1  0
 25 46  1  0
 26 47  1  0
M  END
>  <UniqueID>  (9) 
8

>  <SMILES>  (9) 
CCN(C)c1ncnc2c1cnn2Cc1ccccc1-c1ccccc1

>  <Energy>  (9) 
98.42949469217902

>  <Genealogy>  (9) 
CCN(C)c1ncnc2c1cnn2Cc1ccccc1-c1ccccc1 (3D coordinates assigned)
CCN(C)c1ncnc2c1cnn2Cc1ccccc1-c1ccccc1 (optimized conformer: 98.42949469217902 kcal/mol)

>  <smiles>  (9) 
CCN(C)c1ncnc2c1cnn2Cc1ccccc1-c1ccccc1

>  <score_type>  (9) 
oracle

>  <origin>  (9) 
adg

>  <m_score__min__energy>  (9) 
-7.96

>  <m_primary>  (9) 
energy

$$$$
9:0
     RDKit          3D

 77 80  0  0  0  0  0  0  0  0999 V2000
   57.0580   26.5310   46.4420 C   0  0  0  0  0  0  0  0  0  0  0  0
   58.3060   25.9010   47.0570 C   0  0  0  0  0  0  0  0  0  0  0  0
   59.4260   26.8700   47.0580 N   0  0  0  0  0  0  0  0  0  0  0  0
   60.4630   26.4880   48.0470 C   0  0  0  0  0  0  0  0  0  0  0  0
   60.3770   27.3460   49.3100 C   0  0  0  0  0  0  0  0  0  0  0  0
   60.0220   26.9910   45.7030 C   0  0  0  0  0  0  0  0  0  0  0  0
   60.5810   28.4020   45.4820 C   0  0  0  0  0  0  0  0  0  0  0  0
   60.4000   29.2460   46.6630 N   0  0  0  0  0  0  0  0  0  0  0  0
   59.8820   30.5770   46.5140 C   0  0  0  0  0  0  0  0  0  0  0  0
   58.7000   30.7800   45.7840 C   0  0  0  0  0  0  0  0  0  0  0  0
   57.8430   29.7020   45.4780 C   0  0  0  0  0  0  0  0  0  0  0  0
   56.6370   29.9220   44.8140 C   0  0  0  0  0  0  0  0  0  0  0  0
   56.2670   31.2130   44.4530 C   0  0  0  0  0  0  0  0  0  0  0  0
   57.1190   32.2860   44.7160 C   0  0  0  0  0  0  0  0  0  0  0  0
   58.3740   32.0860   45.3450 C   0  0  0  0  0  0  0  0  0  0  0  0
   59.2820   33.1150   45.5100 N   0  0  0  0  0  0  0  0  0  0  0  0
   59.1280   34.3670   44.7340 C   0  0  0  0  0  0  0  0  0  0  0  0
   60.3480   32.9610   46.3800 C   0  0  0  0  0  0  0  0  0  0  0  0
   61.1950   34.0440   46.7090 C   0  0  0  0  0  0  0  0  0  0  0  0
   62.3230   33.8590   47.4970 C   0  0  0  0  0  0  0  0  0  0  0  0
   62.5770   32.6310   48.1190 C   0  0  0  0  0  0  0  0  0  0  0  0
   63.8360   32.4460   48.8130 N   0  0  0  0  0  0  0  0  0  0  0  0
   64.0590   33.5760   49.7300 C   0  0  0  0  0  0  0  0  0  0  0  0
   63.2770   33.4180   51.0400 C   0  0  0  0  0  0  0  0  0  0  0  0
   61.8700   33.7890   50.8630 N   0  0  0  0  0  0  0  0  0  0  0  0
   60.7420   32.8960   50.9790 C   0  0  0  0  0  0  0  0  0  0  0  0
   60.7360   31.7890   51.8530 C   0  0  0  0  0  0  0  0  0  0  0  0
   59.6150   30.9590   51.9420 C   0  0  0  0  0  0  0  0  0  0  0  0
   58.4790   31.2100   51.1520 C   0  0  0  0  0  0  0  0  0  0  0  0
   57.3290   30.4080   51.2120 O   0  0  0  0  0  0  0  0  0  0  0  0
   56.2040   30.6760   52.0420 C   0  0  0  0  0  0  0  0  0  0  0  0
   58.4880   32.2970   50.2730 C   0  0  0  0  0  0  0  0  0  0  0  0
   59.6060   33.1320   50.1870 C   0  0  0  0  0  0  0  0  0  0  0  0
   61.6430   31.5760   47.9570 C   0  0  0  0  0  0  0  0  0  0  0  0
   61.6550   30.4170   48.9330 C   0  0  0  0  0  0  0  0  0  0  0  0
   60.6240   31.6920   46.9620 C   0  0  0  0  0  0  0  0  0  0  0  0
   56.3856   26.8704   47.2437 H   0  0  0  0  0  0  0  0  0  0  0  0
   57.3495   27.3899   45.8197 H   0  0  0  0  0  0  0  0  0  0  0  0
   56.5400   25.7864   45.8197 H   0  0  0  0  0  0  0  0  0  0  0  0
   58.0872   25.5988   48.0918 H   0  0  0  0  0  0  0  0  0  0  0  0
   58.5940   25.0232   46.4599 H   0  0  0  0  0  0  0  0  0  0  0  0
   60.3228   25.4322   48.3220 H   0  0  0  0  0  0  0  0  0  0  0  0
   61.4508   26.6459   47.5894 H   0  0  0  0  0  0  0  0  0  0  0  0
   60.4418   26.6995   50.1976 H   0  0  0  0  0  0  0  0  0  0  0  0
   61.2073   28.0674   49.3204 H   0  0  0  0  0  0  0  0  0  0  0  0
   59.4200   27.8883   49.3204 H   0  0  0  0  0  0  0  0  0  0  0  0
   60.8369   26.2593   45.6001 H   0  0  0  0  0  0  0  0  0  0  0  0
   59.2401   26.7985   44.9537 H   0  0  0  0  0  0  0  0  0  0  0  0
   61.6553   28.3288   45.2572 H   0  0  0  0  0  0  0  0  0  0  0  0
   60.0339   28.8607   44.6452 H   0  0  0  0  0  0  0  0  0  0  0  0
   60.4880   28.8430   47.6230 H   0  0  0  0  0  0  0  0  0  0  0  0
   58.1286   28.6794   45.7657 H   0  0  0  0  0  0  0  0  0  0  0  0
   55.9780   29.0742   44.5756 H   0  0  0  0  0  0  0  0  0  0  0  0
   55.3001   31.3886   43.9588 H   0  0  0  0  0  0  0  0  0  0  0  0
   56.8124   33.3032   44.4309 H   0  0  0  0  0  0  0  0  0  0  0  0
   59.0235   35.2163   45.4252 H   0  0  0  0  0  0  0  0  0  0  0  0
   60.0145   34.5170   44.1002 H   0  0  0  0  0  0  0  0  0  0  0  0
   58.2316   34.2977   44.1002 H   0  0  0  0  0  0  0  0  0  0  0  0
   60.9563   35.0503   46.3343 H   0  0  0  0  0  0  0  0  0  0  0  0
   63.0289   34.6913   47.6348 H   0  0  0  0  0  0  0  0  0  0  0  0
   63.8040   31.5530   49.3600 H   0  0  0  0  0  0  0  0  0  0  0  0
   64.6390   32.3680   48.1520 H   0  0  0  0  0  0  0  0  0  0  0  0
   65.1323   33.6376   49.9627 H   0  0  0  0  0  0  0  0  0  0  0  0
   63.7057   34.4912   49.2325 H   0  0  0  0  0  0  0  0  0  0  0  0
   63.3335   32.3695   51.3679 H   0  0  0  0  0  0  0  0  0  0  0  0
   63.7215   34.0837   51.7946 H   0  0  0  0  0  0  0  0  0  0  0  0
   61.6820   34.7880   50.6160 H   0  0  0  0  0  0  0  0  0  0  0  0
   61.6215   31.5770   52.4701 H   0  0  0  0  0  0  0  0  0  0  0  0
   59.6214   30.1042   52.6343 H   0  0  0  0  0  0  0  0  0  0  0  0
   56.5025   30.6049   53.0983 H   0  0  0  0  0  0  0  0  0  0  0  0
   55.8282   31.6888   51.8345 H   0  0  0  0  0  0  0  0  0  0  0  0
   55.4120   29.9414   51.8345 H   0  0  0  0  0  0  0  0  0  0  0  0
   57.6082   32.4970   49.6438 H   0  0  0  0  0  0  0  0  0  0  0  0
   59.5960   33.9838   49.4910 H   0  0  0  0  0  0  0  0  0  0  0  0
   61.6510   30.8045   49.9625 H   0  0  0  0  0  0  0  0  0  0  0  0
   60.7633   29.7933   48.7725 H   0  0  0  0  0  0  0  0  0  0  0  0
   62.5595   29.8119   48.7725 H   0  0  0  0  0  0  0  0  0  0  0  0
  1  2  1  0
  2  3  1  0
  3  4  1  0
  4  5  1  0
  3  6  1  0
  6  7  1  0
  7  8  1  0
  8  9  1  0
  9 10  2  0
 10 11  1  0
 11 12  2  0
 12 13  1  0
 13 14  2  0
 14 15  1  0
 15 16  2  0
 16 17  1  0
 16 18  1  0
 18 19  2  0
 19 20  1  0
 20 21  2  0
 21 22  1  0
 22 23  1  0
 23 24  1  0
 24 25  1  0
 25 26  1  0
 26 27  2  0
 27 28  1  0
 28 29  2  0
 29 30  1  0
 30 31  1  0
 29 32  1  0
 32 33  2  0
 21 34  1  0
 34 35  1  0
 34 36  2  0
 36  9  1  0
 15 10  1  0
 36 18  1  0
 33 26  1  0
  1 37  1  0
  1 38  1  0
  1 39  1  0
  2 40  1  0
  2 41  1  0
  4 42  1  0
  4 43  1  0
  5 44  1  0
  5 45  1  0
  5 46  1  0
  6 47  1  0
  6 48  1  0
  7 49  1  0
  7 50  1  0
  8 51  1  0
 11 52  1  0
 12 53  1  0
 13 54  1  0
 14 55  1  0
 17 56  1  0
 17 57  1  0
 17 58  1  0
 19 59  1  0
 20 60  1  0
 22 61  1  0
 22 62  1  0
 23 63  1  0
 23 64  1  0
 24 65  1  0
 24 66  1  0
 25 67  1  0
 27 68  1  0
 28 69  1  0
 31 70  1  0
 31 71  1  0
 31 72  1  0
 32 73  1  0
 33 74  1  0
 35 75  1  0
 35 76  1  0
 35 77  1  0
M  CHG  2  16   1  22   1
M  END
>  <UniqueID>  (10) 
9

>  <SMILES>  (10) 
CCN(CC)CCNc1c2ccccc2[n+](C)c2ccc([NH2+]CCNc3ccc(OC)cc3)c(C)c12

>  <Energy>  (10) 
115.05752291795513

>  <Genealogy>  (10) 
CCN(CC)CCNc1c2ccccc2[n+](C)c2ccc([NH2+]CCNc3ccc(OC)cc3)c(C)c12 (protonated)
CCN(CC)CCNc1c2ccccc2[n+](C)c2ccc([NH2+]CCNc3ccc(OC)cc3)c(C)c12 (3D coordinates assigned)
CCN(CC)CCNc1c2ccccc2[n+](C)c2ccc([NH2+]CCNc3ccc(OC)cc3)c(C)c12 (optimized conformer: 115.05752291795513 kcal/mol)

>  <smiles>  (10) 
CCN(CC)CCNc1c2ccccc2[n+](C)c2ccc(NCCNc3ccc(OC)cc3)c(C)c12

>  <score_type>  (10) 
oracle

>  <origin>  (10) 
adg

>  <m_score__min__energy>  (10) 
-5.0999999999999996

>  <m_primary>  (10) 
energy

$$$$
10:0
     RDKit          3D

 55 57  0  0  0  0  0  0  0  0999 V2000
   59.6310   33.4420   49.8450 C   0  0  0  0  0  0  0  0  0  0  0  0
   60.4430   32.3620   50.5510 C   0  0  0  0  0  0  0  0  0  0  0  0
   61.7300   32.1180   49.8550 N   0  0  0  0  0  0  0  0  0  0  0  0
   62.4890   31.0890   50.5950 C   0  0  0  0  0  0  0  0  0  0  0  0
   62.5070   33.3800   49.7540 C   0  0  0  0  0  0  0  0  0  0  0  0
   62.8020   33.8200   48.3000 C   0  0  0  0  0  0  0  0  0  0  0  0
   62.3910   32.8330   47.2820 N   0  0  0  0  0  0  0  0  0  0  0  0
   61.0860   33.1200   46.7200 C   0  0  0  0  0  0  0  0  0  0  0  0
   60.7640   34.4460   46.3890 C   0  0  0  0  0  0  0  0  0  0  0  0
   59.5450   34.7540   45.7970 C   0  0  0  0  0  0  0  0  0  0  0  0
   58.6150   33.7510   45.5370 C   0  0  0  0  0  0  0  0  0  0  0  0
   58.8690   32.4040   45.8890 C   0  0  0  0  0  0  0  0  0  0  0  0
   57.8680   31.4120   45.6140 C   0  0  0  0  0  0  0  0  0  0  0  0
   56.8080   31.8120   45.0560 O   0  0  0  0  0  0  0  0  0  0  0  0
   57.9770   30.0110   45.9270 C   0  0  0  0  0  0  0  0  0  0  0  0
   56.9410   29.0920   45.5820 C   0  0  0  0  0  0  0  0  0  0  0  0
   55.8020   29.5320   44.8980 O   0  0  0  0  0  0  0  0  0  0  0  0
   55.7840   29.6920   43.4830 C   0  0  0  0  0  0  0  0  0  0  0  0
   57.0240   27.7280   45.9330 C   0  0  0  0  0  0  0  0  0  0  0  0
   55.9130   26.9210   45.6160 O   0  0  0  0  0  0  0  0  0  0  0  0
   55.8570   25.4990   45.6410 C   0  0  0  0  0  0  0  0  0  0  0  0
   58.1790   27.2380   46.5870 C   0  0  0  0  0  0  0  0  0  0  0  0
   58.2800   25.8770   46.9140 O   0  0  0  0  0  0  0  0  0  0  0  0
   58.9370   24.8910   46.1230 C   0  0  0  0  0  0  0  0  0  0  0  0
   59.2120   28.1320   46.8990 C   0  0  0  0  0  0  0  0  0  0  0  0
   59.1080   29.4840   46.5820 C   0  0  0  0  0  0  0  0  0  0  0  0
   60.3760   30.5120   46.9750 S   0  0  0  0  0  0  0  0  0  0  0  0
   60.1130   32.1090   46.5030 C   0  0  0  0  0  0  0  0  0  0  0  0
   59.1471   34.0856   50.5944 H   0  0  0  0  0  0  0  0  0  0  0  0
   60.2979   34.0496   49.2156 H   0  0  0  0  0  0  0  0  0  0  0  0
   58.8621   32.9701   49.2156 H   0  0  0  0  0  0  0  0  0  0  0  0
   60.6483   32.6841   51.5826 H   0  0  0  0  0  0  0  0  0  0  0  0
   59.8611   31.4286   50.5449 H   0  0  0  0  0  0  0  0  0  0  0  0
   62.3690   31.2517   51.6763 H   0  0  0  0  0  0  0  0  0  0  0  0
   62.1088   30.0914   50.3299 H   0  0  0  0  0  0  0  0  0  0  0  0
   63.5544   31.1577   50.3299 H   0  0  0  0  0  0  0  0  0  0  0  0
   61.9354   34.1792   50.2485 H   0  0  0  0  0  0  0  0  0  0  0  0
   63.4788   33.1960   50.2354 H   0  0  0  0  0  0  0  0  0  0  0  0
   62.2654   34.7607   48.1070 H   0  0  0  0  0  0  0  0  0  0  0  0
   63.8930   33.9315   48.2149 H   0  0  0  0  0  0  0  0  0  0  0  0
   62.3420   31.8950   47.7430 H   0  0  0  0  0  0  0  0  0  0  0  0
   63.1410   32.7610   46.5610 H   0  0  0  0  0  0  0  0  0  0  0  0
   61.4845   35.2498   46.6006 H   0  0  0  0  0  0  0  0  0  0  0  0
   59.3135   35.7963   45.5323 H   0  0  0  0  0  0  0  0  0  0  0  0
   57.6643   34.0106   45.0484 H   0  0  0  0  0  0  0  0  0  0  0  0
   55.6642   30.7572   43.2359 H   0  0  0  0  0  0  0  0  0  0  0  0
   56.7295   29.3216   43.0601 H   0  0  0  0  0  0  0  0  0  0  0  0
   54.9444   29.1208   43.0601 H   0  0  0  0  0  0  0  0  0  0  0  0
   55.8433   25.1509   46.6844 H   0  0  0  0  0  0  0  0  0  0  0  0
   54.9448   25.1589   45.1290 H   0  0  0  0  0  0  0  0  0  0  0  0
   56.7397   25.0882   45.1290 H   0  0  0  0  0  0  0  0  0  0  0  0
   59.4254   24.1580   46.7820 H   0  0  0  0  0  0  0  0  0  0  0  0
   58.1990   24.3788   45.4881 H   0  0  0  0  0  0  0  0  0  0  0  0
   59.6939   25.3748   45.4881 H   0  0  0  0  0  0  0  0  0  0  0  0
   60.1175   27.7607   47.4012 H   0  0  0  0  0  0  0  0  0  0  0  0
  1  2  1  0
  2  3  1  0
  3  4  1  0
  3  5  1  0
  5  6  1  0
  6  7  1  0
  7  8  1  0
  8  9  2  0
  9 10  1  0
 10 11  2  0
 11 12  1  0
 12 13  1  0
 13 14  2  0
 13 15  1  0
 15 16  2  0
 16 17  1  0
 17 18  1  0
 16 19  1  0
 19 20  1  0
 20 21  1  0
 19 22  2  0
 22 23  1  0
 23 24  1  0
 22 25  1  0
 25 26  2  0
 26 27  1  0
 27 28  1  0
 28  8  1  0
 28 12  2  0
 26 15  1  0
  1 29  1  0
  1 30  1  0
  1 31  1  0
  2 32  1  0
  2 33  1  0
  4 34  1  0
  4 35  1  0
  4 36  1  0
  5 37  1  0
  5 38  1  0
  6 39  1  0
  6 40  1  0
  7 41  1  0
  7 42  1  0
  9 43  1  0
 10 44  1  0
 11 45  1  0
 18 46  1  0
 18 47  1  0
 18 48  1  0
 21 49  1  0
 21 50  1  0
 21 51  1  0
 24 52  1  0
 24 53  1  0
 24 54  1  0
 25 55  1  0
M  CHG  1   7   1
M  END
>  <UniqueID>  (11) 
10

>  <SMILES>  (11) 
CCN(C)CC[NH2+]c1cccc2c(=O)c3c(OC)c(OC)c(OC)cc3sc12

>  <Energy>  (11) 
81.53334648786982

>  <Genealogy>  (11) 
CCN(C)CC[NH2+]c1cccc2c(=O)c3c(OC)c(OC)c(OC)cc3sc12 (protonated)
CCN(C)CC[NH2+]c1cccc2c(=O)c3c(OC)c(OC)c(OC)cc3sc12 (3D coordinates assigned)
CCN(C)CC[NH2+]c1cccc2c(=O)c3c(OC)c(OC)c(OC)cc3sc12 (optimized conformer: 81.53334648786982 kcal/mol)

>  <smiles>  (11) 
CCN(C)CCNc1cccc2c(=O)c3c(OC)c(OC)c(OC)cc3sc12

>  <score_type>  (11) 
oracle

>  <origin>  (11) 
adg

>  <m_score__min__energy>  (11) 
-6.2999999999999998

>  <m_primary>  (11) 
energy

$$$$
11:0
     RDKit          3D

 55 58  0  0  0  0  0  0  0  0999 V2000
   61.5510   31.2460   49.2010 C   0  0  0  0  0  0  0  0  0  0  0  0
   62.1970   32.1940   48.2970 N   0  0  0  0  0  0  0  0  0  0  0  0
   63.3700   31.9830   47.6680 C   0  0  0  0  0  0  0  0  0  0  0  0
   63.6450   33.0350   46.8170 C   0  0  0  0  0  0  0  0  0  0  0  0
   62.5950   33.9240   46.9340 C   0  0  0  0  0  0  0  0  0  0  0  0
   61.7260   33.3870   47.8650 C   0  0  0  0  0  0  0  0  0  0  0  0
   60.4600   34.0310   48.2780 C   0  0  0  0  0  0  0  0  0  0  0  0
   60.4280   34.6320   49.3880 O   0  0  0  0  0  0  0  0  0  0  0  0
   59.2430   33.8630   47.5120 N   0  0  1  0  0  0  0  0  0  0  0  0
   59.2230   34.8110   46.3590 C   0  0  0  0  0  0  0  0  0  0  0  0
   59.5510   34.1360   45.0190 C   0  0  0  0  0  0  0  0  0  0  0  0
   58.5300   33.0330   44.7000 C   0  0  0  0  0  0  0  0  0  0  0  0
   58.0530   32.2820   45.9740 C   0  0  1  0  0  0  0  0  0  0  0  0
   57.7120   30.8570   45.7290 N   0  0  0  0  0  0  0  0  0  0  0  0
   57.9990   30.4450   44.3430 C   0  0  0  0  0  0  0  0  0  0  0  0
   57.3570   29.0840   44.0770 C   0  0  0  0  0  0  0  0  0  0  0  0
   57.7380   28.1110   45.1090 N   0  0  0  0  0  0  0  0  0  0  0  0
   57.4340   26.7120   44.9130 C   0  0  0  0  0  0  0  0  0  0  0  0
   56.8510   25.9560   45.9480 C   0  0  0  0  0  0  0  0  0  0  0  0
   56.5500   24.6050   45.7540 C   0  0  0  0  0  0  0  0  0  0  0  0
   56.8220   23.9930   44.5280 C   0  0  0  0  0  0  0  0  0  0  0  0
   56.5260   22.6820   44.3430 F   0  0  0  0  0  0  0  0  0  0  0  0
   57.3960   24.7330   43.4920 C   0  0  0  0  0  0  0  0  0  0  0  0
   57.7010   26.0840   43.6800 C   0  0  0  0  0  0  0  0  0  0  0  0
   58.6220   28.5310   46.2060 C   0  0  0  0  0  0  0  0  0  0  0  0
   58.2020   29.9050   46.7630 C   0  0  0  0  0  0  0  0  0  0  0  0
   59.0670   32.4360   47.1300 C   0  0  0  0  0  0  0  0  0  0  0  0
   61.7503   31.5385   50.2425 H   0  0  0  0  0  0  0  0  0  0  0  0
   60.4659   31.2485   49.0207 H   0  0  0  0  0  0  0  0  0  0  0  0
   61.9503   30.2370   49.0207 H   0  0  0  0  0  0  0  0  0  0  0  0
   64.0135   31.1025   47.8114 H   0  0  0  0  0  0  0  0  0  0  0  0
   64.5289   33.1437   46.1713 H   0  0  0  0  0  0  0  0  0  0  0  0
   62.4738   34.8737   46.3923 H   0  0  0  0  0  0  0  0  0  0  0  0
   58.4320   34.1210   48.1210 H   0  0  0  0  0  0  0  0  0  0  0  0
   58.2200   35.2574   46.2900 H   0  0  0  0  0  0  0  0  0  0  0  0
   59.9989   35.5686   46.5435 H   0  0  0  0  0  0  0  0  0  0  0  0
   59.5279   34.8911   44.2195 H   0  0  0  0  0  0  0  0  0  0  0  0
   60.5507   33.6822   45.0879 H   0  0  0  0  0  0  0  0  0  0  0  0
   57.6569   33.4902   44.2116 H   0  0  0  0  0  0  0  0  0  0  0  0
   59.0214   32.3005   44.0427 H   0  0  0  0  0  0  0  0  0  0  0  0
   57.1123   32.7645   46.2776 H   0  0  0  0  0  0  0  0  0  0  0  0
   57.5859   31.1887   43.6457 H   0  0  0  0  0  0  0  0  0  0  0  0
   59.0870   30.3737   44.1978 H   0  0  0  0  0  0  0  0  0  0  0  0
   56.2628   29.1967   44.0754 H   0  0  0  0  0  0  0  0  0  0  0  0
   57.7082   28.7157   43.1018 H   0  0  0  0  0  0  0  0  0  0  0  0
   56.6311   26.4316   46.9152 H   0  0  0  0  0  0  0  0  0  0  0  0
   56.0974   24.0217   46.5694 H   0  0  0  0  0  0  0  0  0  0  0  0
   57.6085   24.2516   42.5260 H   0  0  0  0  0  0  0  0  0  0  0  0
   58.1527   26.6612   42.8597 H   0  0  0  0  0  0  0  0  0  0  0  0
   58.5715   27.7856   47.0133 H   0  0  0  0  0  0  0  0  0  0  0  0
   59.6477   28.6110   45.8166 H   0  0  0  0  0  0  0  0  0  0  0  0
   57.3979   29.7488   47.4972 H   0  0  0  0  0  0  0  0  0  0  0  0
   59.1020   30.3553   47.2071 H   0  0  0  0  0  0  0  0  0  0  0  0
   58.7026   31.8743   48.0028 H   0  0  0  0  0  0  0  0  0  0  0  0
   60.0385   32.0460   46.7922 H   0  0  0  0  0  0  0  0  0  0  0  0
  1  2  1  0
  2  3  1  0
  3  4  2  0
  4  5  1  0
  5  6  2  0
  6  7  1  0
  7  8  2  0
  7  9  1  0
  9 10  1  0
 10 11  1  0
 11 12  1  0
 12 13  1  0
 13 14  1  0
 14 15  1  0
 15 16  1  0
 16 17  1  0
 17 18  1  0
 18 19  2  0
 19 20  1  0
 20 21  2  0
 21 22  1  0
 21 23  1  0
 23 24  2  0
 17 25  1  0
 25 26  1  0
 13 27  1  0
  6  2  1  0
 27  9  1  0
 26 14  1  0
 24 18  1  0
  1 28  1  0
  1 29  1  0
  1 30  1  0
  3 31  1  0
  4 32  1  0
  5 33  1  0
  9 34  1  1
 10 35  1  0
 10 36  1  0
 11 37  1  0
 11 38  1  0
 12 39  1  0
 12 40  1  0
 13 41  1  1
 15 42  1  0
 15 43  1  0
 16 44  1  0
 16 45  1  0
 19 46  1  0
 20 47  1  0
 23 48  1  0
 24 49  1  0
 25 50  1  0
 25 51  1  0
 26 52  1  0
 26 53  1  0
 27 54  1  0
 27 55  1  0
M  CHG  1   9   1
M  END
>  <UniqueID>  (12) 
11

>  <SMILES>  (12) 
Cn1cccc1C(=O)[N@H+]1CCC[C@@H](N2CCN(c3ccc(F)cc3)CC2)C1

>  <Energy>  (12) 
110.87610670795691

>  <Genealogy>  (12) 
Cn1cccc1C(=O)[NH+]1CCCC(N2CCN(c3ccc(F)cc3)CC2)C1 (protonated)
Cn1cccc1C(=O)[N@H+]1CCC[C@@H](N2CCN(c3ccc(F)cc3)CC2)C1 (chirality)
Cn1cccc1C(=O)[N@H+]1CCC[C@@H](N2CCN(c3ccc(F)cc3)CC2)C1 (3D coordinates assigned)
Cn1cccc1C(=O)[N@H+]1CCC[C@@H](N2CCN(c3ccc(F)cc3)CC2)C1 (nonaromatic ring conformer: 110.87610670795691 kcal/mol)

>  <smiles>  (12) 
Cn1cccc1C(=O)N1CCCC(N2CCN(c3ccc(F)cc3)CC2)C1

>  <score_type>  (12) 
oracle

>  <origin>  (12) 
adg

>  <m_score__min__energy>  (12) 
-6.7699999999999996

>  <m_primary>  (12) 
energy

$$$$
12:0
     RDKit          3D

 49 52  0  0  0  0  0  0  0  0999 V2000
   63.7740   33.7910   48.0390 C   0  0  0  0  0  0  0  0  0  0  0  0
   63.0290   33.7690   49.2210 C   0  0  0  0  0  0  0  0  0  0  0  0
   61.6420   33.6040   49.1740 C   0  0  0  0  0  0  0  0  0  0  0  0
   60.9880   33.4440   47.9410 C   0  0  0  0  0  0  0  0  0  0  0  0
   59.4870   33.2940   47.8850 C   0  0  0  0  0  0  0  0  0  0  0  0
   59.0230   33.0810   46.5030 N   0  0  0  0  0  0  0  0  0  0  0  0
   58.4810   34.2170   45.7440 C   0  0  0  0  0  0  0  0  0  0  0  0
   57.1670   33.8180   45.0810 C   0  0  0  0  0  0  0  0  0  0  0  0
   57.4010   32.6540   44.1160 C   0  0  0  0  0  0  0  0  0  0  0  0
   58.1840   31.5320   44.7560 C   0  0  0  0  0  0  0  0  0  0  0  0
   58.1480   30.2580   44.1670 C   0  0  0  0  0  0  0  0  0  0  0  0
   58.8870   29.1990   44.7080 C   0  0  0  0  0  0  0  0  0  0  0  0
   58.7960   27.8230   44.1010 C   0  0  0  0  0  0  0  0  0  0  0  0
   57.4110   27.3310   44.1460 N   0  0  0  0  0  0  0  0  0  0  0  0
   57.2650   26.3610   45.2010 C   0  0  0  0  0  0  0  0  0  0  0  0
   58.2960   25.4550   45.4910 C   0  0  0  0  0  0  0  0  0  0  0  0
   58.1280   24.5040   46.4990 C   0  0  0  0  0  0  0  0  0  0  0  0
   56.9250   24.4580   47.2050 C   0  0  0  0  0  0  0  0  0  0  0  0
   55.9270   25.3320   46.9050 N   0  0  0  0  0  0  0  0  0  0  0  0
   56.0670   26.2710   45.9300 C   0  0  0  0  0  0  0  0  0  0  0  0
   59.6660   29.4180   45.8500 C   0  0  0  0  0  0  0  0  0  0  0  0
   59.7270   30.6860   46.4320 C   0  0  0  0  0  0  0  0  0  0  0  0
   58.9930   31.7620   45.8950 C   0  0  0  0  0  0  0  0  0  0  0  0
   61.7440   33.4840   46.7550 C   0  0  0  0  0  0  0  0  0  0  0  0
   63.1310   33.6530   46.8060 C   0  0  0  0  0  0  0  0  0  0  0  0
   64.8660   33.9169   48.0791 H   0  0  0  0  0  0  0  0  0  0  0  0
   63.5355   33.8818   50.1909 H   0  0  0  0  0  0  0  0  0  0  0  0
   61.0595   33.5994   50.1071 H   0  0  0  0  0  0  0  0  0  0  0  0
   59.1896   32.4319   48.5000 H   0  0  0  0  0  0  0  0  0  0  0  0
   59.0305   34.2192   48.2665 H   0  0  0  0  0  0  0  0  0  0  0  0
   58.3035   35.0607   46.4271 H   0  0  0  0  0  0  0  0  0  0  0  0
   59.2031   34.5123   44.9685 H   0  0  0  0  0  0  0  0  0  0  0  0
   56.4471   33.5113   45.8541 H   0  0  0  0  0  0  0  0  0  0  0  0
   56.7692   34.6772   44.5211 H   0  0  0  0  0  0  0  0  0  0  0  0
   56.4261   32.2639   43.7883 H   0  0  0  0  0  0  0  0  0  0  0  0
   57.9867   33.0326   43.2653 H   0  0  0  0  0  0  0  0  0  0  0  0
   57.5326   30.0901   43.2709 H   0  0  0  0  0  0  0  0  0  0  0  0
   59.1310   27.8662   43.0541 H   0  0  0  0  0  0  0  0  0  0  0  0
   59.4360   27.1375   44.6759 H   0  0  0  0  0  0  0  0  0  0  0  0
   57.1630   26.8890   43.2290 H   0  0  0  0  0  0  0  0  0  0  0  0
   56.7560   28.1330   44.3070 H   0  0  0  0  0  0  0  0  0  0  0  0
   59.2376   25.4940   44.9236 H   0  0  0  0  0  0  0  0  0  0  0  0
   58.9369   23.7969   46.7348 H   0  0  0  0  0  0  0  0  0  0  0  0
   56.7840   23.7151   48.0039 H   0  0  0  0  0  0  0  0  0  0  0  0
   55.2394   26.9620   45.7118 H   0  0  0  0  0  0  0  0  0  0  0  0
   60.2338   28.5860   46.2919 H   0  0  0  0  0  0  0  0  0  0  0  0
   60.3556   30.8466   47.3203 H   0  0  0  0  0  0  0  0  0  0  0  0
   61.2410   33.3817   45.7821 H   0  0  0  0  0  0  0  0  0  0  0  0
   63.7164   33.6773   45.8750 H   0  0  0  0  0  0  0  0  0  0  0  0
  1  2  2  0
  2  3  1  0
  3  4  2  0
  4  5  1  0
  5  6  1  0
  6  7  1  0
  7  8  1  0
  8  9  1  0
  9 10  1  0
 10 11  2  0
 11 12  1  0
 12 13  1  0
 13 14  1  0
 14 15  1  0
 15 16  2  0
 16 17  1  0
 17 18  2  0
 18 19  1  0
 19 20  2  0
 12 21  2  0
 21 22  1  0
 22 23  2  0
  4 24  1  0
 24 25  2  0
 25  1  1  0
 23  6  1  0
 23 10  1  0
 20 15  1  0
  1 26  1  0
  2 27  1  0
  3 28  1  0
  5 29  1  0
  5 30  1  0
  7 31  1  0
  7 32  1  0
  8 33  1  0
  8 34  1  0
  9 35  1  0
  9 36  1  0
 11 37  1  0
 13 38  1  0
 13 39  1  0
 14 40  1  0
 14 41  1  0
 16 42  1  0
 17 43  1  0
 18 44  1  0
 20 45  1  0
 21 46  1  0
 22 47  1  0
 24 48  1  0
 25 49  1  0
M  CHG  1  14   1
M  END
>  <UniqueID>  (13) 
12

>  <SMILES>  (13) 
c1ccc(CN2CCCc3cc(C[NH2+]c4cccnc4)ccc32)cc1

>  <Energy>  (13) 
54.35804779821211

>  <Genealogy>  (13) 
c1ccc(CN2CCCc3cc(C[NH2+]c4cccnc4)ccc32)cc1 (protonated)
c1ccc(CN2CCCc3cc(C[NH2+]c4cccnc4)ccc32)cc1 (3D coordinates assigned)
c1ccc(CN2CCCc3cc(C[NH2+]c4cccnc4)ccc32)cc1 (nonaromatic ring conformer: 54.35804779821211 kcal/mol)

>  <smiles>  (13) 
c1ccc(CN2CCCc3cc(CNc4cccnc4)ccc32)cc1

>  <score_type>  (13) 
oracle

>  <origin>  (13) 
adg

>  <m_score__min__energy>  (13) 
-7.1900000000000004

>  <m_primary>  (13) 
energy

$$$$
13:0
     RDKit          3D

 85 87  0  0  0  0  0  0  0  0999 V2000
   62.4190   33.1370   51.2440 C   0  0  0  0  0  0  0  0  0  0  0  0
   62.5700   32.1850   50.0570 C   0  0  0  0  0  0  0  0  0  0  0  0
   61.6400   32.5590   48.9660 N   0  0  0  0  0  0  0  0  0  0  0  0
   62.2320   32.2590   47.6390 C   0  0  0  0  0  0  0  0  0  0  0  0
   62.8420   33.5240   47.0370 C   0  0  0  0  0  0  0  0  0  0  0  0
   61.2550   33.9850   49.0640 C   0  0  0  0  0  0  0  0  0  0  0  0
   59.7300   34.1260   49.0360 C   0  0  0  0  0  0  0  0  0  0  0  0
   59.1430   33.1070   48.2270 O   0  0  0  0  0  0  0  0  0  0  0  0
   58.8590   33.1940   46.8520 C   0  0  0  0  0  0  0  0  0  0  0  0
   58.8400   34.4410   46.2040 C   0  0  0  0  0  0  0  0  0  0  0  0
   58.5260   34.5350   44.8570 C   0  0  0  0  0  0  0  0  0  0  0  0
   58.1840   33.3980   44.1370 C   0  0  0  0  0  0  0  0  0  0  0  0
   58.1610   32.1220   44.7490 C   0  0  0  0  0  0  0  0  0  0  0  0
   58.5850   32.0110   46.1050 C   0  0  0  0  0  0  0  0  0  0  0  0
   58.7250   30.7200   46.6680 C   0  0  0  0  0  0  0  0  0  0  0  0
   59.2710   30.5560   47.9900 N   0  0  0  0  0  0  0  0  0  0  0  0
   60.3180   29.5770   48.3120 C   0  0  0  0  0  0  0  0  0  0  0  0
   60.5880   29.4780   49.8200 C   0  0  0  0  0  0  0  0  0  0  0  0
   59.3830   29.9710   50.6410 C   0  0  0  0  0  0  0  0  0  0  0  0
   59.3070   31.4400   50.7040 N   0  0  0  0  0  0  0  0  0  0  0  0
   57.9220   31.9280   50.7600 C   0  0  0  0  0  0  0  0  0  0  0  0
   57.2220   31.3720   52.0080 C   0  0  0  0  0  0  0  0  0  0  0  0
   57.7640   31.9750   53.3230 C   0  0  0  0  0  0  0  0  0  0  0  0
   59.2320   32.2110   53.3110 N   0  0  0  0  0  0  0  0  0  0  0  0
   59.5520   33.6540   53.5360 C   0  0  0  0  0  0  0  0  0  0  0  0
   58.6290   34.5760   52.7320 C   0  0  0  0  0  0  0  0  0  0  0  0
   59.8730   31.3500   54.3390 C   0  0  0  0  0  0  0  0  0  0  0  0
   61.1530   30.6770   53.8250 C   0  0  0  0  0  0  0  0  0  0  0  0
   58.4440   29.5820   45.8910 C   0  0  0  0  0  0  0  0  0  0  0  0
   58.6110   28.2860   46.4220 C   0  0  0  0  0  0  0  0  0  0  0  0
   58.4060   27.1590   45.6310 C   0  0  0  0  0  0  0  0  0  0  0  0
   58.0410   27.3030   44.2980 C   0  0  0  0  0  0  0  0  0  0  0  0
   57.8420   28.5730   43.7600 C   0  0  0  0  0  0  0  0  0  0  0  0
   57.9990   29.7400   44.5530 C   0  0  0  0  0  0  0  0  0  0  0  0
   57.7560   31.0000   44.0480 N   0  0  0  0  0  0  0  0  0  0  0  0
   57.0240   31.1530   42.7700 C   0  0  0  0  0  0  0  0  0  0  0  0
   62.5089   32.5701   52.1824 H   0  0  0  0  0  0  0  0  0  0  0  0
   63.2068   33.9036   51.2018 H   0  0  0  0  0  0  0  0  0  0  0  0
   61.4327   33.6222   51.2018 H   0  0  0  0  0  0  0  0  0  0  0  0
   63.6035   32.2341   49.6836 H   0  0  0  0  0  0  0  0  0  0  0  0
   62.3333   31.1636   50.3897 H   0  0  0  0  0  0  0  0  0  0  0  0
   63.0164   31.4966   47.7547 H   0  0  0  0  0  0  0  0  0  0  0  0
   61.4430   31.8863   46.9692 H   0  0  0  0  0  0  0  0  0  0  0  0
   63.1659   34.1956   47.8457 H   0  0  0  0  0  0  0  0  0  0  0  0
   63.7086   33.2534   46.4159 H   0  0  0  0  0  0  0  0  0  0  0  0
   62.0906   34.0336   46.4159 H   0  0  0  0  0  0  0  0  0  0  0  0
   61.6409   34.4013   50.0062 H   0  0  0  0  0  0  0  0  0  0  0  0
   61.6810   34.5306   48.2091 H   0  0  0  0  0  0  0  0  0  0  0  0
   59.3409   34.0416   50.0614 H   0  0  0  0  0  0  0  0  0  0  0  0
   59.4737   35.1070   48.6095 H   0  0  0  0  0  0  0  0  0  0  0  0
   59.0770   35.3527   46.7720 H   0  0  0  0  0  0  0  0  0  0  0  0
   58.5479   35.5143   44.3565 H   0  0  0  0  0  0  0  0  0  0  0  0
   57.9263   33.4907   43.0716 H   0  0  0  0  0  0  0  0  0  0  0  0
   58.7200   30.9490   48.7870 H   0  0  0  0  0  0  0  0  0  0  0  0
   60.0022   28.5894   47.9448 H   0  0  0  0  0  0  0  0  0  0  0  0
   61.2475   29.9109   47.8277 H   0  0  0  0  0  0  0  0  0  0  0  0
   60.7918   28.4285   50.0787 H   0  0  0  0  0  0  0  0  0  0  0  0
   61.4528   30.1145   50.0589 H   0  0  0  0  0  0  0  0  0  0  0  0
   58.4609   29.5896   50.1781 H   0  0  0  0  0  0  0  0  0  0  0  0
   59.5037   29.5981   51.6688 H   0  0  0  0  0  0  0  0  0  0  0  0
   59.7720   31.8390   49.8550 H   0  0  0  0  0  0  0  0  0  0  0  0
   57.9240   33.0272   50.8022 H   0  0  0  0  0  0  0  0  0  0  0  0
   57.3829   31.5913   49.8622 H   0  0  0  0  0  0  0  0  0  0  0  0
   56.1475   31.5961   51.9363 H   0  0  0  0  0  0  0  0  0  0  0  0
   57.4145   30.2894   52.0385 H   0  0  0  0  0  0  0  0  0  0  0  0
   57.2590   32.9363   53.4985 H   0  0  0  0  0  0  0  0  0  0  0  0
   57.5621   31.2438   54.1196 H   0  0  0  0  0  0  0  0  0  0  0  0
   59.6000   31.8900   52.3860 H   0  0  0  0  0  0  0  0  0  0  0  0
   59.4371   33.8811   54.6062 H   0  0  0  0  0  0  0  0  0  0  0  0
   60.5851   33.8302   53.2019 H   0  0  0  0  0  0  0  0  0  0  0  0
   58.0232   35.1811   53.4225 H   0  0  0  0  0  0  0  0  0  0  0  0
   59.2354   35.2398   52.0982 H   0  0  0  0  0  0  0  0  0  0  0  0
   57.9659   33.9689   52.0982 H   0  0  0  0  0  0  0  0  0  0  0  0
   60.1263   31.9706   55.2112 H   0  0  0  0  0  0  0  0  0  0  0  0
   59.1595   30.5553   54.6024 H   0  0  0  0  0  0  0  0  0  0  0  0
   61.7662   30.3546   54.6794 H   0  0  0  0  0  0  0  0  0  0  0  0
   60.8871   29.8021   53.2136 H   0  0  0  0  0  0  0  0  0  0  0  0
   61.7231   31.3920   53.2136 H   0  0  0  0  0  0  0  0  0  0  0  0
   58.9070   28.1643   47.4744 H   0  0  0  0  0  0  0  0  0  0  0  0
   58.5329   26.1546   46.0611 H   0  0  0  0  0  0  0  0  0  0  0  0
   57.9088   26.4124   43.6660 H   0  0  0  0  0  0  0  0  0  0  0  0
   57.5582   28.6730   42.7020 H   0  0  0  0  0  0  0  0  0  0  0  0
   55.9666   31.3740   42.9773 H   0  0  0  0  0  0  0  0  0  0  0  0
   57.4646   31.9785   42.1916 H   0  0  0  0  0  0  0  0  0  0  0  0
   57.0971   30.2202   42.1916 H   0  0  0  0  0  0  0  0  0  0  0  0
  1  2  1  0
  2  3  1  0
  3  4  1  0
  4  5  1  0
  3  6  1  0
  6  7  1  0
  7  8  1  0
  8  9  1  0
  9 10  2  0
 10 11  1  0
 11 12  2  0
 12 13  1  0
 13 14  2  0
 14 15  1  0
 15 16  1  0
 16 17  1  0
 17 18  1  0
 18 19  1  0
 19 20  1  0
 20 21  1  0
 21 22  1  0
 22 23  1  0
 23 24  1  0
 24 25  1  0
 25 26  1  0
 24 27  1  0
 27 28  1  0
 15 29  2  0
 29 30  1  0
 30 31  2  0
 31 32  1  0
 32 33  2  0
 33 34  1  0
 34 35  2  0
 35 36  1  0
 14  9  1  0
 34 29  1  0
 35 13  1  0
  1 37  1  0
  1 38  1  0
  1 39  1  0
  2 40  1  0
  2 41  1  0
  4 42  1  0
  4 43  1  0
  5 44  1  0
  5 45  1  0
  5 46  1  0
  6 47  1  0
  6 48  1  0
  7 49  1  0
  7 50  1  0
 10 51  1  0
 11 52  1  0
 12 53  1  0
 16 54  1  0
 17 55  1  0
 17 56  1  0
 18 57  1  0
 18 58  1  0
 19 59  1  0
 19 60  1  0
 20 61  1  0
 21 62  1  0
 21 63  1  0
 22 64  1  0
 22 65  1  0
 23 66  1  0
 23 67  1  0
 24 68  1  0
 25 69  1  0
 25 70  1  0
 26 71  1  0
 26 72  1  0
 26 73  1  0
 27 74  1  0
 27 75  1  0
 28 76  1  0
 28 77  1  0
 28 78  1  0
 30 79  1  0
 31 80  1  0
 32 81  1  0
 33 82  1  0
 36 83  1  0
 36 84  1  0
 36 85  1  0
M  CHG  2  24   1  35   1
M  END
>  <UniqueID>  (14) 
13

>  <SMILES>  (14) 
CCN(CC)CCOc1cccc2c1c(NCCCNCCC[NH+](CC)CC)c1ccccc1[n+]2C

>  <Energy>  (14) 
110.4350081146271

>  <Genealogy>  (14) 
CCN(CC)CCOc1cccc2c1c(NCCCNCCC[NH+](CC)CC)c1ccccc1[n+]2C (protonated)
CCN(CC)CCOc1cccc2c1c(NCCCNCCC[NH+](CC)CC)c1ccccc1[n+]2C (3D coordinates assigned)
CCN(CC)CCOc1cccc2c1c(NCCCNCCC[NH+](CC)CC)c1ccccc1[n+]2C (optimized conformer: 110.4350081146271 kcal/mol)

>  <smiles>  (14) 
CCN(CC)CCCNCCCNc1c2ccccc2[n+](C)c2cccc(OCCN(CC)CC)c12

>  <score_type>  (14) 
oracle

>  <origin>  (14) 
adg

>  <m_score__min__energy>  (14) 
-4.9400000000000004

>  <m_primary>  (14) 
energy

$$$$
14:0
     RDKit          3D

 70 72  0  0  0  0  0  0  0  0999 V2000
   57.7990   26.1030   46.6730 C   0  0  0  0  0  0  0  0  0  0  0  0
   59.0840   26.4420   47.4300 C   0  0  0  0  0  0  0  0  0  0  0  0
   59.7100   27.6840   46.9150 N   0  0  0  0  0  0  0  0  0  0  0  0
   60.4240   27.4510   45.6320 C   0  0  0  0  0  0  0  0  0  0  0  0
   60.8190   28.7840   45.0050 C   0  0  0  0  0  0  0  0  0  0  0  0
   60.6070   28.2700   47.9410 C   0  0  0  0  0  0  0  0  0  0  0  0
   59.8860   29.3450   48.7680 C   0  0  0  0  0  0  0  0  0  0  0  0
   58.6330   29.7540   48.1310 N   0  0  0  0  0  0  0  0  0  0  0  0
   58.5900   30.7800   47.1250 C   0  0  0  0  0  0  0  0  0  0  0  0
   58.0160   30.5210   45.8680 C   0  0  0  0  0  0  0  0  0  0  0  0
   57.5800   29.2220   45.5270 C   0  0  0  0  0  0  0  0  0  0  0  0
   56.9390   28.9820   44.3150 C   0  0  0  0  0  0  0  0  0  0  0  0
   56.7170   30.0280   43.4270 C   0  0  0  0  0  0  0  0  0  0  0  0
   57.1760   31.3110   43.7240 C   0  0  0  0  0  0  0  0  0  0  0  0
   57.8800   31.5770   44.9270 C   0  0  0  0  0  0  0  0  0  0  0  0
   58.4140   32.8240   45.2000 N   0  0  0  0  0  0  0  0  0  0  0  0
   58.5060   33.8390   44.1250 C   0  0  0  0  0  0  0  0  0  0  0  0
   58.9020   33.1090   46.4620 C   0  0  0  0  0  0  0  0  0  0  0  0
   59.2390   34.4300   46.8520 C   0  0  0  0  0  0  0  0  0  0  0  0
   59.7900   34.6960   48.1050 C   0  0  0  0  0  0  0  0  0  0  0  0
   60.0240   33.6570   49.0120 C   0  0  0  0  0  0  0  0  0  0  0  0
   60.6020   33.8660   50.2740 O   0  0  0  0  0  0  0  0  0  0  0  0
   62.0000   33.8350   50.5700 C   0  0  0  0  0  0  0  0  0  0  0  0
   62.8300   34.0970   49.3070 C   0  0  0  0  0  0  0  0  0  0  0  0
   63.1690   32.8270   48.6170 N   0  0  0  0  0  0  0  0  0  0  0  0
   63.7350   33.1020   47.2750 C   0  0  0  0  0  0  0  0  0  0  0  0
   62.7360   33.8440   46.3830 C   0  0  0  0  0  0  0  0  0  0  0  0
   64.0880   32.0080   49.4410 C   0  0  0  0  0  0  0  0  0  0  0  0
   65.3630   32.7930   49.7380 C   0  0  0  0  0  0  0  0  0  0  0  0
   59.6430   32.3610   48.6700 C   0  0  0  0  0  0  0  0  0  0  0  0
   59.0530   32.0750   47.4210 C   0  0  0  0  0  0  0  0  0  0  0  0
   56.9946   25.8908   47.3927 H   0  0  0  0  0  0  0  0  0  0  0  0
   57.5100   26.9556   46.0409 H   0  0  0  0  0  0  0  0  0  0  0  0
   57.9682   25.2188   46.0409 H   0  0  0  0  0  0  0  0  0  0  0  0
   58.8455   26.5777   48.4952 H   0  0  0  0  0  0  0  0  0  0  0  0
   59.7948   25.6145   47.2887 H   0  0  0  0  0  0  0  0  0  0  0  0
   61.3291   26.8554   45.8218 H   0  0  0  0  0  0  0  0  0  0  0  0
   59.7594   26.9104   44.9420 H   0  0  0  0  0  0  0  0  0  0  0  0
   61.0351   29.5133   45.7997 H   0  0  0  0  0  0  0  0  0  0  0  0
   61.7145   28.6449   44.3816 H   0  0  0  0  0  0  0  0  0  0  0  0
   59.9923   29.1553   44.3816 H   0  0  0  0  0  0  0  0  0  0  0  0
   60.9505   27.4710   48.6145 H   0  0  0  0  0  0  0  0  0  0  0  0
   61.4584   28.7411   47.4280 H   0  0  0  0  0  0  0  0  0  0  0  0
   59.6650   28.9405   49.7668 H   0  0  0  0  0  0  0  0  0  0  0  0
   60.5419   30.2250   48.8412 H   0  0  0  0  0  0  0  0  0  0  0  0
   57.7740   29.1810   48.3030 H   0  0  0  0  0  0  0  0  0  0  0  0
   57.7488   28.3904   46.2270 H   0  0  0  0  0  0  0  0  0  0  0  0
   56.6081   27.9644   44.0599 H   0  0  0  0  0  0  0  0  0  0  0  0
   56.1773   29.8432   42.4865 H   0  0  0  0  0  0  0  0  0  0  0  0
   56.9892   32.1302   43.0141 H   0  0  0  0  0  0  0  0  0  0  0  0
   58.5967   34.8398   44.5724 H   0  0  0  0  0  0  0  0  0  0  0  0
   59.3893   33.6344   43.5021 H   0  0  0  0  0  0  0  0  0  0  0  0
   57.6003   33.7965   43.5021 H   0  0  0  0  0  0  0  0  0  0  0  0
   59.0624   35.2607   46.1528 H   0  0  0  0  0  0  0  0  0  0  0  0
   60.0425   35.7301   48.3822 H   0  0  0  0  0  0  0  0  0  0  0  0
   62.2275   34.6088   51.3180 H   0  0  0  0  0  0  0  0  0  0  0  0
   62.2559   32.8387   50.9598 H   0  0  0  0  0  0  0  0  0  0  0  0
   62.2510   34.7343   48.6224 H   0  0  0  0  0  0  0  0  0  0  0  0
   63.7656   34.5953   49.6010 H   0  0  0  0  0  0  0  0  0  0  0  0
   64.6388   33.7186   47.3883 H   0  0  0  0  0  0  0  0  0  0  0  0
   63.9731   32.1397   46.7983 H   0  0  0  0  0  0  0  0  0  0  0  0
   62.0117   34.3820   47.0123 H   0  0  0  0  0  0  0  0  0  0  0  0
   63.2748   34.5626   45.7479 H   0  0  0  0  0  0  0  0  0  0  0  0
   62.2037   33.1205   45.7479 H   0  0  0  0  0  0  0  0  0  0  0  0
   63.5928   31.7459   50.3876 H   0  0  0  0  0  0  0  0  0  0  0  0
   64.3480   31.0922   48.8898 H   0  0  0  0  0  0  0  0  0  0  0  0
   65.4974   32.8758   50.8266 H   0  0  0  0  0  0  0  0  0  0  0  0
   66.2261   32.2696   49.3007 H   0  0  0  0  0  0  0  0  0  0  0  0
   65.2843   33.7993   49.3007 H   0  0  0  0  0  0  0  0  0  0  0  0
   59.8056   31.5443   49.3887 H   0  0  0  0  0  0  0  0  0  0  0  0
  1  2  1  0
  2  3  1  0
  3  4  1  0
  4  5  1  0
  3  6  1  0
  6  7  1  0
  7  8  1  0
  8  9  1  0
  9 10  2  0
 10 11  1  0
 11 12  2  0
 12 13  1  0
 13 14  2  0
 14 15  1  0
 15 16  2  0
 16 17  1  0
 16 18  1  0
 18 19  2  0
 19 20  1  0
 20 21  2  0
 21 22  1  0
 22 23  1  0
 23 24  1  0
 24 25  1  0
 25 26  1  0
 26 27  1  0
 25 28  1  0
 28 29  1  0
 21 30  1  0
 30 31  2  0
 31  9  1  0
 15 10  1  0
 31 18  1  0
  1 32  1  0
  1 33  1  0
  1 34  1  0
  2 35  1  0
  2 36  1  0
  4 37  1  0
  4 38  1  0
  5 39  1  0
  5 40  1  0
  5 41  1  0
  6 42  1  0
  6 43  1  0
  7 44  1  0
  7 45  1  0
  8 46  1  0
 11 47  1  0
 12 48  1  0
 13 49  1  0
 14 50  1  0
 17 51  1  0
 17 52  1  0
 17 53  1  0
 19 54  1  0
 20 55  1  0
 23 56  1  0
 23 57  1  0
 24 58  1  0
 24 59  1  0
 26 60  1  0
 26 61  1  0
 27 62  1  0
 27 63  1  0
 27 64  1  0
 28 65  1  0
 28 66  1  0
 29 67  1  0
 29 68  1  0
 29 69  1  0
 30 70  1  0
M  CHG  1  16   1
M  END
>  <UniqueID>  (15) 
14

>  <SMILES>  (15) 
CCN(CC)CCNc1c2ccccc2[n+](C)c2ccc(OCCN(CC)CC)cc12

>  <Energy>  (15) 
87.6287620362698

>  <Genealogy>  (15) 
CCN(CC)CCNc1c2ccccc2[n+](C)c2ccc(OCCN(CC)CC)cc12 (3D coordinates assigned)
CCN(CC)CCNc1c2ccccc2[n+](C)c2ccc(OCCN(CC)CC)cc12 (optimized conformer: 87.6287620362698 kcal/mol)

>  <smiles>  (15) 
CCN(CC)CCNc1c2ccccc2[n+](C)c2ccc(OCCN(CC)CC)cc12

>  <score_type>  (15) 
oracle

>  <origin>  (15) 
adg

>  <m_score__min__energy>  (15) 
-6.4199999999999999

>  <m_primary>  (15) 
energy

$$$$
15:0
     RDKit          3D

 67 70  0  0  0  0  0  0  0  0999 V2000
   65.3130   32.6850   49.9070 C   0  0  0  0  0  0  0  0  0  0  0  0
   64.1330   32.1160   49.1140 C   0  0  0  0  0  0  0  0  0  0  0  0
   64.1420   32.5420   47.7030 N   0  0  0  0  0  0  0  0  0  0  0  0
   62.9360   33.3130   47.3500 C   0  0  0  0  0  0  0  0  0  0  0  0
   62.4080   34.1080   48.5510 C   0  0  0  0  0  0  0  0  0  0  0  0
   60.9750   33.8890   48.7480 N   0  0  0  0  0  0  0  0  0  0  0  0
   60.2790   32.8970   47.9760 C   0  0  0  0  0  0  0  0  0  0  0  0
   59.6180   33.2570   46.7910 C   0  0  0  0  0  0  0  0  0  0  0  0
   59.6200   34.5950   46.3410 C   0  0  0  0  0  0  0  0  0  0  0  0
   58.9090   34.9620   45.2030 C   0  0  0  0  0  0  0  0  0  0  0  0
   58.1800   34.0090   44.4990 C   0  0  0  0  0  0  0  0  0  0  0  0
   58.1890   32.6760   44.9090 C   0  0  0  0  0  0  0  0  0  0  0  0
   58.9420   32.2610   46.0370 C   0  0  0  0  0  0  0  0  0  0  0  0
   59.0230   30.9310   46.4130 N   0  0  0  0  0  0  0  0  0  0  0  0
   58.5710   29.8710   45.4840 C   0  0  0  0  0  0  0  0  0  0  0  0
   59.5520   30.5910   47.6450 C   0  0  0  0  0  0  0  0  0  0  0  0
   59.4390   29.2810   48.1720 C   0  0  0  0  0  0  0  0  0  0  0  0
   60.0180   28.9410   49.3950 C   0  0  0  0  0  0  0  0  0  0  0  0
   60.7060   29.8910   50.1460 C   0  0  0  0  0  0  0  0  0  0  0  0
   61.2680   29.4910   51.3690 O   0  0  0  0  0  0  0  0  0  0  0  0
   60.5370   29.1570   52.5520 C   0  0  0  0  0  0  0  0  0  0  0  0
   60.3690   30.4030   53.4570 C   0  0  0  0  0  0  0  0  0  0  0  0
   59.2250   31.3160   53.1330 N   0  0  0  0  0  0  0  0  0  0  0  0
   58.5340   31.6410   54.4110 C   0  0  0  0  0  0  0  0  0  0  0  0
   58.2430   30.7430   52.1850 C   0  0  0  0  0  0  0  0  0  0  0  0
   57.5560   31.9130   51.4900 C   0  0  0  0  0  0  0  0  0  0  0  0
   58.5090   33.0910   51.6430 C   0  0  0  0  0  0  0  0  0  0  0  0
   59.6660   32.5790   52.4960 C   0  0  0  0  0  0  0  0  0  0  0  0
   60.7960   31.2030   49.6620 C   0  0  0  0  0  0  0  0  0  0  0  0
   60.2190   31.5680   48.4290 C   0  0  0  0  0  0  0  0  0  0  0  0
   65.1118   32.5880   50.9841 H   0  0  0  0  0  0  0  0  0  0  0  0
   66.2275   32.1289   49.6533 H   0  0  0  0  0  0  0  0  0  0  0  0
   65.4473   33.7469   49.6533 H   0  0  0  0  0  0  0  0  0  0  0  0
   64.1803   31.0176   49.1510 H   0  0  0  0  0  0  0  0  0  0  0  0
   63.2083   32.4972   49.5719 H   0  0  0  0  0  0  0  0  0  0  0  0
   64.1790   31.6800   47.1120 H   0  0  0  0  0  0  0  0  0  0  0  0
   65.0000   33.1100   47.5060 H   0  0  0  0  0  0  0  0  0  0  0  0
   63.1837   34.0130   46.5385 H   0  0  0  0  0  0  0  0  0  0  0  0
   62.1547   32.6070   47.0319 H   0  0  0  0  0  0  0  0  0  0  0  0
   62.9464   33.7893   49.4557 H   0  0  0  0  0  0  0  0  0  0  0  0
   62.5710   35.1783   48.3563 H   0  0  0  0  0  0  0  0  0  0  0  0
   60.4040   34.6090   49.2450 H   0  0  0  0  0  0  0  0  0  0  0  0
   60.1895   35.3551   46.8958 H   0  0  0  0  0  0  0  0  0  0  0  0
   58.9232   36.0069   44.8595 H   0  0  0  0  0  0  0  0  0  0  0  0
   57.5949   34.3076   43.6166 H   0  0  0  0  0  0  0  0  0  0  0  0
   57.6021   31.9338   44.3480 H   0  0  0  0  0  0  0  0  0  0  0  0
   58.2037   29.0097   46.0613 H   0  0  0  0  0  0  0  0  0  0  0  0
   57.7605   30.2601   44.8502 H   0  0  0  0  0  0  0  0  0  0  0  0
   59.4129   29.5555   44.8502 H   0  0  0  0  0  0  0  0  0  0  0  0
   58.8845   28.5176   47.6065 H   0  0  0  0  0  0  0  0  0  0  0  0
   59.9301   27.9108   49.7704 H   0  0  0  0  0  0  0  0  0  0  0  0
   59.5436   28.7789   52.2688 H   0  0  0  0  0  0  0  0  0  0  0  0
   61.0923   28.3867   53.1073 H   0  0  0  0  0  0  0  0  0  0  0  0
   60.2325   30.0499   54.4898 H   0  0  0  0  0  0  0  0  0  0  0  0
   61.2759   31.0043   53.2956 H   0  0  0  0  0  0  0  0  0  0  0  0
   59.1694   31.3421   55.2577 H   0  0  0  0  0  0  0  0  0  0  0  0
   58.3433   32.7232   54.4598 H   0  0  0  0  0  0  0  0  0  0  0  0
   57.5787   31.0978   54.4598 H   0  0  0  0  0  0  0  0  0  0  0  0
   58.7570   30.1130   51.4441 H   0  0  0  0  0  0  0  0  0  0  0  0
   57.5096   30.1154   52.7125 H   0  0  0  0  0  0  0  0  0  0  0  0
   57.3922   31.6862   50.4262 H   0  0  0  0  0  0  0  0  0  0  0  0
   56.5692   32.1259   51.9270 H   0  0  0  0  0  0  0  0  0  0  0  0
   58.8742   33.4190   50.6586 H   0  0  0  0  0  0  0  0  0  0  0  0
   58.0136   33.9558   52.1084 H   0  0  0  0  0  0  0  0  0  0  0  0
   60.5459   32.3929   51.8626 H   0  0  0  0  0  0  0  0  0  0  0  0
   59.9430   33.3215   53.2589 H   0  0  0  0  0  0  0  0  0  0  0  0
   61.3268   31.9621   50.2554 H   0  0  0  0  0  0  0  0  0  0  0  0
  1  2  1  0
  2  3  1  0
  3  4  1  0
  4  5  1  0
  5  6  1  0
  6  7  1  0
  7  8  2  0
  8  9  1  0
  9 10  2  0
 10 11  1  0
 11 12  2  0
 12 13  1  0
 13 14  2  0
 14 15  1  0
 14 16  1  0
 16 17  2  0
 17 18  1  0
 18 19  2  0
 19 20  1  0
 20 21  1  0
 21 22  1  0
 22 23  1  0
 23 24  1  0
 23 25  1  0
 25 26  1  0
 26 27  1  0
 27 28  1  0
 19 29  1  0
 29 30  2  0
 30  7  1  0
 13  8  1  0
 30 16  1  0
 28 23  1  0
  1 31  1  0
  1 32  1  0
  1 33  1  0
  2 34  1  0
  2 35  1  0
  3 36  1  0
  3 37  1  0
  4 38  1  0
  4 39  1  0
  5 40  1  0
  5 41  1  0
  6 42  1  0
  9 43  1  0
 10 44  1  0
 11 45  1  0
 12 46  1  0
 15 47  1  0
 15 48  1  0
 15 49  1  0
 17 50  1  0
 18 51  1  0
 21 52  1  0
 21 53  1  0
 22 54  1  0
 22 55  1  0
 24 56  1  0
 24 57  1  0
 24 58  1  0
 25 59  1  0
 25 60  1  0
 26 61  1  0
 26 62  1  0
 27 63  1  0
 27 64  1  0
 28 65  1  0
 28 66  1  0
 29 67  1  0
M  CHG  3   3   1  14   1  23   1
M  END
>  <UniqueID>  (16) 
15

>  <SMILES>  (16) 
CC[NH2+]CCNc1c2ccccc2[n+](C)c2ccc(OCC[N+]3(C)CCCC3)cc12

>  <Energy>  (16) 
102.10763215860491

>  <Genealogy>  (16) 
CC[NH2+]CCNc1c2ccccc2[n+](C)c2ccc(OCC[N+]3(C)CCCC3)cc12 (protonated)
CC[NH2+]CCNc1c2ccccc2[n+](C)c2ccc(OCC[N+]3(C)CCCC3)cc12 (3D coordinates assigned)
CC[NH2+]CCNc1c2ccccc2[n+](C)c2ccc(OCC[N+]3(C)CCCC3)cc12 (nonaromatic ring conformer: 102.10763215860491 kcal/mol)

>  <smiles>  (16) 
CCNCCNc1c2ccccc2[n+](C)c2ccc(OCC[N+]3(C)CCCC3)cc12

>  <score_type>  (16) 
oracle

>  <origin>  (16) 
adg

>  <m_score__min__energy>  (16) 
-3.75

>  <m_primary>  (16) 
energy

$$$$
16:0
     RDKit          3D

 75 79  0  0  0  0  0  0  0  0999 V2000
   64.8850   32.6810   49.9880 C   0  0  0  0  0  0  0  0  0  0  0  0
   63.3620   32.7160   50.0230 C   0  0  0  0  0  0  0  0  0  0  0  0
   62.8390   32.7820   48.6380 N   0  0  0  0  0  0  0  0  0  0  0  0
   63.3240   33.9810   47.9080 C   0  0  0  0  0  0  0  0  0  0  0  0
   63.2600   33.8600   46.3790 C   0  0  0  0  0  0  0  0  0  0  0  0
   62.9980   31.5000   47.9130 C   0  0  0  0  0  0  0  0  0  0  0  0
   61.7810   30.5720   48.0810 C   0  0  0  0  0  0  0  0  0  0  0  0
   60.5870   31.3170   48.5150 N   0  0  0  0  0  0  0  0  0  0  0  0
   59.9010   31.8880   47.3680 C   0  0  0  0  0  0  0  0  0  0  0  0
   59.8150   33.2950   47.2600 C   0  0  0  0  0  0  0  0  0  0  0  0
   60.3660   34.0890   48.2810 O   0  0  0  0  0  0  0  0  0  0  0  0
   59.6450   34.5950   49.4010 C   0  0  0  0  0  0  0  0  0  0  0  0
   59.8890   33.6890   50.6080 C   0  0  0  0  0  0  0  0  0  0  0  0
   58.8690   32.5250   50.6770 C   0  0  2  0  0  0  0  0  0  0  0  0
   57.8640   32.6600   51.8190 C   0  0  0  0  0  0  0  0  0  0  0  0
   57.4660   31.2310   52.1510 C   0  0  0  0  0  0  0  0  0  0  0  0
   58.3710   30.3450   51.2970 C   0  0  0  0  0  0  0  0  0  0  0  0
   59.4700   31.1800   50.7860 N   0  0  0  0  0  0  0  0  0  0  0  0
   60.6190   31.1180   51.7140 C   0  0  0  0  0  0  0  0  0  0  0  0
   59.1870   33.8740   46.1510 C   0  0  0  0  0  0  0  0  0  0  0  0
   58.6210   33.0840   45.1590 C   0  0  0  0  0  0  0  0  0  0  0  0
   58.6410   31.6760   45.2420 C   0  0  0  0  0  0  0  0  0  0  0  0
   59.2810   31.0700   46.3740 C   0  0  0  0  0  0  0  0  0  0  0  0
   59.2710   29.6630   46.4790 C   0  0  0  0  0  0  0  0  0  0  0  0
   58.6610   28.9030   45.4890 C   0  0  0  0  0  0  0  0  0  0  0  0
   58.5530   27.5010   45.4420 C   0  0  0  0  0  0  0  0  0  0  0  0
   59.0350   26.5710   46.3760 C   0  0  0  0  0  0  0  0  0  0  0  0
   58.8220   25.2030   46.1450 C   0  0  0  0  0  0  0  0  0  0  0  0
   58.1360   24.7700   44.9950 C   0  0  0  0  0  0  0  0  0  0  0  0
   57.6560   25.7020   44.0640 C   0  0  0  0  0  0  0  0  0  0  0  0
   57.8760   27.0550   44.3100 C   0  0  0  0  0  0  0  0  0  0  0  0
   57.4050   28.3650   43.3660 S   0  0  0  0  0  0  0  0  0  0  0  0
   58.0700   29.5330   44.4040 C   0  0  0  0  0  0  0  0  0  0  0  0
   58.0510   30.8930   44.2610 N   0  0  0  0  0  0  0  0  0  0  0  0
   57.4020   31.5060   43.0850 C   0  0  0  0  0  0  0  0  0  0  0  0
   65.2753   32.6720   51.0164 H   0  0  0  0  0  0  0  0  0  0  0  0
   65.2189   31.7749   49.4612 H   0  0  0  0  0  0  0  0  0  0  0  0
   65.2602   33.5708   49.4612 H   0  0  0  0  0  0  0  0  0  0  0  0
   62.9853   31.8069   50.5146 H   0  0  0  0  0  0  0  0  0  0  0  0
   63.0277   33.6009   50.5844 H   0  0  0  0  0  0  0  0  0  0  0  0
   62.7088   34.8410   48.2113 H   0  0  0  0  0  0  0  0  0  0  0  0
   64.3857   34.1004   48.1698 H   0  0  0  0  0  0  0  0  0  0  0  0
   62.7617   32.9180   46.1063 H   0  0  0  0  0  0  0  0  0  0  0  0
   62.6923   34.7076   45.9676 H   0  0  0  0  0  0  0  0  0  0  0  0
   64.2801   33.8677   45.9676 H   0  0  0  0  0  0  0  0  0  0  0  0
   63.1327   31.7146   46.8426 H   0  0  0  0  0  0  0  0  0  0  0  0
   63.8726   30.9836   48.3355 H   0  0  0  0  0  0  0  0  0  0  0  0
   61.5676   30.0853   47.1179 H   0  0  0  0  0  0  0  0  0  0  0  0
   62.0209   29.8264   48.8533 H   0  0  0  0  0  0  0  0  0  0  0  0
   59.9440   30.6710   49.0300 H   0  0  0  0  0  0  0  0  0  0  0  0
   60.8360   32.0540   49.2100 H   0  0  0  0  0  0  0  0  0  0  0  0
   59.9898   35.6141   49.6304 H   0  0  0  0  0  0  0  0  0  0  0  0
   58.5702   34.6184   49.1682 H   0  0  0  0  0  0  0  0  0  0  0  0
   60.9030   33.2686   50.5370 H   0  0  0  0  0  0  0  0  0  0  0  0
   59.7724   34.2967   51.5175 H   0  0  0  0  0  0  0  0  0  0  0  0
   58.3601   32.6134   49.7058 H   0  0  0  0  0  0  0  0  0  0  0  0
   58.3286   33.1459   52.6897 H   0  0  0  0  0  0  0  0  0  0  0  0
   56.9988   33.2802   51.5419 H   0  0  0  0  0  0  0  0  0  0  0  0
   57.6257   31.0262   53.2199 H   0  0  0  0  0  0  0  0  0  0  0  0
   56.4016   31.0458   51.9441 H   0  0  0  0  0  0  0  0  0  0  0  0
   58.7772   29.5260   51.9087 H   0  0  0  0  0  0  0  0  0  0  0  0
   57.8025   29.9076   50.4630 H   0  0  0  0  0  0  0  0  0  0  0  0
   60.2539   31.1377   52.7515 H   0  0  0  0  0  0  0  0  0  0  0  0
   61.1807   30.1882   51.5405 H   0  0  0  0  0  0  0  0  0  0  0  0
   61.2774   31.9819   51.5405 H   0  0  0  0  0  0  0  0  0  0  0  0
   59.1412   34.9696   46.0641 H   0  0  0  0  0  0  0  0  0  0  0  0
   58.1475   33.5660   44.2910 H   0  0  0  0  0  0  0  0  0  0  0  0
   59.7442   29.1700   47.3410 H   0  0  0  0  0  0  0  0  0  0  0  0
   59.5713   26.9089   47.2750 H   0  0  0  0  0  0  0  0  0  0  0  0
   59.1944   24.4632   46.8689 H   0  0  0  0  0  0  0  0  0  0  0  0
   57.9756   23.6950   44.8257 H   0  0  0  0  0  0  0  0  0  0  0  0
   57.1192   25.3729   43.1621 H   0  0  0  0  0  0  0  0  0  0  0  0
   56.6403   32.2254   43.4200 H   0  0  0  0  0  0  0  0  0  0  0  0
   58.1578   32.0276   42.4794 H   0  0  0  0  0  0  0  0  0  0  0  0
   56.9244   30.7217   42.4794 H   0  0  0  0  0  0  0  0  0  0  0  0
  1  2  1  0
  2  3  1  0
  3  4  1  0
  4  5  1  0
  3  6  1  0
  6  7  1  0
  7  8  1  0
  8  9  1  0
  9 10  2  0
 10 11  1  0
 11 12  1  0
 12 13  1  0
 13 14  1  0
 14 15  1  0
 15 16  1  0
 16 17  1  0
 17 18  1  0
 18 19  1  0
 10 20  1  0
 20 21  2  0
 21 22  1  0
 22 23  2  0
 23 24  1  0
 24 25  2  0
 25 26  1  0
 26 27  2  0
 27 28  1  0
 28 29  2  0
 29 30  1  0
 30 31  2  0
 31 32  1  0
 32 33  1  0
 33 34  2  0
 34 35  1  0
 23  9  1  0
 33 25  1  0
 18 14  1  0
 34 22  1  0
 31 26  1  0
  1 36  1  0
  1 37  1  0
  1 38  1  0
  2 39  1  0
  2 40  1  0
  4 41  1  0
  4 42  1  0
  5 43  1  0
  5 44  1  0
  5 45  1  0
  6 46  1  0
  6 47  1  0
  7 48  1  0
  7 49  1  0
  8 50  1  0
  8 51  1  0
 12 52  1  0
 12 53  1  0
 13 54  1  0
 13 55  1  0
 14 56  1  6
 15 57  1  0
 15 58  1  0
 16 59  1  0
 16 60  1  0
 17 61  1  0
 17 62  1  0
 19 63  1  0
 19 64  1  0
 19 65  1  0
 20 66  1  0
 21 67  1  0
 24 68  1  0
 27 69  1  0
 28 70  1  0
 29 71  1  0
 30 72  1  0
 35 73  1  0
 35 74  1  0
 35 75  1  0
M  CHG  2   8   1  34   1
M  END
>  <UniqueID>  (17) 
16

>  <SMILES>  (17) 
CCN(CC)CC[NH2+]c1c(OCC[C@@H]2CCCN2C)ccc2c1cc1c3ccccc3sc1[n+]2C

>  <Energy>  (17) 
133.14206720665982

>  <Genealogy>  (17) 
CCN(CC)CC[NH2+]c1c(OCCC2CCCN2C)ccc2c1cc1c3ccccc3sc1[n+]2C (protonated)
CCN(CC)CC[NH2+]c1c(OCC[C@@H]2CCCN2C)ccc2c1cc1c3ccccc3sc1[n+]2C (chirality)
CCN(CC)CC[NH2+]c1c(OCC[C@@H]2CCCN2C)ccc2c1cc1c3ccccc3sc1[n+]2C (3D coordinates assigned)
CCN(CC)CC[NH2+]c1c(OCC[C@@H]2CCCN2C)ccc2c1cc1c3ccccc3sc1[n+]2C (nonaromatic ring conformer: 133.14206720665982 kcal/mol)

>  <smiles>  (17) 
CCN(CC)CCNc1c(OCCC2CCCN2C)ccc2c1cc1c3ccccc3sc1[n+]2C

>  <score_type>  (17) 
oracle

>  <origin>  (17) 
adg

>  <m_score__min__energy>  (17) 
-5.4800000000000004

>  <m_primary>  (17) 
energy

$$$$
17:0
     RDKit          3D

 43 45  0  0  1  0  0  0  0  0999 V2000
   59.6620   34.0950   48.9240 C   0  0  0  0  0  0  0  0  0  0  0  0
   60.3750   34.5980   47.6890 C   0  0  0  0  0  0  0  0  0  0  0  0
   59.8560   33.9850   46.5250 O   0  0  0  0  0  0  0  0  0  0  0  0
   59.3020   34.9400   45.7030 C   0  0  0  0  0  0  0  0  0  0  0  0
   57.9160   34.5750   45.2300 C   0  0  0  0  0  0  0  0  0  0  0  0
   57.2720   33.5840   46.0360 N   0  0  0  0  0  0  0  0  0  0  0  0
   57.7070   32.2220   45.8830 C   0  0  0  0  0  0  0  0  0  0  0  0
   57.1880   31.4780   44.8750 N   0  0  0  0  0  0  0  0  0  0  0  0
   57.5390   30.2040   44.6650 C   0  0  0  0  0  0  0  0  0  0  0  0
   58.4660   29.6530   45.5210 C   0  0  0  0  0  0  0  0  0  0  0  0
   58.6520   28.3600   45.0980 C   0  0  0  0  0  0  0  0  0  0  0  0
   57.8690   28.1300   44.0240 N   0  0  0  0  0  0  0  0  0  0  0  0
   57.2190   29.2460   43.7910 N   0  0  0  0  0  0  0  0  0  0  0  0
   56.2640   29.4220   42.7110 C   0  0  0  0  0  0  0  0  0  0  0  0
   59.0030   30.4090   46.5590 C   0  0  0  0  0  0  0  0  0  0  0  0
   59.8520   29.8440   47.3130 N   0  0  0  0  0  0  0  0  0  0  0  0
   60.9250   30.5810   47.8890 C   0  0  0  0  0  0  0  0  0  0  0  0
   61.1650   30.6310   49.2450 C   0  0  0  0  0  0  0  0  0  0  0  0
   62.2160   31.3570   49.7650 C   0  0  0  0  0  0  0  0  0  0  0  0
   63.0310   32.0430   48.8610 C   0  0  0  0  0  0  0  0  0  0  0  0
   62.8150   32.0120   47.5040 C   0  0  0  0  0  0  0  0  0  0  0  0
   61.7560   31.2770   47.0040 C   0  0  0  0  0  0  0  0  0  0  0  0
   58.6120   31.6710   46.7140 N   0  0  0  0  0  0  0  0  0  0  0  0
   60.1812   34.4613   49.8219 H   0  0  0  0  0  0  0  0  0  0  0  0
   58.6253   34.4628   48.9242 H   0  0  0  0  0  0  0  0  0  0  0  0
   59.6608   32.9950   48.9242 H   0  0  0  0  0  0  0  0  0  0  0  0
   60.2407   35.6872   47.6135 H   0  0  0  0  0  0  0  0  0  0  0  0
   61.4432   34.3489   47.7724 H   0  0  0  0  0  0  0  0  0  0  0  0
   59.2456   35.8892   46.2560 H   0  0  0  0  0  0  0  0  0  0  0  0
   59.9436   35.0223   44.8133 H   0  0  0  0  0  0  0  0  0  0  0  0
   57.2966   35.4840   45.2376 H   0  0  0  0  0  0  0  0  0  0  0  0
   58.0242   34.1470   44.2225 H   0  0  0  0  0  0  0  0  0  0  0  0
   56.5250   33.8050   46.7080 H   0  0  0  0  0  0  0  0  0  0  0  0
   59.3309   27.6287   45.5609 H   0  0  0  0  0  0  0  0  0  0  0  0
   55.2645   29.6062   43.1318 H   0  0  0  0  0  0  0  0  0  0  0  0
   56.5649   30.2798   42.0916 H   0  0  0  0  0  0  0  0  0  0  0  0
   56.2393   28.5133   42.0916 H   0  0  0  0  0  0  0  0  0  0  0  0
   60.5030   30.0791   49.9285 H   0  0  0  0  0  0  0  0  0  0  0  0
   62.4050   31.3944   50.8480 H   0  0  0  0  0  0  0  0  0  0  0  0
   63.8766   32.6295   49.2496 H   0  0  0  0  0  0  0  0  0  0  0  0
   63.4777   32.5661   46.8229 H   0  0  0  0  0  0  0  0  0  0  0  0
   61.5685   31.2397   45.9207 H   0  0  0  0  0  0  0  0  0  0  0  0
   59.0200   32.2310   47.4950 H   0  0  0  0  0  0  0  0  0  0  0  0
  1  2  1  0
  2  3  1  0
  3  4  1  0
  4  5  1  0
  5  6  1  0
  6  7  1  0
  7  8  2  0
  8  9  1  0
  9 10  2  0
 10 11  1  0
 11 12  2  0
 12 13  1  0
 13 14  1  0
 10 15  1  0
 15 16  2  0
 16 17  1  0
 17 18  2  0
 18 19  1  0
 19 20  2  0
 20 21  1  0
 21 22  2  0
 15 23  1  0
 23  7  1  0
 13  9  1  0
 22 17  1  0
  1 24  1  0
  1 25  1  0
  1 26  1  0
  2 27  1  0
  2 28  1  0
  4 29  1  0
  4 30  1  0
  5 31  1  0
  5 32  1  0
  6 33  1  0
 11 34  1  0
 14 35  1  0
 14 36  1  0
 14 37  1  0
 18 38  1  0
 19 39  1  0
 20 40  1  0
 21 41  1  0
 22 42  1  0
 23 43  1  0
M  END
>  <smiles>  (18) 
CCOCCNc1nc2c(cnn2C)c(=Nc2ccccc2)[nH]1

>  <score_type>  (18) 
oracle

>  <origin>  (18) 
adg

>  <m_score__min__energy>  (18) 
-6.79

>  <m_primary>  (18) 
energy

$$$$
18:0
     RDKit          3D

 50 52  0  0  0  0  0  0  0  0999 V2000
   63.7280   33.0360   47.1860 C   0  0  0  0  0  0  0  0  0  0  0  0
   62.3860   32.3660   47.4690 C   0  0  0  0  0  0  0  0  0  0  0  0
   62.5030   31.3160   48.5090 N   0  0  0  0  0  0  0  0  0  0  0  0
   63.6710   31.6180   49.3580 C   0  0  0  0  0  0  0  0  0  0  0  0
   61.2790   31.2070   49.3440 C   0  0  0  0  0  0  0  0  0  0  0  0
   60.1770   30.3940   48.6410 C   0  0  0  0  0  0  0  0  0  0  0  0
   60.4590   30.1170   47.2250 N   0  0  0  0  0  0  0  0  0  0  0  0
   59.4610   30.1190   46.1830 C   0  0  0  0  0  0  0  0  0  0  0  0
   58.9860   28.9130   45.6330 C   0  0  0  0  0  0  0  0  0  0  0  0
   59.3450   27.6670   46.1890 C   0  0  0  0  0  0  0  0  0  0  0  0
   58.9600   26.4760   45.5810 C   0  0  0  0  0  0  0  0  0  0  0  0
   58.2050   26.5040   44.4130 C   0  0  0  0  0  0  0  0  0  0  0  0
   57.7800   27.7220   43.8850 C   0  0  0  0  0  0  0  0  0  0  0  0
   58.1070   28.9490   44.5170 C   0  0  0  0  0  0  0  0  0  0  0  0
   57.5950   30.1550   44.0740 N   0  0  0  0  0  0  0  0  0  0  0  0
   56.4670   30.1690   43.1150 C   0  0  0  0  0  0  0  0  0  0  0  0
   58.1010   31.3460   44.5620 C   0  0  0  0  0  0  0  0  0  0  0  0
   57.7660   32.5930   43.9730 C   0  0  0  0  0  0  0  0  0  0  0  0
   58.2380   33.7920   44.5050 C   0  0  0  0  0  0  0  0  0  0  0  0
   59.0740   33.7840   45.6160 C   0  0  0  0  0  0  0  0  0  0  0  0
   59.6440   35.3350   46.3170 S   0  0  0  0  0  0  0  0  0  0  0  0
   59.8980   34.6370   47.9760 C   0  0  0  0  0  0  0  0  0  0  0  0
   59.4680   32.5730   46.1810 C   0  0  0  0  0  0  0  0  0  0  0  0
   59.0050   31.3440   45.6580 C   0  0  0  0  0  0  0  0  0  0  0  0
   64.2224   33.2828   48.1371 H   0  0  0  0  0  0  0  0  0  0  0  0
   64.3655   32.3504   46.6085 H   0  0  0  0  0  0  0  0  0  0  0  0
   63.5632   33.9576   46.6085 H   0  0  0  0  0  0  0  0  0  0  0  0
   61.6724   33.1294   47.8125 H   0  0  0  0  0  0  0  0  0  0  0  0
   62.0391   31.8898   46.5401 H   0  0  0  0  0  0  0  0  0  0  0  0
   63.3835   31.5437   50.4171 H   0  0  0  0  0  0  0  0  0  0  0  0
   64.4751   30.8982   49.1450 H   0  0  0  0  0  0  0  0  0  0  0  0
   64.0254   32.6373   49.1450 H   0  0  0  0  0  0  0  0  0  0  0  0
   61.5374   30.7114   50.2914 H   0  0  0  0  0  0  0  0  0  0  0  0
   60.8944   32.2223   49.5206 H   0  0  0  0  0  0  0  0  0  0  0  0
   60.0644   29.4344   49.1668 H   0  0  0  0  0  0  0  0  0  0  0  0
   59.2599   31.0005   48.6734 H   0  0  0  0  0  0  0  0  0  0  0  0
   61.4050   29.7420   46.9920 H   0  0  0  0  0  0  0  0  0  0  0  0
   59.9372   27.6366   47.1155 H   0  0  0  0  0  0  0  0  0  0  0  0
   59.2526   25.5126   46.0239 H   0  0  0  0  0  0  0  0  0  0  0  0
   57.9431   25.5639   43.9055 H   0  0  0  0  0  0  0  0  0  0  0  0
   57.1808   27.7318   42.9625 H   0  0  0  0  0  0  0  0  0  0  0  0
   55.5160   30.1808   43.6677 H   0  0  0  0  0  0  0  0  0  0  0  0
   56.5346   31.0664   42.4824 H   0  0  0  0  0  0  0  0  0  0  0  0
   56.5123   29.2702   42.4824 H   0  0  0  0  0  0  0  0  0  0  0  0
   57.1226   32.6138   43.0810 H   0  0  0  0  0  0  0  0  0  0  0  0
   57.9480   34.7478   44.0442 H   0  0  0  0  0  0  0  0  0  0  0  0
   59.6256   35.3857   48.7344 H   0  0  0  0  0  0  0  0  0  0  0  0
   59.2671   33.7443   48.0988 H   0  0  0  0  0  0  0  0  0  0  0  0
   60.9551   34.3586   48.0988 H   0  0  0  0  0  0  0  0  0  0  0  0
   60.1483   32.5732   47.0454 H   0  0  0  0  0  0  0  0  0  0  0  0
  1  2  1  0
  2  3  1  0
  3  4  1  0
  3  5  1  0
  5  6  1  0
  6  7  1  0
  7  8  1  0
  8  9  2  0
  9 10  1  0
 10 11  2  0
 11 12  1  0
 12 13  2  0
 13 14  1  0
 14 15  2  0
 15 16  1  0
 15 17  1  0
 17 18  2  0
 18 19  1  0
 19 20  2  0
 20 21  1  0
 21 22  1  0
 20 23  1  0
 23 24  2  0
 24  8  1  0
 14  9  1  0
 24 17  1  0
  1 25  1  0
  1 26  1  0
  1 27  1  0
  2 28  1  0
  2 29  1  0
  4 30  1  0
  4 31  1  0
  4 32  1  0
  5 33  1  0
  5 34  1  0
  6 35  1  0
  6 36  1  0
  7 37  1  0
 10 38  1  0
 11 39  1  0
 12 40  1  0
 13 41  1  0
 16 42  1  0
 16 43  1  0
 16 44  1  0
 18 45  1  0
 19 46  1  0
 22 47  1  0
 22 48  1  0
 22 49  1  0
 23 50  1  0
M  CHG  1  15   1
M  END
>  <UniqueID>  (19) 
17

>  <SMILES>  (19) 
CCN(C)CCNc1c2ccccc2[n+](C)c2ccc(SC)cc12

>  <Energy>  (19) 
72.45115497723319

>  <Genealogy>  (19) 
CCN(C)CCNc1c2ccccc2[n+](C)c2ccc(SC)cc12 (3D coordinates assigned)
CCN(C)CCNc1c2ccccc2[n+](C)c2ccc(SC)cc12 (optimized conformer: 72.45115497723319 kcal/mol)

>  <smiles>  (19) 
CCN(C)CCNc1c2ccccc2[n+](C)c2ccc(SC)cc12

>  <score_type>  (19) 
oracle

>  <origin>  (19) 
adg

>  <m_score__min__energy>  (19) 
-5.9100000000000001

>  <m_primary>  (19) 
energy

$$$$
19:0
     RDKit          3D

 56 56  0  0  0  0  0  0  0  0999 V2000
   59.8720   28.6680   44.8730 C   0  0  0  0  0  0  0  0  0  0  0  0
   58.4490   28.6930   44.3000 C   0  0  0  0  0  0  0  0  0  0  0  0
   58.0110   30.0070   43.7460 N   0  0  0  0  0  0  0  0  0  0  0  0
   56.6680   29.9660   43.1090 C   0  0  0  0  0  0  0  0  0  0  0  0
   55.5200   29.8280   44.1130 C   0  0  0  0  0  0  0  0  0  0  0  0
   58.0390   31.1040   44.7470 C   0  0  0  0  0  0  0  0  0  0  0  0
   57.8480   32.5110   44.1390 C   0  0  0  0  0  0  0  0  0  0  0  0
   57.1380   33.6830   45.3530 S   0  0  0  0  0  0  0  0  0  0  0  0
   58.7290   34.1840   46.0260 C   0  0  0  0  0  0  0  0  0  0  0  0
   59.6070   35.3170   45.2320 S   0  0  0  0  0  0  0  0  0  0  0  0
   59.1940   33.6490   47.2740 N   0  0  0  0  0  0  0  0  0  0  0  0
   59.5530   34.5640   48.3640 C   0  0  0  0  0  0  0  0  0  0  0  0
   59.8410   33.8100   49.6690 C   0  0  0  0  0  0  0  0  0  0  0  0
   58.8700   32.7200   49.8660 N   0  0  0  0  0  0  0  0  0  0  0  0
   58.3430   32.4320   51.1810 C   0  0  0  0  0  0  0  0  0  0  0  0
   59.2820   32.6960   52.5090 S   0  0  0  0  0  0  0  0  0  0  0  0
   57.0160   31.8780   51.3180 N   0  0  0  0  0  0  0  0  0  0  0  0
   56.3490   31.5860   52.5900 C   0  0  0  0  0  0  0  0  0  0  0  0
   55.3560   30.4180   52.4330 C   0  0  0  0  0  0  0  0  0  0  0  0
   54.9560   29.8720   53.8090 C   0  0  0  0  0  0  0  0  0  0  0  0
   54.1080   30.8420   51.6480 C   0  0  0  0  0  0  0  0  0  0  0  0
   58.5740   31.7970   48.7560 C   0  0  0  0  0  0  0  0  0  0  0  0
   59.2930   32.2000   47.4660 C   0  0  0  0  0  0  0  0  0  0  0  0
   59.8248   28.6688   45.9720 H   0  0  0  0  0  0  0  0  0  0  0  0
   60.3899   27.7606   44.5289 H   0  0  0  0  0  0  0  0  0  0  0  0
   60.4215   29.5566   44.5289 H   0  0  0  0  0  0  0  0  0  0  0  0
   58.3939   27.9478   43.4927 H   0  0  0  0  0  0  0  0  0  0  0  0
   57.7763   28.4774   45.1432 H   0  0  0  0  0  0  0  0  0  0  0  0
   58.6940   30.2640   42.9920 H   0  0  0  0  0  0  0  0  0  0  0  0
   56.5236   30.8967   42.5407 H   0  0  0  0  0  0  0  0  0  0  0  0
   56.6427   29.0753   42.4640 H   0  0  0  0  0  0  0  0  0  0  0  0
   55.9202   29.8761   45.1365 H   0  0  0  0  0  0  0  0  0  0  0  0
   54.8004   30.6461   43.9619 H   0  0  0  0  0  0  0  0  0  0  0  0
   55.0148   28.8627   43.9619 H   0  0  0  0  0  0  0  0  0  0  0  0
   57.2333   30.9291   45.4752 H   0  0  0  0  0  0  0  0  0  0  0  0
   59.0369   31.0888   45.2096 H   0  0  0  0  0  0  0  0  0  0  0  0
   58.8251   32.8911   43.8061 H   0  0  0  0  0  0  0  0  0  0  0  0
   57.1487   32.4272   43.2940 H   0  0  0  0  0  0  0  0  0  0  0  0
   60.4510   35.1289   48.0735 H   0  0  0  0  0  0  0  0  0  0  0  0
   58.7015   35.2380   48.5392 H   0  0  0  0  0  0  0  0  0  0  0  0
   60.8552   33.3864   49.6250 H   0  0  0  0  0  0  0  0  0  0  0  0
   59.7575   34.5141   50.5100 H   0  0  0  0  0  0  0  0  0  0  0  0
   56.4260   31.7760   50.4660 H   0  0  0  0  0  0  0  0  0  0  0  0
   57.1065   31.3166   53.3407 H   0  0  0  0  0  0  0  0  0  0  0  0
   55.7934   32.4800   52.9096 H   0  0  0  0  0  0  0  0  0  0  0  0
   55.8595   29.6238   51.8622 H   0  0  0  0  0  0  0  0  0  0  0  0
   55.4103   30.4922   54.5958 H   0  0  0  0  0  0  0  0  0  0  0  0
   53.8609   29.8969   53.9091 H   0  0  0  0  0  0  0  0  0  0  0  0
   55.3099   28.8353   53.9091 H   0  0  0  0  0  0  0  0  0  0  0  0
   53.3073   31.1140   52.3514 H   0  0  0  0  0  0  0  0  0  0  0  0
   54.3499   31.7084   51.0149 H   0  0  0  0  0  0  0  0  0  0  0  0
   53.7720   30.0076   51.0149 H   0  0  0  0  0  0  0  0  0  0  0  0
   58.8966   30.7846   49.0407 H   0  0  0  0  0  0  0  0  0  0  0  0
   57.4911   31.8316   48.5657 H   0  0  0  0  0  0  0  0  0  0  0  0
   60.3525   31.9122   47.5334 H   0  0  0  0  0  0  0  0  0  0  0  0
   58.8231   31.6879   46.6134 H   0  0  0  0  0  0  0  0  0  0  0  0
  1  2  1  0
  2  3  1  0
  3  4  1  0
  4  5  1  0
  3  6  1  0
  6  7  1  0
  7  8  1  0
  8  9  1  0
  9 10  2  0
  9 11  1  0
 11 12  1  0
 12 13  1  0
 13 14  1  0
 14 15  1  0
 15 16  2  0
 15 17  1  0
 17 18  1  0
 18 19  1  0
 19 20  1  0
 19 21  1  0
 14 22  1  0
 22 23  1  0
 23 11  1  0
  1 24  1  0
  1 25  1  0
  1 26  1  0
  2 27  1  0
  2 28  1  0
  3 29  1  0
  4 30  1  0
  4 31  1  0
  5 32  1  0
  5 33  1  0
  5 34  1  0
  6 35  1  0
  6 36  1  0
  7 37  1  0
  7 38  1  0
 12 39  1  0
 12 40  1  0
 13 41  1  0
 13 42  1  0
 17 43  1  0
 18 44  1  0
 18 45  1  0
 19 46  1  0
 20 47  1  0
 20 48  1  0
 20 49  1  0
 21 50  1  0
 21 51  1  0
 21 52  1  0
 22 53  1  0
 22 54  1  0
 23 55  1  0
 23 56  1  0
M  CHG  1   3   1
M  END
>  <UniqueID>  (20) 
18

>  <SMILES>  (20) 
CC[NH+](CC)CCSC(=S)N1CCN(C(=S)NCC(C)C)CC1

>  <Energy>  (20) 
49.50093203370831

>  <Genealogy>  (20) 
CC[NH+](CC)CCSC(=S)N1CCN(C(=S)NCC(C)C)CC1 (protonated)
CC[NH+](CC)CCSC(=S)N1CCN(C(=S)NCC(C)C)CC1 (3D coordinates assigned)
CC[NH+](CC)CCSC(=S)N1CCN(C(=S)NCC(C)C)CC1 (nonaromatic ring conformer: 49.50093203370831 kcal/mol)

>  <smiles>  (20) 
CCN(CC)CCSC(=S)N1CCN(C(=S)NCC(C)C)CC1

>  <score_type>  (20) 
oracle

>  <origin>  (20) 
adg

>  <m_score__min__energy>  (20) 
-5.6799999999999997

>  <m_primary>  (20) 
energy

$$$$
20:0
     RDKit          3D

 47 49  0  0  0  0  0  0  0  0999 V2000
   55.5320   29.7820   43.5870 C   0  0  0  0  0  0  0  0  0  0  0  0
   56.1440   29.6910   44.8680 O   0  0  0  0  0  0  0  0  0  0  0  0
   57.4770   29.3090   45.0910 C   0  0  0  0  0  0  0  0  0  0  0  0
   57.8980   27.9700   44.9680 C   0  0  0  0  0  0  0  0  0  0  0  0
   59.2390   27.6310   45.1650 C   0  0  0  0  0  0  0  0  0  0  0  0
   60.1720   28.6180   45.4830 C   0  0  0  0  0  0  0  0  0  0  0  0
   59.7670   29.9480   45.6090 C   0  0  0  0  0  0  0  0  0  0  0  0
   58.4210   30.3010   45.4260 C   0  0  0  0  0  0  0  0  0  0  0  0
   58.0190   31.6760   45.5490 N   0  0  0  0  0  0  0  0  0  0  0  0
   57.8780   32.2820   46.8750 C   0  0  0  0  0  0  0  0  0  0  0  0
   57.9180   33.8160   46.7750 C   0  0  0  0  0  0  0  0  0  0  0  0
   58.8220   34.2790   45.6960 N   0  0  0  0  0  0  0  0  0  0  0  0
   60.2460   33.9480   45.9410 C   0  0  0  0  0  0  0  0  0  0  0  0
   60.6480   34.2640   47.3580 C   0  0  0  0  0  0  0  0  0  0  0  0
   59.8740   34.9640   48.0640 O   0  0  0  0  0  0  0  0  0  0  0  0
   61.9020   33.8170   47.9080 N   0  0  0  0  0  0  0  0  0  0  0  0
   62.2640   34.0250   49.2980 C   0  0  0  0  0  0  0  0  0  0  0  0
   63.5880   33.2970   49.4910 C   0  0  0  0  0  0  0  0  0  0  0  0
   64.1430   33.0630   48.0880 C   0  0  0  0  0  0  0  0  0  0  0  0
   62.9490   33.1540   47.1480 C   0  0  0  0  0  0  0  0  0  0  0  0
   58.3700   33.8210   44.3560 C   0  0  0  0  0  0  0  0  0  0  0  0
   57.6460   32.4570   44.3670 C   0  0  0  0  0  0  0  0  0  0  0  0
   54.4506   29.9428   43.7079 H   0  0  0  0  0  0  0  0  0  0  0  0
   55.9682   30.6252   43.0313 H   0  0  0  0  0  0  0  0  0  0  0  0
   55.7040   28.8484   43.0313 H   0  0  0  0  0  0  0  0  0  0  0  0
   57.1672   27.1876   44.7156 H   0  0  0  0  0  0  0  0  0  0  0  0
   59.5598   26.5832   45.0691 H   0  0  0  0  0  0  0  0  0  0  0  0
   61.2276   28.3482   45.6346 H   0  0  0  0  0  0  0  0  0  0  0  0
   60.5073   30.7241   45.8532 H   0  0  0  0  0  0  0  0  0  0  0  0
   56.9177   31.9731   47.3136 H   0  0  0  0  0  0  0  0  0  0  0  0
   58.7113   31.9457   47.5095 H   0  0  0  0  0  0  0  0  0  0  0  0
   56.9022   34.1850   46.5700 H   0  0  0  0  0  0  0  0  0  0  0  0
   58.2992   34.2087   47.7292 H   0  0  0  0  0  0  0  0  0  0  0  0
   60.4009   32.8748   45.7559 H   0  0  0  0  0  0  0  0  0  0  0  0
   60.8640   34.5544   45.2625 H   0  0  0  0  0  0  0  0  0  0  0  0
   62.3822   35.0984   49.5073 H   0  0  0  0  0  0  0  0  0  0  0  0
   61.4889   33.6471   49.9809 H   0  0  0  0  0  0  0  0  0  0  0  0
   64.2824   33.9147   50.0794 H   0  0  0  0  0  0  0  0  0  0  0  0
   63.4539   32.3510   50.0361 H   0  0  0  0  0  0  0  0  0  0  0  0
   64.8872   33.8332   47.8373 H   0  0  0  0  0  0  0  0  0  0  0  0
   64.6461   32.0880   48.0095 H   0  0  0  0  0  0  0  0  0  0  0  0
   63.2071   33.7429   46.2555 H   0  0  0  0  0  0  0  0  0  0  0  0
   62.6306   32.1611   46.7975 H   0  0  0  0  0  0  0  0  0  0  0  0
   57.6806   34.5747   43.9477 H   0  0  0  0  0  0  0  0  0  0  0  0
   59.2741   33.6953   43.7421 H   0  0  0  0  0  0  0  0  0  0  0  0
   56.5591   32.6263   44.3756 H   0  0  0  0  0  0  0  0  0  0  0  0
   57.9406   31.8958   43.4680 H   0  0  0  0  0  0  0  0  0  0  0  0
  1  2  1  0
  2  3  1  0
  3  4  2  0
  4  5  1  0
  5  6  2  0
  6  7  1  0
  7  8  2  0
  8  9  1  0
  9 10  1  0
 10 11  1  0
 11 12  1  0
 12 13  1  0
 13 14  1  0
 14 15  2  0
 14 16  1  0
 16 17  1  0
 17 18  1  0
 18 19  1  0
 19 20  1  0
 12 21  1  0
 21 22  1  0
  8  3  1  0
 22  9  1  0
 20 16  1  0
  1 23  1  0
  1 24  1  0
  1 25  1  0
  4 26  1  0
  5 27  1  0
  6 28  1  0
  7 29  1  0
 10 30  1  0
 10 31  1  0
 11 32  1  0
 11 33  1  0
 13 34  1  0
 13 35  1  0
 17 36  1  0
 17 37  1  0
 18 38  1  0
 18 39  1  0
 19 40  1  0
 19 41  1  0
 20 42  1  0
 20 43  1  0
 21 44  1  0
 21 45  1  0
 22 46  1  0
 22 47  1  0
M  END
>  <UniqueID>  (21) 
19

>  <SMILES>  (21) 
COc1ccccc1N1CCN(CC(=O)N2CCCC2)CC1

>  <Energy>  (21) 
57.340827774858475

>  <Genealogy>  (21) 
COc1ccccc1N1CCN(CC(=O)N2CCCC2)CC1 (3D coordinates assigned)
COc1ccccc1N1CCN(CC(=O)N2CCCC2)CC1 (nonaromatic ring conformer: 57.340827774858475 kcal/mol)

>  <smiles>  (21) 
COc1ccccc1N1CCN(CC(=O)N2CCCC2)CC1

>  <score_type>  (21) 
oracle

>  <origin>  (21) 
adg

>  <m_score__min__energy>  (21) 
-7.54

>  <m_primary>  (21) 
energy

$$$$
21:0
     RDKit          3D

 41 43  0  0  0  0  0  0  0  0999 V2000
   56.6380   26.6830   46.0340 C   0  0  0  0  0  0  0  0  0  0  0  0
   55.9370   27.8510   45.6200 O   0  0  0  0  0  0  0  0  0  0  0  0
   56.5290   28.9330   44.9530 C   0  0  0  0  0  0  0  0  0  0  0  0
   57.8790   29.2890   45.1370 C   0  0  0  0  0  0  0  0  0  0  0  0
   58.4110   30.4010   44.4770 C   0  0  0  0  0  0  0  0  0  0  0  0
   57.6020   31.1830   43.6380 C   0  0  0  0  0  0  0  0  0  0  0  0
   58.1520   32.4330   42.9900 C   0  0  0  0  0  0  0  0  0  0  0  0
   58.4570   33.4940   43.9660 N   0  0  0  0  0  0  0  0  0  0  0  0
   57.7450   33.3490   45.2480 C   0  0  0  0  0  0  0  0  0  0  0  0
   58.6910   33.1240   46.3940 C   0  0  0  0  0  0  0  0  0  0  0  0
   58.3490   33.0380   47.7250 C   0  0  0  0  0  0  0  0  0  0  0  0
   59.4610   32.9600   48.4110 O   0  0  0  0  0  0  0  0  0  0  0  0
   60.4520   32.9980   47.5490 C   0  0  0  0  0  0  0  0  0  0  0  0
   61.8650   32.9890   47.9340 C   0  0  0  0  0  0  0  0  0  0  0  0
   62.9530   32.7360   47.1170 C   0  0  0  0  0  0  0  0  0  0  0  0
   64.0730   32.8870   47.8480 N   0  0  0  0  0  0  0  0  0  0  0  0
   63.7330   33.2350   49.0800 N   0  0  0  0  0  0  0  0  0  0  0  0
   64.6790   33.4410   50.1690 C   0  0  0  0  0  0  0  0  0  0  0  0
   62.3910   33.2940   49.1740 C   0  0  0  0  0  0  0  0  0  0  0  0
   60.0310   33.0940   46.2700 N   0  0  0  0  0  0  0  0  0  0  0  0
   56.2660   30.8070   43.4300 C   0  0  0  0  0  0  0  0  0  0  0  0
   55.7370   29.6900   44.0820 C   0  0  0  0  0  0  0  0  0  0  0  0
   56.6633   26.6408   47.1329 H   0  0  0  0  0  0  0  0  0  0  0  0
   56.1260   25.7907   45.6445 H   0  0  0  0  0  0  0  0  0  0  0  0
   57.6662   26.7151   45.6445 H   0  0  0  0  0  0  0  0  0  0  0  0
   58.5176   28.6898   45.8027 H   0  0  0  0  0  0  0  0  0  0  0  0
   59.4699   30.6645   44.6162 H   0  0  0  0  0  0  0  0  0  0  0  0
   59.0761   32.1732   42.4528 H   0  0  0  0  0  0  0  0  0  0  0  0
   57.3800   32.8207   42.3090 H   0  0  0  0  0  0  0  0  0  0  0  0
   59.4910   33.5730   44.1120 H   0  0  0  0  0  0  0  0  0  0  0  0
   57.1670   34.2652   45.4390 H   0  0  0  0  0  0  0  0  0  0  0  0
   57.0858   32.4715   45.1737 H   0  0  0  0  0  0  0  0  0  0  0  0
   57.3288   33.0353   48.1362 H   0  0  0  0  0  0  0  0  0  0  0  0
   62.9099   32.4592   46.0533 H   0  0  0  0  0  0  0  0  0  0  0  0
   65.0530   32.7590   47.5100 H   0  0  0  0  0  0  0  0  0  0  0  0
   64.1597   33.3279   51.1321 H   0  0  0  0  0  0  0  0  0  0  0  0
   65.4868   32.6977   50.0985 H   0  0  0  0  0  0  0  0  0  0  0  0
   65.1046   34.4529   50.0985 H   0  0  0  0  0  0  0  0  0  0  0  0
   61.8156   33.5413   50.0783 H   0  0  0  0  0  0  0  0  0  0  0  0
   55.6318   31.3948   42.7500 H   0  0  0  0  0  0  0  0  0  0  0  0
   54.6892   29.4032   43.9092 H   0  0  0  0  0  0  0  0  0  0  0  0
  1  2  1  0
  2  3  1  0
  3  4  2  0
  4  5  1  0
  5  6  2  0
  6  7  1  0
  7  8  1  0
  8  9  1  0
  9 10  1  0
 10 11  2  0
 11 12  1  0
 12 13  1  0
 13 14  1  0
 14 15  1  0
 15 16  2  0
 16 17  1  0
 17 18  1  0
 17 19  1  0
 13 20  2  0
  6 21  1  0
 21 22  2  0
 22  3  1  0
 20 10  1  0
 19 14  2  0
  1 23  1  0
  1 24  1  0
  1 25  1  0
  4 26  1  0
  5 27  1  0
  7 28  1  0
  7 29  1  0
  8 30  1  0
  9 31  1  0
  9 32  1  0
 11 33  1  0
 15 34  1  0
 16 35  1  0
 18 36  1  0
 18 37  1  0
 18 38  1  0
 19 39  1  0
 21 40  1  0
 22 41  1  0
M  CHG  1  16   1
M  END
>  <UniqueID>  (22) 
20

>  <SMILES>  (22) 
COc1ccc(CNCc2coc(-c3c[nH+]n(C)c3)n2)cc1

>  <Energy>  (22) 
96.71796731106288

>  <Genealogy>  (22) 
COc1ccc(CNCc2coc(-c3c[nH+]n(C)c3)n2)cc1 (protonated)
COc1ccc(CNCc2coc(-c3c[nH+]n(C)c3)n2)cc1 (3D coordinates assigned)
COc1ccc(CNCc2coc(-c3c[nH+]n(C)c3)n2)cc1 (optimized conformer: 96.71796731106288 kcal/mol)

>  <smiles>  (22) 
COc1ccc(CNCc2coc(-c3cnn(C)c3)n2)cc1

>  <score_type>  (22) 
oracle

>  <origin>  (22) 
adg

>  <m_score__min__energy>  (22) 
-5.9699999999999998

>  <m_primary>  (22) 
energy

$$$$
22:0
     RDKit          3D

 52 53  0  0  0  0  0  0  0  0999 V2000
   56.9602   33.3485   44.0090 H   0  0  0  0  0  0  0  0  0  0  0  0
   57.5960   32.4710   43.8200 C   0  0  0  0  0  0  0  0  0  0  0  0
   58.1650   31.8570   44.8750 C   0  0  0  0  0  0  0  0  0  0  0  0
   58.7680   32.6310   45.9850 C   0  0  0  0  0  0  0  0  0  0  0  0
   59.7070   33.6330   45.7050 C   0  0  0  0  0  0  0  0  0  0  0  0
   59.9520   33.8763   44.6606 H   0  0  0  0  0  0  0  0  0  0  0  0
   60.3340   34.3250   46.7450 C   0  0  0  0  0  0  0  0  0  0  0  0
   61.0598   35.1193   46.5161 H   0  0  0  0  0  0  0  0  0  0  0  0
   60.0390   34.0080   48.0860 C   0  0  0  0  0  0  0  0  0  0  0  0
   60.6580   34.6460   49.1750 O   0  0  0  0  0  0  0  0  0  0  0  0
   61.8940   34.2640   49.7810 C   0  0  0  0  0  0  0  0  0  0  0  0
   62.7158   34.8113   49.2961 H   0  0  0  0  0  0  0  0  0  0  0  0
   61.8465   34.5065   50.8529 H   0  0  0  0  0  0  0  0  0  0  0  0
   62.1400   32.7600   49.6340 C   0  0  0  0  0  0  0  0  0  0  0  0
   62.5600   32.3682   50.5721 H   0  0  0  0  0  0  0  0  0  0  0  0
   61.1847   32.2626   49.4104 H   0  0  0  0  0  0  0  0  0  0  0  0
   63.0890   32.4970   48.5270 N   0  0  0  0  0  0  0  0  0  0  0  0
   62.5660   31.5160   47.5440 C   0  0  0  0  0  0  0  0  0  0  0  0
   62.2001   32.0679   46.6656 H   0  0  0  0  0  0  0  0  0  0  0  0
   63.3955   30.8355   47.3012 H   0  0  0  0  0  0  0  0  0  0  0  0
   61.4210   30.6470   48.0790 C   0  0  0  0  0  0  0  0  0  0  0  0
   61.4354   30.6580   49.1788 H   0  0  0  0  0  0  0  0  0  0  0  0
   60.4602   31.0453   47.7209 H   0  0  0  0  0  0  0  0  0  0  0  0
   61.5462   29.6145   47.7209 H   0  0  0  0  0  0  0  0  0  0  0  0
   63.6290   33.7440   47.9390 C   0  0  0  0  0  0  0  0  0  0  0  0
   63.1288   34.6037   48.4089 H   0  0  0  0  0  0  0  0  0  0  0  0
   64.7132   33.7644   48.1234 H   0  0  0  0  0  0  0  0  0  0  0  0
   63.4060   33.8090   46.4270 C   0  0  0  0  0  0  0  0  0  0  0  0
   62.3684   34.1114   46.2221 H   0  0  0  0  0  0  0  0  0  0  0  0
   64.0959   34.5434   45.9858 H   0  0  0  0  0  0  0  0  0  0  0  0
   63.5933   32.8189   45.9858 H   0  0  0  0  0  0  0  0  0  0  0  0
   59.0910   33.0160   48.3590 C   0  0  0  0  0  0  0  0  0  0  0  0
   58.8360   32.7785   49.4024 H   0  0  0  0  0  0  0  0  0  0  0  0
   58.4650   32.3240   47.3190 C   0  0  0  0  0  0  0  0  0  0  0  0
   57.7323   31.5360   47.5476 H   0  0  0  0  0  0  0  0  0  0  0  0
   58.2230   30.3710   44.9430 C   0  0  0  0  0  0  0  0  0  0  0  0
   59.4390   29.7040   44.7030 C   0  0  0  0  0  0  0  0  0  0  0  0
   60.3475   30.2854   44.4871 H   0  0  0  0  0  0  0  0  0  0  0  0
   59.5000   28.3100   44.7370 C   0  0  0  0  0  0  0  0  0  0  0  0
   60.4554   27.7984   44.5488 H   0  0  0  0  0  0  0  0  0  0  0  0
   58.3530   27.5630   45.0090 C   0  0  0  0  0  0  0  0  0  0  0  0
   58.4075   26.4647   45.0382 H   0  0  0  0  0  0  0  0  0  0  0  0
   57.1320   28.2090   45.2450 C   0  0  0  0  0  0  0  0  0  0  0  0
   55.9550   27.4430   45.5140 N   0  0  0  0  0  0  0  0  0  0  0  0
   55.8950   26.4380   45.2360 H   0  0  0  0  0  0  0  0  0  0  0  0
   55.1340   27.8750   45.9930 H   0  0  0  0  0  0  0  0  0  0  0  0
   57.0690   29.6100   45.2100 C   0  0  0  0  0  0  0  0  0  0  0  0
   56.1105   30.1179   45.3926 H   0  0  0  0  0  0  0  0  0  0  0  0
   57.7830   32.0220   42.4010 C   0  0  0  0  0  0  0  0  0  0  0  0
   58.2059   31.0066   42.3904 H   0  0  0  0  0  0  0  0  0  0  0  0
   56.8110   32.0198   41.8860 H   0  0  0  0  0  0  0  0  0  0  0  0
   58.4692   32.7104   41.8860 H   0  0  0  0  0  0  0  0  0  0  0  0
  1  2  1  0
  2  3  2  0
  3  4  1  0
  4  5  2  0
  5  6  1  0
  5  7  1  0
  7  8  1  0
  7  9  2  0
  9 10  1  0
 10 11  1  0
 11 12  1  0
 11 13  1  0
 11 14  1  0
 14 15  1  0
 14 16  1  0
 14 17  1  0
 17 18  1  0
 18 19  1  0
 18 20  1  0
 18 21  1  0
 21 22  1  0
 21 23  1  0
 21 24  1  0
 17 25  1  0
 25 26  1  0
 25 27  1  0
 25 28  1  0
 28 29  1  0
 28 30  1  0
 28 31  1  0
  9 32  1  0
 32 33  1  0
 32 34  2  0
 34 35  1  0
  3 36  1  0
 36 37  2  0
 37 38  1  0
 37 39  1  0
 39 40  1  0
 39 41  2  0
 41 42  1  0
 41 43  1  0
 43 44  1  0
 44 45  1  0
 44 46  1  0
 43 47  2  0
 47 48  1  0
  2 49  1  0
 49 50  1  0
 49 51  1  0
 49 52  1  0
 34  4  1  0
 47 36  1  0
M  END
>  <UniqueID>  (23) 
21

>  <SMILES>  (23) 
C/C=C(\c1ccc(OCCN(CC)CC)cc1)c1cccc(N)c1

>  <Energy>  (23) 
59.41835774624296

>  <Genealogy>  (23) 
C/C=C(\c1ccc(OCCN(CC)CC)cc1)c1cccc(N)c1 (cis-trans isomerization)
C/C=C(\c1ccc(OCCN(CC)CC)cc1)c1cccc(N)c1 (3D coordinates assigned)
C/C=C(\c1ccc(OCCN(CC)CC)cc1)c1cccc(N)c1 (optimized conformer: 59.41835774624296 kcal/mol)

>  <smiles>  (23) 
CC=C(c1ccc(OCCN(CC)CC)cc1)c1cccc(N)c1

>  <score_type>  (23) 
oracle

>  <origin>  (23) 
adg

>  <m_score__min__energy>  (23) 
-7.4800000000000004

>  <m_primary>  (23) 
energy

$$$$
23:0
     RDKit          3D

 55 57  0  0  0  0  0  0  0  0999 V2000
   63.7660   32.7280   47.1140 C   0  0  0  0  0  0  0  0  0  0  0  0
   63.0460   32.2050   48.3570 C   0  0  0  0  0  0  0  0  0  0  0  0
   61.6630   32.7280   48.4380 N   0  0  0  0  0  0  0  0  0  0  0  0
   61.6670   34.2010   48.5080 C   0  0  0  0  0  0  0  0  0  0  0  0
   60.9540   32.1700   49.6130 C   0  0  0  0  0  0  0  0  0  0  0  0
   60.9820   30.6330   49.6110 C   0  0  0  0  0  0  0  0  0  0  0  0
   60.2040   30.0180   48.4360 C   0  0  0  0  0  0  0  0  0  0  0  0
   60.5230   30.6920   47.1770 N   0  0  0  0  0  0  0  0  0  0  0  0
   59.5560   30.8000   46.1170 C   0  0  0  0  0  0  0  0  0  0  0  0
   58.9670   32.0410   45.8230 C   0  0  0  0  0  0  0  0  0  0  0  0
   59.2750   33.1870   46.5830 C   0  0  0  0  0  0  0  0  0  0  0  0
   58.6540   34.4050   46.3210 C   0  0  0  0  0  0  0  0  0  0  0  0
   57.7100   34.5000   45.3060 C   0  0  0  0  0  0  0  0  0  0  0  0
   57.4040   33.3860   44.5260 C   0  0  0  0  0  0  0  0  0  0  0  0
   58.0510   32.1410   44.7410 C   0  0  0  0  0  0  0  0  0  0  0  0
   57.8020   31.0430   43.9390 N   0  0  0  0  0  0  0  0  0  0  0  0
   57.0970   31.2130   42.6490 C   0  0  0  0  0  0  0  0  0  0  0  0
   58.2320   29.7890   44.3320 C   0  0  0  0  0  0  0  0  0  0  0  0
   57.7680   28.6090   43.6960 C   0  0  0  0  0  0  0  0  0  0  0  0
   58.2350   27.3410   44.0730 C   0  0  0  0  0  0  0  0  0  0  0  0
   57.7300   26.1540   43.4270 N   0  0  0  0  0  0  0  0  0  0  0  0
   57.6370   25.0540   44.3880 C   0  0  0  0  0  0  0  0  0  0  0  0
   59.1450   27.2350   45.1280 C   0  0  0  0  0  0  0  0  0  0  0  0
   59.5880   28.3720   45.7960 C   0  0  0  0  0  0  0  0  0  0  0  0
   59.1410   29.6540   45.4150 C   0  0  0  0  0  0  0  0  0  0  0  0
   64.6210   33.3490   47.4196 H   0  0  0  0  0  0  0  0  0  0  0  0
   64.1254   31.8790   46.5140 H   0  0  0  0  0  0  0  0  0  0  0  0
   63.0697   33.3323   46.5140 H   0  0  0  0  0  0  0  0  0  0  0  0
   63.0117   31.1063   48.3155 H   0  0  0  0  0  0  0  0  0  0  0  0
   63.5979   32.5439   49.2461 H   0  0  0  0  0  0  0  0  0  0  0  0
   61.6679   34.5180   49.5613 H   0  0  0  0  0  0  0  0  0  0  0  0
   62.5662   34.5894   48.0074 H   0  0  0  0  0  0  0  0  0  0  0  0
   60.7699   34.5943   48.0074 H   0  0  0  0  0  0  0  0  0  0  0  0
   61.4397   32.5350   50.5300 H   0  0  0  0  0  0  0  0  0  0  0  0
   59.9043   32.4959   49.5692 H   0  0  0  0  0  0  0  0  0  0  0  0
   62.0292   30.3018   49.5493 H   0  0  0  0  0  0  0  0  0  0  0  0
   60.4975   30.2945   50.5387 H   0  0  0  0  0  0  0  0  0  0  0  0
   60.4676   28.9536   48.3495 H   0  0  0  0  0  0  0  0  0  0  0  0
   59.1281   30.1375   48.6312 H   0  0  0  0  0  0  0  0  0  0  0  0
   61.4940   31.0360   47.0060 H   0  0  0  0  0  0  0  0  0  0  0  0
   60.0155   33.1182   47.3935 H   0  0  0  0  0  0  0  0  0  0  0  0
   58.9108   35.2926   46.9178 H   0  0  0  0  0  0  0  0  0  0  0  0
   57.2024   35.4575   45.1173 H   0  0  0  0  0  0  0  0  0  0  0  0
   56.6488   33.4731   43.7309 H   0  0  0  0  0  0  0  0  0  0  0  0
   56.0435   31.4670   42.8376 H   0  0  0  0  0  0  0  0  0  0  0  0
   57.5723   32.0223   42.0753 H   0  0  0  0  0  0  0  0  0  0  0  0
   57.1512   30.2760   42.0753 H   0  0  0  0  0  0  0  0  0  0  0  0
   57.0251   28.6901   42.8888 H   0  0  0  0  0  0  0  0  0  0  0  0
   56.7810   26.3390   43.0240 H   0  0  0  0  0  0  0  0  0  0  0  0
   58.3620   25.8730   42.6410 H   0  0  0  0  0  0  0  0  0  0  0  0
   57.6711   25.4570   45.4110 H   0  0  0  0  0  0  0  0  0  0  0  0
   56.6901   24.5148   44.2376 H   0  0  0  0  0  0  0  0  0  0  0  0
   58.4800   24.3635   44.2376 H   0  0  0  0  0  0  0  0  0  0  0  0
   59.5141   26.2446   45.4328 H   0  0  0  0  0  0  0  0  0  0  0  0
   60.2958   28.2697   46.6318 H   0  0  0  0  0  0  0  0  0  0  0  0
  1  2  1  0
  2  3  1  0
  3  4  1  0
  3  5  1  0
  5  6  1  0
  6  7  1  0
  7  8  1  0
  8  9  1  0
  9 10  2  0
 10 11  1  0
 11 12  2  0
 12 13  1  0
 13 14  2  0
 14 15  1  0
 15 16  2  0
 16 17  1  0
 16 18  1  0
 18 19  2  0
 19 20  1  0
 20 21  1  0
 21 22  1  0
 20 23  2  0
 23 24  1  0
 24 25  2  0
 25  9  1  0
 15 10  1  0
 25 18  1  0
  1 26  1  0
  1 27  1  0
  1 28  1  0
  2 29  1  0
  2 30  1  0
  4 31  1  0
  4 32  1  0
  4 33  1  0
  5 34  1  0
  5 35  1  0
  6 36  1  0
  6 37  1  0
  7 38  1  0
  7 39  1  0
  8 40  1  0
 11 41  1  0
 12 42  1  0
 13 43  1  0
 14 44  1  0
 17 45  1  0
 17 46  1  0
 17 47  1  0
 19 48  1  0
 21 49  1  0
 21 50  1  0
 22 51  1  0
 22 52  1  0
 22 53  1  0
 23 54  1  0
 24 55  1  0
M  CHG  2  16   1  21   1
M  END
>  <UniqueID>  (24) 
22

>  <SMILES>  (24) 
CCN(C)CCCNc1c2ccccc2[n+](C)c2cc([NH2+]C)ccc12

>  <Energy>  (24) 
79.00505236312021

>  <Genealogy>  (24) 
CCN(C)CCCNc1c2ccccc2[n+](C)c2cc([NH2+]C)ccc12 (protonated)
CCN(C)CCCNc1c2ccccc2[n+](C)c2cc([NH2+]C)ccc12 (3D coordinates assigned)
CCN(C)CCCNc1c2ccccc2[n+](C)c2cc([NH2+]C)ccc12 (optimized conformer: 79.00505236312021 kcal/mol)

>  <smiles>  (24) 
CCN(C)CCCNc1c2ccccc2[n+](C)c2cc(NC)ccc12

>  <score_type>  (24) 
oracle

>  <origin>  (24) 
adg

>  <m_score__min__energy>  (24) 
-4.71

>  <m_primary>  (24) 
energy

$$$$
24:0
     RDKit          3D

 57 60  0  0  0  0  0  0  0  0999 V2000
   59.6750   33.7060   50.7010 C   0  0  0  0  0  0  0  0  0  0  0  0
   60.6610   32.5510   50.8550 C   0  0  0  0  0  0  0  0  0  0  0  0
   61.0860   32.0460   49.5300 N   0  0  0  0  0  0  0  0  0  0  0  0
   62.3740   32.6450   49.1110 C   0  0  0  0  0  0  0  0  0  0  0  0
   62.6650   32.3290   47.6450 C   0  0  0  0  0  0  0  0  0  0  0  0
   61.1270   30.5610   49.4900 C   0  0  0  0  0  0  0  0  0  0  0  0
   60.1910   30.0360   48.3940 C   0  0  0  0  0  0  0  0  0  0  0  0
   59.0070   30.8950   48.2300 N   0  0  0  0  0  0  0  0  0  0  0  0
   58.8970   31.3520   46.8610 C   0  0  0  0  0  0  0  0  0  0  0  0
   59.1230   32.7140   46.5010 C   0  0  0  0  0  0  0  0  0  0  0  0
   59.6130   33.6540   47.4370 C   0  0  0  0  0  0  0  0  0  0  0  0
   59.8570   34.9750   47.0700 C   0  0  0  0  0  0  0  0  0  0  0  0
   59.6350   35.3900   45.7640 C   0  0  0  0  0  0  0  0  0  0  0  0
   59.1570   34.4930   44.8130 C   0  0  0  0  0  0  0  0  0  0  0  0
   58.8700   33.1470   45.1530 C   0  0  0  0  0  0  0  0  0  0  0  0
   58.3740   32.2620   44.2120 N   0  0  0  0  0  0  0  0  0  0  0  0
   57.9610   32.7130   42.8690 C   0  0  0  0  0  0  0  0  0  0  0  0
   58.2920   30.9360   44.5430 C   0  0  0  0  0  0  0  0  0  0  0  0
   57.9730   29.9260   43.6990 N   0  0  0  0  0  0  0  0  0  0  0  0
   58.0290   28.8090   44.4440 C   0  0  0  0  0  0  0  0  0  0  0  0
   57.8050   27.5090   43.9940 C   0  0  0  0  0  0  0  0  0  0  0  0
   57.9490   26.4560   44.9090 C   0  0  0  0  0  0  0  0  0  0  0  0
   58.3210   26.7120   46.2480 C   0  0  0  0  0  0  0  0  0  0  0  0
   58.5270   25.5690   47.1970 C   0  0  0  0  0  0  0  0  0  0  0  0
   58.5700   28.0370   46.6680 C   0  0  0  0  0  0  0  0  0  0  0  0
   58.3860   29.0810   45.7490 C   0  0  0  0  0  0  0  0  0  0  0  0
   58.5520   30.4680   45.8210 C   0  0  0  0  0  0  0  0  0  0  0  0
   59.3702   34.0630   51.6958 H   0  0  0  0  0  0  0  0  0  0  0  0
   60.1552   34.5268   50.1481 H   0  0  0  0  0  0  0  0  0  0  0  0
   58.7890   33.3605   50.1481 H   0  0  0  0  0  0  0  0  0  0  0  0
   61.5447   32.9019   51.4082 H   0  0  0  0  0  0  0  0  0  0  0  0
   60.1671   31.7349   51.4028 H   0  0  0  0  0  0  0  0  0  0  0  0
   62.3245   33.7360   49.2423 H   0  0  0  0  0  0  0  0  0  0  0  0
   63.1787   32.2222   49.7304 H   0  0  0  0  0  0  0  0  0  0  0  0
   63.4090   31.5210   47.5848 H   0  0  0  0  0  0  0  0  0  0  0  0
   61.7371   32.0108   47.1473 H   0  0  0  0  0  0  0  0  0  0  0  0
   63.0584   33.2276   47.1473 H   0  0  0  0  0  0  0  0  0  0  0  0
   62.1550   30.2312   49.2790 H   0  0  0  0  0  0  0  0  0  0  0  0
   60.7988   30.1659   50.4627 H   0  0  0  0  0  0  0  0  0  0  0  0
   60.7410   30.0019   47.4420 H   0  0  0  0  0  0  0  0  0  0  0  0
   59.8482   29.0330   48.6881 H   0  0  0  0  0  0  0  0  0  0  0  0
   58.1340   30.3970   48.5030 H   0  0  0  0  0  0  0  0  0  0  0  0
   59.0530   31.7060   48.8860 H   0  0  0  0  0  0  0  0  0  0  0  0
   59.8047   33.3363   48.4725 H   0  0  0  0  0  0  0  0  0  0  0  0
   60.2269   35.6921   47.8176 H   0  0  0  0  0  0  0  0  0  0  0  0
   59.8379   36.4330   45.4793 H   0  0  0  0  0  0  0  0  0  0  0  0
   58.9992   34.8346   43.7794 H   0  0  0  0  0  0  0  0  0  0  0  0
   57.2209   33.5211   42.9651 H   0  0  0  0  0  0  0  0  0  0  0  0
   58.8395   33.0836   42.3204 H   0  0  0  0  0  0  0  0  0  0  0  0
   57.5147   31.8705   42.3204 H   0  0  0  0  0  0  0  0  0  0  0  0
   57.7740   29.9620   42.6760 H   0  0  0  0  0  0  0  0  0  0  0  0
   57.5227   27.3141   42.9488 H   0  0  0  0  0  0  0  0  0  0  0  0
   57.7707   25.4212   44.5813 H   0  0  0  0  0  0  0  0  0  0  0  0
   58.4610   25.9354   48.2321 H   0  0  0  0  0  0  0  0  0  0  0  0
   57.7517   24.8074   47.0275 H   0  0  0  0  0  0  0  0  0  0  0  0
   59.5195   25.1260   47.0275 H   0  0  0  0  0  0  0  0  0  0  0  0
   58.9018   28.2465   47.6956 H   0  0  0  0  0  0  0  0  0  0  0  0
  1  2  1  0
  2  3  1  0
  3  4  1  0
  4  5  1  0
  3  6  1  0
  6  7  1  0
  7  8  1  0
  8  9  1  0
  9 10  2  0
 10 11  1  0
 11 12  2  0
 12 13  1  0
 13 14  2  0
 14 15  1  0
 15 16  2  0
 16 17  1  0
 16 18  1  0
 18 19  1  0
 19 20  1  0
 20 21  2  0
 21 22  1  0
 22 23  2  0
 23 24  1  0
 23 25  1  0
 25 26  2  0
 26 27  1  0
 27  9  1  0
 15 10  1  0
 27 18  2  0
 26 20  1  0
  1 28  1  0
  1 29  1  0
  1 30  1  0
  2 31  1  0
  2 32  1  0
  4 33  1  0
  4 34  1  0
  5 35  1  0
  5 36  1  0
  5 37  1  0
  6 38  1  0
  6 39  1  0
  7 40  1  0
  7 41  1  0
  8 42  1  0
  8 43  1  0
 11 44  1  0
 12 45  1  0
 13 46  1  0
 14 47  1  0
 17 48  1  0
 17 49  1  0
 17 50  1  0
 19 51  1  0
 21 52  1  0
 22 53  1  0
 24 54  1  0
 24 55  1  0
 24 56  1  0
 25 57  1  0
M  CHG  2   8   1  16   1
M  END
>  <UniqueID>  (25) 
23

>  <SMILES>  (25) 
CCN(CC)CC[NH2+]c1c2ccccc2[n+](C)c2[nH]c3ccc(C)cc3c12

>  <Energy>  (25) 
113.18506962293247

>  <Genealogy>  (25) 
CCN(CC)CC[NH2+]c1c2ccccc2[n+](C)c2[nH]c3ccc(C)cc3c12 (protonated)
CCN(CC)CC[NH2+]c1c2ccccc2[n+](C)c2[nH]c3ccc(C)cc3c12 (3D coordinates assigned)
CCN(CC)CC[NH2+]c1c2ccccc2[n+](C)c2[nH]c3ccc(C)cc3c12 (optimized conformer: 113.18506962293247 kcal/mol)

>  <smiles>  (25) 
CCN(CC)CCNc1c2ccccc2[n+](C)c2[nH]c3ccc(C)cc3c12

>  <score_type>  (25) 
oracle

>  <origin>  (25) 
adg

>  <m_score__min__energy>  (25) 
-4.7199999999999998

>  <m_primary>  (25) 
energy

$$$$
25:0
     RDKit          3D

 40 41  0  0  0  0  0  0  0  0999 V2000
   56.6270   29.3530   44.1680 C   0  0  0  0  0  0  0  0  0  0  0  0
   56.8800   30.5700   44.9560 N   0  0  0  0  0  0  0  0  0  0  0  0
   57.7810   30.3800   46.1120 C   0  0  0  0  0  0  0  0  0  0  0  0
   59.2200   30.8670   45.8630 C   0  0  0  0  0  0  0  0  0  0  0  0
   59.3670   32.3900   45.6680 C   0  0  0  0  0  0  0  0  0  0  0  0
   58.1470   33.1850   45.9540 N   0  0  1  0  0  0  0  0  0  0  0  0
   58.4880   34.5910   46.3100 C   0  0  0  0  0  0  0  0  0  0  0  0
   59.9880   34.8810   46.5970 C   0  0  0  0  0  0  0  0  0  0  0  0
   60.4970   34.2720   47.8910 C   0  0  0  0  0  0  0  0  0  0  0  0
   59.6310   34.2230   48.9970 C   0  0  0  0  0  0  0  0  0  0  0  0
   60.0550   33.6850   50.2120 C   0  0  0  0  0  0  0  0  0  0  0  0
   61.3520   33.1930   50.3450 C   0  0  0  0  0  0  0  0  0  0  0  0
   62.2390   33.2430   49.2660 C   0  0  0  0  0  0  0  0  0  0  0  0
   63.8690   32.6120   49.4930 Cl  0  0  0  0  0  0  0  0  0  0  0  0
   61.8240   33.7880   48.0340 C   0  0  0  0  0  0  0  0  0  0  0  0
   62.7560   33.8240   46.9280 C   0  0  0  0  0  0  0  0  0  0  0  0
   63.5010   33.8520   46.0430 N   0  0  0  0  0  0  0  0  0  0  0  0
   57.1110   33.1020   44.8910 C   0  0  0  0  0  0  0  0  0  0  0  0
   57.1590   31.7580   44.1270 C   0  0  0  0  0  0  0  0  0  0  0  0
   56.4509   28.5062   44.8476 H   0  0  0  0  0  0  0  0  0  0  0  0
   55.7411   29.5044   43.5337 H   0  0  0  0  0  0  0  0  0  0  0  0
   57.4998   29.1388   43.5337 H   0  0  0  0  0  0  0  0  0  0  0  0
   57.3697   30.9357   46.9676 H   0  0  0  0  0  0  0  0  0  0  0  0
   57.8366   29.2978   46.3012 H   0  0  0  0  0  0  0  0  0  0  0  0
   59.8344   30.5725   46.7266 H   0  0  0  0  0  0  0  0  0  0  0  0
   59.5431   30.4031   44.9194 H   0  0  0  0  0  0  0  0  0  0  0  0
   60.1671   32.7427   46.3354 H   0  0  0  0  0  0  0  0  0  0  0  0
   59.5861   32.5410   44.6007 H   0  0  0  0  0  0  0  0  0  0  0  0
   57.7450   32.7920   46.8380 H   0  0  0  0  0  0  0  0  0  0  0  0
   58.1756   35.2342   45.4741 H   0  0  0  0  0  0  0  0  0  0  0  0
   57.9629   34.7912   47.2556 H   0  0  0  0  0  0  0  0  0  0  0  0
   60.5840   34.4759   45.7659 H   0  0  0  0  0  0  0  0  0  0  0  0
   60.0882   35.9718   46.6971 H   0  0  0  0  0  0  0  0  0  0  0  0
   58.6069   34.6135   48.9033 H   0  0  0  0  0  0  0  0  0  0  0  0
   59.3640   33.6490   51.0671 H   0  0  0  0  0  0  0  0  0  0  0  0
   61.6791   32.7634   51.3034 H   0  0  0  0  0  0  0  0  0  0  0  0
   56.1193   33.2100   45.3546 H   0  0  0  0  0  0  0  0  0  0  0  0
   57.3065   33.9071   44.1674 H   0  0  0  0  0  0  0  0  0  0  0  0
   56.4132   31.7956   43.3193 H   0  0  0  0  0  0  0  0  0  0  0  0
   58.1892   31.6457   43.7581 H   0  0  0  0  0  0  0  0  0  0  0  0
  1  2  1  0
  2  3  1  0
  3  4  1  0
  4  5  1  0
  5  6  1  0
  6  7  1  0
  7  8  1  0
  8  9  1  0
  9 10  2  0
 10 11  1  0
 11 12  2  0
 12 13  1  0
 13 14  1  0
 13 15  2  0
 15 16  1  0
 16 17  3  0
  6 18  1  0
 18 19  1  0
 19  2  1  0
 15  9  1  0
  1 20  1  0
  1 21  1  0
  1 22  1  0
  3 23  1  0
  3 24  1  0
  4 25  1  0
  4 26  1  0
  5 27  1  0
  5 28  1  0
  6 29  1  1
  7 30  1  0
  7 31  1  0
  8 32  1  0
  8 33  1  0
 10 34  1  0
 11 35  1  0
 12 36  1  0
 18 37  1  0
 18 38  1  0
 19 39  1  0
 19 40  1  0
M  CHG  1   6   1
M  END
>  <UniqueID>  (26) 
24

>  <SMILES>  (26) 
CN1CCC[N@@H+](CCc2cccc(Cl)c2C#N)CC1

>  <Energy>  (26) 
61.4512651834327

>  <Genealogy>  (26) 
CN1CCC[NH+](CCc2cccc(Cl)c2C#N)CC1 (protonated)
CN1CCC[N@@H+](CCc2cccc(Cl)c2C#N)CC1 (chirality)
CN1CCC[N@@H+](CCc2cccc(Cl)c2C#N)CC1 (3D coordinates assigned)
CN1CCC[N@@H+](CCc2cccc(Cl)c2C#N)CC1 (nonaromatic ring conformer: 61.4512651834327 kcal/mol)

>  <smiles>  (26) 
CN1CCCN(CCc2cccc(Cl)c2C#N)CC1

>  <score_type>  (26) 
oracle

>  <origin>  (26) 
adg

>  <m_score__min__energy>  (26) 
-3.1200000000000001

>  <m_primary>  (26) 
energy

$$$$
26:0
     RDKit          3D

 61 64  0  0  0  0  0  0  0  0999 V2000
   63.0780   33.5900   46.7240 C   0  0  0  0  0  0  0  0  0  0  0  0
   63.0880   33.6400   48.2520 C   0  0  0  0  0  0  0  0  0  0  0  0
   62.0580   32.7510   48.8320 N   0  0  0  0  0  0  0  0  0  0  0  0
   61.7830   33.1160   50.2380 C   0  0  0  0  0  0  0  0  0  0  0  0
   62.4780   31.3320   48.7400 C   0  0  0  0  0  0  0  0  0  0  0  0
   61.3890   30.4780   48.0720 C   0  0  0  0  0  0  0  0  0  0  0  0
   60.0410   30.9780   48.3910 N   0  0  0  0  0  0  0  0  0  0  0  0
   59.1930   30.9430   47.2090 C   0  0  0  0  0  0  0  0  0  0  0  0
   58.9460   32.1260   46.4620 C   0  0  0  0  0  0  0  0  0  0  0  0
   59.4020   33.3930   46.9040 C   0  0  0  0  0  0  0  0  0  0  0  0
   59.2410   34.5300   46.1160 C   0  0  0  0  0  0  0  0  0  0  0  0
   58.6320   34.4350   44.8740 C   0  0  0  0  0  0  0  0  0  0  0  0
   58.1290   33.2130   44.4360 C   0  0  0  0  0  0  0  0  0  0  0  0
   58.2210   32.0470   45.2400 C   0  0  0  0  0  0  0  0  0  0  0  0
   57.6350   30.8590   44.8510 N   0  0  0  0  0  0  0  0  0  0  0  0
   56.6330   30.8560   43.7590 C   0  0  0  0  0  0  0  0  0  0  0  0
   57.9310   29.6850   45.5160 C   0  0  0  0  0  0  0  0  0  0  0  0
   57.5450   28.4240   44.9910 C   0  0  0  0  0  0  0  0  0  0  0  0
   57.7420   27.2370   45.7080 C   0  0  0  0  0  0  0  0  0  0  0  0
   57.3140   25.9310   45.1450 C   0  0  0  0  0  0  0  0  0  0  0  0
   56.7380   24.9500   45.9720 C   0  0  0  0  0  0  0  0  0  0  0  0
   56.3340   23.7210   45.4400 C   0  0  0  0  0  0  0  0  0  0  0  0
   56.5010   23.4500   44.0700 C   0  0  0  0  0  0  0  0  0  0  0  0
   56.1130   22.2330   43.4900 O   0  0  0  0  0  0  0  0  0  0  0  0
   57.0170   21.2040   43.1010 C   0  0  0  0  0  0  0  0  0  0  0  0
   57.0750   24.4250   43.2480 C   0  0  0  0  0  0  0  0  0  0  0  0
   57.4790   25.6540   43.7760 C   0  0  0  0  0  0  0  0  0  0  0  0
   58.3380   27.3000   46.9690 C   0  0  0  0  0  0  0  0  0  0  0  0
   58.7860   28.5150   47.4780 C   0  0  0  0  0  0  0  0  0  0  0  0
   58.6460   29.7160   46.7440 C   0  0  0  0  0  0  0  0  0  0  0  0
   62.8723   32.5616   46.3921 H   0  0  0  0  0  0  0  0  0  0  0  0
   62.2966   34.2624   46.3402 H   0  0  0  0  0  0  0  0  0  0  0  0
   64.0580   33.9100   46.3402 H   0  0  0  0  0  0  0  0  0  0  0  0
   64.0776   33.3232   48.6132 H   0  0  0  0  0  0  0  0  0  0  0  0
   62.8679   34.6715   48.5642 H   0  0  0  0  0  0  0  0  0  0  0  0
   62.3083   32.4188   50.9073 H   0  0  0  0  0  0  0  0  0  0  0  0
   62.1354   34.1409   50.4264 H   0  0  0  0  0  0  0  0  0  0  0  0
   60.7007   33.0599   50.4264 H   0  0  0  0  0  0  0  0  0  0  0  0
   63.4010   31.2678   48.1451 H   0  0  0  0  0  0  0  0  0  0  0  0
   62.6482   30.9500   49.7574 H   0  0  0  0  0  0  0  0  0  0  0  0
   61.5318   30.5053   46.9816 H   0  0  0  0  0  0  0  0  0  0  0  0
   61.4749   29.4493   48.4521 H   0  0  0  0  0  0  0  0  0  0  0  0
   60.0950   31.9400   48.7920 H   0  0  0  0  0  0  0  0  0  0  0  0
   59.6140   30.4300   49.1680 H   0  0  0  0  0  0  0  0  0  0  0  0
   59.8911   33.4798   47.8855 H   0  0  0  0  0  0  0  0  0  0  0  0
   59.5976   35.5050   46.4796 H   0  0  0  0  0  0  0  0  0  0  0  0
   58.5462   35.3258   44.2343 H   0  0  0  0  0  0  0  0  0  0  0  0
   57.6509   33.1499   43.4474 H   0  0  0  0  0  0  0  0  0  0  0  0
   55.6210   30.8530   44.1900 H   0  0  0  0  0  0  0  0  0  0  0  0
   56.7645   31.7545   43.1382 H   0  0  0  0  0  0  0  0  0  0  0  0
   56.7699   29.9583   43.1382 H   0  0  0  0  0  0  0  0  0  0  0  0
   57.0792   28.3778   43.9956 H   0  0  0  0  0  0  0  0  0  0  0  0
   56.6042   25.1507   47.0452 H   0  0  0  0  0  0  0  0  0  0  0  0
   55.8832   22.9623   46.0967 H   0  0  0  0  0  0  0  0  0  0  0  0
   57.4368   20.7262   43.9985 H   0  0  0  0  0  0  0  0  0  0  0  0
   56.4815   20.4527   42.5020 H   0  0  0  0  0  0  0  0  0  0  0  0
   57.8310   21.6382   42.5020 H   0  0  0  0  0  0  0  0  0  0  0  0
   57.2098   24.2224   42.1753 H   0  0  0  0  0  0  0  0  0  0  0  0
   57.9293   26.4103   43.1162 H   0  0  0  0  0  0  0  0  0  0  0  0
   58.4542   26.3824   47.5644 H   0  0  0  0  0  0  0  0  0  0  0  0
   59.2585   28.5421   48.4710 H   0  0  0  0  0  0  0  0  0  0  0  0
  1  2  1  0
  2  3  1  0
  3  4  1  0
  3  5  1  0
  5  6  1  0
  6  7  1  0
  7  8  1  0
  8  9  2  0
  9 10  1  0
 10 11  2  0
 11 12  1  0
 12 13  2  0
 13 14  1  0
 14 15  2  0
 15 16  1  0
 15 17  1  0
 17 18  2  0
 18 19  1  0
 19 20  1  0
 20 21  2  0
 21 22  1  0
 22 23  2  0
 23 24  1  0
 24 25  1  0
 23 26  1  0
 26 27  2  0
 19 28  2  0
 28 29  1  0
 29 30  2  0
 30  8  1  0
 14  9  1  0
 30 17  1  0
 27 20  1  0
  1 31  1  0
  1 32  1  0
  1 33  1  0
  2 34  1  0
  2 35  1  0
  4 36  1  0
  4 37  1  0
  4 38  1  0
  5 39  1  0
  5 40  1  0
  6 41  1  0
  6 42  1  0
  7 43  1  0
  7 44  1  0
 10 45  1  0
 11 46  1  0
 12 47  1  0
 13 48  1  0
 16 49  1  0
 16 50  1  0
 16 51  1  0
 18 52  1  0
 21 53  1  0
 22 54  1  0
 25 55  1  0
 25 56  1  0
 25 57  1  0
 26 58  1  0
 27 59  1  0
 28 60  1  0
 29 61  1  0
M  CHG  2   7   1  15   1
M  END
>  <UniqueID>  (27) 
25

>  <SMILES>  (27) 
CCN(C)CC[NH2+]c1c2ccccc2[n+](C)c2cc(-c3ccc(OC)cc3)ccc12

>  <Energy>  (27) 
96.68703668127078

>  <Genealogy>  (27) 
CCN(C)CC[NH2+]c1c2ccccc2[n+](C)c2cc(-c3ccc(OC)cc3)ccc12 (protonated)
CCN(C)CC[NH2+]c1c2ccccc2[n+](C)c2cc(-c3ccc(OC)cc3)ccc12 (3D coordinates assigned)
CCN(C)CC[NH2+]c1c2ccccc2[n+](C)c2cc(-c3ccc(OC)cc3)ccc12 (optimized conformer: 96.68703668127078 kcal/mol)

>  <smiles>  (27) 
CCN(C)CCNc1c2ccccc2[n+](C)c2cc(-c3ccc(OC)cc3)ccc12

>  <score_type>  (27) 
oracle

>  <origin>  (27) 
adg

>  <m_score__min__energy>  (27) 
-5.6699999999999999

>  <m_primary>  (27) 
energy

$$$$
