0:0
     RDKit          3D

 33 34  0  0  0  0  0  0  0  0999 V2000
   61.9340   31.2430   48.2030 C   0  0  0  0  0  0  0  0  0  0  0  0
   61.2350   30.0190   48.4040 O   0  0  0  0  0  0  0  0  0  0  0  0
   60.3820   29.4310   47.4590 C   0  0  0  0  0  0  0  0  0  0  0  0
   59.1770   28.7990   47.8200 C   0  0  0  0  0  0  0  0  0  0  0  0
   58.3500   28.2450   46.8380 C   0  0  0  0  0  0  0  0  0  0  0  0
   58.7170   28.3060   45.4850 C   0  0  0  0  0  0  0  0  0  0  0  0
   57.7740   27.8160   44.4200 C   0  0  0  0  0  0  0  0  0  0  0  0
   57.4680   28.9140   43.5090 N   0  0  0  0  0  0  0  0  0  0  0  0
   56.7980   30.0940   43.9690 C   0  0  0  0  0  0  0  0  0  0  0  0
   55.9220   30.0150   44.8720 O   0  0  0  0  0  0  0  0  0  0  0  0
   57.2110   31.4350   43.4520 C   0  0  0  0  0  0  0  0  0  0  0  0
   57.6260   32.2970   44.6030 C   0  0  0  0  0  0  0  0  0  0  0  0
   57.8190   33.6720   44.5580 C   0  0  0  0  0  0  0  0  0  0  0  0
   58.3430   34.1950   45.7470 C   0  0  0  0  0  0  0  0  0  0  0  0
   58.5810   33.2340   46.7200 C   0  0  0  0  0  0  0  0  0  0  0  0
   58.1440   31.7330   46.0990 S   0  0  0  0  0  0  0  0  0  0  0  0
   59.9170   28.9380   45.1260 C   0  0  0  0  0  0  0  0  0  0  0  0
   60.7450   29.4860   46.1080 C   0  0  0  0  0  0  0  0  0  0  0  0
   62.1866   31.6853   49.1779 H   0  0  0  0  0  0  0  0  0  0  0  0
   62.8576   31.0493   47.6379 H   0  0  0  0  0  0  0  0  0  0  0  0
   61.2978   31.9400   47.6379 H   0  0  0  0  0  0  0  0  0  0  0  0
   58.8848   28.7408   48.8789 H   0  0  0  0  0  0  0  0  0  0  0  0
   57.4067   27.7588   47.1276 H   0  0  0  0  0  0  0  0  0  0  0  0
   58.2453   26.9943   43.8608 H   0  0  0  0  0  0  0  0  0  0  0  0
   56.8463   27.4526   44.8861 H   0  0  0  0  0  0  0  0  0  0  0  0
   58.0120   28.9680   42.6180 H   0  0  0  0  0  0  0  0  0  0  0  0
   58.0551   31.3177   42.7565 H   0  0  0  0  0  0  0  0  0  0  0  0
   56.3683   31.9038   42.9228 H   0  0  0  0  0  0  0  0  0  0  0  0
   57.5840   34.2879   43.6774 H   0  0  0  0  0  0  0  0  0  0  0  0
   58.5466   35.2657   45.8956 H   0  0  0  0  0  0  0  0  0  0  0  0
   58.9861   33.4219   47.7253 H   0  0  0  0  0  0  0  0  0  0  0  0
   60.2068   29.0021   44.0668 H   0  0  0  0  0  0  0  0  0  0  0  0
   61.6914   29.9654   45.8173 H   0  0  0  0  0  0  0  0  0  0  0  0
  1  2  1  0
  2  3  1  0
  3  4  2  0
  4  5  1  0
  5  6  2  0
  6  7  1  0
  7  8  1  0
  8  9  1  0
  9 10  2  0
  9 11  1  0
 11 12  1  0
 12 13  2  0
 13 14  1  0
 14 15  2  0
 15 16  1  0
  6 17  1  0
 17 18  2  0
 18  3  1  0
 16 12  1  0
  1 19  1  0
  1 20  1  0
  1 21  1  0
  4 22  1  0
  5 23  1  0
  7 24  1  0
  7 25  1  0
  8 26  1  0
 11 27  1  0
 11 28  1  0
 13 29  1  0
 14 30  1  0
 15 31  1  0
 17 32  1  0
 18 33  1  0
M  END
>  <UniqueID>  (1) 
1

>  <SMILES>  (1) 
COc1ccc(CNC(=O)Cc2cccs2)cc1

>  <Energy>  (1) 
50.26880939958097

>  <Genealogy>  (1) 
COc1ccc(CNC(=O)Cc2cccs2)cc1 (3D coordinates assigned)
COc1ccc(CNC(=O)Cc2cccs2)cc1 (optimized conformer: 50.26880939958097 kcal/mol)

>  <smiles>  (1) 
COc1ccc(CNC(=O)Cc2cccs2)cc1

>  <score_type>  (1) 
oracle

>  <origin>  (1) 
adg

>  <m_score__min__energy>  (1) 
-6.1699999999999999

>  <m_primary>  (1) 
energy

$$$$
1:0
     RDKit          3D

 51 53  0  0  0  0  0  0  0  0999 V2000
   58.8550   32.3870   48.3130 C   0  0  0  0  0  0  0  0  0  0  0  0
   59.4600   33.7850   48.1790 C   0  0  0  0  0  0  0  0  0  0  0  0
   60.2610   33.9670   46.8770 C   0  0  0  0  0  0  0  0  0  0  0  0
   59.4540   34.5660   45.7110 C   0  0  0  0  0  0  0  0  0  0  0  0
   57.9530   34.2470   45.8050 C   0  0  0  0  0  0  0  0  0  0  0  0
   57.4040   33.6820   44.4870 C   0  0  0  0  0  0  0  0  0  0  0  0
   57.3790   32.2230   44.5140 N   0  0  0  0  0  0  0  0  0  0  0  0
   58.4320   31.4030   44.3600 C   0  0  0  0  0  0  0  0  0  0  0  0
   57.9560   30.1300   44.5790 C   0  0  0  0  0  0  0  0  0  0  0  0
   58.7770   28.8860   44.6880 C   0  0  0  0  0  0  0  0  0  0  0  0
   59.7430   29.0280   45.8200 C   0  0  0  0  0  0  0  0  0  0  0  0
   60.4500   30.1450   46.0750 N   0  0  0  0  0  0  0  0  0  0  0  0
   61.0760   29.8800   47.2120 N   0  0  0  0  0  0  0  0  0  0  0  0
   61.9120   30.8170   47.9130 C   0  0  0  0  0  0  0  0  0  0  0  0
   62.8460   31.6010   47.2140 C   0  0  0  0  0  0  0  0  0  0  0  0
   63.6980   32.4670   47.9040 C   0  0  0  0  0  0  0  0  0  0  0  0
   63.6220   32.5740   49.3010 C   0  0  0  0  0  0  0  0  0  0  0  0
   64.5760   33.4650   50.0510 C   0  0  0  0  0  0  0  0  0  0  0  0
   65.9650   32.8350   50.1120 C   0  0  0  0  0  0  0  0  0  0  0  0
   62.6930   31.7900   50.0010 C   0  0  0  0  0  0  0  0  0  0  0  0
   61.8420   30.9210   49.3130 C   0  0  0  0  0  0  0  0  0  0  0  0
   60.7700   28.6680   47.6510 N   0  0  0  0  0  0  0  0  0  0  0  0
   59.9330   28.1170   46.7900 N   0  0  0  0  0  0  0  0  0  0  0  0
   56.6430   30.2090   44.8780 N   0  0  0  0  0  0  0  0  0  0  0  0
   56.3190   31.4940   44.8270 N   0  0  0  0  0  0  0  0  0  0  0  0
   58.7460   32.1352   49.3782 H   0  0  0  0  0  0  0  0  0  0  0  0
   57.8676   32.3668   47.8286 H   0  0  0  0  0  0  0  0  0  0  0  0
   59.5162   31.6534   47.8286 H   0  0  0  0  0  0  0  0  0  0  0  0
   58.6450   34.5236   48.1962 H   0  0  0  0  0  0  0  0  0  0  0  0
   60.1567   33.9258   49.0185 H   0  0  0  0  0  0  0  0  0  0  0  0
   61.1100   34.6344   47.0861 H   0  0  0  0  0  0  0  0  0  0  0  0
   60.5734   32.9617   46.5581 H   0  0  0  0  0  0  0  0  0  0  0  0
   59.5830   35.6584   45.7178 H   0  0  0  0  0  0  0  0  0  0  0  0
   59.8319   34.1185   44.7799 H   0  0  0  0  0  0  0  0  0  0  0  0
   57.7963   33.5056   46.6024 H   0  0  0  0  0  0  0  0  0  0  0  0
   57.4185   35.1833   46.0234 H   0  0  0  0  0  0  0  0  0  0  0  0
   56.3812   34.0566   44.3333 H   0  0  0  0  0  0  0  0  0  0  0  0
   58.0604   34.0063   43.6661 H   0  0  0  0  0  0  0  0  0  0  0  0
   59.4640   31.6902   44.1099 H   0  0  0  0  0  0  0  0  0  0  0  0
   58.1173   28.0257   44.8739 H   0  0  0  0  0  0  0  0  0  0  0  0
   59.3296   28.7264   43.7504 H   0  0  0  0  0  0  0  0  0  0  0  0
   62.9065   31.5324   46.1178 H   0  0  0  0  0  0  0  0  0  0  0  0
   64.4328   33.0685   47.3488 H   0  0  0  0  0  0  0  0  0  0  0  0
   64.6418   34.4363   49.5389 H   0  0  0  0  0  0  0  0  0  0  0  0
   64.2027   33.6000   51.0769 H   0  0  0  0  0  0  0  0  0  0  0  0
   66.2609   32.7008   51.1629 H   0  0  0  0  0  0  0  0  0  0  0  0
   65.9465   31.8572   49.6085 H   0  0  0  0  0  0  0  0  0  0  0  0
   66.6885   33.4930   49.6085 H   0  0  0  0  0  0  0  0  0  0  0  0
   62.6341   31.8596   51.0972 H   0  0  0  0  0  0  0  0  0  0  0  0
   61.1129   30.3146   49.8704 H   0  0  0  0  0  0  0  0  0  0  0  0
   59.5000   27.1720   46.8840 H   0  0  0  0  0  0  0  0  0  0  0  0
  1  2  1  0
  2  3  1  0
  3  4  1  0
  4  5  1  0
  5  6  1  0
  6  7  1  0
  7  8  1  0
  8  9  2  0
  9 10  1  0
 10 11  1  0
 11 12  2  0
 12 13  1  0
 13 14  1  0
 14 15  2  0
 15 16  1  0
 16 17  2  0
 17 18  1  0
 18 19  1  0
 17 20  1  0
 20 21  2  0
 13 22  1  0
 22 23  2  0
  9 24  1  0
 24 25  2  0
 25  7  1  0
 23 11  1  0
 21 14  1  0
  1 26  1  0
  1 27  1  0
  1 28  1  0
  2 29  1  0
  2 30  1  0
  3 31  1  0
  3 32  1  0
  4 33  1  0
  4 34  1  0
  5 35  1  0
  5 36  1  0
  6 37  1  0
  6 38  1  0
  8 39  1  0
 10 40  1  0
 10 41  1  0
 15 42  1  0
 16 43  1  0
 18 44  1  0
 18 45  1  0
 19 46  1  0
 19 47  1  0
 19 48  1  0
 20 49  1  0
 21 50  1  0
 23 51  1  0
M  CHG  1  23   1
M  END
>  <UniqueID>  (2) 
2

>  <SMILES>  (2) 
CCCCCCn1cc(Cc2nn(-c3ccc(CC)cc3)n[nH+]2)nn1

>  <Energy>  (2) 
108.73973159080712

>  <Genealogy>  (2) 
CCCCCCn1cc(Cc2nn(-c3ccc(CC)cc3)n[nH+]2)nn1 (protonated)
CCCCCCn1cc(Cc2nn(-c3ccc(CC)cc3)n[nH+]2)nn1 (3D coordinates assigned)
CCCCCCn1cc(Cc2nn(-c3ccc(CC)cc3)n[nH+]2)nn1 (optimized conformer: 108.73973159080712 kcal/mol)

>  <smiles>  (2) 
CCCCCCn1cc(Cc2nnn(-c3ccc(CC)cc3)n2)nn1

>  <score_type>  (2) 
oracle

>  <origin>  (2) 
adg

>  <m_score__min__energy>  (2) 
-7.3099999999999996

>  <m_primary>  (2) 
energy

$$$$
2:0
     RDKit          3D

 46 48  0  0  0  0  0  0  0  0999 V2000
   59.6520   33.9420   49.7750 C   0  0  0  0  0  0  0  0  0  0  0  0
   60.3710   34.2930   48.4760 C   0  0  0  0  0  0  0  0  0  0  0  0
   59.4130   34.9630   47.4800 C   0  0  0  0  0  0  0  0  0  0  0  0
   59.8300   34.7610   46.0110 C   0  0  0  0  0  0  0  0  0  0  0  0
   58.9490   33.7890   45.2020 C   0  0  0  0  0  0  0  0  0  0  0  0
   57.6820   33.3230   45.9410 C   0  0  0  0  0  0  0  0  0  0  0  0
   57.4330   31.8940   45.7430 N   0  0  0  0  0  0  0  0  0  0  0  0
   56.5600   31.4250   44.8640 N   0  0  0  0  0  0  0  0  0  0  0  0
   56.6330   30.1050   44.7870 N   0  0  0  0  0  0  0  0  0  0  0  0
   57.6000   29.7100   45.6400 C   0  0  0  0  0  0  0  0  0  0  0  0
   57.9900   28.2980   45.8390 C   0  0  0  0  0  0  0  0  0  0  0  0
   57.0210   27.2890   45.9750 C   0  0  0  0  0  0  0  0  0  0  0  0
   57.4090   25.9580   46.1590 C   0  0  0  0  0  0  0  0  0  0  0  0
   58.7650   25.6230   46.1980 C   0  0  0  0  0  0  0  0  0  0  0  0
   59.7350   26.6160   46.0430 C   0  0  0  0  0  0  0  0  0  0  0  0
   59.3510   27.9490   45.8600 C   0  0  0  0  0  0  0  0  0  0  0  0
   58.1210   30.8450   46.2460 C   0  0  0  0  0  0  0  0  0  0  0  0
   59.3050   30.9260   47.1280 C   0  0  0  0  0  0  0  0  0  0  0  0
   59.1950   30.6480   48.4990 C   0  0  0  0  0  0  0  0  0  0  0  0
   60.3230   30.7050   49.3230 C   0  0  0  0  0  0  0  0  0  0  0  0
   61.5720   31.0250   48.7810 C   0  0  0  0  0  0  0  0  0  0  0  0
   62.6650   31.0730   49.5810 F   0  0  0  0  0  0  0  0  0  0  0  0
   61.6890   31.2970   47.4160 C   0  0  0  0  0  0  0  0  0  0  0  0
   60.5620   31.2490   46.5910 C   0  0  0  0  0  0  0  0  0  0  0  0
   60.2727   34.2450   50.6311 H   0  0  0  0  0  0  0  0  0  0  0  0
   58.6884   34.4711   49.8153 H   0  0  0  0  0  0  0  0  0  0  0  0
   59.4764   32.8568   49.8153 H   0  0  0  0  0  0  0  0  0  0  0  0
   61.1988   34.9824   48.6981 H   0  0  0  0  0  0  0  0  0  0  0  0
   60.7525   33.3651   48.0250 H   0  0  0  0  0  0  0  0  0  0  0  0
   58.4084   34.5376   47.6204 H   0  0  0  0  0  0  0  0  0  0  0  0
   59.4343   36.0442   47.6812 H   0  0  0  0  0  0  0  0  0  0  0  0
   59.8010   35.7409   45.5120 H   0  0  0  0  0  0  0  0  0  0  0  0
   60.8326   34.3094   46.0396 H   0  0  0  0  0  0  0  0  0  0  0  0
   58.6415   34.2930   44.2739 H   0  0  0  0  0  0  0  0  0  0  0  0
   59.5562   32.8905   45.0176 H   0  0  0  0  0  0  0  0  0  0  0  0
   57.8051   33.5175   47.0166 H   0  0  0  0  0  0  0  0  0  0  0  0
   56.8245   33.8795   45.5348 H   0  0  0  0  0  0  0  0  0  0  0  0
   55.9525   27.5474   45.9365 H   0  0  0  0  0  0  0  0  0  0  0  0
   56.6459   25.1740   46.2731 H   0  0  0  0  0  0  0  0  0  0  0  0
   59.0687   24.5769   46.3508 H   0  0  0  0  0  0  0  0  0  0  0  0
   60.8021   26.3498   46.0648 H   0  0  0  0  0  0  0  0  0  0  0  0
   60.1179   28.7271   45.7320 H   0  0  0  0  0  0  0  0  0  0  0  0
   58.2168   30.3840   48.9274 H   0  0  0  0  0  0  0  0  0  0  0  0
   60.2281   30.4979   50.3991 H   0  0  0  0  0  0  0  0  0  0  0  0
   62.6708   31.5497   46.9892 H   0  0  0  0  0  0  0  0  0  0  0  0
   60.6598   31.4650   45.5169 H   0  0  0  0  0  0  0  0  0  0  0  0
  1  2  1  0
  2  3  1  0
  3  4  1  0
  4  5  1  0
  5  6  1  0
  6  7  1  0
  7  8  1  0
  8  9  2  0
  9 10  1  0
 10 11  1  0
 11 12  2  0
 12 13  1  0
 13 14  2  0
 14 15  1  0
 15 16  2  0
 10 17  2  0
 17 18  1  0
 18 19  2  0
 19 20  1  0
 20 21  2  0
 21 22  1  0
 21 23  1  0
 23 24  2  0
 17  7  1  0
 24 18  1  0
 16 11  1  0
  1 25  1  0
  1 26  1  0
  1 27  1  0
  2 28  1  0
  2 29  1  0
  3 30  1  0
  3 31  1  0
  4 32  1  0
  4 33  1  0
  5 34  1  0
  5 35  1  0
  6 36  1  0
  6 37  1  0
 12 38  1  0
 13 39  1  0
 14 40  1  0
 15 41  1  0
 16 42  1  0
 19 43  1  0
 20 44  1  0
 23 45  1  0
 24 46  1  0
M  END
>  <UniqueID>  (3) 
3

>  <SMILES>  (3) 
CCCCCCn1nnc(-c2ccccc2)c1-c1ccc(F)cc1

>  <Energy>  (3) 
83.01084007991386

>  <Genealogy>  (3) 
CCCCCCn1nnc(-c2ccccc2)c1-c1ccc(F)cc1 (3D coordinates assigned)
CCCCCCn1nnc(-c2ccccc2)c1-c1ccc(F)cc1 (optimized conformer: 83.01084007991386 kcal/mol)

>  <smiles>  (3) 
CCCCCCn1nnc(-c2ccccc2)c1-c1ccc(F)cc1

>  <score_type>  (3) 
oracle

>  <origin>  (3) 
adg

>  <m_score__min__energy>  (3) 
-7.6900000000000004

>  <m_primary>  (3) 
energy

$$$$
3:0
     RDKit          3D

 39 41  0  0  0  0  0  0  0  0999 V2000
   57.8060   34.5930   44.8430 O   0  0  0  0  0  0  0  0  0  0  0  0
   57.9590   33.4370   45.3220 C   0  0  0  0  0  0  0  0  0  0  0  0
   57.4710   32.2800   44.5470 C   0  0  0  0  0  0  0  0  0  0  0  0
   57.7710   32.0140   43.2250 C   0  0  0  0  0  0  0  0  0  0  0  0
   57.1270   30.8360   42.9230 C   0  0  0  0  0  0  0  0  0  0  0  0
   56.4660   30.4580   44.0720 C   0  0  0  0  0  0  0  0  0  0  0  0
   56.6900   31.3390   45.0190 O   0  0  0  0  0  0  0  0  0  0  0  0
   58.5660   33.2860   46.6250 N   0  0  0  0  0  0  0  0  0  0  0  0
   59.2350   34.4550   47.2170 C   0  0  0  0  0  0  0  0  0  0  0  0
   60.6890   34.1640   47.4990 C   0  0  0  0  0  0  0  0  0  0  0  0
   61.1820   34.2180   48.8130 C   0  0  0  0  0  0  0  0  0  0  0  0
   62.5320   33.9560   49.0700 C   0  0  0  0  0  0  0  0  0  0  0  0
   63.3990   33.6400   48.0180 C   0  0  0  0  0  0  0  0  0  0  0  0
   62.9170   33.5770   46.7120 C   0  0  0  0  0  0  0  0  0  0  0  0
   61.5670   33.8380   46.4490 C   0  0  0  0  0  0  0  0  0  0  0  0
   58.5290   32.0290   47.4080 C   0  0  2  0  0  0  0  0  0  0  0  0
   58.5540   32.2260   48.9440 C   0  0  0  0  0  0  0  0  0  0  0  0
   58.9290   30.8940   49.5830 C   0  0  0  0  0  0  0  0  0  0  0  0
   60.0470   30.1410   48.4420 S   0  0  0  0  0  0  0  0  0  0  0  0
   59.7620   28.6750   48.2700 O   0  0  0  0  0  0  0  0  0  0  0  0
   61.4770   30.3620   48.8490 O   0  0  0  0  0  0  0  0  0  0  0  0
   59.6460   31.0620   46.9880 C   0  0  0  0  0  0  0  0  0  0  0  0
   58.3961   32.6194   42.5521 H   0  0  0  0  0  0  0  0  0  0  0  0
   57.1376   30.3041   41.9602 H   0  0  0  0  0  0  0  0  0  0  0  0
   55.8456   29.5560   44.1790 H   0  0  0  0  0  0  0  0  0  0  0  0
   59.1671   35.3006   46.5168 H   0  0  0  0  0  0  0  0  0  0  0  0
   58.7368   34.6987   48.1670 H   0  0  0  0  0  0  0  0  0  0  0  0
   60.5043   34.4671   49.6429 H   0  0  0  0  0  0  0  0  0  0  0  0
   62.9127   33.9985   50.1011 H   0  0  0  0  0  0  0  0  0  0  0  0
   64.4615   33.4412   48.2221 H   0  0  0  0  0  0  0  0  0  0  0  0
   63.5981   33.3219   45.8868 H   0  0  0  0  0  0  0  0  0  0  0  0
   61.1909   33.7880   45.4165 H   0  0  0  0  0  0  0  0  0  0  0  0
   57.5506   31.5882   47.1664 H   0  0  0  0  0  0  0  0  0  0  0  0
   59.2986   32.9907   49.2103 H   0  0  0  0  0  0  0  0  0  0  0  0
   57.5688   32.5584   49.3030 H   0  0  0  0  0  0  0  0  0  0  0  0
   59.4183   31.0552   50.5549 H   0  0  0  0  0  0  0  0  0  0  0  0
   58.0477   30.2646   49.7756 H   0  0  0  0  0  0  0  0  0  0  0  0
   60.5244   31.6207   46.6327 H   0  0  0  0  0  0  0  0  0  0  0  0
   59.3284   30.4055   46.1645 H   0  0  0  0  0  0  0  0  0  0  0  0
  1  2  2  0
  2  3  1  0
  3  4  2  0
  4  5  1  0
  5  6  2  0
  6  7  1  0
  2  8  1  0
  8  9  1  0
  9 10  1  0
 10 11  2  0
 11 12  1  0
 12 13  2  0
 13 14  1  0
 14 15  2  0
  8 16  1  0
 16 17  1  0
 17 18  1  0
 18 19  1  0
 19 20  2  0
 19 21  2  0
 19 22  1  0
  7  3  1  0
 15 10  1  0
 22 16  1  0
  4 23  1  0
  5 24  1  0
  6 25  1  0
  9 26  1  0
  9 27  1  0
 11 28  1  0
 12 29  1  0
 13 30  1  0
 14 31  1  0
 15 32  1  0
 16 33  1  1
 17 34  1  0
 17 35  1  0
 18 36  1  0
 18 37  1  0
 22 38  1  0
 22 39  1  0
M  END
>  <UniqueID>  (4) 
4

>  <SMILES>  (4) 
O=C(c1ccco1)N(Cc1ccccc1)[C@@H]1CCS(=O)(=O)C1

>  <Energy>  (4) 
69.96726622958265

>  <Genealogy>  (4) 
O=C(c1ccco1)N(Cc1ccccc1)[C@@H]1CCS(=O)(=O)C1 (chirality)
O=C(c1ccco1)N(Cc1ccccc1)[C@@H]1CCS(=O)(=O)C1 (3D coordinates assigned)
O=C(c1ccco1)N(Cc1ccccc1)[C@@H]1CCS(=O)(=O)C1 (nonaromatic ring conformer: 69.96726622958265 kcal/mol)

>  <smiles>  (4) 
O=C(c1ccco1)N(Cc1ccccc1)C1CCS(=O)(=O)C1

>  <score_type>  (4) 
oracle

>  <origin>  (4) 
adg

>  <m_score__min__energy>  (4) 
-7.4800000000000004

>  <m_primary>  (4) 
energy

$$$$
4:0
     RDKit          3D

 45 47  0  0  0  0  0  0  0  0999 V2000
   65.8400   33.0480   50.4170 C   0  0  0  0  0  0  0  0  0  0  0  0
   65.1220   32.3940   49.3770 O   0  0  0  0  0  0  0  0  0  0  0  0
   63.9350   32.8790   48.8070 C   0  0  0  0  0  0  0  0  0  0  0  0
   63.6430   32.7380   47.4350 C   0  0  0  0  0  0  0  0  0  0  0  0
   62.4460   33.2410   46.9150 C   0  0  0  0  0  0  0  0  0  0  0  0
   61.5230   33.8830   47.7540 C   0  0  0  0  0  0  0  0  0  0  0  0
   60.2590   34.4660   47.1810 C   0  0  0  0  0  0  0  0  0  0  0  0
   59.2360   33.4240   47.0510 N   0  0  0  0  0  0  0  0  0  0  0  0
   59.2180   32.3480   48.0030 C   0  0  0  0  0  0  0  0  0  0  0  0
   58.5490   32.4980   49.2250 C   0  0  0  0  0  0  0  0  0  0  0  0
   58.5390   31.4390   50.1330 C   0  0  0  0  0  0  0  0  0  0  0  0
   59.1910   30.2470   49.8170 C   0  0  0  0  0  0  0  0  0  0  0  0
   59.8400   30.1290   48.5860 C   0  0  0  0  0  0  0  0  0  0  0  0
   59.8370   31.1690   47.7080 N   0  0  0  0  0  0  0  0  0  0  0  0
   58.2190   33.5090   45.9880 C   0  0  1  0  0  0  0  0  0  0  0  0
   58.6660   34.4600   44.8740 C   0  0  0  0  0  0  0  0  0  0  0  0
   57.9010   32.1410   45.4520 C   0  0  0  0  0  0  0  0  0  0  0  0
   56.6430   31.7040   45.2420 N   0  0  0  0  0  0  0  0  0  0  0  0
   56.7780   30.4690   44.8650 O   0  0  0  0  0  0  0  0  0  0  0  0
   58.0490   30.1520   44.8470 C   0  0  0  0  0  0  0  0  0  0  0  0
   58.5720   28.8030   44.4890 C   0  0  0  0  0  0  0  0  0  0  0  0
   58.8270   31.1820   45.2300 N   0  0  0  0  0  0  0  0  0  0  0  0
   61.8170   34.0280   49.1190 C   0  0  0  0  0  0  0  0  0  0  0  0
   63.0130   33.5270   49.6380 C   0  0  0  0  0  0  0  0  0  0  0  0
   65.4646   32.7061   51.3928 H   0  0  0  0  0  0  0  0  0  0  0  0
   66.9100   32.8077   50.3311 H   0  0  0  0  0  0  0  0  0  0  0  0
   65.7004   34.1357   50.3311 H   0  0  0  0  0  0  0  0  0  0  0  0
   64.3588   32.2308   46.7714 H   0  0  0  0  0  0  0  0  0  0  0  0
   62.2272   33.1326   45.8425 H   0  0  0  0  0  0  0  0  0  0  0  0
   59.8886   35.2579   47.8486 H   0  0  0  0  0  0  0  0  0  0  0  0
   60.4745   34.8843   46.1867 H   0  0  0  0  0  0  0  0  0  0  0  0
   58.0369   33.4412   49.4659 H   0  0  0  0  0  0  0  0  0  0  0  0
   58.0181   31.5437   51.0961 H   0  0  0  0  0  0  0  0  0  0  0  0
   59.1940   29.4091   50.5296 H   0  0  0  0  0  0  0  0  0  0  0  0
   60.3551   29.1927   48.3252 H   0  0  0  0  0  0  0  0  0  0  0  0
   60.3230   31.0590   46.7900 H   0  0  0  0  0  0  0  0  0  0  0  0
   57.2972   33.9238   46.4218 H   0  0  0  0  0  0  0  0  0  0  0  0
   59.0939   35.3705   45.3189 H   0  0  0  0  0  0  0  0  0  0  0  0
   59.4254   33.9643   44.2515 H   0  0  0  0  0  0  0  0  0  0  0  0
   57.7997   34.7284   44.2515 H   0  0  0  0  0  0  0  0  0  0  0  0
   58.7907   28.2389   45.4077 H   0  0  0  0  0  0  0  0  0  0  0  0
   57.8182   28.2626   43.8976 H   0  0  0  0  0  0  0  0  0  0  0  0
   59.4931   28.9119   43.8976 H   0  0  0  0  0  0  0  0  0  0  0  0
   61.1029   34.5380   49.7822 H   0  0  0  0  0  0  0  0  0  0  0  0
   63.2327   33.6426   50.7096 H   0  0  0  0  0  0  0  0  0  0  0  0
  1  2  1  0
  2  3  1  0
  3  4  2  0
  4  5  1  0
  5  6  2  0
  6  7  1  0
  7  8  1  0
  8  9  1  0
  9 10  2  0
 10 11  1  0
 11 12  2  0
 12 13  1  0
 13 14  2  0
  8 15  1  0
 15 16  1  0
 15 17  1  0
 17 18  2  0
 18 19  1  0
 19 20  1  0
 20 21  1  0
 20 22  2  0
  6 23  1  0
 23 24  2  0
 24  3  1  0
 14  9  1  0
 22 17  1  0
  1 25  1  0
  1 26  1  0
  1 27  1  0
  4 28  1  0
  5 29  1  0
  7 30  1  0
  7 31  1  0
 10 32  1  0
 11 33  1  0
 12 34  1  0
 13 35  1  0
 14 36  1  0
 15 37  1  1
 16 38  1  0
 16 39  1  0
 16 40  1  0
 21 41  1  0
 21 42  1  0
 21 43  1  0
 23 44  1  0
 24 45  1  0
M  CHG  1  14   1
M  END
>  <UniqueID>  (5) 
5

>  <SMILES>  (5) 
COc1ccc(CN(c2cccc[nH+]2)[C@@H](C)c2noc(C)n2)cc1

>  <Energy>  (5) 
77.9664028993242

>  <Genealogy>  (5) 
COc1ccc(CN(c2cccc[nH+]2)C(C)c2noc(C)n2)cc1 (protonated)
COc1ccc(CN(c2cccc[nH+]2)[C@@H](C)c2noc(C)n2)cc1 (chirality)
COc1ccc(CN(c2cccc[nH+]2)[C@@H](C)c2noc(C)n2)cc1 (3D coordinates assigned)
COc1ccc(CN(c2cccc[nH+]2)[C@@H](C)c2noc(C)n2)cc1 (optimized conformer: 77.9664028993242 kcal/mol)

>  <smiles>  (5) 
COc1ccc(CN(c2ccccn2)C(C)c2noc(C)n2)cc1

>  <score_type>  (5) 
oracle

>  <origin>  (5) 
adg

>  <m_score__min__energy>  (5) 
-5.8600000000000003

>  <m_primary>  (5) 
energy

$$$$
5:0
     RDKit          3D

 58 61  0  0  0  0  0  0  0  0999 V2000
   53.8750   23.7370   44.4720 C   0  0  0  0  0  0  0  0  0  0  0  0
   54.3370   23.5930   45.9200 C   0  0  0  0  0  0  0  0  0  0  0  0
   55.6960   24.1190   46.0800 N   0  0  0  0  0  0  0  0  0  0  0  0
   56.7870   23.2420   46.5080 C   0  0  0  0  0  0  0  0  0  0  0  0
   58.0610   23.4740   45.6740 C   0  0  0  0  0  0  0  0  0  0  0  0
   58.2000   24.9020   45.0930 C   0  0  0  0  0  0  0  0  0  0  0  0
   57.4040   25.9950   45.8600 C   0  0  1  0  0  0  0  0  0  0  0  0
   58.0180   26.2580   47.2520 C   0  0  0  0  0  0  0  0  0  0  0  0
   58.9840   27.4200   47.0670 C   0  0  0  0  0  0  0  0  0  0  0  0
   58.5360   28.1050   45.8680 N   0  0  0  0  0  0  0  0  0  0  0  0
   59.2810   29.1800   45.2770 C   0  0  0  0  0  0  0  0  0  0  0  0
   58.9740   29.5910   44.1290 O   0  0  0  0  0  0  0  0  0  0  0  0
   60.3830   29.7920   45.9580 N   0  0  0  0  0  0  0  0  0  0  0  0
   60.3070   30.5370   47.2110 C   0  0  0  0  0  0  0  0  0  0  0  0
   60.0120   31.9980   46.9500 C   0  0  0  0  0  0  0  0  0  0  0  0
   58.8290   32.3450   46.2740 C   0  0  0  0  0  0  0  0  0  0  0  0
   58.5100   33.6860   46.0430 C   0  0  0  0  0  0  0  0  0  0  0  0
   57.0170   34.1100   45.2250 Cl  0  0  0  0  0  0  0  0  0  0  0  0
   59.3700   34.6950   46.4800 C   0  0  0  0  0  0  0  0  0  0  0  0
   60.5460   34.3680   47.1550 C   0  0  0  0  0  0  0  0  0  0  0  0
   60.8800   33.0280   47.3960 C   0  0  0  0  0  0  0  0  0  0  0  0
   62.1170   32.7370   48.1520 C   0  0  0  0  0  0  0  0  0  0  0  0
   62.1900   32.1790   49.4190 C   0  0  0  0  0  0  0  0  0  0  0  0
   63.5420   32.0750   49.6830 C   0  0  0  0  0  0  0  0  0  0  0  0
   64.2300   32.5400   48.6220 N   0  0  0  0  0  0  0  0  0  0  0  0
   63.3720   32.9420   47.6970 N   0  0  0  0  0  0  0  0  0  0  0  0
   63.7600   33.4490   46.3850 C   0  0  0  0  0  0  0  0  0  0  0  0
   57.5410   27.3510   45.1230 C   0  0  0  0  0  0  0  0  0  0  0  0
   55.9660   25.5290   45.9820 C   0  0  0  0  0  0  0  0  0  0  0  0
   55.0200   26.3580   46.0520 O   0  0  0  0  0  0  0  0  0  0  0  0
   52.8250   24.0643   44.4530 H   0  0  0  0  0  0  0  0  0  0  0  0
   54.5008   24.4827   43.9599 H   0  0  0  0  0  0  0  0  0  0  0  0
   53.9663   22.7678   43.9599 H   0  0  0  0  0  0  0  0  0  0  0  0
   53.6530   24.1519   46.5755 H   0  0  0  0  0  0  0  0  0  0  0  0
   54.3342   22.5267   46.1900 H   0  0  0  0  0  0  0  0  0  0  0  0
   57.0116   23.4419   47.5661 H   0  0  0  0  0  0  0  0  0  0  0  0
   56.4669   22.1994   46.3647 H   0  0  0  0  0  0  0  0  0  0  0  0
   58.9321   23.2789   46.3168 H   0  0  0  0  0  0  0  0  0  0  0  0
   57.9984   22.7920   44.8132 H   0  0  0  0  0  0  0  0  0  0  0  0
   59.2648   25.1773   45.1112 H   0  0  0  0  0  0  0  0  0  0  0  0
   57.7797   24.8666   44.0771 H   0  0  0  0  0  0  0  0  0  0  0  0
   57.2315   26.5249   47.9732 H   0  0  0  0  0  0  0  0  0  0  0  0
   58.5284   25.3660   47.6442 H   0  0  0  0  0  0  0  0  0  0  0  0
   58.9442   28.0957   47.9341 H   0  0  0  0  0  0  0  0  0  0  0  0
   60.0253   27.0768   46.9778 H   0  0  0  0  0  0  0  0  0  0  0  0
   59.5061   30.1131   47.8347 H   0  0  0  0  0  0  0  0  0  0  0  0
   61.2754   30.4594   47.7268 H   0  0  0  0  0  0  0  0  0  0  0  0
   58.1489   31.5545   45.9240 H   0  0  0  0  0  0  0  0  0  0  0  0
   59.1199   35.7495   46.2918 H   0  0  0  0  0  0  0  0  0  0  0  0
   61.2169   35.1681   47.5011 H   0  0  0  0  0  0  0  0  0  0  0  0
   61.3547   31.8838   50.0710 H   0  0  0  0  0  0  0  0  0  0  0  0
   63.9845   31.6775   50.6083 H   0  0  0  0  0  0  0  0  0  0  0  0
   65.2680   32.5660   48.5270 H   0  0  0  0  0  0  0  0  0  0  0  0
   64.4242   34.3170   46.5091 H   0  0  0  0  0  0  0  0  0  0  0  0
   64.2874   32.6603   45.8284 H   0  0  0  0  0  0  0  0  0  0  0  0
   62.8609   33.7520   45.8284 H   0  0  0  0  0  0  0  0  0  0  0  0
   56.5790   27.8845   45.1195 H   0  0  0  0  0  0  0  0  0  0  0  0
   57.8380   27.2140   44.0728 H   0  0  0  0  0  0  0  0  0  0  0  0
  1  2  1  0
  2  3  1  0
  3  4  1  0
  4  5  1  0
  5  6  1  0
  7  6  1  6
  7  8  1  0
  8  9  1  0
  9 10  1  0
 10 11  1  0
 11 12  2  0
 11 13  1  0
 13 14  1  0
 14 15  1  0
 15 16  2  0
 16 17  1  0
 17 18  1  0
 17 19  2  0
 19 20  1  0
 20 21  2  0
 21 22  1  0
 22 23  2  0
 23 24  1  0
 24 25  2  0
 25 26  1  0
 26 27  1  0
 10 28  1  0
  7 29  1  0
 29 30  2  0
 29  3  1  0
 28  7  1  0
 21 15  1  0
 26 22  1  0
  1 31  1  0
  1 32  1  0
  1 33  1  0
  2 34  1  0
  2 35  1  0
  4 36  1  0
  4 37  1  0
  5 38  1  0
  5 39  1  0
  6 40  1  0
  6 41  1  0
  8 42  1  0
  8 43  1  0
  9 44  1  0
  9 45  1  0
 14 46  1  0
 14 47  1  0
 16 48  1  0
 19 49  1  0
 20 50  1  0
 23 51  1  0
 24 52  1  0
 25 53  1  0
 27 54  1  0
 27 55  1  0
 27 56  1  0
 28 57  1  0
 28 58  1  0
M  CHG  2  13  -1  25   1
M  END
>  <UniqueID>  (6) 
6

>  <SMILES>  (6) 
CCN1CCC[C@]2(CCN(C(=O)[N-]Cc3cc(Cl)ccc3-c3cc[nH+]n3C)C2)C1=O

>  <Energy>  (6) 
102.15061179311992

>  <Genealogy>  (6) 
CCN1CCCC2(CCN(C(=O)[N-]Cc3cc(Cl)ccc3-c3cc[nH+]n3C)C2)C1=O (protonated)
CCN1CCC[C@]2(CCN(C(=O)[N-]Cc3cc(Cl)ccc3-c3cc[nH+]n3C)C2)C1=O (chirality)
CCN1CCC[C@]2(CCN(C(=O)[N-]Cc3cc(Cl)ccc3-c3cc[nH+]n3C)C2)C1=O (3D coordinates assigned)
CCN1CCC[C@]2(CCN(C(=O)[N-]Cc3cc(Cl)ccc3-c3cc[nH+]n3C)C2)C1=O (nonaromatic ring conformer: 102.15061179311992 kcal/mol)

>  <smiles>  (6) 
CCN1CCCC2(CCN(C(=O)NCc3cc(Cl)ccc3-c3ccnn3C)C2)C1=O

>  <score_type>  (6) 
oracle

>  <origin>  (6) 
adg

>  <m_score__min__energy>  (6) 
-9.2300000000000004

>  <m_primary>  (6) 
energy

$$$$
6:0
     RDKit          3D

 43 45  0  0  0  0  0  0  0  0999 V2000
   60.5200   28.3970   45.7400 O   0  0  0  0  0  0  0  0  0  0  0  0
   59.7340   29.3850   45.7420 C   0  0  0  0  0  0  0  0  0  0  0  0
   59.6450   30.2310   46.8970 N   0  0  0  0  0  0  0  0  0  0  0  0
   60.3280   29.9190   48.1510 C   0  0  0  0  0  0  0  0  0  0  0  0
   61.4390   30.9040   48.3950 C   0  0  0  0  0  0  0  0  0  0  0  0
   62.1320   30.8900   49.6160 C   0  0  0  0  0  0  0  0  0  0  0  0
   63.1870   31.7800   49.8370 C   0  0  0  0  0  0  0  0  0  0  0  0
   63.5600   32.6870   48.8420 C   0  0  0  0  0  0  0  0  0  0  0  0
   64.5860   33.5460   49.0680 F   0  0  0  0  0  0  0  0  0  0  0  0
   62.8770   32.7050   47.6200 C   0  0  0  0  0  0  0  0  0  0  0  0
   63.3430   33.8350   46.3600 Cl  0  0  0  0  0  0  0  0  0  0  0  0
   61.8200   31.8140   47.3960 C   0  0  0  0  0  0  0  0  0  0  0  0
   58.9160   29.6900   44.5120 C   0  0  1  0  0  0  0  0  0  0  0  0
   57.6630   28.7870   44.4770 C   0  0  0  0  0  0  0  0  0  0  0  0
   56.5680   29.4100   43.6080 C   0  0  0  0  0  0  0  0  0  0  0  0
   56.1660   30.8080   44.1290 C   0  0  0  0  0  0  0  0  0  0  0  0
   57.2030   31.4190   44.9990 N   0  0  0  0  0  0  0  0  0  0  0  0
   56.9560   32.8640   45.1890 C   0  0  0  0  0  0  0  0  0  0  0  0
   58.0200   33.4720   46.0510 C   0  0  0  0  0  0  0  0  0  0  0  0
   58.2760   33.0530   47.3070 N   0  0  0  0  0  0  0  0  0  0  0  0
   59.2590   33.8690   47.7230 C   0  0  0  0  0  0  0  0  0  0  0  0
   59.5670   34.7560   46.7200 C   0  0  0  0  0  0  0  0  0  0  0  0
   58.7820   34.5130   45.6550 N   0  0  0  0  0  0  0  0  0  0  0  0
   58.5500   31.1940   44.4390 C   0  0  0  0  0  0  0  0  0  0  0  0
   59.0640   31.0980   46.8530 H   0  0  0  0  0  0  0  0  0  0  0  0
   59.6072   29.9711   48.9803 H   0  0  0  0  0  0  0  0  0  0  0  0
   60.7529   28.9064   48.0867 H   0  0  0  0  0  0  0  0  0  0  0  0
   61.8437   30.1760   50.4016 H   0  0  0  0  0  0  0  0  0  0  0  0
   63.7247   31.7662   50.7965 H   0  0  0  0  0  0  0  0  0  0  0  0
   61.2865   31.8272   46.4341 H   0  0  0  0  0  0  0  0  0  0  0  0
   59.5203   29.4700   43.6196 H   0  0  0  0  0  0  0  0  0  0  0  0
   57.9373   27.8055   44.0629 H   0  0  0  0  0  0  0  0  0  0  0  0
   57.2794   28.6765   45.5020 H   0  0  0  0  0  0  0  0  0  0  0  0
   56.9393   29.5049   42.5769 H   0  0  0  0  0  0  0  0  0  0  0  0
   55.6828   28.7580   43.6441 H   0  0  0  0  0  0  0  0  0  0  0  0
   55.9971   31.4692   43.2663 H   0  0  0  0  0  0  0  0  0  0  0  0
   55.2559   30.6862   44.7347 H   0  0  0  0  0  0  0  0  0  0  0  0
   56.9562   33.3628   44.2086 H   0  0  0  0  0  0  0  0  0  0  0  0
   55.9817   32.9953   45.6825 H   0  0  0  0  0  0  0  0  0  0  0  0
   59.7412   33.8326   48.7110 H   0  0  0  0  0  0  0  0  0  0  0  0
   60.3349   35.5415   46.7786 H   0  0  0  0  0  0  0  0  0  0  0  0
   58.5662   31.5213   43.3889 H   0  0  0  0  0  0  0  0  0  0  0  0
   59.2824   31.7702   45.0235 H   0  0  0  0  0  0  0  0  0  0  0  0
  1  2  2  0
  2  3  1  0
  3  4  1  0
  4  5  1  0
  5  6  2  0
  6  7  1  0
  7  8  2  0
  8  9  1  0
  8 10  1  0
 10 11  1  0
 10 12  2  0
  2 13  1  0
 13 14  1  0
 14 15  1  0
 15 16  1  0
 16 17  1  0
 17 18  1  0
 18 19  1  0
 19 20  2  0
 20 21  1  0
 21 22  2  0
 22 23  1  0
 17 24  1  0
 12  5  1  0
 24 13  1  0
 23 19  1  0
  3 25  1  0
  4 26  1  0
  4 27  1  0
  6 28  1  0
  7 29  1  0
 12 30  1  0
 13 31  1  6
 14 32  1  0
 14 33  1  0
 15 34  1  0
 15 35  1  0
 16 36  1  0
 16 37  1  0
 18 38  1  0
 18 39  1  0
 21 40  1  0
 22 41  1  0
 24 42  1  0
 24 43  1  0
M  CHG  1  23  -1
M  END
>  <UniqueID>  (7) 
7

>  <SMILES>  (7) 
O=C(NCc1ccc(F)c(Cl)c1)[C@H]1CCCN(Cc2ncc[n-]2)C1

>  <Energy>  (7) 
73.33276380195332

>  <Genealogy>  (7) 
O=C(NCc1ccc(F)c(Cl)c1)C1CCCN(Cc2ncc[n-]2)C1 (protonated)
O=C(NCc1ccc(F)c(Cl)c1)[C@H]1CCCN(Cc2ncc[n-]2)C1 (chirality)
O=C(NCc1ccc(F)c(Cl)c1)[C@H]1CCCN(Cc2ncc[n-]2)C1 (3D coordinates assigned)
O=C(NCc1ccc(F)c(Cl)c1)[C@H]1CCCN(Cc2ncc[n-]2)C1 (nonaromatic ring conformer: 73.33276380195332 kcal/mol)

>  <smiles>  (7) 
O=C(NCc1ccc(F)c(Cl)c1)C1CCCN(Cc2ncc[nH]2)C1

>  <score_type>  (7) 
oracle

>  <origin>  (7) 
adg

>  <m_score__min__energy>  (7) 
-8.5099999999999998

>  <m_primary>  (7) 
energy

$$$$
7:0
     RDKit          3D

 38 41  0  0  0  0  0  0  0  0999 V2000
   54.0040   26.7050   46.3720 H   0  0  0  0  0  0  0  0  0  0  0  0
   54.7770   26.3370   45.7750 N   0  0  0  0  0  0  0  0  0  0  0  0
   56.1060   26.2320   46.2790 C   0  0  0  0  0  0  0  0  0  0  0  0
   56.3900   25.3230   47.1050 O   0  0  0  0  0  0  0  0  0  0  0  0
   57.1430   27.1760   45.8410 C   0  0  0  0  0  0  0  0  0  0  0  0
   58.7360   26.7740   45.4910 S   0  0  0  0  0  0  0  0  0  0  0  0
   59.2330   28.3300   45.0890 C   0  0  0  0  0  0  0  0  0  0  0  0
   60.6210   28.6760   44.6480 C   0  0  0  0  0  0  0  0  0  0  0  0
   61.2574   28.8347   45.5310 H   0  0  0  0  0  0  0  0  0  0  0  0
   61.0300   27.8523   44.0444 H   0  0  0  0  0  0  0  0  0  0  0  0
   60.5955   29.5953   44.0444 H   0  0  0  0  0  0  0  0  0  0  0  0
   58.1420   29.2000   45.2210 C   0  0  0  0  0  0  0  0  0  0  0  0
   58.1840   30.6520   44.9530 C   0  0  0  0  0  0  0  0  0  0  0  0
   58.8630   31.5590   45.6850 N   0  0  0  0  0  0  0  0  0  0  0  0
   58.7160   32.8340   45.1990 C   0  0  0  0  0  0  0  0  0  0  0  0
   59.2640   33.8630   45.7750 N   0  0  0  0  0  0  0  0  0  0  0  0
   60.3290   33.8330   46.7400 C   0  0  0  0  0  0  0  0  0  0  0  0
   61.6530   33.5330   46.3770 C   0  0  0  0  0  0  0  0  0  0  0  0
   61.8925   33.2975   45.3295 H   0  0  0  0  0  0  0  0  0  0  0  0
   62.6670   33.5320   47.3380 C   0  0  0  0  0  0  0  0  0  0  0  0
   63.6965   33.2790   47.0446 H   0  0  0  0  0  0  0  0  0  0  0  0
   62.3820   33.8520   48.6780 C   0  0  0  0  0  0  0  0  0  0  0  0
   63.4280   33.8480   49.6720 N   0  0  0  0  0  0  0  0  0  0  0  0
   63.4500   34.5180   50.8450 C   0  0  0  0  0  0  0  0  0  0  0  0
   62.6355   35.1723   51.1892 H   0  0  0  0  0  0  0  0  0  0  0  0
   64.5800   34.2970   51.5480 N   0  0  0  0  0  0  0  0  0  0  0  0
   65.2920   33.4500   50.7790 C   0  0  0  0  0  0  0  0  0  0  0  0
   66.2820   33.0431   51.0325 H   0  0  0  0  0  0  0  0  0  0  0  0
   64.5910   33.1720   49.6280 C   0  0  0  0  0  0  0  0  0  0  0  0
   64.9234   32.5119   48.8133 H   0  0  0  0  0  0  0  0  0  0  0  0
   61.0610   34.1870   49.0280 C   0  0  0  0  0  0  0  0  0  0  0  0
   60.8229   34.4526   50.0686 H   0  0  0  0  0  0  0  0  0  0  0  0
   60.0490   34.1850   48.0640 C   0  0  0  0  0  0  0  0  0  0  0  0
   59.0236   34.4627   48.3493 H   0  0  0  0  0  0  0  0  0  0  0  0
   57.9290   32.9960   44.1010 N   0  0  0  0  0  0  0  0  0  0  0  0
   57.4120   31.4640   43.7230 S   0  0  0  0  0  0  0  0  0  0  0  0
   56.9730   28.5420   45.6450 C   0  0  0  0  0  0  0  0  0  0  0  0
   56.0155   29.0590   45.8061 H   0  0  0  0  0  0  0  0  0  0  0  0
  1  2  1  0
  2  3  1  0
  3  4  2  0
  3  5  1  0
  5  6  1  0
  6  7  1  0
  7  8  1  0
  8  9  1  0
  8 10  1  0
  8 11  1  0
  7 12  2  0
 12 13  1  0
 13 14  2  0
 14 15  1  0
 15 16  2  0
 16 17  1  0
 17 18  2  0
 18 19  1  0
 18 20  1  0
 20 21  1  0
 20 22  2  0
 22 23  1  0
 23 24  1  0
 24 25  1  0
 24 26  2  0
 26 27  1  0
 27 28  1  0
 27 29  2  0
 29 30  1  0
 22 31  1  0
 31 32  1  0
 31 33  2  0
 33 34  1  0
 15 35  1  0
 35 36  1  0
 12 37  1  0
 37 38  1  0
 37  5  2  0
 36 13  1  0
 33 17  1  0
 29 23  1  0
M  CHG  2   2  -1  35  -1
M  END
>  <UniqueID>  (8) 
8

>  <SMILES>  (8) 
Cc1sc(C([NH-])=O)cc1-c1n/c(=N\c2ccc(-n3ccnc3)cc2)[n-]s1

>  <Energy>  (8) 
140.99626348859934

>  <Genealogy>  (8) 
Cc1sc(C([NH-])=O)cc1-c1nc(=Nc2ccc(-n3ccnc3)cc2)[n-]s1 (protonated)
Cc1sc(C([NH-])=O)cc1-c1n/c(=N\c2ccc(-n3ccnc3)cc2)[n-]s1 (cis-trans isomerization)
Cc1sc(C([NH-])=O)cc1-c1n/c(=N\c2ccc(-n3ccnc3)cc2)[n-]s1 (3D coordinates assigned)
Cc1sc(C([NH-])=O)cc1-c1n/c(=N\c2ccc(-n3ccnc3)cc2)[n-]s1 (optimized conformer: 140.99626348859934 kcal/mol)

>  <smiles>  (8) 
Cc1sc(C(N)=O)cc1-c1nc(=Nc2ccc(-n3ccnc3)cc2)[nH]s1

>  <score_type>  (8) 
oracle

>  <origin>  (8) 
adg

>  <m_score__min__energy>  (8) 
-12.98

>  <m_primary>  (8) 
energy

$$$$
8:0
     RDKit          3D

 27 29  0  0  0  0  0  0  0  0999 V2000
   58.4933   31.7424   42.0040 H   0  0  0  0  0  0  0  0  0  0  0  0
   58.1800   31.9770   43.0320 C   0  0  0  0  0  0  0  0  0  0  0  0
   58.4390   33.1680   43.4930 N   0  0  0  0  0  0  0  0  0  0  0  0
   58.2390   33.5780   44.8240 N   0  0  0  0  0  0  0  0  0  0  0  0
   57.0510   33.6010   45.4750 C   0  0  0  0  0  0  0  0  0  0  0  0
   56.0791   33.4423   44.9849 H   0  0  0  0  0  0  0  0  0  0  0  0
   57.2000   33.8430   46.8040 N   0  0  0  0  0  0  0  0  0  0  0  0
   56.4520   33.8940   47.5300 H   0  0  0  0  0  0  0  0  0  0  0  0
   58.5310   33.9330   46.9800 C   0  0  0  0  0  0  0  0  0  0  0  0
   59.2520   34.0910   48.1580 C   0  0  0  0  0  0  0  0  0  0  0  0
   58.7477   34.2347   49.1250 H   0  0  0  0  0  0  0  0  0  0  0  0
   60.6560   34.0590   48.0590 C   0  0  0  0  0  0  0  0  0  0  0  0
   61.2752   34.1951   48.9579 H   0  0  0  0  0  0  0  0  0  0  0  0
   61.2700   33.8510   46.7980 C   0  0  0  0  0  0  0  0  0  0  0  0
   63.0160   33.7940   46.6710 Cl  0  0  0  0  0  0  0  0  0  0  0  0
   60.5080   33.6870   45.6740 N   0  0  0  0  0  0  0  0  0  0  0  0
   59.1590   33.7560   45.7870 C   0  0  0  0  0  0  0  0  0  0  0  0
   57.4910   30.9210   43.8050 C   0  0  0  0  0  0  0  0  0  0  0  0
   56.2250   30.4840   43.3910 C   0  0  0  0  0  0  0  0  0  0  0  0
   55.7481   30.9282   42.5049 H   0  0  0  0  0  0  0  0  0  0  0  0
   55.5730   29.4800   44.1120 C   0  0  0  0  0  0  0  0  0  0  0  0
   54.5722   29.1440   43.8031 H   0  0  0  0  0  0  0  0  0  0  0  0
   56.1730   28.9180   45.1940 N   0  0  0  0  0  0  0  0  0  0  0  0
   57.4110   29.3030   45.6030 C   0  0  0  0  0  0  0  0  0  0  0  0
   57.8724   28.8267   46.4806 H   0  0  0  0  0  0  0  0  0  0  0  0
   58.0980   30.3030   44.9100 C   0  0  0  0  0  0  0  0  0  0  0  0
   59.1072   30.6040   45.2278 H   0  0  0  0  0  0  0  0  0  0  0  0
  1  2  1  0
  2  3  2  0
  3  4  1  0
  4  5  1  0
  5  6  1  0
  5  7  2  0
  7  8  1  0
  7  9  1  0
  9 10  2  0
 10 11  1  0
 10 12  1  0
 12 13  1  0
 12 14  2  0
 14 15  1  0
 14 16  1  0
 16 17  2  0
  2 18  1  0
 18 19  2  0
 19 20  1  0
 19 21  1  0
 21 22  1  0
 21 23  2  0
 23 24  1  0
 24 25  1  0
 24 26  2  0
 26 27  1  0
 17  4  1  0
 26 18  1  0
 17  9  1  0
M  CHG  1   7   1
M  END
>  <UniqueID>  (9) 
9

>  <SMILES>  (9) 
Clc1ccc2[nH+]cn(/N=C\c3ccncc3)c2n1

>  <Energy>  (9) 
82.77239830154038

>  <Genealogy>  (9) 
Clc1ccc2[nH+]cn(N=Cc3ccncc3)c2n1 (protonated)
Clc1ccc2[nH+]cn(/N=C\c3ccncc3)c2n1 (cis-trans isomerization)
Clc1ccc2[nH+]cn(/N=C\c3ccncc3)c2n1 (3D coordinates assigned)
Clc1ccc2[nH+]cn(/N=C\c3ccncc3)c2n1 (optimized conformer: 82.77239830154038 kcal/mol)

>  <smiles>  (9) 
Clc1ccc2ncn(N=Cc3ccncc3)c2n1

>  <score_type>  (9) 
oracle

>  <origin>  (9) 
adg

>  <m_score__min__energy>  (9) 
-5.6699999999999999

>  <m_primary>  (9) 
energy

$$$$
9:0
     RDKit          3D

 48 51  0  0  1  0  0  0  0  0999 V2000
   57.0200   30.4660   45.6970 O   0  0  0  0  0  0  0  0  0  0  0  0
   56.7910   30.6080   44.4610 C   0  0  0  0  0  0  0  0  0  0  0  0
   55.7950   29.8270   43.6480 C   0  0  0  0  0  0  0  0  0  0  0  0
   56.4460   29.8670   42.2840 C   0  0  0  0  0  0  0  0  0  0  0  0
   57.0190   31.2660   42.2410 C   0  0  0  0  0  0  0  0  0  0  0  0
   57.4360   31.5440   43.5930 N   0  0  0  0  0  0  0  0  0  0  0  0
   58.3520   32.5970   43.9690 C   0  0  0  0  0  0  0  0  0  0  0  0
   57.7170   33.4770   45.0010 C   0  0  0  0  0  0  0  0  0  0  0  0
   58.7230   34.2770   45.8000 C   0  0  0  0  0  0  0  0  0  0  0  0
   59.0740   33.4780   46.9610 N   0  0  0  0  0  0  0  0  0  0  0  0
   59.8260   32.4560   46.9270 C   0  0  0  0  0  0  0  0  0  0  0  0
   59.3280   31.2420   46.5850 N   0  0  0  0  0  0  0  0  0  0  0  0
   60.0940   30.1630   46.5430 C   0  0  0  0  0  0  0  0  0  0  0  0
   59.5930   28.8440   46.1820 C   0  0  0  0  0  0  0  0  0  0  0  0
   59.3570   27.8480   47.1060 C   0  0  0  0  0  0  0  0  0  0  0  0
   58.8800   26.5950   46.7600 C   0  0  0  0  0  0  0  0  0  0  0  0
   58.6180   26.2990   45.4270 C   0  0  0  0  0  0  0  0  0  0  0  0
   58.1510   25.0770   45.0740 F   0  0  0  0  0  0  0  0  0  0  0  0
   58.8490   27.2890   44.4850 C   0  0  0  0  0  0  0  0  0  0  0  0
   59.3240   28.5290   44.8600 C   0  0  0  0  0  0  0  0  0  0  0  0
   61.3960   30.2980   46.8510 N   0  0  0  0  0  0  0  0  0  0  0  0
   61.9430   31.4730   47.1960 C   0  0  0  0  0  0  0  0  0  0  0  0
   63.2750   31.6280   47.5130 C   0  0  0  0  0  0  0  0  0  0  0  0
   63.7790   32.8620   47.8600 C   0  0  0  0  0  0  0  0  0  0  0  0
   62.9700   33.9910   47.9020 C   0  0  0  0  0  0  0  0  0  0  0  0
   61.6400   33.8520   47.5880 C   0  0  0  0  0  0  0  0  0  0  0  0
   61.1520   32.6020   47.2420 C   0  0  0  0  0  0  0  0  0  0  0  0
   55.6917   28.7958   44.0168 H   0  0  0  0  0  0  0  0  0  0  0  0
   54.7713   30.2286   43.6751 H   0  0  0  0  0  0  0  0  0  0  0  0
   57.2387   29.1091   42.1986 H   0  0  0  0  0  0  0  0  0  0  0  0
   55.7523   29.6497   41.4584 H   0  0  0  0  0  0  0  0  0  0  0  0
   57.8780   31.3104   41.5553 H   0  0  0  0  0  0  0  0  0  0  0  0
   56.2853   32.0004   41.8772 H   0  0  0  0  0  0  0  0  0  0  0  0
   59.2694   32.1526   44.3824 H   0  0  0  0  0  0  0  0  0  0  0  0
   58.5988   33.1979   43.0813 H   0  0  0  0  0  0  0  0  0  0  0  0
   57.0369   34.1770   44.4935 H   0  0  0  0  0  0  0  0  0  0  0  0
   57.1838   32.8228   45.7065 H   0  0  0  0  0  0  0  0  0  0  0  0
   59.6183   34.4735   45.1918 H   0  0  0  0  0  0  0  0  0  0  0  0
   58.3019   35.2469   46.1033 H   0  0  0  0  0  0  0  0  0  0  0  0
   58.3230   31.2080   46.3610 H   0  0  0  0  0  0  0  0  0  0  0  0
   59.5569   28.0586   48.1670 H   0  0  0  0  0  0  0  0  0  0  0  0
   58.7088   25.8359   47.5375 H   0  0  0  0  0  0  0  0  0  0  0  0
   58.6507   27.0832   43.4228 H   0  0  0  0  0  0  0  0  0  0  0  0
   59.4944   29.2911   44.0853 H   0  0  0  0  0  0  0  0  0  0  0  0
   63.9442   30.7553   47.4886 H   0  0  0  0  0  0  0  0  0  0  0  0
   64.8462   32.9559   48.1096 H   0  0  0  0  0  0  0  0  0  0  0  0
   63.3843   34.9714   48.1797 H   0  0  0  0  0  0  0  0  0  0  0  0
   60.9694   34.7237   47.6110 H   0  0  0  0  0  0  0  0  0  0  0  0
  1  2  2  0
  2  3  1  0
  3  4  1  0
  4  5  1  0
  5  6  1  0
  6  7  1  0
  7  8  1  0
  8  9  1  0
  9 10  1  0
 10 11  2  0
 11 12  1  0
 12 13  1  0
 13 14  1  0
 14 15  2  0
 15 16  1  0
 16 17  2  0
 17 18  1  0
 17 19  1  0
 19 20  2  0
 13 21  2  0
 21 22  1  0
 22 23  2  0
 23 24  1  0
 24 25  2  0
 25 26  1  0
 26 27  2  0
  6  2  1  0
 27 11  1  0
 20 14  1  0
 27 22  1  0
  3 28  1  0
  3 29  1  0
  4 30  1  0
  4 31  1  0
  5 32  1  0
  5 33  1  0
  7 34  1  0
  7 35  1  0
  8 36  1  0
  8 37  1  0
  9 38  1  0
  9 39  1  0
 12 40  1  0
 15 41  1  0
 16 42  1  0
 19 43  1  0
 20 44  1  0
 23 45  1  0
 24 46  1  0
 25 47  1  0
 26 48  1  0
M  END
>  <smiles>  (10) 
O=C1CCCN1CCCN=c1[nH]c(-c2ccc(F)cc2)nc2ccccc12

>  <score_type>  (10) 
oracle

>  <origin>  (10) 
adg

>  <m_score__min__energy>  (10) 
-8.25

>  <m_primary>  (10) 
energy

$$$$
10:0
     RDKit          3D

 39 41  0  0  0  0  0  0  0  0999 V2000
   58.8920   34.9550   44.8880 C   0  0  0  0  0  0  0  0  0  0  0  0
   58.5580   33.5570   45.1460 N   0  0  0  0  0  0  0  0  0  0  0  0
   57.6660   32.8790   44.4420 N   0  0  0  0  0  0  0  0  0  0  0  0
   57.5610   31.6390   44.9600 C   0  0  0  0  0  0  0  0  0  0  0  0
   56.6740   30.5780   44.4450 C   0  0  0  0  0  0  0  0  0  0  0  0
   56.1510   30.7130   43.3080 O   0  0  0  0  0  0  0  0  0  0  0  0
   56.3460   29.4200   45.2220 N   0  0  0  0  0  0  0  0  0  0  0  0
   57.2180   28.3150   45.5010 C   0  0  0  0  0  0  0  0  0  0  0  0
   58.6060   28.4030   45.3000 C   0  0  0  0  0  0  0  0  0  0  0  0
   59.4230   27.3010   45.5520 C   0  0  0  0  0  0  0  0  0  0  0  0
   58.8650   26.1000   45.9990 C   0  0  0  0  0  0  0  0  0  0  0  0
   57.4800   25.9950   46.2080 C   0  0  0  0  0  0  0  0  0  0  0  0
   56.8690   24.6830   46.6330 C   0  0  0  0  0  0  0  0  0  0  0  0
   57.8460   23.7100   46.7640 F   0  0  0  0  0  0  0  0  0  0  0  0
   55.9460   24.2450   45.6990 F   0  0  0  0  0  0  0  0  0  0  0  0
   56.2340   24.8500   47.8510 F   0  0  0  0  0  0  0  0  0  0  0  0
   56.6610   27.1020   45.9260 C   0  0  0  0  0  0  0  0  0  0  0  0
   58.4370   31.5150   46.0250 C   0  0  0  0  0  0  0  0  0  0  0  0
   59.0620   32.7470   46.1080 C   0  0  0  0  0  0  0  0  0  0  0  0
   60.0790   33.1180   47.1110 C   0  0  0  0  0  0  0  0  0  0  0  0
   61.3980   33.3770   46.6990 C   0  0  0  0  0  0  0  0  0  0  0  0
   62.3720   33.7340   47.6340 C   0  0  0  0  0  0  0  0  0  0  0  0
   62.0380   33.8490   48.9850 C   0  0  0  0  0  0  0  0  0  0  0  0
   60.7250   33.6150   49.4020 C   0  0  0  0  0  0  0  0  0  0  0  0
   59.7440   33.2560   48.4710 C   0  0  0  0  0  0  0  0  0  0  0  0
   58.4650   33.0910   48.8910 F   0  0  0  0  0  0  0  0  0  0  0  0
   59.0184   35.4842   45.8440 H   0  0  0  0  0  0  0  0  0  0  0  0
   59.8281   35.0082   44.3128 H   0  0  0  0  0  0  0  0  0  0  0  0
   58.0810   35.4256   44.3128 H   0  0  0  0  0  0  0  0  0  0  0  0
   57.1480   33.2610   43.6190 H   0  0  0  0  0  0  0  0  0  0  0  0
   59.0496   29.3441   44.9428 H   0  0  0  0  0  0  0  0  0  0  0  0
   60.5096   27.3773   45.3985 H   0  0  0  0  0  0  0  0  0  0  0  0
   59.5141   25.2323   46.1882 H   0  0  0  0  0  0  0  0  0  0  0  0
   55.5704   27.0148   46.0403 H   0  0  0  0  0  0  0  0  0  0  0  0
   58.5999   30.6338   46.6629 H   0  0  0  0  0  0  0  0  0  0  0  0
   61.6642   33.2980   45.6346 H   0  0  0  0  0  0  0  0  0  0  0  0
   63.4043   33.9250   47.3056 H   0  0  0  0  0  0  0  0  0  0  0  0
   62.8082   34.1237   49.7207 H   0  0  0  0  0  0  0  0  0  0  0  0
   60.4618   33.7133   50.4655 H   0  0  0  0  0  0  0  0  0  0  0  0
  1  2  1  0
  2  3  1  0
  3  4  2  0
  4  5  1  0
  5  6  2  0
  5  7  1  0
  7  8  1  0
  8  9  2  0
  9 10  1  0
 10 11  2  0
 11 12  1  0
 12 13  1  0
 13 14  1  0
 13 15  1  0
 13 16  1  0
 12 17  2  0
  4 18  1  0
 18 19  2  0
 19 20  1  0
 20 21  2  0
 21 22  1  0
 22 23  2  0
 23 24  1  0
 24 25  2  0
 25 26  1  0
 19  2  1  0
 25 20  1  0
 17  8  1  0
  1 27  1  0
  1 28  1  0
  1 29  1  0
  3 30  1  0
  9 31  1  0
 10 32  1  0
 11 33  1  0
 17 34  1  0
 18 35  1  0
 21 36  1  0
 22 37  1  0
 23 38  1  0
 24 39  1  0
M  CHG  2   3   1   7  -1
M  END
>  <UniqueID>  (11) 
10

>  <SMILES>  (11) 
Cn1[nH+]c(C(=O)[N-]c2cccc(C(F)(F)F)c2)cc1-c1ccccc1F

>  <Energy>  (11) 
83.1594656135148

>  <Genealogy>  (11) 
Cn1[nH+]c(C(=O)[N-]c2cccc(C(F)(F)F)c2)cc1-c1ccccc1F (protonated)
Cn1[nH+]c(C(=O)[N-]c2cccc(C(F)(F)F)c2)cc1-c1ccccc1F (3D coordinates assigned)
Cn1[nH+]c(C(=O)[N-]c2cccc(C(F)(F)F)c2)cc1-c1ccccc1F (optimized conformer: 83.1594656135148 kcal/mol)

>  <smiles>  (11) 
Cn1nc(C(=O)Nc2cccc(C(F)(F)F)c2)cc1-c1ccccc1F

>  <score_type>  (11) 
oracle

>  <origin>  (11) 
adg

>  <m_score__min__energy>  (11) 
-7.2300000000000004

>  <m_primary>  (11) 
energy

$$$$
11:0
     RDKit          3D

 25 26  0  0  0  0  0  0  0  0999 V2000
   56.6850   30.4280   43.7570 Cl  0  0  0  0  0  0  0  0  0  0  0  0
   57.5960   31.6400   44.6390 C   0  0  0  0  0  0  0  0  0  0  0  0
   57.7720   32.9160   44.0960 C   0  0  0  0  0  0  0  0  0  0  0  0
   58.4990   33.8830   44.7970 C   0  0  0  0  0  0  0  0  0  0  0  0
   59.0580   33.5790   46.0500 C   0  0  0  0  0  0  0  0  0  0  0  0
   59.8580   34.6170   46.7950 C   0  0  0  0  0  0  0  0  0  0  0  0
   61.1630   34.0380   47.2890 C   0  0  0  0  0  0  0  0  0  0  0  0
   62.2160   33.8450   46.3750 C   0  0  0  0  0  0  0  0  0  0  0  0
   63.4250   33.2840   46.7930 C   0  0  0  0  0  0  0  0  0  0  0  0
   63.5960   32.9030   48.1240 C   0  0  0  0  0  0  0  0  0  0  0  0
   62.5580   33.0810   49.0410 C   0  0  0  0  0  0  0  0  0  0  0  0
   61.3410   33.6440   48.6350 C   0  0  0  0  0  0  0  0  0  0  0  0
   60.0770   33.8420   49.8420 Cl  0  0  0  0  0  0  0  0  0  0  0  0
   58.8760   32.2940   46.5900 C   0  0  0  0  0  0  0  0  0  0  0  0
   58.1480   31.3300   45.8860 C   0  0  0  0  0  0  0  0  0  0  0  0
   57.3377   33.1599   43.1152 H   0  0  0  0  0  0  0  0  0  0  0  0
   58.6340   34.8860   44.3659 H   0  0  0  0  0  0  0  0  0  0  0  0
   60.0700   35.4604   46.1214 H   0  0  0  0  0  0  0  0  0  0  0  0
   59.2729   34.9565   47.6624 H   0  0  0  0  0  0  0  0  0  0  0  0
   62.0857   34.1384   45.3229 H   0  0  0  0  0  0  0  0  0  0  0  0
   64.2433   33.1425   46.0717 H   0  0  0  0  0  0  0  0  0  0  0  0
   64.5491   32.4621   48.4514 H   0  0  0  0  0  0  0  0  0  0  0  0
   62.6968   32.7772   50.0891 H   0  0  0  0  0  0  0  0  0  0  0  0
   59.3082   32.0458   47.5706 H   0  0  0  0  0  0  0  0  0  0  0  0
   58.0092   30.3261   46.3137 H   0  0  0  0  0  0  0  0  0  0  0  0
  1  2  1  0
  2  3  2  0
  3  4  1  0
  4  5  2  0
  5  6  1  0
  6  7  1  0
  7  8  2  0
  8  9  1  0
  9 10  2  0
 10 11  1  0
 11 12  2  0
 12 13  1  0
  5 14  1  0
 14 15  2  0
 15  2  1  0
 12  7  1  0
  3 16  1  0
  4 17  1  0
  6 18  1  0
  6 19  1  0
  8 20  1  0
  9 21  1  0
 10 22  1  0
 11 23  1  0
 14 24  1  0
 15 25  1  0
M  END
>  <UniqueID>  (12) 
11

>  <SMILES>  (12) 
Clc1ccc(Cc2ccccc2Cl)cc1

>  <Energy>  (12) 
25.763364864883187

>  <Genealogy>  (12) 
Clc1ccc(Cc2ccccc2Cl)cc1 (3D coordinates assigned)
Clc1ccc(Cc2ccccc2Cl)cc1 (optimized conformer: 25.763364864883187 kcal/mol)

>  <smiles>  (12) 
Clc1ccc(Cc2ccccc2Cl)cc1

>  <score_type>  (12) 
oracle

>  <origin>  (12) 
adg

>  <m_score__min__energy>  (12) 
-6.6600000000000001

>  <m_primary>  (12) 
energy

$$$$
12:0
     RDKit          3D

 33 34  0  0  0  0  0  0  0  0999 V2000
   57.4061   32.6883   42.5805 H   0  0  0  0  0  0  0  0  0  0  0  0
   57.4410   32.0750   43.4930 C   0  0  0  0  0  0  0  0  0  0  0  0
   57.2420   30.7560   43.3590 C   0  0  0  0  0  0  0  0  0  0  0  0
   56.6321   30.4194   42.5077 H   0  0  0  0  0  0  0  0  0  0  0  0
   57.7770   29.7200   44.2640 C   0  0  0  0  0  0  0  0  0  0  0  0
   59.1390   29.6910   44.6120 C   0  0  0  0  0  0  0  0  0  0  0  0
   59.8176   30.4705   44.2353 H   0  0  0  0  0  0  0  0  0  0  0  0
   59.6340   28.6750   45.4350 C   0  0  0  0  0  0  0  0  0  0  0  0
   60.6966   28.6681   45.7193 H   0  0  0  0  0  0  0  0  0  0  0  0
   58.7830   27.6690   45.8970 C   0  0  0  0  0  0  0  0  0  0  0  0
   59.1743   26.8746   46.5496 H   0  0  0  0  0  0  0  0  0  0  0  0
   57.4320   27.6710   45.5300 C   0  0  0  0  0  0  0  0  0  0  0  0
   56.5570   26.6260   45.9950 C   0  0  0  0  0  0  0  0  0  0  0  0
   55.8550   25.7860   46.3680 N   0  0  0  0  0  0  0  0  0  0  0  0
   56.9330   28.6890   44.7050 C   0  0  0  0  0  0  0  0  0  0  0  0
   55.8756   28.6795   44.4021 H   0  0  0  0  0  0  0  0  0  0  0  0
   57.7030   32.7680   44.7680 C   0  0  0  0  0  0  0  0  0  0  0  0
   56.7890   33.2030   45.6080 O   0  0  0  0  0  0  0  0  0  0  0  0
   57.3460   33.7920   46.6230 N   0  0  0  0  0  0  0  0  0  0  0  0
   56.8300   34.2170   47.4230 H   0  0  0  0  0  0  0  0  0  0  0  0
   58.6800   33.7490   46.4440 C   0  0  0  0  0  0  0  0  0  0  0  0
   59.6680   34.3120   47.3710 C   0  0  0  0  0  0  0  0  0  0  0  0
   59.3050   34.7010   48.5150 O   0  0  0  0  0  0  0  0  0  0  0  0
   61.0060   34.4110   46.9790 O   0  0  0  0  0  0  0  0  0  0  0  0
   61.9660   33.3980   47.2600 C   0  0  0  0  0  0  0  0  0  0  0  0
   61.6608   32.4593   46.7745 H   0  0  0  0  0  0  0  0  0  0  0  0
   62.0295   33.2456   48.3475 H   0  0  0  0  0  0  0  0  0  0  0  0
   63.3250   33.8240   46.7290 C   0  0  0  0  0  0  0  0  0  0  0  0
   63.9985   34.0351   47.5727 H   0  0  0  0  0  0  0  0  0  0  0  0
   63.7486   33.0156   46.1150 H   0  0  0  0  0  0  0  0  0  0  0  0
   63.2113   34.7296   46.1150 H   0  0  0  0  0  0  0  0  0  0  0  0
   58.9530   33.1000   45.2560 C   0  0  0  0  0  0  0  0  0  0  0  0
   59.9348   32.8953   44.8041 H   0  0  0  0  0  0  0  0  0  0  0  0
  1  2  1  0
  2  3  2  0
  3  4  1  0
  3  5  1  0
  5  6  2  0
  6  7  1  0
  6  8  1  0
  8  9  1  0
  8 10  2  0
 10 11  1  0
 10 12  1  0
 12 13  1  0
 13 14  3  0
 12 15  2  0
 15 16  1  0
  2 17  1  0
 17 18  1  0
 18 19  1  0
 19 20  1  0
 19 21  2  0
 21 22  1  0
 22 23  2  0
 22 24  1  0
 24 25  1  0
 25 26  1  0
 25 27  1  0
 25 28  1  0
 28 29  1  0
 28 30  1  0
 28 31  1  0
 21 32  1  0
 32 33  1  0
 15  5  1  0
 32 17  2  0
M  CHG  1  19   1
M  END
>  <UniqueID>  (13) 
12

>  <SMILES>  (13) 
CCOC(=O)c1cc(/C=C\c2cccc(C#N)c2)o[nH+]1

>  <Energy>  (13) 
63.648628129990286

>  <Genealogy>  (13) 
CCOC(=O)c1cc(C=Cc2cccc(C#N)c2)o[nH+]1 (protonated)
CCOC(=O)c1cc(/C=C\c2cccc(C#N)c2)o[nH+]1 (cis-trans isomerization)
CCOC(=O)c1cc(/C=C\c2cccc(C#N)c2)o[nH+]1 (3D coordinates assigned)
CCOC(=O)c1cc(/C=C\c2cccc(C#N)c2)o[nH+]1 (optimized conformer: 63.648628129990286 kcal/mol)

>  <smiles>  (13) 
CCOC(=O)c1cc(C=Cc2cccc(C#N)c2)on1

>  <score_type>  (13) 
oracle

>  <origin>  (13) 
adg

>  <m_score__min__energy>  (13) 
-5.9199999999999999

>  <m_primary>  (13) 
energy

$$$$
13:0
     RDKit          3D

 29 30  0  0  1  0  0  0  0  0999 V2000
   57.0240   33.7790   45.5600 C   0  0  0  0  0  0  0  0  0  0  0  0
   58.4760   33.5290   45.1270 C   0  0  0  0  0  0  0  0  0  0  0  0
   58.4030   32.4360   44.1860 N   0  0  0  0  0  0  0  0  0  0  0  0
   57.7260   31.3640   44.3370 C   0  0  0  0  0  0  0  0  0  0  0  0
   56.6140   31.1200   43.6430 N   0  0  0  0  0  0  0  0  0  0  0  0
   55.8830   30.0060   43.7780 C   0  0  0  0  0  0  0  0  0  0  0  0
   56.3260   29.0950   44.6790 N   0  0  0  0  0  0  0  0  0  0  0  0
   57.4360   29.2900   45.4020 C   0  0  0  0  0  0  0  0  0  0  0  0
   58.1820   30.4410   45.2550 C   0  0  0  0  0  0  0  0  0  0  0  0
   59.2530   30.4140   46.0860 N   0  0  0  0  0  0  0  0  0  0  0  0
   59.1600   29.2410   46.7420 C   0  0  0  0  0  0  0  0  0  0  0  0
   58.0730   28.5550   46.3420 N   0  0  0  0  0  0  0  0  0  0  0  0
   57.6750   27.2530   46.8470 C   0  0  0  0  0  0  0  0  0  0  0  0
   56.9060   26.4340   45.8530 C   0  0  0  0  0  0  0  0  0  0  0  0
   55.4740   26.6750   45.9890 N   0  0  0  0  0  0  0  0  0  0  0  0
   56.9655   33.7891   46.6584 H   0  0  0  0  0  0  0  0  0  0  0  0
   56.6856   34.7486   45.1659 H   0  0  0  0  0  0  0  0  0  0  0  0
   56.3808   32.9784   45.1659 H   0  0  0  0  0  0  0  0  0  0  0  0
   58.8959   34.4251   44.6467 H   0  0  0  0  0  0  0  0  0  0  0  0
   59.1274   33.2951   45.9819 H   0  0  0  0  0  0  0  0  0  0  0  0
   56.2750   31.8220   42.9500 H   0  0  0  0  0  0  0  0  0  0  0  0
   54.9698   29.8387   43.1880 H   0  0  0  0  0  0  0  0  0  0  0  0
   59.8750   28.8913   47.5012 H   0  0  0  0  0  0  0  0  0  0  0  0
   58.5814   26.6972   47.1289 H   0  0  0  0  0  0  0  0  0  0  0  0
   57.0092   27.4289   47.7047 H   0  0  0  0  0  0  0  0  0  0  0  0
   57.2238   26.7074   44.8360 H   0  0  0  0  0  0  0  0  0  0  0  0
   57.1061   25.3687   46.0402 H   0  0  0  0  0  0  0  0  0  0  0  0
   55.1980   26.7500   46.9880 H   0  0  0  0  0  0  0  0  0  0  0  0
   55.1420   27.4710   45.4010 H   0  0  0  0  0  0  0  0  0  0  0  0
  1  2  1  0
  2  3  1  0
  3  4  2  0
  4  5  1  0
  5  6  1  0
  6  7  2  0
  7  8  1  0
  8  9  2  0
  9 10  1  0
 10 11  2  0
 11 12  1  0
 12 13  1  0
 13 14  1  0
 14 15  1  0
  9  4  1  0
 12  8  1  0
  1 16  1  0
  1 17  1  0
  1 18  1  0
  2 19  1  0
  2 20  1  0
  5 21  1  0
  6 22  1  0
 11 23  1  0
 13 24  1  0
 13 25  1  0
 14 26  1  0
 14 27  1  0
 15 28  1  0
 15 29  1  0
M  END
>  <smiles>  (14) 
CCN=c1[nH]cnc2c1ncn2CCN

>  <score_type>  (14) 
oracle

>  <origin>  (14) 
adg

>  <m_score__min__energy>  (14) 
-5.2999999999999998

>  <m_primary>  (14) 
energy

$$$$
14:0
     RDKit          3D

 39 40  0  0  0  0  0  0  0  0999 V2000
   59.4220   30.1400   48.4960 C   0  0  0  0  0  0  0  0  0  0  0  0
   59.6620   31.3710   47.8230 O   0  0  0  0  0  0  0  0  0  0  0  0
   60.9370   31.9150   47.5850 C   0  0  0  0  0  0  0  0  0  0  0  0
   62.1040   31.1290   47.6510 C   0  0  0  0  0  0  0  0  0  0  0  0
   63.3550   31.7000   47.4120 C   0  0  0  0  0  0  0  0  0  0  0  0
   63.4590   33.0590   47.1110 C   0  0  0  0  0  0  0  0  0  0  0  0
   62.3120   33.8500   47.0440 C   0  0  0  0  0  0  0  0  0  0  0  0
   61.0450   33.2870   47.2750 C   0  0  0  0  0  0  0  0  0  0  0  0
   59.8180   34.1630   47.2230 C   0  0  0  0  0  0  0  0  0  0  0  0
   58.7240   33.4740   46.5400 N   0  0  0  0  0  0  0  0  0  0  0  0
   58.4140   33.6970   45.1580 C   0  0  0  0  0  0  0  0  0  0  0  0
   59.0070   34.5990   44.5070 O   0  0  0  0  0  0  0  0  0  0  0  0
   57.4240   32.8170   44.4590 C   0  0  0  0  0  0  0  0  0  0  0  0
   57.0230   31.7510   45.3160 O   0  0  0  0  0  0  0  0  0  0  0  0
   56.8940   30.4230   44.8830 C   0  0  0  0  0  0  0  0  0  0  0  0
   55.8610   30.0600   44.2570 O   0  0  0  0  0  0  0  0  0  0  0  0
   57.9660   29.4450   45.1740 C   0  0  0  0  0  0  0  0  0  0  0  0
   59.3130   29.7550   44.8980 C   0  0  0  0  0  0  0  0  0  0  0  0
   60.3230   28.8310   45.1820 C   0  0  0  0  0  0  0  0  0  0  0  0
   60.0020   27.5870   45.7330 C   0  0  0  0  0  0  0  0  0  0  0  0
   58.6680   27.2670   46.0080 C   0  0  0  0  0  0  0  0  0  0  0  0
   58.2310   25.5670   46.7670 Br  0  0  0  0  0  0  0  0  0  0  0  0
   57.6540   28.1930   45.7360 C   0  0  0  0  0  0  0  0  0  0  0  0
   59.4540   30.3042   49.5832 H   0  0  0  0  0  0  0  0  0  0  0  0
   58.4317   29.7541   48.2125 H   0  0  0  0  0  0  0  0  0  0  0  0
   60.1948   29.4104   48.2125 H   0  0  0  0  0  0  0  0  0  0  0  0
   62.0290   30.0584   47.8924 H   0  0  0  0  0  0  0  0  0  0  0  0
   64.2608   31.0778   47.4609 H   0  0  0  0  0  0  0  0  0  0  0  0
   64.4466   33.5068   46.9264 H   0  0  0  0  0  0  0  0  0  0  0  0
   62.3996   34.9210   46.8089 H   0  0  0  0  0  0  0  0  0  0  0  0
   59.5059   34.4097   48.2485 H   0  0  0  0  0  0  0  0  0  0  0  0
   60.0605   35.0815   46.6685 H   0  0  0  0  0  0  0  0  0  0  0  0
   58.1740   32.7630   47.0730 H   0  0  0  0  0  0  0  0  0  0  0  0
   56.5414   33.4119   44.1814 H   0  0  0  0  0  0  0  0  0  0  0  0
   57.8917   32.3961   43.5567 H   0  0  0  0  0  0  0  0  0  0  0  0
   59.5709   30.7291   44.4568 H   0  0  0  0  0  0  0  0  0  0  0  0
   61.3727   29.0835   44.9714 H   0  0  0  0  0  0  0  0  0  0  0  0
   60.7981   26.8597   45.9504 H   0  0  0  0  0  0  0  0  0  0  0  0
   56.6076   27.9407   45.9628 H   0  0  0  0  0  0  0  0  0  0  0  0
  1  2  1  0
  2  3  1  0
  3  4  2  0
  4  5  1  0
  5  6  2  0
  6  7  1  0
  7  8  2  0
  8  9  1  0
  9 10  1  0
 10 11  1  0
 11 12  2  0
 11 13  1  0
 13 14  1  0
 14 15  1  0
 15 16  2  0
 15 17  1  0
 17 18  2  0
 18 19  1  0
 19 20  2  0
 20 21  1  0
 21 22  1  0
 21 23  2  0
  8  3  1  0
 23 17  1  0
  1 24  1  0
  1 25  1  0
  1 26  1  0
  4 27  1  0
  5 28  1  0
  6 29  1  0
  7 30  1  0
  9 31  1  0
  9 32  1  0
 10 33  1  0
 13 34  1  0
 13 35  1  0
 18 36  1  0
 19 37  1  0
 20 38  1  0
 23 39  1  0
M  END
>  <UniqueID>  (15) 
13

>  <SMILES>  (15) 
COc1ccccc1CNC(=O)COC(=O)c1cccc(Br)c1

>  <Energy>  (15) 
34.699112889082905

>  <Genealogy>  (15) 
COc1ccccc1CNC(=O)COC(=O)c1cccc(Br)c1 (3D coordinates assigned)
COc1ccccc1CNC(=O)COC(=O)c1cccc(Br)c1 (optimized conformer: 34.699112889082905 kcal/mol)

>  <smiles>  (15) 
COc1ccccc1CNC(=O)COC(=O)c1cccc(Br)c1

>  <score_type>  (15) 
oracle

>  <origin>  (15) 
adg

>  <m_score__min__energy>  (15) 
-7.2999999999999998

>  <m_primary>  (15) 
energy

$$$$
15:0
     RDKit          3D

 43 46  0  0  0  0  0  0  0  0999 V2000
   64.1390   33.4510   48.2390 C   0  0  0  0  0  0  0  0  0  0  0  0
   62.6810   33.2000   47.9990 C   0  0  0  0  0  0  0  0  0  0  0  0
   62.2640   32.0170   47.3720 C   0  0  0  0  0  0  0  0  0  0  0  0
   60.9040   31.7660   47.1700 C   0  0  0  0  0  0  0  0  0  0  0  0
   59.9370   32.6860   47.6130 C   0  0  0  0  0  0  0  0  0  0  0  0
   58.4630   32.4520   47.3650 C   0  0  0  0  0  0  0  0  0  0  0  0
   58.1900   32.1060   45.9470 N   0  0  0  0  0  0  0  0  0  0  0  0
   58.0780   33.1100   44.9990 C   0  0  0  0  0  0  0  0  0  0  0  0
   58.2340   34.5740   45.3440 C   0  0  0  0  0  0  0  0  0  0  0  0
   57.7890   32.7940   43.6660 C   0  0  0  0  0  0  0  0  0  0  0  0
   57.6370   31.4760   43.2690 C   0  0  0  0  0  0  0  0  0  0  0  0
   57.3800   31.2240   42.0600 O   0  0  0  0  0  0  0  0  0  0  0  0
   57.7750   30.4480   44.2080 C   0  0  0  0  0  0  0  0  0  0  0  0
   57.6410   29.1000   43.8160 C   0  0  0  0  0  0  0  0  0  0  0  0
   57.7920   28.0780   44.7490 C   0  0  0  0  0  0  0  0  0  0  0  0
   58.0450   28.3820   46.0860 C   0  0  0  0  0  0  0  0  0  0  0  0
   58.1930   29.7080   46.4910 C   0  0  0  0  0  0  0  0  0  0  0  0
   58.0570   30.7770   45.5660 C   0  0  0  0  0  0  0  0  0  0  0  0
   58.1480   27.3390   47.0110 O   0  0  0  0  0  0  0  0  0  0  0  0
   57.7270   26.0130   46.6820 C   0  0  0  0  0  0  0  0  0  0  0  0
   58.1070   25.6830   45.2330 C   0  0  0  0  0  0  0  0  0  0  0  0
   57.6910   26.7360   44.3610 O   0  0  0  0  0  0  0  0  0  0  0  0
   60.3590   33.8690   48.2420 C   0  0  0  0  0  0  0  0  0  0  0  0
   61.7180   34.1180   48.4450 C   0  0  0  0  0  0  0  0  0  0  0  0
   64.3320   33.4842   49.3214 H   0  0  0  0  0  0  0  0  0  0  0  0
   64.7299   32.6414   47.7859 H   0  0  0  0  0  0  0  0  0  0  0  0
   64.4251   34.4116   47.7859 H   0  0  0  0  0  0  0  0  0  0  0  0
   63.0114   31.2825   47.0373 H   0  0  0  0  0  0  0  0  0  0  0  0
   60.5881   30.8432   46.6614 H   0  0  0  0  0  0  0  0  0  0  0  0
   58.1211   31.6254   48.0053 H   0  0  0  0  0  0  0  0  0  0  0  0
   57.9251   33.3825   47.5993 H   0  0  0  0  0  0  0  0  0  0  0  0
   58.2468   34.6937   46.4374 H   0  0  0  0  0  0  0  0  0  0  0  0
   59.1775   34.9515   44.9228 H   0  0  0  0  0  0  0  0  0  0  0  0
   57.3913   35.1418   44.9228 H   0  0  0  0  0  0  0  0  0  0  0  0
   57.6816   33.6011   42.9263 H   0  0  0  0  0  0  0  0  0  0  0  0
   57.4160   28.8549   42.7675 H   0  0  0  0  0  0  0  0  0  0  0  0
   58.4189   29.9298   47.5445 H   0  0  0  0  0  0  0  0  0  0  0  0
   58.2171   25.2974   47.3585 H   0  0  0  0  0  0  0  0  0  0  0  0
   56.6347   25.9446   46.7920 H   0  0  0  0  0  0  0  0  0  0  0  0
   59.1981   25.5624   45.1621 H   0  0  0  0  0  0  0  0  0  0  0  0
   57.6055   24.7507   44.9342 H   0  0  0  0  0  0  0  0  0  0  0  0
   59.6133   34.6049   48.5772 H   0  0  0  0  0  0  0  0  0  0  0  0
   62.0352   35.0384   48.9571 H   0  0  0  0  0  0  0  0  0  0  0  0
  1  2  1  0
  2  3  2  0
  3  4  1  0
  4  5  2  0
  5  6  1  0
  6  7  1  0
  7  8  1  0
  8  9  1  0
  8 10  2  0
 10 11  1  0
 11 12  2  0
 11 13  1  0
 13 14  2  0
 14 15  1  0
 15 16  2  0
 16 17  1  0
 17 18  2  0
 16 19  1  0
 19 20  1  0
 20 21  1  0
 21 22  1  0
  5 23  1  0
 23 24  2  0
 24  2  1  0
 18  7  1  0
 18 13  1  0
 22 15  1  0
  1 25  1  0
  1 26  1  0
  1 27  1  0
  3 28  1  0
  4 29  1  0
  6 30  1  0
  6 31  1  0
  9 32  1  0
  9 33  1  0
  9 34  1  0
 10 35  1  0
 14 36  1  0
 17 37  1  0
 20 38  1  0
 20 39  1  0
 21 40  1  0
 21 41  1  0
 23 42  1  0
 24 43  1  0
M  END
>  <UniqueID>  (16) 
14

>  <SMILES>  (16) 
Cc1ccc(Cn2c(C)cc(=O)c3cc4c(cc32)OCCO4)cc1

>  <Energy>  (16) 
60.19489019346636

>  <Genealogy>  (16) 
Cc1ccc(Cn2c(C)cc(=O)c3cc4c(cc32)OCCO4)cc1 (3D coordinates assigned)
Cc1ccc(Cn2c(C)cc(=O)c3cc4c(cc32)OCCO4)cc1 (nonaromatic ring conformer: 60.19489019346636 kcal/mol)

>  <smiles>  (16) 
Cc1ccc(Cn2c(C)cc(=O)c3cc4c(cc32)OCCO4)cc1

>  <score_type>  (16) 
oracle

>  <origin>  (16) 
adg

>  <m_score__min__energy>  (16) 
-7.54

>  <m_primary>  (16) 
energy

$$$$
16:0
     RDKit          3D

 40 42  0  0  0  0  0  0  0  0999 V2000
   62.6420   31.2340   49.7230 C   0  0  0  0  0  0  0  0  0  0  0  0
   62.4860   32.1770   48.5740 C   0  0  0  0  0  0  0  0  0  0  0  0
   61.2190   32.6610   48.2220 C   0  0  0  0  0  0  0  0  0  0  0  0
   61.0780   33.5080   47.1090 C   0  0  0  0  0  0  0  0  0  0  0  0
   59.7750   33.9730   46.6930 N   0  0  0  0  0  0  0  0  0  0  0  0
   58.5650   33.6810   47.4640 C   0  0  0  0  0  0  0  0  0  0  0  0
   57.5800   32.8830   46.5970 C   0  0  0  0  0  0  0  0  0  0  0  0
   57.5960   33.2870   45.1680 N   0  0  0  0  0  0  0  0  0  0  0  0
   57.9110   32.2090   44.2060 C   0  0  0  0  0  0  0  0  0  0  0  0
   57.2630   30.8920   44.5410 C   0  0  0  0  0  0  0  0  0  0  0  0
   57.9140   29.7280   44.8890 C   0  0  0  0  0  0  0  0  0  0  0  0
   56.8850   28.8340   45.0870 C   0  0  0  0  0  0  0  0  0  0  0  0
   57.0170   27.4230   45.5500 C   0  0  0  0  0  0  0  0  0  0  0  0
   55.7440   29.4360   44.8510 O   0  0  0  0  0  0  0  0  0  0  0  0
   55.9330   30.6780   44.5120 N   0  0  0  0  0  0  0  0  0  0  0  0
   58.2080   34.6020   44.8720 C   0  0  0  0  0  0  0  0  0  0  0  0
   59.6250   34.7480   45.4570 C   0  0  0  0  0  0  0  0  0  0  0  0
   62.2260   33.8490   46.3740 C   0  0  0  0  0  0  0  0  0  0  0  0
   63.4700   33.3460   46.7560 C   0  0  0  0  0  0  0  0  0  0  0  0
   63.5730   32.5240   47.8330 N   0  0  0  0  0  0  0  0  0  0  0  0
   62.5501   31.7893   50.6681 H   0  0  0  0  0  0  0  0  0  0  0  0
   61.8592   30.4628   49.6733 H   0  0  0  0  0  0  0  0  0  0  0  0
   63.6314   30.7559   49.6733 H   0  0  0  0  0  0  0  0  0  0  0  0
   60.3367   32.3788   48.8153 H   0  0  0  0  0  0  0  0  0  0  0  0
   58.8313   33.0905   48.3530 H   0  0  0  0  0  0  0  0  0  0  0  0
   58.0944   34.6252   47.7757 H   0  0  0  0  0  0  0  0  0  0  0  0
   57.8424   31.8167   46.6615 H   0  0  0  0  0  0  0  0  0  0  0  0
   56.5694   33.0846   46.9817 H   0  0  0  0  0  0  0  0  0  0  0  0
   57.5674   32.5217   43.2089 H   0  0  0  0  0  0  0  0  0  0  0  0
   58.9990   32.0514   44.2440 H   0  0  0  0  0  0  0  0  0  0  0  0
   58.9960   29.5546   44.9855 H   0  0  0  0  0  0  0  0  0  0  0  0
   57.0195   27.3967   46.6497 H   0  0  0  0  0  0  0  0  0  0  0  0
   56.1702   26.8320   45.1710 H   0  0  0  0  0  0  0  0  0  0  0  0
   57.9587   26.9993   45.1710 H   0  0  0  0  0  0  0  0  0  0  0  0
   58.2644   34.7253   43.7804 H   0  0  0  0  0  0  0  0  0  0  0  0
   57.5769   35.3727   45.3386 H   0  0  0  0  0  0  0  0  0  0  0  0
   60.3563   34.3886   44.7180 H   0  0  0  0  0  0  0  0  0  0  0  0
   59.7960   35.8093   45.6904 H   0  0  0  0  0  0  0  0  0  0  0  0
   62.1441   34.5111   45.4994 H   0  0  0  0  0  0  0  0  0  0  0  0
   64.3699   33.6156   46.1837 H   0  0  0  0  0  0  0  0  0  0  0  0
  1  2  1  0
  2  3  2  0
  3  4  1  0
  4  5  1  0
  5  6  1  0
  6  7  1  0
  7  8  1  0
  8  9  1  0
  9 10  1  0
 10 11  1  0
 11 12  2  0
 12 13  1  0
 12 14  1  0
 14 15  1  0
  8 16  1  0
 16 17  1  0
  4 18  2  0
 18 19  1  0
 19 20  2  0
 20  2  1  0
 17  5  1  0
 15 10  2  0
  1 21  1  0
  1 22  1  0
  1 23  1  0
  3 24  1  0
  6 25  1  0
  6 26  1  0
  7 27  1  0
  7 28  1  0
  9 29  1  0
  9 30  1  0
 11 31  1  0
 13 32  1  0
 13 33  1  0
 13 34  1  0
 16 35  1  0
 16 36  1  0
 17 37  1  0
 17 38  1  0
 18 39  1  0
 19 40  1  0
M  END
>  <UniqueID>  (17) 
15

>  <SMILES>  (17) 
Cc1cc(N2CCN(Cc3cc(C)on3)CC2)ccn1

>  <Energy>  (17) 
81.63895473726143

>  <Genealogy>  (17) 
Cc1cc(N2CCN(Cc3cc(C)on3)CC2)ccn1 (3D coordinates assigned)
Cc1cc(N2CCN(Cc3cc(C)on3)CC2)ccn1 (nonaromatic ring conformer: 81.63895473726143 kcal/mol)

>  <smiles>  (17) 
Cc1cc(N2CCN(Cc3cc(C)on3)CC2)ccn1

>  <score_type>  (17) 
oracle

>  <origin>  (17) 
adg

>  <m_score__min__energy>  (17) 
-8.2200000000000006

>  <m_primary>  (17) 
energy

$$$$
17:0
     RDKit          3D

 35 37  0  0  0  0  0  0  0  0999 V2000
   56.9990   21.0190   42.9440 C   0  0  0  0  0  0  0  0  0  0  0  0
   55.8940   21.8940   43.1440 O   0  0  0  0  0  0  0  0  0  0  0  0
   55.9350   23.0510   43.9380 C   0  0  0  0  0  0  0  0  0  0  0  0
   54.7990   23.5540   44.6000 C   0  0  0  0  0  0  0  0  0  0  0  0
   54.8930   24.7130   45.3760 C   0  0  0  0  0  0  0  0  0  0  0  0
   56.1100   25.3940   45.4920 C   0  0  0  0  0  0  0  0  0  0  0  0
   56.1710   26.5740   46.3060 N   0  0  0  0  0  0  0  0  0  0  0  0
   57.2950   27.4560   46.4360 C   0  0  0  0  0  0  0  0  0  0  0  0
   58.2440   27.1150   47.1910 O   0  0  0  0  0  0  0  0  0  0  0  0
   57.3450   28.7710   45.7540 C   0  0  0  0  0  0  0  0  0  0  0  0
   56.6460   28.9670   44.5480 C   0  0  0  0  0  0  0  0  0  0  0  0
   56.6900   30.2030   43.8950 C   0  0  0  0  0  0  0  0  0  0  0  0
   57.4440   31.2490   44.4330 C   0  0  0  0  0  0  0  0  0  0  0  0
   58.1340   31.0680   45.6380 C   0  0  0  0  0  0  0  0  0  0  0  0
   58.1050   29.8310   46.2860 C   0  0  0  0  0  0  0  0  0  0  0  0
   58.8490   32.1410   46.1790 O   0  0  0  0  0  0  0  0  0  0  0  0
   58.6660   33.4720   45.6880 C   0  0  0  0  0  0  0  0  0  0  0  0
   58.4980   33.4580   44.1630 C   0  0  0  0  0  0  0  0  0  0  0  0
   57.5240   32.4830   43.7810 O   0  0  0  0  0  0  0  0  0  0  0  0
   57.2490   24.8790   44.8510 C   0  0  0  0  0  0  0  0  0  0  0  0
   57.1570   23.7210   44.0730 C   0  0  0  0  0  0  0  0  0  0  0  0
   57.3978   20.7032   43.9193 H   0  0  0  0  0  0  0  0  0  0  0  0
   56.6689   20.1347   42.3791 H   0  0  0  0  0  0  0  0  0  0  0  0
   57.7841   21.5430   42.3791 H   0  0  0  0  0  0  0  0  0  0  0  0
   53.8345   23.0335   44.5064 H   0  0  0  0  0  0  0  0  0  0  0  0
   54.0032   25.0927   45.8996 H   0  0  0  0  0  0  0  0  0  0  0  0
   56.0608   28.1419   44.1159 H   0  0  0  0  0  0  0  0  0  0  0  0
   56.1316   30.3514   42.9589 H   0  0  0  0  0  0  0  0  0  0  0  0
   58.6770   29.6842   47.2140 H   0  0  0  0  0  0  0  0  0  0  0  0
   57.7672   33.9083   46.1482 H   0  0  0  0  0  0  0  0  0  0  0  0
   59.5504   34.0733   45.9453 H   0  0  0  0  0  0  0  0  0  0  0  0
   58.1690   34.4517   43.8248 H   0  0  0  0  0  0  0  0  0  0  0  0
   59.4619   33.2026   43.6987 H   0  0  0  0  0  0  0  0  0  0  0  0
   58.2173   25.3890   44.9617 H   0  0  0  0  0  0  0  0  0  0  0  0
   58.0513   23.3334   43.5632 H   0  0  0  0  0  0  0  0  0  0  0  0
  1  2  1  0
  2  3  1  0
  3  4  2  0
  4  5  1  0
  5  6  2  0
  6  7  1  0
  7  8  1  0
  8  9  2  0
  8 10  1  0
 10 11  2  0
 11 12  1  0
 12 13  2  0
 13 14  1  0
 14 15  2  0
 14 16  1  0
 16 17  1  0
 17 18  1  0
 18 19  1  0
  6 20  1  0
 20 21  2  0
 21  3  1  0
 15 10  1  0
 19 13  1  0
  1 22  1  0
  1 23  1  0
  1 24  1  0
  4 25  1  0
  5 26  1  0
 11 27  1  0
 12 28  1  0
 15 29  1  0
 17 30  1  0
 17 31  1  0
 18 32  1  0
 18 33  1  0
 20 34  1  0
 21 35  1  0
M  CHG  1   7  -1
M  END
>  <UniqueID>  (18) 
16

>  <SMILES>  (18) 
COc1ccc([N-]C(=O)c2ccc3c(c2)OCCO3)cc1

>  <Energy>  (18) 
43.98641946090263

>  <Genealogy>  (18) 
COc1ccc([N-]C(=O)c2ccc3c(c2)OCCO3)cc1 (protonated)
COc1ccc([N-]C(=O)c2ccc3c(c2)OCCO3)cc1 (3D coordinates assigned)
COc1ccc([N-]C(=O)c2ccc3c(c2)OCCO3)cc1 (nonaromatic ring conformer: 43.98641946090263 kcal/mol)

>  <smiles>  (18) 
COc1ccc(NC(=O)c2ccc3c(c2)OCCO3)cc1

>  <score_type>  (18) 
oracle

>  <origin>  (18) 
adg

>  <m_score__min__energy>  (18) 
-7.8600000000000003

>  <m_primary>  (18) 
energy

$$$$
18:0
     RDKit          3D

 59 62  0  0  0  0  0  0  0  0999 V2000
   60.7457   33.0522   48.4565 H   0  0  0  0  0  0  0  0  0  0  0  0
   60.4920   32.5800   47.4960 C   0  0  0  0  0  0  0  0  0  0  0  0
   61.1850   31.4920   47.1220 C   0  0  0  0  0  0  0  0  0  0  0  0
   61.8496   31.6012   46.2523 H   0  0  0  0  0  0  0  0  0  0  0  0
   61.1400   30.1240   47.7840 C   0  0  0  0  0  0  0  0  0  0  0  0
   60.9866   30.2936   48.8600 H   0  0  0  0  0  0  0  0  0  0  0  0
   62.0911   29.6595   47.4846 H   0  0  0  0  0  0  0  0  0  0  0  0
   60.0620   29.0850   47.3280 C   0  0  0  0  0  0  0  0  0  0  0  0
   59.5730   28.2720   48.5230 C   0  0  0  0  0  0  0  0  0  0  0  0
   59.3250   27.0410   48.4030 O   0  0  0  0  0  0  0  0  0  0  0  0
   59.4910   28.8790   49.7840 O   0  0  0  0  0  0  0  0  0  0  0  0
   58.5210   29.8680   50.1180 C   0  0  0  0  0  0  0  0  0  0  0  0
   57.9351   29.5227   50.9826 H   0  0  0  0  0  0  0  0  0  0  0  0
   57.8620   30.0262   49.2516 H   0  0  0  0  0  0  0  0  0  0  0  0
   59.2000   31.1860   50.4670 C   0  0  0  0  0  0  0  0  0  0  0  0
   59.2546   31.2920   51.5605 H   0  0  0  0  0  0  0  0  0  0  0  0
   60.2163   31.1976   50.0463 H   0  0  0  0  0  0  0  0  0  0  0  0
   58.6195   32.0202   50.0463 H   0  0  0  0  0  0  0  0  0  0  0  0
   58.8810   29.8300   46.6030 C   0  0  0  0  0  0  0  0  0  0  0  0
   57.9423   29.2972   46.8151 H   0  0  0  0  0  0  0  0  0  0  0  0
   58.8488   30.8622   46.9817 H   0  0  0  0  0  0  0  0  0  0  0  0
   59.0830   29.8910   45.0800 C   0  0  0  0  0  0  0  0  0  0  0  0
   58.2348   30.4310   44.6339 H   0  0  0  0  0  0  0  0  0  0  0  0
   60.0370   30.4052   44.8917 H   0  0  0  0  0  0  0  0  0  0  0  0
   59.1690   28.5430   44.4580 N   0  0  0  0  0  0  0  0  0  0  0  0
   57.8790   28.1060   43.8870 C   0  0  0  0  0  0  0  0  0  0  0  0
   57.1126   28.8661   44.0990 H   0  0  0  0  0  0  0  0  0  0  0  0
   57.9944   27.9786   42.8005 H   0  0  0  0  0  0  0  0  0  0  0  0
   57.4580   26.7990   44.4880 C   0  0  0  0  0  0  0  0  0  0  0  0
   57.5180   25.6340   43.7890 N   0  0  0  0  0  0  0  0  0  0  0  0
   57.1260   24.5780   44.5350 C   0  0  0  0  0  0  0  0  0  0  0  0
   57.1030   23.1980   44.0350 C   0  0  0  0  0  0  0  0  0  0  0  0
   56.2630   22.6570   43.0780 C   0  0  0  0  0  0  0  0  0  0  0  0
   55.4729   23.1937   42.5324 H   0  0  0  0  0  0  0  0  0  0  0  0
   56.5760   21.3880   42.9360 O   0  0  0  0  0  0  0  0  0  0  0  0
   57.5560   21.0650   43.7280 N   0  0  0  0  0  0  0  0  0  0  0  0
   57.9800   20.1140   43.7980 H   0  0  0  0  0  0  0  0  0  0  0  0
   57.9150   22.1540   44.4300 C   0  0  0  0  0  0  0  0  0  0  0  0
   58.7136   22.2041   45.1848 H   0  0  0  0  0  0  0  0  0  0  0  0
   56.6990   25.0520   46.0920 S   0  0  0  0  0  0  0  0  0  0  0  0
   57.0240   26.6780   45.8060 C   0  0  0  0  0  0  0  0  0  0  0  0
   56.9135   27.4985   46.5302 H   0  0  0  0  0  0  0  0  0  0  0  0
   59.7240   27.5020   45.3550 C   0  0  0  0  0  0  0  0  0  0  0  0
   58.9006   27.0446   45.9231 H   0  0  0  0  0  0  0  0  0  0  0  0
   60.2380   26.7527   44.7351 H   0  0  0  0  0  0  0  0  0  0  0  0
   60.7410   28.0880   46.3390 C   0  0  0  0  0  0  0  0  0  0  0  0
   61.1975   27.2684   46.9133 H   0  0  0  0  0  0  0  0  0  0  0  0
   61.5050   28.6334   45.7655 H   0  0  0  0  0  0  0  0  0  0  0  0
   59.4030   33.1810   46.6860 C   0  0  0  0  0  0  0  0  0  0  0  0
   59.6510   34.0440   45.6010 C   0  0  0  0  0  0  0  0  0  0  0  0
   60.6866   34.2846   45.3189 H   0  0  0  0  0  0  0  0  0  0  0  0
   58.5870   34.5970   44.8800 C   0  0  0  0  0  0  0  0  0  0  0  0
   58.7893   35.2632   44.0284 H   0  0  0  0  0  0  0  0  0  0  0  0
   57.2700   34.3060   45.2380 C   0  0  0  0  0  0  0  0  0  0  0  0
   56.4358   34.7371   44.6650 H   0  0  0  0  0  0  0  0  0  0  0  0
   57.0120   33.4680   46.3230 C   0  0  0  0  0  0  0  0  0  0  0  0
   55.9740   33.2430   46.6091 H   0  0  0  0  0  0  0  0  0  0  0  0
   58.0720   32.9140   47.0470 C   0  0  0  0  0  0  0  0  0  0  0  0
   57.8616   32.2625   47.9080 H   0  0  0  0  0  0  0  0  0  0  0  0
  1  2  1  0
  2  3  2  0
  3  4  1  0
  3  5  1  0
  5  6  1  0
  5  7  1  0
  5  8  1  0
  8  9  1  0
  9 10  2  0
  9 11  1  0
 11 12  1  0
 12 13  1  0
 12 14  1  0
 12 15  1  0
 15 16  1  0
 15 17  1  0
 15 18  1  0
  8 19  1  0
 19 20  1  0
 19 21  1  0
 19 22  1  0
 22 23  1  0
 22 24  1  0
 22 25  1  0
 25 26  1  0
 26 27  1  0
 26 28  1  0
 26 29  1  0
 29 30  1  0
 30 31  2  0
 31 32  1  0
 32 33  2  0
 33 34  1  0
 33 35  1  0
 35 36  1  0
 36 37  1  0
 36 38  2  0
 38 39  1  0
 31 40  1  0
 40 41  1  0
 41 42  1  0
 25 43  1  0
 43 44  1  0
 43 45  1  0
 43 46  1  0
 46 47  1  0
 46 48  1  0
  2 49  1  0
 49 50  2  0
 50 51  1  0
 50 52  1  0
 52 53  1  0
 52 54  2  0
 54 55  1  0
 54 56  1  0
 56 57  1  0
 56 58  2  0
 58 59  1  0
 46  8  1  0
 58 49  1  0
 41 29  2  0
 38 32  1  0
M  CHG  1  36   1
M  END
>  <UniqueID>  (19) 
17

>  <SMILES>  (19) 
CCOC(=O)C1(C/C=C/c2ccccc2)CCN(Cc2csc(-c3c[nH+]oc3)n2)CC1

>  <Energy>  (19) 
135.41600158838045

>  <Genealogy>  (19) 
CCOC(=O)C1(CC=Cc2ccccc2)CCN(Cc2csc(-c3c[nH+]oc3)n2)CC1 (protonated)
CCOC(=O)C1(C/C=C/c2ccccc2)CCN(Cc2csc(-c3c[nH+]oc3)n2)CC1 (cis-trans isomerization)
CCOC(=O)C1(C/C=C/c2ccccc2)CCN(Cc2csc(-c3c[nH+]oc3)n2)CC1 (3D coordinates assigned)
CCOC(=O)C1(C/C=C/c2ccccc2)CCN(Cc2csc(-c3c[nH+]oc3)n2)CC1 (nonaromatic ring conformer: 135.41600158838045 kcal/mol)

>  <smiles>  (19) 
CCOC(=O)C1(CC=Cc2ccccc2)CCN(Cc2csc(-c3cnoc3)n2)CC1

>  <score_type>  (19) 
oracle

>  <origin>  (19) 
adg

>  <m_score__min__energy>  (19) 
-8.9000000000000004

>  <m_primary>  (19) 
energy

$$$$
19:0
     RDKit          3D

 27 29  0  0  0  0  0  0  0  0999 V2000
   59.7960   35.2140   46.6690 C   0  0  0  0  0  0  0  0  0  0  0  0
   58.9990   34.0350   46.1990 C   0  0  0  0  0  0  0  0  0  0  0  0
   57.7490   34.2210   45.5670 C   0  0  0  0  0  0  0  0  0  0  0  0
   57.0190   33.1190   45.0910 C   0  0  0  0  0  0  0  0  0  0  0  0
   57.5770   31.8540   45.2550 C   0  0  0  0  0  0  0  0  0  0  0  0
   57.0260   30.6900   44.8580 N   0  0  0  0  0  0  0  0  0  0  0  0
   57.9450   29.7630   45.2310 C   0  0  0  0  0  0  0  0  0  0  0  0
   57.7670   28.3170   44.9940 C   0  0  0  0  0  0  0  0  0  0  0  0
   58.1410   27.7100   43.7820 C   0  0  0  0  0  0  0  0  0  0  0  0
   57.9500   26.3370   43.6150 C   0  0  0  0  0  0  0  0  0  0  0  0
   57.3900   25.5800   44.6450 C   0  0  0  0  0  0  0  0  0  0  0  0
   57.0300   26.2130   45.8360 C   0  0  0  0  0  0  0  0  0  0  0  0
   57.2230   27.5510   45.9810 N   0  0  0  0  0  0  0  0  0  0  0  0
   59.0300   30.3850   45.8410 C   0  0  0  0  0  0  0  0  0  0  0  0
   58.7720   31.7000   45.8440 N   0  0  0  0  0  0  0  0  0  0  0  0
   59.5160   32.7300   46.3200 C   0  0  0  0  0  0  0  0  0  0  0  0
   59.8088   35.2330   47.7688 H   0  0  0  0  0  0  0  0  0  0  0  0
   60.8261   35.1342   46.2916 H   0  0  0  0  0  0  0  0  0  0  0  0
   59.3380   36.1402   46.2916 H   0  0  0  0  0  0  0  0  0  0  0  0
   57.3442   35.2367   45.4467 H   0  0  0  0  0  0  0  0  0  0  0  0
   56.0407   33.2510   44.6057 H   0  0  0  0  0  0  0  0  0  0  0  0
   58.5802   28.3116   42.9725 H   0  0  0  0  0  0  0  0  0  0  0  0
   58.2409   25.8520   42.6715 H   0  0  0  0  0  0  0  0  0  0  0  0
   57.2342   24.4983   44.5200 H   0  0  0  0  0  0  0  0  0  0  0  0
   56.5899   25.6289   46.6577 H   0  0  0  0  0  0  0  0  0  0  0  0
   59.9272   29.8920   46.2435 H   0  0  0  0  0  0  0  0  0  0  0  0
   60.4956   32.5511   46.7874 H   0  0  0  0  0  0  0  0  0  0  0  0
  1  2  1  0
  2  3  1  0
  3  4  2  0
  4  5  1  0
  5  6  2  0
  6  7  1  0
  7  8  1  0
  8  9  2  0
  9 10  1  0
 10 11  2  0
 11 12  1  0
 12 13  2  0
  7 14  2  0
 14 15  1  0
 15 16  1  0
 16  2  2  0
 15  5  1  0
 13  8  1  0
  1 17  1  0
  1 18  1  0
  1 19  1  0
  3 20  1  0
  4 21  1  0
  9 22  1  0
 10 23  1  0
 11 24  1  0
 12 25  1  0
 14 26  1  0
 16 27  1  0
M  END
>  <UniqueID>  (20) 
18

>  <SMILES>  (20) 
Cc1ccc2nc(-c3ccccn3)cn2c1

>  <Energy>  (20) 
64.49316821490308

>  <Genealogy>  (20) 
Cc1ccc2nc(-c3ccccn3)cn2c1 (3D coordinates assigned)
Cc1ccc2nc(-c3ccccn3)cn2c1 (optimized conformer: 64.49316821490308 kcal/mol)

>  <smiles>  (20) 
Cc1ccc2nc(-c3ccccn3)cn2c1

>  <score_type>  (20) 
oracle

>  <origin>  (20) 
adg

>  <m_score__min__energy>  (20) 
-6.1500000000000004

>  <m_primary>  (20) 
energy

$$$$
20:0
     RDKit          3D

 47 48  0  0  0  0  0  0  0  0999 V2000
   58.5860   34.2910   46.7290 C   0  0  0  0  0  0  0  0  0  0  0  0
   58.0000   32.8720   46.6990 C   0  0  0  0  0  0  0  0  0  0  0  0
   58.8690   31.7730   46.0120 C   0  0  2  0  0  0  0  0  0  0  0  0
   58.1030   31.1000   44.8840 C   0  0  0  0  0  0  0  0  0  0  0  0
   57.8190   31.8240   43.7110 C   0  0  0  0  0  0  0  0  0  0  0  0
   57.0930   31.2390   42.6750 C   0  0  0  0  0  0  0  0  0  0  0  0
   56.6320   29.9280   42.7990 C   0  0  0  0  0  0  0  0  0  0  0  0
   56.9030   29.1980   43.9570 C   0  0  0  0  0  0  0  0  0  0  0  0
   57.6320   29.7750   45.0080 C   0  0  0  0  0  0  0  0  0  0  0  0
   58.0160   28.9110   46.1820 C   0  0  0  0  0  0  0  0  0  0  0  0
   58.5840   29.7080   47.3660 C   0  0  0  0  0  0  0  0  0  0  0  0
   59.5120   30.7730   46.9170 N   0  0  2  0  0  0  0  0  0  0  0  0
   60.3400   31.3840   48.0040 C   0  0  0  0  0  0  0  0  0  0  0  0
   61.8030   31.5740   47.6600 C   0  0  0  0  0  0  0  0  0  0  0  0
   62.3110   30.8470   46.7650 O   0  0  0  0  0  0  0  0  0  0  0  0
   62.6200   32.5740   48.3140 N   0  0  0  0  0  0  0  0  0  0  0  0
   63.7940   33.1020   47.5980 C   0  0  0  0  0  0  0  0  0  0  0  0
   63.3900   33.8410   46.3250 C   0  0  0  0  0  0  0  0  0  0  0  0
   62.5500   32.7320   49.7780 C   0  0  0  0  0  0  0  0  0  0  0  0
   62.7180   34.1930   50.2010 C   0  0  0  0  0  0  0  0  0  0  0  0
   58.7182   34.6111   47.7731 H   0  0  0  0  0  0  0  0  0  0  0  0
   59.5599   34.2964   46.2177 H   0  0  0  0  0  0  0  0  0  0  0  0
   57.8997   34.9820   46.2177 H   0  0  0  0  0  0  0  0  0  0  0  0
   57.8279   32.5597   47.7396 H   0  0  0  0  0  0  0  0  0  0  0  0
   57.0889   32.9467   46.0871 H   0  0  0  0  0  0  0  0  0  0  0  0
   59.7251   32.3266   45.5989 H   0  0  0  0  0  0  0  0  0  0  0  0
   58.1731   32.8606   43.6110 H   0  0  0  0  0  0  0  0  0  0  0  0
   56.8834   31.8112   41.7592 H   0  0  0  0  0  0  0  0  0  0  0  0
   56.0543   29.4693   41.9830 H   0  0  0  0  0  0  0  0  0  0  0  0
   56.5425   28.1626   44.0466 H   0  0  0  0  0  0  0  0  0  0  0  0
   57.1217   28.3691   46.5234 H   0  0  0  0  0  0  0  0  0  0  0  0
   58.8088   28.2302   45.8386 H   0  0  0  0  0  0  0  0  0  0  0  0
   57.7513   30.1700   47.9167 H   0  0  0  0  0  0  0  0  0  0  0  0
   59.1452   29.0134   48.0084 H   0  0  0  0  0  0  0  0  0  0  0  0
   60.2120   30.2800   46.3080 H   0  0  0  0  0  0  0  0  0  0  0  0
   59.9147   32.3695   48.2448 H   0  0  0  0  0  0  0  0  0  0  0  0
   60.3102   30.6793   48.8481 H   0  0  0  0  0  0  0  0  0  0  0  0
   64.3323   33.7973   48.2589 H   0  0  0  0  0  0  0  0  0  0  0  0
   64.4346   32.2538   47.3149 H   0  0  0  0  0  0  0  0  0  0  0  0
   62.8781   34.7774   46.5914 H   0  0  0  0  0  0  0  0  0  0  0  0
   64.2885   34.0699   45.7331 H   0  0  0  0  0  0  0  0  0  0  0  0
   62.7123   33.2082   45.7331 H   0  0  0  0  0  0  0  0  0  0  0  0
   61.5723   32.3700   50.1288 H   0  0  0  0  0  0  0  0  0  0  0  0
   63.3703   32.1506   50.2241 H   0  0  0  0  0  0  0  0  0  0  0  0
   62.7255   34.2583   51.2990 H   0  0  0  0  0  0  0  0  0  0  0  0
   63.6669   34.5829   49.8040 H   0  0  0  0  0  0  0  0  0  0  0  0
   61.8824   34.7881   49.8040 H   0  0  0  0  0  0  0  0  0  0  0  0
  1  2  1  0
  2  3  1  0
  3  4  1  0
  4  5  2  0
  5  6  1  0
  6  7  2  0
  7  8  1  0
  8  9  2  0
  9 10  1  0
 10 11  1  0
 11 12  1  0
 12 13  1  0
 13 14  1  0
 14 15  2  0
 14 16  1  0
 16 17  1  0
 17 18  1  0
 16 19  1  0
 19 20  1  0
 12  3  1  0
  9  4  1  0
  1 21  1  0
  1 22  1  0
  1 23  1  0
  2 24  1  0
  2 25  1  0
  3 26  1  6
  5 27  1  0
  6 28  1  0
  7 29  1  0
  8 30  1  0
 10 31  1  0
 10 32  1  0
 11 33  1  0
 11 34  1  0
 12 35  1  6
 13 36  1  0
 13 37  1  0
 17 38  1  0
 17 39  1  0
 18 40  1  0
 18 41  1  0
 18 42  1  0
 19 43  1  0
 19 44  1  0
 20 45  1  0
 20 46  1  0
 20 47  1  0
M  CHG  1  12   1
M  END
>  <UniqueID>  (21) 
19

>  <SMILES>  (21) 
CC[C@@H]1c2ccccc2CC[N@@H+]1CC(=O)N(CC)CC

>  <Energy>  (21) 
60.25917623546199

>  <Genealogy>  (21) 
CCC1c2ccccc2CC[NH+]1CC(=O)N(CC)CC (protonated)
CC[C@@H]1c2ccccc2CC[N@@H+]1CC(=O)N(CC)CC (chirality)
CC[C@@H]1c2ccccc2CC[N@@H+]1CC(=O)N(CC)CC (3D coordinates assigned)
CC[C@@H]1c2ccccc2CC[N@@H+]1CC(=O)N(CC)CC (nonaromatic ring conformer: 60.25917623546199 kcal/mol)

>  <smiles>  (21) 
CCC1c2ccccc2CCN1CC(=O)N(CC)CC

>  <score_type>  (21) 
oracle

>  <origin>  (21) 
adg

>  <m_score__min__energy>  (21) 
-5.5499999999999998

>  <m_primary>  (21) 
energy

$$$$
21:0
     RDKit          3D

 44 46  0  0  0  0  0  0  0  0999 V2000
   59.0060   27.8870   44.3890 C   0  0  0  0  0  0  0  0  0  0  0  0
   57.7730   28.0950   43.7660 C   0  0  0  0  0  0  0  0  0  0  0  0
   57.1020   29.3100   43.9280 C   0  0  0  0  0  0  0  0  0  0  0  0
   57.6530   30.3260   44.7210 C   0  0  0  0  0  0  0  0  0  0  0  0
   56.9200   31.5140   44.8840 O   0  0  0  0  0  0  0  0  0  0  0  0
   57.3930   32.8230   44.5560 C   0  0  0  0  0  0  0  0  0  0  0  0
   58.2230   33.3810   45.6800 C   0  0  0  0  0  0  0  0  0  0  0  0
   57.8820   33.0960   47.0120 C   0  0  0  0  0  0  0  0  0  0  0  0
   58.7230   33.4930   48.0540 C   0  0  0  0  0  0  0  0  0  0  0  0
   59.9200   34.1720   47.7770 C   0  0  0  0  0  0  0  0  0  0  0  0
   60.8850   34.4970   48.8880 C   0  0  0  0  0  0  0  0  0  0  0  0
   61.9500   33.4850   49.0550 N   0  0  0  0  0  0  0  0  0  0  0  0
   63.3000   33.8510   48.5710 C   0  0  0  0  0  0  0  0  0  0  0  0
   63.6100   33.2950   47.1730 C   0  0  0  0  0  0  0  0  0  0  0  0
   63.3340   31.7980   47.1100 C   0  0  0  0  0  0  0  0  0  0  0  0
   61.8820   31.5220   47.4810 C   0  0  0  0  0  0  0  0  0  0  0  0
   61.5590   32.0700   48.8790 C   0  0  0  0  0  0  0  0  0  0  0  0
   60.2140   34.5350   46.4540 C   0  0  0  0  0  0  0  0  0  0  0  0
   59.3720   34.1400   45.4110 C   0  0  0  0  0  0  0  0  0  0  0  0
   58.9060   30.1160   45.3300 C   0  0  0  0  0  0  0  0  0  0  0  0
   59.5740   28.8980   45.1670 C   0  0  0  0  0  0  0  0  0  0  0  0
   59.5292   26.9272   44.2667 H   0  0  0  0  0  0  0  0  0  0  0  0
   57.3297   27.3011   43.1470 H   0  0  0  0  0  0  0  0  0  0  0  0
   56.1345   29.4702   43.4297 H   0  0  0  0  0  0  0  0  0  0  0  0
   58.0073   32.7681   43.6452 H   0  0  0  0  0  0  0  0  0  0  0  0
   56.5282   33.4826   44.3913 H   0  0  0  0  0  0  0  0  0  0  0  0
   56.9490   32.5580   47.2356 H   0  0  0  0  0  0  0  0  0  0  0  0
   58.4464   33.2728   49.0956 H   0  0  0  0  0  0  0  0  0  0  0  0
   61.3563   35.4663   48.6681 H   0  0  0  0  0  0  0  0  0  0  0  0
   60.3076   34.5185   49.8240 H   0  0  0  0  0  0  0  0  0  0  0  0
   63.3738   34.9480   48.5358 H   0  0  0  0  0  0  0  0  0  0  0  0
   64.0287   33.4114   49.2679 H   0  0  0  0  0  0  0  0  0  0  0  0
   62.9791   33.8090   46.4329 H   0  0  0  0  0  0  0  0  0  0  0  0
   64.6746   33.4657   46.9549 H   0  0  0  0  0  0  0  0  0  0  0  0
   63.5251   31.4346   46.0895 H   0  0  0  0  0  0  0  0  0  0  0  0
   63.9942   31.2780   47.8197 H   0  0  0  0  0  0  0  0  0  0  0  0
   61.2240   32.0055   46.7439 H   0  0  0  0  0  0  0  0  0  0  0  0
   61.7213   30.4338   47.4847 H   0  0  0  0  0  0  0  0  0  0  0  0
   60.4753   31.9834   49.0466 H   0  0  0  0  0  0  0  0  0  0  0  0
   62.1379   31.4785   49.6036 H   0  0  0  0  0  0  0  0  0  0  0  0
   61.1112   35.1332   46.2368 H   0  0  0  0  0  0  0  0  0  0  0  0
   59.6108   34.4250   44.3758 H   0  0  0  0  0  0  0  0  0  0  0  0
   59.3608   30.9133   45.9362 H   0  0  0  0  0  0  0  0  0  0  0  0
   60.5479   28.7363   45.6522 H   0  0  0  0  0  0  0  0  0  0  0  0
  1  2  2  0
  2  3  1  0
  3  4  2  0
  4  5  1  0
  5  6  1  0
  6  7  1  0
  7  8  2  0
  8  9  1  0
  9 10  2  0
 10 11  1  0
 11 12  1  0
 12 13  1  0
 13 14  1  0
 14 15  1  0
 15 16  1  0
 16 17  1  0
 10 18  1  0
 18 19  2  0
  4 20  1  0
 20 21  2  0
 21  1  1  0
 19  7  1  0
 17 12  1  0
  1 22  1  0
  2 23  1  0
  3 24  1  0
  6 25  1  0
  6 26  1  0
  8 27  1  0
  9 28  1  0
 11 29  1  0
 11 30  1  0
 13 31  1  0
 13 32  1  0
 14 33  1  0
 14 34  1  0
 15 35  1  0
 15 36  1  0
 16 37  1  0
 16 38  1  0
 17 39  1  0
 17 40  1  0
 18 41  1  0
 19 42  1  0
 20 43  1  0
 21 44  1  0
M  END
>  <UniqueID>  (22) 
20

>  <SMILES>  (22) 
c1ccc(OCc2ccc(CN3CCCCC3)cc2)cc1

>  <Energy>  (22) 
48.047180334769834

>  <Genealogy>  (22) 
c1ccc(OCc2ccc(CN3CCCCC3)cc2)cc1 (3D coordinates assigned)
c1ccc(OCc2ccc(CN3CCCCC3)cc2)cc1 (nonaromatic ring conformer: 48.047180334769834 kcal/mol)

>  <smiles>  (22) 
c1ccc(OCc2ccc(CN3CCCCC3)cc2)cc1

>  <score_type>  (22) 
oracle

>  <origin>  (22) 
adg

>  <m_score__min__energy>  (22) 
-7.7300000000000004

>  <m_primary>  (22) 
energy

$$$$
22:0
     RDKit          3D

 37 40  0  0  0  0  0  0  0  0999 V2000
   55.1450   28.9630   44.4910 O   0  0  0  0  0  0  0  0  0  0  0  0
   56.2150   29.4140   44.9780 C   0  0  0  0  0  0  0  0  0  0  0  0
   56.4930   30.8140   44.8520 N   0  0  0  0  0  0  0  0  0  0  0  0
   57.7080   31.3710   44.2700 C   0  0  0  0  0  0  0  0  0  0  0  0
   58.1830   32.5160   45.1160 C   0  0  0  0  0  0  0  0  0  0  0  0
   58.7110   33.6700   44.5160 C   0  0  0  0  0  0  0  0  0  0  0  0
   59.1840   34.7220   45.3080 C   0  0  0  0  0  0  0  0  0  0  0  0
   59.1440   34.6230   46.7010 C   0  0  0  0  0  0  0  0  0  0  0  0
   58.6340   33.4700   47.3060 C   0  0  0  0  0  0  0  0  0  0  0  0
   58.1600   32.4170   46.5170 C   0  0  0  0  0  0  0  0  0  0  0  0
   57.1570   28.4810   45.6270 C   0  0  0  0  0  0  0  0  0  0  0  0
   58.4470   28.8940   46.0330 C   0  0  0  0  0  0  0  0  0  0  0  0
   59.3240   27.9870   46.6690 C   0  0  0  0  0  0  0  0  0  0  0  0
   58.9230   26.6630   46.9180 C   0  0  0  0  0  0  0  0  0  0  0  0
   57.6410   26.2910   46.5240 C   0  0  0  0  0  0  0  0  0  0  0  0
   57.0580   25.0910   46.6650 N   0  0  0  0  0  0  0  0  0  0  0  0
   55.8350   25.2920   46.1110 C   0  0  0  0  0  0  0  0  0  0  0  0
   54.8160   24.2370   46.0300 C   0  0  0  0  0  0  0  0  0  0  0  0
   54.5490   23.2740   46.9800 C   0  0  0  0  0  0  0  0  0  0  0  0
   53.5190   22.5180   46.4600 C   0  0  0  0  0  0  0  0  0  0  0  0
   53.1790   22.9820   45.2780 O   0  0  0  0  0  0  0  0  0  0  0  0
   53.9370   24.0150   44.9890 C   0  0  0  0  0  0  0  0  0  0  0  0
   55.6300   26.5470   45.6330 N   0  0  0  0  0  0  0  0  0  0  0  0
   56.7920   27.1600   45.9110 C   0  0  0  0  0  0  0  0  0  0  0  0
   58.4864   30.5947   44.2316 H   0  0  0  0  0  0  0  0  0  0  0  0
   57.4985   31.7278   43.2508 H   0  0  0  0  0  0  0  0  0  0  0  0
   58.7530   33.7475   43.4195 H   0  0  0  0  0  0  0  0  0  0  0  0
   59.5879   35.6283   44.8332 H   0  0  0  0  0  0  0  0  0  0  0  0
   59.5138   35.4522   47.3220 H   0  0  0  0  0  0  0  0  0  0  0  0
   58.6056   33.3912   48.4028 H   0  0  0  0  0  0  0  0  0  0  0  0
   57.7676   31.5076   46.9955 H   0  0  0  0  0  0  0  0  0  0  0  0
   58.7703   29.9298   45.8522 H   0  0  0  0  0  0  0  0  0  0  0  0
   60.3280   28.3194   46.9715 H   0  0  0  0  0  0  0  0  0  0  0  0
   59.5987   25.9460   47.4071 H   0  0  0  0  0  0  0  0  0  0  0  0
   55.0517   23.1373   47.9488 H   0  0  0  0  0  0  0  0  0  0  0  0
   53.0522   21.6562   46.9595 H   0  0  0  0  0  0  0  0  0  0  0  0
   53.8804   24.6087   44.0647 H   0  0  0  0  0  0  0  0  0  0  0  0
  1  2  2  0
  2  3  1  0
  3  4  1  0
  4  5  1  0
  5  6  2  0
  6  7  1  0
  7  8  2  0
  8  9  1  0
  9 10  2  0
  2 11  1  0
 11 12  2  0
 12 13  1  0
 13 14  2  0
 14 15  1  0
 15 16  1  0
 16 17  1  0
 17 18  1  0
 18 19  1  0
 19 20  2  0
 20 21  1  0
 21 22  1  0
 17 23  2  0
 23 24  1  0
 10  5  1  0
 24 11  1  0
 24 15  2  0
 22 18  2  0
  4 25  1  0
  4 26  1  0
  6 27  1  0
  7 28  1  0
  8 29  1  0
  9 30  1  0
 10 31  1  0
 12 32  1  0
 13 33  1  0
 14 34  1  0
 19 35  1  0
 20 36  1  0
 22 37  1  0
M  CHG  2   3  -1  16  -1
M  END
>  <UniqueID>  (23) 
21

>  <SMILES>  (23) 
O=C([N-]Cc1ccccc1)c1cccc2[n-]c(-c3ccoc3)nc12

>  <Energy>  (23) 
105.19823683427717

>  <Genealogy>  (23) 
O=C([N-]Cc1ccccc1)c1cccc2[n-]c(-c3ccoc3)nc12 (protonated)
O=C([N-]Cc1ccccc1)c1cccc2[n-]c(-c3ccoc3)nc12 (3D coordinates assigned)
O=C([N-]Cc1ccccc1)c1cccc2[n-]c(-c3ccoc3)nc12 (optimized conformer: 105.19823683427717 kcal/mol)

>  <smiles>  (23) 
O=C(NCc1ccccc1)c1cccc2[nH]c(-c3ccoc3)nc12

>  <score_type>  (23) 
oracle

>  <origin>  (23) 
adg

>  <m_score__min__energy>  (23) 
-11.85

>  <m_primary>  (23) 
energy

$$$$
23:0
     RDKit          3D

 41 44  0  0  0  0  0  0  0  0999 V2000
   65.2520   32.3990   50.0430 C   0  0  0  0  0  0  0  0  0  0  0  0
   64.5390   31.6630   49.0540 O   0  0  0  0  0  0  0  0  0  0  0  0
   63.4020   32.1350   48.3820 C   0  0  0  0  0  0  0  0  0  0  0  0
   63.3750   33.3770   47.7260 C   0  0  0  0  0  0  0  0  0  0  0  0
   62.2140   33.8120   47.0830 C   0  0  0  0  0  0  0  0  0  0  0  0
   61.0600   33.0040   47.0610 C   0  0  0  0  0  0  0  0  0  0  0  0
   61.0860   31.7540   47.7140 C   0  0  0  0  0  0  0  0  0  0  0  0
   62.2540   31.3380   48.3790 C   0  0  0  0  0  0  0  0  0  0  0  0
   59.8850   30.9510   47.7390 N   0  0  0  0  0  0  0  0  0  0  0  0
   59.9340   29.5120   47.8060 C   0  0  0  0  0  0  0  0  0  0  0  0
   60.3820   28.9440   48.8390 O   0  0  0  0  0  0  0  0  0  0  0  0
   59.4450   28.7290   46.7070 N   0  0  0  0  0  0  0  0  0  0  0  0
   58.4900   29.1440   45.7190 C   0  0  0  0  0  0  0  0  0  0  0  0
   58.8030   30.0780   44.7170 C   0  0  0  0  0  0  0  0  0  0  0  0
   57.8260   30.4640   43.7960 C   0  0  0  0  0  0  0  0  0  0  0  0
   56.5420   29.9270   43.8940 C   0  0  0  0  0  0  0  0  0  0  0  0
   56.2490   29.0440   44.8850 N   0  0  0  0  0  0  0  0  0  0  0  0
   57.1820   28.6520   45.7930 C   0  0  0  0  0  0  0  0  0  0  0  0
   58.5870   31.6380   47.7180 C   0  0  0  0  0  0  0  0  0  0  0  0
   58.5930   32.7580   46.7090 C   0  0  0  0  0  0  0  0  0  0  0  0
   57.3840   33.1670   46.1220 C   0  0  0  0  0  0  0  0  0  0  0  0
   57.3680   34.2120   45.1980 C   0  0  0  0  0  0  0  0  0  0  0  0
   58.5540   34.8580   44.8540 C   0  0  0  0  0  0  0  0  0  0  0  0
   59.7610   34.4760   45.4440 C   0  0  0  0  0  0  0  0  0  0  0  0
   59.7950   33.4370   46.3980 C   0  0  0  0  0  0  0  0  0  0  0  0
   64.9344   32.0712   51.0439 H   0  0  0  0  0  0  0  0  0  0  0  0
   66.3312   32.2222   49.9245 H   0  0  0  0  0  0  0  0  0  0  0  0
   65.0410   33.4721   49.9245 H   0  0  0  0  0  0  0  0  0  0  0  0
   64.2740   34.0109   47.7187 H   0  0  0  0  0  0  0  0  0  0  0  0
   62.2004   34.7948   46.5891 H   0  0  0  0  0  0  0  0  0  0  0  0
   62.2637   30.3715   48.9041 H   0  0  0  0  0  0  0  0  0  0  0  0
   59.8153   30.5044   44.6579 H   0  0  0  0  0  0  0  0  0  0  0  0
   58.0669   31.1848   43.0007 H   0  0  0  0  0  0  0  0  0  0  0  0
   55.7671   30.2181   43.1696 H   0  0  0  0  0  0  0  0  0  0  0  0
   56.9074   27.9448   46.5895 H   0  0  0  0  0  0  0  0  0  0  0  0
   57.8008   30.9163   47.4516 H   0  0  0  0  0  0  0  0  0  0  0  0
   58.3948   32.0613   48.7149 H   0  0  0  0  0  0  0  0  0  0  0  0
   56.4455   32.6608   46.3922 H   0  0  0  0  0  0  0  0  0  0  0  0
   56.4184   34.5264   44.7405 H   0  0  0  0  0  0  0  0  0  0  0  0
   58.5395   35.6723   44.1146 H   0  0  0  0  0  0  0  0  0  0  0  0
   60.6924   34.9892   45.1627 H   0  0  0  0  0  0  0  0  0  0  0  0
  1  2  1  0
  2  3  1  0
  3  4  2  0
  4  5  1  0
  5  6  2  0
  6  7  1  0
  7  8  2  0
  7  9  1  0
  9 10  1  0
 10 11  2  0
 10 12  1  0
 12 13  1  0
 13 14  2  0
 14 15  1  0
 15 16  2  0
 16 17  1  0
 17 18  2  0
  9 19  1  0
 19 20  1  0
 20 21  2  0
 21 22  1  0
 22 23  2  0
 23 24  1  0
 24 25  2  0
  8  3  1  0
 18 13  1  0
 25 20  1  0
 25  6  1  0
  1 26  1  0
  1 27  1  0
  1 28  1  0
  4 29  1  0
  5 30  1  0
  8 31  1  0
 14 32  1  0
 15 33  1  0
 16 34  1  0
 18 35  1  0
 19 36  1  0
 19 37  1  0
 21 38  1  0
 22 39  1  0
 23 40  1  0
 24 41  1  0
M  CHG  1  12  -1
M  END
>  <UniqueID>  (24) 
22

>  <SMILES>  (24) 
COc1ccc2c(c1)N(C(=O)[N-]c1cccnc1)Cc1ccccc1-2

>  <Energy>  (24) 
61.192369021439134

>  <Genealogy>  (24) 
COc1ccc2c(c1)N(C(=O)[N-]c1cccnc1)Cc1ccccc1-2 (protonated)
COc1ccc2c(c1)N(C(=O)[N-]c1cccnc1)Cc1ccccc1-2 (3D coordinates assigned)
COc1ccc2c(c1)N(C(=O)[N-]c1cccnc1)Cc1ccccc1-2 (nonaromatic ring conformer: 61.192369021439134 kcal/mol)

>  <smiles>  (24) 
COc1ccc2c(c1)N(C(=O)Nc1cccnc1)Cc1ccccc1-2

>  <score_type>  (24) 
oracle

>  <origin>  (24) 
adg

>  <m_score__min__energy>  (24) 
-8.8399999999999999

>  <m_primary>  (24) 
energy

$$$$
24:0
     RDKit          3D

 49 51  0  0  0  0  0  0  0  0999 V2000
   57.3720   32.3570   40.7800 C   0  0  0  0  0  0  0  0  0  0  0  0
   57.4060   31.7380   42.1760 C   0  0  0  0  0  0  0  0  0  0  0  0
   58.0120   32.6710   43.2350 C   0  0  0  0  0  0  0  0  0  0  0  0
   57.5010   32.2670   44.9070 S   0  0  0  0  0  0  0  0  0  0  0  0
   56.9250   33.4990   45.5470 O   0  0  0  0  0  0  0  0  0  0  0  0
   56.4390   31.2040   44.8420 O   0  0  0  0  0  0  0  0  0  0  0  0
   58.8390   31.6610   45.8860 C   0  0  0  0  0  0  0  0  0  0  0  0
   59.8060   32.4470   46.4080 N   0  0  0  0  0  0  0  0  0  0  0  0
   60.6320   31.6220   47.0890 C   0  0  0  0  0  0  0  0  0  0  0  0
   61.8340   32.0780   47.8190 C   0  0  0  0  0  0  0  0  0  0  0  0
   62.7700   32.8950   47.1740 C   0  0  0  0  0  0  0  0  0  0  0  0
   63.9160   33.3260   47.8450 C   0  0  0  0  0  0  0  0  0  0  0  0
   64.1530   32.9310   49.1760 C   0  0  0  0  0  0  0  0  0  0  0  0
   65.2890   33.3440   49.8940 O   0  0  0  0  0  0  0  0  0  0  0  0
   66.4560   32.5560   50.1330 C   0  0  0  0  0  0  0  0  0  0  0  0
   67.6380   33.4410   50.5110 C   0  0  0  0  0  0  0  0  0  0  0  0
   63.2260   32.1010   49.8260 C   0  0  0  0  0  0  0  0  0  0  0  0
   63.4890   31.7200   51.1510 O   0  0  0  0  0  0  0  0  0  0  0  0
   63.5060   32.6130   52.2610 C   0  0  0  0  0  0  0  0  0  0  0  0
   62.0730   31.6710   49.1400 C   0  0  0  0  0  0  0  0  0  0  0  0
   60.1410   30.3310   46.9690 C   0  0  0  0  0  0  0  0  0  0  0  0
   60.5940   29.1330   47.5270 C   0  0  0  0  0  0  0  0  0  0  0  0
   59.8760   27.9640   47.2310 C   0  0  0  0  0  0  0  0  0  0  0  0
   58.7370   28.0180   46.4060 C   0  0  0  0  0  0  0  0  0  0  0  0
   57.7670   26.4250   45.9990 Br  0  0  0  0  0  0  0  0  0  0  0  0
   58.3140   29.2530   45.8920 C   0  0  0  0  0  0  0  0  0  0  0  0
   59.0310   30.3640   46.2090 N   0  0  0  0  0  0  0  0  0  0  0  0
   57.3119   33.4520   40.8658 H   0  0  0  0  0  0  0  0  0  0  0  0
   58.2866   32.0816   40.2344 H   0  0  0  0  0  0  0  0  0  0  0  0
   56.4930   31.9831   40.2344 H   0  0  0  0  0  0  0  0  0  0  0  0
   56.3764   31.4916   42.4747 H   0  0  0  0  0  0  0  0  0  0  0  0
   58.0449   30.8441   42.1226 H   0  0  0  0  0  0  0  0  0  0  0  0
   59.1082   32.6001   43.1775 H   0  0  0  0  0  0  0  0  0  0  0  0
   57.6523   33.6880   43.0196 H   0  0  0  0  0  0  0  0  0  0  0  0
   59.9150   33.4780   46.2940 H   0  0  0  0  0  0  0  0  0  0  0  0
   62.6013   33.1997   46.1306 H   0  0  0  0  0  0  0  0  0  0  0  0
   64.6379   33.9778   47.3312 H   0  0  0  0  0  0  0  0  0  0  0  0
   66.2545   31.8529   50.9546 H   0  0  0  0  0  0  0  0  0  0  0  0
   66.7059   32.0076   49.2128 H   0  0  0  0  0  0  0  0  0  0  0  0
   67.7165   33.4997   51.6066 H   0  0  0  0  0  0  0  0  0  0  0  0
   68.5636   33.0120   50.0996 H   0  0  0  0  0  0  0  0  0  0  0  0
   67.4870   34.4499   50.0996 H   0  0  0  0  0  0  0  0  0  0  0  0
   63.4950   32.0350   53.1968 H   0  0  0  0  0  0  0  0  0  0  0  0
   64.4160   33.2297   52.2216 H   0  0  0  0  0  0  0  0  0  0  0  0
   62.6201   33.2638   52.2216 H   0  0  0  0  0  0  0  0  0  0  0  0
   61.3534   31.0099   49.6450 H   0  0  0  0  0  0  0  0  0  0  0  0
   61.4821   29.1069   48.1755 H   0  0  0  0  0  0  0  0  0  0  0  0
   60.2053   27.0001   47.6462 H   0  0  0  0  0  0  0  0  0  0  0  0
   57.4244   29.3208   45.2485 H   0  0  0  0  0  0  0  0  0  0  0  0
  1  2  1  0
  2  3  1  0
  3  4  1  0
  4  5  2  0
  4  6  2  0
  4  7  1  0
  7  8  2  0
  8  9  1  0
  9 10  1  0
 10 11  2  0
 11 12  1  0
 12 13  2  0
 13 14  1  0
 14 15  1  0
 15 16  1  0
 13 17  1  0
 17 18  1  0
 18 19  1  0
 17 20  2  0
  9 21  2  0
 21 22  1  0
 22 23  2  0
 23 24  1  0
 24 25  1  0
 24 26  2  0
 26 27  1  0
 27  7  1  0
 20 10  1  0
 27 21  1  0
  1 28  1  0
  1 29  1  0
  1 30  1  0
  2 31  1  0
  2 32  1  0
  3 33  1  0
  3 34  1  0
  8 35  1  0
 11 36  1  0
 12 37  1  0
 15 38  1  0
 15 39  1  0
 16 40  1  0
 16 41  1  0
 16 42  1  0
 19 43  1  0
 19 44  1  0
 19 45  1  0
 20 46  1  0
 22 47  1  0
 23 48  1  0
 26 49  1  0
M  CHG  1   8   1
M  END
>  <UniqueID>  (25) 
23

>  <SMILES>  (25) 
CCCS(=O)(=O)c1[nH+]c(-c2ccc(OCC)c(OC)c2)c2ccc(Br)cn12

>  <Energy>  (25) 
83.69641576561925

>  <Genealogy>  (25) 
CCCS(=O)(=O)c1[nH+]c(-c2ccc(OCC)c(OC)c2)c2ccc(Br)cn12 (protonated)
CCCS(=O)(=O)c1[nH+]c(-c2ccc(OCC)c(OC)c2)c2ccc(Br)cn12 (3D coordinates assigned)
CCCS(=O)(=O)c1[nH+]c(-c2ccc(OCC)c(OC)c2)c2ccc(Br)cn12 (optimized conformer: 83.69641576561925 kcal/mol)

>  <smiles>  (25) 
CCCS(=O)(=O)c1nc(-c2ccc(OCC)c(OC)c2)c2ccc(Br)cn12

>  <score_type>  (25) 
oracle

>  <origin>  (25) 
adg

>  <m_score__min__energy>  (25) 
-6.4800000000000004

>  <m_primary>  (25) 
energy

$$$$
25:0
     RDKit          3D

 38 40  0  0  0  0  0  0  0  0999 V2000
   59.7970   23.8220   45.7380 O   0  0  0  0  0  0  0  0  0  0  0  0
   58.6080   24.5100   45.8210 N   0  0  0  0  0  0  0  0  0  0  0  0
   58.6370   25.8050   46.1350 N   0  0  0  0  0  0  0  0  0  0  0  0
   57.5020   26.5420   46.2420 C   0  0  0  0  0  0  0  0  0  0  0  0
   57.6040   27.9310   46.5790 N   0  0  0  0  0  0  0  0  0  0  0  0
   58.8660   28.6630   46.4650 C   0  0  0  0  0  0  0  0  0  0  0  0
   58.7440   29.7770   45.4230 C   0  0  0  0  0  0  0  0  0  0  0  0
   57.4100   30.4170   45.5060 N   0  0  0  0  0  0  0  0  0  0  0  0
   56.5050   29.9600   44.4340 C   0  0  0  0  0  0  0  0  0  0  0  0
   56.9300   30.5120   43.0520 C   0  0  0  0  0  0  0  0  0  0  0  0
   57.8420   31.5940   43.1420 O   0  0  0  0  0  0  0  0  0  0  0  0
   57.4050   32.5150   44.1180 C   0  0  0  0  0  0  0  0  0  0  0  0
   57.4920   31.8970   45.5290 C   0  0  0  0  0  0  0  0  0  0  0  0
   56.2940   25.9600   45.9870 N   0  0  0  0  0  0  0  0  0  0  0  0
   55.1490   26.7290   45.9890 O   0  0  0  0  0  0  0  0  0  0  0  0
   56.2270   24.6330   45.6690 C   0  0  0  0  0  0  0  0  0  0  0  0
   54.9940   24.0030   45.4150 C   0  0  0  0  0  0  0  0  0  0  0  0
   54.9510   22.6440   45.0900 C   0  0  0  0  0  0  0  0  0  0  0  0
   56.1320   21.9020   45.0130 C   0  0  0  0  0  0  0  0  0  0  0  0
   57.3630   22.5150   45.2590 C   0  0  0  0  0  0  0  0  0  0  0  0
   57.4200   23.8810   45.5870 C   0  0  0  0  0  0  0  0  0  0  0  0
   56.7260   28.4950   46.5330 H   0  0  0  0  0  0  0  0  0  0  0  0
   59.1181   29.1049   47.4403 H   0  0  0  0  0  0  0  0  0  0  0  0
   59.6562   27.9653   46.1507 H   0  0  0  0  0  0  0  0  0  0  0  0
   59.5211   30.5332   45.6080 H   0  0  0  0  0  0  0  0  0  0  0  0
   58.8703   29.3433   44.4200 H   0  0  0  0  0  0  0  0  0  0  0  0
   56.5205   28.8607   44.3989 H   0  0  0  0  0  0  0  0  0  0  0  0
   55.4943   30.3331   44.6562 H   0  0  0  0  0  0  0  0  0  0  0  0
   57.4051   29.7002   42.4817 H   0  0  0  0  0  0  0  0  0  0  0  0
   56.0231   30.8877   42.5557 H   0  0  0  0  0  0  0  0  0  0  0  0
   58.0396   33.4126   44.0772 H   0  0  0  0  0  0  0  0  0  0  0  0
   56.3572   32.7785   43.9114 H   0  0  0  0  0  0  0  0  0  0  0  0
   58.4494   32.1903   45.9843 H   0  0  0  0  0  0  0  0  0  0  0  0
   56.6365   32.2704   46.1110 H   0  0  0  0  0  0  0  0  0  0  0  0
   54.0607   24.5823   45.4725 H   0  0  0  0  0  0  0  0  0  0  0  0
   53.9841   22.1574   44.8943 H   0  0  0  0  0  0  0  0  0  0  0  0
   56.0926   20.8327   44.7581 H   0  0  0  0  0  0  0  0  0  0  0  0
   58.2906   21.9271   45.1959 H   0  0  0  0  0  0  0  0  0  0  0  0
  1  2  1  0
  2  3  2  0
  3  4  1  0
  4  5  1  0
  5  6  1  0
  6  7  1  0
  7  8  1  0
  8  9  1  0
  9 10  1  0
 10 11  1  0
 11 12  1  0
 12 13  1  0
  4 14  2  0
 14 15  1  0
 14 16  1  0
 16 17  2  0
 17 18  1  0
 18 19  2  0
 19 20  1  0
 20 21  2  0
 21  2  1  0
 13  8  1  0
 21 16  1  0
  5 22  1  0
  6 23  1  0
  6 24  1  0
  7 25  1  0
  7 26  1  0
  9 27  1  0
  9 28  1  0
 10 29  1  0
 10 30  1  0
 12 31  1  0
 12 32  1  0
 13 33  1  0
 13 34  1  0
 17 35  1  0
 18 36  1  0
 19 37  1  0
 20 38  1  0
M  CHG  4   1  -1   2   1  14   1  15  -1
M  END
>  <UniqueID>  (26) 
24

>  <SMILES>  (26) 
[O-][n+]1nc(NCCN2CCOCC2)[n+]([O-])c2ccccc21

>  <Energy>  (26) 
59.17146854131681

>  <Genealogy>  (26) 
[O-][n+]1nc(NCCN2CCOCC2)[n+]([O-])c2ccccc21 (3D coordinates assigned)
[O-][n+]1nc(NCCN2CCOCC2)[n+]([O-])c2ccccc21 (nonaromatic ring conformer: 59.17146854131681 kcal/mol)

>  <smiles>  (26) 
[O-][n+]1nc(NCCN2CCOCC2)[n+]([O-])c2ccccc21

>  <score_type>  (26) 
oracle

>  <origin>  (26) 
adg

>  <m_score__min__energy>  (26) 
-8.1300000000000008

>  <m_primary>  (26) 
energy

$$$$
26:0
     RDKit          3D

 55 60  0  0  0  0  0  0  0  0999 V2000
   62.5765   23.1233   53.1220 H   0  0  0  0  0  0  0  0  0  0  0  0
   62.2190   24.0350   52.6210 C   0  0  0  0  0  0  0  0  0  0  0  0
   63.1210   25.0450   52.2830 C   0  0  0  0  0  0  0  0  0  0  0  0
   64.1895   24.9270   52.5162 H   0  0  0  0  0  0  0  0  0  0  0  0
   62.6700   26.2060   51.6490 C   0  0  0  0  0  0  0  0  0  0  0  0
   63.3857   26.9996   51.3883 H   0  0  0  0  0  0  0  0  0  0  0  0
   61.3060   26.3660   51.3420 C   0  0  0  0  0  0  0  0  0  0  0  0
   60.8270   27.6000   50.6700 C   0  0  0  0  0  0  0  0  0  0  0  0
   60.7960   28.8180   51.3650 C   0  0  0  0  0  0  0  0  0  0  0  0
   61.1189   28.8581   52.4158 H   0  0  0  0  0  0  0  0  0  0  0  0
   60.3530   29.9890   50.7220 C   0  0  0  0  0  0  0  0  0  0  0  0
   60.3200   31.1440   51.3340 N   0  0  0  0  0  0  0  0  0  0  0  0
   59.1730   31.9500   51.6420 C   0  0  0  0  0  0  0  0  0  0  0  0
   58.0230   31.4820   51.4340 O   0  0  0  0  0  0  0  0  0  0  0  0
   59.3090   33.3730   52.0900 C   0  0  0  0  0  0  0  0  0  0  0  0
   59.3128   33.4126   53.1893 H   0  0  0  0  0  0  0  0  0  0  0  0
   60.2511   33.7902   51.7048 H   0  0  0  0  0  0  0  0  0  0  0  0
   58.4630   33.9611   51.7048 H   0  0  0  0  0  0  0  0  0  0  0  0
   59.8970   29.9050   49.3870 C   0  0  0  0  0  0  0  0  0  0  0  0
   59.9280   28.6590   48.7350 C   0  0  0  0  0  0  0  0  0  0  0  0
   60.3980   27.5560   49.3770 N   0  0  0  0  0  0  0  0  0  0  0  0
   60.4300   26.6560   48.8470 H   0  0  0  0  0  0  0  0  0  0  0  0
   59.4630   28.5330   47.4240 O   0  0  0  0  0  0  0  0  0  0  0  0
   58.8300   29.5760   46.7440 C   0  0  0  0  0  0  0  0  0  0  0  0
   58.7600   30.8550   47.3180 C   0  0  0  0  0  0  0  0  0  0  0  0
   58.0740   31.8660   46.6160 C   0  0  0  0  0  0  0  0  0  0  0  0
   57.9850   33.0290   47.0950 O   0  0  0  0  0  0  0  0  0  0  0  0
   57.5180   31.6120   45.4370 O   0  0  0  0  0  0  0  0  0  0  0  0
   57.5750   30.4170   44.8560 C   0  0  0  0  0  0  0  0  0  0  0  0
   56.9710   30.2220   43.6090 C   0  0  0  0  0  0  0  0  0  0  0  0
   56.4527   31.0562   43.1136 H   0  0  0  0  0  0  0  0  0  0  0  0
   57.0250   28.9700   42.9920 C   0  0  0  0  0  0  0  0  0  0  0  0
   56.5501   28.8209   42.0110 H   0  0  0  0  0  0  0  0  0  0  0  0
   57.6810   27.9060   43.6180 C   0  0  0  0  0  0  0  0  0  0  0  0
   57.7203   26.9216   43.1287 H   0  0  0  0  0  0  0  0  0  0  0  0
   58.2880   28.0900   44.8660 C   0  0  0  0  0  0  0  0  0  0  0  0
   58.8027   27.2505   45.3561 H   0  0  0  0  0  0  0  0  0  0  0  0
   58.2400   29.3470   45.4930 C   0  0  0  0  0  0  0  0  0  0  0  0
   59.4770   31.1540   48.6240 C   0  0  2  0  0  0  0  0  0  0  0  0
   58.7562   31.6843   49.2637 H   0  0  0  0  0  0  0  0  0  0  0  0
   60.6910   32.0220   48.3540 C   0  0  0  0  0  0  0  0  0  0  0  0
   61.7870   31.5070   47.6420 C   0  0  0  0  0  0  0  0  0  0  0  0
   61.7673   30.4664   47.2860 H   0  0  0  0  0  0  0  0  0  0  0  0
   62.9030   32.3090   47.3830 C   0  0  0  0  0  0  0  0  0  0  0  0
   63.7567   31.8977   46.8244 H   0  0  0  0  0  0  0  0  0  0  0  0
   62.9360   33.6310   47.8320 C   0  0  0  0  0  0  0  0  0  0  0  0
   64.0180   34.4070   47.5800 F   0  0  0  0  0  0  0  0  0  0  0  0
   61.8510   34.1540   48.5430 C   0  0  0  0  0  0  0  0  0  0  0  0
   61.8774   35.1950   48.8973 H   0  0  0  0  0  0  0  0  0  0  0  0
   60.7340   33.3570   48.8040 C   0  0  0  0  0  0  0  0  0  0  0  0
   59.8835   33.7734   49.3637 H   0  0  0  0  0  0  0  0  0  0  0  0
   60.4050   25.3400   51.6880 C   0  0  0  0  0  0  0  0  0  0  0  0
   59.3353   25.4509   51.4570 H   0  0  0  0  0  0  0  0  0  0  0  0
   60.8620   24.1820   52.3230 C   0  0  0  0  0  0  0  0  0  0  0  0
   60.1520   23.3849   52.5887 H   0  0  0  0  0  0  0  0  0  0  0  0
  1  2  1  0
  2  3  2  0
  3  4  1  0
  3  5  1  0
  5  6  1  0
  5  7  2  0
  7  8  1  0
  8  9  2  0
  9 10  1  0
  9 11  1  0
 11 12  2  0
 12 13  1  0
 13 14  2  0
 13 15  1  0
 15 16  1  0
 15 17  1  0
 15 18  1  0
 11 19  1  0
 19 20  2  0
 20 21  1  0
 21 22  1  0
 20 23  1  0
 23 24  1  0
 24 25  2  0
 25 26  1  0
 26 27  2  0
 26 28  1  0
 28 29  1  0
 29 30  2  0
 30 31  1  0
 30 32  1  0
 32 33  1  0
 32 34  2  0
 34 35  1  0
 34 36  1  0
 36 37  1  0
 36 38  2  0
 25 39  1  0
 39 40  1  1
 39 41  1  0
 41 42  2  0
 42 43  1  0
 42 44  1  0
 44 45  1  0
 44 46  2  0
 46 47  1  0
 46 48  1  0
 48 49  1  0
 48 50  2  0
 50 51  1  0
  7 52  1  0
 52 53  1  0
 52 54  2  0
 54 55  1  0
 54  2  1  0
 21  8  1  0
 38 24  1  0
 50 41  1  0
 39 19  1  0
 38 29  1  0
M  END
>  <UniqueID>  (27) 
25

>  <SMILES>  (27) 
CC(=O)/N=c1\cc(-c2ccccc2)[nH]c2c1[C@@H](c1ccc(F)cc1)c1c(c3ccccc3oc1=O)O2

>  <Energy>  (27) 
85.74327578982742

>  <Genealogy>  (27) 
CC(=O)N=c1cc(-c2ccccc2)[nH]c2c1[C@@H](c1ccc(F)cc1)c1c(c3ccccc3oc1=O)O2 (chirality)
CC(=O)/N=c1\cc(-c2ccccc2)[nH]c2c1[C@@H](c1ccc(F)cc1)c1c(c3ccccc3oc1=O)O2 (cis-trans isomerization)
CC(=O)/N=c1\cc(-c2ccccc2)[nH]c2c1[C@@H](c1ccc(F)cc1)c1c(c3ccccc3oc1=O)O2 (3D coordinates assigned)
CC(=O)/N=c1\cc(-c2ccccc2)[nH]c2c1[C@@H](c1ccc(F)cc1)c1c(c3ccccc3oc1=O)O2 (nonaromatic ring conformer: 85.74327578982742 kcal/mol)

>  <smiles>  (27) 
CC(=O)N=c1cc(-c2ccccc2)[nH]c2c1C(c1ccc(F)cc1)c1c(c3ccccc3oc1=O)O2

>  <score_type>  (27) 
oracle

>  <origin>  (27) 
adg

>  <m_score__min__energy>  (27) 
-9.2899999999999991

>  <m_primary>  (27) 
energy

$$$$
27:0
     RDKit          3D

 42 45  0  0  0  0  0  0  0  0999 V2000
   62.9937   33.0660   49.6554 H   0  0  0  0  0  0  0  0  0  0  0  0
   62.2880   33.3940   48.8780 C   0  0  0  0  0  0  0  0  0  0  0  0
   61.1740   34.1640   49.2250 C   0  0  0  0  0  0  0  0  0  0  0  0
   61.0043   34.4423   50.2756 H   0  0  0  0  0  0  0  0  0  0  0  0
   60.2750   34.5810   48.2380 C   0  0  0  0  0  0  0  0  0  0  0  0
   59.4011   35.1893   48.5143 H   0  0  0  0  0  0  0  0  0  0  0  0
   60.4840   34.2260   46.8960 C   0  0  0  0  0  0  0  0  0  0  0  0
   59.5240   34.6950   45.8340 C   0  0  0  0  0  0  0  0  0  0  0  0
   59.8518   34.3093   44.8574 H   0  0  0  0  0  0  0  0  0  0  0  0
   59.5152   35.7950   45.8314 H   0  0  0  0  0  0  0  0  0  0  0  0
   58.1520   34.2140   46.1080 N   0  0  0  0  0  0  0  0  0  0  0  0
   58.1590   32.9440   46.8730 C   0  0  0  0  0  0  0  0  0  0  0  0
   57.1752   32.8046   47.3450 H   0  0  0  0  0  0  0  0  0  0  0  0
   58.9512   33.0016   47.6339 H   0  0  0  0  0  0  0  0  0  0  0  0
   58.4430   31.7740   45.9830 C   0  0  0  0  0  0  0  0  0  0  0  0
   58.9290   30.2340   46.4520 S   0  0  0  0  0  0  0  0  0  0  0  0
   58.8540   29.6410   44.8650 C   0  0  0  0  0  0  0  0  0  0  0  0
   59.1810   28.4430   44.4760 N   0  0  0  0  0  0  0  0  0  0  0  0
   58.4570   27.2320   44.7420 C   0  0  0  0  0  0  0  0  0  0  0  0
   57.9760   26.9250   46.0280 C   0  0  0  0  0  0  0  0  0  0  0  0
   58.1832   27.6055   46.8671 H   0  0  0  0  0  0  0  0  0  0  0  0
   57.2360   25.7590   46.2440 C   0  0  0  0  0  0  0  0  0  0  0  0
   56.8765   25.5160   47.2548 H   0  0  0  0  0  0  0  0  0  0  0  0
   56.9520   24.9010   45.1770 C   0  0  0  0  0  0  0  0  0  0  0  0
   56.2330   23.7710   45.3860 F   0  0  0  0  0  0  0  0  0  0  0  0
   57.4000   25.2180   43.8900 C   0  0  0  0  0  0  0  0  0  0  0  0
   57.1707   24.5479   43.0483 H   0  0  0  0  0  0  0  0  0  0  0  0
   58.1380   26.3840   43.6720 C   0  0  0  0  0  0  0  0  0  0  0  0
   58.4708   26.6383   42.6548 H   0  0  0  0  0  0  0  0  0  0  0  0
   58.4660   30.6010   43.9940 N   0  0  0  0  0  0  0  0  0  0  0  0
   58.3730   30.4540   42.9640 H   0  0  0  0  0  0  0  0  0  0  0  0
   58.2120   31.7820   44.6180 C   0  0  0  0  0  0  0  0  0  0  0  0
   57.8000   33.0270   43.8960 C   0  0  0  0  0  0  0  0  0  0  0  0
   56.9864   32.7844   43.1966 H   0  0  0  0  0  0  0  0  0  0  0  0
   58.6715   33.4210   43.3527 H   0  0  0  0  0  0  0  0  0  0  0  0
   57.3090   34.1070   44.8870 C   0  0  0  0  0  0  0  0  0  0  0  0
   56.2819   33.8588   45.1928 H   0  0  0  0  0  0  0  0  0  0  0  0
   57.3651   35.0748   44.3673 H   0  0  0  0  0  0  0  0  0  0  0  0
   61.6080   33.4540   46.5530 C   0  0  0  0  0  0  0  0  0  0  0  0
   61.7821   33.1743   45.5035 H   0  0  0  0  0  0  0  0  0  0  0  0
   62.5050   33.0410   47.5430 C   0  0  0  0  0  0  0  0  0  0  0  0
   63.3832   32.4371   47.2707 H   0  0  0  0  0  0  0  0  0  0  0  0
  1  2  1  0
  2  3  2  0
  3  4  1  0
  3  5  1  0
  5  6  1  0
  5  7  2  0
  7  8  1  0
  8  9  1  0
  8 10  1  0
  8 11  1  0
 11 12  1  0
 12 13  1  0
 12 14  1  0
 12 15  1  0
 15 16  1  0
 16 17  1  0
 17 18  2  0
 18 19  1  0
 19 20  2  0
 20 21  1  0
 20 22  1  0
 22 23  1  0
 22 24  2  0
 24 25  1  0
 24 26  1  0
 26 27  1  0
 26 28  2  0
 28 29  1  0
 17 30  1  0
 30 31  1  0
 30 32  1  0
 32 33  1  0
 33 34  1  0
 33 35  1  0
 33 36  1  0
 36 37  1  0
 36 38  1  0
  7 39  1  0
 39 40  1  0
 39 41  2  0
 41 42  1  0
 41  2  1  0
 36 11  1  0
 32 15  2  0
 28 19  1  0
M  END
>  <UniqueID>  (28) 
26

>  <SMILES>  (28) 
Fc1ccc(/N=c2/[nH]c3c(s2)CN(Cc2ccccc2)CC3)cc1

>  <Energy>  (28) 
88.90849961457877

>  <Genealogy>  (28) 
Fc1ccc(/N=c2/[nH]c3c(s2)CN(Cc2ccccc2)CC3)cc1 (cis-trans isomerization)
Fc1ccc(/N=c2/[nH]c3c(s2)CN(Cc2ccccc2)CC3)cc1 (3D coordinates assigned)
Fc1ccc(/N=c2/[nH]c3c(s2)CN(Cc2ccccc2)CC3)cc1 (nonaromatic ring conformer: 88.90849961457877 kcal/mol)

>  <smiles>  (28) 
Fc1ccc(N=c2[nH]c3c(s2)CN(Cc2ccccc2)CC3)cc1

>  <score_type>  (28) 
oracle

>  <origin>  (28) 
adg

>  <m_score__min__energy>  (28) 
-7.7400000000000002

>  <m_primary>  (28) 
energy

$$$$
28:0
     RDKit          3D

 40 42  0  0  0  0  0  0  0  0999 V2000
   58.0340   26.1470   44.5770 C   0  0  0  0  0  0  0  0  0  0  0  0
   58.0490   27.5520   45.0200 N   0  0  0  0  0  0  0  0  0  0  0  0
   57.7180   28.5530   44.1350 C   0  0  0  0  0  0  0  0  0  0  0  0
   57.3930   28.2920   42.9450 O   0  0  0  0  0  0  0  0  0  0  0  0
   57.7560   29.8690   44.5850 C   0  0  0  0  0  0  0  0  0  0  0  0
   58.1540   30.1450   45.8470 C   0  0  0  0  0  0  0  0  0  0  0  0
   58.1470   31.4710   46.0720 N   0  0  0  0  0  0  0  0  0  0  0  0
   57.7070   31.9810   44.8900 C   0  0  0  0  0  0  0  0  0  0  0  0
   57.5960   33.4360   44.6360 C   0  0  0  0  0  0  0  0  0  0  0  0
   58.4960   34.3520   45.0260 C   0  0  0  0  0  0  0  0  0  0  0  0
   59.4170   34.2080   46.1740 C   0  0  0  0  0  0  0  0  0  0  0  0
   58.9190   34.3630   47.4740 C   0  0  0  0  0  0  0  0  0  0  0  0
   59.7650   34.2140   48.5740 C   0  0  0  0  0  0  0  0  0  0  0  0
   61.1120   33.8960   48.3880 C   0  0  0  0  0  0  0  0  0  0  0  0
   61.6260   33.7060   47.0920 C   0  0  0  0  0  0  0  0  0  0  0  0
   63.0120   33.3700   46.8940 N   0  0  0  0  0  0  0  0  0  0  0  0
   63.7670   34.1360   46.2590 O   0  0  0  0  0  0  0  0  0  0  0  0
   63.5250   32.1930   47.3880 O   0  0  0  0  0  0  0  0  0  0  0  0
   60.7640   33.8470   45.9900 C   0  0  0  0  0  0  0  0  0  0  0  0
   57.4580   31.0220   43.9550 N   0  0  0  0  0  0  0  0  0  0  0  0
   57.0080   31.2000   42.5750 C   0  0  0  0  0  0  0  0  0  0  0  0
   58.5290   29.1750   46.7240 N   0  0  0  0  0  0  0  0  0  0  0  0
   58.9160   29.5160   48.1000 C   0  0  0  0  0  0  0  0  0  0  0  0
   58.4620   27.8640   46.3040 C   0  0  0  0  0  0  0  0  0  0  0  0
   58.7850   26.9390   47.1020 O   0  0  0  0  0  0  0  0  0  0  0  0
   58.0269   25.4855   45.4558 H   0  0  0  0  0  0  0  0  0  0  0  0
   57.1338   25.9628   43.9722 H   0  0  0  0  0  0  0  0  0  0  0  0
   58.9300   25.9436   43.9722 H   0  0  0  0  0  0  0  0  0  0  0  0
   56.7113   33.7918   44.0877 H   0  0  0  0  0  0  0  0  0  0  0  0
   58.5532   35.2845   44.4453 H   0  0  0  0  0  0  0  0  0  0  0  0
   57.8567   34.6032   47.6286 H   0  0  0  0  0  0  0  0  0  0  0  0
   59.3691   34.3476   49.5916 H   0  0  0  0  0  0  0  0  0  0  0  0
   61.7751   33.7934   49.2597 H   0  0  0  0  0  0  0  0  0  0  0  0
   61.1470   33.6732   44.9736 H   0  0  0  0  0  0  0  0  0  0  0  0
   55.9851   31.6046   42.5722 H   0  0  0  0  0  0  0  0  0  0  0  0
   57.6806   31.8998   42.0574 H   0  0  0  0  0  0  0  0  0  0  0  0
   57.0198   30.2295   42.0574 H   0  0  0  0  0  0  0  0  0  0  0  0
   58.2840   28.9591   48.8074 H   0  0  0  0  0  0  0  0  0  0  0  0
   59.9706   29.2482   48.2613 H   0  0  0  0  0  0  0  0  0  0  0  0
   58.7831   30.5960   48.2613 H   0  0  0  0  0  0  0  0  0  0  0  0
  1  2  1  0
  2  3  1  0
  3  4  2  0
  3  5  1  0
  5  6  2  0
  6  7  1  0
  7  8  2  0
  8  9  1  0
  9 10  2  3
 10 11  1  0
 11 12  2  0
 12 13  1  0
 13 14  2  0
 14 15  1  0
 15 16  1  0
 16 17  2  0
 16 18  1  0
 15 19  2  0
  8 20  1  0
 20 21  1  0
  6 22  1  0
 22 23  1  0
 22 24  1  0
 24 25  2  0
 24  2  1  0
 20  5  1  0
 19 11  1  0
  1 26  1  0
  1 27  1  0
  1 28  1  0
  9 29  1  0
 10 30  1  0
 12 31  1  0
 13 32  1  0
 14 33  1  0
 19 34  1  0
 21 35  1  0
 21 36  1  0
 21 37  1  0
 23 38  1  0
 23 39  1  0
 23 40  1  0
M  CHG  2  16   1  18  -1
M  END
>  <UniqueID>  (29) 
27

>  <SMILES>  (29) 
Cn1c(=O)c2c(nc(C=Cc3cccc([N+](=O)[O-])c3)n2C)n(C)c1=O

>  <Energy>  (29) 
96.25214810338485

>  <Genealogy>  (29) 
Cn1c(=O)c2c(nc(C=Cc3cccc([N+](=O)[O-])c3)n2C)n(C)c1=O (3D coordinates assigned)
Cn1c(=O)c2c(nc(C=Cc3cccc([N+](=O)[O-])c3)n2C)n(C)c1=O (optimized conformer: 96.25214810338485 kcal/mol)

>  <smiles>  (29) 
Cn1c(=O)c2c(nc(C=Cc3cccc([N+](=O)[O-])c3)n2C)n(C)c1=O

>  <score_type>  (29) 
oracle

>  <origin>  (29) 
adg

>  <m_score__min__energy>  (29) 
-8.0600000000000005

>  <m_primary>  (29) 
energy

$$$$
29:0
     RDKit          3D

 27 26  0  0  0  0  0  0  0  0999 V2000
   55.5450   26.6530   46.0000 N   0  0  0  0  0  0  0  0  0  0  0  0
   56.9040   26.9020   46.4770 C   0  0  0  0  0  0  0  0  0  0  0  0
   57.9500   26.3550   45.4960 C   0  0  0  0  0  0  0  0  0  0  0  0
   59.0150   27.4140   45.1820 C   0  0  0  0  0  0  0  0  0  0  0  0
   58.9920   28.5810   46.1840 C   0  0  0  0  0  0  0  0  0  0  0  0
   58.4430   29.8840   45.5880 C   0  0  0  0  0  0  0  0  0  0  0  0
   57.0140   29.7570   45.2910 N   0  0  0  0  0  0  0  0  0  0  0  0
   56.4740   29.4150   44.0020 C   0  0  0  0  0  0  0  0  0  0  0  0
   55.1640   29.8740   43.6570 N   0  0  0  0  0  0  0  0  0  0  0  0
   57.1280   28.6570   43.1730 N   0  0  0  0  0  0  0  0  0  0  0  0
   54.9480   26.3690   46.8110 H   0  0  0  0  0  0  0  0  0  0  0  0
   55.1540   27.5430   45.6130 H   0  0  0  0  0  0  0  0  0  0  0  0
   57.0510   27.9863   46.5893 H   0  0  0  0  0  0  0  0  0  0  0  0
   57.0321   26.3892   47.4417 H   0  0  0  0  0  0  0  0  0  0  0  0
   58.4374   25.4759   45.9428 H   0  0  0  0  0  0  0  0  0  0  0  0
   57.4426   26.0795   44.5597 H   0  0  0  0  0  0  0  0  0  0  0  0
   60.0066   26.9390   45.2151 H   0  0  0  0  0  0  0  0  0  0  0  0
   58.7983   27.8232   44.1842 H   0  0  0  0  0  0  0  0  0  0  0  0
   58.3608   28.2950   47.0382 H   0  0  0  0  0  0  0  0  0  0  0  0
   60.0330   28.7735   46.4829 H   0  0  0  0  0  0  0  0  0  0  0  0
   58.5904   30.7011   46.3095 H   0  0  0  0  0  0  0  0  0  0  0  0
   58.9805   30.0985   44.6525 H   0  0  0  0  0  0  0  0  0  0  0  0
   56.3460   30.0790   46.0280 H   0  0  0  0  0  0  0  0  0  0  0  0
   54.6230   30.4750   44.3180 H   0  0  0  0  0  0  0  0  0  0  0  0
   54.7320   29.6260   42.7390 H   0  0  0  0  0  0  0  0  0  0  0  0
   56.8170   27.6760   42.9930 H   0  0  0  0  0  0  0  0  0  0  0  0
   57.9960   28.9760   42.6950 H   0  0  0  0  0  0  0  0  0  0  0  0
  1  2  1  0
  2  3  1  0
  3  4  1  0
  4  5  1  0
  5  6  1  0
  6  7  1  0
  7  8  1  0
  8  9  1  0
  8 10  2  0
  1 11  1  0
  1 12  1  0
  2 13  1  0
  2 14  1  0
  3 15  1  0
  3 16  1  0
  4 17  1  0
  4 18  1  0
  5 19  1  0
  5 20  1  0
  6 21  1  0
  6 22  1  0
  7 23  1  0
  9 24  1  0
  9 25  1  0
 10 26  1  0
 10 27  1  0
M  CHG  1  10   1
M  END
>  <UniqueID>  (30) 
28

>  <SMILES>  (30) 
NCCCCCNC(N)=[NH2+]

>  <Energy>  (30) 
13.178791868464284

>  <Genealogy>  (30) 
NCCCCCNC(N)=[NH2+] (protonated)
NCCCCCNC(N)=[NH2+] (3D coordinates assigned)
NCCCCCNC(N)=[NH2+] (optimized conformer: 13.178791868464284 kcal/mol)

>  <smiles>  (30) 
N=C(N)NCCCCCN

>  <score_type>  (30) 
oracle

>  <origin>  (30) 
adg

>  <m_score__min__energy>  (30) 
-3.3999999999999999

>  <m_primary>  (30) 
energy

$$$$
30:0
     RDKit          3D

 32 34  0  0  0  0  0  0  0  0999 V2000
   56.7060   30.5990   42.6210 C   0  0  0  0  0  0  0  0  0  0  0  0
   55.6570   29.9680   43.5230 C   0  0  0  0  0  0  0  0  0  0  0  0
   56.1170   30.0000   44.8710 O   0  0  0  0  0  0  0  0  0  0  0  0
   57.4610   30.0340   45.2860 C   0  0  0  0  0  0  0  0  0  0  0  0
   58.2050   28.9200   45.1120 C   0  0  0  0  0  0  0  0  0  0  0  0
   57.6310   27.7480   44.4890 N   0  0  0  0  0  0  0  0  0  0  0  0
   58.3220   26.4730   44.7980 C   0  0  0  0  0  0  0  0  0  0  0  0
   58.5020   27.0930   43.4860 C   0  0  0  0  0  0  0  0  0  0  0  0
   59.6630   28.9580   45.4020 C   0  0  0  0  0  0  0  0  0  0  0  0
   60.3990   27.9780   45.1120 O   0  0  0  0  0  0  0  0  0  0  0  0
   60.2640   30.1530   46.0130 C   0  0  0  0  0  0  0  0  0  0  0  0
   59.5220   31.2340   46.2530 C   0  0  0  0  0  0  0  0  0  0  0  0
   60.1210   32.3850   46.8430 N   0  0  0  0  0  0  0  0  0  0  0  0
   60.1230   33.5410   47.7890 C   0  0  0  0  0  0  0  0  0  0  0  0
   61.2360   33.3670   46.9940 C   0  0  0  0  0  0  0  0  0  0  0  0
   58.0890   31.2460   45.8970 C   0  0  0  0  0  0  0  0  0  0  0  0
   57.4160   32.2860   46.1200 O   0  0  0  0  0  0  0  0  0  0  0  0
   57.4861   31.0683   43.2384 H   0  0  0  0  0  0  0  0  0  0  0  0
   57.1583   29.8230   41.9860 H   0  0  0  0  0  0  0  0  0  0  0  0
   56.2324   31.3622   41.9860 H   0  0  0  0  0  0  0  0  0  0  0  0
   54.7156   30.5312   43.4422 H   0  0  0  0  0  0  0  0  0  0  0  0
   55.4848   28.9258   43.2162 H   0  0  0  0  0  0  0  0  0  0  0  0
   56.6040   27.6770   44.3050 H   0  0  0  0  0  0  0  0  0  0  0  0
   59.1538   26.4598   45.5177 H   0  0  0  0  0  0  0  0  0  0  0  0
   57.9999   25.4818   45.1498 H   0  0  0  0  0  0  0  0  0  0  0  0
   59.4692   27.5448   43.2208 H   0  0  0  0  0  0  0  0  0  0  0  0
   58.3709   26.7585   42.4463 H   0  0  0  0  0  0  0  0  0  0  0  0
   61.3327   30.1548   46.2736 H   0  0  0  0  0  0  0  0  0  0  0  0
   59.4528   34.3938   47.6057 H   0  0  0  0  0  0  0  0  0  0  0  0
   59.9681   33.6394   48.8736 H   0  0  0  0  0  0  0  0  0  0  0  0
   61.4423   34.0828   46.1846 H   0  0  0  0  0  0  0  0  0  0  0  0
   62.3126   33.2729   47.1991 H   0  0  0  0  0  0  0  0  0  0  0  0
  1  2  1  0
  2  3  1  0
  3  4  1  0
  4  5  2  0
  5  6  1  0
  6  7  1  0
  7  8  1  0
  5  9  1  0
  9 10  2  0
  9 11  1  0
 11 12  2  0
 12 13  1  0
 13 14  1  0
 14 15  1  0
 12 16  1  0
 16 17  2  0
 16  4  1  0
  8  6  1  0
 15 13  1  0
  1 18  1  0
  1 19  1  0
  1 20  1  0
  2 21  1  0
  2 22  1  0
  6 23  1  0
  7 24  1  0
  7 25  1  0
  8 26  1  0
  8 27  1  0
 11 28  1  0
 14 29  1  0
 14 30  1  0
 15 31  1  0
 15 32  1  0
M  CHG  1   6   1
M  END
>  <UniqueID>  (31) 
29

>  <SMILES>  (31) 
CCOC1=C([NH+]2CC2)C(=O)C=C(N2CC2)C1=O

>  <Energy>  (31) 
606.9810075414914

>  <Genealogy>  (31) 
CCOC1=C([NH+]2CC2)C(=O)C=C(N2CC2)C1=O (protonated)
CCOC1=C([NH+]2CC2)C(=O)C=C(N2CC2)C1=O (3D coordinates assigned)
CCOC1=C([NH+]2CC2)C(=O)C=C(N2CC2)C1=O (nonaromatic ring conformer: 606.9810075414914 kcal/mol)

>  <smiles>  (31) 
CCOC1=C(N2CC2)C(=O)C=C(N2CC2)C1=O

>  <score_type>  (31) 
oracle

>  <origin>  (31) 
adg

>  <m_score__min__energy>  (31) 
-3.9300000000000002

>  <m_primary>  (31) 
energy

$$$$
31:0
     RDKit          3D

 41 44  0  0  0  0  0  0  0  0999 V2000
   57.8560   27.7160   44.9590 C   0  0  0  0  0  0  0  0  0  0  0  0
   57.6380   29.1390   44.7130 N   0  0  0  0  0  0  0  0  0  0  0  0
   56.8470   29.6760   43.7580 C   0  0  0  0  0  0  0  0  0  0  0  0
   56.8720   31.0630   43.8310 C   0  0  0  0  0  0  0  0  0  0  0  0
   57.7200   31.3640   44.8830 C   0  0  0  0  0  0  0  0  0  0  0  0
   58.1160   32.5920   45.4250 C   0  0  0  0  0  0  0  0  0  0  0  0
   58.9820   32.5770   46.5440 C   0  0  0  0  0  0  0  0  0  0  0  0
   59.4610   31.3360   47.0600 C   0  0  0  0  0  0  0  0  0  0  0  0
   60.3690   31.2860   48.1690 N   0  0  0  0  0  0  0  0  0  0  0  0
   61.5980   32.0350   48.2220 C   0  0  0  0  0  0  0  0  0  0  0  0
   62.4750   31.9950   47.1260 C   0  0  0  0  0  0  0  0  0  0  0  0
   63.6770   32.7090   47.1530 C   0  0  0  0  0  0  0  0  0  0  0  0
   64.0130   33.4720   48.2730 C   0  0  0  0  0  0  0  0  0  0  0  0
   63.1460   33.5260   49.3670 C   0  0  0  0  0  0  0  0  0  0  0  0
   61.9430   32.8150   49.3440 C   0  0  0  0  0  0  0  0  0  0  0  0
   59.0320   30.1240   46.4870 C   0  0  0  0  0  0  0  0  0  0  0  0
   58.1630   30.1740   45.3970 C   0  0  0  0  0  0  0  0  0  0  0  0
   59.2760   33.9040   47.2010 C   0  0  0  0  0  0  0  0  0  0  0  0
   59.6420   34.9680   46.1530 C   0  0  0  0  0  0  0  0  0  0  0  0
   58.7640   34.9430   44.8740 C   0  0  0  0  0  0  0  0  0  0  0  0
   57.6190   33.9160   44.9090 C   0  0  0  0  0  0  0  0  0  0  0  0
   57.8843   27.5314   46.0430 H   0  0  0  0  0  0  0  0  0  0  0  0
   57.0362   27.1364   44.5096 H   0  0  0  0  0  0  0  0  0  0  0  0
   58.8117   27.4084   44.5096 H   0  0  0  0  0  0  0  0  0  0  0  0
   56.2653   29.0965   43.0260 H   0  0  0  0  0  0  0  0  0  0  0  0
   56.3314   31.7731   43.1879 H   0  0  0  0  0  0  0  0  0  0  0  0
   60.2000   30.5550   48.8950 H   0  0  0  0  0  0  0  0  0  0  0  0
   62.2145   31.3977   46.2398 H   0  0  0  0  0  0  0  0  0  0  0  0
   64.3588   32.6695   46.2907 H   0  0  0  0  0  0  0  0  0  0  0  0
   64.9604   34.0306   48.2939 H   0  0  0  0  0  0  0  0  0  0  0  0
   63.4106   34.1291   50.2480 H   0  0  0  0  0  0  0  0  0  0  0  0
   61.2618   32.8644   50.2063 H   0  0  0  0  0  0  0  0  0  0  0  0
   59.3743   29.1593   46.8897 H   0  0  0  0  0  0  0  0  0  0  0  0
   58.3858   34.2362   47.7553 H   0  0  0  0  0  0  0  0  0  0  0  0
   60.1291   33.7760   47.8836 H   0  0  0  0  0  0  0  0  0  0  0  0
   59.5402   35.9588   46.6198 H   0  0  0  0  0  0  0  0  0  0  0  0
   60.6700   34.7471   45.8300 H   0  0  0  0  0  0  0  0  0  0  0  0
   58.3255   35.9426   44.7382 H   0  0  0  0  0  0  0  0  0  0  0  0
   59.4247   34.6483   44.0454 H   0  0  0  0  0  0  0  0  0  0  0  0
   56.8208   34.2857   45.5695 H   0  0  0  0  0  0  0  0  0  0  0  0
   57.2323   33.7784   43.8884 H   0  0  0  0  0  0  0  0  0  0  0  0
  1  2  1  0
  2  3  1  0
  3  4  2  0
  4  5  1  0
  5  6  2  0
  6  7  1  0
  7  8  2  0
  8  9  1  0
  9 10  1  0
 10 11  2  0
 11 12  1  0
 12 13  2  0
 13 14  1  0
 14 15  2  0
  8 16  1  0
 16 17  2  0
  7 18  1  0
 18 19  1  0
 19 20  1  0
 20 21  1  0
 17  2  1  0
 17  5  1  0
 21  6  1  0
 15 10  1  0
  1 22  1  0
  1 23  1  0
  1 24  1  0
  3 25  1  0
  4 26  1  0
  9 27  1  0
 11 28  1  0
 12 29  1  0
 13 30  1  0
 14 31  1  0
 15 32  1  0
 16 33  1  0
 18 34  1  0
 18 35  1  0
 19 36  1  0
 19 37  1  0
 20 38  1  0
 20 39  1  0
 21 40  1  0
 21 41  1  0
M  END
>  <UniqueID>  (32) 
30

>  <SMILES>  (32) 
Cn1ccc2c3c(c(Nc4ccccc4)cc21)CCCC3

>  <Energy>  (32) 
89.18429219773891

>  <Genealogy>  (32) 
Cn1ccc2c3c(c(Nc4ccccc4)cc21)CCCC3 (3D coordinates assigned)
Cn1ccc2c3c(c(Nc4ccccc4)cc21)CCCC3 (nonaromatic ring conformer: 89.18429219773891 kcal/mol)

>  <smiles>  (32) 
Cn1ccc2c3c(c(Nc4ccccc4)cc21)CCCC3

>  <score_type>  (32) 
oracle

>  <origin>  (32) 
adg

>  <m_score__min__energy>  (32) 
-7.8899999999999997

>  <m_primary>  (32) 
energy

$$$$
32:0
     RDKit          3D

 43 45  0  0  0  0  0  0  0  0999 V2000
   58.2805   32.1485   42.8265 H   0  0  0  0  0  0  0  0  0  0  0  0
   57.6810   32.0080   43.7380 C   0  0  0  0  0  0  0  0  0  0  0  0
   57.2110   30.6510   44.0790 C   0  0  0  0  0  0  0  0  0  0  0  0
   56.0510   30.4790   44.5450 O   0  0  0  0  0  0  0  0  0  0  0  0
   58.0690   29.5240   43.8350 N   0  0  0  0  0  0  0  0  0  0  0  0
   58.8840   29.6620   43.1960 H   0  0  0  0  0  0  0  0  0  0  0  0
   57.8110   28.1960   44.3210 C   0  0  0  0  0  0  0  0  0  0  0  0
   57.2410   28.0280   45.5910 C   0  0  0  0  0  0  0  0  0  0  0  0
   57.0132   28.9097   46.2081 H   0  0  0  0  0  0  0  0  0  0  0  0
   56.9600   26.7480   46.0790 C   0  0  0  0  0  0  0  0  0  0  0  0
   56.5204   26.6297   47.0804 H   0  0  0  0  0  0  0  0  0  0  0  0
   57.2350   25.6130   45.3000 C   0  0  0  0  0  0  0  0  0  0  0  0
   56.9370   24.2930   45.7930 N   0  0  0  0  0  0  0  0  0  0  0  0
   55.8480   24.0880   46.7570 C   0  0  0  0  0  0  0  0  0  0  0  0
   55.6713   25.0266   47.3027 H   0  0  0  0  0  0  0  0  0  0  0  0
   54.9474   23.7837   46.2035 H   0  0  0  0  0  0  0  0  0  0  0  0
   56.1970   22.9730   47.7720 C   0  0  0  0  0  0  0  0  0  0  0  0
   56.3176   23.4325   48.7641 H   0  0  0  0  0  0  0  0  0  0  0  0
   55.3737   22.2441   47.7430 H   0  0  0  0  0  0  0  0  0  0  0  0
   57.3860   22.2660   47.4590 O   0  0  0  0  0  0  0  0  0  0  0  0
   57.3840   21.8920   46.0980 C   0  0  0  0  0  0  0  0  0  0  0  0
   58.1792   21.1533   45.9193 H   0  0  0  0  0  0  0  0  0  0  0  0
   56.4099   21.4510   45.8398 H   0  0  0  0  0  0  0  0  0  0  0  0
   57.6310   23.1270   45.2310 C   0  0  0  0  0  0  0  0  0  0  0  0
   58.7110   23.3321   45.1914 H   0  0  0  0  0  0  0  0  0  0  0  0
   57.2457   22.9356   44.2186 H   0  0  0  0  0  0  0  0  0  0  0  0
   57.7770   25.7830   44.0150 C   0  0  0  0  0  0  0  0  0  0  0  0
   57.9810   24.9028   43.3875 H   0  0  0  0  0  0  0  0  0  0  0  0
   58.0590   27.0630   43.5280 C   0  0  0  0  0  0  0  0  0  0  0  0
   58.4775   27.1837   42.5179 H   0  0  0  0  0  0  0  0  0  0  0  0
   57.4030   33.0750   44.5000 C   0  0  0  0  0  0  0  0  0  0  0  0
   56.5506   33.7085   44.2136 H   0  0  0  0  0  0  0  0  0  0  0  0
   58.1790   33.4510   45.7080 C   0  0  0  0  0  0  0  0  0  0  0  0
   59.0220   34.5730   45.6430 C   0  0  0  0  0  0  0  0  0  0  0  0
   59.0874   35.1524   44.7102 H   0  0  0  0  0  0  0  0  0  0  0  0
   59.7790   34.9600   46.7540 C   0  0  0  0  0  0  0  0  0  0  0  0
   60.4277   35.8464   46.6951 H   0  0  0  0  0  0  0  0  0  0  0  0
   59.7120   34.2220   47.9380 C   0  0  0  0  0  0  0  0  0  0  0  0
   60.4490   34.5950   49.0130 F   0  0  0  0  0  0  0  0  0  0  0  0
   58.8920   33.0940   48.0110 C   0  0  0  0  0  0  0  0  0  0  0  0
   58.8444   32.5102   48.9421 H   0  0  0  0  0  0  0  0  0  0  0  0
   58.1310   32.7040   46.9040 C   0  0  0  0  0  0  0  0  0  0  0  0
   57.4921   31.8107   46.9662 H   0  0  0  0  0  0  0  0  0  0  0  0
  1  2  1  0
  2  3  1  0
  3  4  2  0
  3  5  1  0
  5  6  1  0
  5  7  1  0
  7  8  2  0
  8  9  1  0
  8 10  1  0
 10 11  1  0
 10 12  2  0
 12 13  1  0
 13 14  1  0
 14 15  1  0
 14 16  1  0
 14 17  1  0
 17 18  1  0
 17 19  1  0
 17 20  1  0
 20 21  1  0
 21 22  1  0
 21 23  1  0
 21 24  1  0
 24 25  1  0
 24 26  1  0
 12 27  1  0
 27 28  1  0
 27 29  2  0
 29 30  1  0
  2 31  2  0
 31 32  1  0
 31 33  1  0
 33 34  2  0
 34 35  1  0
 34 36  1  0
 36 37  1  0
 36 38  2  0
 38 39  1  0
 38 40  1  0
 40 41  1  0
 40 42  2  0
 42 43  1  0
 29  7  1  0
 42 33  1  0
 24 13  1  0
M  END
>  <UniqueID>  (33) 
31

>  <SMILES>  (33) 
O=C(/C=C/c1ccc(F)cc1)Nc1ccc(N2CCOCC2)cc1

>  <Energy>  (33) 
60.21106218490741

>  <Genealogy>  (33) 
O=C(/C=C/c1ccc(F)cc1)Nc1ccc(N2CCOCC2)cc1 (cis-trans isomerization)
O=C(/C=C/c1ccc(F)cc1)Nc1ccc(N2CCOCC2)cc1 (3D coordinates assigned)
O=C(/C=C/c1ccc(F)cc1)Nc1ccc(N2CCOCC2)cc1 (nonaromatic ring conformer: 60.21106218490741 kcal/mol)

>  <smiles>  (33) 
O=C(C=Cc1ccc(F)cc1)Nc1ccc(N2CCOCC2)cc1

>  <score_type>  (33) 
oracle

>  <origin>  (33) 
adg

>  <m_score__min__energy>  (33) 
-8.5199999999999996

>  <m_primary>  (33) 
energy

$$$$
33:0
     RDKit          3D

 32 34  0  0  0  0  0  0  0  0999 V2000
   58.9900   34.9370   45.2730 C   0  0  0  0  0  0  0  0  0  0  0  0
   58.5160   33.7380   44.8250 N   0  0  0  0  0  0  0  0  0  0  0  0
   58.4430   32.6530   45.6480 C   0  0  0  0  0  0  0  0  0  0  0  0
   57.9110   31.4150   45.1610 N   0  0  0  0  0  0  0  0  0  0  0  0
   58.6430   30.1620   45.3560 C   0  0  0  0  0  0  0  0  0  0  0  0
   57.6760   29.0210   45.7370 C   0  0  0  0  0  0  0  0  0  0  0  0
   56.2940   29.2200   45.2550 N   0  0  0  0  0  0  0  0  0  0  0  0
   56.2370   30.0120   44.0190 C   0  0  0  0  0  0  0  0  0  0  0  0
   56.7450   31.4370   44.2730 C   0  0  0  0  0  0  0  0  0  0  0  0
   58.8480   32.7990   46.9800 C   0  0  0  0  0  0  0  0  0  0  0  0
   59.3050   34.0120   47.4100 C   0  0  0  0  0  0  0  0  0  0  0  0
   59.3850   35.0770   46.5710 N   0  0  0  0  0  0  0  0  0  0  0  0
   59.6320   34.0180   48.8520 C   0  0  0  0  0  0  0  0  0  0  0  0
   59.2110   32.6140   49.3280 C   0  0  0  0  0  0  0  0  0  0  0  0
   58.7800   31.8110   48.0840 C   0  0  0  0  0  0  0  0  0  0  0  0
   59.0537   35.7930   44.5851 H   0  0  0  0  0  0  0  0  0  0  0  0
   59.1633   29.8985   44.4233 H   0  0  0  0  0  0  0  0  0  0  0  0
   59.3687   30.2987   46.1713 H   0  0  0  0  0  0  0  0  0  0  0  0
   58.0605   28.0838   45.3082 H   0  0  0  0  0  0  0  0  0  0  0  0
   57.6298   28.9959   46.8357 H   0  0  0  0  0  0  0  0  0  0  0  0
   55.7470   29.7200   45.9960 H   0  0  0  0  0  0  0  0  0  0  0  0
   56.8656   29.5343   43.2531 H   0  0  0  0  0  0  0  0  0  0  0  0
   55.1935   30.0613   43.6747 H   0  0  0  0  0  0  0  0  0  0  0  0
   57.0283   31.8966   43.3146 H   0  0  0  0  0  0  0  0  0  0  0  0
   55.9444   32.0205   44.7510 H   0  0  0  0  0  0  0  0  0  0  0  0
   59.7320   35.9990   46.9170 H   0  0  0  0  0  0  0  0  0  0  0  0
   60.7087   34.1790   49.0094 H   0  0  0  0  0  0  0  0  0  0  0  0
   59.1237   34.8244   49.4010 H   0  0  0  0  0  0  0  0  0  0  0  0
   60.0582   32.1154   49.8216 H   0  0  0  0  0  0  0  0  0  0  0  0
   58.3839   32.6822   50.0500 H   0  0  0  0  0  0  0  0  0  0  0  0
   59.4683   30.9725   47.9017 H   0  0  0  0  0  0  0  0  0  0  0  0
   57.7805   31.3647   48.1927 H   0  0  0  0  0  0  0  0  0  0  0  0
  1  2  2  0
  2  3  1  0
  3  4  1  0
  4  5  1  0
  5  6  1  0
  6  7  1  0
  7  8  1  0
  8  9  1  0
  3 10  2  0
 10 11  1  0
 11 12  2  0
 11 13  1  0
 13 14  1  0
 14 15  1  0
 12  1  1  0
  9  4  1  0
 15 10  1  0
  1 16  1  0
  5 17  1  0
  5 18  1  0
  6 19  1  0
  6 20  1  0
  7 21  1  0
  8 22  1  0
  8 23  1  0
  9 24  1  0
  9 25  1  0
 12 26  1  0
 13 27  1  0
 13 28  1  0
 14 29  1  0
 14 30  1  0
 15 31  1  0
 15 32  1  0
M  CHG  1  12   1
M  END
>  <UniqueID>  (34) 
32

>  <SMILES>  (34) 
c1nc(N2CCNCC2)c2c([nH+]1)CCC2

>  <Energy>  (34) 
49.36591597874071

>  <Genealogy>  (34) 
c1nc(N2CCNCC2)c2c([nH+]1)CCC2 (protonated)
c1nc(N2CCNCC2)c2c([nH+]1)CCC2 (3D coordinates assigned)
c1nc(N2CCNCC2)c2c([nH+]1)CCC2 (nonaromatic ring conformer: 49.36591597874071 kcal/mol)

>  <smiles>  (34) 
c1nc2c(c(N3CCNCC3)n1)CCC2

>  <score_type>  (34) 
oracle

>  <origin>  (34) 
adg

>  <m_score__min__energy>  (34) 
-5.04

>  <m_primary>  (34) 
energy

$$$$
34:0
     RDKit          3D

 32 33  0  0  0  0  0  0  0  0999 V2000
   63.3910   33.4490   47.1210 C   0  0  0  0  0  0  0  0  0  0  0  0
   62.3820   33.8350   48.5840 S   0  0  0  0  0  0  0  0  0  0  0  0
   60.8340   33.7810   47.6800 C   0  0  0  0  0  0  0  0  0  0  0  0
   59.6770   33.2950   48.2990 C   0  0  0  0  0  0  0  0  0  0  0  0
   58.4700   33.2520   47.5950 C   0  0  0  0  0  0  0  0  0  0  0  0
   58.4090   33.7060   46.2670 C   0  0  0  0  0  0  0  0  0  0  0  0
   57.1210   33.6180   45.4950 C   0  0  0  0  0  0  0  0  0  0  0  0
   57.2120   32.5240   44.4810 C   0  0  0  0  0  0  0  0  0  0  0  0
   57.7230   32.7580   43.3530 O   0  0  0  0  0  0  0  0  0  0  0  0
   56.7110   31.2210   44.8040 N   0  0  0  0  0  0  0  0  0  0  0  0
   57.4940   30.0680   45.1490 C   0  0  0  0  0  0  0  0  0  0  0  0
   58.8690   30.1620   45.4360 C   0  0  0  0  0  0  0  0  0  0  0  0
   59.5940   29.0210   45.7930 C   0  0  0  0  0  0  0  0  0  0  0  0
   58.9520   27.7810   45.8800 C   0  0  0  0  0  0  0  0  0  0  0  0
   59.9440   26.2250   46.3710 Br  0  0  0  0  0  0  0  0  0  0  0  0
   57.5820   27.6850   45.6190 C   0  0  0  0  0  0  0  0  0  0  0  0
   56.8550   28.8250   45.2630 C   0  0  0  0  0  0  0  0  0  0  0  0
   55.5240   28.7180   45.0170 F   0  0  0  0  0  0  0  0  0  0  0  0
   59.5750   34.1850   45.6480 C   0  0  0  0  0  0  0  0  0  0  0  0
   60.7800   34.2280   46.3550 C   0  0  0  0  0  0  0  0  0  0  0  0
   64.3736   33.0731   47.4421 H   0  0  0  0  0  0  0  0  0  0  0  0
   62.8839   32.6814   46.5180 H   0  0  0  0  0  0  0  0  0  0  0  0
   63.5257   34.3591   46.5180 H   0  0  0  0  0  0  0  0  0  0  0  0
   59.7173   32.9461   49.3414 H   0  0  0  0  0  0  0  0  0  0  0  0
   57.5648   32.8612   48.0827 H   0  0  0  0  0  0  0  0  0  0  0  0
   56.2937   33.4055   46.1881 H   0  0  0  0  0  0  0  0  0  0  0  0
   56.9390   34.5740   44.9823 H   0  0  0  0  0  0  0  0  0  0  0  0
   59.3750   31.1370   45.3792 H   0  0  0  0  0  0  0  0  0  0  0  0
   60.6705   29.0984   46.0057 H   0  0  0  0  0  0  0  0  0  0  0  0
   57.0754   26.7115   45.6938 H   0  0  0  0  0  0  0  0  0  0  0  0
   59.5399   34.5275   44.6033 H   0  0  0  0  0  0  0  0  0  0  0  0
   61.6880   34.6141   45.8687 H   0  0  0  0  0  0  0  0  0  0  0  0
  1  2  1  0
  2  3  1  0
  3  4  2  0
  4  5  1  0
  5  6  2  0
  6  7  1  0
  7  8  1  0
  8  9  2  0
  8 10  1  0
 10 11  1  0
 11 12  2  0
 12 13  1  0
 13 14  2  0
 14 15  1  0
 14 16  1  0
 16 17  2  0
 17 18  1  0
  6 19  1  0
 19 20  2  0
 20  3  1  0
 17 11  1  0
  1 21  1  0
  1 22  1  0
  1 23  1  0
  4 24  1  0
  5 25  1  0
  7 26  1  0
  7 27  1  0
 12 28  1  0
 13 29  1  0
 16 30  1  0
 19 31  1  0
 20 32  1  0
M  CHG  1  10  -1
M  END
>  <UniqueID>  (35) 
33

>  <SMILES>  (35) 
CSc1ccc(CC(=O)[N-]c2ccc(Br)cc2F)cc1

>  <Energy>  (35) 
29.543808319281098

>  <Genealogy>  (35) 
CSc1ccc(CC(=O)[N-]c2ccc(Br)cc2F)cc1 (protonated)
CSc1ccc(CC(=O)[N-]c2ccc(Br)cc2F)cc1 (3D coordinates assigned)
CSc1ccc(CC(=O)[N-]c2ccc(Br)cc2F)cc1 (optimized conformer: 29.543808319281098 kcal/mol)

>  <smiles>  (35) 
CSc1ccc(CC(=O)Nc2ccc(Br)cc2F)cc1

>  <score_type>  (35) 
oracle

>  <origin>  (35) 
adg

>  <m_score__min__energy>  (35) 
-9.4600000000000009

>  <m_primary>  (35) 
energy

$$$$
35:0
     RDKit          3D

 35 37  0  0  0  0  0  0  0  0999 V2000
   57.1346   27.7238   43.5651 H   0  0  0  0  0  0  0  0  0  0  0  0
   57.2910   28.6040   44.2060 C   0  0  0  0  0  0  0  0  0  0  0  0
   57.2080   29.8880   43.6580 C   0  0  0  0  0  0  0  0  0  0  0  0
   56.9608   30.0149   42.5937 H   0  0  0  0  0  0  0  0  0  0  0  0
   57.4400   31.0200   44.4650 C   0  0  0  0  0  0  0  0  0  0  0  0
   57.3690   32.3330   43.9720 O   0  0  0  0  0  0  0  0  0  0  0  0
   58.3740   33.3340   44.1260 C   0  0  0  0  0  0  0  0  0  0  0  0
   58.4724   33.8941   43.1844 H   0  0  0  0  0  0  0  0  0  0  0  0
   59.3248   32.8428   44.3805 H   0  0  0  0  0  0  0  0  0  0  0  0
   58.0080   34.3010   45.2470 C   0  0  0  0  0  0  0  0  0  0  0  0
   58.1899   33.8205   46.2197 H   0  0  0  0  0  0  0  0  0  0  0  0
   58.6251   35.2079   45.1650 H   0  0  0  0  0  0  0  0  0  0  0  0
   56.9451   34.5721   45.1650 H   0  0  0  0  0  0  0  0  0  0  0  0
   57.7530   30.8390   45.8180 C   0  0  0  0  0  0  0  0  0  0  0  0
   57.9375   31.7154   46.4567 H   0  0  0  0  0  0  0  0  0  0  0  0
   57.8330   29.5550   46.3640 C   0  0  0  0  0  0  0  0  0  0  0  0
   58.1016   29.4258   47.4228 H   0  0  0  0  0  0  0  0  0  0  0  0
   57.5730   28.4340   45.5700 C   0  0  0  0  0  0  0  0  0  0  0  0
   57.7270   27.1220   46.1270 N   0  0  0  0  0  0  0  0  0  0  0  0
   57.2100   25.9950   45.7190 C   0  0  0  0  0  0  0  0  0  0  0  0
   58.0670   24.9900   45.4040 N   0  0  0  0  0  0  0  0  0  0  0  0
   57.6320   23.7900   44.9500 C   0  0  0  0  0  0  0  0  0  0  0  0
   58.5510   22.7850   44.6240 C   0  0  0  0  0  0  0  0  0  0  0  0
   59.6292   22.9670   44.7438 H   0  0  0  0  0  0  0  0  0  0  0  0
   58.1010   21.5520   44.1470 C   0  0  0  0  0  0  0  0  0  0  0  0
   58.8252   20.7645   43.8913 H   0  0  0  0  0  0  0  0  0  0  0  0
   56.7310   21.3170   43.9940 C   0  0  0  0  0  0  0  0  0  0  0  0
   56.3798   20.3448   43.6179 H   0  0  0  0  0  0  0  0  0  0  0  0
   55.8060   22.3150   44.3180 C   0  0  0  0  0  0  0  0  0  0  0  0
   54.7290   22.1266   44.1976 H   0  0  0  0  0  0  0  0  0  0  0  0
   56.2530   23.5600   44.7980 C   0  0  0  0  0  0  0  0  0  0  0  0
   55.3700   24.5910   45.1540 C   0  0  0  0  0  0  0  0  0  0  0  0
   54.1220   24.4190   45.0600 O   0  0  0  0  0  0  0  0  0  0  0  0
   55.8530   25.7820   45.6180 N   0  0  0  0  0  0  0  0  0  0  0  0
   54.9420   26.7130   46.0660 O   0  0  0  0  0  0  0  0  0  0  0  0
  1  2  1  0
  2  3  2  0
  3  4  1  0
  3  5  1  0
  5  6  1  0
  6  7  1  0
  7  8  1  0
  7  9  1  0
  7 10  1  0
 10 11  1  0
 10 12  1  0
 10 13  1  0
  5 14  2  0
 14 15  1  0
 14 16  1  0
 16 17  1  0
 16 18  2  0
 18 19  1  0
 19 20  2  0
 20 21  1  0
 21 22  1  0
 22 23  2  0
 23 24  1  0
 23 25  1  0
 25 26  1  0
 25 27  2  0
 27 28  1  0
 27 29  1  0
 29 30  1  0
 29 31  2  0
 31 32  1  0
 32 33  2  0
 32 34  1  0
 34 35  1  0
 18  2  1  0
 34 20  1  0
 31 22  1  0
M  CHG  2  21  -1  35  -1
M  END
>  <UniqueID>  (36) 
34

>  <SMILES>  (36) 
CCOc1ccc(/N=c2/[n-]c3ccccc3c(=O)n2[O-])cc1

>  <Energy>  (36) 
54.424478089097306

>  <Genealogy>  (36) 
CCOc1ccc(N=c2[n-]c3ccccc3c(=O)n2[O-])cc1 (protonated)
CCOc1ccc(/N=c2/[n-]c3ccccc3c(=O)n2[O-])cc1 (cis-trans isomerization)
CCOc1ccc(/N=c2/[n-]c3ccccc3c(=O)n2[O-])cc1 (3D coordinates assigned)
CCOc1ccc(/N=c2/[n-]c3ccccc3c(=O)n2[O-])cc1 (optimized conformer: 54.424478089097306 kcal/mol)

>  <smiles>  (36) 
CCOc1ccc(N=c2[nH]c3ccccc3c(=O)n2O)cc1

>  <score_type>  (36) 
oracle

>  <origin>  (36) 
adg

>  <m_score__min__energy>  (36) 
-12.32

>  <m_primary>  (36) 
energy

$$$$
36:0
     RDKit          3D

 32 34  0  0  0  0  0  0  0  0999 V2000
   54.6970   24.9420   45.6160 C   0  0  0  0  0  0  0  0  0  0  0  0
   55.1510   26.2380   45.9910 O   0  0  0  0  0  0  0  0  0  0  0  0
   56.4570   26.7090   45.7900 C   0  0  0  0  0  0  0  0  0  0  0  0
   57.5730   25.8500   45.7560 C   0  0  0  0  0  0  0  0  0  0  0  0
   58.8550   26.3690   45.5560 C   0  0  0  0  0  0  0  0  0  0  0  0
   59.0370   27.7440   45.3870 C   0  0  0  0  0  0  0  0  0  0  0  0
   57.9330   28.6080   45.4110 C   0  0  0  0  0  0  0  0  0  0  0  0
   58.1190   30.0280   45.2480 N   0  0  0  0  0  0  0  0  0  0  0  0
   57.6890   30.5820   44.0770 C   0  0  0  0  0  0  0  0  0  0  0  0
   57.8130   31.9450   43.8400 C   0  0  0  0  0  0  0  0  0  0  0  0
   58.3870   32.7660   44.8100 C   0  0  0  0  0  0  0  0  0  0  0  0
   58.5120   34.1450   44.5780 C   0  0  0  0  0  0  0  0  0  0  0  0
   59.0860   34.9720   45.5430 C   0  0  0  0  0  0  0  0  0  0  0  0
   59.5410   34.4320   46.7440 C   0  0  0  0  0  0  0  0  0  0  0  0
   59.4240   33.0620   46.9910 C   0  0  0  0  0  0  0  0  0  0  0  0
   58.8440   32.2020   46.0280 C   0  0  0  0  0  0  0  0  0  0  0  0
   58.7020   30.8010   46.2290 C   0  0  0  0  0  0  0  0  0  0  0  0
   59.2660   30.0940   47.6160 S   0  0  0  0  0  0  0  0  0  0  0  0
   56.6480   28.0860   45.6200 C   0  0  0  0  0  0  0  0  0  0  0  0
   54.4897   24.3503   46.5199 H   0  0  0  0  0  0  0  0  0  0  0  0
   53.7776   25.0340   45.0192 H   0  0  0  0  0  0  0  0  0  0  0  0
   55.4729   24.4402   45.0192 H   0  0  0  0  0  0  0  0  0  0  0  0
   57.4348   24.7667   45.8874 H   0  0  0  0  0  0  0  0  0  0  0  0
   59.7228   25.6935   45.5316 H   0  0  0  0  0  0  0  0  0  0  0  0
   60.0482   28.1494   45.2349 H   0  0  0  0  0  0  0  0  0  0  0  0
   57.2367   29.9383   43.3082 H   0  0  0  0  0  0  0  0  0  0  0  0
   57.4599   32.3750   42.8911 H   0  0  0  0  0  0  0  0  0  0  0  0
   58.1554   34.5752   43.6305 H   0  0  0  0  0  0  0  0  0  0  0  0
   59.1796   36.0519   45.3558 H   0  0  0  0  0  0  0  0  0  0  0  0
   59.9947   35.0878   47.5017 H   0  0  0  0  0  0  0  0  0  0  0  0
   59.7862   32.6475   47.9434 H   0  0  0  0  0  0  0  0  0  0  0  0
   55.7825   28.7642   45.6507 H   0  0  0  0  0  0  0  0  0  0  0  0
  1  2  1  0
  2  3  1  0
  3  4  2  0
  4  5  1  0
  5  6  2  0
  6  7  1  0
  7  8  1  0
  8  9  1  0
  9 10  2  0
 10 11  1  0
 11 12  2  0
 12 13  1  0
 13 14  2  0
 14 15  1  0
 15 16  2  0
 16 17  1  0
 17 18  2  0
  7 19  2  0
 19  3  1  0
 17  8  1  0
 16 11  1  0
  1 20  1  0
  1 21  1  0
  1 22  1  0
  4 23  1  0
  5 24  1  0
  6 25  1  0
  9 26  1  0
 10 27  1  0
 12 28  1  0
 13 29  1  0
 14 30  1  0
 15 31  1  0
 19 32  1  0
M  END
>  <UniqueID>  (37) 
35

>  <SMILES>  (37) 
COc1cccc(-n2ccc3ccccc3c2=S)c1

>  <Energy>  (37) 
51.90403494486793

>  <Genealogy>  (37) 
COc1cccc(-n2ccc3ccccc3c2=S)c1 (3D coordinates assigned)
COc1cccc(-n2ccc3ccccc3c2=S)c1 (optimized conformer: 51.90403494486793 kcal/mol)

>  <smiles>  (37) 
COc1cccc(-n2ccc3ccccc3c2=S)c1

>  <score_type>  (37) 
oracle

>  <origin>  (37) 
adg

>  <m_score__min__energy>  (37) 
-7.4199999999999999

>  <m_primary>  (37) 
energy

$$$$
37:0
     RDKit          3D

 25 26  0  0  0  0  0  0  0  0999 V2000
   58.1270   26.7230   43.3780 C   0  0  0  0  0  0  0  0  0  0  0  0
   58.2010   28.1170   43.9250 C   0  0  0  0  0  0  0  0  0  0  0  0
   59.3860   28.5900   44.4960 C   0  0  0  0  0  0  0  0  0  0  0  0
   59.4290   29.8780   45.0330 C   0  0  0  0  0  0  0  0  0  0  0  0
   58.3200   30.6800   45.0160 N   0  0  0  0  0  0  0  0  0  0  0  0
   58.4130   32.0080   45.5730 C   0  0  0  0  0  0  0  0  0  0  0  0
   58.4070   33.1350   44.7330 C   0  0  0  0  0  0  0  0  0  0  0  0
   58.5060   34.4200   45.2750 C   0  0  0  0  0  0  0  0  0  0  0  0
   58.6150   34.5890   46.6580 C   0  0  0  0  0  0  0  0  0  0  0  0
   58.6270   33.4760   47.5000 C   0  0  0  0  0  0  0  0  0  0  0  0
   58.5290   32.1890   46.9620 C   0  0  0  0  0  0  0  0  0  0  0  0
   57.1400   30.2200   44.4840 C   0  0  0  0  0  0  0  0  0  0  0  0
   56.1040   30.9390   44.4970 O   0  0  0  0  0  0  0  0  0  0  0  0
   57.0670   28.9350   43.9350 C   0  0  0  0  0  0  0  0  0  0  0  0
   58.0888   26.0043   44.2098 H   0  0  0  0  0  0  0  0  0  0  0  0
   57.2220   26.6186   42.7614 H   0  0  0  0  0  0  0  0  0  0  0  0
   59.0158   26.5234   42.7614 H   0  0  0  0  0  0  0  0  0  0  0  0
   60.2805   27.9503   44.5221 H   0  0  0  0  0  0  0  0  0  0  0  0
   60.3643   30.2523   45.4746 H   0  0  0  0  0  0  0  0  0  0  0  0
   58.3240   33.0053   43.6438 H   0  0  0  0  0  0  0  0  0  0  0  0
   58.4981   35.2982   44.6127 H   0  0  0  0  0  0  0  0  0  0  0  0
   58.6914   35.6005   47.0835 H   0  0  0  0  0  0  0  0  0  0  0  0
   58.7137   33.6114   48.5882 H   0  0  0  0  0  0  0  0  0  0  0  0
   58.5428   31.3143   47.6289 H   0  0  0  0  0  0  0  0  0  0  0  0
   56.1197   28.5692   43.5122 H   0  0  0  0  0  0  0  0  0  0  0  0
  1  2  1  0
  2  3  1  0
  3  4  2  0
  4  5  1  0
  5  6  1  0
  6  7  2  0
  7  8  1  0
  8  9  2  0
  9 10  1  0
 10 11  2  0
  5 12  1  0
 12 13  2  0
 12 14  1  0
 14  2  2  0
 11  6  1  0
  1 15  1  0
  1 16  1  0
  1 17  1  0
  3 18  1  0
  4 19  1  0
  7 20  1  0
  8 21  1  0
  9 22  1  0
 10 23  1  0
 11 24  1  0
 14 25  1  0
M  END
>  <UniqueID>  (38) 
36

>  <SMILES>  (38) 
Cc1ccn(-c2ccccc2)c(=O)c1

>  <Energy>  (38) 
33.69419579006269

>  <Genealogy>  (38) 
Cc1ccn(-c2ccccc2)c(=O)c1 (3D coordinates assigned)
Cc1ccn(-c2ccccc2)c(=O)c1 (optimized conformer: 33.69419579006269 kcal/mol)

>  <smiles>  (38) 
Cc1ccn(-c2ccccc2)c(=O)c1

>  <score_type>  (38) 
oracle

>  <origin>  (38) 
adg

>  <m_score__min__energy>  (38) 
-5.9800000000000004

>  <m_primary>  (38) 
energy

$$$$
38:0
     RDKit          3D

 35 38  0  0  0  0  0  0  0  0999 V2000
   66.2220   32.7060   50.2720 C   0  0  0  0  0  0  0  0  0  0  0  0
   64.8170   33.0900   49.9150 C   0  0  0  0  0  0  0  0  0  0  0  0
   64.0270   33.8290   50.8350 C   0  0  0  0  0  0  0  0  0  0  0  0
   62.7210   34.2280   50.4960 C   0  0  0  0  0  0  0  0  0  0  0  0
   62.2480   33.8830   49.2340 C   0  0  0  0  0  0  0  0  0  0  0  0
   61.0580   34.1570   48.6880 N   0  0  0  0  0  0  0  0  0  0  0  0
   61.1290   33.6070   47.4460 C   0  0  0  0  0  0  0  0  0  0  0  0
   60.0350   33.6610   46.4430 C   0  0  0  0  0  0  0  0  0  0  0  0
   59.6400   34.8990   45.9090 C   0  0  0  0  0  0  0  0  0  0  0  0
   58.6180   34.9680   44.9620 C   0  0  0  0  0  0  0  0  0  0  0  0
   57.9770   33.8050   44.5330 C   0  0  0  0  0  0  0  0  0  0  0  0
   58.3520   32.5510   45.0490 C   0  0  0  0  0  0  0  0  0  0  0  0
   57.6670   31.3190   44.5820 C   0  0  0  0  0  0  0  0  0  0  0  0
   57.0240   31.1280   43.3580 C   0  0  0  0  0  0  0  0  0  0  0  0
   56.4730   29.8490   43.2060 C   0  0  0  0  0  0  0  0  0  0  0  0
   56.6730   29.0190   44.2980 C   0  0  0  0  0  0  0  0  0  0  0  0
   57.5390   29.8790   45.4520 S   0  0  0  0  0  0  0  0  0  0  0  0
   59.3880   32.4910   46.0010 C   0  0  0  0  0  0  0  0  0  0  0  0
   62.3240   33.0030   47.1970 N   0  0  0  0  0  0  0  0  0  0  0  0
   63.0050   33.1900   48.3400 C   0  0  0  0  0  0  0  0  0  0  0  0
   64.3010   32.7790   48.6370 C   0  0  0  0  0  0  0  0  0  0  0  0
   66.3274   32.6772   51.3666 H   0  0  0  0  0  0  0  0  0  0  0  0
   66.4478   31.7132   49.8556 H   0  0  0  0  0  0  0  0  0  0  0  0
   66.9214   33.4459   49.8556 H   0  0  0  0  0  0  0  0  0  0  0  0
   64.4393   34.0916   51.8204 H   0  0  0  0  0  0  0  0  0  0  0  0
   62.0962   34.7927   51.2037 H   0  0  0  0  0  0  0  0  0  0  0  0
   60.2780   34.6950   49.1270 H   0  0  0  0  0  0  0  0  0  0  0  0
   60.1404   35.8209   46.2402 H   0  0  0  0  0  0  0  0  0  0  0  0
   58.3162   35.9430   44.5518 H   0  0  0  0  0  0  0  0  0  0  0  0
   57.1724   33.8692   43.7857 H   0  0  0  0  0  0  0  0  0  0  0  0
   56.9563   31.9082   42.5855 H   0  0  0  0  0  0  0  0  0  0  0  0
   55.9311   29.5323   42.3026 H   0  0  0  0  0  0  0  0  0  0  0  0
   56.3256   27.9796   44.3923 H   0  0  0  0  0  0  0  0  0  0  0  0
   59.6964   31.5156   46.4054 H   0  0  0  0  0  0  0  0  0  0  0  0
   64.9047   32.2293   47.8999 H   0  0  0  0  0  0  0  0  0  0  0  0
  1  2  1  0
  2  3  2  0
  3  4  1  0
  4  5  2  0
  5  6  1  0
  6  7  1  0
  7  8  1  0
  8  9  2  0
  9 10  1  0
 10 11  2  0
 11 12  1  0
 12 13  1  0
 13 14  2  0
 14 15  1  0
 15 16  2  0
 16 17  1  0
 12 18  2  0
  7 19  2  0
 19 20  1  0
 20 21  2  0
 21  2  1  0
 20  5  1  0
 18  8  1  0
 17 13  1  0
  1 22  1  0
  1 23  1  0
  1 24  1  0
  3 25  1  0
  4 26  1  0
  6 27  1  0
  9 28  1  0
 10 29  1  0
 11 30  1  0
 14 31  1  0
 15 32  1  0
 16 33  1  0
 18 34  1  0
 21 35  1  0
M  END
>  <UniqueID>  (39) 
37

>  <SMILES>  (39) 
Cc1ccc2[nH]c(-c3cccc(-c4cccs4)c3)nc2c1

>  <Energy>  (39) 
105.08059156358655

>  <Genealogy>  (39) 
Cc1ccc2[nH]c(-c3cccc(-c4cccs4)c3)nc2c1 (3D coordinates assigned)
Cc1ccc2[nH]c(-c3cccc(-c4cccs4)c3)nc2c1 (optimized conformer: 105.08059156358655 kcal/mol)

>  <smiles>  (39) 
Cc1ccc2[nH]c(-c3cccc(-c4cccs4)c3)nc2c1

>  <score_type>  (39) 
oracle

>  <origin>  (39) 
adg

>  <m_score__min__energy>  (39) 
-7.7999999999999998

>  <m_primary>  (39) 
energy

$$$$
39:0
     RDKit          3D

 55 59  0  0  1  0  0  0  0  0999 V2000
   58.1340   21.5360   44.0660 C   0  0  0  0  0  0  0  0  0  0  0  0
   57.4150   22.6380   44.6760 N   0  0  0  0  0  0  0  0  0  0  0  0
   58.0470   23.0500   45.8910 C   0  0  0  0  0  0  0  0  0  0  0  0
   58.9340   24.2630   45.6530 C   0  0  0  0  0  0  0  0  0  0  0  0
   58.0650   25.3550   45.2690 N   0  0  0  0  0  0  0  0  0  0  0  0
   58.1980   26.6810   45.7600 C   0  0  0  0  0  0  0  0  0  0  0  0
   57.8630   27.7880   45.0480 C   0  0  0  0  0  0  0  0  0  0  0  0
   58.0040   29.0670   45.5480 C   0  0  0  0  0  0  0  0  0  0  0  0
   58.5160   29.2480   46.8560 C   0  0  0  0  0  0  0  0  0  0  0  0
   58.5660   30.4690   47.4160 N   0  0  0  0  0  0  0  0  0  0  0  0
   59.2930   31.4460   47.2450 C   0  0  0  0  0  0  0  0  0  0  0  0
   60.4810   31.4740   47.9050 N   0  0  0  0  0  0  0  0  0  0  0  0
   61.3430   32.4800   47.7920 C   0  0  0  0  0  0  0  0  0  0  0  0
   62.5940   32.3980   48.5520 C   0  0  0  0  0  0  0  0  0  0  0  0
   62.7400   31.4950   49.6070 C   0  0  0  0  0  0  0  0  0  0  0  0
   63.9060   31.3970   50.3370 C   0  0  0  0  0  0  0  0  0  0  0  0
   64.9860   32.2030   50.0440 C   0  0  0  0  0  0  0  0  0  0  0  0
   66.4730   32.0940   50.9610 Cl  0  0  0  0  0  0  0  0  0  0  0  0
   64.8720   33.1050   49.0080 C   0  0  0  0  0  0  0  0  0  0  0  0
   63.6890   33.1890   48.2830 C   0  0  0  0  0  0  0  0  0  0  0  0
   61.0340   33.5130   46.9980 N   0  0  0  0  0  0  0  0  0  0  0  0
   59.8660   33.5130   46.3330 C   0  0  0  0  0  0  0  0  0  0  0  0
   59.6050   34.5990   45.5350 C   0  0  0  0  0  0  0  0  0  0  0  0
   58.4120   34.6020   44.8550 C   0  0  0  0  0  0  0  0  0  0  0  0
   57.4760   33.6130   44.9140 C   0  0  0  0  0  0  0  0  0  0  0  0
   57.7670   32.5130   45.7390 C   0  0  0  0  0  0  0  0  0  0  0  0
   58.9410   32.4790   46.4270 C   0  0  0  0  0  0  0  0  0  0  0  0
   58.8700   28.1040   47.6120 C   0  0  0  0  0  0  0  0  0  0  0  0
   58.6980   26.8630   47.0370 C   0  0  0  0  0  0  0  0  0  0  0  0
   57.0020   25.0280   44.3170 C   0  0  0  0  0  0  0  0  0  0  0  0
   57.3310   23.7020   43.6950 C   0  0  0  0  0  0  0  0  0  0  0  0
   58.5541   20.8921   44.8527 H   0  0  0  0  0  0  0  0  0  0  0  0
   57.4444   20.9493   43.4413 H   0  0  0  0  0  0  0  0  0  0  0  0
   58.9488   21.9308   43.4413 H   0  0  0  0  0  0  0  0  0  0  0  0
   57.2743   23.3075   46.6303 H   0  0  0  0  0  0  0  0  0  0  0  0
   58.6711   22.2237   46.2621 H   0  0  0  0  0  0  0  0  0  0  0  0
   59.4782   24.5194   46.5739 H   0  0  0  0  0  0  0  0  0  0  0  0
   59.6765   24.0579   44.8677 H   0  0  0  0  0  0  0  0  0  0  0  0
   57.4629   27.6602   44.0313 H   0  0  0  0  0  0  0  0  0  0  0  0
   57.7215   29.9368   44.9367 H   0  0  0  0  0  0  0  0  0  0  0  0
   61.8956   30.8389   49.8649 H   0  0  0  0  0  0  0  0  0  0  0  0
   63.9751   30.6700   51.1596 H   0  0  0  0  0  0  0  0  0  0  0  0
   65.7189   33.7596   48.7545 H   0  0  0  0  0  0  0  0  0  0  0  0
   63.6247   33.9170   47.4608 H   0  0  0  0  0  0  0  0  0  0  0  0
   61.6960   34.3130   46.8950 H   0  0  0  0  0  0  0  0  0  0  0  0
   60.3199   35.4301   45.4443 H   0  0  0  0  0  0  0  0  0  0  0  0
   58.1952   35.4689   44.2136 H   0  0  0  0  0  0  0  0  0  0  0  0
   56.5376   33.6729   44.3432 H   0  0  0  0  0  0  0  0  0  0  0  0
   57.0497   31.6838   45.8282 H   0  0  0  0  0  0  0  0  0  0  0  0
   59.2717   28.2031   48.6312 H   0  0  0  0  0  0  0  0  0  0  0  0
   58.9720   25.9731   47.6227 H   0  0  0  0  0  0  0  0  0  0  0  0
   56.0370   24.9657   44.8413 H   0  0  0  0  0  0  0  0  0  0  0  0
   56.9281   25.8063   43.5432 H   0  0  0  0  0  0  0  0  0  0  0  0
   56.5470   23.4494   42.9659 H   0  0  0  0  0  0  0  0  0  0  0  0
   58.3154   23.7924   43.2126 H   0  0  0  0  0  0  0  0  0  0  0  0
  1  2  1  0
  2  3  1  0
  3  4  1  0
  4  5  1  0
  5  6  1  0
  6  7  2  0
  7  8  1  0
  8  9  2  0
  9 10  1  0
 10 11  2  0
 11 12  1  0
 12 13  2  0
 13 14  1  0
 14 15  2  0
 15 16  1  0
 16 17  2  0
 17 18  1  0
 17 19  1  0
 19 20  2  0
 13 21  1  0
 21 22  1  0
 22 23  2  0
 23 24  1  0
 24 25  2  0
 25 26  1  0
 26 27  2  0
  9 28  1  0
 28 29  2  0
  5 30  1  0
 30 31  1  0
 31  2  1  0
 29  6  1  0
 27 11  1  0
 20 14  1  0
 27 22  1  0
  1 32  1  0
  1 33  1  0
  1 34  1  0
  3 35  1  0
  3 36  1  0
  4 37  1  0
  4 38  1  0
  7 39  1  0
  8 40  1  0
 15 41  1  0
 16 42  1  0
 19 43  1  0
 20 44  1  0
 21 45  1  0
 23 46  1  0
 24 47  1  0
 25 48  1  0
 26 49  1  0
 28 50  1  0
 29 51  1  0
 30 52  1  0
 30 53  1  0
 31 54  1  0
 31 55  1  0
M  END
>  <smiles>  (40) 
CN1CCN(c2ccc(N=c3nc(-c4ccc(Cl)cc4)[nH]c4ccccc34)cc2)CC1

>  <score_type>  (40) 
oracle

>  <origin>  (40) 
adg

>  <m_score__min__energy>  (40) 
-8.6600000000000001

>  <m_primary>  (40) 
energy

$$$$
40:0
     RDKit          3D

 51 53  0  0  0  0  0  0  0  0999 V2000
   57.4590   21.8080   46.0110 C   0  0  0  0  0  0  0  0  0  0  0  0
   57.7690   23.0360   46.6620 O   0  0  0  0  0  0  0  0  0  0  0  0
   57.9770   24.2540   45.9970 C   0  0  0  0  0  0  0  0  0  0  0  0
   58.6730   25.2650   46.6640 C   0  0  0  0  0  0  0  0  0  0  0  0
   58.9080   26.4950   46.0440 C   0  0  0  0  0  0  0  0  0  0  0  0
   58.4550   26.7410   44.7340 C   0  0  0  0  0  0  0  0  0  0  0  0
   58.7190   28.1040   44.0970 C   0  0  1  0  0  0  0  0  0  0  0  0
   57.4580   28.7800   43.5190 C   0  0  0  0  0  0  0  0  0  0  0  0
   56.7140   29.7070   44.5010 C   0  0  0  0  0  0  0  0  0  0  0  0
   57.6040   30.6250   45.2520 N   0  0  2  0  0  0  0  0  0  0  0  0
   58.1380   31.7390   44.4120 C   0  0  0  0  0  0  0  0  0  0  0  0
   57.8500   33.1740   44.9440 C   0  0  0  0  0  0  0  0  0  0  0  0
   57.3800   33.2460   46.4170 C   0  0  0  0  0  0  0  0  0  0  0  0
   58.5110   33.4690   47.4280 C   0  0  0  0  0  0  0  0  0  0  0  0
   59.3650   34.6770   47.0400 C   0  0  0  0  0  0  0  0  0  0  0  0
   59.9880   34.4900   45.6560 C   0  0  0  0  0  0  0  0  0  0  0  0
   58.9260   34.2320   44.5770 C   0  0  0  0  0  0  0  0  0  0  0  0
   58.6730   29.8780   45.9530 C   0  0  0  0  0  0  0  0  0  0  0  0
   59.5390   29.0410   45.0010 C   0  0  0  0  0  0  0  0  0  0  0  0
   57.7480   25.7210   44.0690 C   0  0  0  0  0  0  0  0  0  0  0  0
   57.5140   24.4910   44.6910 C   0  0  0  0  0  0  0  0  0  0  0  0
   57.2631   21.0321   46.7658 H   0  0  0  0  0  0  0  0  0  0  0  0
   56.5664   21.9415   45.3822 H   0  0  0  0  0  0  0  0  0  0  0  0
   58.3080   21.5018   45.3822 H   0  0  0  0  0  0  0  0  0  0  0  0
   59.0394   25.0913   47.6865 H   0  0  0  0  0  0  0  0  0  0  0  0
   59.4539   27.2810   46.5864 H   0  0  0  0  0  0  0  0  0  0  0  0
   59.3526   27.8895   43.2238 H   0  0  0  0  0  0  0  0  0  0  0  0
   56.7620   27.9902   43.1999 H   0  0  0  0  0  0  0  0  0  0  0  0
   57.8004   29.4173   42.6904 H   0  0  0  0  0  0  0  0  0  0  0  0
   56.1718   29.0810   45.2249 H   0  0  0  0  0  0  0  0  0  0  0  0
   56.0413   30.3357   43.8992 H   0  0  0  0  0  0  0  0  0  0  0  0
   57.0200   31.0270   46.0100 H   0  0  0  0  0  0  0  0  0  0  0  0
   59.2288   31.6165   44.3394 H   0  0  0  0  0  0  0  0  0  0  0  0
   57.6195   31.6646   43.4447 H   0  0  0  0  0  0  0  0  0  0  0  0
   56.9629   33.4733   44.3666 H   0  0  0  0  0  0  0  0  0  0  0  0
   56.6650   34.0767   46.5106 H   0  0  0  0  0  0  0  0  0  0  0  0
   56.9326   32.2694   46.6539 H   0  0  0  0  0  0  0  0  0  0  0  0
   58.0748   33.6419   48.4229 H   0  0  0  0  0  0  0  0  0  0  0  0
   59.1527   32.5756   47.4376 H   0  0  0  0  0  0  0  0  0  0  0  0
   58.7316   35.5763   47.0302 H   0  0  0  0  0  0  0  0  0  0  0  0
   60.1754   34.7825   47.7763 H   0  0  0  0  0  0  0  0  0  0  0  0
   60.5480   35.3995   45.3928 H   0  0  0  0  0  0  0  0  0  0  0  0
   60.6504   33.6128   45.6973 H   0  0  0  0  0  0  0  0  0  0  0  0
   58.4118   35.1826   44.3721 H   0  0  0  0  0  0  0  0  0  0  0  0
   59.4667   33.8272   43.7088 H   0  0  0  0  0  0  0  0  0  0  0  0
   58.2071   29.2046   46.6874 H   0  0  0  0  0  0  0  0  0  0  0  0
   59.3307   30.6165   46.4347 H   0  0  0  0  0  0  0  0  0  0  0  0
   60.2288   28.4305   45.6023 H   0  0  0  0  0  0  0  0  0  0  0  0
   60.0724   29.7433   44.3436 H   0  0  0  0  0  0  0  0  0  0  0  0
   57.3756   25.8939   43.0485 H   0  0  0  0  0  0  0  0  0  0  0  0
   56.9640   23.7035   44.1550 H   0  0  0  0  0  0  0  0  0  0  0  0
  1  2  1  0
  2  3  1  0
  3  4  2  0
  4  5  1  0
  5  6  2  0
  6  7  1  0
  7  8  1  0
  8  9  1  0
  9 10  1  0
 10 11  1  0
 11 12  1  0
 12 13  1  0
 13 14  1  0
 14 15  1  0
 15 16  1  0
 16 17  1  0
 10 18  1  0
 18 19  1  0
  6 20  1  0
 20 21  2  0
 21  3  1  0
 19  7  1  0
 17 12  1  0
  1 22  1  0
  1 23  1  0
  1 24  1  0
  4 25  1  0
  5 26  1  0
  7 27  1  6
  8 28  1  0
  8 29  1  0
  9 30  1  0
  9 31  1  0
 10 32  1  1
 11 33  1  0
 11 34  1  0
 12 35  1  0
 13 36  1  0
 13 37  1  0
 14 38  1  0
 14 39  1  0
 15 40  1  0
 15 41  1  0
 16 42  1  0
 16 43  1  0
 17 44  1  0
 17 45  1  0
 18 46  1  0
 18 47  1  0
 19 48  1  0
 19 49  1  0
 20 50  1  0
 21 51  1  0
M  CHG  1  10   1
M  END
>  <UniqueID>  (41) 
38

>  <SMILES>  (41) 
COc1ccc(C2CC[NH+](CC3CCCCC3)CC2)cc1

>  <Energy>  (41) 
62.0376904937153

>  <Genealogy>  (41) 
COc1ccc(C2CC[NH+](CC3CCCCC3)CC2)cc1 (protonated)
COc1ccc(C2CC[NH+](CC3CCCCC3)CC2)cc1 (3D coordinates assigned)
COc1ccc(C2CC[NH+](CC3CCCCC3)CC2)cc1 (nonaromatic ring conformer: 62.0376904937153 kcal/mol)

>  <smiles>  (41) 
COc1ccc(C2CCN(CC3CCCCC3)CC2)cc1

>  <score_type>  (41) 
oracle

>  <origin>  (41) 
adg

>  <m_score__min__energy>  (41) 
-6.2800000000000002

>  <m_primary>  (41) 
energy

$$$$
41:0
     RDKit          3D

 28 29  0  0  0  0  0  0  0  0999 V2000
   58.3745   29.9368   46.1080 H   0  0  0  0  0  0  0  0  0  0  0  0
   57.7790   30.6990   45.5840 C   0  0  0  0  0  0  0  0  0  0  0  0
   56.6960   30.3270   44.9690 N   0  0  0  0  0  0  0  0  0  0  0  0
   56.6240   29.2810   43.9510 C   0  0  0  0  0  0  0  0  0  0  0  0
   55.8444   28.5554   44.2262 H   0  0  0  0  0  0  0  0  0  0  0  0
   57.5956   28.7697   43.8833 H   0  0  0  0  0  0  0  0  0  0  0  0
   56.2850   29.9020   42.6040 C   0  0  0  0  0  0  0  0  0  0  0  0
   55.7634   30.8575   42.7616 H   0  0  0  0  0  0  0  0  0  0  0  0
   57.2116   30.0791   42.0383 H   0  0  0  0  0  0  0  0  0  0  0  0
   55.6349   29.2184   42.0383 H   0  0  0  0  0  0  0  0  0  0  0  0
   58.2440   32.0970   45.6100 C   0  0  0  0  0  0  0  0  0  0  0  0
   58.3640   32.9860   44.5390 C   0  0  0  0  0  0  0  0  0  0  0  0
   58.0350   32.7050   43.1060 C   0  0  0  0  0  0  0  0  0  0  0  0
   57.1995   31.9914   43.0548 H   0  0  0  0  0  0  0  0  0  0  0  0
   57.7486   33.6415   42.6051 H   0  0  0  0  0  0  0  0  0  0  0  0
   58.9152   32.2756   42.6051 H   0  0  0  0  0  0  0  0  0  0  0  0
   58.8800   34.1660   44.9570 N   0  0  0  0  0  0  0  0  0  0  0  0
   59.0840   35.0070   44.3720 H   0  0  0  0  0  0  0  0  0  0  0  0
   59.1050   34.0230   46.2750 C   0  0  0  0  0  0  0  0  0  0  0  0
   59.6480   34.9660   47.1460 C   0  0  0  0  0  0  0  0  0  0  0  0
   59.9401   35.9650   46.7900 H   0  0  0  0  0  0  0  0  0  0  0  0
   59.8110   34.6000   48.4960 C   0  0  0  0  0  0  0  0  0  0  0  0
   60.2348   35.3206   49.2109 H   0  0  0  0  0  0  0  0  0  0  0  0
   59.4330   33.3120   48.9370 C   0  0  0  0  0  0  0  0  0  0  0  0
   59.5646   33.0369   49.9939 H   0  0  0  0  0  0  0  0  0  0  0  0
   58.8900   32.3790   48.0360 C   0  0  0  0  0  0  0  0  0  0  0  0
   58.5937   31.3731   48.3683 H   0  0  0  0  0  0  0  0  0  0  0  0
   58.7400   32.7730   46.7060 C   0  0  0  0  0  0  0  0  0  0  0  0
  1  2  1  0
  2  3  2  0
  3  4  1  0
  4  5  1  0
  4  6  1  0
  4  7  1  0
  7  8  1  0
  7  9  1  0
  7 10  1  0
  2 11  1  0
 11 12  2  0
 12 13  1  0
 13 14  1  0
 13 15  1  0
 13 16  1  0
 12 17  1  0
 17 18  1  0
 17 19  1  0
 19 20  2  0
 20 21  1  0
 20 22  1  0
 22 23  1  0
 22 24  2  0
 24 25  1  0
 24 26  1  0
 26 27  1  0
 26 28  2  0
 28 11  1  0
 28 19  1  0
M  END
>  <UniqueID>  (42) 
39

>  <SMILES>  (42) 
CC/N=C\c1c(C)[nH]c2ccccc12

>  <Energy>  (42) 
63.39583465305193

>  <Genealogy>  (42) 
CC/N=C\c1c(C)[nH]c2ccccc12 (cis-trans isomerization)
CC/N=C\c1c(C)[nH]c2ccccc12 (3D coordinates assigned)
CC/N=C\c1c(C)[nH]c2ccccc12 (optimized conformer: 63.39583465305193 kcal/mol)

>  <smiles>  (42) 
CCN=Cc1c(C)[nH]c2ccccc12

>  <score_type>  (42) 
oracle

>  <origin>  (42) 
adg

>  <m_score__min__energy>  (42) 
-5.7800000000000002

>  <m_primary>  (42) 
energy

$$$$
42:0
     RDKit          3D

 43 47  0  0  0  0  0  0  0  0999 V2000
   57.6870   21.3600   45.1450 C   0  0  0  0  0  0  0  0  0  0  0  0
   58.4340   22.4060   45.8360 N   0  0  0  0  0  0  0  0  0  0  0  0
   58.0560   23.7950   45.8180 C   0  0  0  0  0  0  0  0  0  0  0  0
   56.6890   24.1400   45.9430 C   0  0  0  0  0  0  0  0  0  0  0  0
   56.2800   25.4830   45.9300 C   0  0  0  0  0  0  0  0  0  0  0  0
   57.2440   26.4810   45.7930 C   0  0  0  0  0  0  0  0  0  0  0  0
   57.0070   27.8600   45.7610 C   0  0  0  0  0  0  0  0  0  0  0  0
   58.1810   28.6080   45.6070 C   0  0  0  0  0  0  0  0  0  0  0  0
   58.2650   30.0890   45.5600 C   0  0  0  0  0  0  0  0  0  0  0  0
   59.3220   30.7540   46.2070 C   0  0  0  0  0  0  0  0  0  0  0  0
   59.4390   32.1740   46.2160 C   0  0  0  0  0  0  0  0  0  0  0  0
   58.4710   32.8940   45.4460 C   0  0  0  0  0  0  0  0  0  0  0  0
   57.4180   32.2190   44.8030 C   0  0  0  0  0  0  0  0  0  0  0  0
   57.3070   30.8380   44.8690 C   0  0  0  0  0  0  0  0  0  0  0  0
   56.2510   30.2400   44.2620 F   0  0  0  0  0  0  0  0  0  0  0  0
   58.5780   34.2870   45.3180 C   0  0  0  0  0  0  0  0  0  0  0  0
   57.7410   34.9470   44.6430 O   0  0  0  0  0  0  0  0  0  0  0  0
   59.6230   34.9510   45.9290 C   0  0  0  0  0  0  0  0  0  0  0  0
   59.7520   36.2960   45.7970 F   0  0  0  0  0  0  0  0  0  0  0  0
   60.5330   34.2440   46.7010 C   0  0  0  0  0  0  0  0  0  0  0  0
   60.4420   32.8860   46.8940 N   0  0  0  0  0  0  0  0  0  0  0  0
   61.4520   32.4150   47.8970 C   0  0  0  0  0  0  0  0  0  0  0  0
   62.6420   31.5910   47.4470 C   0  0  0  0  0  0  0  0  0  0  0  0
   62.8200   33.0640   47.8680 C   0  0  0  0  0  0  0  0  0  0  0  0
   59.4970   27.5410   45.5190 S   0  0  0  0  0  0  0  0  0  0  0  0
   58.5820   26.1440   45.6700 C   0  0  0  0  0  0  0  0  0  0  0  0
   59.0170   24.8220   45.6780 C   0  0  0  0  0  0  0  0  0  0  0  0
   57.2139   20.6976   45.8848 H   0  0  0  0  0  0  0  0  0  0  0  0
   56.9111   21.8190   44.5147 H   0  0  0  0  0  0  0  0  0  0  0  0
   58.3729   20.7750   44.5147 H   0  0  0  0  0  0  0  0  0  0  0  0
   59.2860   22.1220   46.3700 H   0  0  0  0  0  0  0  0  0  0  0  0
   55.9367   23.3449   46.0518 H   0  0  0  0  0  0  0  0  0  0  0  0
   55.2157   25.7438   46.0264 H   0  0  0  0  0  0  0  0  0  0  0  0
   56.0062   28.3082   45.8475 H   0  0  0  0  0  0  0  0  0  0  0  0
   60.0863   30.1560   46.7250 H   0  0  0  0  0  0  0  0  0  0  0  0
   56.6703   32.7956   44.2386 H   0  0  0  0  0  0  0  0  0  0  0  0
   61.3597   34.7913   47.1774 H   0  0  0  0  0  0  0  0  0  0  0  0
   60.6704   32.2617   48.6557 H   0  0  0  0  0  0  0  0  0  0  0  0
   63.0278   30.7838   48.0869 H   0  0  0  0  0  0  0  0  0  0  0  0
   62.8893   30.9980   46.5541 H   0  0  0  0  0  0  0  0  0  0  0  0
   63.3336   33.3105   48.8090 H   0  0  0  0  0  0  0  0  0  0  0  0
   63.2480   33.9634   47.4013 H   0  0  0  0  0  0  0  0  0  0  0  0
   60.0857   24.5816   45.5775 H   0  0  0  0  0  0  0  0  0  0  0  0
  1  2  1  0
  2  3  1  0
  3  4  2  0
  4  5  1  0
  5  6  2  0
  6  7  1  0
  7  8  2  0
  8  9  1  0
  9 10  2  0
 10 11  1  0
 11 12  2  0
 12 13  1  0
 13 14  2  0
 14 15  1  0
 12 16  1  0
 16 17  2  0
 16 18  1  0
 18 19  1  0
 18 20  2  0
 20 21  1  0
 21 22  1  0
 22 23  1  0
 23 24  1  0
  8 25  1  0
 25 26  1  0
 26 27  2  0
 27  3  1  0
 26  6  1  0
 14  9  1  0
 24 22  1  0
 21 11  1  0
  1 28  1  0
  1 29  1  0
  1 30  1  0
  2 31  1  0
  4 32  1  0
  5 33  1  0
  7 34  1  0
 10 35  1  0
 13 36  1  0
 20 37  1  0
 22 38  1  0
 23 39  1  0
 23 40  1  0
 24 41  1  0
 24 42  1  0
 27 43  1  0
M  END
>  <UniqueID>  (43) 
40

>  <SMILES>  (43) 
CNc1ccc2cc(-c3cc4c(cc3F)c(=O)c(F)cn4C3CC3)sc2c1

>  <Energy>  (43) 
379.49618235744606

>  <Genealogy>  (43) 
CNc1ccc2cc(-c3cc4c(cc3F)c(=O)c(F)cn4C3CC3)sc2c1 (3D coordinates assigned)
CNc1ccc2cc(-c3cc4c(cc3F)c(=O)c(F)cn4C3CC3)sc2c1 (nonaromatic ring conformer: 379.49618235744606 kcal/mol)

>  <smiles>  (43) 
CNc1ccc2cc(-c3cc4c(cc3F)c(=O)c(F)cn4C3CC3)sc2c1

>  <score_type>  (43) 
oracle

>  <origin>  (43) 
adg

>  <m_score__min__energy>  (43) 
-8.1899999999999995

>  <m_primary>  (43) 
energy

$$$$
43:0
     RDKit          3D

 42 44  0  0  0  0  0  0  0  0999 V2000
   63.1910   33.6330   47.3140 C   0  0  0  0  0  0  0  0  0  0  0  0
   62.5860   33.0060   48.5660 C   0  0  0  0  0  0  0  0  0  0  0  0
   61.2990   32.3680   48.2550 N   0  0  0  0  0  0  0  0  0  0  0  0
   60.1350   32.6370   49.1160 C   0  0  0  0  0  0  0  0  0  0  0  0
   59.9620   34.1350   49.3550 C   0  0  0  0  0  0  0  0  0  0  0  0
   61.2160   31.4320   47.1560 C   0  0  0  0  0  0  0  0  0  0  0  0
   62.2580   30.8490   46.7520 O   0  0  0  0  0  0  0  0  0  0  0  0
   59.9370   31.1740   46.4580 C   0  0  0  0  0  0  0  0  0  0  0  0
   59.5280   29.8450   46.2880 C   0  0  0  0  0  0  0  0  0  0  0  0
   58.3030   29.5530   45.6670 C   0  0  0  0  0  0  0  0  0  0  0  0
   57.8570   28.1510   45.4750 C   0  0  0  0  0  0  0  0  0  0  0  0
   58.2090   27.4300   44.3210 C   0  0  0  0  0  0  0  0  0  0  0  0
   57.7740   26.1110   44.1720 C   0  0  0  0  0  0  0  0  0  0  0  0
   56.9950   25.5190   45.1670 C   0  0  0  0  0  0  0  0  0  0  0  0
   56.6620   26.2600   46.3010 C   0  0  0  0  0  0  0  0  0  0  0  0
   57.0950   27.5420   46.4290 N   0  0  0  0  0  0  0  0  0  0  0  0
   57.5150   30.5780   45.2420 N   0  0  0  0  0  0  0  0  0  0  0  0
   57.8700   31.8810   45.3890 C   0  0  0  0  0  0  0  0  0  0  0  0
   57.0140   32.8850   44.9210 C   0  0  0  0  0  0  0  0  0  0  0  0
   57.3740   34.2280   45.0470 C   0  0  0  0  0  0  0  0  0  0  0  0
   58.5930   34.5740   45.6350 C   0  0  0  0  0  0  0  0  0  0  0  0
   59.4540   33.5810   46.1070 C   0  0  0  0  0  0  0  0  0  0  0  0
   59.1000   32.2200   46.0030 C   0  0  0  0  0  0  0  0  0  0  0  0
   63.9275   34.3963   47.6054 H   0  0  0  0  0  0  0  0  0  0  0  0
   63.6872   32.8538   46.7168 H   0  0  0  0  0  0  0  0  0  0  0  0
   62.3946   34.1011   46.7168 H   0  0  0  0  0  0  0  0  0  0  0  0
   63.2786   32.2486   48.9618 H   0  0  0  0  0  0  0  0  0  0  0  0
   62.4188   33.7961   49.3128 H   0  0  0  0  0  0  0  0  0  0  0  0
   59.2300   32.2440   48.6296 H   0  0  0  0  0  0  0  0  0  0  0  0
   60.2973   32.1450   50.0864 H   0  0  0  0  0  0  0  0  0  0  0  0
   59.9391   34.3335   50.4367 H   0  0  0  0  0  0  0  0  0  0  0  0
   60.8034   34.6784   48.9002 H   0  0  0  0  0  0  0  0  0  0  0  0
   59.0189   34.4724   48.9002 H   0  0  0  0  0  0  0  0  0  0  0  0
   60.1702   29.0255   46.6430 H   0  0  0  0  0  0  0  0  0  0  0  0
   58.8234   27.9016   43.5399 H   0  0  0  0  0  0  0  0  0  0  0  0
   58.0451   25.5399   43.2718 H   0  0  0  0  0  0  0  0  0  0  0  0
   56.6478   24.4809   45.0585 H   0  0  0  0  0  0  0  0  0  0  0  0
   56.0480   25.8061   47.0928 H   0  0  0  0  0  0  0  0  0  0  0  0
   56.0558   32.6152   44.4530 H   0  0  0  0  0  0  0  0  0  0  0  0
   56.6969   35.0147   44.6828 H   0  0  0  0  0  0  0  0  0  0  0  0
   58.8759   35.6331   45.7266 H   0  0  0  0  0  0  0  0  0  0  0  0
   60.4147   33.8624   46.5629 H   0  0  0  0  0  0  0  0  0  0  0  0
  1  2  1  0
  2  3  1  0
  3  4  1  0
  4  5  1  0
  3  6  1  0
  6  7  2  0
  6  8  1  0
  8  9  2  0
  9 10  1  0
 10 11  1  0
 11 12  2  0
 12 13  1  0
 13 14  2  0
 14 15  1  0
 15 16  2  0
 10 17  2  0
 17 18  1  0
 18 19  2  0
 19 20  1  0
 20 21  2  0
 21 22  1  0
 22 23  2  0
 23  8  1  0
 16 11  1  0
 23 18  1  0
  1 24  1  0
  1 25  1  0
  1 26  1  0
  2 27  1  0
  2 28  1  0
  4 29  1  0
  4 30  1  0
  5 31  1  0
  5 32  1  0
  5 33  1  0
  9 34  1  0
 12 35  1  0
 13 36  1  0
 14 37  1  0
 15 38  1  0
 19 39  1  0
 20 40  1  0
 21 41  1  0
 22 42  1  0
M  END
>  <UniqueID>  (44) 
41

>  <SMILES>  (44) 
CCN(CC)C(=O)c1cc(-c2ccccn2)nc2ccccc12

>  <Energy>  (44) 
50.490319054972844

>  <Genealogy>  (44) 
CCN(CC)C(=O)c1cc(-c2ccccn2)nc2ccccc12 (3D coordinates assigned)
CCN(CC)C(=O)c1cc(-c2ccccn2)nc2ccccc12 (optimized conformer: 50.490319054972844 kcal/mol)

>  <smiles>  (44) 
CCN(CC)C(=O)c1cc(-c2ccccn2)nc2ccccc12

>  <score_type>  (44) 
oracle

>  <origin>  (44) 
adg

>  <m_score__min__energy>  (44) 
-7.2400000000000002

>  <m_primary>  (44) 
energy

$$$$
44:0
     RDKit          3D

 51 54  0  0  0  0  0  0  0  0999 V2000
   63.4690   32.8930   47.1410 C   0  0  0  0  0  0  0  0  0  0  0  0
   62.6740   33.9400   47.6830 O   0  0  0  0  0  0  0  0  0  0  0  0
   61.9000   33.8300   48.8500 C   0  0  0  0  0  0  0  0  0  0  0  0
   62.4610   33.9810   50.1340 C   0  0  0  0  0  0  0  0  0  0  0  0
   61.6640   33.8420   51.2730 C   0  0  0  0  0  0  0  0  0  0  0  0
   60.3050   33.5500   51.1470 C   0  0  0  0  0  0  0  0  0  0  0  0
   59.7370   33.4010   49.8800 C   0  0  0  0  0  0  0  0  0  0  0  0
   60.5260   33.5460   48.7300 C   0  0  0  0  0  0  0  0  0  0  0  0
   59.9260   33.3990   47.4360 N   0  0  0  0  0  0  0  0  0  0  0  0
   59.9850   34.4990   46.4720 C   0  0  0  0  0  0  0  0  0  0  0  0
   59.5040   34.0320   45.0930 C   0  0  0  0  0  0  0  0  0  0  0  0
   58.1480   33.4290   45.1510 N   0  0  0  0  0  0  0  0  0  0  0  0
   57.8150   32.7200   43.8940 C   0  0  0  0  0  0  0  0  0  0  0  0
   56.8150   31.5790   44.1270 C   0  0  0  0  0  0  0  0  0  0  0  0
   57.5250   30.3490   44.5170 N   0  0  0  0  0  0  0  0  0  0  0  0
   58.8870   30.3080   44.4030 C   0  0  0  0  0  0  0  0  0  0  0  0
   59.5800   29.2030   44.7770 N   0  0  0  0  0  0  0  0  0  0  0  0
   58.9500   28.1140   45.2810 C   0  0  0  0  0  0  0  0  0  0  0  0
   59.6920   26.9880   45.6570 C   0  0  0  0  0  0  0  0  0  0  0  0
   59.0430   25.8660   46.1820 C   0  0  0  0  0  0  0  0  0  0  0  0
   57.6530   25.8650   46.3330 C   0  0  0  0  0  0  0  0  0  0  0  0
   56.7740   24.3300   47.0530 Br  0  0  0  0  0  0  0  0  0  0  0  0
   56.9050   26.9880   45.9600 C   0  0  0  0  0  0  0  0  0  0  0  0
   57.5500   28.1210   45.4290 C   0  0  0  0  0  0  0  0  0  0  0  0
   56.8460   29.2750   45.0380 C   0  0  0  0  0  0  0  0  0  0  0  0
   55.5900   29.3210   45.1720 O   0  0  0  0  0  0  0  0  0  0  0  0
   57.9080   32.5600   46.3390 C   0  0  0  0  0  0  0  0  0  0  0  0
   59.1860   32.1830   47.0990 C   0  0  0  0  0  0  0  0  0  0  0  0
   63.9131   32.3082   47.9600 H   0  0  0  0  0  0  0  0  0  0  0  0
   62.8392   32.2373   46.5218 H   0  0  0  0  0  0  0  0  0  0  0  0
   64.2698   33.3236   46.5218 H   0  0  0  0  0  0  0  0  0  0  0  0
   63.5318   34.2094   50.2399 H   0  0  0  0  0  0  0  0  0  0  0  0
   62.1087   33.9630   52.2718 H   0  0  0  0  0  0  0  0  0  0  0  0
   59.6812   33.4372   52.0460 H   0  0  0  0  0  0  0  0  0  0  0  0
   58.6661   33.1689   49.7838 H   0  0  0  0  0  0  0  0  0  0  0  0
   59.3418   35.3205   46.8205 H   0  0  0  0  0  0  0  0  0  0  0  0
   61.0267   34.8422   46.3876 H   0  0  0  0  0  0  0  0  0  0  0  0
   59.4791   34.8970   44.4140 H   0  0  0  0  0  0  0  0  0  0  0  0
   60.2026   33.2626   44.7323 H   0  0  0  0  0  0  0  0  0  0  0  0
   57.3759   33.4385   43.1862 H   0  0  0  0  0  0  0  0  0  0  0  0
   58.7419   32.2839   43.4932 H   0  0  0  0  0  0  0  0  0  0  0  0
   56.1180   31.8653   44.9284 H   0  0  0  0  0  0  0  0  0  0  0  0
   56.2613   31.3924   43.1950 H   0  0  0  0  0  0  0  0  0  0  0  0
   59.4264   31.1797   44.0040 H   0  0  0  0  0  0  0  0  0  0  0  0
   60.7857   26.9858   45.5395 H   0  0  0  0  0  0  0  0  0  0  0  0
   59.6275   24.9820   46.4769 H   0  0  0  0  0  0  0  0  0  0  0  0
   55.8118   26.9851   46.0820 H   0  0  0  0  0  0  0  0  0  0  0  0
   57.2386   33.0939   47.0296 H   0  0  0  0  0  0  0  0  0  0  0  0
   57.4686   31.6228   45.9667 H   0  0  0  0  0  0  0  0  0  0  0  0
   58.9198   31.6474   48.0222 H   0  0  0  0  0  0  0  0  0  0  0  0
   59.8116   31.5345   46.4680 H   0  0  0  0  0  0  0  0  0  0  0  0
  1  2  1  0
  2  3  1  0
  3  4  2  0
  4  5  1  0
  5  6  2  0
  6  7  1  0
  7  8  2  0
  8  9  1  0
  9 10  1  0
 10 11  1  0
 11 12  1  0
 12 13  1  0
 13 14  1  0
 14 15  1  0
 15 16  1  0
 16 17  2  0
 17 18  1  0
 18 19  2  0
 19 20  1  0
 20 21  2  0
 21 22  1  0
 21 23  1  0
 23 24  2  0
 24 25  1  0
 25 26  2  0
 12 27  1  0
 27 28  1  0
  8  3  1  0
 28  9  1  0
 25 15  1  0
 24 18  1  0
  1 29  1  0
  1 30  1  0
  1 31  1  0
  4 32  1  0
  5 33  1  0
  6 34  1  0
  7 35  1  0
 10 36  1  0
 10 37  1  0
 11 38  1  0
 11 39  1  0
 13 40  1  0
 13 41  1  0
 14 42  1  0
 14 43  1  0
 16 44  1  0
 19 45  1  0
 20 46  1  0
 23 47  1  0
 27 48  1  0
 27 49  1  0
 28 50  1  0
 28 51  1  0
M  END
>  <UniqueID>  (45) 
42

>  <SMILES>  (45) 
COc1ccccc1N1CCN(CCn2cnc3ccc(Br)cc3c2=O)CC1

>  <Energy>  (45) 
72.31430397602719

>  <Genealogy>  (45) 
COc1ccccc1N1CCN(CCn2cnc3ccc(Br)cc3c2=O)CC1 (3D coordinates assigned)
COc1ccccc1N1CCN(CCn2cnc3ccc(Br)cc3c2=O)CC1 (nonaromatic ring conformer: 72.31430397602719 kcal/mol)

>  <smiles>  (45) 
COc1ccccc1N1CCN(CCn2cnc3ccc(Br)cc3c2=O)CC1

>  <score_type>  (45) 
oracle

>  <origin>  (45) 
adg

>  <m_score__min__energy>  (45) 
-8.2699999999999996

>  <m_primary>  (45) 
energy

$$$$
45:0
     RDKit          3D

 39 41  0  0  0  0  0  0  0  0999 V2000
   56.9540   21.9970   43.1460 C   0  0  0  0  0  0  0  0  0  0  0  0
   56.8230   23.1690   44.1040 C   0  0  0  0  0  0  0  0  0  0  0  0
   57.7180   22.9950   45.1960 O   0  0  0  0  0  0  0  0  0  0  0  0
   57.5850   23.6910   46.4020 C   0  0  0  0  0  0  0  0  0  0  0  0
   57.3330   23.0640   47.4690 O   0  0  0  0  0  0  0  0  0  0  0  0
   57.7420   25.1630   46.4260 C   0  0  0  0  0  0  0  0  0  0  0  0
   58.8700   25.7450   47.0290 C   0  0  0  0  0  0  0  0  0  0  0  0
   59.0280   27.1320   47.0410 C   0  0  0  0  0  0  0  0  0  0  0  0
   58.0600   27.9550   46.4620 C   0  0  0  0  0  0  0  0  0  0  0  0
   56.9130   27.3920   45.8790 C   0  0  0  0  0  0  0  0  0  0  0  0
   55.9150   28.2060   45.2470 N   0  0  0  0  0  0  0  0  0  0  0  0
   56.1400   29.4190   44.5160 C   0  0  0  0  0  0  0  0  0  0  0  0
   55.2580   30.3180   44.5460 O   0  0  0  0  0  0  0  0  0  0  0  0
   57.4110   29.6590   43.7480 C   0  0  0  0  0  0  0  0  0  0  0  0
   57.7010   31.0900   43.6780 N   0  0  0  0  0  0  0  0  0  0  0  0
   57.8300   31.7770   42.5470 N   0  0  0  0  0  0  0  0  0  0  0  0
   58.1500   33.0470   42.7920 N   0  0  0  0  0  0  0  0  0  0  0  0
   58.2340   33.1500   44.1310 C   0  0  0  0  0  0  0  0  0  0  0  0
   58.5570   34.2620   44.9020 C   0  0  0  0  0  0  0  0  0  0  0  0
   58.5960   34.0910   46.3000 C   0  0  0  0  0  0  0  0  0  0  0  0
   58.3170   32.8280   46.8780 C   0  0  0  0  0  0  0  0  0  0  0  0
   57.9950   31.7240   46.0640 C   0  0  0  0  0  0  0  0  0  0  0  0
   57.9620   31.9370   44.6860 C   0  0  0  0  0  0  0  0  0  0  0  0
   56.7720   25.9990   45.8430 C   0  0  0  0  0  0  0  0  0  0  0  0
   57.0582   21.0643   43.7198 H   0  0  0  0  0  0  0  0  0  0  0  0
   56.0567   21.9393   42.5123 H   0  0  0  0  0  0  0  0  0  0  0  0
   57.8419   22.1389   42.5123 H   0  0  0  0  0  0  0  0  0  0  0  0
   57.0670   24.1026   43.5759 H   0  0  0  0  0  0  0  0  0  0  0  0
   55.7911   23.2185   44.4817 H   0  0  0  0  0  0  0  0  0  0  0  0
   59.6331   25.1038   47.4944 H   0  0  0  0  0  0  0  0  0  0  0  0
   59.9183   27.5781   47.5083 H   0  0  0  0  0  0  0  0  0  0  0  0
   58.1960   29.0466   46.4625 H   0  0  0  0  0  0  0  0  0  0  0  0
   58.2422   29.1449   44.2528 H   0  0  0  0  0  0  0  0  0  0  0  0
   57.2901   29.2688   42.7267 H   0  0  0  0  0  0  0  0  0  0  0  0
   58.7733   35.2359   44.4387 H   0  0  0  0  0  0  0  0  0  0  0  0
   58.8450   34.9446   46.9476 H   0  0  0  0  0  0  0  0  0  0  0  0
   58.3520   32.7083   47.9709 H   0  0  0  0  0  0  0  0  0  0  0  0
   57.7788   30.7361   46.4969 H   0  0  0  0  0  0  0  0  0  0  0  0
   55.8933   25.5537   45.3536 H   0  0  0  0  0  0  0  0  0  0  0  0
  1  2  1  0
  2  3  1  0
  3  4  1  0
  4  5  2  0
  4  6  1  0
  6  7  2  0
  7  8  1  0
  8  9  2  0
  9 10  1  0
 10 11  1  0
 11 12  1  0
 12 13  2  0
 12 14  1  0
 14 15  1  0
 15 16  1  0
 16 17  2  0
 17 18  1  0
 18 19  2  0
 19 20  1  0
 20 21  2  0
 21 22  1  0
 22 23  2  0
 10 24  2  0
 24  6  1  0
 23 15  1  0
 23 18  1  0
  1 25  1  0
  1 26  1  0
  1 27  1  0
  2 28  1  0
  2 29  1  0
  7 30  1  0
  8 31  1  0
  9 32  1  0
 14 33  1  0
 14 34  1  0
 19 35  1  0
 20 36  1  0
 21 37  1  0
 22 38  1  0
 24 39  1  0
M  CHG  1  11  -1
M  END
>  <UniqueID>  (46) 
43

>  <SMILES>  (46) 
CCOC(=O)c1cccc([N-]C(=O)Cn2nnc3ccccc32)c1

>  <Energy>  (46) 
85.13482906225737

>  <Genealogy>  (46) 
CCOC(=O)c1cccc([N-]C(=O)Cn2nnc3ccccc32)c1 (protonated)
CCOC(=O)c1cccc([N-]C(=O)Cn2nnc3ccccc32)c1 (3D coordinates assigned)
CCOC(=O)c1cccc([N-]C(=O)Cn2nnc3ccccc32)c1 (optimized conformer: 85.13482906225737 kcal/mol)

>  <smiles>  (46) 
CCOC(=O)c1cccc(NC(=O)Cn2nnc3ccccc32)c1

>  <score_type>  (46) 
oracle

>  <origin>  (46) 
adg

>  <m_score__min__energy>  (46) 
-9.7799999999999994

>  <m_primary>  (46) 
energy

$$$$
46:0
     RDKit          3D

 39 41  0  0  0  0  0  0  0  0999 V2000
   56.7300   26.0360   46.2480 C   0  0  0  0  0  0  0  0  0  0  0  0
   57.3260   27.0300   45.3120 C   0  0  0  0  0  0  0  0  0  0  0  0
   58.1770   26.7160   44.3170 N   0  0  0  0  0  0  0  0  0  0  0  0
   58.5010   27.8590   43.7310 N   0  0  0  0  0  0  0  0  0  0  0  0
   57.8380   28.8230   44.3990 C   0  0  0  0  0  0  0  0  0  0  0  0
   57.8970   30.2810   44.0530 C   0  0  0  0  0  0  0  0  0  0  0  0
   56.9570   31.0800   44.8580 N   0  0  0  0  0  0  0  0  0  0  0  0
   57.5670   32.2950   45.4410 C   0  0  2  0  0  0  0  0  0  0  0  0
   57.8160   33.3370   44.3320 C   0  0  0  0  0  0  0  0  0  0  0  0
   58.4260   34.6490   44.8710 C   0  0  0  0  0  0  0  0  0  0  0  0
   59.1230   34.4790   46.2290 C   0  0  0  0  0  0  0  0  0  0  0  0
   59.7450   33.1520   46.3250 N   0  0  0  0  0  0  0  0  0  0  0  0
   61.1140   32.9890   46.7410 C   0  0  0  0  0  0  0  0  0  0  0  0
   61.4990   31.9240   47.5730 C   0  0  0  0  0  0  0  0  0  0  0  0
   62.8330   31.8100   47.9710 C   0  0  0  0  0  0  0  0  0  0  0  0
   63.7680   32.7570   47.5500 C   0  0  0  0  0  0  0  0  0  0  0  0
   63.3490   33.8140   46.7390 C   0  0  0  0  0  0  0  0  0  0  0  0
   62.0470   33.9070   46.3600 N   0  0  0  0  0  0  0  0  0  0  0  0
   58.9120   31.9560   46.1260 C   0  0  0  0  0  0  0  0  0  0  0  0
   57.1160   28.3220   45.3720 O   0  0  0  0  0  0  0  0  0  0  0  0
   56.9184   26.3502   47.2852 H   0  0  0  0  0  0  0  0  0  0  0  0
   55.6455   25.9738   46.0750 H   0  0  0  0  0  0  0  0  0  0  0  0
   57.1861   25.0501   46.0750 H   0  0  0  0  0  0  0  0  0  0  0  0
   58.9185   30.6473   44.2332 H   0  0  0  0  0  0  0  0  0  0  0  0
   57.6147   30.3899   42.9954 H   0  0  0  0  0  0  0  0  0  0  0  0
   56.5920   30.4670   45.6270 H   0  0  0  0  0  0  0  0  0  0  0  0
   56.8745   32.7034   46.1918 H   0  0  0  0  0  0  0  0  0  0  0  0
   58.5071   32.9056   43.5929 H   0  0  0  0  0  0  0  0  0  0  0  0
   56.8421   33.5836   43.8841 H   0  0  0  0  0  0  0  0  0  0  0  0
   59.1640   35.0165   44.1428 H   0  0  0  0  0  0  0  0  0  0  0  0
   57.5985   35.3593   45.0149 H   0  0  0  0  0  0  0  0  0  0  0  0
   59.8989   35.2512   46.3369 H   0  0  0  0  0  0  0  0  0  0  0  0
   58.3742   34.5798   47.0285 H   0  0  0  0  0  0  0  0  0  0  0  0
   60.7556   31.1858   47.9083 H   0  0  0  0  0  0  0  0  0  0  0  0
   63.1462   30.9752   48.6152 H   0  0  0  0  0  0  0  0  0  0  0  0
   64.8219   32.6718   47.8533 H   0  0  0  0  0  0  0  0  0  0  0  0
   64.0735   34.5721   46.4066 H   0  0  0  0  0  0  0  0  0  0  0  0
   59.4614   31.2412   45.4958 H   0  0  0  0  0  0  0  0  0  0  0  0
   58.6916   31.5267   47.1145 H   0  0  0  0  0  0  0  0  0  0  0  0
  1  2  1  0
  2  3  2  0
  3  4  1  0
  4  5  2  0
  5  6  1  0
  6  7  1  0
  7  8  1  0
  8  9  1  0
  9 10  1  0
 10 11  1  0
 11 12  1  0
 12 13  1  0
 13 14  2  0
 14 15  1  0
 15 16  2  0
 16 17  1  0
 17 18  2  0
 12 19  1  0
  5 20  1  0
 20  2  1  0
 19  8  1  0
 18 13  1  0
  1 21  1  0
  1 22  1  0
  1 23  1  0
  6 24  1  0
  6 25  1  0
  7 26  1  0
  8 27  1  1
  9 28  1  0
  9 29  1  0
 10 30  1  0
 10 31  1  0
 11 32  1  0
 11 33  1  0
 14 34  1  0
 15 35  1  0
 16 36  1  0
 17 37  1  0
 19 38  1  0
 19 39  1  0
M  END
>  <UniqueID>  (47) 
44

>  <SMILES>  (47) 
Cc1nnc(CN[C@@H]2CCCN(c3ccccn3)C2)o1

>  <Energy>  (47) 
79.42614900296374

>  <Genealogy>  (47) 
Cc1nnc(CN[C@@H]2CCCN(c3ccccn3)C2)o1 (chirality)
Cc1nnc(CN[C@@H]2CCCN(c3ccccn3)C2)o1 (3D coordinates assigned)
Cc1nnc(CN[C@@H]2CCCN(c3ccccn3)C2)o1 (nonaromatic ring conformer: 79.42614900296374 kcal/mol)

>  <smiles>  (47) 
Cc1nnc(CNC2CCCN(c3ccccn3)C2)o1

>  <score_type>  (47) 
oracle

>  <origin>  (47) 
adg

>  <m_score__min__energy>  (47) 
-6.9800000000000004

>  <m_primary>  (47) 
energy

$$$$
47:0
     RDKit          3D

 49 53  0  0  0  0  0  0  0  0999 V2000
   63.0060   34.5960   50.1440 C   0  0  0  0  0  0  0  0  0  0  0  0
   63.6500   33.6040   49.2650 N   0  0  0  0  0  0  0  0  0  0  0  0
   63.2760   33.8210   47.8380 C   0  0  0  0  0  0  0  0  0  0  0  0
   62.9090   32.5290   47.1000 C   0  0  0  0  0  0  0  0  0  0  0  0
   61.9090   31.8030   47.8820 N   0  0  0  0  0  0  0  0  0  0  0  0
   60.6700   31.3950   47.2820 C   0  0  0  0  0  0  0  0  0  0  0  0
   60.3080   30.0820   47.3340 N   0  0  0  0  0  0  0  0  0  0  0  0
   59.1280   29.6480   46.8010 C   0  0  0  0  0  0  0  0  0  0  0  0
   58.7440   28.2190   46.8680 C   0  0  0  0  0  0  0  0  0  0  0  0
   57.5130   27.8090   46.3340 C   0  0  0  0  0  0  0  0  0  0  0  0
   57.1300   26.4640   46.3960 C   0  0  0  0  0  0  0  0  0  0  0  0
   55.9000   26.0300   45.8780 C   0  0  0  0  0  0  0  0  0  0  0  0
   55.5450   24.6800   45.9550 C   0  0  0  0  0  0  0  0  0  0  0  0
   53.8700   24.0910   45.2520 Br  0  0  0  0  0  0  0  0  0  0  0  0
   56.4120   23.7580   46.5550 C   0  0  0  0  0  0  0  0  0  0  0  0
   57.6380   24.1840   47.0780 C   0  0  0  0  0  0  0  0  0  0  0  0
   58.0030   25.5320   46.9980 C   0  0  0  0  0  0  0  0  0  0  0  0
   59.2000   25.9450   47.4900 N   0  0  0  0  0  0  0  0  0  0  0  0
   59.5930   27.2460   47.4340 C   0  0  0  0  0  0  0  0  0  0  0  0
   60.7340   27.5570   47.8640 O   0  0  0  0  0  0  0  0  0  0  0  0
   58.2790   30.5400   46.2260 N   0  0  0  0  0  0  0  0  0  0  0  0
   58.5910   31.8580   46.1410 C   0  0  0  0  0  0  0  0  0  0  0  0
   57.7030   32.7460   45.5240 C   0  0  0  0  0  0  0  0  0  0  0  0
   58.0310   34.1010   45.4130 C   0  0  0  0  0  0  0  0  0  0  0  0
   59.2480   34.5710   45.9140 C   0  0  0  0  0  0  0  0  0  0  0  0
   60.1410   33.6910   46.5350 C   0  0  0  0  0  0  0  0  0  0  0  0
   59.8140   32.3280   46.6640 C   0  0  0  0  0  0  0  0  0  0  0  0
   62.1020   31.6300   49.3230 C   0  0  0  0  0  0  0  0  0  0  0  0
   63.4470   32.2240   49.7680 C   0  0  0  0  0  0  0  0  0  0  0  0
   63.1826   34.3240   51.1951 H   0  0  0  0  0  0  0  0  0  0  0  0
   63.4306   35.5913   49.9465 H   0  0  0  0  0  0  0  0  0  0  0  0
   61.9240   34.6132   49.9465 H   0  0  0  0  0  0  0  0  0  0  0  0
   62.4108   34.4994   47.8039 H   0  0  0  0  0  0  0  0  0  0  0  0
   64.1570   34.2436   47.3328 H   0  0  0  0  0  0  0  0  0  0  0  0
   62.4967   32.7739   46.1100 H   0  0  0  0  0  0  0  0  0  0  0  0
   63.8062   31.9055   46.9726 H   0  0  0  0  0  0  0  0  0  0  0  0
   60.9320   29.4080   47.8300 H   0  0  0  0  0  0  0  0  0  0  0  0
   56.8462   28.5474   45.8648 H   0  0  0  0  0  0  0  0  0  0  0  0
   55.2147   26.7527   45.4110 H   0  0  0  0  0  0  0  0  0  0  0  0
   56.1286   22.6968   46.6152 H   0  0  0  0  0  0  0  0  0  0  0  0
   58.3151   23.4584   47.5523 H   0  0  0  0  0  0  0  0  0  0  0  0
   56.7459   32.3780   45.1258 H   0  0  0  0  0  0  0  0  0  0  0  0
   57.3299   34.7979   44.9306 H   0  0  0  0  0  0  0  0  0  0  0  0
   59.5047   35.6365   45.8198 H   0  0  0  0  0  0  0  0  0  0  0  0
   61.1000   34.0648   46.9230 H   0  0  0  0  0  0  0  0  0  0  0  0
   61.2877   32.1389   49.8597 H   0  0  0  0  0  0  0  0  0  0  0  0
   62.0981   30.5543   49.5528 H   0  0  0  0  0  0  0  0  0  0  0  0
   63.4794   32.2405   50.8674 H   0  0  0  0  0  0  0  0  0  0  0  0
   64.2462   31.5940   49.3504 H   0  0  0  0  0  0  0  0  0  0  0  0
  1  2  1  0
  2  3  1  0
  3  4  1  0
  4  5  1  0
  5  6  1  0
  6  7  2  0
  7  8  1  0
  8  9  1  0
  9 10  2  0
 10 11  1  0
 11 12  2  0
 12 13  1  0
 13 14  1  0
 13 15  2  0
 15 16  1  0
 16 17  2  0
 17 18  1  0
 18 19  1  0
 19 20  2  0
  8 21  2  0
 21 22  1  0
 22 23  2  0
 23 24  1  0
 24 25  2  0
 25 26  1  0
 26 27  2  0
  5 28  1  0
 28 29  1  0
 29  2  1  0
 27  6  1  0
 19  9  1  0
 27 22  1  0
 17 11  1  0
  1 30  1  0
  1 31  1  0
  1 32  1  0
  3 33  1  0
  3 34  1  0
  4 35  1  0
  4 36  1  0
  7 37  1  0
 10 38  1  0
 12 39  1  0
 15 40  1  0
 16 41  1  0
 23 42  1  0
 24 43  1  0
 25 44  1  0
 26 45  1  0
 28 46  1  0
 28 47  1  0
 29 48  1  0
 29 49  1  0
M  CHG  2   7   1  18  -1
M  END
>  <UniqueID>  (48) 
45

>  <SMILES>  (48) 
CN1CCN(c2[nH+]c(-c3cc4cc(Br)ccc4[n-]c3=O)nc3ccccc23)CC1

>  <Energy>  (48) 
79.24581948080076

>  <Genealogy>  (48) 
CN1CCN(c2[nH+]c(-c3cc4cc(Br)ccc4[n-]c3=O)nc3ccccc23)CC1 (protonated)
CN1CCN(c2[nH+]c(-c3cc4cc(Br)ccc4[n-]c3=O)nc3ccccc23)CC1 (3D coordinates assigned)
CN1CCN(c2[nH+]c(-c3cc4cc(Br)ccc4[n-]c3=O)nc3ccccc23)CC1 (nonaromatic ring conformer: 79.24581948080076 kcal/mol)

>  <smiles>  (48) 
CN1CCN(c2nc(-c3cc4cc(Br)ccc4[nH]c3=O)nc3ccccc23)CC1

>  <score_type>  (48) 
oracle

>  <origin>  (48) 
adg

>  <m_score__min__energy>  (48) 
-8.5399999999999991

>  <m_primary>  (48) 
energy

$$$$
48:0
     RDKit          3D

 48 50  0  0  0  0  0  0  0  0999 V2000
   56.4220   23.7970   43.6620 C   0  0  0  0  0  0  0  0  0  0  0  0
   57.3750   24.6490   44.4850 C   0  0  0  0  0  0  0  0  0  0  0  0
   56.7430   25.0290   45.7030 O   0  0  0  0  0  0  0  0  0  0  0  0
   56.3980   26.3520   45.9990 C   0  0  0  0  0  0  0  0  0  0  0  0
   55.1850   26.7040   45.9530 O   0  0  0  0  0  0  0  0  0  0  0  0
   57.4470   27.3430   46.3660 C   0  0  0  0  0  0  0  0  0  0  0  0
   58.5590   26.9300   47.1140 C   0  0  0  0  0  0  0  0  0  0  0  0
   59.5470   27.8010   47.4870 N   0  0  0  0  0  0  0  0  0  0  0  0
   60.6590   27.2490   48.2870 C   0  0  0  0  0  0  0  0  0  0  0  0
   60.6110   27.7800   49.7180 C   0  0  0  0  0  0  0  0  0  0  0  0
   59.4950   29.1240   47.0910 C   0  0  0  0  0  0  0  0  0  0  0  0
   60.5240   30.0450   47.4060 C   0  0  0  0  0  0  0  0  0  0  0  0
   60.4510   31.3860   47.0040 C   0  0  0  0  0  0  0  0  0  0  0  0
   61.5080   32.3010   47.3420 N   0  0  0  0  0  0  0  0  0  0  0  0
   61.9250   33.3250   46.3770 C   0  0  0  0  0  0  0  0  0  0  0  0
   63.2510   33.9670   46.8100 C   0  0  0  0  0  0  0  0  0  0  0  0
   64.1500   32.9450   47.3620 N   0  0  0  0  0  0  0  0  0  0  0  0
   63.6370   32.3540   48.6160 C   0  0  0  0  0  0  0  0  0  0  0  0
   62.0950   32.2950   48.6860 C   0  0  0  0  0  0  0  0  0  0  0  0
   59.3390   31.8300   46.2830 C   0  0  0  0  0  0  0  0  0  0  0  0
   59.2300   33.1330   45.9200 F   0  0  0  0  0  0  0  0  0  0  0  0
   58.3190   30.9430   45.9500 C   0  0  0  0  0  0  0  0  0  0  0  0
   58.3840   29.5900   46.3380 C   0  0  0  0  0  0  0  0  0  0  0  0
   57.3620   28.6930   45.9840 C   0  0  0  0  0  0  0  0  0  0  0  0
   56.3690   29.1030   45.3180 O   0  0  0  0  0  0  0  0  0  0  0  0
   55.7736   23.2173   44.3355 H   0  0  0  0  0  0  0  0  0  0  0  0
   55.8028   24.4482   43.0275 H   0  0  0  0  0  0  0  0  0  0  0  0
   57.0000   23.1090   43.0275 H   0  0  0  0  0  0  0  0  0  0  0  0
   58.2835   24.0706   44.7086 H   0  0  0  0  0  0  0  0  0  0  0  0
   57.6444   25.5508   43.9156 H   0  0  0  0  0  0  0  0  0  0  0  0
   58.6398   25.8737   47.4101 H   0  0  0  0  0  0  0  0  0  0  0  0
   60.5800   26.1520   48.3062 H   0  0  0  0  0  0  0  0  0  0  0  0
   61.6106   27.5555   47.8281 H   0  0  0  0  0  0  0  0  0  0  0  0
   60.6870   26.9396   50.4237 H   0  0  0  0  0  0  0  0  0  0  0  0
   61.4502   28.4723   49.8806 H   0  0  0  0  0  0  0  0  0  0  0  0
   59.6612   28.3106   49.8806 H   0  0  0  0  0  0  0  0  0  0  0  0
   61.3984   29.7009   47.9778 H   0  0  0  0  0  0  0  0  0  0  0  0
   62.0544   32.8593   45.3889 H   0  0  0  0  0  0  0  0  0  0  0  0
   61.1512   34.1055   46.3312 H   0  0  0  0  0  0  0  0  0  0  0  0
   63.7283   34.4391   45.9386 H   0  0  0  0  0  0  0  0  0  0  0  0
   63.0493   34.7241   47.5821 H   0  0  0  0  0  0  0  0  0  0  0  0
   65.0830   33.3830   47.5490 H   0  0  0  0  0  0  0  0  0  0  0  0
   64.2910   32.1880   46.6500 H   0  0  0  0  0  0  0  0  0  0  0  0
   64.0286   31.3298   48.7035 H   0  0  0  0  0  0  0  0  0  0  0  0
   63.9728   33.0019   49.4391 H   0  0  0  0  0  0  0  0  0  0  0  0
   61.7934   31.3740   49.2063 H   0  0  0  0  0  0  0  0  0  0  0  0
   61.7344   33.1803   49.2302 H   0  0  0  0  0  0  0  0  0  0  0  0
   57.4517   31.3028   45.3770 H   0  0  0  0  0  0  0  0  0  0  0  0
  1  2  1  0
  2  3  1  0
  3  4  1  0
  4  5  2  0
  4  6  1  0
  6  7  2  0
  7  8  1  0
  8  9  1  0
  9 10  1  0
  8 11  1  0
 11 12  2  0
 12 13  1  0
 13 14  1  0
 14 15  1  0
 15 16  1  0
 16 17  1  0
 17 18  1  0
 18 19  1  0
 13 20  2  0
 20 21  1  0
 20 22  1  0
 22 23  2  0
 23 24  1  0
 24 25  2  0
 24  6  1  0
 23 11  1  0
 19 14  1  0
  1 26  1  0
  1 27  1  0
  1 28  1  0
  2 29  1  0
  2 30  1  0
  7 31  1  0
  9 32  1  0
  9 33  1  0
 10 34  1  0
 10 35  1  0
 10 36  1  0
 12 37  1  0
 15 38  1  0
 15 39  1  0
 16 40  1  0
 16 41  1  0
 17 42  1  0
 17 43  1  0
 18 44  1  0
 18 45  1  0
 19 46  1  0
 19 47  1  0
 22 48  1  0
M  CHG  1  17   1
M  END
>  <UniqueID>  (49) 
46

>  <SMILES>  (49) 
CCOC(=O)c1cn(CC)c2cc(N3CC[NH2+]CC3)c(F)cc2c1=O

>  <Energy>  (49) 
62.429289507044174

>  <Genealogy>  (49) 
CCOC(=O)c1cn(CC)c2cc(N3CC[NH2+]CC3)c(F)cc2c1=O (protonated)
CCOC(=O)c1cn(CC)c2cc(N3CC[NH2+]CC3)c(F)cc2c1=O (3D coordinates assigned)
CCOC(=O)c1cn(CC)c2cc(N3CC[NH2+]CC3)c(F)cc2c1=O (nonaromatic ring conformer: 62.429289507044174 kcal/mol)

>  <smiles>  (49) 
CCOC(=O)c1cn(CC)c2cc(N3CCNCC3)c(F)cc2c1=O

>  <score_type>  (49) 
oracle

>  <origin>  (49) 
adg

>  <m_score__min__energy>  (49) 
-5.9800000000000004

>  <m_primary>  (49) 
energy

$$$$
49:0
     RDKit          3D

 39 41  0  0  0  0  0  0  0  0999 V2000
   58.9220   33.6600   47.9260 C   0  0  0  0  0  0  0  0  0  0  0  0
   58.6790   33.2690   46.4980 C   0  0  0  0  0  0  0  0  0  0  0  0
   58.9120   34.1870   45.4680 C   0  0  0  0  0  0  0  0  0  0  0  0
   58.6450   33.8400   44.1420 C   0  0  0  0  0  0  0  0  0  0  0  0
   58.1250   32.5740   43.8230 C   0  0  0  0  0  0  0  0  0  0  0  0
   57.8130   32.2600   42.3840 C   0  0  0  0  0  0  0  0  0  0  0  0
   57.9070   31.6350   44.8610 C   0  0  0  0  0  0  0  0  0  0  0  0
   57.4040   30.2690   44.5980 C   0  0  0  0  0  0  0  0  0  0  0  0
   56.2010   30.0020   44.8740 O   0  0  0  0  0  0  0  0  0  0  0  0
   58.2940   29.2250   44.1360 N   0  0  0  0  0  0  0  0  0  0  0  0
   59.5740   29.2240   44.9040 C   0  0  0  0  0  0  0  0  0  0  0  0
   59.4800   27.9880   45.7660 C   0  0  2  0  0  0  0  0  0  0  0  0
   60.6170   27.1500   46.2940 C   0  0  0  0  0  0  0  0  0  0  0  0
   60.0310   25.7970   46.4500 N   0  0  0  0  0  0  0  0  0  0  0  0
   58.7510   25.8050   45.7020 C   0  0  0  0  0  0  0  0  0  0  0  0
   58.8370   27.0380   44.8370 C   0  0  1  0  0  0  0  0  0  0  0  0
   57.6940   27.8710   44.3100 C   0  0  0  0  0  0  0  0  0  0  0  0
   58.1610   32.0040   46.1910 C   0  0  0  0  0  0  0  0  0  0  0  0
   58.4604   32.9172   48.5932 H   0  0  0  0  0  0  0  0  0  0  0  0
   60.0047   33.7006   48.1159 H   0  0  0  0  0  0  0  0  0  0  0  0
   58.4791   34.6488   48.1159 H   0  0  0  0  0  0  0  0  0  0  0  0
   59.3071   35.1861   45.7038 H   0  0  0  0  0  0  0  0  0  0  0  0
   58.8437   34.5650   43.3390 H   0  0  0  0  0  0  0  0  0  0  0  0
   57.0383   31.4804   42.3385 H   0  0  0  0  0  0  0  0  0  0  0  0
   57.4492   33.1682   41.8811 H   0  0  0  0  0  0  0  0  0  0  0  0
   58.7235   31.9021   41.8811 H   0  0  0  0  0  0  0  0  0  0  0  0
   58.5190   29.3730   43.1240 H   0  0  0  0  0  0  0  0  0  0  0  0
   60.4375   29.1629   44.2253 H   0  0  0  0  0  0  0  0  0  0  0  0
   59.7156   30.1420   45.4932 H   0  0  0  0  0  0  0  0  0  0  0  0
   59.0638   28.4041   46.6953 H   0  0  0  0  0  0  0  0  0  0  0  0
   61.4532   27.1328   45.5796 H   0  0  0  0  0  0  0  0  0  0  0  0
   61.0269   27.5424   47.2363 H   0  0  0  0  0  0  0  0  0  0  0  0
   59.8180   25.6410   47.4630 H   0  0  0  0  0  0  0  0  0  0  0  0
   58.6546   24.9004   45.0837 H   0  0  0  0  0  0  0  0  0  0  0  0
   57.8743   25.8160   46.3663 H   0  0  0  0  0  0  0  0  0  0  0  0
   59.2505   26.6251   43.9050 H   0  0  0  0  0  0  0  0  0  0  0  0
   57.3313   27.4763   43.3494 H   0  0  0  0  0  0  0  0  0  0  0  0
   56.8233   27.8738   44.9822 H   0  0  0  0  0  0  0  0  0  0  0  0
   57.9508   31.2914   47.0022 H   0  0  0  0  0  0  0  0  0  0  0  0
  1  2  1  0
  2  3  2  0
  3  4  1  0
  4  5  2  0
  5  6  1  0
  5  7  1  0
  7  8  1  0
  8  9  2  0
  8 10  1  0
 10 11  1  0
 11 12  1  0
 12 13  1  0
 13 14  1  0
 14 15  1  0
 15 16  1  0
 16 17  1  0
  7 18  2  0
 18  2  1  0
 17 10  1  0
 16 12  1  0
  1 19  1  0
  1 20  1  0
  1 21  1  0
  3 22  1  0
  4 23  1  0
  6 24  1  0
  6 25  1  0
  6 26  1  0
 10 27  1  0
 11 28  1  0
 11 29  1  0
 12 30  1  1
 13 31  1  0
 13 32  1  0
 14 33  1  0
 15 34  1  0
 15 35  1  0
 16 36  1  6
 17 37  1  0
 17 38  1  0
 18 39  1  0
M  CHG  1  10   1
M  END
>  <UniqueID>  (50) 
47

>  <SMILES>  (50) 
Cc1ccc(C)c(C(=O)[NH+]2C[C@@H]3CNC[C@H]3C2)c1

>  <Energy>  (50) 
80.23754619645696

>  <Genealogy>  (50) 
Cc1ccc(C)c(C(=O)[NH+]2CC3CNCC3C2)c1 (protonated)
Cc1ccc(C)c(C(=O)[NH+]2C[C@@H]3CNC[C@H]3C2)c1 (chirality)
Cc1ccc(C)c(C(=O)[NH+]2C[C@@H]3CNC[C@H]3C2)c1 (3D coordinates assigned)
Cc1ccc(C)c(C(=O)[NH+]2C[C@@H]3CNC[C@H]3C2)c1 (nonaromatic ring conformer: 80.23754619645696 kcal/mol)

>  <smiles>  (50) 
Cc1ccc(C)c(C(=O)N2CC3CNCC3C2)c1

>  <score_type>  (50) 
oracle

>  <origin>  (50) 
adg

>  <m_score__min__energy>  (50) 
-6.25

>  <m_primary>  (50) 
energy

$$$$
