0:0
     RDKit          3D

 53 57  0  0  0  0  0  0  0  0999 V2000
   58.9150   27.9880   47.6740 C   0  0  0  0  0  0  0  0  0  0  0  0
   58.2500   28.2250   46.3930 N   0  0  0  0  0  0  0  0  0  0  0  0
   57.6790   27.2970   45.5740 C   0  0  0  0  0  0  0  0  0  0  0  0
   57.6730   25.8050   45.8330 C   0  0  2  0  0  0  0  0  0  0  0  0
   57.7720   25.0200   44.5090 C   0  0  0  0  0  0  0  0  0  0  0  0
   56.4480   24.3790   44.3950 C   0  0  0  0  0  0  0  0  0  0  0  0
   56.0620   23.7660   43.3640 O   0  0  0  0  0  0  0  0  0  0  0  0
   55.6380   24.5560   45.5440 N   0  0  0  0  0  0  0  0  0  0  0  0
   54.3810   23.9020   45.8030 C   0  0  0  0  0  0  0  0  0  0  0  0
   53.2620   24.1710   44.9950 C   0  0  0  0  0  0  0  0  0  0  0  0
   52.0380   23.5440   45.2480 C   0  0  0  0  0  0  0  0  0  0  0  0
   51.9160   22.6470   46.3140 C   0  0  0  0  0  0  0  0  0  0  0  0
   50.3790   21.8640   46.6300 Cl  0  0  0  0  0  0  0  0  0  0  0  0
   53.0190   22.3800   47.1290 C   0  0  0  0  0  0  0  0  0  0  0  0
   54.2450   23.0040   46.8780 C   0  0  0  0  0  0  0  0  0  0  0  0
   56.3570   25.3600   46.5220 C   0  0  0  0  0  0  0  0  0  0  0  0
   57.1310   27.8540   44.4640 N   0  0  0  0  0  0  0  0  0  0  0  0
   57.3480   29.1710   44.6100 C   0  0  0  0  0  0  0  0  0  0  0  0
   56.9770   30.2000   43.7500 C   0  0  0  0  0  0  0  0  0  0  0  0
   57.3110   31.5140   44.1200 C   0  0  0  0  0  0  0  0  0  0  0  0
   57.9980   31.7750   45.3350 C   0  0  0  0  0  0  0  0  0  0  0  0
   58.3430   33.1230   45.7030 N   0  0  0  0  0  0  0  0  0  0  0  0
   58.1530   33.5880   47.0830 C   0  0  0  0  0  0  0  0  0  0  0  0
   59.2660   34.5790   47.5020 C   0  0  0  0  0  0  0  0  0  0  0  0
   60.1140   34.9700   46.4340 O   0  0  0  0  0  0  0  0  0  0  0  0
   59.3420   35.3380   45.3100 C   0  0  0  0  0  0  0  0  0  0  0  0
   58.7520   34.0820   44.6690 C   0  0  0  0  0  0  0  0  0  0  0  0
   58.3620   30.6980   46.1770 C   0  0  0  0  0  0  0  0  0  0  0  0
   58.0180   29.4040   45.7770 C   0  0  0  0  0  0  0  0  0  0  0  0
   58.2261   28.2335   48.4957 H   0  0  0  0  0  0  0  0  0  0  0  0
   59.2080   26.9301   47.7448 H   0  0  0  0  0  0  0  0  0  0  0  0
   59.8110   28.6222   47.7448 H   0  0  0  0  0  0  0  0  0  0  0  0
   58.5370   25.5954   46.4807 H   0  0  0  0  0  0  0  0  0  0  0  0
   57.9562   25.6973   43.6621 H   0  0  0  0  0  0  0  0  0  0  0  0
   58.6022   24.2984   44.4973 H   0  0  0  0  0  0  0  0  0  0  0  0
   53.3501   24.8795   44.1582 H   0  0  0  0  0  0  0  0  0  0  0  0
   51.1695   23.7567   44.6074 H   0  0  0  0  0  0  0  0  0  0  0  0
   52.9228   21.6774   47.9699 H   0  0  0  0  0  0  0  0  0  0  0  0
   55.1088   22.7915   47.5251 H   0  0  0  0  0  0  0  0  0  0  0  0
   55.7595   26.2387   46.8065 H   0  0  0  0  0  0  0  0  0  0  0  0
   56.5586   24.7886   47.4401 H   0  0  0  0  0  0  0  0  0  0  0  0
   56.6460   27.3720   43.6760 H   0  0  0  0  0  0  0  0  0  0  0  0
   56.4406   29.9921   42.8125 H   0  0  0  0  0  0  0  0  0  0  0  0
   57.0369   32.3505   43.4603 H   0  0  0  0  0  0  0  0  0  0  0  0
   57.1778   34.0911   47.1603 H   0  0  0  0  0  0  0  0  0  0  0  0
   58.1956   32.7157   47.7518 H   0  0  0  0  0  0  0  0  0  0  0  0
   58.7904   35.4805   47.9156 H   0  0  0  0  0  0  0  0  0  0  0  0
   59.8965   34.0607   48.2395 H   0  0  0  0  0  0  0  0  0  0  0  0
   58.5275   36.0062   45.6265 H   0  0  0  0  0  0  0  0  0  0  0  0
   59.9789   35.8595   44.5804 H   0  0  0  0  0  0  0  0  0  0  0  0
   57.8752   34.3606   44.0660 H   0  0  0  0  0  0  0  0  0  0  0  0
   59.5165   33.6143   44.0312 H   0  0  0  0  0  0  0  0  0  0  0  0
   58.9005   30.8742   47.1198 H   0  0  0  0  0  0  0  0  0  0  0  0
  1  2  1  0
  2  3  1  0
  3  4  1  0
  4  5  1  0
  5  6  1  0
  6  7  2  0
  6  8  1  0
  8  9  1  0
  9 10  2  0
 10 11  1  0
 11 12  2  0
 12 13  1  0
 12 14  1  0
 14 15  2  0
  8 16  1  0
  3 17  2  0
 17 18  1  0
 18 19  2  0
 19 20  1  0
 20 21  2  0
 21 22  1  0
 22 23  1  0
 23 24  1  0
 24 25  1  0
 25 26  1  0
 26 27  1  0
 21 28  1  0
 28 29  2  0
 29  2  1  0
 16  4  1  0
 29 18  1  0
 15  9  1  0
 27 22  1  0
  1 30  1  0
  1 31  1  0
  1 32  1  0
  4 33  1  1
  5 34  1  0
  5 35  1  0
 10 36  1  0
 11 37  1  0
 14 38  1  0
 15 39  1  0
 16 40  1  0
 16 41  1  0
 17 42  1  0
 19 43  1  0
 20 44  1  0
 23 45  1  0
 23 46  1  0
 24 47  1  0
 24 48  1  0
 26 49  1  0
 26 50  1  0
 27 51  1  0
 27 52  1  0
 28 53  1  0
M  CHG  1  17   1
M  END
>  <UniqueID>  (1) 
1

>  <SMILES>  (1) 
Cn1c([C@@H]2CC(=O)N(c3ccc(Cl)cc3)C2)[nH+]c2ccc(N3CCOCC3)cc21

>  <Energy>  (1) 
118.91507761804368

>  <Genealogy>  (1) 
Cn1c(C2CC(=O)N(c3ccc(Cl)cc3)C2)[nH+]c2ccc(N3CCOCC3)cc21 (protonated)
Cn1c([C@@H]2CC(=O)N(c3ccc(Cl)cc3)C2)[nH+]c2ccc(N3CCOCC3)cc21 (chirality)
Cn1c([C@@H]2CC(=O)N(c3ccc(Cl)cc3)C2)[nH+]c2ccc(N3CCOCC3)cc21 (3D coordinates assigned)
Cn1c([C@@H]2CC(=O)N(c3ccc(Cl)cc3)C2)[nH+]c2ccc(N3CCOCC3)cc21 (nonaromatic ring conformer: 118.91507761804368 kcal/mol)

>  <smiles>  (1) 
Cn1c(C2CC(=O)N(c3ccc(Cl)cc3)C2)nc2ccc(N3CCOCC3)cc21

>  <score_type>  (1) 
oracle

>  <origin>  (1) 
adg

>  <m_score__min__energy>  (1) 
-6.7400000000000002

>  <m_primary>  (1) 
energy

$$$$
1:0
     RDKit          3D

 50 51  0  0  0  0  0  0  0  0999 V2000
   56.3090   29.7620   42.6240 C   0  0  0  0  0  0  0  0  0  0  0  0
   55.9340   29.8820   44.1000 C   0  0  0  0  0  0  0  0  0  0  0  0
   56.9890   30.5670   44.8860 N   0  0  0  0  0  0  0  0  0  0  0  0
   56.9900   32.0160   44.5740 C   0  0  0  0  0  0  0  0  0  0  0  0
   58.1130   32.3630   43.5990 C   0  0  0  0  0  0  0  0  0  0  0  0
   58.3300   29.9640   44.6600 C   0  0  0  0  0  0  0  0  0  0  0  0
   58.3470   28.4990   45.1010 C   0  0  0  0  0  0  0  0  0  0  0  0
   58.3290   28.3920   46.5130 O   0  0  0  0  0  0  0  0  0  0  0  0
   58.6830   29.6110   47.1420 C   0  0  0  0  0  0  0  0  0  0  0  0
   58.9800   29.3940   48.6320 C   0  0  0  0  0  0  0  0  0  0  0  0
   59.6680   30.5450   49.2230 N   0  0  0  0  0  0  0  0  0  0  0  0
   60.5540   31.4170   48.4870 C   0  0  0  0  0  0  0  0  0  0  0  0
   61.9310   31.1690   48.4830 C   0  0  0  0  0  0  0  0  0  0  0  0
   62.7960   32.0040   47.7870 C   0  0  0  0  0  0  0  0  0  0  0  0
   62.3310   33.0850   47.0910 N   0  0  0  0  0  0  0  0  0  0  0  0
   63.3110   33.9150   46.3720 C   0  0  0  0  0  0  0  0  0  0  0  0
   60.9810   33.3680   47.0640 C   0  0  0  0  0  0  0  0  0  0  0  0
   60.4740   34.4700   46.3340 C   0  0  0  0  0  0  0  0  0  0  0  0
   59.1050   34.7290   46.2870 C   0  0  0  0  0  0  0  0  0  0  0  0
   58.2130   33.9000   46.9560 C   0  0  0  0  0  0  0  0  0  0  0  0
   58.6800   32.8100   47.6880 C   0  0  0  0  0  0  0  0  0  0  0  0
   60.0620   32.5320   47.7660 C   0  0  0  0  0  0  0  0  0  0  0  0
   57.3534   29.4278   42.5370 H   0  0  0  0  0  0  0  0  0  0  0  0
   55.6481   29.0305   42.1361 H   0  0  0  0  0  0  0  0  0  0  0  0
   56.1956   30.7413   42.1361 H   0  0  0  0  0  0  0  0  0  0  0  0
   54.9993   30.4559   44.1837 H   0  0  0  0  0  0  0  0  0  0  0  0
   55.8138   28.8661   44.5043 H   0  0  0  0  0  0  0  0  0  0  0  0
   56.0244   32.2878   44.1226 H   0  0  0  0  0  0  0  0  0  0  0  0
   57.1493   32.5762   45.5072 H   0  0  0  0  0  0  0  0  0  0  0  0
   59.0152   32.6418   44.1631 H   0  0  0  0  0  0  0  0  0  0  0  0
   58.3315   31.4905   42.9658 H   0  0  0  0  0  0  0  0  0  0  0  0
   57.8012   33.2067   42.9658 H   0  0  0  0  0  0  0  0  0  0  0  0
   58.5757   30.0214   43.5893 H   0  0  0  0  0  0  0  0  0  0  0  0
   59.0715   30.5198   45.2527 H   0  0  0  0  0  0  0  0  0  0  0  0
   57.4624   27.9899   44.6907 H   0  0  0  0  0  0  0  0  0  0  0  0
   59.2699   28.0319   44.7267 H   0  0  0  0  0  0  0  0  0  0  0  0
   59.5784   30.0217   46.6526 H   0  0  0  0  0  0  0  0  0  0  0  0
   57.8393   30.3109   47.0507 H   0  0  0  0  0  0  0  0  0  0  0  0
   58.0309   29.2345   49.1647 H   0  0  0  0  0  0  0  0  0  0  0  0
   59.6380   28.5174   48.7254 H   0  0  0  0  0  0  0  0  0  0  0  0
   59.5240   30.7040   50.2440 H   0  0  0  0  0  0  0  0  0  0  0  0
   62.3317   30.3062   49.0352 H   0  0  0  0  0  0  0  0  0  0  0  0
   63.8752   31.7915   47.7960 H   0  0  0  0  0  0  0  0  0  0  0  0
   63.9417   34.4492   47.0978 H   0  0  0  0  0  0  0  0  0  0  0  0
   63.9423   33.2727   45.7404 H   0  0  0  0  0  0  0  0  0  0  0  0
   62.7814   34.6434   45.7404 H   0  0  0  0  0  0  0  0  0  0  0  0
   61.1699   35.1310   45.7965 H   0  0  0  0  0  0  0  0  0  0  0  0
   58.7297   35.5926   45.7183 H   0  0  0  0  0  0  0  0  0  0  0  0
   57.1334   34.1050   46.9076 H   0  0  0  0  0  0  0  0  0  0  0  0
   57.9639   32.1590   48.2108 H   0  0  0  0  0  0  0  0  0  0  0  0
  1  2  1  0
  2  3  1  0
  3  4  1  0
  4  5  1  0
  3  6  1  0
  6  7  1  0
  7  8  1  0
  8  9  1  0
  9 10  1  0
 10 11  1  0
 11 12  1  0
 12 13  2  0
 13 14  1  0
 14 15  2  0
 15 16  1  0
 15 17  1  0
 17 18  2  0
 18 19  1  0
 19 20  2  0
 20 21  1  0
 21 22  2  0
 22 12  1  0
 22 17  1  0
  1 23  1  0
  1 24  1  0
  1 25  1  0
  2 26  1  0
  2 27  1  0
  4 28  1  0
  4 29  1  0
  5 30  1  0
  5 31  1  0
  5 32  1  0
  6 33  1  0
  6 34  1  0
  7 35  1  0
  7 36  1  0
  9 37  1  0
  9 38  1  0
 10 39  1  0
 10 40  1  0
 11 41  1  0
 13 42  1  0
 14 43  1  0
 16 44  1  0
 16 45  1  0
 16 46  1  0
 18 47  1  0
 19 48  1  0
 20 49  1  0
 21 50  1  0
M  CHG  1  15   1
M  END
>  <UniqueID>  (2) 
2

>  <SMILES>  (2) 
CCN(CC)CCOCCNc1cc[n+](C)c2ccccc12

>  <Energy>  (2) 
56.47456474307092

>  <Genealogy>  (2) 
CCN(CC)CCOCCNc1cc[n+](C)c2ccccc12 (3D coordinates assigned)
CCN(CC)CCOCCNc1cc[n+](C)c2ccccc12 (optimized conformer: 56.47456474307092 kcal/mol)

>  <smiles>  (2) 
CCN(CC)CCOCCNc1cc[n+](C)c2ccccc12

>  <score_type>  (2) 
oracle

>  <origin>  (2) 
adg

>  <m_score__min__energy>  (2) 
-5.4699999999999998

>  <m_primary>  (2) 
energy

$$$$
2:0
     RDKit          3D

 45 46  0  0  0  0  0  0  0  0999 V2000
   55.3990   29.7400   43.5910 C   0  0  0  0  0  0  0  0  0  0  0  0
   55.5190   29.1540   44.8680 O   0  0  0  0  0  0  0  0  0  0  0  0
   56.8720   29.1850   45.2750 C   0  0  0  0  0  0  0  0  0  0  0  0
   57.6290   30.2920   44.5150 C   0  0  0  0  0  0  0  0  0  0  0  0
   57.5970   31.6290   45.1510 N   0  0  0  0  0  0  0  0  0  0  0  0
   58.2000   31.6530   46.4950 C   0  0  0  0  0  0  0  0  0  0  0  0
   57.8200   32.9470   47.2190 C   0  0  0  0  0  0  0  0  0  0  0  0
   58.0850   34.2290   46.3920 C   0  0  0  0  0  0  0  0  0  0  0  0
   59.4380   34.9200   46.7020 C   0  0  0  0  0  0  0  0  0  0  0  0
   60.3050   34.1780   47.6170 N   0  0  0  0  0  0  0  0  0  0  0  0
   61.5860   33.6930   47.1880 C   0  0  0  0  0  0  0  0  0  0  0  0
   61.9170   33.7850   45.9750 O   0  0  0  0  0  0  0  0  0  0  0  0
   62.5070   33.0270   48.1320 C   0  0  0  0  0  0  0  0  0  0  0  0
   63.7570   33.5160   48.4670 C   0  0  0  0  0  0  0  0  0  0  0  0
   64.2960   32.6160   49.3620 C   0  0  0  0  0  0  0  0  0  0  0  0
   66.0130   32.7300   50.1840 Br  0  0  0  0  0  0  0  0  0  0  0  0
   63.3610   31.6220   49.5550 C   0  0  0  0  0  0  0  0  0  0  0  0
   62.2640   31.8820   48.8170 N   0  0  0  0  0  0  0  0  0  0  0  0
   61.0560   31.0590   48.8100 C   0  0  0  0  0  0  0  0  0  0  0  0
   57.7770   34.0730   44.8800 C   0  0  0  0  0  0  0  0  0  0  0  0
   58.1420   32.7010   44.3020 C   0  0  0  0  0  0  0  0  0  0  0  0
   55.1794   30.8124   43.6989 H   0  0  0  0  0  0  0  0  0  0  0  0
   56.3419   29.6125   43.0390 H   0  0  0  0  0  0  0  0  0  0  0  0
   54.5821   29.2522   43.0390 H   0  0  0  0  0  0  0  0  0  0  0  0
   56.9224   29.3858   46.3554 H   0  0  0  0  0  0  0  0  0  0  0  0
   57.3370   28.2133   45.0526 H   0  0  0  0  0  0  0  0  0  0  0  0
   58.6810   29.9837   44.4237 H   0  0  0  0  0  0  0  0  0  0  0  0
   57.1177   30.4021   43.5473 H   0  0  0  0  0  0  0  0  0  0  0  0
   57.8343   30.7917   47.0733 H   0  0  0  0  0  0  0  0  0  0  0  0
   59.2947   31.6021   46.3994 H   0  0  0  0  0  0  0  0  0  0  0  0
   56.7478   32.9064   47.4612 H   0  0  0  0  0  0  0  0  0  0  0  0
   58.4533   33.0089   48.1163 H   0  0  0  0  0  0  0  0  0  0  0  0
   57.3351   34.9491   46.7512 H   0  0  0  0  0  0  0  0  0  0  0  0
   59.9780   35.0580   45.7537 H   0  0  0  0  0  0  0  0  0  0  0  0
   59.1959   35.8691   47.2026 H   0  0  0  0  0  0  0  0  0  0  0  0
   59.9830   33.9250   48.5680 H   0  0  0  0  0  0  0  0  0  0  0  0
   64.2268   34.4381   48.0941 H   0  0  0  0  0  0  0  0  0  0  0  0
   63.4906   30.7491   50.2117 H   0  0  0  0  0  0  0  0  0  0  0  0
   60.7489   30.8498   49.8453 H   0  0  0  0  0  0  0  0  0  0  0  0
   60.2493   31.5962   48.2897 H   0  0  0  0  0  0  0  0  0  0  0  0
   61.2607   30.1117   48.2897 H   0  0  0  0  0  0  0  0  0  0  0  0
   56.6996   34.2352   44.7290 H   0  0  0  0  0  0  0  0  0  0  0  0
   58.3977   34.8128   44.3533 H   0  0  0  0  0  0  0  0  0  0  0  0
   57.7228   32.6105   43.2890 H   0  0  0  0  0  0  0  0  0  0  0  0
   59.2374   32.6074   44.2655 H   0  0  0  0  0  0  0  0  0  0  0  0
  1  2  1  0
  2  3  1  0
  3  4  1  0
  4  5  1  0
  5  6  1  0
  6  7  1  0
  7  8  1  0
  8  9  1  0
  9 10  1  0
 10 11  1  0
 11 12  2  0
 11 13  1  0
 13 14  2  0
 14 15  1  0
 15 16  1  0
 15 17  2  0
 17 18  1  0
 18 19  1  0
  8 20  1  0
 20 21  1  0
 21  5  1  0
 18 13  1  0
  1 22  1  0
  1 23  1  0
  1 24  1  0
  3 25  1  0
  3 26  1  0
  4 27  1  0
  4 28  1  0
  6 29  1  0
  6 30  1  0
  7 31  1  0
  7 32  1  0
  8 33  1  0
  9 34  1  0
  9 35  1  0
 10 36  1  0
 14 37  1  0
 17 38  1  0
 19 39  1  0
 19 40  1  0
 19 41  1  0
 20 42  1  0
 20 43  1  0
 21 44  1  0
 21 45  1  0
M  END
>  <UniqueID>  (3) 
3

>  <SMILES>  (3) 
COCCN1CCC(CNC(=O)c2cc(Br)cn2C)CC1

>  <Energy>  (3) 
75.74143728967783

>  <Genealogy>  (3) 
COCCN1CCC(CNC(=O)c2cc(Br)cn2C)CC1 (3D coordinates assigned)
COCCN1CCC(CNC(=O)c2cc(Br)cn2C)CC1 (nonaromatic ring conformer: 75.74143728967783 kcal/mol)

>  <smiles>  (3) 
COCCN1CCC(CNC(=O)c2cc(Br)cn2C)CC1

>  <score_type>  (3) 
oracle

>  <origin>  (3) 
adg

>  <m_score__min__energy>  (3) 
-7.6799999999999997

>  <m_primary>  (3) 
energy

$$$$
3:0
     RDKit          3D

 64 66  0  0  0  0  0  0  0  0999 V2000
   56.5640   30.0460   42.6410 C   0  0  0  0  0  0  0  0  0  0  0  0
   55.9420   30.3730   43.9980 C   0  0  0  0  0  0  0  0  0  0  0  0
   56.9740   30.5350   45.0500 N   0  0  0  0  0  0  0  0  0  0  0  0
   57.9610   29.4330   44.9650 C   0  0  0  0  0  0  0  0  0  0  0  0
   57.3930   28.1460   45.5590 C   0  0  0  0  0  0  0  0  0  0  0  0
   57.6370   31.8640   44.9760 C   0  0  0  0  0  0  0  0  0  0  0  0
   58.2910   32.2060   46.3140 C   0  0  0  0  0  0  0  0  0  0  0  0
   59.5320   32.8470   46.0950 O   0  0  0  0  0  0  0  0  0  0  0  0
   59.4770   34.1540   46.6280 C   0  0  0  0  0  0  0  0  0  0  0  0
   60.4410   34.2830   47.8130 C   0  0  0  0  0  0  0  0  0  0  0  0
   61.0890   32.9960   48.1360 N   0  0  0  0  0  0  0  0  0  0  0  0
   61.2420   32.8240   49.5750 C   0  0  0  0  0  0  0  0  0  0  0  0
   60.0710   32.5660   50.3520 C   0  0  0  0  0  0  0  0  0  0  0  0
   58.8130   32.2940   49.7490 C   0  0  0  0  0  0  0  0  0  0  0  0
   57.6800   32.0410   50.5170 C   0  0  0  0  0  0  0  0  0  0  0  0
   57.7650   32.0330   51.9000 C   0  0  0  0  0  0  0  0  0  0  0  0
   58.9830   32.2910   52.5210 C   0  0  0  0  0  0  0  0  0  0  0  0
   60.1490   32.5810   51.7670 C   0  0  0  0  0  0  0  0  0  0  0  0
   61.3430   32.8530   52.3860 N   0  0  0  0  0  0  0  0  0  0  0  0
   61.3590   33.2190   53.8220 C   0  0  0  0  0  0  0  0  0  0  0  0
   62.5210   32.7930   51.6740 C   0  0  0  0  0  0  0  0  0  0  0  0
   63.7420   32.6480   52.3640 C   0  0  0  0  0  0  0  0  0  0  0  0
   64.9550   32.6710   51.7080 C   0  0  0  0  0  0  0  0  0  0  0  0
   65.0140   32.8450   50.3290 C   0  0  0  0  0  0  0  0  0  0  0  0
   66.2980   32.9480   49.6700 N   0  0  0  0  0  0  0  0  0  0  0  0
   67.5220   33.3700   50.3450 C   0  0  0  0  0  0  0  0  0  0  0  0
   63.8110   32.9230   49.5820 C   0  0  0  0  0  0  0  0  0  0  0  0
   63.9500   33.0850   48.1690 N   0  0  0  0  0  0  0  0  0  0  0  0
   63.7700   34.2130   47.6720 O   0  0  0  0  0  0  0  0  0  0  0  0
   63.7580   31.9790   47.3740 O   0  0  0  0  0  0  0  0  0  0  0  0
   62.5230   32.8550   50.2420 C   0  0  0  0  0  0  0  0  0  0  0  0
   57.5284   29.5390   42.7923 H   0  0  0  0  0  0  0  0  0  0  0  0
   55.8877   29.3868   42.0769 H   0  0  0  0  0  0  0  0  0  0  0  0
   56.7236   30.9768   42.0769 H   0  0  0  0  0  0  0  0  0  0  0  0
   55.3708   31.3091   43.9119 H   0  0  0  0  0  0  0  0  0  0  0  0
   55.2878   29.5367   44.2856 H   0  0  0  0  0  0  0  0  0  0  0  0
   58.2176   29.2599   43.9094 H   0  0  0  0  0  0  0  0  0  0  0  0
   58.8567   29.7184   45.5362 H   0  0  0  0  0  0  0  0  0  0  0  0
   57.4195   28.2060   46.6570 H   0  0  0  0  0  0  0  0  0  0  0  0
   56.3535   28.0151   45.2239 H   0  0  0  0  0  0  0  0  0  0  0  0
   57.9969   27.2898   45.2239 H   0  0  0  0  0  0  0  0  0  0  0  0
   58.4071   31.8421   44.1908 H   0  0  0  0  0  0  0  0  0  0  0  0
   56.8813   32.6282   44.7416 H   0  0  0  0  0  0  0  0  0  0  0  0
   57.6296   32.8768   46.8820 H   0  0  0  0  0  0  0  0  0  0  0  0
   58.4583   31.2789   46.8819 H   0  0  0  0  0  0  0  0  0  0  0  0
   59.7605   34.8766   45.8486 H   0  0  0  0  0  0  0  0  0  0  0  0
   58.4530   34.3578   46.9742 H   0  0  0  0  0  0  0  0  0  0  0  0
   61.2182   35.0195   47.5611 H   0  0  0  0  0  0  0  0  0  0  0  0
   59.8617   34.6039   48.6914 H   0  0  0  0  0  0  0  0  0  0  0  0
   60.6040   32.2000   47.6840 H   0  0  0  0  0  0  0  0  0  0  0  0
   62.0270   32.9330   47.6800 H   0  0  0  0  0  0  0  0  0  0  0  0
   58.7331   32.2832   48.6520 H   0  0  0  0  0  0  0  0  0  0  0  0
   56.7154   31.8471   50.0251 H   0  0  0  0  0  0  0  0  0  0  0  0
   56.8712   31.8231   52.5058 H   0  0  0  0  0  0  0  0  0  0  0  0
   59.0430   32.2697   53.6192 H   0  0  0  0  0  0  0  0  0  0  0  0
   61.3191   32.3056   54.4337 H   0  0  0  0  0  0  0  0  0  0  0  0
   62.2822   33.7723   54.0491 H   0  0  0  0  0  0  0  0  0  0  0  0
   60.4876   33.8508   54.0491 H   0  0  0  0  0  0  0  0  0  0  0  0
   63.7267   32.5128   53.4556 H   0  0  0  0  0  0  0  0  0  0  0  0
   65.8859   32.5505   52.2814 H   0  0  0  0  0  0  0  0  0  0  0  0
   66.3940   32.7020   48.6610 H   0  0  0  0  0  0  0  0  0  0  0  0
   67.3761   33.3197   51.4341 H   0  0  0  0  0  0  0  0  0  0  0  0
   68.3488   32.7050   50.0547 H   0  0  0  0  0  0  0  0  0  0  0  0
   67.7633   34.4032   50.0547 H   0  0  0  0  0  0  0  0  0  0  0  0
  1  2  1  0
  2  3  1  0
  3  4  1  0
  4  5  1  0
  3  6  1  0
  6  7  1  0
  7  8  1  0
  8  9  1  0
  9 10  1  0
 10 11  1  0
 11 12  1  0
 12 13  2  0
 13 14  1  0
 14 15  2  0
 15 16  1  0
 16 17  2  0
 17 18  1  0
 18 19  2  0
 19 20  1  0
 19 21  1  0
 21 22  2  0
 22 23  1  0
 23 24  2  0
 24 25  1  0
 25 26  1  0
 24 27  1  0
 27 28  1  0
 28 29  2  0
 28 30  1  0
 27 31  2  0
 31 12  1  0
 18 13  1  0
 31 21  1  0
  1 32  1  0
  1 33  1  0
  1 34  1  0
  2 35  1  0
  2 36  1  0
  4 37  1  0
  4 38  1  0
  5 39  1  0
  5 40  1  0
  5 41  1  0
  6 42  1  0
  6 43  1  0
  7 44  1  0
  7 45  1  0
  9 46  1  0
  9 47  1  0
 10 48  1  0
 10 49  1  0
 11 50  1  0
 11 51  1  0
 14 52  1  0
 15 53  1  0
 16 54  1  0
 17 55  1  0
 20 56  1  0
 20 57  1  0
 20 58  1  0
 22 59  1  0
 23 60  1  0
 25 61  1  0
 26 62  1  0
 26 63  1  0
 26 64  1  0
M  CHG  4  11   1  19   1  28   1  30  -1
M  END
>  <UniqueID>  (4) 
4

>  <SMILES>  (4) 
CCN(CC)CCOCC[NH2+]c1c2ccccc2[n+](C)c2ccc(NC)c([N+](=O)[O-])c12

>  <Energy>  (4) 
110.35477276769527

>  <Genealogy>  (4) 
CCN(CC)CCOCC[NH2+]c1c2ccccc2[n+](C)c2ccc(NC)c([N+](=O)[O-])c12 (protonated)
CCN(CC)CCOCC[NH2+]c1c2ccccc2[n+](C)c2ccc(NC)c([N+](=O)[O-])c12 (3D coordinates assigned)
CCN(CC)CCOCC[NH2+]c1c2ccccc2[n+](C)c2ccc(NC)c([N+](=O)[O-])c12 (optimized conformer: 110.35477276769527 kcal/mol)

>  <smiles>  (4) 
CCN(CC)CCOCCNc1c2ccccc2[n+](C)c2ccc(NC)c([N+](=O)[O-])c12

>  <score_type>  (4) 
oracle

>  <origin>  (4) 
adg

>  <m_score__min__energy>  (4) 
-4.2199999999999998

>  <m_primary>  (4) 
energy

$$$$
4:0
     RDKit          3D

 44 46  0  0  0  0  0  0  0  0999 V2000
   59.7320   27.6770   46.0770 C   0  0  0  0  0  0  0  0  0  0  0  0
   58.2880   27.2280   46.2760 C   0  0  0  0  0  0  0  0  0  0  0  0
   57.4560   27.4650   45.0070 C   0  0  0  0  0  0  0  0  0  0  0  0
   58.0050   28.6320   44.1740 C   0  0  0  0  0  0  0  0  0  0  0  0
   57.1570   29.8300   44.3000 N   0  0  0  0  0  0  0  0  0  0  0  0
   55.7640   29.7890   43.8400 C   0  0  0  0  0  0  0  0  0  0  0  0
   57.6820   31.0540   44.8600 C   0  0  0  0  0  0  0  0  0  0  0  0
   56.9670   32.2630   44.7400 C   0  0  0  0  0  0  0  0  0  0  0  0
   57.4710   33.4460   45.2900 C   0  0  0  0  0  0  0  0  0  0  0  0
   58.6930   33.4360   45.9660 C   0  0  0  0  0  0  0  0  0  0  0  0
   59.1950   34.5760   46.5080 N   0  0  0  0  0  0  0  0  0  0  0  0
   60.3830   34.5780   47.1700 C   0  0  0  0  0  0  0  0  0  0  0  0
   61.1100   33.3820   47.2990 C   0  0  0  0  0  0  0  0  0  0  0  0
   62.4060   33.3320   48.0060 C   0  0  0  0  0  0  0  0  0  0  0  0
   63.6570   33.0200   47.4910 C   0  0  0  0  0  0  0  0  0  0  0  0
   64.5600   33.1070   48.4840 N   0  0  0  0  0  0  0  0  0  0  0  0
   63.9340   33.4460   49.6000 N   0  0  0  0  0  0  0  0  0  0  0  0
   64.6010   33.7140   50.8690 C   0  0  0  0  0  0  0  0  0  0  0  0
   62.6220   33.6040   49.3460 C   0  0  0  0  0  0  0  0  0  0  0  0
   60.6020   32.2420   46.7530 N   0  0  0  0  0  0  0  0  0  0  0  0
   59.4170   32.2360   46.0910 C   0  0  0  0  0  0  0  0  0  0  0  0
   58.9150   31.0540   45.5400 C   0  0  0  0  0  0  0  0  0  0  0  0
   60.2083   27.8251   47.0574 H   0  0  0  0  0  0  0  0  0  0  0  0
   60.2812   26.9072   45.5150 H   0  0  0  0  0  0  0  0  0  0  0  0
   59.7479   28.6225   45.5150 H   0  0  0  0  0  0  0  0  0  0  0  0
   58.2755   26.1552   46.5188 H   0  0  0  0  0  0  0  0  0  0  0  0
   57.8493   27.8149   47.0964 H   0  0  0  0  0  0  0  0  0  0  0  0
   57.4731   26.5515   44.3945 H   0  0  0  0  0  0  0  0  0  0  0  0
   56.4300   27.7170   45.3133 H   0  0  0  0  0  0  0  0  0  0  0  0
   59.0198   28.8739   44.5227 H   0  0  0  0  0  0  0  0  0  0  0  0
   58.0169   28.3267   43.1173 H   0  0  0  0  0  0  0  0  0  0  0  0
   55.0910   29.7692   44.7099 H   0  0  0  0  0  0  0  0  0  0  0  0
   55.5520   30.6813   43.2327 H   0  0  0  0  0  0  0  0  0  0  0  0
   55.6048   28.8858   43.2327 H   0  0  0  0  0  0  0  0  0  0  0  0
   56.0038   32.2761   44.2089 H   0  0  0  0  0  0  0  0  0  0  0  0
   56.9051   34.3840   45.1902 H   0  0  0  0  0  0  0  0  0  0  0  0
   60.7731   35.5112   47.6024 H   0  0  0  0  0  0  0  0  0  0  0  0
   63.8731   32.7477   46.4474 H   0  0  0  0  0  0  0  0  0  0  0  0
   65.5890   32.9490   48.3980 H   0  0  0  0  0  0  0  0  0  0  0  0
   63.9314   33.4449   51.6992 H   0  0  0  0  0  0  0  0  0  0  0  0
   65.5222   33.1162   50.9325 H   0  0  0  0  0  0  0  0  0  0  0  0
   64.8525   34.7830   50.9325 H   0  0  0  0  0  0  0  0  0  0  0  0
   61.8542   33.8983   50.0766 H   0  0  0  0  0  0  0  0  0  0  0  0
   59.4859   30.1189   45.6380 H   0  0  0  0  0  0  0  0  0  0  0  0
  1  2  1  0
  2  3  1  0
  3  4  1  0
  4  5  1  0
  5  6  1  0
  5  7  1  0
  7  8  2  0
  8  9  1  0
  9 10  2  0
 10 11  1  0
 11 12  2  0
 12 13  1  0
 13 14  1  0
 14 15  1  0
 15 16  2  0
 16 17  1  0
 17 18  1  0
 17 19  1  0
 13 20  2  0
 20 21  1  0
 21 22  2  0
 22  7  1  0
 21 10  1  0
 19 14  2  0
  1 23  1  0
  1 24  1  0
  1 25  1  0
  2 26  1  0
  2 27  1  0
  3 28  1  0
  3 29  1  0
  4 30  1  0
  4 31  1  0
  6 32  1  0
  6 33  1  0
  6 34  1  0
  8 35  1  0
  9 36  1  0
 12 37  1  0
 15 38  1  0
 16 39  1  0
 18 40  1  0
 18 41  1  0
 18 42  1  0
 19 43  1  0
 22 44  1  0
M  CHG  1  16   1
M  END
>  <UniqueID>  (5) 
5

>  <SMILES>  (5) 
CCCCN(C)c1ccc2ncc(-c3c[nH+]n(C)c3)nc2c1

>  <Energy>  (5) 
74.59622359881833

>  <Genealogy>  (5) 
CCCCN(C)c1ccc2ncc(-c3c[nH+]n(C)c3)nc2c1 (protonated)
CCCCN(C)c1ccc2ncc(-c3c[nH+]n(C)c3)nc2c1 (3D coordinates assigned)
CCCCN(C)c1ccc2ncc(-c3c[nH+]n(C)c3)nc2c1 (optimized conformer: 74.59622359881833 kcal/mol)

>  <smiles>  (5) 
CCCCN(C)c1ccc2ncc(-c3cnn(C)c3)nc2c1

>  <score_type>  (5) 
oracle

>  <origin>  (5) 
adg

>  <m_score__min__energy>  (5) 
-5.96

>  <m_primary>  (5) 
energy

$$$$
5:0
     RDKit          3D

 44 45  0  0  0  0  0  0  0  0999 V2000
   63.2760   33.6910   46.7280 C   0  0  0  0  0  0  0  0  0  0  0  0
   62.0980   33.7030   47.6950 C   0  0  0  0  0  0  0  0  0  0  0  0
   61.0400   32.8730   47.2150 O   0  0  0  0  0  0  0  0  0  0  0  0
   59.8350   33.3180   46.6420 C   0  0  0  0  0  0  0  0  0  0  0  0
   59.8040   34.0200   45.4190 C   0  0  0  0  0  0  0  0  0  0  0  0
   58.5890   34.4430   44.8760 C   0  0  0  0  0  0  0  0  0  0  0  0
   57.3930   34.1710   45.5370 C   0  0  0  0  0  0  0  0  0  0  0  0
   57.4060   33.4740   46.7450 C   0  0  0  0  0  0  0  0  0  0  0  0
   58.6200   33.0450   47.3090 C   0  0  0  0  0  0  0  0  0  0  0  0
   58.5870   32.2750   48.6060 C   0  0  0  0  0  0  0  0  0  0  0  0
   58.5200   30.8410   48.3420 N   0  0  0  0  0  0  0  0  0  0  0  0
   59.4170   29.8850   48.9120 C   0  0  0  0  0  0  0  0  0  0  0  0
   59.1510   29.3350   50.0150 O   0  0  0  0  0  0  0  0  0  0  0  0
   60.6550   29.4940   48.1660 C   0  0  0  0  0  0  0  0  0  0  0  0
   60.8580   30.3810   47.0090 N   0  0  0  0  0  0  0  0  0  0  0  0
   60.6580   29.6750   45.7320 C   0  0  0  0  0  0  0  0  0  0  0  0
   59.1960   29.5620   45.3730 C   0  0  0  0  0  0  0  0  0  0  0  0
   58.5360   30.6220   44.7280 C   0  0  0  0  0  0  0  0  0  0  0  0
   57.1770   30.5210   44.4170 C   0  0  0  0  0  0  0  0  0  0  0  0
   56.4650   29.3650   44.7510 C   0  0  0  0  0  0  0  0  0  0  0  0
   55.1460   29.2690   44.4500 F   0  0  0  0  0  0  0  0  0  0  0  0
   57.1130   28.3080   45.3980 C   0  0  0  0  0  0  0  0  0  0  0  0
   58.4720   28.4050   45.7100 C   0  0  0  0  0  0  0  0  0  0  0  0
   64.2174   33.6814   47.2970 H   0  0  0  0  0  0  0  0  0  0  0  0
   63.2213   32.7934   46.0946 H   0  0  0  0  0  0  0  0  0  0  0  0
   63.2396   34.5896   46.0946 H   0  0  0  0  0  0  0  0  0  0  0  0
   62.4319   33.3312   48.6749 H   0  0  0  0  0  0  0  0  0  0  0  0
   61.7250   34.7340   47.7837 H   0  0  0  0  0  0  0  0  0  0  0  0
   60.7436   34.2358   44.8892 H   0  0  0  0  0  0  0  0  0  0  0  0
   58.5761   34.9927   43.9233 H   0  0  0  0  0  0  0  0  0  0  0  0
   56.4381   34.5061   45.1059 H   0  0  0  0  0  0  0  0  0  0  0  0
   56.4586   33.2582   47.2606 H   0  0  0  0  0  0  0  0  0  0  0  0
   59.4975   32.4957   49.1824 H   0  0  0  0  0  0  0  0  0  0  0  0
   57.6969   32.5756   49.1781 H   0  0  0  0  0  0  0  0  0  0  0  0
   61.5225   29.5704   48.8380 H   0  0  0  0  0  0  0  0  0  0  0  0
   60.5444   28.4598   47.8079 H   0  0  0  0  0  0  0  0  0  0  0  0
   60.1620   31.1630   47.0570 H   0  0  0  0  0  0  0  0  0  0  0  0
   61.8190   30.7950   47.0400 H   0  0  0  0  0  0  0  0  0  0  0  0
   61.1780   30.2272   44.9353 H   0  0  0  0  0  0  0  0  0  0  0  0
   61.0620   28.6575   45.8386 H   0  0  0  0  0  0  0  0  0  0  0  0
   59.0912   31.5350   44.4668 H   0  0  0  0  0  0  0  0  0  0  0  0
   56.6668   31.3524   43.9086 H   0  0  0  0  0  0  0  0  0  0  0  0
   56.5524   27.3990   45.6617 H   0  0  0  0  0  0  0  0  0  0  0  0
   58.9772   27.5724   46.2214 H   0  0  0  0  0  0  0  0  0  0  0  0
  1  2  1  0
  2  3  1  0
  3  4  1  0
  4  5  2  0
  5  6  1  0
  6  7  2  0
  7  8  1  0
  8  9  2  0
  9 10  1  0
 10 11  1  0
 11 12  1  0
 12 13  2  0
 12 14  1  0
 14 15  1  0
 15 16  1  0
 16 17  1  0
 17 18  2  0
 18 19  1  0
 19 20  2  0
 20 21  1  0
 20 22  1  0
 22 23  2  0
  9  4  1  0
 23 17  1  0
  1 24  1  0
  1 25  1  0
  1 26  1  0
  2 27  1  0
  2 28  1  0
  5 29  1  0
  6 30  1  0
  7 31  1  0
  8 32  1  0
 10 33  1  0
 10 34  1  0
 14 35  1  0
 14 36  1  0
 15 37  1  0
 15 38  1  0
 16 39  1  0
 16 40  1  0
 18 41  1  0
 19 42  1  0
 22 43  1  0
 23 44  1  0
M  CHG  2  11  -1  15   1
M  END
>  <UniqueID>  (6) 
6

>  <SMILES>  (6) 
CCOc1ccccc1C[N-]C(=O)C[NH2+]Cc1ccc(F)cc1

>  <Energy>  (6) 
38.66279222267995

>  <Genealogy>  (6) 
CCOc1ccccc1C[N-]C(=O)C[NH2+]Cc1ccc(F)cc1 (protonated)
CCOc1ccccc1C[N-]C(=O)C[NH2+]Cc1ccc(F)cc1 (3D coordinates assigned)
CCOc1ccccc1C[N-]C(=O)C[NH2+]Cc1ccc(F)cc1 (optimized conformer: 38.66279222267995 kcal/mol)

>  <smiles>  (6) 
CCOc1ccccc1CNC(=O)CNCc1ccc(F)cc1

>  <score_type>  (6) 
oracle

>  <origin>  (6) 
adg

>  <m_score__min__energy>  (6) 
-7.2400000000000002

>  <m_primary>  (6) 
energy

$$$$
6:0
     RDKit          3D

 62 65  0  0  0  0  0  0  0  0999 V2000
   61.5910   30.9620   46.9050 C   0  0  0  0  0  0  0  0  0  0  0  0
   62.4260   32.0070   47.4940 N   0  0  0  0  0  0  0  0  0  0  0  0
   62.9530   33.0480   46.8200 C   0  0  0  0  0  0  0  0  0  0  0  0
   63.6950   33.8380   47.6750 C   0  0  0  0  0  0  0  0  0  0  0  0
   63.6160   33.2510   48.9230 C   0  0  0  0  0  0  0  0  0  0  0  0
   62.8270   32.1230   48.7820 C   0  0  0  0  0  0  0  0  0  0  0  0
   62.5000   31.1920   49.8830 C   0  0  0  0  0  0  0  0  0  0  0  0
   63.4170   30.6260   50.5360 O   0  0  0  0  0  0  0  0  0  0  0  0
   61.1280   30.9340   50.2030 N   0  0  0  0  0  0  0  0  0  0  0  0
   60.6400   29.6540   50.7020 C   0  0  0  0  0  0  0  0  0  0  0  0
   60.9270   28.5410   49.6740 C   0  0  0  0  0  0  0  0  0  0  0  0
   59.7360   28.0960   48.9200 N   0  0  0  0  0  0  0  0  0  0  0  0
   59.9020   26.7740   48.2760 C   0  0  0  0  0  0  0  0  0  0  0  0
   58.7230   26.4690   47.3510 C   0  0  0  0  0  0  0  0  0  0  0  0
   58.6480   27.4880   46.1860 C   0  0  0  0  0  0  0  0  0  0  0  0
   57.1980   27.6450   45.6800 C   0  0  0  0  0  0  0  0  0  0  0  0
   57.1420   28.4780   44.4800 N   0  0  0  0  0  0  0  0  0  0  0  0
   56.3840   29.6850   44.3130 C   0  0  0  0  0  0  0  0  0  0  0  0
   55.2580   29.7670   44.8730 O   0  0  0  0  0  0  0  0  0  0  0  0
   56.8610   30.8320   43.4590 C   0  0  0  0  0  0  0  0  0  0  0  0
   57.6230   31.8350   44.2860 C   0  0  0  0  0  0  0  0  0  0  0  0
   58.1550   32.9890   43.6910 C   0  0  0  0  0  0  0  0  0  0  0  0
   58.8440   33.9300   44.4590 C   0  0  0  0  0  0  0  0  0  0  0  0
   59.0000   33.7360   45.8390 C   0  0  0  0  0  0  0  0  0  0  0  0
   59.6890   34.6760   46.6210 C   0  0  0  0  0  0  0  0  0  0  0  0
   59.8360   34.4720   47.9970 C   0  0  0  0  0  0  0  0  0  0  0  0
   59.2980   33.3330   48.6000 C   0  0  0  0  0  0  0  0  0  0  0  0
   58.6080   32.3890   47.8340 C   0  0  0  0  0  0  0  0  0  0  0  0
   58.4540   32.5810   46.4510 C   0  0  0  0  0  0  0  0  0  0  0  0
   57.7670   31.6400   45.6700 C   0  0  0  0  0  0  0  0  0  0  0  0
   59.2540   28.8610   46.5740 C   0  0  0  0  0  0  0  0  0  0  0  0
   59.1090   29.1470   48.0770 C   0  0  0  0  0  0  0  0  0  0  0  0
   61.1206   30.3733   47.7064 H   0  0  0  0  0  0  0  0  0  0  0  0
   60.8103   31.4237   46.2827 H   0  0  0  0  0  0  0  0  0  0  0  0
   62.2136   30.3024   46.2827 H   0  0  0  0  0  0  0  0  0  0  0  0
   62.8126   33.2401   45.7461 H   0  0  0  0  0  0  0  0  0  0  0  0
   64.2423   34.7557   47.4136 H   0  0  0  0  0  0  0  0  0  0  0  0
   64.0885   33.6105   49.8490 H   0  0  0  0  0  0  0  0  0  0  0  0
   61.1473   29.4150   51.6483 H   0  0  0  0  0  0  0  0  0  0  0  0
   59.5544   29.7215   50.8663 H   0  0  0  0  0  0  0  0  0  0  0  0
   61.6703   28.9172   48.9557 H   0  0  0  0  0  0  0  0  0  0  0  0
   61.2879   27.6702   50.2409 H   0  0  0  0  0  0  0  0  0  0  0  0
   60.8315   26.7735   47.6877 H   0  0  0  0  0  0  0  0  0  0  0  0
   59.9444   26.0029   49.0593 H   0  0  0  0  0  0  0  0  0  0  0  0
   58.8446   25.4576   46.9360 H   0  0  0  0  0  0  0  0  0  0  0  0
   57.7939   26.5387   47.9357 H   0  0  0  0  0  0  0  0  0  0  0  0
   59.2577   27.0857   45.3636 H   0  0  0  0  0  0  0  0  0  0  0  0
   56.7906   26.6505   45.4453 H   0  0  0  0  0  0  0  0  0  0  0  0
   56.6056   28.1317   46.4687 H   0  0  0  0  0  0  0  0  0  0  0  0
   57.5188   30.4431   42.6677 H   0  0  0  0  0  0  0  0  0  0  0  0
   55.9853   31.3312   43.0185 H   0  0  0  0  0  0  0  0  0  0  0  0
   58.0283   33.1538   42.6108 H   0  0  0  0  0  0  0  0  0  0  0  0
   59.2656   34.8260   43.9800 H   0  0  0  0  0  0  0  0  0  0  0  0
   60.1143   35.5750   46.1509 H   0  0  0  0  0  0  0  0  0  0  0  0
   60.3771   35.2111   48.6061 H   0  0  0  0  0  0  0  0  0  0  0  0
   59.4177   33.1780   49.6824 H   0  0  0  0  0  0  0  0  0  0  0  0
   58.1851   31.4946   48.3148 H   0  0  0  0  0  0  0  0  0  0  0  0
   57.3386   30.7444   46.1437 H   0  0  0  0  0  0  0  0  0  0  0  0
   60.3225   28.8648   46.3127 H   0  0  0  0  0  0  0  0  0  0  0  0
   58.7086   29.6421   46.0241 H   0  0  0  0  0  0  0  0  0  0  0  0
   59.5890   30.1112   48.3004 H   0  0  0  0  0  0  0  0  0  0  0  0
   58.0344   29.1660   48.3112 H   0  0  0  0  0  0  0  0  0  0  0  0
  1  2  1  0
  2  3  1  0
  3  4  2  0
  4  5  1  0
  5  6  2  0
  6  7  1  0
  7  8  2  0
  7  9  1  0
  9 10  1  0
 10 11  1  0
 11 12  1  0
 12 13  1  0
 13 14  1  0
 14 15  1  0
 15 16  1  0
 16 17  1  0
 17 18  1  0
 18 19  2  0
 18 20  1  0
 20 21  1  0
 21 22  2  0
 22 23  1  0
 23 24  2  0
 24 25  1  0
 25 26  2  0
 26 27  1  0
 27 28  2  0
 28 29  1  0
 29 30  2  0
 15 31  1  0
 31 32  1  0
  6  2  1  0
 32 12  1  0
 30 21  1  0
 29 24  1  0
  1 33  1  0
  1 34  1  0
  1 35  1  0
  3 36  1  0
  4 37  1  0
  5 38  1  0
 10 39  1  0
 10 40  1  0
 11 41  1  0
 11 42  1  0
 13 43  1  0
 13 44  1  0
 14 45  1  0
 14 46  1  0
 15 47  1  0
 16 48  1  0
 16 49  1  0
 20 50  1  0
 20 51  1  0
 22 52  1  0
 23 53  1  0
 25 54  1  0
 26 55  1  0
 27 56  1  0
 28 57  1  0
 30 58  1  0
 31 59  1  0
 31 60  1  0
 32 61  1  0
 32 62  1  0
M  CHG  2   9  -1  17  -1
M  END
>  <UniqueID>  (7) 
7

>  <SMILES>  (7) 
Cn1cccc1C(=O)[N-]CCN1CCC(C[N-]C(=O)Cc2ccc3ccccc3c2)CC1

>  <Energy>  (7) 
98.4166937668534

>  <Genealogy>  (7) 
Cn1cccc1C(=O)[N-]CCN1CCC(C[N-]C(=O)Cc2ccc3ccccc3c2)CC1 (protonated)
Cn1cccc1C(=O)[N-]CCN1CCC(C[N-]C(=O)Cc2ccc3ccccc3c2)CC1 (3D coordinates assigned)
Cn1cccc1C(=O)[N-]CCN1CCC(C[N-]C(=O)Cc2ccc3ccccc3c2)CC1 (nonaromatic ring conformer: 98.4166937668534 kcal/mol)

>  <smiles>  (7) 
Cn1cccc1C(=O)NCCN1CCC(CNC(=O)Cc2ccc3ccccc3c2)CC1

>  <score_type>  (7) 
oracle

>  <origin>  (7) 
adg

>  <m_score__min__energy>  (7) 
-13.01

>  <m_primary>  (7) 
energy

$$$$
7:0
     RDKit          3D

 61 64  0  0  0  0  0  0  0  0999 V2000
   54.2960   24.4660   45.6140 C   0  0  0  0  0  0  0  0  0  0  0  0
   55.6950   25.0690   45.7170 C   0  0  0  0  0  0  0  0  0  0  0  0
   55.6240   26.4830   45.9100 O   0  0  0  0  0  0  0  0  0  0  0  0
   56.7200   27.3470   46.0890 C   0  0  0  0  0  0  0  0  0  0  0  0
   57.8840   26.9560   46.7810 C   0  0  0  0  0  0  0  0  0  0  0  0
   58.9500   27.8510   46.9300 C   0  0  0  0  0  0  0  0  0  0  0  0
   58.8820   29.1220   46.3620 C   0  0  0  0  0  0  0  0  0  0  0  0
   57.7360   29.5180   45.6610 C   0  0  0  0  0  0  0  0  0  0  0  0
   56.6430   28.6360   45.5320 C   0  0  0  0  0  0  0  0  0  0  0  0
   55.4660   28.9910   44.8470 O   0  0  0  0  0  0  0  0  0  0  0  0
   55.4020   29.7330   43.6280 C   0  0  0  0  0  0  0  0  0  0  0  0
   56.5760   29.3870   42.7170 C   0  0  0  0  0  0  0  0  0  0  0  0
   60.0820   30.0170   46.5060 C   0  0  0  0  0  0  0  0  0  0  0  0
   60.5780   29.9900   47.9040 N   0  0  2  0  0  0  0  0  0  0  0  0
   61.8080   30.8130   48.0600 C   0  0  0  0  0  0  0  0  0  0  0  0
   61.7910   31.7580   49.2840 C   0  0  0  0  0  0  0  0  0  0  0  0
   62.0360   33.1660   48.8860 N   0  0  0  0  0  0  0  0  0  0  0  0
   62.7400   33.2690   47.5690 C   0  0  0  0  0  0  0  0  0  0  0  0
   61.9080   33.8910   46.4180 C   0  0  0  0  0  0  0  0  0  0  0  0
   60.4470   33.5730   46.5620 C   0  0  0  0  0  0  0  0  0  0  0  0
   59.6350   33.2800   45.4550 C   0  0  0  0  0  0  0  0  0  0  0  0
   58.2660   33.0530   45.6350 C   0  0  0  0  0  0  0  0  0  0  0  0
   57.7020   33.1460   46.9130 C   0  0  0  0  0  0  0  0  0  0  0  0
   58.5070   33.4490   48.0170 C   0  0  0  0  0  0  0  0  0  0  0  0
   59.8820   33.6630   47.8370 C   0  0  0  0  0  0  0  0  0  0  0  0
   60.8050   33.9850   48.9790 C   0  0  0  0  0  0  0  0  0  0  0  0
   60.8230   28.6070   48.4390 C   0  0  0  0  0  0  0  0  0  0  0  0
   60.2320   27.4500   47.5950 C   0  0  0  0  0  0  0  0  0  0  0  0
   53.8958   24.2935   46.6240 H   0  0  0  0  0  0  0  0  0  0  0  0
   53.6367   25.1598   45.0719 H   0  0  0  0  0  0  0  0  0  0  0  0
   54.3477   23.5102   45.0719 H   0  0  0  0  0  0  0  0  0  0  0  0
   56.2220   24.6146   46.5689 H   0  0  0  0  0  0  0  0  0  0  0  0
   56.2362   24.8672   44.7809 H   0  0  0  0  0  0  0  0  0  0  0  0
   57.9550   25.9437   47.2056 H   0  0  0  0  0  0  0  0  0  0  0  0
   57.6882   30.5200   45.2096 H   0  0  0  0  0  0  0  0  0  0  0  0
   54.4616   29.4939   43.1099 H   0  0  0  0  0  0  0  0  0  0  0  0
   55.4473   30.8058   43.8671 H   0  0  0  0  0  0  0  0  0  0  0  0
   57.4521   29.1288   43.3300 H   0  0  0  0  0  0  0  0  0  0  0  0
   56.3072   28.5299   42.0821 H   0  0  0  0  0  0  0  0  0  0  0  0
   56.8151   30.2529   42.0821 H   0  0  0  0  0  0  0  0  0  0  0  0
   60.8780   29.6685   45.8315 H   0  0  0  0  0  0  0  0  0  0  0  0
   59.7941   31.0468   46.2477 H   0  0  0  0  0  0  0  0  0  0  0  0
   59.8290   30.4180   48.5030 H   0  0  0  0  0  0  0  0  0  0  0  0
   62.6667   30.1331   48.1617 H   0  0  0  0  0  0  0  0  0  0  0  0
   61.8731   31.4539   47.1684 H   0  0  0  0  0  0  0  0  0  0  0  0
   60.8085   31.6907   49.7742 H   0  0  0  0  0  0  0  0  0  0  0  0
   62.5927   31.4485   49.9707 H   0  0  0  0  0  0  0  0  0  0  0  0
   63.6381   33.8879   47.7116 H   0  0  0  0  0  0  0  0  0  0  0  0
   62.9598   32.2362   47.2608 H   0  0  0  0  0  0  0  0  0  0  0  0
   62.0393   34.9830   46.4315 H   0  0  0  0  0  0  0  0  0  0  0  0
   62.2620   33.4662   45.4671 H   0  0  0  0  0  0  0  0  0  0  0  0
   60.0742   33.2289   44.4478 H   0  0  0  0  0  0  0  0  0  0  0  0
   57.6325   32.8013   44.7717 H   0  0  0  0  0  0  0  0  0  0  0  0
   56.6232   32.9805   47.0498 H   0  0  0  0  0  0  0  0  0  0  0  0
   58.0638   33.5191   49.0213 H   0  0  0  0  0  0  0  0  0  0  0  0
   61.0736   35.0510   48.9401 H   0  0  0  0  0  0  0  0  0  0  0  0
   60.2951   33.7615   49.9277 H   0  0  0  0  0  0  0  0  0  0  0  0
   61.9107   28.4570   48.5047 H   0  0  0  0  0  0  0  0  0  0  0  0
   60.3095   28.5642   49.4108 H   0  0  0  0  0  0  0  0  0  0  0  0
   60.9606   27.1636   46.8223 H   0  0  0  0  0  0  0  0  0  0  0  0
   60.0210   26.6060   48.2682 H   0  0  0  0  0  0  0  0  0  0  0  0
  1  2  1  0
  2  3  1  0
  3  4  1  0
  4  5  2  0
  5  6  1  0
  6  7  2  0
  7  8  1  0
  8  9  2  0
  9 10  1  0
 10 11  1  0
 11 12  1  0
  7 13  1  0
 13 14  1  0
 14 15  1  0
 15 16  1  0
 16 17  1  0
 17 18  1  0
 18 19  1  0
 19 20  1  0
 20 21  2  0
 21 22  1  0
 22 23  2  0
 23 24  1  0
 24 25  2  0
 25 26  1  0
 14 27  1  0
 27 28  1  0
  9  4  1  0
 26 17  1  0
 28  6  1  0
 25 20  1  0
  1 29  1  0
  1 30  1  0
  1 31  1  0
  2 32  1  0
  2 33  1  0
  5 34  1  0
  8 35  1  0
 11 36  1  0
 11 37  1  0
 12 38  1  0
 12 39  1  0
 12 40  1  0
 13 41  1  0
 13 42  1  0
 14 43  1  1
 15 44  1  0
 15 45  1  0
 16 46  1  0
 16 47  1  0
 18 48  1  0
 18 49  1  0
 19 50  1  0
 19 51  1  0
 21 52  1  0
 22 53  1  0
 23 54  1  0
 24 55  1  0
 26 56  1  0
 26 57  1  0
 27 58  1  0
 27 59  1  0
 28 60  1  0
 28 61  1  0
M  CHG  1  14   1
M  END
>  <UniqueID>  (8) 
8

>  <SMILES>  (8) 
CCOc1cc2c(cc1OCC)C[N@H+](CCN1CCc3ccccc3C1)CC2

>  <Energy>  (8) 
82.87857856871908

>  <Genealogy>  (8) 
CCOc1cc2c(cc1OCC)C[NH+](CCN1CCc3ccccc3C1)CC2 (protonated)
CCOc1cc2c(cc1OCC)C[N@H+](CCN1CCc3ccccc3C1)CC2 (chirality)
CCOc1cc2c(cc1OCC)C[N@H+](CCN1CCc3ccccc3C1)CC2 (3D coordinates assigned)
CCOc1cc2c(cc1OCC)C[N@H+](CCN1CCc3ccccc3C1)CC2 (nonaromatic ring conformer: 82.87857856871908 kcal/mol)

>  <smiles>  (8) 
CCOc1cc2c(cc1OCC)CN(CCN1CCc3ccccc3C1)CC2

>  <score_type>  (8) 
oracle

>  <origin>  (8) 
adg

>  <m_score__min__energy>  (8) 
-7.7199999999999998

>  <m_primary>  (8) 
energy

$$$$
8:0
     RDKit          3D

 41 42  0  0  0  0  0  0  0  0999 V2000
   65.5630   32.7530   49.8120 C   0  0  0  0  0  0  0  0  0  0  0  0
   64.1650   32.9640   49.2440 C   0  0  0  0  0  0  0  0  0  0  0  0
   63.9050   31.9780   48.1890 N   0  0  0  0  0  0  0  0  0  0  0  0
   62.8560   32.4270   47.2630 C   0  0  0  0  0  0  0  0  0  0  0  0
   62.5440   33.9200   47.4430 C   0  0  0  0  0  0  0  0  0  0  0  0
   61.1610   34.1990   48.0490 C   0  0  0  0  0  0  0  0  0  0  0  0
   60.1630   34.3400   47.0360 O   0  0  0  0  0  0  0  0  0  0  0  0
   59.3730   33.3180   46.4860 C   0  0  0  0  0  0  0  0  0  0  0  0
   58.2420   33.5690   45.6580 C   0  0  0  0  0  0  0  0  0  0  0  0
   57.5020   32.5040   45.1120 C   0  0  0  0  0  0  0  0  0  0  0  0
   57.9020   31.2020   45.4150 C   0  0  0  0  0  0  0  0  0  0  0  0
   57.4090   29.9680   45.0240 C   0  0  0  0  0  0  0  0  0  0  0  0
   56.2330   29.7190   44.1580 C   0  0  0  0  0  0  0  0  0  0  0  0
   56.2960   29.8740   42.6710 C   0  0  0  0  0  0  0  0  0  0  0  0
   55.1460   29.3550   44.6790 O   0  0  0  0  0  0  0  0  0  0  0  0
   58.2570   29.0430   45.6490 C   0  0  0  0  0  0  0  0  0  0  0  0
   58.1660   27.5520   45.5990 C   0  0  0  0  0  0  0  0  0  0  0  0
   59.1880   29.6700   46.3440 O   0  0  0  0  0  0  0  0  0  0  0  0
   58.9880   30.9570   46.2130 C   0  0  0  0  0  0  0  0  0  0  0  0
   59.7390   31.9880   46.7700 C   0  0  0  0  0  0  0  0  0  0  0  0
   65.5171   32.7599   50.9110 H   0  0  0  0  0  0  0  0  0  0  0  0
   65.9565   31.7853   49.4675 H   0  0  0  0  0  0  0  0  0  0  0  0
   66.2246   33.5615   49.4675 H   0  0  0  0  0  0  0  0  0  0  0  0
   63.4225   32.8447   50.0468 H   0  0  0  0  0  0  0  0  0  0  0  0
   64.0930   33.9769   48.8212 H   0  0  0  0  0  0  0  0  0  0  0  0
   64.7890   31.8650   47.6380 H   0  0  0  0  0  0  0  0  0  0  0  0
   63.1938   32.2549   46.2304 H   0  0  0  0  0  0  0  0  0  0  0  0
   61.9406   31.8560   47.4772 H   0  0  0  0  0  0  0  0  0  0  0  0
   63.3065   34.3555   48.1055 H   0  0  0  0  0  0  0  0  0  0  0  0
   62.5490   34.3700   46.4393 H   0  0  0  0  0  0  0  0  0  0  0  0
   60.8848   33.3632   48.7087 H   0  0  0  0  0  0  0  0  0  0  0  0
   61.2156   35.1420   48.6127 H   0  0  0  0  0  0  0  0  0  0  0  0
   57.9439   34.6058   45.4431 H   0  0  0  0  0  0  0  0  0  0  0  0
   56.6328   32.6925   44.4647 H   0  0  0  0  0  0  0  0  0  0  0  0
   56.6995   30.8667   42.4226 H   0  0  0  0  0  0  0  0  0  0  0  0
   56.9495   29.0964   42.2487 H   0  0  0  0  0  0  0  0  0  0  0  0
   55.2854   29.7728   42.2487 H   0  0  0  0  0  0  0  0  0  0  0  0
   58.1416   27.1516   46.6232 H   0  0  0  0  0  0  0  0  0  0  0  0
   57.2483   27.2582   45.0685 H   0  0  0  0  0  0  0  0  0  0  0  0
   59.0412   27.1488   45.0685 H   0  0  0  0  0  0  0  0  0  0  0  0
   60.6002   31.7687   47.4183 H   0  0  0  0  0  0  0  0  0  0  0  0
  1  2  1  0
  2  3  1  0
  3  4  1  0
  4  5  1  0
  5  6  1  0
  6  7  1  0
  7  8  1  0
  8  9  2  0
  9 10  1  0
 10 11  2  0
 11 12  1  0
 12 13  1  0
 13 14  1  0
 13 15  2  0
 12 16  2  0
 16 17  1  0
 16 18  1  0
 18 19  1  0
 19 20  2  0
 20  8  1  0
 19 11  1  0
  1 21  1  0
  1 22  1  0
  1 23  1  0
  2 24  1  0
  2 25  1  0
  3 26  1  0
  4 27  1  0
  4 28  1  0
  5 29  1  0
  5 30  1  0
  6 31  1  0
  6 32  1  0
  9 33  1  0
 10 34  1  0
 14 35  1  0
 14 36  1  0
 14 37  1  0
 17 38  1  0
 17 39  1  0
 17 40  1  0
 20 41  1  0
M  END
>  <UniqueID>  (9) 
9

>  <SMILES>  (9) 
CCNCCCOc1ccc2c(C(C)=O)c(C)oc2c1

>  <Energy>  (9) 
70.2764813901912

>  <Genealogy>  (9) 
CCNCCCOc1ccc2c(C(C)=O)c(C)oc2c1 (3D coordinates assigned)
CCNCCCOc1ccc2c(C(C)=O)c(C)oc2c1 (optimized conformer: 70.2764813901912 kcal/mol)

>  <smiles>  (9) 
CCNCCCOc1ccc2c(C(C)=O)c(C)oc2c1

>  <score_type>  (9) 
oracle

>  <origin>  (9) 
adg

>  <m_score__min__energy>  (9) 
-6.7699999999999996

>  <m_primary>  (9) 
energy

$$$$
9:0
     RDKit          3D

 30 31  0  0  0  0  0  0  0  0999 V2000
   58.4290   34.1860   46.5610 C   0  0  0  0  0  0  0  0  0  0  0  0
   57.8930   32.7980   46.2390 C   0  0  0  0  0  0  0  0  0  0  0  0
   57.1060   32.8390   44.9990 N   0  0  0  0  0  0  0  0  0  0  0  0
   57.9700   32.8980   43.8080 C   0  0  0  0  0  0  0  0  0  0  0  0
   57.8080   31.6260   42.9700 C   0  0  0  0  0  0  0  0  0  0  0  0
   57.1890   30.5140   43.7650 C   0  0  0  0  0  0  0  0  0  0  0  0
   55.8420   30.3750   44.0870 C   0  0  0  0  0  0  0  0  0  0  0  0
   55.6580   29.3050   44.8920 N   0  0  0  0  0  0  0  0  0  0  0  0
   56.8760   28.7750   45.0920 C   0  0  0  0  0  0  0  0  0  0  0  0
   57.1990   27.6700   45.8790 C   0  0  0  0  0  0  0  0  0  0  0  0
   58.5540   27.3010   45.9700 C   0  0  0  0  0  0  0  0  0  0  0  0
   59.5450   28.0390   45.2840 C   0  0  0  0  0  0  0  0  0  0  0  0
   59.1900   29.1510   44.4990 C   0  0  0  0  0  0  0  0  0  0  0  0
   57.8380   29.4880   44.4240 C   0  0  0  0  0  0  0  0  0  0  0  0
   58.4791   34.3157   47.6522 H   0  0  0  0  0  0  0  0  0  0  0  0
   59.4355   34.2991   46.1317 H   0  0  0  0  0  0  0  0  0  0  0  0
   57.7598   34.9462   46.1317 H   0  0  0  0  0  0  0  0  0  0  0  0
   58.7356   32.1022   46.1129 H   0  0  0  0  0  0  0  0  0  0  0  0
   57.2496   32.4587   47.0642 H   0  0  0  0  0  0  0  0  0  0  0  0
   56.5170   33.7050   45.0250 H   0  0  0  0  0  0  0  0  0  0  0  0
   57.6907   33.7711   43.2000 H   0  0  0  0  0  0  0  0  0  0  0  0
   59.0183   32.9830   44.1303 H   0  0  0  0  0  0  0  0  0  0  0  0
   57.1645   31.8477   42.1059 H   0  0  0  0  0  0  0  0  0  0  0  0
   58.8067   31.3002   42.6438 H   0  0  0  0  0  0  0  0  0  0  0  0
   55.0406   31.0417   43.7360 H   0  0  0  0  0  0  0  0  0  0  0  0
   54.7520   28.9740   45.2920 H   0  0  0  0  0  0  0  0  0  0  0  0
   56.4198   27.1050   46.4115 H   0  0  0  0  0  0  0  0  0  0  0  0
   58.8438   26.4322   46.5793 H   0  0  0  0  0  0  0  0  0  0  0  0
   60.6010   27.7419   45.3645 H   0  0  0  0  0  0  0  0  0  0  0  0
   59.9523   29.7350   43.9625 H   0  0  0  0  0  0  0  0  0  0  0  0
  1  2  1  0
  2  3  1  0
  3  4  1  0
  4  5  1  0
  5  6  1  0
  6  7  2  0
  7  8  1  0
  8  9  1  0
  9 10  2  0
 10 11  1  0
 11 12  2  0
 12 13  1  0
 13 14  2  0
 14  6  1  0
 14  9  1  0
  1 15  1  0
  1 16  1  0
  1 17  1  0
  2 18  1  0
  2 19  1  0
  3 20  1  0
  4 21  1  0
  4 22  1  0
  5 23  1  0
  5 24  1  0
  7 25  1  0
  8 26  1  0
 10 27  1  0
 11 28  1  0
 12 29  1  0
 13 30  1  0
M  END
>  <UniqueID>  (10) 
10

>  <SMILES>  (10) 
CCNCCc1c[nH]c2ccccc12

>  <Energy>  (10) 
56.407633747241434

>  <Genealogy>  (10) 
CCNCCc1c[nH]c2ccccc12 (3D coordinates assigned)
CCNCCc1c[nH]c2ccccc12 (optimized conformer: 56.407633747241434 kcal/mol)

>  <smiles>  (10) 
CCNCCc1c[nH]c2ccccc12

>  <score_type>  (10) 
oracle

>  <origin>  (10) 
adg

>  <m_score__min__energy>  (10) 
-6.0499999999999998

>  <m_primary>  (10) 
energy

$$$$
10:0
     RDKit          3D

 48 51  0  0  0  0  0  0  0  0999 V2000
   63.3570   33.7380   46.7440 C   0  0  0  0  0  0  0  0  0  0  0  0
   63.2300   33.3850   48.2210 C   0  0  0  0  0  0  0  0  0  0  0  0
   63.6400   31.9930   48.4520 N   0  0  0  0  0  0  0  0  0  0  0  0
   63.8310   31.6830   49.8830 C   0  0  0  0  0  0  0  0  0  0  0  0
   62.8030   32.3800   50.7910 C   0  0  0  0  0  0  0  0  0  0  0  0
   61.5620   31.6100   50.8820 N   0  0  0  0  0  0  0  0  0  0  0  0
   60.8150   31.2780   49.6990 C   0  0  0  0  0  0  0  0  0  0  0  0
   60.6510   29.9270   49.3340 C   0  0  0  0  0  0  0  0  0  0  0  0
   61.2780   28.8920   50.0600 C   0  0  0  0  0  0  0  0  0  0  0  0
   61.0750   27.5950   49.7250 N   0  0  0  0  0  0  0  0  0  0  0  0
   60.2780   27.2450   48.6880 C   0  0  0  0  0  0  0  0  0  0  0  0
   59.6480   28.2260   47.9240 C   0  0  0  0  0  0  0  0  0  0  0  0
   59.8240   29.5950   48.2370 C   0  0  0  0  0  0  0  0  0  0  0  0
   59.2560   30.6410   47.4620 C   0  0  0  0  0  0  0  0  0  0  0  0
   58.3300   30.3950   46.4230 C   0  0  0  0  0  0  0  0  0  0  0  0
   57.8600   31.4260   45.6200 C   0  0  0  0  0  0  0  0  0  0  0  0
   58.3760   32.7130   45.7530 C   0  0  0  0  0  0  0  0  0  0  0  0
   58.0050   33.7090   44.8350 C   0  0  0  0  0  0  0  0  0  0  0  0
   58.6130   34.9620   44.8720 C   0  0  0  0  0  0  0  0  0  0  0  0
   59.6210   35.2170   45.8000 C   0  0  0  0  0  0  0  0  0  0  0  0
   59.9850   34.2400   46.7300 C   0  0  0  0  0  0  0  0  0  0  0  0
   59.3120   32.9970   46.7810 C   0  0  0  0  0  0  0  0  0  0  0  0
   59.6190   31.9880   47.7520 C   0  0  0  0  0  0  0  0  0  0  0  0
   60.2150   32.2730   48.9670 N   0  0  0  0  0  0  0  0  0  0  0  0
   60.0220   33.5770   49.6320 C   0  0  0  0  0  0  0  0  0  0  0  0
   63.7278   34.7688   46.6439 H   0  0  0  0  0  0  0  0  0  0  0  0
   64.0625   33.0460   46.2610 H   0  0  0  0  0  0  0  0  0  0  0  0
   62.3723   33.6541   46.2610 H   0  0  0  0  0  0  0  0  0  0  0  0
   63.8733   34.0549   48.8104 H   0  0  0  0  0  0  0  0  0  0  0  0
   62.1801   33.5033   48.5272 H   0  0  0  0  0  0  0  0  0  0  0  0
   64.5160   31.7980   47.9110 H   0  0  0  0  0  0  0  0  0  0  0  0
   63.7405   30.5955   50.0213 H   0  0  0  0  0  0  0  0  0  0  0  0
   64.8269   32.0517   50.1697 H   0  0  0  0  0  0  0  0  0  0  0  0
   63.2312   32.4891   51.7984 H   0  0  0  0  0  0  0  0  0  0  0  0
   62.5691   33.3636   50.3576 H   0  0  0  0  0  0  0  0  0  0  0  0
   61.3870   31.0560   51.7500 H   0  0  0  0  0  0  0  0  0  0  0  0
   61.9371   29.1403   50.9050 H   0  0  0  0  0  0  0  0  0  0  0  0
   60.1270   26.1823   48.4474 H   0  0  0  0  0  0  0  0  0  0  0  0
   59.0119   27.9352   47.0750 H   0  0  0  0  0  0  0  0  0  0  0  0
   57.9753   29.3687   46.2473 H   0  0  0  0  0  0  0  0  0  0  0  0
   57.0760   31.2252   44.8749 H   0  0  0  0  0  0  0  0  0  0  0  0
   57.2304   33.4987   44.0829 H   0  0  0  0  0  0  0  0  0  0  0  0
   58.2981   35.7484   44.1702 H   0  0  0  0  0  0  0  0  0  0  0  0
   60.1319   36.1911   45.8002 H   0  0  0  0  0  0  0  0  0  0  0  0
   60.8071   34.4404   47.4329 H   0  0  0  0  0  0  0  0  0  0  0  0
   60.0425   33.4388   50.7231 H   0  0  0  0  0  0  0  0  0  0  0  0
   60.8283   34.2634   49.3342 H   0  0  0  0  0  0  0  0  0  0  0  0
   59.0514   34.0004   49.3342 H   0  0  0  0  0  0  0  0  0  0  0  0
  1  2  1  0
  2  3  1  0
  3  4  1  0
  4  5  1  0
  5  6  1  0
  6  7  1  0
  7  8  2  0
  8  9  1  0
  9 10  2  0
 10 11  1  0
 11 12  2  0
 12 13  1  0
 13 14  2  0
 14 15  1  0
 15 16  2  0
 16 17  1  0
 17 18  2  0
 18 19  1  0
 19 20  2  0
 20 21  1  0
 21 22  2  0
 22 23  1  0
 23 24  2  0
 24 25  1  0
 24  7  1  0
 13  8  1  0
 23 14  1  0
 22 17  1  0
  1 26  1  0
  1 27  1  0
  1 28  1  0
  2 29  1  0
  2 30  1  0
  3 31  1  0
  4 32  1  0
  4 33  1  0
  5 34  1  0
  5 35  1  0
  6 36  1  0
  9 37  1  0
 11 38  1  0
 12 39  1  0
 15 40  1  0
 16 41  1  0
 18 42  1  0
 19 43  1  0
 20 44  1  0
 21 45  1  0
 25 46  1  0
 25 47  1  0
 25 48  1  0
M  CHG  1  24   1
M  END
>  <UniqueID>  (11) 
11

>  <SMILES>  (11) 
CCNCCNc1c2cnccc2c2ccc3ccccc3c2[n+]1C

>  <Energy>  (11) 
93.19753361080508

>  <Genealogy>  (11) 
CCNCCNc1c2cnccc2c2ccc3ccccc3c2[n+]1C (3D coordinates assigned)
CCNCCNc1c2cnccc2c2ccc3ccccc3c2[n+]1C (optimized conformer: 93.19753361080508 kcal/mol)

>  <smiles>  (11) 
CCNCCNc1c2cnccc2c2ccc3ccccc3c2[n+]1C

>  <score_type>  (11) 
oracle

>  <origin>  (11) 
adg

>  <m_score__min__energy>  (11) 
-6.6299999999999999

>  <m_primary>  (11) 
energy

$$$$
11:0
     RDKit          3D

 52 53  0  0  0  0  0  0  0  0999 V2000
   60.5000   29.7350   46.2130 C   0  0  0  0  0  0  0  0  0  0  0  0
   60.1710   29.0490   44.8870 C   0  0  0  0  0  0  0  0  0  0  0  0
   58.8600   29.4870   44.3810 N   0  0  0  0  0  0  0  0  0  0  0  0
   57.7490   28.7170   44.9720 C   0  0  0  0  0  0  0  0  0  0  0  0
   56.3710   29.2360   44.5180 C   0  0  0  0  0  0  0  0  0  0  0  0
   56.4540   30.6590   43.9510 C   0  0  0  0  0  0  0  0  0  0  0  0
   57.0400   31.5830   44.9360 N   0  0  0  0  0  0  0  0  0  0  0  0
   57.7730   32.6950   44.3080 C   0  0  0  0  0  0  0  0  0  0  0  0
   57.5610   34.0240   45.0570 C   0  0  0  0  0  0  0  0  0  0  0  0
   57.6240   33.8400   46.5790 C   0  0  0  0  0  0  0  0  0  0  0  0
   58.5980   32.8120   46.9580 N   0  0  0  0  0  0  0  0  0  0  0  0
   59.4940   32.9410   48.0790 C   0  0  0  0  0  0  0  0  0  0  0  0
   59.0120   32.7580   49.3780 C   0  0  0  0  0  0  0  0  0  0  0  0
   59.8570   32.9210   50.4700 C   0  0  0  0  0  0  0  0  0  0  0  0
   61.1690   33.2640   50.3060 N   0  0  0  0  0  0  0  0  0  0  0  0
   61.9960   33.4250   51.5130 C   0  0  0  0  0  0  0  0  0  0  0  0
   61.6910   33.4440   49.0410 C   0  0  0  0  0  0  0  0  0  0  0  0
   63.0490   33.7860   48.8430 C   0  0  0  0  0  0  0  0  0  0  0  0
   63.5690   33.9430   47.5590 C   0  0  0  0  0  0  0  0  0  0  0  0
   62.7550   33.7570   46.4460 C   0  0  0  0  0  0  0  0  0  0  0  0
   61.4110   33.4250   46.6080 C   0  0  0  0  0  0  0  0  0  0  0  0
   60.8550   33.2790   47.8970 C   0  0  0  0  0  0  0  0  0  0  0  0
   60.1899   29.0884   47.0472 H   0  0  0  0  0  0  0  0  0  0  0  0
   61.5832   29.9167   46.2730 H   0  0  0  0  0  0  0  0  0  0  0  0
   59.9636   30.6935   46.2730 H   0  0  0  0  0  0  0  0  0  0  0  0
   60.9455   29.3027   44.1482 H   0  0  0  0  0  0  0  0  0  0  0  0
   60.1392   27.9619   45.0517 H   0  0  0  0  0  0  0  0  0  0  0  0
   58.8350   29.3390   43.3450 H   0  0  0  0  0  0  0  0  0  0  0  0
   58.7270   30.5090   44.5680 H   0  0  0  0  0  0  0  0  0  0  0  0
   57.8478   27.6642   44.6690 H   0  0  0  0  0  0  0  0  0  0  0  0
   57.8069   28.8277   46.0649 H   0  0  0  0  0  0  0  0  0  0  0  0
   55.9772   28.5656   43.7399 H   0  0  0  0  0  0  0  0  0  0  0  0
   55.7085   29.2570   45.3959 H   0  0  0  0  0  0  0  0  0  0  0  0
   57.0811   30.6507   43.0473 H   0  0  0  0  0  0  0  0  0  0  0  0
   55.4369   31.0012   43.7094 H   0  0  0  0  0  0  0  0  0  0  0  0
   56.2790   31.9610   45.5490 H   0  0  0  0  0  0  0  0  0  0  0  0
   58.8467   32.4561   44.3062 H   0  0  0  0  0  0  0  0  0  0  0  0
   57.3902   32.8181   43.2841 H   0  0  0  0  0  0  0  0  0  0  0  0
   58.3447   34.7330   44.7519 H   0  0  0  0  0  0  0  0  0  0  0  0
   56.5609   34.4036   44.8009 H   0  0  0  0  0  0  0  0  0  0  0  0
   57.9138   34.7946   47.0424 H   0  0  0  0  0  0  0  0  0  0  0  0
   56.6315   33.5193   46.9284 H   0  0  0  0  0  0  0  0  0  0  0  0
   58.6240   31.9440   46.3780 H   0  0  0  0  0  0  0  0  0  0  0  0
   57.9587   32.4836   49.5373 H   0  0  0  0  0  0  0  0  0  0  0  0
   59.4615   32.7709   51.4854 H   0  0  0  0  0  0  0  0  0  0  0  0
   61.3673   33.3026   52.4073 H   0  0  0  0  0  0  0  0  0  0  0  0
   62.7910   32.6648   51.5169 H   0  0  0  0  0  0  0  0  0  0  0  0
   62.4477   34.4280   51.5169 H   0  0  0  0  0  0  0  0  0  0  0  0
   63.7043   33.9302   49.7146 H   0  0  0  0  0  0  0  0  0  0  0  0
   64.6265   34.2149   47.4254 H   0  0  0  0  0  0  0  0  0  0  0  0
   63.1734   33.8723   45.4352 H   0  0  0  0  0  0  0  0  0  0  0  0
   60.7769   33.2752   45.7217 H   0  0  0  0  0  0  0  0  0  0  0  0
  1  2  1  0
  2  3  1  0
  3  4  1  0
  4  5  1  0
  5  6  1  0
  6  7  1  0
  7  8  1  0
  8  9  1  0
  9 10  1  0
 10 11  1  0
 11 12  1  0
 12 13  2  0
 13 14  1  0
 14 15  2  0
 15 16  1  0
 15 17  1  0
 17 18  2  0
 18 19  1  0
 19 20  2  0
 20 21  1  0
 21 22  2  0
 22 12  1  0
 22 17  1  0
  1 23  1  0
  1 24  1  0
  1 25  1  0
  2 26  1  0
  2 27  1  0
  3 28  1  0
  3 29  1  0
  4 30  1  0
  4 31  1  0
  5 32  1  0
  5 33  1  0
  6 34  1  0
  6 35  1  0
  7 36  1  0
  8 37  1  0
  8 38  1  0
  9 39  1  0
  9 40  1  0
 10 41  1  0
 10 42  1  0
 11 43  1  0
 13 44  1  0
 14 45  1  0
 16 46  1  0
 16 47  1  0
 16 48  1  0
 18 49  1  0
 19 50  1  0
 20 51  1  0
 21 52  1  0
M  CHG  2   3   1  15   1
M  END
>  <UniqueID>  (12) 
12

>  <SMILES>  (12) 
CC[NH2+]CCCNCCCNc1cc[n+](C)c2ccccc12

>  <Energy>  (12) 
53.4318407917125

>  <Genealogy>  (12) 
CC[NH2+]CCCNCCCNc1cc[n+](C)c2ccccc12 (protonated)
CC[NH2+]CCCNCCCNc1cc[n+](C)c2ccccc12 (3D coordinates assigned)
CC[NH2+]CCCNCCCNc1cc[n+](C)c2ccccc12 (optimized conformer: 53.4318407917125 kcal/mol)

>  <smiles>  (12) 
CCNCCCNCCCNc1cc[n+](C)c2ccccc12

>  <score_type>  (12) 
oracle

>  <origin>  (12) 
adg

>  <m_score__min__energy>  (12) 
-3.96

>  <m_primary>  (12) 
energy

$$$$
12:0
     RDKit          3D

 17 17  0  0  0  0  0  0  0  0999 V2000
   58.1902   34.5656   45.7066 H   0  0  0  0  0  0  0  0  0  0  0  0
   57.9200   33.8590   44.9080 C   0  0  0  0  0  0  0  0  0  0  0  0
   57.9948   34.1653   43.8541 H   0  0  0  0  0  0  0  0  0  0  0  0
   57.5010   32.6290   45.2180 C   0  0  0  0  0  0  0  0  0  0  0  0
   57.4310   32.3361   46.2760 H   0  0  0  0  0  0  0  0  0  0  0  0
   57.1230   31.6360   44.1550 C   0  0  0  0  0  0  0  0  0  0  0  0
   56.5276   32.1443   43.3823 H   0  0  0  0  0  0  0  0  0  0  0  0
   58.0431   31.2202   43.7185 H   0  0  0  0  0  0  0  0  0  0  0  0
   56.3370   30.5400   44.7220 N   0  0  0  0  0  0  0  0  0  0  0  0
   56.8220   29.4190   45.1690 C   0  0  0  0  0  0  0  0  0  0  0  0
   58.3900   29.2500   45.7390 S   0  0  0  0  0  0  0  0  0  0  0  0
   58.1970   27.6130   46.0880 C   0  0  0  0  0  0  0  0  0  0  0  0
   58.9642   26.9489   46.5128 H   0  0  0  0  0  0  0  0  0  0  0  0
   56.9000   27.2470   45.7460 C   0  0  0  0  0  0  0  0  0  0  0  0
   56.5191   26.2235   45.8780 H   0  0  0  0  0  0  0  0  0  0  0  0
   56.1390   28.2510   45.2360 N   0  0  0  0  0  0  0  0  0  0  0  0
   55.1470   28.1150   44.9410 H   0  0  0  0  0  0  0  0  0  0  0  0
  1  2  1  0
  2  3  1  0
  2  4  2  0
  4  5  1  0
  4  6  1  0
  6  7  1  0
  6  8  1  0
  6  9  1  0
  9 10  2  0
 10 11  1  0
 11 12  1  0
 12 13  1  0
 12 14  2  0
 14 15  1  0
 14 16  1  0
 16 17  1  0
 16 10  1  0
M  END
>  <UniqueID>  (13) 
13

>  <SMILES>  (13) 
C=CC/N=c1\[nH]ccs1

>  <Energy>  (13) 
42.01681372012365

>  <Genealogy>  (13) 
C=CC/N=c1\[nH]ccs1 (cis-trans isomerization)
C=CC/N=c1\[nH]ccs1 (3D coordinates assigned)
C=CC/N=c1\[nH]ccs1 (optimized conformer: 42.01681372012365 kcal/mol)

>  <smiles>  (13) 
C=CCN=c1[nH]ccs1

>  <score_type>  (13) 
oracle

>  <origin>  (13) 
adg

>  <m_score__min__energy>  (13) 
-4.29

>  <m_primary>  (13) 
energy

$$$$
13:0
     RDKit          3D

 52 54  0  0  0  0  0  0  0  0999 V2000
   59.5410   34.9320   45.8350 C   0  0  0  0  0  0  0  0  0  0  0  0
   59.6600   34.5510   47.3020 C   0  0  0  0  0  0  0  0  0  0  0  0
   60.9930   34.1680   47.5760 O   0  0  0  0  0  0  0  0  0  0  0  0
   61.6550   33.7880   46.3830 C   0  0  0  0  0  0  0  0  0  0  0  0
   63.1720   33.8370   46.5890 C   0  0  0  0  0  0  0  0  0  0  0  0
   63.6330   32.7480   47.5710 C   0  0  0  0  0  0  0  0  0  0  0  0
   62.7170   32.5850   48.7180 N   0  0  0  0  0  0  0  0  0  0  0  0
   62.1990   31.2150   48.9010 C   0  0  0  0  0  0  0  0  0  0  0  0
   60.8920   30.9910   48.1870 C   0  0  0  0  0  0  0  0  0  0  0  0
   60.7480   30.3150   46.9930 C   0  0  0  0  0  0  0  0  0  0  0  0
   59.4340   30.2020   46.7190 N   0  0  0  0  0  0  0  0  0  0  0  0
   58.8410   29.5080   45.6060 C   0  0  0  0  0  0  0  0  0  0  0  0
   59.3830   28.2760   45.2010 C   0  0  0  0  0  0  0  0  0  0  0  0
   58.8460   27.5860   44.1130 C   0  0  0  0  0  0  0  0  0  0  0  0
   57.7590   28.1140   43.4190 C   0  0  0  0  0  0  0  0  0  0  0  0
   57.1950   29.3270   43.8180 C   0  0  0  0  0  0  0  0  0  0  0  0
   57.7200   30.0320   44.9210 C   0  0  0  0  0  0  0  0  0  0  0  0
   57.1380   31.2280   45.3710 O   0  0  0  0  0  0  0  0  0  0  0  0
   57.4380   32.5200   44.8540 C   0  0  0  0  0  0  0  0  0  0  0  0
   58.7290   30.7560   47.6940 N   0  0  0  0  0  0  0  0  0  0  0  0
   59.5890   31.2540   48.6060 C   0  0  0  0  0  0  0  0  0  0  0  0
   59.1300   31.9340   49.8340 C   0  0  0  0  0  0  0  0  0  0  0  0
   58.1190   31.4670   50.6680 C   0  0  0  0  0  0  0  0  0  0  0  0
   57.8550   32.3100   51.7550 C   0  0  0  0  0  0  0  0  0  0  0  0
   58.6460   33.4490   51.7840 C   0  0  0  0  0  0  0  0  0  0  0  0
   59.6730   33.4030   50.4550 S   0  0  0  0  0  0  0  0  0  0  0  0
   59.2140   35.9791   45.7535 H   0  0  0  0  0  0  0  0  0  0  0  0
   60.5188   34.8141   45.3451 H   0  0  0  0  0  0  0  0  0  0  0  0
   58.8042   34.2785   45.3451 H   0  0  0  0  0  0  0  0  0  0  0  0
   59.3885   35.4129   47.9292 H   0  0  0  0  0  0  0  0  0  0  0  0
   58.9820   33.7133   47.5225 H   0  0  0  0  0  0  0  0  0  0  0  0
   61.3569   32.7647   46.1108 H   0  0  0  0  0  0  0  0  0  0  0  0
   61.3767   34.4836   45.5776 H   0  0  0  0  0  0  0  0  0  0  0  0
   63.6711   33.6824   45.6210 H   0  0  0  0  0  0  0  0  0  0  0  0
   63.4360   34.8193   47.0078 H   0  0  0  0  0  0  0  0  0  0  0  0
   63.6938   31.7914   47.0314 H   0  0  0  0  0  0  0  0  0  0  0  0
   64.6110   33.0551   47.9700 H   0  0  0  0  0  0  0  0  0  0  0  0
   63.2270   32.8740   49.5850 H   0  0  0  0  0  0  0  0  0  0  0  0
   61.9070   33.2360   48.6040 H   0  0  0  0  0  0  0  0  0  0  0  0
   62.9406   30.5026   48.5105 H   0  0  0  0  0  0  0  0  0  0  0  0
   62.0215   31.0663   49.9764 H   0  0  0  0  0  0  0  0  0  0  0  0
   61.5691   29.9322   46.3690 H   0  0  0  0  0  0  0  0  0  0  0  0
   60.2386   27.8515   45.7467 H   0  0  0  0  0  0  0  0  0  0  0  0
   59.2813   26.6245   43.8031 H   0  0  0  0  0  0  0  0  0  0  0  0
   57.3446   27.5738   42.5550 H   0  0  0  0  0  0  0  0  0  0  0  0
   56.3347   29.7361   43.2680 H   0  0  0  0  0  0  0  0  0  0  0  0
   57.6005   33.2197   45.6871 H   0  0  0  0  0  0  0  0  0  0  0  0
   58.3475   32.4662   44.2377 H   0  0  0  0  0  0  0  0  0  0  0  0
   56.5978   32.8725   44.2377 H   0  0  0  0  0  0  0  0  0  0  0  0
   57.5785   30.5255   50.4906 H   0  0  0  0  0  0  0  0  0  0  0  0
   57.0912   32.0892   52.5152 H   0  0  0  0  0  0  0  0  0  0  0  0
   58.6077   34.2433   52.5440 H   0  0  0  0  0  0  0  0  0  0  0  0
  1  2  1  0
  2  3  1  0
  3  4  1  0
  4  5  1  0
  5  6  1  0
  6  7  1  0
  7  8  1  0
  8  9  1  0
  9 10  2  0
 10 11  1  0
 11 12  1  0
 12 13  2  0
 13 14  1  0
 14 15  2  0
 15 16  1  0
 16 17  2  0
 17 18  1  0
 18 19  1  0
 11 20  1  0
 20 21  2  0
 21 22  1  0
 22 23  2  0
 23 24  1  0
 24 25  2  0
 25 26  1  0
 21  9  1  0
 26 22  1  0
 17 12  1  0
  1 27  1  0
  1 28  1  0
  1 29  1  0
  2 30  1  0
  2 31  1  0
  4 32  1  0
  4 33  1  0
  5 34  1  0
  5 35  1  0
  6 36  1  0
  6 37  1  0
  7 38  1  0
  7 39  1  0
  8 40  1  0
  8 41  1  0
 10 42  1  0
 13 43  1  0
 14 44  1  0
 15 45  1  0
 16 46  1  0
 19 47  1  0
 19 48  1  0
 19 49  1  0
 23 50  1  0
 24 51  1  0
 25 52  1  0
M  CHG  1   7   1
M  END
>  <UniqueID>  (14) 
14

>  <SMILES>  (14) 
CCOCCC[NH2+]Cc1cn(-c2ccccc2OC)nc1-c1cccs1

>  <Energy>  (14) 
110.51398916661635

>  <Genealogy>  (14) 
CCOCCC[NH2+]Cc1cn(-c2ccccc2OC)nc1-c1cccs1 (protonated)
CCOCCC[NH2+]Cc1cn(-c2ccccc2OC)nc1-c1cccs1 (3D coordinates assigned)
CCOCCC[NH2+]Cc1cn(-c2ccccc2OC)nc1-c1cccs1 (optimized conformer: 110.51398916661635 kcal/mol)

>  <smiles>  (14) 
CCOCCCNCc1cn(-c2ccccc2OC)nc1-c1cccs1

>  <score_type>  (14) 
oracle

>  <origin>  (14) 
adg

>  <m_score__min__energy>  (14) 
-5.3300000000000001

>  <m_primary>  (14) 
energy

$$$$
14:0
     RDKit          3D

 42 45  0  0  0  0  0  0  0  0999 V2000
   57.4533   32.7075   43.4846 H   0  0  0  0  0  0  0  0  0  0  0  0
   57.8380   32.0510   44.2790 C   0  0  0  0  0  0  0  0  0  0  0  0
   57.8110   30.7260   44.0680 C   0  0  0  0  0  0  0  0  0  0  0  0
   56.8920   29.9210   43.2440 C   0  0  0  0  0  0  0  0  0  0  0  0
   55.9070   30.3580   42.5920 O   0  0  0  0  0  0  0  0  0  0  0  0
   57.2040   28.5350   43.3430 N   0  0  0  0  0  0  0  0  0  0  0  0
   56.7020   27.7370   42.8940 H   0  0  0  0  0  0  0  0  0  0  0  0
   58.2960   28.4730   44.2530 C   0  0  0  0  0  0  0  0  0  0  0  0
   58.9440   27.3170   44.6870 C   0  0  0  0  0  0  0  0  0  0  0  0
   58.6314   26.3258   44.3267 H   0  0  0  0  0  0  0  0  0  0  0  0
   60.0060   27.4510   45.5960 C   0  0  0  0  0  0  0  0  0  0  0  0
   60.5360   26.5559   45.9537 H   0  0  0  0  0  0  0  0  0  0  0  0
   60.3970   28.7270   46.0530 C   0  0  0  0  0  0  0  0  0  0  0  0
   61.2301   28.8202   46.7652 H   0  0  0  0  0  0  0  0  0  0  0  0
   59.7300   29.8800   45.6050 C   0  0  0  0  0  0  0  0  0  0  0  0
   60.0299   30.8784   45.9562 H   0  0  0  0  0  0  0  0  0  0  0  0
   58.6750   29.7240   44.7010 C   0  0  0  0  0  0  0  0  0  0  0  0
   58.3510   32.6820   45.5090 C   0  0  0  0  0  0  0  0  0  0  0  0
   57.9020   32.2770   46.7760 C   0  0  0  0  0  0  0  0  0  0  0  0
   57.1786   31.4529   46.8623 H   0  0  0  0  0  0  0  0  0  0  0  0
   58.3690   32.9150   47.9280 C   0  0  0  0  0  0  0  0  0  0  0  0
   58.0237   32.5801   48.9172 H   0  0  0  0  0  0  0  0  0  0  0  0
   59.2790   33.9840   47.8290 C   0  0  0  0  0  0  0  0  0  0  0  0
   59.7900   34.6520   48.9540 O   0  0  0  0  0  0  0  0  0  0  0  0
   61.1280   34.5450   49.4400 C   0  0  0  0  0  0  0  0  0  0  0  0
   61.6129   35.5306   49.3811 H   0  0  0  0  0  0  0  0  0  0  0  0
   61.0974   34.1948   50.4823 H   0  0  0  0  0  0  0  0  0  0  0  0
   61.9170   33.5570   48.6220 C   0  0  0  0  0  0  0  0  0  0  0  0
   61.6360   32.1820   48.6960 C   0  0  0  0  0  0  0  0  0  0  0  0
   60.8298   31.8221   49.3522 H   0  0  0  0  0  0  0  0  0  0  0  0
   62.3770   31.2700   47.9390 C   0  0  0  0  0  0  0  0  0  0  0  0
   62.1483   30.1955   47.9953 H   0  0  0  0  0  0  0  0  0  0  0  0
   63.4090   31.7220   47.1100 C   0  0  0  0  0  0  0  0  0  0  0  0
   64.1260   30.8360   46.3760 F   0  0  0  0  0  0  0  0  0  0  0  0
   63.7020   33.0860   47.0410 C   0  0  0  0  0  0  0  0  0  0  0  0
   64.5156   33.4410   46.3914 H   0  0  0  0  0  0  0  0  0  0  0  0
   62.9620   34.0010   47.7970 C   0  0  0  0  0  0  0  0  0  0  0  0
   63.2002   35.0736   47.7447 H   0  0  0  0  0  0  0  0  0  0  0  0
   59.6940   34.4100   46.5620 C   0  0  0  0  0  0  0  0  0  0  0  0
   60.3937   35.2541   46.4727 H   0  0  0  0  0  0  0  0  0  0  0  0
   59.2270   33.7720   45.4090 C   0  0  0  0  0  0  0  0  0  0  0  0
   59.5484   34.1269   44.4187 H   0  0  0  0  0  0  0  0  0  0  0  0
  1  2  1  0
  2  3  2  0
  3  4  1  0
  4  5  2  0
  4  6  1  0
  6  7  1  0
  6  8  1  0
  8  9  2  0
  9 10  1  0
  9 11  1  0
 11 12  1  0
 11 13  2  0
 13 14  1  0
 13 15  1  0
 15 16  1  0
 15 17  2  0
  2 18  1  0
 18 19  2  0
 19 20  1  0
 19 21  1  0
 21 22  1  0
 21 23  2  0
 23 24  1  0
 24 25  1  0
 25 26  1  0
 25 27  1  0
 25 28  1  0
 28 29  2  0
 29 30  1  0
 29 31  1  0
 31 32  1  0
 31 33  2  0
 33 34  1  0
 33 35  1  0
 35 36  1  0
 35 37  2  0
 37 38  1  0
 23 39  1  0
 39 40  1  0
 39 41  2  0
 41 42  1  0
 17  3  1  0
 41 18  1  0
 17  8  1  0
 37 28  1  0
M  END
>  <UniqueID>  (15) 
15

>  <SMILES>  (15) 
O=C1Nc2ccccc2/C1=C/c1ccc(OCc2ccc(F)cc2)cc1

>  <Energy>  (15) 
83.10413981275096

>  <Genealogy>  (15) 
O=C1Nc2ccccc2/C1=C/c1ccc(OCc2ccc(F)cc2)cc1 (cis-trans isomerization)
O=C1Nc2ccccc2/C1=C/c1ccc(OCc2ccc(F)cc2)cc1 (3D coordinates assigned)
O=C1Nc2ccccc2/C1=C/c1ccc(OCc2ccc(F)cc2)cc1 (nonaromatic ring conformer: 83.10413981275096 kcal/mol)

>  <smiles>  (15) 
O=C1Nc2ccccc2C1=Cc1ccc(OCc2ccc(F)cc2)cc1

>  <score_type>  (15) 
oracle

>  <origin>  (15) 
adg

>  <m_score__min__energy>  (15) 
-8.7799999999999994

>  <m_primary>  (15) 
energy

$$$$
15:0
     RDKit          3D

 55 57  0  0  0  0  0  0  0  0999 V2000
   66.5090   32.4610   50.1580 C   0  0  0  0  0  0  0  0  0  0  0  0
   65.2680   33.3210   49.8800 C   0  0  0  0  0  0  0  0  0  0  0  0
   64.3180   32.7310   48.8970 N   0  0  0  0  0  0  0  0  0  0  0  0
   63.4130   33.7350   48.2770 C   0  0  0  0  0  0  0  0  0  0  0  0
   63.3650   33.6360   46.7470 C   0  0  0  0  0  0  0  0  0  0  0  0
   63.5400   31.6170   49.5070 C   0  0  0  0  0  0  0  0  0  0  0  0
   62.0130   31.8180   49.4080 C   0  0  0  0  0  0  0  0  0  0  0  0
   61.3550   30.9270   48.3350 C   0  0  0  0  0  0  0  0  0  0  0  0
   59.9050   31.1350   48.2860 N   0  0  0  0  0  0  0  0  0  0  0  0
   59.1720   31.0800   47.0460 C   0  0  0  0  0  0  0  0  0  0  0  0
   58.9860   32.2460   46.2800 C   0  0  0  0  0  0  0  0  0  0  0  0
   59.6110   33.4600   46.6400 C   0  0  0  0  0  0  0  0  0  0  0  0
   59.3600   34.6300   45.9290 C   0  0  0  0  0  0  0  0  0  0  0  0
   58.4850   34.6140   44.8500 C   0  0  0  0  0  0  0  0  0  0  0  0
   57.8950   33.4180   44.4440 C   0  0  0  0  0  0  0  0  0  0  0  0
   58.1740   32.1980   45.1150 C   0  0  0  0  0  0  0  0  0  0  0  0
   57.6740   30.9900   44.6660 N   0  0  0  0  0  0  0  0  0  0  0  0
   57.0830   30.8940   43.3100 C   0  0  0  0  0  0  0  0  0  0  0  0
   57.7680   29.8610   45.4590 C   0  0  0  0  0  0  0  0  0  0  0  0
   57.0540   28.6740   45.1490 C   0  0  0  0  0  0  0  0  0  0  0  0
   57.1910   27.5100   45.9240 C   0  0  0  0  0  0  0  0  0  0  0  0
   56.4570   26.3150   45.5960 N   0  0  0  0  0  0  0  0  0  0  0  0
   56.9920   25.3970   44.9400 O   0  0  0  0  0  0  0  0  0  0  0  0
   55.1500   26.1640   46.0000 O   0  0  0  0  0  0  0  0  0  0  0  0
   58.0480   27.5280   47.0270 C   0  0  0  0  0  0  0  0  0  0  0  0
   58.7220   28.6930   47.3800 C   0  0  0  0  0  0  0  0  0  0  0  0
   58.5680   29.8770   46.6320 C   0  0  0  0  0  0  0  0  0  0  0  0
   66.6510   32.3626   51.2443 H   0  0  0  0  0  0  0  0  0  0  0  0
   66.3710   31.4639   49.7144 H   0  0  0  0  0  0  0  0  0  0  0  0
   67.3941   32.9403   49.7144 H   0  0  0  0  0  0  0  0  0  0  0  0
   64.7326   33.4693   50.8294 H   0  0  0  0  0  0  0  0  0  0  0  0
   65.6304   34.2619   49.4403 H   0  0  0  0  0  0  0  0  0  0  0  0
   64.9140   32.3390   48.1310 H   0  0  0  0  0  0  0  0  0  0  0  0
   62.3972   33.5811   48.6701 H   0  0  0  0  0  0  0  0  0  0  0  0
   63.8050   34.7312   48.5297 H   0  0  0  0  0  0  0  0  0  0  0  0
   62.9023   32.6815   46.4557 H   0  0  0  0  0  0  0  0  0  0  0  0
   62.7710   34.4696   46.3441 H   0  0  0  0  0  0  0  0  0  0  0  0
   64.3873   33.6859   46.3441 H   0  0  0  0  0  0  0  0  0  0  0  0
   63.8040   30.6822   48.9908 H   0  0  0  0  0  0  0  0  0  0  0  0
   63.7974   31.5848   50.5760 H   0  0  0  0  0  0  0  0  0  0  0  0
   61.5644   31.5804   50.3839 H   0  0  0  0  0  0  0  0  0  0  0  0
   61.8375   32.8646   49.1186 H   0  0  0  0  0  0  0  0  0  0  0  0
   61.7855   31.1718   47.3528 H   0  0  0  0  0  0  0  0  0  0  0  0
   61.5463   29.8748   48.5925 H   0  0  0  0  0  0  0  0  0  0  0  0
   59.4390   31.5380   49.1300 H   0  0  0  0  0  0  0  0  0  0  0  0
   60.3050   33.4813   47.4931 H   0  0  0  0  0  0  0  0  0  0  0  0
   59.8547   35.5679   46.2216 H   0  0  0  0  0  0  0  0  0  0  0  0
   58.2572   35.5475   44.3146 H   0  0  0  0  0  0  0  0  0  0  0  0
   57.2019   33.4193   43.5898 H   0  0  0  0  0  0  0  0  0  0  0  0
   56.0004   30.7181   43.3935 H   0  0  0  0  0  0  0  0  0  0  0  0
   57.2610   31.8328   42.7651 H   0  0  0  0  0  0  0  0  0  0  0  0
   57.5490   30.0598   42.7651 H   0  0  0  0  0  0  0  0  0  0  0  0
   56.3775   28.6652   44.2816 H   0  0  0  0  0  0  0  0  0  0  0  0
   58.1912   26.6136   47.6214 H   0  0  0  0  0  0  0  0  0  0  0  0
   59.3857   28.6895   48.2572 H   0  0  0  0  0  0  0  0  0  0  0  0
  1  2  1  0
  2  3  1  0
  3  4  1  0
  4  5  1  0
  3  6  1  0
  6  7  1  0
  7  8  1  0
  8  9  1  0
  9 10  1  0
 10 11  2  0
 11 12  1  0
 12 13  2  0
 13 14  1  0
 14 15  2  0
 15 16  1  0
 16 17  2  0
 17 18  1  0
 17 19  1  0
 19 20  2  0
 20 21  1  0
 21 22  1  0
 22 23  2  0
 22 24  1  0
 21 25  2  0
 25 26  1  0
 26 27  2  0
 27 10  1  0
 16 11  1  0
 27 19  1  0
  1 28  1  0
  1 29  1  0
  1 30  1  0
  2 31  1  0
  2 32  1  0
  3 33  1  0
  4 34  1  0
  4 35  1  0
  5 36  1  0
  5 37  1  0
  5 38  1  0
  6 39  1  0
  6 40  1  0
  7 41  1  0
  7 42  1  0
  8 43  1  0
  8 44  1  0
  9 45  1  0
 12 46  1  0
 13 47  1  0
 14 48  1  0
 15 49  1  0
 18 50  1  0
 18 51  1  0
 18 52  1  0
 20 53  1  0
 25 54  1  0
 26 55  1  0
M  CHG  4   3   1  17   1  22   1  24  -1
M  END
>  <UniqueID>  (16) 
16

>  <SMILES>  (16) 
CC[NH+](CC)CCCNc1c2ccccc2[n+](C)c2cc([N+](=O)[O-])ccc12

>  <Energy>  (16) 
84.18799876848824

>  <Genealogy>  (16) 
CC[NH+](CC)CCCNc1c2ccccc2[n+](C)c2cc([N+](=O)[O-])ccc12 (protonated)
CC[NH+](CC)CCCNc1c2ccccc2[n+](C)c2cc([N+](=O)[O-])ccc12 (3D coordinates assigned)
CC[NH+](CC)CCCNc1c2ccccc2[n+](C)c2cc([N+](=O)[O-])ccc12 (optimized conformer: 84.18799876848824 kcal/mol)

>  <smiles>  (16) 
CCN(CC)CCCNc1c2ccccc2[n+](C)c2cc([N+](=O)[O-])ccc12

>  <score_type>  (16) 
oracle

>  <origin>  (16) 
adg

>  <m_score__min__energy>  (16) 
-5.4900000000000002

>  <m_primary>  (16) 
energy

$$$$
16:0
     RDKit          3D

 34 36  0  0  0  0  0  0  0  0999 V2000
   56.2820   29.6550   42.7390 C   0  0  0  0  0  0  0  0  0  0  0  0
   55.4580   29.9620   43.9830 C   0  0  0  0  0  0  0  0  0  0  0  0
   55.9730   29.2050   45.1300 N   0  0  0  0  0  0  0  0  0  0  0  0
   57.4410   29.1100   45.0950 C   0  0  0  0  0  0  0  0  0  0  0  0
   58.0740   30.0800   46.0970 C   0  0  0  0  0  0  0  0  0  0  0  0
   58.3650   31.4090   45.4600 C   0  0  0  0  0  0  0  0  0  0  0  0
   58.1870   31.6990   44.1090 C   0  0  0  0  0  0  0  0  0  0  0  0
   58.4300   33.0060   43.8640 N   0  0  0  0  0  0  0  0  0  0  0  0
   58.7520   33.5560   45.0460 C   0  0  0  0  0  0  0  0  0  0  0  0
   59.0640   34.9060   45.2890 C   0  0  0  0  0  0  0  0  0  0  0  0
   59.3590   35.3000   46.6120 C   0  0  0  0  0  0  0  0  0  0  0  0
   59.3280   34.3250   47.6230 C   0  0  0  0  0  0  0  0  0  0  0  0
   59.5910   34.5040   48.9270 N   0  0  0  0  0  0  0  0  0  0  0  0
   59.4550   33.2900   49.5050 C   0  0  0  0  0  0  0  0  0  0  0  0
   59.1040   32.3280   48.5640 C   0  0  0  0  0  0  0  0  0  0  0  0
   59.0210   33.0050   47.3630 C   0  0  0  0  0  0  0  0  0  0  0  0
   58.7230   32.6110   46.0550 C   0  0  0  0  0  0  0  0  0  0  0  0
   57.2739   29.2854   43.0382 H   0  0  0  0  0  0  0  0  0  0  0  0
   55.7700   28.8873   42.1403 H   0  0  0  0  0  0  0  0  0  0  0  0
   56.3971   30.5706   42.1403 H   0  0  0  0  0  0  0  0  0  0  0  0
   55.5170   31.0384   44.2017 H   0  0  0  0  0  0  0  0  0  0  0  0
   54.4122   29.6730   43.8019 H   0  0  0  0  0  0  0  0  0  0  0  0
   55.7050   29.7260   45.9980 H   0  0  0  0  0  0  0  0  0  0  0  0
   57.7418   28.0828   45.3485 H   0  0  0  0  0  0  0  0  0  0  0  0
   57.7868   29.3725   44.0843 H   0  0  0  0  0  0  0  0  0  0  0  0
   57.3808   30.2297   46.9379 H   0  0  0  0  0  0  0  0  0  0  0  0
   59.0228   29.6475   46.4474 H   0  0  0  0  0  0  0  0  0  0  0  0
   57.8894   30.9647   43.3459 H   0  0  0  0  0  0  0  0  0  0  0  0
   58.3630   33.4900   42.9410 H   0  0  0  0  0  0  0  0  0  0  0  0
   59.0778   35.6373   44.4674 H   0  0  0  0  0  0  0  0  0  0  0  0
   59.6073   36.3458   46.8459 H   0  0  0  0  0  0  0  0  0  0  0  0
   59.8520   35.3970   49.4020 H   0  0  0  0  0  0  0  0  0  0  0  0
   59.6022   33.0896   50.5765 H   0  0  0  0  0  0  0  0  0  0  0  0
   58.9296   31.2561   48.7390 H   0  0  0  0  0  0  0  0  0  0  0  0
  1  2  1  0
  2  3  1  0
  3  4  1  0
  4  5  1  0
  5  6  1  0
  6  7  2  0
  7  8  1  0
  8  9  1  0
  9 10  2  0
 10 11  1  0
 11 12  2  0
 12 13  1  0
 13 14  1  0
 14 15  2  0
 15 16  1  0
 16 17  2  0
 17  6  1  0
 17  9  1  0
 16 12  1  0
  1 18  1  0
  1 19  1  0
  1 20  1  0
  2 21  1  0
  2 22  1  0
  3 23  1  0
  4 24  1  0
  4 25  1  0
  5 26  1  0
  5 27  1  0
  7 28  1  0
  8 29  1  0
 10 30  1  0
 11 31  1  0
 13 32  1  0
 14 33  1  0
 15 34  1  0
M  END
>  <UniqueID>  (17) 
17

>  <SMILES>  (17) 
CCNCCc1c[nH]c2ccc3[nH]ccc3c12

>  <Energy>  (17) 
96.69810525158839

>  <Genealogy>  (17) 
CCNCCc1c[nH]c2ccc3[nH]ccc3c12 (3D coordinates assigned)
CCNCCc1c[nH]c2ccc3[nH]ccc3c12 (optimized conformer: 96.69810525158839 kcal/mol)

>  <smiles>  (17) 
CCNCCc1c[nH]c2ccc3[nH]ccc3c12

>  <score_type>  (17) 
oracle

>  <origin>  (17) 
adg

>  <m_score__min__energy>  (17) 
-6.5800000000000001

>  <m_primary>  (17) 
energy

$$$$
17:0
     RDKit          3D

 41 43  0  0  0  0  0  0  0  0999 V2000
   58.0000   34.1680   46.3920 C   0  0  0  0  0  0  0  0  0  0  0  0
   59.4250   34.4520   45.9280 C   0  0  0  0  0  0  0  0  0  0  0  0
   60.2920   33.2980   46.2120 N   0  0  0  0  0  0  0  0  0  0  0  0
   59.8250   32.5060   47.3640 C   0  0  0  0  0  0  0  0  0  0  0  0
   60.3320   31.0550   47.3160 C   0  0  0  0  0  0  0  0  0  0  0  0
   60.1360   30.4830   45.9840 N   0  0  0  0  0  0  0  0  0  0  0  0
   58.8740   30.5500   45.3030 C   0  0  0  0  0  0  0  0  0  0  0  0
   58.5300   31.6630   44.5760 N   0  0  0  0  0  0  0  0  0  0  0  0
   57.2970   31.8000   43.9930 C   0  0  0  0  0  0  0  0  0  0  0  0
   56.3280   30.7930   44.1200 C   0  0  0  0  0  0  0  0  0  0  0  0
   56.6790   29.6570   44.8370 C   0  0  0  0  0  0  0  0  0  0  0  0
   55.9300   28.5960   45.0500 O   0  0  0  0  0  0  0  0  0  0  0  0
   56.6640   27.7470   45.7390 C   0  0  0  0  0  0  0  0  0  0  0  0
   56.2860   26.4770   46.1720 C   0  0  0  0  0  0  0  0  0  0  0  0
   54.9910   26.0140   45.9020 O   0  0  0  0  0  0  0  0  0  0  0  0
   54.6800   24.6700   45.5520 C   0  0  0  0  0  0  0  0  0  0  0  0
   57.2520   25.7090   46.8650 C   0  0  0  0  0  0  0  0  0  0  0  0
   58.5480   26.2210   47.0870 C   0  0  0  0  0  0  0  0  0  0  0  0
   58.9000   27.5060   46.6400 C   0  0  0  0  0  0  0  0  0  0  0  0
   57.9220   28.2620   45.9870 C   0  0  0  0  0  0  0  0  0  0  0  0
   57.9260   29.5220   45.4110 C   0  0  0  0  0  0  0  0  0  0  0  0
   57.9668   34.1614   47.4915 H   0  0  0  0  0  0  0  0  0  0  0  0
   57.3272   34.9497   46.0096 H   0  0  0  0  0  0  0  0  0  0  0  0
   57.6783   33.1881   46.0096 H   0  0  0  0  0  0  0  0  0  0  0  0
   59.4225   34.6467   44.8454 H   0  0  0  0  0  0  0  0  0  0  0  0
   59.8093   35.3305   46.4670 H   0  0  0  0  0  0  0  0  0  0  0  0
   60.3420   32.6880   45.3620 H   0  0  0  0  0  0  0  0  0  0  0  0
   60.1886   32.9778   48.2888 H   0  0  0  0  0  0  0  0  0  0  0  0
   58.7257   32.4805   47.3326 H   0  0  0  0  0  0  0  0  0  0  0  0
   61.4040   31.0387   47.5619 H   0  0  0  0  0  0  0  0  0  0  0  0
   59.7644   30.4576   48.0446 H   0  0  0  0  0  0  0  0  0  0  0  0
   60.9220   29.9670   45.5320 H   0  0  0  0  0  0  0  0  0  0  0  0
   59.2040   32.4540   44.4770 H   0  0  0  0  0  0  0  0  0  0  0  0
   57.0646   32.7093   43.4193 H   0  0  0  0  0  0  0  0  0  0  0  0
   55.3301   30.8994   43.6695 H   0  0  0  0  0  0  0  0  0  0  0  0
   54.5424   24.0753   46.4671 H   0  0  0  0  0  0  0  0  0  0  0  0
   53.7536   24.6505   44.9592 H   0  0  0  0  0  0  0  0  0  0  0  0
   55.5036   24.2455   44.9592 H   0  0  0  0  0  0  0  0  0  0  0  0
   56.9906   24.7059   47.2331 H   0  0  0  0  0  0  0  0  0  0  0  0
   59.2916   25.6070   47.6162 H   0  0  0  0  0  0  0  0  0  0  0  0
   59.9130   27.9044   46.7989 H   0  0  0  0  0  0  0  0  0  0  0  0
  1  2  1  0
  2  3  1  0
  3  4  1  0
  4  5  1  0
  5  6  1  0
  6  7  1  0
  7  8  2  0
  8  9  1  0
  9 10  2  0
 10 11  1  0
 11 12  1  0
 12 13  1  0
 13 14  2  0
 14 15  1  0
 15 16  1  0
 14 17  1  0
 17 18  2  0
 18 19  1  0
 19 20  2  0
 20 21  1  0
 21  7  1  0
 21 11  2  0
 20 13  1  0
  1 22  1  0
  1 23  1  0
  1 24  1  0
  2 25  1  0
  2 26  1  0
  3 27  1  0
  4 28  1  0
  4 29  1  0
  5 30  1  0
  5 31  1  0
  6 32  1  0
  8 33  1  0
  9 34  1  0
 10 35  1  0
 16 36  1  0
 16 37  1  0
 16 38  1  0
 17 39  1  0
 18 40  1  0
 19 41  1  0
M  CHG  1   8   1
M  END
>  <UniqueID>  (18) 
18

>  <SMILES>  (18) 
CCNCCNc1[nH+]ccc2oc3c(OC)cccc3c12

>  <Energy>  (18) 
84.47807888702538

>  <Genealogy>  (18) 
CCNCCNc1[nH+]ccc2oc3c(OC)cccc3c12 (protonated)
CCNCCNc1[nH+]ccc2oc3c(OC)cccc3c12 (3D coordinates assigned)
CCNCCNc1[nH+]ccc2oc3c(OC)cccc3c12 (optimized conformer: 84.47807888702538 kcal/mol)

>  <smiles>  (18) 
CCNCCNc1nccc2oc3c(OC)cccc3c12

>  <score_type>  (18) 
oracle

>  <origin>  (18) 
adg

>  <m_score__min__energy>  (18) 
-5.4199999999999999

>  <m_primary>  (18) 
energy

$$$$
18:0
     RDKit          3D

 50 52  0  0  0  0  0  0  0  0999 V2000
   54.1500   30.0090   52.1010 C   0  0  0  0  0  0  0  0  0  0  0  0
   55.4770   29.4240   52.5830 C   0  0  0  0  0  0  0  0  0  0  0  0
   56.6390   30.1080   51.9710 N   0  0  0  0  0  0  0  0  0  0  0  0
   56.6520   31.5180   52.3850 C   0  0  0  0  0  0  0  0  0  0  0  0
   57.7280   32.3090   51.6210 C   0  0  0  0  0  0  0  0  0  0  0  0
   58.8730   31.4830   51.1570 N   0  0  0  0  0  0  0  0  0  0  0  0
   58.8720   31.1900   49.6960 C   0  0  0  0  0  0  0  0  0  0  0  0
   58.9430   32.4000   48.7840 C   0  0  0  0  0  0  0  0  0  0  0  0
   58.3450   32.3340   47.5130 C   0  0  0  0  0  0  0  0  0  0  0  0
   58.4390   33.4070   46.6230 C   0  0  0  0  0  0  0  0  0  0  0  0
   57.5940   33.3060   44.9140 Br  0  0  0  0  0  0  0  0  0  0  0  0
   59.1500   34.5500   46.9840 C   0  0  0  0  0  0  0  0  0  0  0  0
   59.7610   34.6290   48.2360 C   0  0  0  0  0  0  0  0  0  0  0  0
   59.6750   33.5550   49.1440 C   0  0  0  0  0  0  0  0  0  0  0  0
   60.3100   33.5970   50.3970 O   0  0  0  0  0  0  0  0  0  0  0  0
   61.6900   33.3240   50.6400 C   0  0  0  0  0  0  0  0  0  0  0  0
   62.4250   33.0730   49.3470 C   0  0  0  0  0  0  0  0  0  0  0  0
   63.0740   34.1370   48.6980 C   0  0  0  0  0  0  0  0  0  0  0  0
   63.7470   33.9230   47.4930 C   0  0  0  0  0  0  0  0  0  0  0  0
   63.7690   32.6510   46.9180 C   0  0  0  0  0  0  0  0  0  0  0  0
   63.1130   31.5900   47.5470 C   0  0  0  0  0  0  0  0  0  0  0  0
   62.4360   31.7960   48.7540 C   0  0  0  0  0  0  0  0  0  0  0  0
   61.7980   30.7510   49.3400 F   0  0  0  0  0  0  0  0  0  0  0  0
   59.1540   30.3140   52.0240 C   0  0  0  0  0  0  0  0  0  0  0  0
   57.9080   29.4630   52.3680 C   0  0  0  0  0  0  0  0  0  0  0  0
   53.5323   30.2813   52.9695 H   0  0  0  0  0  0  0  0  0  0  0  0
   54.3436   30.9052   51.4933 H   0  0  0  0  0  0  0  0  0  0  0  0
   53.6190   29.2616   51.4933 H   0  0  0  0  0  0  0  0  0  0  0  0
   55.5366   29.5318   53.6761 H   0  0  0  0  0  0  0  0  0  0  0  0
   55.5100   28.3655   52.2854 H   0  0  0  0  0  0  0  0  0  0  0  0
   55.6665   31.9618   52.1803 H   0  0  0  0  0  0  0  0  0  0  0  0
   56.8809   31.5647   53.4599 H   0  0  0  0  0  0  0  0  0  0  0  0
   57.2571   32.7720   50.7413 H   0  0  0  0  0  0  0  0  0  0  0  0
   58.1358   33.0504   52.3239 H   0  0  0  0  0  0  0  0  0  0  0  0
   59.7120   32.1020   51.2750 H   0  0  0  0  0  0  0  0  0  0  0  0
   59.7406   30.5511   49.4785 H   0  0  0  0  0  0  0  0  0  0  0  0
   57.9039   30.7118   49.4860 H   0  0  0  0  0  0  0  0  0  0  0  0
   57.7971   31.4275   47.2161 H   0  0  0  0  0  0  0  0  0  0  0  0
   59.2297   35.3918   46.2804 H   0  0  0  0  0  0  0  0  0  0  0  0
   60.3144   35.5373   48.5165 H   0  0  0  0  0  0  0  0  0  0  0  0
   62.1433   34.1866   51.1503 H   0  0  0  0  0  0  0  0  0  0  0  0
   61.7649   32.4235   51.2673 H   0  0  0  0  0  0  0  0  0  0  0  0
   63.0519   35.1435   49.1412 H   0  0  0  0  0  0  0  0  0  0  0  0
   64.2610   34.7588   46.9958 H   0  0  0  0  0  0  0  0  0  0  0  0
   64.3024   32.4843   45.9705 H   0  0  0  0  0  0  0  0  0  0  0  0
   63.1288   30.5888   47.0916 H   0  0  0  0  0  0  0  0  0  0  0  0
   59.8802   29.6688   51.5079 H   0  0  0  0  0  0  0  0  0  0  0  0
   59.5366   30.7118   52.9755 H   0  0  0  0  0  0  0  0  0  0  0  0
   57.9883   28.4977   51.8467 H   0  0  0  0  0  0  0  0  0  0  0  0
   57.8860   29.3398   53.4609 H   0  0  0  0  0  0  0  0  0  0  0  0
  1  2  1  0
  2  3  1  0
  3  4  1  0
  4  5  1  0
  5  6  1  0
  6  7  1  0
  7  8  1  0
  8  9  2  0
  9 10  1  0
 10 11  1  0
 10 12  2  0
 12 13  1  0
 13 14  2  0
 14 15  1  0
 15 16  1  0
 16 17  1  0
 17 18  2  0
 18 19  1  0
 19 20  2  0
 20 21  1  0
 21 22  2  0
 22 23  1  0
  6 24  1  0
 24 25  1  0
 25  3  1  0
 14  8  1  0
 22 17  1  0
  1 26  1  0
  1 27  1  0
  1 28  1  0
  2 29  1  0
  2 30  1  0
  4 31  1  0
  4 32  1  0
  5 33  1  0
  5 34  1  0
  6 35  1  0
  7 36  1  0
  7 37  1  0
  9 38  1  0
 12 39  1  0
 13 40  1  0
 16 41  1  0
 16 42  1  0
 18 43  1  0
 19 44  1  0
 20 45  1  0
 21 46  1  0
 24 47  1  0
 24 48  1  0
 25 49  1  0
 25 50  1  0
M  CHG  1   6   1
M  END
>  <UniqueID>  (19) 
19

>  <SMILES>  (19) 
CCN1CC[NH+](Cc2cc(Br)ccc2OCc2ccccc2F)CC1

>  <Energy>  (19) 
65.1884084492071

>  <Genealogy>  (19) 
CCN1CC[NH+](Cc2cc(Br)ccc2OCc2ccccc2F)CC1 (protonated)
CCN1CC[NH+](Cc2cc(Br)ccc2OCc2ccccc2F)CC1 (3D coordinates assigned)
CCN1CC[NH+](Cc2cc(Br)ccc2OCc2ccccc2F)CC1 (nonaromatic ring conformer: 65.1884084492071 kcal/mol)

>  <smiles>  (19) 
CCN1CCN(Cc2cc(Br)ccc2OCc2ccccc2F)CC1

>  <score_type>  (19) 
oracle

>  <origin>  (19) 
adg

>  <m_score__min__energy>  (19) 
-5.9100000000000001

>  <m_primary>  (19) 
energy

$$$$
19:0
     RDKit          3D

 63 66  0  0  0  0  0  0  0  0999 V2000
   56.3610   25.2580   46.7570 C   0  0  0  0  0  0  0  0  0  0  0  0
   57.6640   25.3840   47.5400 C   0  0  0  0  0  0  0  0  0  0  0  0
   58.1260   26.7340   47.5350 O   0  0  0  0  0  0  0  0  0  0  0  0
   58.5670   27.4470   46.4060 C   0  0  0  0  0  0  0  0  0  0  0  0
   58.4820   26.9190   45.1020 C   0  0  0  0  0  0  0  0  0  0  0  0
   58.9350   27.6590   44.0070 C   0  0  0  0  0  0  0  0  0  0  0  0
   59.4770   28.9290   44.1970 C   0  0  0  0  0  0  0  0  0  0  0  0
   59.5650   29.4680   45.4810 C   0  0  0  0  0  0  0  0  0  0  0  0
   59.1070   28.7370   46.5920 C   0  0  0  0  0  0  0  0  0  0  0  0
   59.2340   29.3210   47.9790 C   0  0  0  0  0  0  0  0  0  0  0  0
   60.6510   29.5600   48.3280 N   0  0  0  0  0  0  0  0  0  0  0  0
   61.2070   30.7170   47.5810 C   0  0  0  0  0  0  0  0  0  0  0  0
   62.4140   31.3390   48.2970 C   0  0  0  0  0  0  0  0  0  0  0  0
   62.0630   31.8110   49.6570 N   0  0  0  0  0  0  0  0  0  0  0  0
   62.0100   33.2830   49.8060 C   0  0  0  0  0  0  0  0  0  0  0  0
   60.6380   33.8240   50.2570 C   0  0  0  0  0  0  0  0  0  0  0  0
   60.0140   34.5420   49.1920 O   0  0  0  0  0  0  0  0  0  0  0  0
   59.4900   33.9730   48.0190 C   0  0  0  0  0  0  0  0  0  0  0  0
   59.7610   34.4830   46.7350 C   0  0  0  0  0  0  0  0  0  0  0  0
   59.2080   33.8750   45.6040 C   0  0  0  0  0  0  0  0  0  0  0  0
   58.3830   32.7450   45.7290 C   0  0  0  0  0  0  0  0  0  0  0  0
   57.7980   32.0970   44.5260 C   0  0  0  0  0  0  0  0  0  0  0  0
   56.9270   30.9990   44.6560 C   0  0  0  0  0  0  0  0  0  0  0  0
   56.3780   30.3930   43.5220 C   0  0  0  0  0  0  0  0  0  0  0  0
   56.6900   30.8750   42.2490 C   0  0  0  0  0  0  0  0  0  0  0  0
   57.5520   31.9640   42.1060 C   0  0  0  0  0  0  0  0  0  0  0  0
   58.1060   32.5740   43.2380 C   0  0  0  0  0  0  0  0  0  0  0  0
   58.1220   32.2360   47.0130 C   0  0  0  0  0  0  0  0  0  0  0  0
   58.6710   32.8460   48.1440 C   0  0  0  0  0  0  0  0  0  0  0  0
   60.9150   31.1150   50.2760 C   0  0  0  0  0  0  0  0  0  0  0  0
   60.8360   29.6600   49.7990 C   0  0  0  0  0  0  0  0  0  0  0  0
   55.5179   25.1765   47.4588 H   0  0  0  0  0  0  0  0  0  0  0  0
   56.2263   26.1473   46.1238 H   0  0  0  0  0  0  0  0  0  0  0  0
   56.3992   24.3594   46.1238 H   0  0  0  0  0  0  0  0  0  0  0  0
   57.4937   25.0643   48.5787 H   0  0  0  0  0  0  0  0  0  0  0  0
   58.4253   24.7476   47.0652 H   0  0  0  0  0  0  0  0  0  0  0  0
   58.0559   25.9171   44.9453 H   0  0  0  0  0  0  0  0  0  0  0  0
   58.8638   27.2386   42.9930 H   0  0  0  0  0  0  0  0  0  0  0  0
   59.8361   29.5075   43.3330 H   0  0  0  0  0  0  0  0  0  0  0  0
   59.9949   30.4702   45.6252 H   0  0  0  0  0  0  0  0  0  0  0  0
   58.6884   30.2753   48.0184 H   0  0  0  0  0  0  0  0  0  0  0  0
   58.8125   28.6048   48.6997 H   0  0  0  0  0  0  0  0  0  0  0  0
   61.5225   30.3770   46.5836 H   0  0  0  0  0  0  0  0  0  0  0  0
   60.4219   31.4843   47.5106 H   0  0  0  0  0  0  0  0  0  0  0  0
   63.2093   30.5832   48.3765 H   0  0  0  0  0  0  0  0  0  0  0  0
   62.7505   32.2063   47.7100 H   0  0  0  0  0  0  0  0  0  0  0  0
   62.7608   33.5814   50.5525 H   0  0  0  0  0  0  0  0  0  0  0  0
   62.2059   33.7086   48.8108 H   0  0  0  0  0  0  0  0  0  0  0  0
   59.9951   32.9817   50.5524 H   0  0  0  0  0  0  0  0  0  0  0  0
   60.7840   34.5037   51.1095 H   0  0  0  0  0  0  0  0  0  0  0  0
   60.4105   35.3635   46.6212 H   0  0  0  0  0  0  0  0  0  0  0  0
   59.4211   34.2857   44.6061 H   0  0  0  0  0  0  0  0  0  0  0  0
   56.6767   30.6153   45.6561 H   0  0  0  0  0  0  0  0  0  0  0  0
   55.6989   29.5348   43.6327 H   0  0  0  0  0  0  0  0  0  0  0  0
   56.2564   30.3965   41.3585 H   0  0  0  0  0  0  0  0  0  0  0  0
   57.7962   32.3432   41.1027 H   0  0  0  0  0  0  0  0  0  0  0  0
   58.7857   33.4308   43.1201 H   0  0  0  0  0  0  0  0  0  0  0  0
   57.4802   31.3501   47.1285 H   0  0  0  0  0  0  0  0  0  0  0  0
   58.4571   32.4360   49.1421 H   0  0  0  0  0  0  0  0  0  0  0  0
   61.0319   31.1297   51.3697 H   0  0  0  0  0  0  0  0  0  0  0  0
   59.9899   31.6323   49.9817 H   0  0  0  0  0  0  0  0  0  0  0  0
   61.7687   29.1460   50.0743 H   0  0  0  0  0  0  0  0  0  0  0  0
   59.9641   29.1938   50.2811 H   0  0  0  0  0  0  0  0  0  0  0  0
  1  2  1  0
  2  3  1  0
  3  4  1  0
  4  5  2  0
  5  6  1  0
  6  7  2  0
  7  8  1  0
  8  9  2  0
  9 10  1  0
 10 11  1  0
 11 12  1  0
 12 13  1  0
 13 14  1  0
 14 15  1  0
 15 16  1  0
 16 17  1  0
 17 18  1  0
 18 19  2  0
 19 20  1  0
 20 21  2  0
 21 22  1  0
 22 23  2  0
 23 24  1  0
 24 25  2  0
 25 26  1  0
 26 27  2  0
 21 28  1  0
 28 29  2  0
 14 30  1  0
 30 31  1  0
  9  4  1  0
 31 11  1  0
 29 18  1  0
 27 22  1  0
  1 32  1  0
  1 33  1  0
  1 34  1  0
  2 35  1  0
  2 36  1  0
  5 37  1  0
  6 38  1  0
  7 39  1  0
  8 40  1  0
 10 41  1  0
 10 42  1  0
 12 43  1  0
 12 44  1  0
 13 45  1  0
 13 46  1  0
 15 47  1  0
 15 48  1  0
 16 49  1  0
 16 50  1  0
 19 51  1  0
 20 52  1  0
 23 53  1  0
 24 54  1  0
 25 55  1  0
 26 56  1  0
 27 57  1  0
 28 58  1  0
 29 59  1  0
 30 60  1  0
 30 61  1  0
 31 62  1  0
 31 63  1  0
M  END
>  <UniqueID>  (20) 
20

>  <SMILES>  (20) 
CCOc1ccccc1CN1CCN(CCOc2ccc(-c3ccccc3)cc2)CC1

>  <Energy>  (20) 
84.13752403213039

>  <Genealogy>  (20) 
CCOc1ccccc1CN1CCN(CCOc2ccc(-c3ccccc3)cc2)CC1 (3D coordinates assigned)
CCOc1ccccc1CN1CCN(CCOc2ccc(-c3ccccc3)cc2)CC1 (nonaromatic ring conformer: 84.13752403213039 kcal/mol)

>  <smiles>  (20) 
CCOc1ccccc1CN1CCN(CCOc2ccc(-c3ccccc3)cc2)CC1

>  <score_type>  (20) 
oracle

>  <origin>  (20) 
adg

>  <m_score__min__energy>  (20) 
-8.9399999999999995

>  <m_primary>  (20) 
energy

$$$$
20:0
     RDKit          3D

 43 45  0  0  0  0  0  0  0  0999 V2000
   55.3840   30.0240   44.0150 C   0  0  0  0  0  0  0  0  0  0  0  0
   55.8260   28.9810   44.9410 N   0  0  0  0  0  0  0  0  0  0  0  0
   57.2030   28.5350   44.6670 C   0  0  0  0  0  0  0  0  0  0  0  0
   58.2740   29.5700   45.0780 C   0  0  0  0  0  0  0  0  0  0  0  0
   57.7920   30.4440   46.1530 N   0  0  0  0  0  0  0  0  0  0  0  0
   58.6790   31.3250   46.8670 C   0  0  0  0  0  0  0  0  0  0  0  0
   58.8510   32.6570   46.4460 C   0  0  0  0  0  0  0  0  0  0  0  0
   58.0820   33.1890   45.3880 C   0  0  0  0  0  0  0  0  0  0  0  0
   58.3190   34.4760   44.9120 C   0  0  0  0  0  0  0  0  0  0  0  0
   59.3240   35.2520   45.4760 C   0  0  0  0  0  0  0  0  0  0  0  0
   60.0600   34.7670   46.5550 C   0  0  0  0  0  0  0  0  0  0  0  0
   59.8030   33.4830   47.1010 C   0  0  0  0  0  0  0  0  0  0  0  0
   60.4550   33.0270   48.2330 N   0  0  0  0  0  0  0  0  0  0  0  0
   61.2160   33.9760   49.0790 C   0  0  0  0  0  0  0  0  0  0  0  0
   60.3580   31.6990   48.6040 C   0  0  0  0  0  0  0  0  0  0  0  0
   61.1870   31.1460   49.6150 C   0  0  0  0  0  0  0  0  0  0  0  0
   61.0370   29.8190   50.0380 C   0  0  0  0  0  0  0  0  0  0  0  0
   61.9430   29.2510   51.0910 C   0  0  0  0  0  0  0  0  0  0  0  0
   60.0860   29.0060   49.4220 C   0  0  0  0  0  0  0  0  0  0  0  0
   59.2920   29.5080   48.3940 C   0  0  0  0  0  0  0  0  0  0  0  0
   59.4290   30.8420   47.9560 C   0  0  0  0  0  0  0  0  0  0  0  0
   55.0171   30.8897   44.5859 H   0  0  0  0  0  0  0  0  0  0  0  0
   56.2282   30.3337   43.3815 H   0  0  0  0  0  0  0  0  0  0  0  0
   54.5743   29.6328   43.3815 H   0  0  0  0  0  0  0  0  0  0  0  0
   55.1700   28.1680   44.8750 H   0  0  0  0  0  0  0  0  0  0  0  0
   57.3856   27.6039   45.2235 H   0  0  0  0  0  0  0  0  0  0  0  0
   57.2887   28.3918   43.5797 H   0  0  0  0  0  0  0  0  0  0  0  0
   59.1713   29.0371   45.4258 H   0  0  0  0  0  0  0  0  0  0  0  0
   58.5045   30.1946   44.2024 H   0  0  0  0  0  0  0  0  0  0  0  0
   56.8270   30.2980   46.5250 H   0  0  0  0  0  0  0  0  0  0  0  0
   57.2864   32.5797   44.9345 H   0  0  0  0  0  0  0  0  0  0  0  0
   57.7102   34.8785   44.0890 H   0  0  0  0  0  0  0  0  0  0  0  0
   59.5391   36.2514   45.0698 H   0  0  0  0  0  0  0  0  0  0  0  0
   60.8543   35.3906   46.9912 H   0  0  0  0  0  0  0  0  0  0  0  0
   61.0339   33.7489   50.1398 H   0  0  0  0  0  0  0  0  0  0  0  0
   62.2902   33.8800   48.8626 H   0  0  0  0  0  0  0  0  0  0  0  0
   60.8889   35.0037   48.8626 H   0  0  0  0  0  0  0  0  0  0  0  0
   61.9641   31.7732   50.0763 H   0  0  0  0  0  0  0  0  0  0  0  0
   61.5478   29.4987   52.0872 H   0  0  0  0  0  0  0  0  0  0  0  0
   61.9955   28.1580   50.9788 H   0  0  0  0  0  0  0  0  0  0  0  0
   62.9497   29.6799   50.9788 H   0  0  0  0  0  0  0  0  0  0  0  0
   59.9625   27.9632   49.7497 H   0  0  0  0  0  0  0  0  0  0  0  0
   58.5469   28.8547   47.9164 H   0  0  0  0  0  0  0  0  0  0  0  0
  1  2  1  0
  2  3  1  0
  3  4  1  0
  4  5  1  0
  5  6  1  0
  6  7  2  0
  7  8  1  0
  8  9  2  0
  9 10  1  0
 10 11  2  0
 11 12  1  0
 12 13  2  0
 13 14  1  0
 13 15  1  0
 15 16  2  0
 16 17  1  0
 17 18  1  0
 17 19  2  0
 19 20  1  0
 20 21  2  0
 21  6  1  0
 12  7  1  0
 21 15  1  0
  1 22  1  0
  1 23  1  0
  1 24  1  0
  2 25  1  0
  3 26  1  0
  3 27  1  0
  4 28  1  0
  4 29  1  0
  5 30  1  0
  8 31  1  0
  9 32  1  0
 10 33  1  0
 11 34  1  0
 14 35  1  0
 14 36  1  0
 14 37  1  0
 16 38  1  0
 18 39  1  0
 18 40  1  0
 18 41  1  0
 19 42  1  0
 20 43  1  0
M  CHG  1  13   1
M  END
>  <UniqueID>  (21) 
21

>  <SMILES>  (21) 
CNCCNc1c2ccccc2[n+](C)c2cc(C)ccc12

>  <Energy>  (21) 
71.30549403228437

>  <Genealogy>  (21) 
CNCCNc1c2ccccc2[n+](C)c2cc(C)ccc12 (3D coordinates assigned)
CNCCNc1c2ccccc2[n+](C)c2cc(C)ccc12 (optimized conformer: 71.30549403228437 kcal/mol)

>  <smiles>  (21) 
CNCCNc1c2ccccc2[n+](C)c2cc(C)ccc12

>  <score_type>  (21) 
oracle

>  <origin>  (21) 
adg

>  <m_score__min__energy>  (21) 
-5.9699999999999998

>  <m_primary>  (21) 
energy

$$$$
21:0
     RDKit          3D

 45 48  0  0  0  0  0  0  0  0999 V2000
   60.8750   29.2550   50.0400 C   0  0  0  0  0  0  0  0  0  0  0  0
   60.7620   29.6270   48.6300 N   0  0  0  0  0  0  0  0  0  0  0  0
   60.9520   30.8410   48.0310 C   0  0  0  0  0  0  0  0  0  0  0  0
   61.3210   32.1270   48.7420 C   0  0  0  0  0  0  0  0  0  0  0  0
   60.4990   33.2920   48.3420 N   0  0  0  0  0  0  0  0  0  0  0  0
   60.8720   33.8920   47.0370 C   0  0  0  0  0  0  0  0  0  0  0  0
   59.6780   34.4950   46.2900 C   0  0  0  0  0  0  0  0  0  0  0  0
   58.6140   33.4930   46.1970 N   0  0  0  0  0  0  0  0  0  0  0  0
   57.7640   33.4610   45.0390 C   0  0  0  0  0  0  0  0  0  0  0  0
   57.3500   34.5430   44.5400 O   0  0  0  0  0  0  0  0  0  0  0  0
   57.3690   32.1900   44.4130 C   0  0  0  0  0  0  0  0  0  0  0  0
   57.5760   31.8240   43.0960 C   0  0  0  0  0  0  0  0  0  0  0  0
   57.0230   30.5710   42.9660 C   0  0  0  0  0  0  0  0  0  0  0  0
   56.5070   30.2490   44.2050 C   0  0  0  0  0  0  0  0  0  0  0  0
   56.7250   31.2350   45.0450 O   0  0  0  0  0  0  0  0  0  0  0  0
   58.2570   32.7040   47.3820 C   0  0  0  0  0  0  0  0  0  0  0  0
   59.0500   33.1650   48.6150 C   0  0  0  0  0  0  0  0  0  0  0  0
   60.7580   30.7830   46.6880 N   0  0  0  0  0  0  0  0  0  0  0  0
   60.3940   29.5150   46.4510 C   0  0  0  0  0  0  0  0  0  0  0  0
   60.0260   28.9380   45.2380 C   0  0  0  0  0  0  0  0  0  0  0  0
   59.6290   27.5870   45.2520 C   0  0  0  0  0  0  0  0  0  0  0  0
   59.6120   26.8600   46.4630 C   0  0  0  0  0  0  0  0  0  0  0  0
   59.9930   27.4730   47.6710 C   0  0  0  0  0  0  0  0  0  0  0  0
   60.3830   28.8140   47.6210 C   0  0  0  0  0  0  0  0  0  0  0  0
   60.6127   30.1184   50.6691 H   0  0  0  0  0  0  0  0  0  0  0  0
   60.1892   28.4224   50.2556 H   0  0  0  0  0  0  0  0  0  0  0  0
   61.9080   28.9445   50.2556 H   0  0  0  0  0  0  0  0  0  0  0  0
   61.1982   31.9718   49.8241 H   0  0  0  0  0  0  0  0  0  0  0  0
   62.3596   32.3588   48.4633 H   0  0  0  0  0  0  0  0  0  0  0  0
   61.6111   34.6869   47.2155 H   0  0  0  0  0  0  0  0  0  0  0  0
   61.2785   33.0854   46.4092 H   0  0  0  0  0  0  0  0  0  0  0  0
   59.3082   35.3751   46.8365 H   0  0  0  0  0  0  0  0  0  0  0  0
   59.9889   34.7996   45.2798 H   0  0  0  0  0  0  0  0  0  0  0  0
   58.0786   32.4125   42.3143 H   0  0  0  0  0  0  0  0  0  0  0  0
   56.9973   29.9509   42.0578 H   0  0  0  0  0  0  0  0  0  0  0  0
   55.9914   29.3091   44.4516 H   0  0  0  0  0  0  0  0  0  0  0  0
   57.1818   32.8227   47.5817 H   0  0  0  0  0  0  0  0  0  0  0  0
   58.5004   31.6495   47.1851 H   0  0  0  0  0  0  0  0  0  0  0  0
   58.6645   34.1438   48.9366 H   0  0  0  0  0  0  0  0  0  0  0  0
   58.9230   32.4031   49.3981 H   0  0  0  0  0  0  0  0  0  0  0  0
   60.8700   31.5470   45.9840 H   0  0  0  0  0  0  0  0  0  0  0  0
   60.0448   29.5167   44.3027 H   0  0  0  0  0  0  0  0  0  0  0  0
   59.3304   27.0950   44.3146 H   0  0  0  0  0  0  0  0  0  0  0  0
   59.2983   25.8057   46.4617 H   0  0  0  0  0  0  0  0  0  0  0  0
   59.9842   26.9169   48.6200 H   0  0  0  0  0  0  0  0  0  0  0  0
  1  2  1  0
  2  3  1  0
  3  4  1  0
  4  5  1  0
  5  6  1  0
  6  7  1  0
  7  8  1  0
  8  9  1  0
  9 10  2  0
  9 11  1  0
 11 12  2  0
 12 13  1  0
 13 14  2  0
 14 15  1  0
  8 16  1  0
 16 17  1  0
  3 18  2  0
 18 19  1  0
 19 20  2  0
 20 21  1  0
 21 22  2  0
 22 23  1  0
 23 24  2  0
 24  2  1  0
 17  5  1  0
 24 19  1  0
 15 11  1  0
  1 25  1  0
  1 26  1  0
  1 27  1  0
  4 28  1  0
  4 29  1  0
  6 30  1  0
  6 31  1  0
  7 32  1  0
  7 33  1  0
 12 34  1  0
 13 35  1  0
 14 36  1  0
 16 37  1  0
 16 38  1  0
 17 39  1  0
 17 40  1  0
 18 41  1  0
 20 42  1  0
 21 43  1  0
 22 44  1  0
 23 45  1  0
M  CHG  1  18   1
M  END
>  <UniqueID>  (22) 
22

>  <SMILES>  (22) 
Cn1c(CN2CCN(C(=O)c3ccco3)CC2)[nH+]c2ccccc21

>  <Energy>  (22) 
123.88926514762231

>  <Genealogy>  (22) 
Cn1c(CN2CCN(C(=O)c3ccco3)CC2)[nH+]c2ccccc21 (protonated)
Cn1c(CN2CCN(C(=O)c3ccco3)CC2)[nH+]c2ccccc21 (3D coordinates assigned)
Cn1c(CN2CCN(C(=O)c3ccco3)CC2)[nH+]c2ccccc21 (nonaromatic ring conformer: 123.88926514762231 kcal/mol)

>  <smiles>  (22) 
Cn1c(CN2CCN(C(=O)c3ccco3)CC2)nc2ccccc21

>  <score_type>  (22) 
oracle

>  <origin>  (22) 
adg

>  <m_score__min__energy>  (22) 
-6.0999999999999996

>  <m_primary>  (22) 
energy

$$$$
22:0
     RDKit          3D

 60 63  0  0  0  0  0  0  0  0999 V2000
   65.3880   32.8130   53.9420 C   0  0  0  0  0  0  0  0  0  0  0  0
   65.7270   32.7820   52.5170 N   0  0  0  0  0  0  0  0  0  0  0  0
   67.0280   32.9300   52.1240 C   0  0  0  0  0  0  0  0  0  0  0  0
   67.3630   32.9210   50.7650 C   0  0  0  0  0  0  0  0  0  0  0  0
   66.3560   32.7830   49.8150 C   0  0  0  0  0  0  0  0  0  0  0  0
   65.0200   32.6670   50.2220 C   0  0  0  0  0  0  0  0  0  0  0  0
   63.9690   32.5430   49.2470 N   0  0  0  0  0  0  0  0  0  0  0  0
   63.8780   33.4960   48.1370 C   0  0  0  0  0  0  0  0  0  0  0  0
   62.6860   33.1620   47.2260 C   0  0  0  0  0  0  0  0  0  0  0  0
   61.4220   32.9970   47.9860 N   0  0  0  0  0  0  0  0  0  0  0  0
   60.7420   34.2940   48.2100 C   0  0  0  0  0  0  0  0  0  0  0  0
   60.2360   34.9090   46.8930 C   0  0  0  0  0  0  0  0  0  0  0  0
   59.6500   33.8780   46.0180 N   0  0  0  0  0  0  0  0  0  0  0  0
   58.1740   33.9620   45.9730 C   0  0  1  0  0  0  0  0  0  0  0  0
   57.6800   34.0710   44.5030 C   0  0  0  0  0  0  0  0  0  0  0  0
   58.1700   32.9250   43.5950 C   0  0  0  0  0  0  0  0  0  0  0  0
   57.7750   31.4890   44.0240 C   0  0  0  0  0  0  0  0  0  0  0  0
   58.5020   30.9210   45.2300 C   0  0  0  0  0  0  0  0  0  0  0  0
   59.2760   29.7570   45.0800 C   0  0  0  0  0  0  0  0  0  0  0  0
   59.9370   29.1960   46.1760 C   0  0  0  0  0  0  0  0  0  0  0  0
   59.8340   29.7890   47.4350 C   0  0  0  0  0  0  0  0  0  0  0  0
   59.0570   30.9360   47.6080 C   0  0  0  0  0  0  0  0  0  0  0  0
   58.3690   31.4980   46.5170 C   0  0  0  0  0  0  0  0  0  0  0  0
   57.5530   32.7510   46.7120 C   0  0  0  0  0  0  0  0  0  0  0  0
   61.5510   32.2030   49.2440 C   0  0  0  0  0  0  0  0  0  0  0  0
   62.9190   31.5280   49.4020 C   0  0  0  0  0  0  0  0  0  0  0  0
   64.7270   32.6670   51.5920 C   0  0  0  0  0  0  0  0  0  0  0  0
   66.3077   32.7289   54.5396 H   0  0  0  0  0  0  0  0  0  0  0  0
   64.8827   33.7611   54.1782 H   0  0  0  0  0  0  0  0  0  0  0  0
   64.7191   31.9723   54.1782 H   0  0  0  0  0  0  0  0  0  0  0  0
   67.8164   33.0569   52.8805 H   0  0  0  0  0  0  0  0  0  0  0  0
   68.4124   33.0221   50.4511 H   0  0  0  0  0  0  0  0  0  0  0  0
   66.6084   32.7649   48.7445 H   0  0  0  0  0  0  0  0  0  0  0  0
   63.7487   34.5103   48.5425 H   0  0  0  0  0  0  0  0  0  0  0  0
   64.8024   33.4352   47.5439 H   0  0  0  0  0  0  0  0  0  0  0  0
   62.5574   33.9777   46.4993 H   0  0  0  0  0  0  0  0  0  0  0  0
   62.9036   32.2069   46.7256 H   0  0  0  0  0  0  0  0  0  0  0  0
   59.8851   34.1355   48.8813 H   0  0  0  0  0  0  0  0  0  0  0  0
   61.4694   34.9891   48.6547 H   0  0  0  0  0  0  0  0  0  0  0  0
   59.4702   35.6652   47.1203 H   0  0  0  0  0  0  0  0  0  0  0  0
   61.0885   35.3678   46.3708 H   0  0  0  0  0  0  0  0  0  0  0  0
   59.9060   32.9490   46.4270 H   0  0  0  0  0  0  0  0  0  0  0  0
   57.8430   34.8735   46.4923 H   0  0  0  0  0  0  0  0  0  0  0  0
   56.5800   34.0653   44.5055 H   0  0  0  0  0  0  0  0  0  0  0  0
   58.0954   35.0038   44.0938 H   0  0  0  0  0  0  0  0  0  0  0  0
   57.7618   33.0978   42.5883 H   0  0  0  0  0  0  0  0  0  0  0  0
   59.2681   32.9556   43.6527 H   0  0  0  0  0  0  0  0  0  0  0  0
   56.6990   31.4920   44.2526 H   0  0  0  0  0  0  0  0  0  0  0  0
   58.0595   30.8431   43.1802 H   0  0  0  0  0  0  0  0  0  0  0  0
   59.3621   29.2835   44.0909 H   0  0  0  0  0  0  0  0  0  0  0  0
   60.5398   28.2851   46.0460 H   0  0  0  0  0  0  0  0  0  0  0  0
   60.3660   29.3519   48.2928 H   0  0  0  0  0  0  0  0  0  0  0  0
   58.9824   31.4023   48.6015 H   0  0  0  0  0  0  0  0  0  0  0  0
   56.5382   32.5791   46.3239 H   0  0  0  0  0  0  0  0  0  0  0  0
   57.5311   32.9810   47.7875 H   0  0  0  0  0  0  0  0  0  0  0  0
   61.3941   32.8770   50.0991 H   0  0  0  0  0  0  0  0  0  0  0  0
   60.7976   31.4027   49.2010 H   0  0  0  0  0  0  0  0  0  0  0  0
   62.9921   31.0699   50.3994 H   0  0  0  0  0  0  0  0  0  0  0  0
   63.0400   30.7458   48.6381 H   0  0  0  0  0  0  0  0  0  0  0  0
   63.6832   32.5736   51.9263 H   0  0  0  0  0  0  0  0  0  0  0  0
  1  2  1  0
  2  3  2  0
  3  4  1  0
  4  5  2  0
  5  6  1  0
  6  7  1  0
  7  8  1  0
  8  9  1  0
  9 10  1  0
 10 11  1  0
 11 12  1  0
 12 13  1  0
 13 14  1  0
 14 15  1  0
 15 16  1  0
 16 17  1  0
 17 18  1  0
 18 19  2  0
 19 20  1  0
 20 21  2  0
 21 22  1  0
 22 23  2  0
 23 24  1  0
 10 25  1  0
 25 26  1  0
  6 27  2  0
 27  2  1  0
 26  7  1  0
 24 14  1  0
 23 18  1  0
  1 28  1  0
  1 29  1  0
  1 30  1  0
  3 31  1  0
  4 32  1  0
  5 33  1  0
  8 34  1  0
  8 35  1  0
  9 36  1  0
  9 37  1  0
 11 38  1  0
 11 39  1  0
 12 40  1  0
 12 41  1  0
 13 42  1  0
 14 43  1  1
 15 44  1  0
 15 45  1  0
 16 46  1  0
 16 47  1  0
 17 48  1  0
 17 49  1  0
 19 50  1  0
 20 51  1  0
 21 52  1  0
 22 53  1  0
 24 54  1  0
 24 55  1  0
 25 56  1  0
 25 57  1  0
 26 58  1  0
 26 59  1  0
 27 60  1  0
M  CHG  1   2   1
M  END
>  <UniqueID>  (23) 
23

>  <SMILES>  (23) 
C[n+]1cccc(N2CCN(CCN[C@H]3CCCc4ccccc4C3)CC2)c1

>  <Energy>  (23) 
83.34980140193485

>  <Genealogy>  (23) 
C[n+]1cccc(N2CCN(CCN[C@H]3CCCc4ccccc4C3)CC2)c1 (chirality)
C[n+]1cccc(N2CCN(CCN[C@H]3CCCc4ccccc4C3)CC2)c1 (3D coordinates assigned)
C[n+]1cccc(N2CCN(CCN[C@H]3CCCc4ccccc4C3)CC2)c1 (nonaromatic ring conformer: 83.34980140193485 kcal/mol)

>  <smiles>  (23) 
C[n+]1cccc(N2CCN(CCNC3CCCc4ccccc4C3)CC2)c1

>  <score_type>  (23) 
oracle

>  <origin>  (23) 
adg

>  <m_score__min__energy>  (23) 
-5.3700000000000001

>  <m_primary>  (23) 
energy

$$$$
23:0
     RDKit          3D

 76 78  0  0  0  0  0  0  0  0999 V2000
   55.5660   30.6660   52.4580 C   0  0  0  0  0  0  0  0  0  0  0  0
   56.7250   31.2770   51.6640 C   0  0  0  0  0  0  0  0  0  0  0  0
   57.8270   31.7500   52.5420 N   0  0  2  0  0  0  0  0  0  0  0  0
   57.7030   31.1640   53.8910 C   0  0  0  0  0  0  0  0  0  0  0  0
   57.8280   33.2350   52.6400 C   0  0  0  0  0  0  0  0  0  0  0  0
   59.0470   33.8640   51.9490 C   0  0  0  0  0  0  0  0  0  0  0  0
   59.6800   32.8860   51.1510 O   0  0  0  0  0  0  0  0  0  0  0  0
   61.0000   32.6760   51.6050 C   0  0  0  0  0  0  0  0  0  0  0  0
   61.2550   31.1770   51.6930 C   0  0  0  0  0  0  0  0  0  0  0  0
   60.0230   30.4890   51.6630 O   0  0  0  0  0  0  0  0  0  0  0  0
   59.9680   29.6250   50.5420 C   0  0  0  0  0  0  0  0  0  0  0  0
   58.9900   30.1300   49.4650 C   0  0  0  0  0  0  0  0  0  0  0  0
   59.6930   30.7460   48.3380 N   0  0  0  0  0  0  0  0  0  0  0  0
   59.0830   30.8420   47.0430 C   0  0  0  0  0  0  0  0  0  0  0  0
   58.6720   29.6630   46.3950 C   0  0  0  0  0  0  0  0  0  0  0  0
   58.9350   28.3960   46.9600 C   0  0  0  0  0  0  0  0  0  0  0  0
   58.4490   27.2340   46.3680 C   0  0  0  0  0  0  0  0  0  0  0  0
   57.6950   27.3110   45.2050 C   0  0  0  0  0  0  0  0  0  0  0  0
   57.4650   28.5460   44.6020 C   0  0  0  0  0  0  0  0  0  0  0  0
   57.9930   29.7420   45.1540 C   0  0  0  0  0  0  0  0  0  0  0  0
   57.8560   30.9570   44.5180 N   0  0  0  0  0  0  0  0  0  0  0  0
   57.4410   31.0000   43.0960 C   0  0  0  0  0  0  0  0  0  0  0  0
   58.1550   32.1320   45.1860 C   0  0  0  0  0  0  0  0  0  0  0  0
   57.7900   33.3870   44.6440 C   0  0  0  0  0  0  0  0  0  0  0  0
   58.1620   34.5720   45.2570 C   0  0  0  0  0  0  0  0  0  0  0  0
   58.8860   34.5510   46.4360 C   0  0  0  0  0  0  0  0  0  0  0  0
   59.2150   33.3350   47.0640 C   0  0  0  0  0  0  0  0  0  0  0  0
   59.9240   33.3450   48.2840 O   0  0  0  0  0  0  0  0  0  0  0  0
   60.8730   34.3480   48.6560 C   0  0  0  0  0  0  0  0  0  0  0  0
   62.3140   33.8370   48.5180 C   0  0  0  0  0  0  0  0  0  0  0  0
   62.4340   32.3630   48.5840 N   0  0  0  0  0  0  0  0  0  0  0  0
   62.5420   31.8240   47.2160 C   0  0  0  0  0  0  0  0  0  0  0  0
   63.6100   31.9290   49.3610 C   0  0  0  0  0  0  0  0  0  0  0  0
   58.8240   32.1030   46.4490 C   0  0  0  0  0  0  0  0  0  0  0  0
   55.7641   30.7704   53.5350 H   0  0  0  0  0  0  0  0  0  0  0  0
   54.6320   31.1889   52.2046 H   0  0  0  0  0  0  0  0  0  0  0  0
   55.4697   29.5999   52.2046 H   0  0  0  0  0  0  0  0  0  0  0  0
   57.1228   30.5154   50.9772 H   0  0  0  0  0  0  0  0  0  0  0  0
   56.3344   32.1482   51.1177 H   0  0  0  0  0  0  0  0  0  0  0  0
   58.7460   31.4310   52.1530 H   0  0  0  0  0  0  0  0  0  0  0  0
   57.8684   31.9458   54.6470 H   0  0  0  0  0  0  0  0  0  0  0  0
   56.6954   30.7407   54.0157 H   0  0  0  0  0  0  0  0  0  0  0  0
   58.4528   30.3688   54.0157 H   0  0  0  0  0  0  0  0  0  0  0  0
   56.9139   33.6214   52.1655 H   0  0  0  0  0  0  0  0  0  0  0  0
   57.8708   33.5018   53.7063 H   0  0  0  0  0  0  0  0  0  0  0  0
   58.7200   34.7016   51.3153 H   0  0  0  0  0  0  0  0  0  0  0  0
   59.7515   34.2375   52.7068 H   0  0  0  0  0  0  0  0  0  0  0  0
   61.7106   33.1313   50.8995 H   0  0  0  0  0  0  0  0  0  0  0  0
   61.1330   33.1369   52.5949 H   0  0  0  0  0  0  0  0  0  0  0  0
   61.8735   30.8594   50.8406 H   0  0  0  0  0  0  0  0  0  0  0  0
   61.7806   30.9483   52.6319 H   0  0  0  0  0  0  0  0  0  0  0  0
   60.9733   29.5522   50.1014 H   0  0  0  0  0  0  0  0  0  0  0  0
   59.6107   28.6443   50.8891 H   0  0  0  0  0  0  0  0  0  0  0  0
   58.3988   29.2798   49.0941 H   0  0  0  0  0  0  0  0  0  0  0  0
   58.3422   30.8926   49.9219 H   0  0  0  0  0  0  0  0  0  0  0  0
   60.5770   31.2760   48.5110 H   0  0  0  0  0  0  0  0  0  0  0  0
   59.5324   28.3264   47.8810 H   0  0  0  0  0  0  0  0  0  0  0  0
   58.6623   26.2548   46.8215 H   0  0  0  0  0  0  0  0  0  0  0  0
   57.2785   26.3959   44.7588 H   0  0  0  0  0  0  0  0  0  0  0  0
   56.8637   28.5947   43.6822 H   0  0  0  0  0  0  0  0  0  0  0  0
   56.3485   31.1132   43.0361 H   0  0  0  0  0  0  0  0  0  0  0  0
   57.9258   31.8527   42.5982 H   0  0  0  0  0  0  0  0  0  0  0  0
   57.7407   30.0660   42.5982 H   0  0  0  0  0  0  0  0  0  0  0  0
   57.1988   33.4223   43.7170 H   0  0  0  0  0  0  0  0  0  0  0  0
   57.8806   35.5343   44.8045 H   0  0  0  0  0  0  0  0  0  0  0  0
   59.2095   35.4995   46.8896 H   0  0  0  0  0  0  0  0  0  0  0  0
   60.7406   35.2246   48.0048 H   0  0  0  0  0  0  0  0  0  0  0  0
   60.7000   34.6134   49.7094 H   0  0  0  0  0  0  0  0  0  0  0  0
   62.7102   34.1742   47.5488 H   0  0  0  0  0  0  0  0  0  0  0  0
   62.8808   34.2430   49.3688 H   0  0  0  0  0  0  0  0  0  0  0  0
   62.7579   30.7464   47.2625 H   0  0  0  0  0  0  0  0  0  0  0  0
   61.5937   31.9853   46.6824 H   0  0  0  0  0  0  0  0  0  0  0  0
   63.3550   32.3382   46.6824 H   0  0  0  0  0  0  0  0  0  0  0  0
   63.3898   32.0103   50.4357 H   0  0  0  0  0  0  0  0  0  0  0  0
   63.8477   30.8839   49.1134 H   0  0  0  0  0  0  0  0  0  0  0  0
   64.4696   32.5691   49.1134 H   0  0  0  0  0  0  0  0  0  0  0  0
  1  2  1  0
  2  3  1  0
  3  4  1  0
  3  5  1  0
  5  6  1  0
  6  7  1  0
  7  8  1  0
  8  9  1  0
  9 10  1  0
 10 11  1  0
 11 12  1  0
 12 13  1  0
 13 14  1  0
 14 15  2  0
 15 16  1  0
 16 17  2  0
 17 18  1  0
 18 19  2  0
 19 20  1  0
 20 21  2  0
 21 22  1  0
 21 23  1  0
 23 24  2  0
 24 25  1  0
 25 26  2  0
 26 27  1  0
 27 28  1  0
 28 29  1  0
 29 30  1  0
 30 31  1  0
 31 32  1  0
 31 33  1  0
 27 34  2  0
 34 14  1  0
 20 15  1  0
 34 23  1  0
  1 35  1  0
  1 36  1  0
  1 37  1  0
  2 38  1  0
  2 39  1  0
  3 40  1  6
  4 41  1  0
  4 42  1  0
  4 43  1  0
  5 44  1  0
  5 45  1  0
  6 46  1  0
  6 47  1  0
  8 48  1  0
  8 49  1  0
  9 50  1  0
  9 51  1  0
 11 52  1  0
 11 53  1  0
 12 54  1  0
 12 55  1  0
 13 56  1  0
 16 57  1  0
 17 58  1  0
 18 59  1  0
 19 60  1  0
 22 61  1  0
 22 62  1  0
 22 63  1  0
 24 64  1  0
 25 65  1  0
 26 66  1  0
 29 67  1  0
 29 68  1  0
 30 69  1  0
 30 70  1  0
 32 71  1  0
 32 72  1  0
 32 73  1  0
 33 74  1  0
 33 75  1  0
 33 76  1  0
M  CHG  2   3   1  21   1
M  END
>  <UniqueID>  (24) 
24

>  <SMILES>  (24) 
CC[N@H+](C)CCOCCOCCNc1c2ccccc2[n+](C)c2cccc(OCCN(C)C)c12

>  <Energy>  (24) 
103.16922191594317

>  <Genealogy>  (24) 
CC[NH+](C)CCOCCOCCNc1c2ccccc2[n+](C)c2cccc(OCCN(C)C)c12 (protonated)
CC[N@H+](C)CCOCCOCCNc1c2ccccc2[n+](C)c2cccc(OCCN(C)C)c12 (chirality)
CC[N@H+](C)CCOCCOCCNc1c2ccccc2[n+](C)c2cccc(OCCN(C)C)c12 (3D coordinates assigned)
CC[N@H+](C)CCOCCOCCNc1c2ccccc2[n+](C)c2cccc(OCCN(C)C)c12 (optimized conformer: 103.16922191594317 kcal/mol)

>  <smiles>  (24) 
CCN(C)CCOCCOCCNc1c2ccccc2[n+](C)c2cccc(OCCN(C)C)c12

>  <score_type>  (24) 
oracle

>  <origin>  (24) 
adg

>  <m_score__min__energy>  (24) 
-3.6899999999999999

>  <m_primary>  (24) 
energy

$$$$
24:0
     RDKit          3D

 40 42  0  0  0  0  0  0  0  0999 V2000
   58.5280   32.2340   49.8070 C   0  0  0  0  0  0  0  0  0  0  0  0
   58.9780   30.8240   49.4450 C   0  0  0  0  0  0  0  0  0  0  0  0
   60.4160   30.8130   49.1370 N   0  0  0  0  0  0  0  0  0  0  0  0
   60.7910   29.7590   48.1770 C   0  0  0  0  0  0  0  0  0  0  0  0
   61.0310   30.2960   46.7520 C   0  0  0  0  0  0  0  0  0  0  0  0
   59.7670   30.5460   46.0450 N   0  0  0  0  0  0  0  0  0  0  0  0
   59.0740   29.6640   45.2770 C   0  0  0  0  0  0  0  0  0  0  0  0
   59.3620   28.3200   45.0180 C   0  0  0  0  0  0  0  0  0  0  0  0
   58.4870   27.6200   44.1690 C   0  0  0  0  0  0  0  0  0  0  0  0
   57.3960   28.2410   43.6200 N   0  0  0  0  0  0  0  0  0  0  0  0
   57.1140   29.5530   43.8740 C   0  0  0  0  0  0  0  0  0  0  0  0
   57.9700   30.2590   44.7130 C   0  0  0  0  0  0  0  0  0  0  0  0
   57.9640   31.5650   45.1400 C   0  0  0  0  0  0  0  0  0  0  0  0
   57.0860   32.6070   44.8640 C   0  0  0  0  0  0  0  0  0  0  0  0
   57.3500   33.8550   45.4440 C   0  0  0  0  0  0  0  0  0  0  0  0
   58.4710   34.0340   46.2790 C   0  0  0  0  0  0  0  0  0  0  0  0
   59.3560   32.9620   46.5510 C   0  0  0  0  0  0  0  0  0  0  0  0
   60.4740   33.1130   47.3840 O   0  0  0  0  0  0  0  0  0  0  0  0
   61.6710   33.7870   47.0130 C   0  0  0  0  0  0  0  0  0  0  0  0
   59.0720   31.7180   45.9550 C   0  0  0  0  0  0  0  0  0  0  0  0
   58.4946   32.3386   50.9015 H   0  0  0  0  0  0  0  0  0  0  0  0
   59.2379   32.9637   49.3904 H   0  0  0  0  0  0  0  0  0  0  0  0
   57.5266   32.4176   49.3904 H   0  0  0  0  0  0  0  0  0  0  0  0
   58.7830   30.1514   50.2932 H   0  0  0  0  0  0  0  0  0  0  0  0
   58.4189   30.4849   48.5604 H   0  0  0  0  0  0  0  0  0  0  0  0
   60.7040   31.7530   48.7830 H   0  0  0  0  0  0  0  0  0  0  0  0
   61.7148   29.2770   48.5296 H   0  0  0  0  0  0  0  0  0  0  0  0
   59.9512   29.0506   48.1233 H   0  0  0  0  0  0  0  0  0  0  0  0
   61.5957   31.2378   46.8164 H   0  0  0  0  0  0  0  0  0  0  0  0
   61.5939   29.5364   46.1897 H   0  0  0  0  0  0  0  0  0  0  0  0
   60.2405   27.8290   45.4621 H   0  0  0  0  0  0  0  0  0  0  0  0
   58.6806   26.5611   43.9427 H   0  0  0  0  0  0  0  0  0  0  0  0
   56.7630   27.6970   42.9930 H   0  0  0  0  0  0  0  0  0  0  0  0
   56.2337   30.0383   43.4272 H   0  0  0  0  0  0  0  0  0  0  0  0
   56.2130   32.4567   44.2119 H   0  0  0  0  0  0  0  0  0  0  0  0
   56.6766   34.7020   45.2459 H   0  0  0  0  0  0  0  0  0  0  0  0
   58.6616   35.0208   46.7261 H   0  0  0  0  0  0  0  0  0  0  0  0
   62.2151   34.0933   47.9186 H   0  0  0  0  0  0  0  0  0  0  0  0
   62.3023   33.1117   46.4168 H   0  0  0  0  0  0  0  0  0  0  0  0
   61.4210   34.6770   46.4168 H   0  0  0  0  0  0  0  0  0  0  0  0
  1  2  1  0
  2  3  1  0
  3  4  1  0
  4  5  1  0
  5  6  1  0
  6  7  1  0
  7  8  2  0
  8  9  1  0
  9 10  2  0
 10 11  1  0
 11 12  2  0
 12 13  1  0
 13 14  2  0
 14 15  1  0
 15 16  2  0
 16 17  1  0
 17 18  1  0
 18 19  1  0
 17 20  2  0
 20  6  1  0
 12  7  1  0
 20 13  1  0
  1 21  1  0
  1 22  1  0
  1 23  1  0
  2 24  1  0
  2 25  1  0
  3 26  1  0
  4 27  1  0
  4 28  1  0
  5 29  1  0
  5 30  1  0
  8 31  1  0
  9 32  1  0
 10 33  1  0
 11 34  1  0
 14 35  1  0
 15 36  1  0
 16 37  1  0
 19 38  1  0
 19 39  1  0
 19 40  1  0
M  CHG  1  10   1
M  END
>  <UniqueID>  (25) 
25

>  <SMILES>  (25) 
CCNCCn1c2cc[nH+]cc2c2cccc(OC)c21

>  <Energy>  (25) 
81.33794465461251

>  <Genealogy>  (25) 
CCNCCn1c2cc[nH+]cc2c2cccc(OC)c21 (protonated)
CCNCCn1c2cc[nH+]cc2c2cccc(OC)c21 (3D coordinates assigned)
CCNCCn1c2cc[nH+]cc2c2cccc(OC)c21 (optimized conformer: 81.33794465461251 kcal/mol)

>  <smiles>  (25) 
CCNCCn1c2ccncc2c2cccc(OC)c21

>  <score_type>  (25) 
oracle

>  <origin>  (25) 
adg

>  <m_score__min__energy>  (25) 
-5.2199999999999998

>  <m_primary>  (25) 
energy

$$$$
