0:0
     RDKit          3D

 64 68  0  0  0  0  0  0  0  0999 V2000
   56.9440   30.7360   52.2910 C   0  0  0  0  0  0  0  0  0  0  0  0
   58.1960   29.9680   51.8460 C   0  0  0  0  0  0  0  0  0  0  0  0
   58.5730   30.2000   50.4330 N   0  0  0  0  0  0  0  0  0  0  0  0
   58.5680   31.6340   50.0850 C   0  0  0  0  0  0  0  0  0  0  0  0
   59.8400   29.5340   50.0580 C   0  0  0  0  0  0  0  0  0  0  0  0
   59.8580   29.1950   48.5620 C   0  0  0  0  0  0  0  0  0  0  0  0
   58.5240   29.3120   47.9730 N   0  0  0  0  0  0  0  0  0  0  0  0
   58.2670   28.7960   46.6630 C   0  0  0  0  0  0  0  0  0  0  0  0
   58.1440   27.4110   46.4220 C   0  0  0  0  0  0  0  0  0  0  0  0
   58.2080   26.4910   47.4880 C   0  0  0  0  0  0  0  0  0  0  0  0
   58.0530   25.1270   47.2580 C   0  0  0  0  0  0  0  0  0  0  0  0
   57.8200   24.6560   45.9700 C   0  0  0  0  0  0  0  0  0  0  0  0
   57.7540   25.5420   44.8930 C   0  0  0  0  0  0  0  0  0  0  0  0
   57.9310   26.9360   45.0830 C   0  0  0  0  0  0  0  0  0  0  0  0
   57.8890   27.8280   44.0200 N   0  0  0  0  0  0  0  0  0  0  0  0
   57.7720   27.3560   42.6270 C   0  0  0  0  0  0  0  0  0  0  0  0
   57.9410   29.1710   44.2950 C   0  0  0  0  0  0  0  0  0  0  0  0
   57.8240   30.1880   43.4050 N   0  0  0  0  0  0  0  0  0  0  0  0
   57.9460   31.3130   44.1400 C   0  0  0  0  0  0  0  0  0  0  0  0
   57.8960   32.6270   43.6780 C   0  0  0  0  0  0  0  0  0  0  0  0
   58.0410   33.6660   44.6140 C   0  0  0  0  0  0  0  0  0  0  0  0
   58.2180   33.3740   45.9940 C   0  0  0  0  0  0  0  0  0  0  0  0
   58.3680   34.3740   46.9630 O   0  0  0  0  0  0  0  0  0  0  0  0
   59.5400   35.1570   47.1480 C   0  0  0  0  0  0  0  0  0  0  0  0
   60.6570   34.2540   47.5820 C   0  0  0  0  0  0  0  0  0  0  0  0
   61.6260   33.8290   46.6580 C   0  0  0  0  0  0  0  0  0  0  0  0
   62.6990   33.0370   47.0810 C   0  0  0  0  0  0  0  0  0  0  0  0
   62.8180   32.6770   48.4260 C   0  0  0  0  0  0  0  0  0  0  0  0
   61.8660   33.1120   49.3520 C   0  0  0  0  0  0  0  0  0  0  0  0
   60.7910   33.9020   48.9350 C   0  0  0  0  0  0  0  0  0  0  0  0
   58.2490   32.0370   46.4250 C   0  0  0  0  0  0  0  0  0  0  0  0
   58.1270   31.0280   45.4730 C   0  0  0  0  0  0  0  0  0  0  0  0
   58.1240   29.6510   45.5760 C   0  0  0  0  0  0  0  0  0  0  0  0
   56.9012   30.7622   53.3899 H   0  0  0  0  0  0  0  0  0  0  0  0
   56.9863   31.7637   51.9010 H   0  0  0  0  0  0  0  0  0  0  0  0
   56.0471   30.2325   51.9010 H   0  0  0  0  0  0  0  0  0  0  0  0
   59.0369   30.2777   52.4839 H   0  0  0  0  0  0  0  0  0  0  0  0
   57.9640   28.8971   51.9423 H   0  0  0  0  0  0  0  0  0  0  0  0
   58.5659   32.2349   51.0064 H   0  0  0  0  0  0  0  0  0  0  0  0
   59.4653   31.8712   49.4946 H   0  0  0  0  0  0  0  0  0  0  0  0
   57.6690   31.8649   49.4946 H   0  0  0  0  0  0  0  0  0  0  0  0
   60.6810   30.2056   50.2853 H   0  0  0  0  0  0  0  0  0  0  0  0
   59.9290   28.5995   50.6313 H   0  0  0  0  0  0  0  0  0  0  0  0
   60.5392   29.8877   48.0461 H   0  0  0  0  0  0  0  0  0  0  0  0
   60.1980   28.1553   48.4463 H   0  0  0  0  0  0  0  0  0  0  0  0
   57.7520   29.8060   48.4760 H   0  0  0  0  0  0  0  0  0  0  0  0
   58.3821   26.8545   48.5115 H   0  0  0  0  0  0  0  0  0  0  0  0
   58.1150   24.4191   48.0976 H   0  0  0  0  0  0  0  0  0  0  0  0
   57.6868   23.5776   45.7988 H   0  0  0  0  0  0  0  0  0  0  0  0
   57.5619   25.1529   43.8822 H   0  0  0  0  0  0  0  0  0  0  0  0
   57.5073   26.2883   42.6226 H   0  0  0  0  0  0  0  0  0  0  0  0
   56.9890   27.9300   42.1099 H   0  0  0  0  0  0  0  0  0  0  0  0
   58.7325   27.4978   42.1099 H   0  0  0  0  0  0  0  0  0  0  0  0
   57.6510   30.1520   42.3770 H   0  0  0  0  0  0  0  0  0  0  0  0
   57.7472   32.8452   42.6102 H   0  0  0  0  0  0  0  0  0  0  0  0
   58.0173   34.7125   44.2760 H   0  0  0  0  0  0  0  0  0  0  0  0
   59.8088   35.6504   46.2023 H   0  0  0  0  0  0  0  0  0  0  0  0
   59.3604   35.9263   47.9135 H   0  0  0  0  0  0  0  0  0  0  0  0
   61.5410   34.1193   45.6004 H   0  0  0  0  0  0  0  0  0  0  0  0
   63.4505   32.6970   46.3533 H   0  0  0  0  0  0  0  0  0  0  0  0
   63.6606   32.0515   48.7557 H   0  0  0  0  0  0  0  0  0  0  0  0
   61.9629   32.8321   50.4114 H   0  0  0  0  0  0  0  0  0  0  0  0
   60.0481   34.2489   49.6683 H   0  0  0  0  0  0  0  0  0  0  0  0
   58.3670   31.7927   47.4910 H   0  0  0  0  0  0  0  0  0  0  0  0
  1  2  1  0
  2  3  1  0
  3  4  1  0
  3  5  1  0
  5  6  1  0
  6  7  1  0
  7  8  1  0
  8  9  2  0
  9 10  1  0
 10 11  2  0
 11 12  1  0
 12 13  2  0
 13 14  1  0
 14 15  2  0
 15 16  1  0
 15 17  1  0
 17 18  1  0
 18 19  1  0
 19 20  2  0
 20 21  1  0
 21 22  2  0
 22 23  1  0
 23 24  1  0
 24 25  1  0
 25 26  2  0
 26 27  1  0
 27 28  2  0
 28 29  1  0
 29 30  2  0
 22 31  1  0
 31 32  2  0
 32 33  1  0
 33  8  1  0
 14  9  1  0
 33 17  2  0
 32 19  1  0
 30 25  1  0
  1 34  1  0
  1 35  1  0
  1 36  1  0
  2 37  1  0
  2 38  1  0
  4 39  1  0
  4 40  1  0
  4 41  1  0
  5 42  1  0
  5 43  1  0
  6 44  1  0
  6 45  1  0
  7 46  1  0
 10 47  1  0
 11 48  1  0
 12 49  1  0
 13 50  1  0
 16 51  1  0
 16 52  1  0
 16 53  1  0
 18 54  1  0
 20 55  1  0
 21 56  1  0
 24 57  1  0
 24 58  1  0
 26 59  1  0
 27 60  1  0
 28 61  1  0
 29 62  1  0
 30 63  1  0
 31 64  1  0
M  CHG  1  15   1
M  END
>  <UniqueID>  (1) 
1

>  <SMILES>  (1) 
CCN(C)CCNc1c2ccccc2[n+](C)c2[nH]c3ccc(OCc4ccccc4)cc3c12

>  <Energy>  (1) 
123.67164572102216

>  <Genealogy>  (1) 
CCN(C)CCNc1c2ccccc2[n+](C)c2[nH]c3ccc(OCc4ccccc4)cc3c12 (3D coordinates assigned)
CCN(C)CCNc1c2ccccc2[n+](C)c2[nH]c3ccc(OCc4ccccc4)cc3c12 (optimized conformer: 123.67164572102216 kcal/mol)

>  <smiles>  (1) 
CCN(C)CCNc1c2ccccc2[n+](C)c2[nH]c3ccc(OCc4ccccc4)cc3c12

>  <score_type>  (1) 
oracle

>  <origin>  (1) 
adg

>  <m_score__min__energy>  (1) 
-7.21

>  <m_primary>  (1) 
energy

$$$$
1:0
     RDKit          3D

 44 46  0  0  0  0  0  0  0  0999 V2000
   56.2470   31.3620   51.9930 C   0  0  0  0  0  0  0  0  0  0  0  0
   57.3820   30.9200   52.9310 C   0  0  0  0  0  0  0  0  0  0  0  0
   58.6230   31.7490   52.8810 N   0  0  2  0  0  0  0  0  0  0  0  0
   59.8850   30.9880   52.9660 C   0  0  0  0  0  0  0  0  0  0  0  0
   58.5940   32.9400   53.7720 C   0  0  0  0  0  0  0  0  0  0  0  0
   59.1350   34.2500   53.1660 C   0  0  0  0  0  0  0  0  0  0  0  0
   58.8890   34.3090   51.7180 N   0  0  0  0  0  0  0  0  0  0  0  0
   60.0590   33.8520   50.9550 C   0  0  0  0  0  0  0  0  0  0  0  0
   59.6300   32.9950   49.8030 C   0  0  0  0  0  0  0  0  0  0  0  0
   59.2920   31.6910   49.9160 N   0  0  0  0  0  0  0  0  0  0  0  0
   58.8960   31.3300   48.6720 C   0  0  0  0  0  0  0  0  0  0  0  0
   58.9630   32.3570   47.7970 N   0  0  0  0  0  0  0  0  0  0  0  0
   59.4240   33.4010   48.5020 C   0  0  0  0  0  0  0  0  0  0  0  0
   59.5940   34.6570   47.9210 C   0  0  0  0  0  0  0  0  0  0  0  0
   59.2670   34.8000   46.5660 C   0  0  0  0  0  0  0  0  0  0  0  0
   58.7810   33.6980   45.8290 C   0  0  0  0  0  0  0  0  0  0  0  0
   58.4450   33.8280   44.4750 C   0  0  0  0  0  0  0  0  0  0  0  0
   57.9590   32.7260   43.7650 C   0  0  0  0  0  0  0  0  0  0  0  0
   57.8050   31.4900   44.3990 C   0  0  0  0  0  0  0  0  0  0  0  0
   57.3330   30.4270   43.7010 F   0  0  0  0  0  0  0  0  0  0  0  0
   58.1360   31.3430   45.7500 C   0  0  0  0  0  0  0  0  0  0  0  0
   58.6280   32.4420   46.4760 C   0  0  0  0  0  0  0  0  0  0  0  0
   55.3867   31.6970   52.5910 H   0  0  0  0  0  0  0  0  0  0  0  0
   56.5970   32.1895   51.3584 H   0  0  0  0  0  0  0  0  0  0  0  0
   55.9452   30.5157   51.3584 H   0  0  0  0  0  0  0  0  0  0  0  0
   56.9986   30.9472   53.9617 H   0  0  0  0  0  0  0  0  0  0  0  0
   57.6779   29.9164   52.5916 H   0  0  0  0  0  0  0  0  0  0  0  0
   58.6350   32.1610   51.9160 H   0  0  0  0  0  0  0  0  0  0  0  0
   60.1473   30.8298   54.0225 H   0  0  0  0  0  0  0  0  0  0  0  0
   59.7603   30.0144   52.4694 H   0  0  0  0  0  0  0  0  0  0  0  0
   60.6878   31.5527   52.4694 H   0  0  0  0  0  0  0  0  0  0  0  0
   57.5491   33.1128   54.0690 H   0  0  0  0  0  0  0  0  0  0  0  0
   59.2660   32.7006   54.6093 H   0  0  0  0  0  0  0  0  0  0  0  0
   58.6349   35.1021   53.6496 H   0  0  0  0  0  0  0  0  0  0  0  0
   60.2211   34.2892   53.3360 H   0  0  0  0  0  0  0  0  0  0  0  0
   58.7200   35.3110   51.4640 H   0  0  0  0  0  0  0  0  0  0  0  0
   60.6060   34.7262   50.5722 H   0  0  0  0  0  0  0  0  0  0  0  0
   60.7077   33.2602   51.6175 H   0  0  0  0  0  0  0  0  0  0  0  0
   58.5588   30.3175   48.4051 H   0  0  0  0  0  0  0  0  0  0  0  0
   59.9723   35.5076   48.5070 H   0  0  0  0  0  0  0  0  0  0  0  0
   59.3896   35.7760   46.0738 H   0  0  0  0  0  0  0  0  0  0  0  0
   58.5637   34.7980   43.9701 H   0  0  0  0  0  0  0  0  0  0  0  0
   57.6965   32.8323   42.7021 H   0  0  0  0  0  0  0  0  0  0  0  0
   58.0115   30.3682   46.2442 H   0  0  0  0  0  0  0  0  0  0  0  0
  1  2  1  0
  2  3  1  0
  3  4  1  0
  3  5  1  0
  5  6  1  0
  6  7  1  0
  7  8  1  0
  8  9  1  0
  9 10  1  0
 10 11  2  0
 11 12  1  0
 12 13  1  0
 13 14  1  0
 14 15  2  0
 15 16  1  0
 16 17  2  0
 17 18  1  0
 18 19  2  0
 19 20  1  0
 19 21  1  0
 21 22  2  0
 13  9  2  0
 22 16  1  0
 22 12  1  0
  1 23  1  0
  1 24  1  0
  1 25  1  0
  2 26  1  0
  2 27  1  0
  3 28  1  6
  4 29  1  0
  4 30  1  0
  4 31  1  0
  5 32  1  0
  5 33  1  0
  6 34  1  0
  6 35  1  0
  7 36  1  0
  8 37  1  0
  8 38  1  0
 11 39  1  0
 14 40  1  0
 15 41  1  0
 17 42  1  0
 18 43  1  0
 21 44  1  0
M  CHG  1   3   1
M  END
>  <UniqueID>  (2) 
2

>  <SMILES>  (2) 
CC[N@H+](C)CCNCc1ncn2c1ccc1ccc(F)cc12

>  <Energy>  (2) 
89.35596923639896

>  <Genealogy>  (2) 
CC[NH+](C)CCNCc1ncn2c1ccc1ccc(F)cc12 (protonated)
CC[N@H+](C)CCNCc1ncn2c1ccc1ccc(F)cc12 (chirality)
CC[N@H+](C)CCNCc1ncn2c1ccc1ccc(F)cc12 (3D coordinates assigned)
CC[N@H+](C)CCNCc1ncn2c1ccc1ccc(F)cc12 (optimized conformer: 89.35596923639896 kcal/mol)

>  <smiles>  (2) 
CCN(C)CCNCc1ncn2c1ccc1ccc(F)cc12

>  <score_type>  (2) 
oracle

>  <origin>  (2) 
adg

>  <m_score__min__energy>  (2) 
-5.3799999999999999

>  <m_primary>  (2) 
energy

$$$$
2:0
     RDKit          3D

 50 53  0  0  0  0  0  0  0  0999 V2000
   57.1780   32.3550   40.8410 C   0  0  0  0  0  0  0  0  0  0  0  0
   57.9640   31.9420   42.0800 C   0  0  0  0  0  0  0  0  0  0  0  0
   57.1590   31.0640   42.9270 N   0  0  0  0  0  0  0  0  0  0  0  0
   56.2390   30.2220   42.4960 N   0  0  0  0  0  0  0  0  0  0  0  0
   55.6970   29.5880   43.5240 N   0  0  0  0  0  0  0  0  0  0  0  0
   56.2620   30.0090   44.6490 N   0  0  0  0  0  0  0  0  0  0  0  0
   57.1750   30.9230   44.2660 C   0  0  0  0  0  0  0  0  0  0  0  0
   58.2160   31.8430   45.4040 S   0  0  0  0  0  0  0  0  0  0  0  0
   57.0790   33.2640   45.5540 C   0  0  0  0  0  0  0  0  0  0  0  0
   57.7520   34.5490   45.0690 C   0  0  0  0  0  0  0  0  0  0  0  0
   59.2420   34.3180   44.7840 C   0  0  0  0  0  0  0  0  0  0  0  0
   60.0520   34.5880   45.9870 N   0  0  0  0  0  0  0  0  0  0  0  0
   59.2500   35.0860   47.1170 C   0  0  0  0  0  0  0  0  0  0  0  0
   59.8710   34.5570   48.3990 C   0  0  1  0  0  0  0  0  0  0  0  0
   59.5560   33.1160   48.7680 C   0  0  0  0  0  0  0  0  0  0  0  0
   60.8120   33.4500   47.9720 C   0  0  2  0  0  0  0  0  0  0  0  0
   62.1440   33.4420   48.6760 C   0  0  0  0  0  0  0  0  0  0  0  0
   63.2350   32.7510   48.1260 C   0  0  0  0  0  0  0  0  0  0  0  0
   64.4600   32.7170   48.7980 C   0  0  0  0  0  0  0  0  0  0  0  0
   64.6050   33.3450   50.0470 C   0  0  0  0  0  0  0  0  0  0  0  0
   65.9390   33.3500   50.7490 C   0  0  0  0  0  0  0  0  0  0  0  0
   66.1950   34.5910   51.3050 F   0  0  0  0  0  0  0  0  0  0  0  0
   66.9340   33.0510   49.8360 F   0  0  0  0  0  0  0  0  0  0  0  0
   65.9610   32.4090   51.7640 F   0  0  0  0  0  0  0  0  0  0  0  0
   63.5110   34.0410   50.5920 C   0  0  0  0  0  0  0  0  0  0  0  0
   62.2870   34.0750   49.9180 C   0  0  0  0  0  0  0  0  0  0  0  0
   60.7450   33.3790   46.4550 C   0  0  0  0  0  0  0  0  0  0  0  0
   56.2427   32.8465   41.1471 H   0  0  0  0  0  0  0  0  0  0  0  0
   57.7798   33.0534   40.2409 H   0  0  0  0  0  0  0  0  0  0  0  0
   56.9443   31.4632   40.2409 H   0  0  0  0  0  0  0  0  0  0  0  0
   58.8755   31.4100   41.7699 H   0  0  0  0  0  0  0  0  0  0  0  0
   58.2277   32.8442   42.6514 H   0  0  0  0  0  0  0  0  0  0  0  0
   55.9700   30.0780   41.4970 H   0  0  0  0  0  0  0  0  0  0  0  0
   56.1822   33.0745   44.9459 H   0  0  0  0  0  0  0  0  0  0  0  0
   56.8041   33.3866   46.6120 H   0  0  0  0  0  0  0  0  0  0  0  0
   57.2579   34.8873   44.1463 H   0  0  0  0  0  0  0  0  0  0  0  0
   57.6608   35.3105   45.8576 H   0  0  0  0  0  0  0  0  0  0  0  0
   59.3925   33.2732   44.4746 H   0  0  0  0  0  0  0  0  0  0  0  0
   59.5589   35.0030   43.9838 H   0  0  0  0  0  0  0  0  0  0  0  0
   59.2571   36.1860   47.1244 H   0  0  0  0  0  0  0  0  0  0  0  0
   58.2079   34.7455   47.0269 H   0  0  0  0  0  0  0  0  0  0  0  0
   59.8672   35.4736   49.0072 H   0  0  0  0  0  0  0  0  0  0  0  0
   59.6383   32.7844   49.8136 H   0  0  0  0  0  0  0  0  0  0  0  0
   58.6971   32.4440   48.6239 H   0  0  0  0  0  0  0  0  0  0  0  0
   63.1253   32.2337   47.1614 H   0  0  0  0  0  0  0  0  0  0  0  0
   65.3165   32.1952   48.3463 H   0  0  0  0  0  0  0  0  0  0  0  0
   63.6194   34.5619   51.5548 H   0  0  0  0  0  0  0  0  0  0  0  0
   61.4310   34.6017   50.3651 H   0  0  0  0  0  0  0  0  0  0  0  0
   61.7611   33.3422   46.0354 H   0  0  0  0  0  0  0  0  0  0  0  0
   60.2079   32.4748   46.1325 H   0  0  0  0  0  0  0  0  0  0  0  0
  1  2  1  0
  2  3  1  0
  3  4  1  0
  4  5  2  0
  5  6  1  0
  6  7  2  0
  7  8  1  0
  8  9  1  0
  9 10  1  0
 10 11  1  0
 11 12  1  0
 12 13  1  0
 13 14  1  0
 14 15  1  0
 15 16  1  0
 16 17  1  1
 17 18  2  0
 18 19  1  0
 19 20  2  0
 20 21  1  0
 21 22  1  0
 21 23  1  0
 21 24  1  0
 20 25  1  0
 25 26  2  0
 16 27  1  0
  7  3  1  0
 27 12  1  0
 16 14  1  0
 26 17  1  0
  1 28  1  0
  1 29  1  0
  1 30  1  0
  2 31  1  0
  2 32  1  0
  4 33  1  0
  9 34  1  0
  9 35  1  0
 10 36  1  0
 10 37  1  0
 11 38  1  0
 11 39  1  0
 13 40  1  0
 13 41  1  0
 14 42  1  1
 15 43  1  0
 15 44  1  0
 18 45  1  0
 19 46  1  0
 25 47  1  0
 26 48  1  0
 27 49  1  0
 27 50  1  0
M  CHG  1   4   1
M  END
>  <UniqueID>  (3) 
3

>  <SMILES>  (3) 
CCn1[nH+]nnc1SCCCN1C[C@H]2C[C@@]2(c2ccc(C(F)(F)F)cc2)C1

>  <Energy>  (3) 
354.04397219441626

>  <Genealogy>  (3) 
CCn1[nH+]nnc1SCCCN1CC2CC2(c2ccc(C(F)(F)F)cc2)C1 (protonated)
CCn1[nH+]nnc1SCCCN1C[C@H]2C[C@@]2(c2ccc(C(F)(F)F)cc2)C1 (chirality)
CCn1[nH+]nnc1SCCCN1C[C@H]2C[C@@]2(c2ccc(C(F)(F)F)cc2)C1 (3D coordinates assigned)
CCn1[nH+]nnc1SCCCN1C[C@H]2C[C@@]2(c2ccc(C(F)(F)F)cc2)C1 (nonaromatic ring conformer: 354.04397219441626 kcal/mol)

>  <smiles>  (3) 
CCn1nnnc1SCCCN1CC2CC2(c2ccc(C(F)(F)F)cc2)C1

>  <score_type>  (3) 
oracle

>  <origin>  (3) 
adg

>  <m_score__min__energy>  (3) 
-7.9299999999999997

>  <m_primary>  (3) 
energy

$$$$
3:0
     RDKit          3D

 55 57  0  0  0  0  0  0  0  0999 V2000
   61.9260   34.1830   49.6080 C   0  0  0  0  0  0  0  0  0  0  0  0
   63.1850   33.8350   48.8030 C   0  0  0  0  0  0  0  0  0  0  0  0
   62.9060   33.2380   47.4770 N   0  0  0  0  0  0  0  0  0  0  0  0
   63.3760   34.0920   46.3710 C   0  0  0  0  0  0  0  0  0  0  0  0
   63.3990   31.8480   47.3600 C   0  0  0  0  0  0  0  0  0  0  0  0
   62.2310   30.8540   47.2520 C   0  0  0  0  0  0  0  0  0  0  0  0
   61.0160   31.3740   47.9090 N   0  0  0  0  0  0  0  0  0  0  0  0
   59.8550   31.2290   47.0390 C   0  0  0  0  0  0  0  0  0  0  0  0
   59.3540   32.3610   46.3420 C   0  0  0  0  0  0  0  0  0  0  0  0
   59.6680   33.6780   46.7590 C   0  0  0  0  0  0  0  0  0  0  0  0
   59.2380   34.7840   46.0330 C   0  0  0  0  0  0  0  0  0  0  0  0
   58.5000   34.6100   44.8730 C   0  0  0  0  0  0  0  0  0  0  0  0
   58.1600   33.3280   44.4480 C   0  0  0  0  0  0  0  0  0  0  0  0
   58.5390   32.1790   45.1920 C   0  0  0  0  0  0  0  0  0  0  0  0
   58.1770   30.9090   44.7880 N   0  0  0  0  0  0  0  0  0  0  0  0
   57.1730   30.7340   43.7110 C   0  0  0  0  0  0  0  0  0  0  0  0
   58.6910   29.8020   45.4310 C   0  0  0  0  0  0  0  0  0  0  0  0
   58.5680   28.5050   44.8760 C   0  0  0  0  0  0  0  0  0  0  0  0
   58.9400   27.3780   45.5980 C   0  0  0  0  0  0  0  0  0  0  0  0
   59.3760   27.5060   46.9070 C   0  0  0  0  0  0  0  0  0  0  0  0
   59.5560   28.7730   47.4800 C   0  0  0  0  0  0  0  0  0  0  0  0
   59.7030   28.8490   48.9150 N   0  0  0  0  0  0  0  0  0  0  0  0
   58.8290   29.7230   49.7030 C   0  0  0  0  0  0  0  0  0  0  0  0
   60.7550   28.0920   49.6000 C   0  0  0  0  0  0  0  0  0  0  0  0
   59.3750   29.9400   46.6700 C   0  0  0  0  0  0  0  0  0  0  0  0
   62.1496   34.1212   50.6833 H   0  0  0  0  0  0  0  0  0  0  0  0
   61.6022   35.2043   49.3589 H   0  0  0  0  0  0  0  0  0  0  0  0
   61.1236   33.4730   49.3589 H   0  0  0  0  0  0  0  0  0  0  0  0
   63.7650   34.7574   48.6520 H   0  0  0  0  0  0  0  0  0  0  0  0
   63.7349   33.0792   49.3830 H   0  0  0  0  0  0  0  0  0  0  0  0
   63.8680   34.9860   46.7817 H   0  0  0  0  0  0  0  0  0  0  0  0
   64.0922   33.5305   45.7531 H   0  0  0  0  0  0  0  0  0  0  0  0
   62.5185   34.3966   45.7531 H   0  0  0  0  0  0  0  0  0  0  0  0
   64.0267   31.7639   46.4606 H   0  0  0  0  0  0  0  0  0  0  0  0
   63.9812   31.6066   48.2616 H   0  0  0  0  0  0  0  0  0  0  0  0
   62.0130   30.6728   46.1892 H   0  0  0  0  0  0  0  0  0  0  0  0
   62.5238   29.9212   47.7562 H   0  0  0  0  0  0  0  0  0  0  0  0
   60.9250   30.8330   48.7890 H   0  0  0  0  0  0  0  0  0  0  0  0
   61.1320   32.3690   48.2010 H   0  0  0  0  0  0  0  0  0  0  0  0
   60.2620   33.8286   47.6725 H   0  0  0  0  0  0  0  0  0  0  0  0
   59.4842   35.7983   46.3802 H   0  0  0  0  0  0  0  0  0  0  0  0
   58.1824   35.4853   44.2873 H   0  0  0  0  0  0  0  0  0  0  0  0
   57.5866   33.2028   43.5177 H   0  0  0  0  0  0  0  0  0  0  0  0
   56.1826   30.5614   44.1575 H   0  0  0  0  0  0  0  0  0  0  0  0
   57.1415   31.6402   43.0883 H   0  0  0  0  0  0  0  0  0  0  0  0
   57.4500   29.8706   43.0883 H   0  0  0  0  0  0  0  0  0  0  0  0
   58.1715   28.3880   43.8566 H   0  0  0  0  0  0  0  0  0  0  0  0
   58.8884   26.3837   45.1304 H   0  0  0  0  0  0  0  0  0  0  0  0
   59.5830   26.6046   47.5026 H   0  0  0  0  0  0  0  0  0  0  0  0
   59.0046   29.5474   50.7746 H   0  0  0  0  0  0  0  0  0  0  0  0
   59.0483   30.7738   49.4629 H   0  0  0  0  0  0  0  0  0  0  0  0
   57.7782   29.5036   49.4629 H   0  0  0  0  0  0  0  0  0  0  0  0
   60.6248   28.1857   50.6882 H   0  0  0  0  0  0  0  0  0  0  0  0
   60.6902   27.0321   49.3129 H   0  0  0  0  0  0  0  0  0  0  0  0
   61.7394   28.4901   49.3129 H   0  0  0  0  0  0  0  0  0  0  0  0
  1  2  1  0
  2  3  1  0
  3  4  1  0
  3  5  1  0
  5  6  1  0
  6  7  1  0
  7  8  1  0
  8  9  2  0
  9 10  1  0
 10 11  2  0
 11 12  1  0
 12 13  2  0
 13 14  1  0
 14 15  2  0
 15 16  1  0
 15 17  1  0
 17 18  2  0
 18 19  1  0
 19 20  2  0
 20 21  1  0
 21 22  1  0
 22 23  1  0
 22 24  1  0
 21 25  2  0
 25  8  1  0
 14  9  1  0
 25 17  1  0
  1 26  1  0
  1 27  1  0
  1 28  1  0
  2 29  1  0
  2 30  1  0
  4 31  1  0
  4 32  1  0
  4 33  1  0
  5 34  1  0
  5 35  1  0
  6 36  1  0
  6 37  1  0
  7 38  1  0
  7 39  1  0
 10 40  1  0
 11 41  1  0
 12 42  1  0
 13 43  1  0
 16 44  1  0
 16 45  1  0
 16 46  1  0
 18 47  1  0
 19 48  1  0
 20 49  1  0
 23 50  1  0
 23 51  1  0
 23 52  1  0
 24 53  1  0
 24 54  1  0
 24 55  1  0
M  CHG  2   7   1  15   1
M  END
>  <UniqueID>  (4) 
4

>  <SMILES>  (4) 
CCN(C)CC[NH2+]c1c2ccccc2[n+](C)c2cccc(N(C)C)c12

>  <Energy>  (4) 
99.42871289782903

>  <Genealogy>  (4) 
CCN(C)CC[NH2+]c1c2ccccc2[n+](C)c2cccc(N(C)C)c12 (protonated)
CCN(C)CC[NH2+]c1c2ccccc2[n+](C)c2cccc(N(C)C)c12 (3D coordinates assigned)
CCN(C)CC[NH2+]c1c2ccccc2[n+](C)c2cccc(N(C)C)c12 (optimized conformer: 99.42871289782903 kcal/mol)

>  <smiles>  (4) 
CCN(C)CCNc1c2ccccc2[n+](C)c2cccc(N(C)C)c12

>  <score_type>  (4) 
oracle

>  <origin>  (4) 
adg

>  <m_score__min__energy>  (4) 
-3.9700000000000002

>  <m_primary>  (4) 
energy

$$$$
4:0
     RDKit          3D

 63 65  0  0  0  0  0  0  0  0999 V2000
   58.8980   30.1060   50.0880 C   0  0  0  0  0  0  0  0  0  0  0  0
   59.6840   31.3510   50.0180 N   0  0  0  0  0  0  0  0  0  0  0  0
   60.8840   31.2010   50.8680 C   0  0  0  0  0  0  0  0  0  0  0  0
   58.8450   32.4800   50.4770 C   0  0  0  0  0  0  0  0  0  0  0  0
   59.6060   33.8260   50.4350 C   0  0  0  0  0  0  0  0  0  0  0  0
   59.6620   34.4310   49.0200 C   0  0  0  0  0  0  0  0  0  0  0  0
   60.3540   33.5400   48.0740 N   0  0  0  0  0  0  0  0  0  0  0  0
   59.5800   33.3980   46.8540 C   0  0  0  0  0  0  0  0  0  0  0  0
   59.0370   34.5830   46.3240 C   0  0  0  0  0  0  0  0  0  0  0  0
   58.1440   34.5610   45.2730 C   0  0  0  0  0  0  0  0  0  0  0  0
   57.7660   33.3590   44.7060 C   0  0  0  0  0  0  0  0  0  0  0  0
   58.2960   32.1270   45.1560 C   0  0  0  0  0  0  0  0  0  0  0  0
   59.2130   32.1300   46.2600 C   0  0  0  0  0  0  0  0  0  0  0  0
   59.6810   30.8630   46.7210 C   0  0  0  0  0  0  0  0  0  0  0  0
   60.8160   30.7390   47.5920 N   0  0  0  0  0  0  0  0  0  0  0  0
   62.1780   31.0040   47.1160 C   0  0  0  0  0  0  0  0  0  0  0  0
   63.0180   31.6500   48.2180 C   0  0  0  0  0  0  0  0  0  0  0  0
   62.8200   33.1200   48.2510 N   0  0  0  0  0  0  0  0  0  0  0  0
   63.4420   33.7380   47.0670 C   0  0  0  0  0  0  0  0  0  0  0  0
   63.4020   33.7090   49.4740 C   0  0  0  0  0  0  0  0  0  0  0  0
   59.0600   29.6830   46.2700 C   0  0  0  0  0  0  0  0  0  0  0  0
   59.3520   28.4340   46.8640 C   0  0  0  0  0  0  0  0  0  0  0  0
   58.7500   27.2670   46.4070 C   0  0  0  0  0  0  0  0  0  0  0  0
   57.8340   27.3190   45.3630 C   0  0  0  0  0  0  0  0  0  0  0  0
   57.5310   28.5380   44.7600 C   0  0  0  0  0  0  0  0  0  0  0  0
   58.1550   29.7400   45.1820 C   0  0  0  0  0  0  0  0  0  0  0  0
   57.9180   30.9420   44.5500 N   0  0  0  0  0  0  0  0  0  0  0  0
   57.2710   30.9510   43.2180 C   0  0  0  0  0  0  0  0  0  0  0  0
   58.7288   29.8380   51.1413 H   0  0  0  0  0  0  0  0  0  0  0  0
   57.9299   30.2549   49.5875 H   0  0  0  0  0  0  0  0  0  0  0  0
   59.4488   29.2960   49.5875 H   0  0  0  0  0  0  0  0  0  0  0  0
   60.5899   31.2378   51.9273 H   0  0  0  0  0  0  0  0  0  0  0  0
   61.3661   30.2356   50.6546 H   0  0  0  0  0  0  0  0  0  0  0  0
   61.5889   32.0180   50.6546 H   0  0  0  0  0  0  0  0  0  0  0  0
   57.9609   32.5521   49.8265 H   0  0  0  0  0  0  0  0  0  0  0  0
   58.5580   32.2859   51.5210 H   0  0  0  0  0  0  0  0  0  0  0  0
   59.0992   34.5382   51.1028 H   0  0  0  0  0  0  0  0  0  0  0  0
   60.6404   33.6340   50.7563 H   0  0  0  0  0  0  0  0  0  0  0  0
   58.6352   34.6007   48.6639 H   0  0  0  0  0  0  0  0  0  0  0  0
   60.2220   35.3763   49.0731 H   0  0  0  0  0  0  0  0  0  0  0  0
   60.6050   32.6360   48.5090 H   0  0  0  0  0  0  0  0  0  0  0  0
   61.2870   33.9480   47.8380 H   0  0  0  0  0  0  0  0  0  0  0  0
   59.3316   35.5498   46.7581 H   0  0  0  0  0  0  0  0  0  0  0  0
   57.7313   35.5038   44.8848 H   0  0  0  0  0  0  0  0  0  0  0  0
   57.0348   33.3601   43.8843 H   0  0  0  0  0  0  0  0  0  0  0  0
   60.6850   30.3020   48.5330 H   0  0  0  0  0  0  0  0  0  0  0  0
   62.6461   30.0555   46.8139 H   0  0  0  0  0  0  0  0  0  0  0  0
   62.1263   31.6930   46.2601 H   0  0  0  0  0  0  0  0  0  0  0  0
   62.7229   31.2262   49.1892 H   0  0  0  0  0  0  0  0  0  0  0  0
   64.0791   31.4458   48.0123 H   0  0  0  0  0  0  0  0  0  0  0  0
   64.1880   34.4792   47.3895 H   0  0  0  0  0  0  0  0  0  0  0  0
   63.9342   32.9610   46.4637 H   0  0  0  0  0  0  0  0  0  0  0  0
   62.6682   34.2352   46.4637 H   0  0  0  0  0  0  0  0  0  0  0  0
   62.9429   33.2444   50.3591 H   0  0  0  0  0  0  0  0  0  0  0  0
   64.4872   33.5294   49.4869 H   0  0  0  0  0  0  0  0  0  0  0  0
   63.2094   34.7919   49.4869 H   0  0  0  0  0  0  0  0  0  0  0  0
   60.0656   28.3846   47.6996 H   0  0  0  0  0  0  0  0  0  0  0  0
   58.9989   26.3017   46.8721 H   0  0  0  0  0  0  0  0  0  0  0  0
   57.3477   26.3967   45.0124 H   0  0  0  0  0  0  0  0  0  0  0  0
   56.7954   28.5688   43.9428 H   0  0  0  0  0  0  0  0  0  0  0  0
   56.1780   30.9662   43.3414 H   0  0  0  0  0  0  0  0  0  0  0  0
   57.5897   31.8448   42.6616 H   0  0  0  0  0  0  0  0  0  0  0  0
   57.5647   30.0487   42.6616 H   0  0  0  0  0  0  0  0  0  0  0  0
  1  2  1  0
  2  3  1  0
  2  4  1  0
  4  5  1  0
  5  6  1  0
  6  7  1  0
  7  8  1  0
  8  9  2  0
  9 10  1  0
 10 11  2  0
 11 12  1  0
 12 13  2  0
 13 14  1  0
 14 15  1  0
 15 16  1  0
 16 17  1  0
 17 18  1  0
 18 19  1  0
 18 20  1  0
 14 21  2  0
 21 22  1  0
 22 23  2  0
 23 24  1  0
 24 25  2  0
 25 26  1  0
 26 27  2  0
 27 28  1  0
 13  8  1  0
 26 21  1  0
 27 12  1  0
  1 29  1  0
  1 30  1  0
  1 31  1  0
  3 32  1  0
  3 33  1  0
  3 34  1  0
  4 35  1  0
  4 36  1  0
  5 37  1  0
  5 38  1  0
  6 39  1  0
  6 40  1  0
  7 41  1  0
  7 42  1  0
  9 43  1  0
 10 44  1  0
 11 45  1  0
 15 46  1  0
 16 47  1  0
 16 48  1  0
 17 49  1  0
 17 50  1  0
 19 51  1  0
 19 52  1  0
 19 53  1  0
 20 54  1  0
 20 55  1  0
 20 56  1  0
 22 57  1  0
 23 58  1  0
 24 59  1  0
 25 60  1  0
 28 61  1  0
 28 62  1  0
 28 63  1  0
M  CHG  2   7   1  27   1
M  END
>  <UniqueID>  (5) 
5

>  <SMILES>  (5) 
CN(C)CCC[NH2+]c1cccc2c1c(NCCN(C)C)c1ccccc1[n+]2C

>  <Energy>  (5) 
102.52603691259658

>  <Genealogy>  (5) 
CN(C)CCC[NH2+]c1cccc2c1c(NCCN(C)C)c1ccccc1[n+]2C (protonated)
CN(C)CCC[NH2+]c1cccc2c1c(NCCN(C)C)c1ccccc1[n+]2C (3D coordinates assigned)
CN(C)CCC[NH2+]c1cccc2c1c(NCCN(C)C)c1ccccc1[n+]2C (optimized conformer: 102.52603691259658 kcal/mol)

>  <smiles>  (5) 
CN(C)CCCNc1cccc2c1c(NCCN(C)C)c1ccccc1[n+]2C

>  <score_type>  (5) 
oracle

>  <origin>  (5) 
adg

>  <m_score__min__energy>  (5) 
-3.5800000000000001

>  <m_primary>  (5) 
energy

$$$$
5:0
     RDKit          3D

 49 52  0  0  0  0  0  0  0  0999 V2000
   56.9710   29.0560   52.7850 C   0  0  0  0  0  0  0  0  0  0  0  0
   57.6410   29.7320   51.6610 N   0  0  0  0  0  0  0  0  0  0  0  0
   57.5160   31.1900   51.8260 C   0  0  0  0  0  0  0  0  0  0  0  0
   59.0600   29.3190   51.5980 C   0  0  0  0  0  0  0  0  0  0  0  0
   59.6350   29.4730   50.1850 C   0  0  0  0  0  0  0  0  0  0  0  0
   58.7240   30.2320   49.3260 N   0  0  0  0  0  0  0  0  0  0  0  0
   59.2210   31.2380   48.4250 C   0  0  0  0  0  0  0  0  0  0  0  0
   60.1370   32.2010   48.8900 C   0  0  0  0  0  0  0  0  0  0  0  0
   60.6870   32.1120   50.1880 C   0  0  0  0  0  0  0  0  0  0  0  0
   61.5870   33.0690   50.6510 C   0  0  0  0  0  0  0  0  0  0  0  0
   61.9610   34.1250   49.8300 C   0  0  0  0  0  0  0  0  0  0  0  0
   61.4340   34.2360   48.5450 C   0  0  0  0  0  0  0  0  0  0  0  0
   60.5050   33.2840   48.0480 C   0  0  0  0  0  0  0  0  0  0  0  0
   59.9570   33.3980   46.7860 N   0  0  0  0  0  0  0  0  0  0  0  0
   60.2840   34.5680   45.9420 C   0  0  0  0  0  0  0  0  0  0  0  0
   59.1280   32.4140   46.2940 C   0  0  0  0  0  0  0  0  0  0  0  0
   58.6710   32.4890   45.0160 N   0  0  0  0  0  0  0  0  0  0  0  0
   57.8560   31.5660   44.4540 C   0  0  0  0  0  0  0  0  0  0  0  0
   57.4610   31.7340   43.1230 C   0  0  0  0  0  0  0  0  0  0  0  0
   56.6490   30.7860   42.5090 C   0  0  0  0  0  0  0  0  0  0  0  0
   56.1940   29.6850   43.2300 C   0  0  0  0  0  0  0  0  0  0  0  0
   56.5420   29.5140   44.5760 C   0  0  0  0  0  0  0  0  0  0  0  0
   55.9420   28.4440   45.2470 O   0  0  0  0  0  0  0  0  0  0  0  0
   57.4350   30.4390   45.1980 C   0  0  0  0  0  0  0  0  0  0  0  0
   57.9660   30.2780   46.5000 C   0  0  0  0  0  0  0  0  0  0  0  0
   57.7960   29.1920   47.1140 O   0  0  0  0  0  0  0  0  0  0  0  0
   58.7590   31.3030   47.0890 C   0  0  0  0  0  0  0  0  0  0  0  0
   57.3613   29.4498   53.7350 H   0  0  0  0  0  0  0  0  0  0  0  0
   55.8877   29.2389   52.7297 H   0  0  0  0  0  0  0  0  0  0  0  0
   57.1635   27.9744   52.7297 H   0  0  0  0  0  0  0  0  0  0  0  0
   57.4948   31.4372   52.8976 H   0  0  0  0  0  0  0  0  0  0  0  0
   58.3748   31.6876   51.3518 H   0  0  0  0  0  0  0  0  0  0  0  0
   56.5850   31.5342   51.3518 H   0  0  0  0  0  0  0  0  0  0  0  0
   59.6438   29.9436   52.2901 H   0  0  0  0  0  0  0  0  0  0  0  0
   59.1200   28.2569   51.8780 H   0  0  0  0  0  0  0  0  0  0  0  0
   60.5976   30.0021   50.2443 H   0  0  0  0  0  0  0  0  0  0  0  0
   59.7711   28.4712   49.7517 H   0  0  0  0  0  0  0  0  0  0  0  0
   57.7470   29.8840   49.2100 H   0  0  0  0  0  0  0  0  0  0  0  0
   60.4006   31.2754   50.8422 H   0  0  0  0  0  0  0  0  0  0  0  0
   62.0015   32.9884   51.6667 H   0  0  0  0  0  0  0  0  0  0  0  0
   62.6761   34.8766   50.1957 H   0  0  0  0  0  0  0  0  0  0  0  0
   61.7428   35.0754   47.9046 H   0  0  0  0  0  0  0  0  0  0  0  0
   60.5243   35.4279   46.5845 H   0  0  0  0  0  0  0  0  0  0  0  0
   61.1504   34.3313   45.3069 H   0  0  0  0  0  0  0  0  0  0  0  0
   59.4204   34.8148   45.3069 H   0  0  0  0  0  0  0  0  0  0  0  0
   57.7934   32.6185   42.5599 H   0  0  0  0  0  0  0  0  0  0  0  0
   56.3660   30.9062   41.4528 H   0  0  0  0  0  0  0  0  0  0  0  0
   55.5530   28.9399   42.7361 H   0  0  0  0  0  0  0  0  0  0  0  0
   56.3130   28.0200   46.0840 H   0  0  0  0  0  0  0  0  0  0  0  0
  1  2  1  0
  2  3  1  0
  2  4  1  0
  4  5  1  0
  5  6  1  0
  6  7  1  0
  7  8  2  0
  8  9  1  0
  9 10  2  0
 10 11  1  0
 11 12  2  0
 12 13  1  0
 13 14  2  0
 14 15  1  0
 14 16  1  0
 16 17  1  0
 17 18  1  0
 18 19  2  0
 19 20  1  0
 20 21  2  0
 21 22  1  0
 22 23  1  0
 22 24  2  0
 24 25  1  0
 25 26  2  0
 25 27  1  0
 27  7  1  0
 13  8  1  0
 27 16  2  0
 24 18  1  0
  1 28  1  0
  1 29  1  0
  1 30  1  0
  3 31  1  0
  3 32  1  0
  3 33  1  0
  4 34  1  0
  4 35  1  0
  5 36  1  0
  5 37  1  0
  6 38  1  0
  9 39  1  0
 10 40  1  0
 11 41  1  0
 12 42  1  0
 15 43  1  0
 15 44  1  0
 15 45  1  0
 19 46  1  0
 20 47  1  0
 21 48  1  0
 23 49  1  0
M  CHG  2  14   1  17  -1
M  END
>  <UniqueID>  (6) 
6

>  <SMILES>  (6) 
CN(C)CCNc1c2ccccc2[n+](C)c2[n-]c3cccc(O)c3c(=O)c12

>  <Energy>  (6) 
86.40400145980607

>  <Genealogy>  (6) 
CN(C)CCNc1c2ccccc2[n+](C)c2[n-]c3cccc(O)c3c(=O)c12 (protonated)
CN(C)CCNc1c2ccccc2[n+](C)c2[n-]c3cccc(O)c3c(=O)c12 (3D coordinates assigned)
CN(C)CCNc1c2ccccc2[n+](C)c2[n-]c3cccc(O)c3c(=O)c12 (optimized conformer: 86.40400145980607 kcal/mol)

>  <smiles>  (6) 
CN(C)CCNc1c2ccccc2[n+](C)c2[nH]c3cccc(O)c3c(=O)c12

>  <score_type>  (6) 
oracle

>  <origin>  (6) 
adg

>  <m_score__min__energy>  (6) 
-7.0899999999999999

>  <m_primary>  (6) 
energy

$$$$
6:0
     RDKit          3D

 33 33  0  0  0  0  0  0  0  0999 V2000
   56.2850   29.7280   42.8130 C   0  0  0  0  0  0  0  0  0  0  0  0
   56.9860   29.6890   44.1670 C   0  0  0  0  0  0  0  0  0  0  0  0
   56.6850   30.8570   44.9050 O   0  0  0  0  0  0  0  0  0  0  0  0
   57.7520   31.7820   44.8310 C   0  0  0  0  0  0  0  0  0  0  0  0
   57.2800   33.1470   45.3310 C   0  0  0  0  0  0  0  0  0  0  0  0
   58.3810   34.2130   45.1810 C   0  0  0  0  0  0  0  0  0  0  0  0
   58.9750   34.5920   46.4750 N   0  0  0  0  0  0  0  0  0  0  0  0
   60.4120   34.8920   46.3760 C   0  0  0  0  0  0  0  0  0  0  0  0
   61.2300   33.6950   46.7820 C   0  0  0  0  0  0  0  0  0  0  0  0
   62.6310   33.7560   46.7690 C   0  0  0  0  0  0  0  0  0  0  0  0
   63.3700   32.6650   47.1150 N   0  0  0  0  0  0  0  0  0  0  0  0
   62.7810   31.4930   47.4760 C   0  0  0  0  0  0  0  0  0  0  0  0
   61.3870   31.3850   47.4970 C   0  0  0  0  0  0  0  0  0  0  0  0
   60.5550   29.7400   47.9910 Br  0  0  0  0  0  0  0  0  0  0  0  0
   60.6110   32.4920   47.1480 C   0  0  0  0  0  0  0  0  0  0  0  0
   55.1972   29.7885   42.9649 H   0  0  0  0  0  0  0  0  0  0  0  0
   56.6260   30.6086   42.2488 H   0  0  0  0  0  0  0  0  0  0  0  0
   56.5262   28.8150   42.2488 H   0  0  0  0  0  0  0  0  0  0  0  0
   56.6447   28.8064   44.7279 H   0  0  0  0  0  0  0  0  0  0  0  0
   58.0730   29.6345   44.0077 H   0  0  0  0  0  0  0  0  0  0  0  0
   58.5856   31.4307   45.4568 H   0  0  0  0  0  0  0  0  0  0  0  0
   58.0882   31.8705   43.7874 H   0  0  0  0  0  0  0  0  0  0  0  0
   56.4003   33.4569   44.7479 H   0  0  0  0  0  0  0  0  0  0  0  0
   57.0295   33.0565   46.3983 H   0  0  0  0  0  0  0  0  0  0  0  0
   59.1739   33.8132   44.5318 H   0  0  0  0  0  0  0  0  0  0  0  0
   57.9203   35.1126   44.7468 H   0  0  0  0  0  0  0  0  0  0  0  0
   58.8380   33.8180   47.1660 H   0  0  0  0  0  0  0  0  0  0  0  0
   60.6549   35.1610   45.3374 H   0  0  0  0  0  0  0  0  0  0  0  0
   60.6478   35.7290   47.0497 H   0  0  0  0  0  0  0  0  0  0  0  0
   63.1356   34.6891   46.4781 H   0  0  0  0  0  0  0  0  0  0  0  0
   64.4120   32.7290   47.1020 H   0  0  0  0  0  0  0  0  0  0  0  0
   63.4027   30.6285   47.7520 H   0  0  0  0  0  0  0  0  0  0  0  0
   59.5134   32.4199   47.1603 H   0  0  0  0  0  0  0  0  0  0  0  0
  1  2  1  0
  2  3  1  0
  3  4  1  0
  4  5  1  0
  5  6  1  0
  6  7  1  0
  7  8  1  0
  8  9  1  0
  9 10  2  0
 10 11  1  0
 11 12  2  0
 12 13  1  0
 13 14  1  0
 13 15  2  0
 15  9  1  0
  1 16  1  0
  1 17  1  0
  1 18  1  0
  2 19  1  0
  2 20  1  0
  4 21  1  0
  4 22  1  0
  5 23  1  0
  5 24  1  0
  6 25  1  0
  6 26  1  0
  7 27  1  0
  8 28  1  0
  8 29  1  0
 10 30  1  0
 11 31  1  0
 12 32  1  0
 15 33  1  0
M  CHG  1  11   1
M  END
>  <UniqueID>  (7) 
7

>  <SMILES>  (7) 
CCOCCCNCc1c[nH+]cc(Br)c1

>  <Energy>  (7) 
26.341031909637554

>  <Genealogy>  (7) 
CCOCCCNCc1c[nH+]cc(Br)c1 (protonated)
CCOCCCNCc1c[nH+]cc(Br)c1 (3D coordinates assigned)
CCOCCCNCc1c[nH+]cc(Br)c1 (optimized conformer: 26.341031909637554 kcal/mol)

>  <smiles>  (7) 
CCOCCCNCc1cncc(Br)c1

>  <score_type>  (7) 
oracle

>  <origin>  (7) 
adg

>  <m_score__min__energy>  (7) 
-4.2800000000000002

>  <m_primary>  (7) 
energy

$$$$
7:0
     RDKit          3D

 70 75  0  0  0  0  0  0  0  0999 V2000
   61.0890   30.2280   46.7030 C   0  0  0  0  0  0  0  0  0  0  0  0
   60.2690   30.1830   47.9930 C   0  0  0  0  0  0  0  0  0  0  0  0
   60.6160   28.9810   48.7900 N   0  0  0  0  0  0  0  0  0  0  0  0
   59.6340   27.8920   48.5420 C   0  0  0  0  0  0  0  0  0  0  0  0
   60.0480   27.0680   47.3290 C   0  0  0  0  0  0  0  0  0  0  0  0
   60.6740   29.2800   50.2410 C   0  0  0  0  0  0  0  0  0  0  0  0
   59.7970   30.4740   50.6690 C   0  0  0  0  0  0  0  0  0  0  0  0
   60.5740   31.5810   51.2350 N   0  0  0  0  0  0  0  0  0  0  0  0
   61.9930   31.6680   51.0340 C   0  0  0  0  0  0  0  0  0  0  0  0
   62.9150   31.0940   51.9460 C   0  0  0  0  0  0  0  0  0  0  0  0
   62.4820   30.6140   53.2000 C   0  0  0  0  0  0  0  0  0  0  0  0
   63.3700   29.9810   54.0660 C   0  0  0  0  0  0  0  0  0  0  0  0
   64.7060   29.8280   53.7100 C   0  0  0  0  0  0  0  0  0  0  0  0
   65.1770   30.3420   52.5020 C   0  0  0  0  0  0  0  0  0  0  0  0
   64.3080   31.0190   51.6070 C   0  0  0  0  0  0  0  0  0  0  0  0
   64.7790   31.5960   50.4350 N   0  0  0  0  0  0  0  0  0  0  0  0
   66.2200   31.5940   50.1180 C   0  0  0  0  0  0  0  0  0  0  0  0
   63.8710   32.1760   49.5830 C   0  0  0  0  0  0  0  0  0  0  0  0
   64.1360   32.7450   48.3780 N   0  0  0  0  0  0  0  0  0  0  0  0
   62.9450   33.1690   47.9160 C   0  0  0  0  0  0  0  0  0  0  0  0
   62.7080   33.8410   46.7180 C   0  0  0  0  0  0  0  0  0  0  0  0
   61.3920   34.2400   46.4320 C   0  0  0  0  0  0  0  0  0  0  0  0
   60.3470   33.9590   47.3380 C   0  0  0  0  0  0  0  0  0  0  0  0
   58.6900   34.5700   47.0190 S   0  0  0  0  0  0  0  0  0  0  0  0
   58.3220   33.2200   45.8950 C   0  0  0  0  0  0  0  0  0  0  0  0
   58.0670   33.4870   44.5450 C   0  0  0  0  0  0  0  0  0  0  0  0
   57.7360   32.4490   43.6710 C   0  0  0  0  0  0  0  0  0  0  0  0
   57.6180   31.1370   44.1490 C   0  0  0  0  0  0  0  0  0  0  0  0
   57.2590   30.0900   43.2840 C   0  0  0  0  0  0  0  0  0  0  0  0
   57.1030   28.7910   43.7810 C   0  0  0  0  0  0  0  0  0  0  0  0
   57.3100   28.5280   45.1380 C   0  0  0  0  0  0  0  0  0  0  0  0
   57.6850   29.5580   46.0060 C   0  0  0  0  0  0  0  0  0  0  0  0
   57.8420   30.8680   45.5220 C   0  0  0  0  0  0  0  0  0  0  0  0
   58.2190   31.9080   46.3810 C   0  0  0  0  0  0  0  0  0  0  0  0
   60.6080   33.2460   48.5240 C   0  0  0  0  0  0  0  0  0  0  0  0
   61.9250   32.8700   48.7930 C   0  0  0  0  0  0  0  0  0  0  0  0
   62.5180   32.2290   49.8680 C   0  0  0  0  0  0  0  0  0  0  0  0
   62.1592   30.2867   46.9506 H   0  0  0  0  0  0  0  0  0  0  0  0
   60.8981   29.3180   46.1152 H   0  0  0  0  0  0  0  0  0  0  0  0
   60.7996   31.1116   46.1152 H   0  0  0  0  0  0  0  0  0  0  0  0
   60.4801   31.0842   48.5873 H   0  0  0  0  0  0  0  0  0  0  0  0
   59.2010   30.1403   47.7332 H   0  0  0  0  0  0  0  0  0  0  0  0
   59.5874   27.2381   49.4253 H   0  0  0  0  0  0  0  0  0  0  0  0
   58.6475   28.3388   48.3494 H   0  0  0  0  0  0  0  0  0  0  0  0
   60.5183   26.1320   47.6648 H   0  0  0  0  0  0  0  0  0  0  0  0
   59.1598   26.8354   46.7233 H   0  0  0  0  0  0  0  0  0  0  0  0
   60.7648   27.6418   46.7233 H   0  0  0  0  0  0  0  0  0  0  0  0
   60.3385   28.3889   50.7918 H   0  0  0  0  0  0  0  0  0  0  0  0
   61.7153   29.5509   50.4696 H   0  0  0  0  0  0  0  0  0  0  0  0
   59.2523   30.8427   49.7874 H   0  0  0  0  0  0  0  0  0  0  0  0
   59.1139   30.1163   51.4535 H   0  0  0  0  0  0  0  0  0  0  0  0
   60.1040   32.3450   51.7750 H   0  0  0  0  0  0  0  0  0  0  0  0
   61.4306   30.7413   53.4972 H   0  0  0  0  0  0  0  0  0  0  0  0
   63.0138   29.6007   55.0348 H   0  0  0  0  0  0  0  0  0  0  0  0
   65.3948   29.2987   54.3849 H   0  0  0  0  0  0  0  0  0  0  0  0
   66.2382   30.2208   52.2389 H   0  0  0  0  0  0  0  0  0  0  0  0
   66.8009   31.5932   51.0521 H   0  0  0  0  0  0  0  0  0  0  0  0
   66.4655   30.6955   49.5328 H   0  0  0  0  0  0  0  0  0  0  0  0
   66.4679   32.4918   49.5328 H   0  0  0  0  0  0  0  0  0  0  0  0
   65.0420   32.8390   47.8710 H   0  0  0  0  0  0  0  0  0  0  0  0
   63.5283   34.0528   46.0165 H   0  0  0  0  0  0  0  0  0  0  0  0
   61.1744   34.7750   45.4958 H   0  0  0  0  0  0  0  0  0  0  0  0
   58.1276   34.5195   44.1704 H   0  0  0  0  0  0  0  0  0  0  0  0
   57.5676   32.6619   42.6050 H   0  0  0  0  0  0  0  0  0  0  0  0
   57.1002   30.2914   42.2143 H   0  0  0  0  0  0  0  0  0  0  0  0
   56.8166   27.9746   43.1016 H   0  0  0  0  0  0  0  0  0  0  0  0
   57.1774   27.5068   45.5246 H   0  0  0  0  0  0  0  0  0  0  0  0
   57.8576   29.3423   47.0708 H   0  0  0  0  0  0  0  0  0  0  0  0
   58.4347   31.6957   47.4385 H   0  0  0  0  0  0  0  0  0  0  0  0
   59.7952   32.9920   49.2203 H   0  0  0  0  0  0  0  0  0  0  0  0
  1  2  1  0
  2  3  1  0
  3  4  1  0
  4  5  1  0
  3  6  1  0
  6  7  1  0
  7  8  1  0
  8  9  1  0
  9 10  2  0
 10 11  1  0
 11 12  2  0
 12 13  1  0
 13 14  2  0
 14 15  1  0
 15 16  2  0
 16 17  1  0
 16 18  1  0
 18 19  1  0
 19 20  1  0
 20 21  2  0
 21 22  1  0
 22 23  2  0
 23 24  1  0
 24 25  1  0
 25 26  2  0
 26 27  1  0
 27 28  2  0
 28 29  1  0
 29 30  2  0
 30 31  1  0
 31 32  2  0
 32 33  1  0
 33 34  2  0
 23 35  1  0
 35 36  2  0
 36 37  1  0
 37  9  1  0
 15 10  1  0
 37 18  2  0
 36 20  1  0
 34 25  1  0
 33 28  1  0
  1 38  1  0
  1 39  1  0
  1 40  1  0
  2 41  1  0
  2 42  1  0
  4 43  1  0
  4 44  1  0
  5 45  1  0
  5 46  1  0
  5 47  1  0
  6 48  1  0
  6 49  1  0
  7 50  1  0
  7 51  1  0
  8 52  1  0
 11 53  1  0
 12 54  1  0
 13 55  1  0
 14 56  1  0
 17 57  1  0
 17 58  1  0
 17 59  1  0
 19 60  1  0
 21 61  1  0
 22 62  1  0
 26 63  1  0
 27 64  1  0
 29 65  1  0
 30 66  1  0
 31 67  1  0
 32 68  1  0
 34 69  1  0
 35 70  1  0
M  CHG  1  16   1
M  END
>  <UniqueID>  (8) 
8

>  <SMILES>  (8) 
CCN(CC)CCNc1c2ccccc2[n+](C)c2[nH]c3ccc(Sc4ccc5ccccc5c4)cc3c12

>  <Energy>  (8) 
132.29476721966768

>  <Genealogy>  (8) 
CCN(CC)CCNc1c2ccccc2[n+](C)c2[nH]c3ccc(Sc4ccc5ccccc5c4)cc3c12 (3D coordinates assigned)
CCN(CC)CCNc1c2ccccc2[n+](C)c2[nH]c3ccc(Sc4ccc5ccccc5c4)cc3c12 (optimized conformer: 132.29476721966768 kcal/mol)

>  <smiles>  (8) 
CCN(CC)CCNc1c2ccccc2[n+](C)c2[nH]c3ccc(Sc4ccc5ccccc5c4)cc3c12

>  <score_type>  (8) 
oracle

>  <origin>  (8) 
adg

>  <m_score__min__energy>  (8) 
-8.5299999999999994

>  <m_primary>  (8) 
energy

$$$$
8:0
     RDKit          3D

 54 55  0  0  0  0  0  0  0  0999 V2000
   62.5920   30.9910   48.7970 H   0  0  0  0  0  0  0  0  0  0  0  0
   61.8780   30.6690   48.1110 N   0  0  0  0  0  0  0  0  0  0  0  0
   61.0780   31.4750   47.4820 C   0  0  0  0  0  0  0  0  0  0  0  0
   61.5100   32.5960   46.8480 N   0  0  0  0  0  0  0  0  0  0  0  0
   62.8870   33.0940   46.7520 C   0  0  0  0  0  0  0  0  0  0  0  0
   63.5713   32.2420   46.6263 H   0  0  0  0  0  0  0  0  0  0  0  0
   62.9591   33.7715   45.8884 H   0  0  0  0  0  0  0  0  0  0  0  0
   63.2730   33.8680   48.0210 C   0  0  0  0  0  0  0  0  0  0  0  0
   64.2927   34.2632   47.9029 H   0  0  0  0  0  0  0  0  0  0  0  0
   62.5511   34.6862   48.1606 H   0  0  0  0  0  0  0  0  0  0  0  0
   63.2290   32.9970   49.2200 N   0  0  0  0  0  0  0  0  0  0  0  0
   64.5940   32.6870   49.7000 C   0  0  0  0  0  0  0  0  0  0  0  0
   64.6042   32.6847   50.8000 H   0  0  0  0  0  0  0  0  0  0  0  0
   64.8973   31.6971   49.3284 H   0  0  0  0  0  0  0  0  0  0  0  0
   65.2952   33.4488   49.3284 H   0  0  0  0  0  0  0  0  0  0  0  0
   62.4380   33.6250   50.3050 C   0  0  0  0  0  0  0  0  0  0  0  0
   62.4438   32.9669   51.1864 H   0  0  0  0  0  0  0  0  0  0  0  0
   62.8858   34.5971   50.5587 H   0  0  0  0  0  0  0  0  0  0  0  0
   61.0000   33.8440   49.8500 C   0  0  0  0  0  0  0  0  0  0  0  0
   60.3480   33.9433   50.7303 H   0  0  0  0  0  0  0  0  0  0  0  0
   60.9423   34.7613   49.2456 H   0  0  0  0  0  0  0  0  0  0  0  0
   60.6719   32.9855   49.2456 H   0  0  0  0  0  0  0  0  0  0  0  0
   60.3800   33.1870   46.4120 C   0  0  0  0  0  0  0  0  0  0  0  0
   60.2360   34.4000   45.7350 C   0  0  0  0  0  0  0  0  0  0  0  0
   61.1117   35.0090   45.4661 H   0  0  0  0  0  0  0  0  0  0  0  0
   58.9330   34.8160   45.4090 C   0  0  0  0  0  0  0  0  0  0  0  0
   58.7804   35.7662   44.8762 H   0  0  0  0  0  0  0  0  0  0  0  0
   57.8180   34.0220   45.7610 C   0  0  0  0  0  0  0  0  0  0  0  0
   56.5680   34.4380   45.4410 F   0  0  0  0  0  0  0  0  0  0  0  0
   57.9940   32.8040   46.4430 C   0  0  0  0  0  0  0  0  0  0  0  0
   57.1329   32.1787   46.7215 H   0  0  0  0  0  0  0  0  0  0  0  0
   59.3010   32.4150   46.7550 C   0  0  0  0  0  0  0  0  0  0  0  0
   59.7240   31.3190   47.4190 N   0  0  0  0  0  0  0  0  0  0  0  0
   58.8970   30.2600   48.0080 C   0  0  0  0  0  0  0  0  0  0  0  0
   59.4760   29.7361   48.7828 H   0  0  0  0  0  0  0  0  0  0  0  0
   57.9978   30.7130   48.4511 H   0  0  0  0  0  0  0  0  0  0  0  0
   58.4710   29.2580   46.9320 C   0  0  0  0  0  0  0  0  0  0  0  0
   59.0292   28.3203   47.0701 H   0  0  0  0  0  0  0  0  0  0  0  0
   57.3904   29.0752   47.0259 H   0  0  0  0  0  0  0  0  0  0  0  0
   58.7480   29.7940   45.5820 N   0  0  0  0  0  0  0  0  0  0  0  0
   57.5910   29.7040   44.6570 C   0  0  0  0  0  0  0  0  0  0  0  0
   57.6819   28.7968   44.0416 H   0  0  0  0  0  0  0  0  0  0  0  0
   56.6574   29.6582   45.2369 H   0  0  0  0  0  0  0  0  0  0  0  0
   57.5730   30.9330   43.7540 C   0  0  0  0  0  0  0  0  0  0  0  0
   57.5597   31.8424   44.3727 H   0  0  0  0  0  0  0  0  0  0  0  0
   58.4712   30.9346   43.1190 H   0  0  0  0  0  0  0  0  0  0  0  0
   56.6751   30.9083   43.1190 H   0  0  0  0  0  0  0  0  0  0  0  0
   60.0040   29.2630   44.9990 C   0  0  0  0  0  0  0  0  0  0  0  0
   59.8748   29.1842   43.9095 H   0  0  0  0  0  0  0  0  0  0  0  0
   60.8074   29.9609   45.2775 H   0  0  0  0  0  0  0  0  0  0  0  0
   60.4020   27.8820   45.5410 C   0  0  0  0  0  0  0  0  0  0  0  0
   60.3957   27.9040   46.6408 H   0  0  0  0  0  0  0  0  0  0  0  0
   59.6847   27.1278   45.1852 H   0  0  0  0  0  0  0  0  0  0  0  0
   61.4107   27.6252   45.1852 H   0  0  0  0  0  0  0  0  0  0  0  0
  1  2  1  0
  2  3  2  0
  3  4  1  0
  4  5  1  0
  5  6  1  0
  5  7  1  0
  5  8  1  0
  8  9  1  0
  8 10  1  0
  8 11  1  0
 11 12  1  0
 12 13  1  0
 12 14  1  0
 12 15  1  0
 11 16  1  0
 16 17  1  0
 16 18  1  0
 16 19  1  0
 19 20  1  0
 19 21  1  0
 19 22  1  0
  4 23  1  0
 23 24  2  0
 24 25  1  0
 24 26  1  0
 26 27  1  0
 26 28  2  0
 28 29  1  0
 28 30  1  0
 30 31  1  0
 30 32  2  0
 32 33  1  0
 33 34  1  0
 34 35  1  0
 34 36  1  0
 34 37  1  0
 37 38  1  0
 37 39  1  0
 37 40  1  0
 40 41  1  0
 41 42  1  0
 41 43  1  0
 41 44  1  0
 44 45  1  0
 44 46  1  0
 44 47  1  0
 40 48  1  0
 48 49  1  0
 48 50  1  0
 48 51  1  0
 51 52  1  0
 51 53  1  0
 51 54  1  0
 33  3  1  0
 32 23  1  0
M  END
>  <UniqueID>  (9) 
9

>  <SMILES>  (9) 
[H]/N=c1/n(CCN(C)CC)c2ccc(F)cc2n1CCN(CC)CC

>  <Energy>  (9) 
92.15069028290675

>  <Genealogy>  (9) 
[H]/N=c1/n(CCN(C)CC)c2ccc(F)cc2n1CCN(CC)CC (cis-trans isomerization)
[H]/N=c1/n(CCN(C)CC)c2ccc(F)cc2n1CCN(CC)CC (3D coordinates assigned)
[H]/N=c1/n(CCN(C)CC)c2ccc(F)cc2n1CCN(CC)CC (optimized conformer: 92.15069028290675 kcal/mol)

>  <smiles>  (9) 
CCN(C)CCn1c(=N)n(CCN(CC)CC)c2cc(F)ccc21

>  <score_type>  (9) 
oracle

>  <origin>  (9) 
adg

>  <m_score__min__energy>  (9) 
-5.8300000000000001

>  <m_primary>  (9) 
energy

$$$$
9:0
     RDKit          3D

 50 52  0  0  0  0  0  0  0  0999 V2000
   64.7830   32.9890   50.0560 C   0  0  0  0  0  0  0  0  0  0  0  0
   63.3380   33.3940   49.7740 C   0  0  0  0  0  0  0  0  0  0  0  0
   62.9930   33.1470   48.3530 N   0  0  0  0  0  0  0  0  0  0  0  0
   63.7210   34.0960   47.4750 C   0  0  0  0  0  0  0  0  0  0  0  0
   63.3670   33.8490   46.0140 C   0  0  0  0  0  0  0  0  0  0  0  0
   63.3110   31.7510   47.9680 C   0  0  0  0  0  0  0  0  0  0  0  0
   62.0580   30.8490   47.9570 C   0  0  0  0  0  0  0  0  0  0  0  0
   60.8150   31.5570   48.3530 N   0  0  0  0  0  0  0  0  0  0  0  0
   59.8170   31.6310   47.2900 C   0  0  0  0  0  0  0  0  0  0  0  0
   59.5590   32.8540   46.6240 C   0  0  0  0  0  0  0  0  0  0  0  0
   59.9110   34.0920   47.2110 C   0  0  0  0  0  0  0  0  0  0  0  0
   59.7620   35.2850   46.5100 C   0  0  0  0  0  0  0  0  0  0  0  0
   59.2690   35.2690   45.2120 C   0  0  0  0  0  0  0  0  0  0  0  0
   58.8710   34.0680   44.6290 C   0  0  0  0  0  0  0  0  0  0  0  0
   58.9440   32.8430   45.3440 C   0  0  0  0  0  0  0  0  0  0  0  0
   58.4720   31.6590   44.8080 N   0  0  0  0  0  0  0  0  0  0  0  0
   57.6810   31.6810   43.5540 C   0  0  0  0  0  0  0  0  0  0  0  0
   58.6560   30.4670   45.4850 C   0  0  0  0  0  0  0  0  0  0  0  0
   58.3390   29.2190   44.8940 C   0  0  0  0  0  0  0  0  0  0  0  0
   58.3020   28.0530   45.6540 C   0  0  0  0  0  0  0  0  0  0  0  0
   57.8660   26.5270   44.9060 Cl  0  0  0  0  0  0  0  0  0  0  0  0
   58.5450   28.1110   47.0200 C   0  0  0  0  0  0  0  0  0  0  0  0
   58.9550   29.3050   47.6150 C   0  0  0  0  0  0  0  0  0  0  0  0
   58.8830   29.3460   49.3790 Cl  0  0  0  0  0  0  0  0  0  0  0  0
   59.1630   30.4660   46.8140 C   0  0  0  0  0  0  0  0  0  0  0  0
   64.9456   32.9434   51.1430 H   0  0  0  0  0  0  0  0  0  0  0  0
   64.9798   32.0011   49.6141 H   0  0  0  0  0  0  0  0  0  0  0  0
   65.4646   33.7307   49.6141 H   0  0  0  0  0  0  0  0  0  0  0  0
   62.6661   32.8059   50.4164 H   0  0  0  0  0  0  0  0  0  0  0  0
   63.2237   34.4676   49.9846 H   0  0  0  0  0  0  0  0  0  0  0  0
   63.4436   35.1254   47.7458 H   0  0  0  0  0  0  0  0  0  0  0  0
   64.8026   33.9472   47.6093 H   0  0  0  0  0  0  0  0  0  0  0  0
   62.4661   33.2204   45.9562 H   0  0  0  0  0  0  0  0  0  0  0  0
   63.1757   34.8107   45.5154 H   0  0  0  0  0  0  0  0  0  0  0  0
   64.2036   33.3375   45.5154 H   0  0  0  0  0  0  0  0  0  0  0  0
   63.7545   31.7535   46.9614 H   0  0  0  0  0  0  0  0  0  0  0  0
   64.0116   31.3465   48.7133 H   0  0  0  0  0  0  0  0  0  0  0  0
   61.9236   30.4522   46.9399 H   0  0  0  0  0  0  0  0  0  0  0  0
   62.2263   30.0526   48.6969 H   0  0  0  0  0  0  0  0  0  0  0  0
   60.4540   31.0590   49.1900 H   0  0  0  0  0  0  0  0  0  0  0  0
   61.0440   32.5290   48.6640 H   0  0  0  0  0  0  0  0  0  0  0  0
   60.3083   34.1120   48.2365 H   0  0  0  0  0  0  0  0  0  0  0  0
   60.0345   36.2396   46.9837 H   0  0  0  0  0  0  0  0  0  0  0  0
   59.1925   36.2071   44.6426 H   0  0  0  0  0  0  0  0  0  0  0  0
   58.4932   34.0684   43.5959 H   0  0  0  0  0  0  0  0  0  0  0  0
   56.6087   31.7108   43.7974 H   0  0  0  0  0  0  0  0  0  0  0  0
   57.9487   32.5720   42.9672 H   0  0  0  0  0  0  0  0  0  0  0  0
   57.8988   30.7765   42.9672 H   0  0  0  0  0  0  0  0  0  0  0  0
   58.1186   29.1705   43.8174 H   0  0  0  0  0  0  0  0  0  0  0  0
   58.4135   27.2100   47.6371 H   0  0  0  0  0  0  0  0  0  0  0  0
  1  2  1  0
  2  3  1  0
  3  4  1  0
  4  5  1  0
  3  6  1  0
  6  7  1  0
  7  8  1  0
  8  9  1  0
  9 10  2  0
 10 11  1  0
 11 12  2  0
 12 13  1  0
 13 14  2  0
 14 15  1  0
 15 16  2  0
 16 17  1  0
 16 18  1  0
 18 19  2  0
 19 20  1  0
 20 21  1  0
 20 22  2  0
 22 23  1  0
 23 24  1  0
 23 25  2  0
 25  9  1  0
 15 10  1  0
 25 18  1  0
  1 26  1  0
  1 27  1  0
  1 28  1  0
  2 29  1  0
  2 30  1  0
  4 31  1  0
  4 32  1  0
  5 33  1  0
  5 34  1  0
  5 35  1  0
  6 36  1  0
  6 37  1  0
  7 38  1  0
  7 39  1  0
  8 40  1  0
  8 41  1  0
 11 42  1  0
 12 43  1  0
 13 44  1  0
 14 45  1  0
 17 46  1  0
 17 47  1  0
 17 48  1  0
 19 49  1  0
 22 50  1  0
M  CHG  2   8   1  16   1
M  END
>  <UniqueID>  (10) 
10

>  <SMILES>  (10) 
CCN(CC)CC[NH2+]c1c2ccccc2[n+](C)c2cc(Cl)cc(Cl)c12

>  <Energy>  (10) 
90.85009294069171

>  <Genealogy>  (10) 
CCN(CC)CC[NH2+]c1c2ccccc2[n+](C)c2cc(Cl)cc(Cl)c12 (protonated)
CCN(CC)CC[NH2+]c1c2ccccc2[n+](C)c2cc(Cl)cc(Cl)c12 (3D coordinates assigned)
CCN(CC)CC[NH2+]c1c2ccccc2[n+](C)c2cc(Cl)cc(Cl)c12 (optimized conformer: 90.85009294069171 kcal/mol)

>  <smiles>  (10) 
CCN(CC)CCNc1c2ccccc2[n+](C)c2cc(Cl)cc(Cl)c12

>  <score_type>  (10) 
oracle

>  <origin>  (10) 
adg

>  <m_score__min__energy>  (10) 
-4.5999999999999996

>  <m_primary>  (10) 
energy

$$$$
10:0
     RDKit          3D

 63 66  0  0  0  0  0  0  0  0999 V2000
   58.4770   34.1530   52.4020 C   0  0  0  0  0  0  0  0  0  0  0  0
   59.8050   33.7630   51.7410 C   0  0  0  0  0  0  0  0  0  0  0  0
   59.7470   32.4340   51.0760 N   0  0  0  0  0  0  0  0  0  0  0  0
   58.3390   31.9950   50.8750 C   0  0  0  0  0  0  0  0  0  0  0  0
   58.1470   30.4800   51.0170 C   0  0  0  0  0  0  0  0  0  0  0  0
   60.5850   31.4410   51.8010 C   0  0  0  0  0  0  0  0  0  0  0  0
   62.0500   31.3720   51.3260 C   0  0  0  0  0  0  0  0  0  0  0  0
   62.1420   30.5770   50.1040 N   0  0  0  0  0  0  0  0  0  0  0  0
   61.4370   30.9840   48.9220 C   0  0  0  0  0  0  0  0  0  0  0  0
   60.4750   30.1680   48.4280 C   0  0  0  0  0  0  0  0  0  0  0  0
   60.3000   28.8010   48.7970 C   0  0  0  0  0  0  0  0  0  0  0  0
   59.3130   27.9770   48.1560 C   0  0  0  0  0  0  0  0  0  0  0  0
   58.4330   28.5090   47.1610 C   0  0  0  0  0  0  0  0  0  0  0  0
   57.4350   27.7810   46.4950 O   0  0  0  0  0  0  0  0  0  0  0  0
   57.6340   26.9360   45.3610 C   0  0  0  0  0  0  0  0  0  0  0  0
   58.2940   27.7020   44.2080 C   0  0  0  0  0  0  0  0  0  0  0  0
   57.4020   28.8130   43.6430 C   0  0  0  0  0  0  0  0  0  0  0  0
   56.1870   28.9640   44.4570 N   0  0  0  0  0  0  0  0  0  0  0  0
   55.2640   29.9380   43.8680 C   0  0  0  0  0  0  0  0  0  0  0  0
   58.6060   29.8540   46.8920 C   0  0  0  0  0  0  0  0  0  0  0  0
   59.5670   30.6070   47.5020 C   0  0  0  0  0  0  0  0  0  0  0  0
   59.1030   31.7530   47.0320 C   0  0  0  0  0  0  0  0  0  0  0  0
   59.4850   33.3870   47.5860 S   0  0  0  0  0  0  0  0  0  0  0  0
   61.2600   33.1150   47.3990 C   0  0  0  0  0  0  0  0  0  0  0  0
   61.9210   34.0090   46.5450 C   0  0  0  0  0  0  0  0  0  0  0  0
   63.3080   33.9880   46.4240 C   0  0  0  0  0  0  0  0  0  0  0  0
   64.0550   33.0690   47.1510 C   0  0  0  0  0  0  0  0  0  0  0  0
   63.4180   32.1480   47.9840 C   0  0  0  0  0  0  0  0  0  0  0  0
   62.0140   32.1280   48.1190 C   0  0  0  0  0  0  0  0  0  0  0  0
   58.1560   31.0310   46.1970 C   0  0  0  0  0  0  0  0  0  0  0  0
   57.2900   31.3150   45.3290 O   0  0  0  0  0  0  0  0  0  0  0  0
   58.5884   34.1203   53.4959 H   0  0  0  0  0  0  0  0  0  0  0  0
   58.1982   35.1710   52.0921 H   0  0  0  0  0  0  0  0  0  0  0  0
   57.6920   33.4474   52.0921 H   0  0  0  0  0  0  0  0  0  0  0  0
   60.0594   34.5228   50.9873 H   0  0  0  0  0  0  0  0  0  0  0  0
   60.5659   33.7050   52.5333 H   0  0  0  0  0  0  0  0  0  0  0  0
   60.1790   32.5330   50.1260 H   0  0  0  0  0  0  0  0  0  0  0  0
   57.7070   32.4980   51.6217 H   0  0  0  0  0  0  0  0  0  0  0  0
   58.0593   32.2626   49.8453 H   0  0  0  0  0  0  0  0  0  0  0  0
   58.1132   30.2131   52.0836 H   0  0  0  0  0  0  0  0  0  0  0  0
   57.2040   30.1831   50.5346 H   0  0  0  0  0  0  0  0  0  0  0  0
   58.9861   29.9573   50.5346 H   0  0  0  0  0  0  0  0  0  0  0  0
   60.5822   31.7038   52.8691 H   0  0  0  0  0  0  0  0  0  0  0  0
   60.1442   30.4535   51.5997 H   0  0  0  0  0  0  0  0  0  0  0  0
   62.4167   32.3898   51.1269 H   0  0  0  0  0  0  0  0  0  0  0  0
   62.6620   30.9016   52.1097 H   0  0  0  0  0  0  0  0  0  0  0  0
   62.6210   29.6500   50.1270 H   0  0  0  0  0  0  0  0  0  0  0  0
   60.9325   28.3699   49.5870 H   0  0  0  0  0  0  0  0  0  0  0  0
   59.2322   26.9162   48.4356 H   0  0  0  0  0  0  0  0  0  0  0  0
   58.2810   26.0945   45.6496 H   0  0  0  0  0  0  0  0  0  0  0  0
   56.6531   26.5721   45.0212 H   0  0  0  0  0  0  0  0  0  0  0  0
   59.2273   28.1537   44.5754 H   0  0  0  0  0  0  0  0  0  0  0  0
   58.4794   26.9826   43.3968 H   0  0  0  0  0  0  0  0  0  0  0  0
   57.9596   29.7612   43.6461 H   0  0  0  0  0  0  0  0  0  0  0  0
   57.1107   28.5468   42.6162 H   0  0  0  0  0  0  0  0  0  0  0  0
   56.4720   29.3380   45.3920 H   0  0  0  0  0  0  0  0  0  0  0  0
   54.7463   30.4843   44.6703 H   0  0  0  0  0  0  0  0  0  0  0  0
   55.8283   30.6482   43.2458 H   0  0  0  0  0  0  0  0  0  0  0  0
   54.5245   29.4126   43.2458 H   0  0  0  0  0  0  0  0  0  0  0  0
   61.3363   34.7365   45.9629 H   0  0  0  0  0  0  0  0  0  0  0  0
   63.8124   34.6988   45.7530 H   0  0  0  0  0  0  0  0  0  0  0  0
   65.1520   33.0674   47.0697 H   0  0  0  0  0  0  0  0  0  0  0  0
   64.0235   31.4225   48.5471 H   0  0  0  0  0  0  0  0  0  0  0  0
  1  2  1  0
  2  3  1  0
  3  4  1  0
  4  5  1  0
  3  6  1  0
  6  7  1  0
  7  8  1  0
  8  9  1  0
  9 10  2  0
 10 11  1  0
 11 12  2  0
 12 13  1  0
 13 14  1  0
 14 15  1  0
 15 16  1  0
 16 17  1  0
 17 18  1  0
 18 19  1  0
 13 20  2  0
 20 21  1  0
 21 22  2  0
 22 23  1  0
 23 24  1  0
 24 25  2  0
 25 26  1  0
 26 27  2  0
 27 28  1  0
 28 29  2  0
 22 30  1  0
 30 31  2  0
 29  9  1  0
 21 10  1  0
 29 24  1  0
 30 20  1  0
  1 32  1  0
  1 33  1  0
  1 34  1  0
  2 35  1  0
  2 36  1  0
  3 37  1  0
  4 38  1  0
  4 39  1  0
  5 40  1  0
  5 41  1  0
  5 42  1  0
  6 43  1  0
  6 44  1  0
  7 45  1  0
  7 46  1  0
  8 47  1  0
 11 48  1  0
 12 49  1  0
 15 50  1  0
 15 51  1  0
 16 52  1  0
 16 53  1  0
 17 54  1  0
 17 55  1  0
 18 56  1  0
 19 57  1  0
 19 58  1  0
 19 59  1  0
 25 60  1  0
 26 61  1  0
 27 62  1  0
 28 63  1  0
M  CHG  1   3   1
M  END
>  <UniqueID>  (11) 
11

>  <SMILES>  (11) 
CC[NH+](CC)CCNC1=c2ccc(OCCCNC)c3c2=C(Sc2ccccc21)C3=O

>  <Energy>  (11) 
112.54416535517849

>  <Genealogy>  (11) 
CC[NH+](CC)CCNC1=c2ccc(OCCCNC)c3c2=C(Sc2ccccc21)C3=O (protonated)
CC[NH+](CC)CCNC1=c2ccc(OCCCNC)c3c2=C(Sc2ccccc21)C3=O (3D coordinates assigned)
CC[NH+](CC)CCNC1=c2ccc(OCCCNC)c3c2=C(Sc2ccccc21)C3=O (nonaromatic ring conformer: 112.54416535517849 kcal/mol)

>  <smiles>  (11) 
CCN(CC)CCNC1=c2ccc(OCCCNC)c3c2=C(Sc2ccccc21)C3=O

>  <score_type>  (11) 
oracle

>  <origin>  (11) 
adg

>  <m_score__min__energy>  (11) 
-6.9400000000000004

>  <m_primary>  (11) 
energy

$$$$
11:0
     RDKit          3D

 56 59  0  0  0  0  0  0  0  0999 V2000
   65.3450   32.3940   50.0580 C   0  0  0  0  0  0  0  0  0  0  0  0
   64.2240   33.4210   49.8840 C   0  0  0  0  0  0  0  0  0  0  0  0
   63.2050   33.0410   48.8730 N   0  0  0  0  0  0  0  0  0  0  0  0
   63.7640   32.7450   47.5340 C   0  0  0  0  0  0  0  0  0  0  0  0
   63.3840   33.8590   46.5500 C   0  0  0  0  0  0  0  0  0  0  0  0
   62.0250   33.9260   48.8320 C   0  0  0  0  0  0  0  0  0  0  0  0
   61.0730   33.5870   49.9920 C   0  0  0  0  0  0  0  0  0  0  0  0
   60.2360   32.3370   49.6820 C   0  0  0  0  0  0  0  0  0  0  0  0
   60.7220   31.7180   48.4410 N   0  0  0  0  0  0  0  0  0  0  0  0
   59.8920   31.4590   47.2860 C   0  0  0  0  0  0  0  0  0  0  0  0
   59.4840   30.1530   46.9550 C   0  0  0  0  0  0  0  0  0  0  0  0
   58.5320   29.9130   45.9720 C   0  0  0  0  0  0  0  0  0  0  0  0
   58.1270   30.9020   45.1070 N   0  0  0  0  0  0  0  0  0  0  0  0
   57.4320   30.5500   43.8580 C   0  0  0  0  0  0  0  0  0  0  0  0
   58.4870   32.2120   45.3820 C   0  0  0  0  0  0  0  0  0  0  0  0
   57.9600   33.2890   44.6170 C   0  0  0  0  0  0  0  0  0  0  0  0
   58.3440   34.6040   44.8710 C   0  0  0  0  0  0  0  0  0  0  0  0
   59.2480   34.8890   45.8850 C   0  0  0  0  0  0  0  0  0  0  0  0
   59.7620   33.8640   46.6770 C   0  0  0  0  0  0  0  0  0  0  0  0
   59.3910   32.5160   46.4610 C   0  0  0  0  0  0  0  0  0  0  0  0
   58.1570   28.4790   46.0000 C   0  0  0  0  0  0  0  0  0  0  0  0
   57.0110   27.8240   45.5250 C   0  0  0  0  0  0  0  0  0  0  0  0
   56.8080   26.4840   45.8850 C   0  0  0  0  0  0  0  0  0  0  0  0
   57.7020   25.8340   46.7640 C   0  0  0  0  0  0  0  0  0  0  0  0
   58.8020   26.5260   47.2930 C   0  0  0  0  0  0  0  0  0  0  0  0
   59.0000   27.8440   46.8990 C   0  0  0  0  0  0  0  0  0  0  0  0
   59.8900   28.8380   47.4830 C   0  0  0  0  0  0  0  0  0  0  0  0
   60.8570   28.5830   48.2600 O   0  0  0  0  0  0  0  0  0  0  0  0
   65.5267   32.2276   51.1301 H   0  0  0  0  0  0  0  0  0  0  0  0
   65.0504   31.4458   49.5845 H   0  0  0  0  0  0  0  0  0  0  0  0
   66.2638   32.7703   49.5845 H   0  0  0  0  0  0  0  0  0  0  0  0
   63.7187   33.5483   50.8528 H   0  0  0  0  0  0  0  0  0  0  0  0
   64.6958   34.3479   49.5258 H   0  0  0  0  0  0  0  0  0  0  0  0
   64.8598   32.6780   47.6032 H   0  0  0  0  0  0  0  0  0  0  0  0
   63.3543   31.7896   47.1743 H   0  0  0  0  0  0  0  0  0  0  0  0
   63.0784   34.7548   47.1105 H   0  0  0  0  0  0  0  0  0  0  0  0
   64.2506   34.1004   45.9170 H   0  0  0  0  0  0  0  0  0  0  0  0
   62.5505   33.5205   45.9170 H   0  0  0  0  0  0  0  0  0  0  0  0
   62.3512   34.9726   48.9224 H   0  0  0  0  0  0  0  0  0  0  0  0
   61.4976   33.7809   47.8776 H   0  0  0  0  0  0  0  0  0  0  0  0
   61.6661   33.4046   50.9003 H   0  0  0  0  0  0  0  0  0  0  0  0
   60.3881   34.4354   50.1374 H   0  0  0  0  0  0  0  0  0  0  0  0
   60.3282   31.6192   50.5104 H   0  0  0  0  0  0  0  0  0  0  0  0
   59.1808   32.6229   49.5605 H   0  0  0  0  0  0  0  0  0  0  0  0
   61.7710   31.6870   48.3610 H   0  0  0  0  0  0  0  0  0  0  0  0
   56.4739   30.0647   44.0958 H   0  0  0  0  0  0  0  0  0  0  0  0
   57.2456   31.4624   43.2725 H   0  0  0  0  0  0  0  0  0  0  0  0
   58.0572   29.8599   43.2725 H   0  0  0  0  0  0  0  0  0  0  0  0
   57.2387   33.0807   43.8131 H   0  0  0  0  0  0  0  0  0  0  0  0
   57.9281   35.4217   44.2640 H   0  0  0  0  0  0  0  0  0  0  0  0
   59.5601   35.9285   46.0642 H   0  0  0  0  0  0  0  0  0  0  0  0
   60.4685   34.1073   47.4842 H   0  0  0  0  0  0  0  0  0  0  0  0
   56.2877   28.3498   44.8844 H   0  0  0  0  0  0  0  0  0  0  0  0
   55.9455   25.9348   45.4795 H   0  0  0  0  0  0  0  0  0  0  0  0
   57.5353   24.7810   47.0350 H   0  0  0  0  0  0  0  0  0  0  0  0
   59.4890   26.0386   48.0004 H   0  0  0  0  0  0  0  0  0  0  0  0
  1  2  1  0
  2  3  1  0
  3  4  1  0
  4  5  1  0
  3  6  1  0
  6  7  1  0
  7  8  1  0
  8  9  1  0
  9 10  1  0
 10 11  2  0
 11 12  1  0
 12 13  2  0
 13 14  1  0
 13 15  1  0
 15 16  2  0
 16 17  1  0
 17 18  2  0
 18 19  1  0
 19 20  2  0
 12 21  1  0
 21 22  2  0
 22 23  1  0
 23 24  2  0
 24 25  1  0
 25 26  2  0
 26 27  1  0
 27 28  2  0
 20 10  1  0
 26 21  1  0
 27 11  1  0
 20 15  1  0
  1 29  1  0
  1 30  1  0
  1 31  1  0
  2 32  1  0
  2 33  1  0
  4 34  1  0
  4 35  1  0
  5 36  1  0
  5 37  1  0
  5 38  1  0
  6 39  1  0
  6 40  1  0
  7 41  1  0
  7 42  1  0
  8 43  1  0
  8 44  1  0
  9 45  1  0
 14 46  1  0
 14 47  1  0
 14 48  1  0
 16 49  1  0
 17 50  1  0
 18 51  1  0
 19 52  1  0
 22 53  1  0
 23 54  1  0
 24 55  1  0
 25 56  1  0
M  CHG  1  13   1
M  END
>  <UniqueID>  (12) 
12

>  <SMILES>  (12) 
CCN(CC)CCCNc1c2c([n+](C)c3ccccc13)-c1ccccc1C2=O

>  <Energy>  (12) 
118.8068497524848

>  <Genealogy>  (12) 
CCN(CC)CCCNc1c2c([n+](C)c3ccccc13)-c1ccccc1C2=O (3D coordinates assigned)
CCN(CC)CCCNc1c2c([n+](C)c3ccccc13)-c1ccccc1C2=O (nonaromatic ring conformer: 118.8068497524848 kcal/mol)

>  <smiles>  (12) 
CCN(CC)CCCNc1c2c([n+](C)c3ccccc13)-c1ccccc1C2=O

>  <score_type>  (12) 
oracle

>  <origin>  (12) 
adg

>  <m_score__min__energy>  (12) 
-6.3099999999999996

>  <m_primary>  (12) 
energy

$$$$
12:0
     RDKit          3D

 60 63  0  0  0  0  0  0  0  0999 V2000
   59.3420   34.5820   46.4860 C   0  0  0  0  0  0  0  0  0  0  0  0
   59.3240   33.7070   47.7390 C   0  0  0  0  0  0  0  0  0  0  0  0
   60.5000   32.8100   47.7750 N   0  0  0  0  0  0  0  0  0  0  0  0
   61.7330   33.4090   47.2190 C   0  0  0  0  0  0  0  0  0  0  0  0
   62.9930   32.5830   47.4840 C   0  0  0  0  0  0  0  0  0  0  0  0
   60.6970   32.0030   49.0080 C   0  0  0  0  0  0  0  0  0  0  0  0
   59.4670   31.1830   49.4510 C   0  0  0  0  0  0  0  0  0  0  0  0
   59.3180   29.9090   48.6100 C   0  0  0  0  0  0  0  0  0  0  0  0
   59.5310   30.1880   47.1880 N   0  0  0  0  0  0  0  0  0  0  0  0
   58.8210   29.4840   46.1550 C   0  0  0  0  0  0  0  0  0  0  0  0
   58.7670   28.0760   46.1510 C   0  0  0  0  0  0  0  0  0  0  0  0
   58.1020   27.4140   45.0940 C   0  0  0  0  0  0  0  0  0  0  0  0
   57.7950   28.1270   43.9500 N   0  0  0  0  0  0  0  0  0  0  0  0
   57.7970   27.4650   42.6290 C   0  0  0  0  0  0  0  0  0  0  0  0
   57.6850   29.5010   44.0060 C   0  0  0  0  0  0  0  0  0  0  0  0
   57.1070   30.2420   42.9460 C   0  0  0  0  0  0  0  0  0  0  0  0
   57.0180   31.6320   43.0110 C   0  0  0  0  0  0  0  0  0  0  0  0
   57.4980   32.3140   44.1260 C   0  0  0  0  0  0  0  0  0  0  0  0
   58.0750   31.6100   45.1810 C   0  0  0  0  0  0  0  0  0  0  0  0
   58.1730   30.2020   45.1350 C   0  0  0  0  0  0  0  0  0  0  0  0
   57.7690   25.9530   45.2660 C   0  0  0  0  0  0  0  0  0  0  0  0
   56.8510   25.3240   44.4660 N   0  0  0  0  0  0  0  0  0  0  0  0
   56.5980   23.9900   44.5670 C   0  0  0  0  0  0  0  0  0  0  0  0
   57.2130   23.2310   45.5570 C   0  0  0  0  0  0  0  0  0  0  0  0
   58.0330   23.8670   46.4830 C   0  0  0  0  0  0  0  0  0  0  0  0
   58.3000   25.2380   46.3640 C   0  0  0  0  0  0  0  0  0  0  0  0
   58.8940   25.9600   47.5380 C   0  0  0  0  0  0  0  0  0  0  0  0
   59.5710   27.2700   47.1480 C   0  0  0  0  0  0  0  0  0  0  0  0
   59.3638   35.6420   46.7793 H   0  0  0  0  0  0  0  0  0  0  0  0
   60.2355   34.3484   45.8885 H   0  0  0  0  0  0  0  0  0  0  0  0
   58.4396   34.3854   45.8885 H   0  0  0  0  0  0  0  0  0  0  0  0
   59.3367   34.3530   48.6293 H   0  0  0  0  0  0  0  0  0  0  0  0
   58.4130   33.0907   47.7236 H   0  0  0  0  0  0  0  0  0  0  0  0
   61.6084   33.5126   46.1310 H   0  0  0  0  0  0  0  0  0  0  0  0
   61.8733   34.3781   47.7202 H   0  0  0  0  0  0  0  0  0  0  0  0
   63.1448   32.4835   48.5689 H   0  0  0  0  0  0  0  0  0  0  0  0
   62.8777   31.5846   47.0368 H   0  0  0  0  0  0  0  0  0  0  0  0
   63.8625   33.0869   47.0368 H   0  0  0  0  0  0  0  0  0  0  0  0
   61.5276   31.3041   48.8299 H   0  0  0  0  0  0  0  0  0  0  0  0
   60.8976   32.7203   49.8175 H   0  0  0  0  0  0  0  0  0  0  0  0
   59.5840   30.9034   50.5084 H   0  0  0  0  0  0  0  0  0  0  0  0
   58.5675   31.8005   49.3105 H   0  0  0  0  0  0  0  0  0  0  0  0
   60.0587   29.1683   48.9457 H   0  0  0  0  0  0  0  0  0  0  0  0
   58.2969   29.5214   48.7409 H   0  0  0  0  0  0  0  0  0  0  0  0
   60.3010   30.8400   46.9110 H   0  0  0  0  0  0  0  0  0  0  0  0
   57.8003   26.3736   42.7658 H   0  0  0  0  0  0  0  0  0  0  0  0
   56.8980   27.7616   42.0689 H   0  0  0  0  0  0  0  0  0  0  0  0
   58.6942   27.7670   42.0689 H   0  0  0  0  0  0  0  0  0  0  0  0
   56.7235   29.7141   42.0604 H   0  0  0  0  0  0  0  0  0  0  0  0
   56.5670   32.1918   42.1784 H   0  0  0  0  0  0  0  0  0  0  0  0
   57.4216   33.4103   44.1741 H   0  0  0  0  0  0  0  0  0  0  0  0
   58.4572   32.1553   46.0566 H   0  0  0  0  0  0  0  0  0  0  0  0
   56.2670   25.8580   43.7900 H   0  0  0  0  0  0  0  0  0  0  0  0
   55.9035   23.5100   43.8619 H   0  0  0  0  0  0  0  0  0  0  0  0
   57.0532   22.1438   45.6069 H   0  0  0  0  0  0  0  0  0  0  0  0
   58.4734   23.2925   47.3113 H   0  0  0  0  0  0  0  0  0  0  0  0
   58.0915   26.1801   48.2574 H   0  0  0  0  0  0  0  0  0  0  0  0
   59.6648   25.3063   47.9722 H   0  0  0  0  0  0  0  0  0  0  0  0
   59.7126   27.8753   48.0555 H   0  0  0  0  0  0  0  0  0  0  0  0
   60.5290   27.0164   46.6705 H   0  0  0  0  0  0  0  0  0  0  0  0
  1  2  1  0
  2  3  1  0
  3  4  1  0
  4  5  1  0
  3  6  1  0
  6  7  1  0
  7  8  1  0
  8  9  1  0
  9 10  1  0
 10 11  2  0
 11 12  1  0
 12 13  2  0
 13 14  1  0
 13 15  1  0
 15 16  2  0
 16 17  1  0
 17 18  2  0
 18 19  1  0
 19 20  2  0
 12 21  1  0
 21 22  2  0
 22 23  1  0
 23 24  2  0
 24 25  1  0
 25 26  2  0
 26 27  1  0
 27 28  1  0
 20 10  1  0
 26 21  1  0
 28 11  1  0
 20 15  1  0
  1 29  1  0
  1 30  1  0
  1 31  1  0
  2 32  1  0
  2 33  1  0
  4 34  1  0
  4 35  1  0
  5 36  1  0
  5 37  1  0
  5 38  1  0
  6 39  1  0
  6 40  1  0
  7 41  1  0
  7 42  1  0
  8 43  1  0
  8 44  1  0
  9 45  1  0
 14 46  1  0
 14 47  1  0
 14 48  1  0
 16 49  1  0
 17 50  1  0
 18 51  1  0
 19 52  1  0
 22 53  1  0
 23 54  1  0
 24 55  1  0
 25 56  1  0
 27 57  1  0
 27 58  1  0
 28 59  1  0
 28 60  1  0
M  CHG  2  13   1  22   1
M  END
>  <UniqueID>  (13) 
13

>  <SMILES>  (13) 
CCN(CC)CCCNc1c2c([n+](C)c3ccccc13)-c1[nH+]cccc1CC2

>  <Energy>  (13) 
102.39192857437563

>  <Genealogy>  (13) 
CCN(CC)CCCNc1c2c([n+](C)c3ccccc13)-c1[nH+]cccc1CC2 (protonated)
CCN(CC)CCCNc1c2c([n+](C)c3ccccc13)-c1[nH+]cccc1CC2 (3D coordinates assigned)
CCN(CC)CCCNc1c2c([n+](C)c3ccccc13)-c1[nH+]cccc1CC2 (nonaromatic ring conformer: 102.39192857437563 kcal/mol)

>  <smiles>  (13) 
CCN(CC)CCCNc1c2c([n+](C)c3ccccc13)-c1ncccc1CC2

>  <score_type>  (13) 
oracle

>  <origin>  (13) 
adg

>  <m_score__min__energy>  (13) 
-5.1600000000000001

>  <m_primary>  (13) 
energy

$$$$
13:0
     RDKit          3D

 72 73  0  0  0  0  0  0  0  0999 V2000
   59.1749   32.8017   47.7500 H   0  0  0  0  0  0  0  0  0  0  0  0
   59.2770   31.9030   48.3760 C   0  0  0  0  0  0  0  0  0  0  0  0
   59.3510   32.0270   49.6650 N   0  0  0  0  0  0  0  0  0  0  0  0
   59.2740   33.3180   50.3370 C   0  0  0  0  0  0  0  0  0  0  0  0
   59.0739   34.1022   49.5920 H   0  0  0  0  0  0  0  0  0  0  0  0
   58.4634   33.2839   51.0798 H   0  0  0  0  0  0  0  0  0  0  0  0
   60.5950   33.6310   51.0580 C   0  0  0  0  0  0  0  0  0  0  0  0
   60.9932   34.5772   50.6628 H   0  0  0  0  0  0  0  0  0  0  0  0
   60.3733   33.6929   52.1337 H   0  0  0  0  0  0  0  0  0  0  0  0
   61.6170   32.5820   50.8810 N   0  0  0  0  0  0  0  0  0  0  0  0
   62.4670   33.0340   50.4700 H   0  0  0  0  0  0  0  0  0  0  0  0
   61.2840   31.8590   50.2030 H   0  0  0  0  0  0  0  0  0  0  0  0
   61.9980   31.9440   52.1520 C   0  0  0  0  0  0  0  0  0  0  0  0
   62.1724   32.7232   52.9086 H   0  0  0  0  0  0  0  0  0  0  0  0
   61.1830   31.2771   52.4698 H   0  0  0  0  0  0  0  0  0  0  0  0
   63.2750   31.1130   51.9830 C   0  0  0  0  0  0  0  0  0  0  0  0
   64.1096   31.6194   52.4899 H   0  0  0  0  0  0  0  0  0  0  0  0
   63.1208   30.1176   52.4251 H   0  0  0  0  0  0  0  0  0  0  0  0
   63.5900   30.9650   50.5530 N   0  0  0  0  0  0  0  0  0  0  0  0
   62.6940   31.0540   50.0140 H   0  0  0  0  0  0  0  0  0  0  0  0
   64.5360   31.9850   50.0740 C   0  0  0  0  0  0  0  0  0  0  0  0
   64.6223   32.7841   50.8250 H   0  0  0  0  0  0  0  0  0  0  0  0
   65.5196   31.5199   49.9122 H   0  0  0  0  0  0  0  0  0  0  0  0
   64.0360   32.5790   48.7560 C   0  0  0  0  0  0  0  0  0  0  0  0
   64.0969   33.6761   48.8082 H   0  0  0  0  0  0  0  0  0  0  0  0
   64.6646   32.2004   47.9365 H   0  0  0  0  0  0  0  0  0  0  0  0
   62.6440   32.1850   48.5040 N   0  0  0  0  0  0  0  0  0  0  0  0
   62.5800   31.1460   48.6260 H   0  0  0  0  0  0  0  0  0  0  0  0
   62.2600   32.5020   47.1220 C   0  0  0  0  0  0  0  0  0  0  0  0
   62.5087   31.6506   46.4714 H   0  0  0  0  0  0  0  0  0  0  0  0
   61.1783   32.6986   47.0861 H   0  0  0  0  0  0  0  0  0  0  0  0
   63.0070   33.7400   46.6390 C   0  0  0  0  0  0  0  0  0  0  0  0
   63.3564   34.3191   47.5065 H   0  0  0  0  0  0  0  0  0  0  0  0
   63.8708   33.4331   46.0310 H   0  0  0  0  0  0  0  0  0  0  0  0
   62.3328   34.3611   46.0310 H   0  0  0  0  0  0  0  0  0  0  0  0
   59.3280   30.5670   47.7340 C   0  0  0  0  0  0  0  0  0  0  0  0
   60.2010   29.5910   48.2570 C   0  0  0  0  0  0  0  0  0  0  0  0
   60.9920   29.9140   49.3740 O   0  0  0  0  0  0  0  0  0  0  0  0
   61.1350   29.0990   50.5320 C   0  0  0  0  0  0  0  0  0  0  0  0
   61.0260   29.7202   51.4333 H   0  0  0  0  0  0  0  0  0  0  0  0
   60.3601   28.3183   50.5289 H   0  0  0  0  0  0  0  0  0  0  0  0
   62.1294   28.6287   50.5289 H   0  0  0  0  0  0  0  0  0  0  0  0
   60.2550   28.3170   47.6630 C   0  0  0  0  0  0  0  0  0  0  0  0
   60.9458   27.5598   48.0624 H   0  0  0  0  0  0  0  0  0  0  0  0
   59.4410   28.0020   46.5710 C   0  0  0  0  0  0  0  0  0  0  0  0
   59.4840   26.7150   46.0080 C   0  0  0  0  0  0  0  0  0  0  0  0
   60.1703   25.9597   46.4184 H   0  0  0  0  0  0  0  0  0  0  0  0
   58.6580   26.3920   44.9290 C   0  0  0  0  0  0  0  0  0  0  0  0
   58.6996   25.3851   44.4881 H   0  0  0  0  0  0  0  0  0  0  0  0
   57.7800   27.3440   44.4090 C   0  0  0  0  0  0  0  0  0  0  0  0
   57.1269   27.0834   43.5631 H   0  0  0  0  0  0  0  0  0  0  0  0
   57.7280   28.6260   44.9590 C   0  0  0  0  0  0  0  0  0  0  0  0
   57.0254   29.3669   44.5498 H   0  0  0  0  0  0  0  0  0  0  0  0
   58.5680   28.9790   46.0340 C   0  0  0  0  0  0  0  0  0  0  0  0
   58.5420   30.2740   46.5950 C   0  0  0  0  0  0  0  0  0  0  0  0
   57.7450   31.2760   46.0250 O   0  0  0  0  0  0  0  0  0  0  0  0
   58.1120   31.9640   44.8300 C   0  0  0  0  0  0  0  0  0  0  0  0
   57.8212   31.3578   43.9594 H   0  0  0  0  0  0  0  0  0  0  0  0
   59.2000   32.1262   44.8326 H   0  0  0  0  0  0  0  0  0  0  0  0
   57.4100   33.3200   44.7560 C   0  0  0  0  0  0  0  0  0  0  0  0
   56.3214   33.1625   44.7640 H   0  0  0  0  0  0  0  0  0  0  0  0
   57.7192   33.8249   43.8289 H   0  0  0  0  0  0  0  0  0  0  0  0
   57.7980   34.2050   45.9480 C   0  0  0  0  0  0  0  0  0  0  0  0
   57.5903   33.6550   46.8777 H   0  0  0  0  0  0  0  0  0  0  0  0
   57.2060   35.1298   45.8834 H   0  0  0  0  0  0  0  0  0  0  0  0
   59.2820   34.6000   45.9310 C   0  0  0  0  0  0  0  0  0  0  0  0
   59.4081   35.4667   45.2655 H   0  0  0  0  0  0  0  0  0  0  0  0
   59.8540   33.7296   45.5772 H   0  0  0  0  0  0  0  0  0  0  0  0
   59.8090   34.9670   47.3170 C   0  0  0  0  0  0  0  0  0  0  0  0
   59.1633   34.5173   48.0857 H   0  0  0  0  0  0  0  0  0  0  0  0
   60.8349   34.5869   47.4317 H   0  0  0  0  0  0  0  0  0  0  0  0
   59.8083   36.0610   47.4317 H   0  0  0  0  0  0  0  0  0  0  0  0
  1  2  1  0
  2  3  2  0
  3  4  1  0
  4  5  1  0
  4  6  1  0
  4  7  1  0
  7  8  1  0
  7  9  1  0
  7 10  1  0
 10 11  1  0
 10 12  1  0
 10 13  1  0
 13 14  1  0
 13 15  1  0
 13 16  1  0
 16 17  1  0
 16 18  1  0
 16 19  1  0
 19 20  1  0
 19 21  1  0
 21 22  1  0
 21 23  1  0
 21 24  1  0
 24 25  1  0
 24 26  1  0
 24 27  1  0
 27 28  1  0
 27 29  1  0
 29 30  1  0
 29 31  1  0
 29 32  1  0
 32 33  1  0
 32 34  1  0
 32 35  1  0
  2 36  1  0
 36 37  2  0
 37 38  1  0
 38 39  1  0
 39 40  1  0
 39 41  1  0
 39 42  1  0
 37 43  1  0
 43 44  1  0
 43 45  2  0
 45 46  1  0
 46 47  1  0
 46 48  2  0
 48 49  1  0
 48 50  1  0
 50 51  1  0
 50 52  2  0
 52 53  1  0
 52 54  1  0
 54 55  2  0
 55 56  1  0
 56 57  1  0
 57 58  1  0
 57 59  1  0
 57 60  1  0
 60 61  1  0
 60 62  1  0
 60 63  1  0
 63 64  1  0
 63 65  1  0
 63 66  1  0
 66 67  1  0
 66 68  1  0
 66 69  1  0
 69 70  1  0
 69 71  1  0
 69 72  1  0
 55 36  1  0
 54 45  1  0
M  CHG  1  10   1
M  END
>  <UniqueID>  (14) 
14

>  <SMILES>  (14) 
CCCCCOc1c(/C=N/CC[NH2+]CCNCCNCC)c(OC)cc2ccccc12

>  <Energy>  (14) 
56.76190492833458

>  <Genealogy>  (14) 
CCCCCOc1c(C=NCC[NH2+]CCNCCNCC)c(OC)cc2ccccc12 (protonated)
CCCCCOc1c(/C=N/CC[NH2+]CCNCCNCC)c(OC)cc2ccccc12 (cis-trans isomerization)
CCCCCOc1c(/C=N/CC[NH2+]CCNCCNCC)c(OC)cc2ccccc12 (3D coordinates assigned)
CCCCCOc1c(/C=N/CC[NH2+]CCNCCNCC)c(OC)cc2ccccc12 (optimized conformer: 56.76190492833458 kcal/mol)

>  <smiles>  (14) 
CCCCCOc1c(C=NCCNCCNCCNCC)c(OC)cc2ccccc12

>  <score_type>  (14) 
oracle

>  <origin>  (14) 
adg

>  <m_score__min__energy>  (14) 
-3.4500000000000002

>  <m_primary>  (14) 
energy

$$$$
14:0
     RDKit          3D

 56 58  0  0  0  0  0  0  0  0999 V2000
   58.1280   32.6350   44.0590 C   0  0  0  0  0  0  0  0  0  0  0  0
   57.2240   33.1150   45.1880 C   0  0  0  0  0  0  0  0  0  0  0  0
   58.0090   33.2750   46.4190 N   0  0  0  0  0  0  0  0  0  0  0  0
   58.5580   34.6330   46.5410 C   0  0  0  0  0  0  0  0  0  0  0  0
   60.0890   34.6080   46.6030 C   0  0  0  0  0  0  0  0  0  0  0  0
   60.6180   33.2490   46.4520 N   0  0  0  0  0  0  0  0  0  0  0  0
   61.4260   32.6170   47.4580 C   0  0  0  0  0  0  0  0  0  0  0  0
   60.8720   31.6010   48.2790 C   0  0  0  0  0  0  0  0  0  0  0  0
   59.4910   31.1770   48.0740 N   0  0  0  0  0  0  0  0  0  0  0  0
   59.3480   30.2650   46.9590 C   0  0  0  0  0  0  0  0  0  0  0  0
   58.0800   30.0410   46.3940 C   0  0  0  0  0  0  0  0  0  0  0  0
   57.9190   29.1340   45.3430 C   0  0  0  0  0  0  0  0  0  0  0  0
   59.0170   28.4110   44.8570 C   0  0  0  0  0  0  0  0  0  0  0  0
   58.8520   27.4670   43.7020 C   0  0  0  0  0  0  0  0  0  0  0  0
   60.2850   28.6240   45.4180 C   0  0  0  0  0  0  0  0  0  0  0  0
   60.4460   29.5300   46.4690 C   0  0  0  0  0  0  0  0  0  0  0  0
   61.6660   31.0020   49.2380 N   0  0  0  0  0  0  0  0  0  0  0  0
   61.1980   29.8040   49.9690 C   0  0  0  0  0  0  0  0  0  0  0  0
   62.8980   31.5450   49.5380 C   0  0  0  0  0  0  0  0  0  0  0  0
   63.6260   31.1490   50.6880 C   0  0  0  0  0  0  0  0  0  0  0  0
   64.8830   31.6820   50.9630 C   0  0  0  0  0  0  0  0  0  0  0  0
   65.4420   32.6250   50.1100 C   0  0  0  0  0  0  0  0  0  0  0  0
   64.7420   33.0510   48.9860 C   0  0  0  0  0  0  0  0  0  0  0  0
   63.4590   32.5300   48.6810 C   0  0  0  0  0  0  0  0  0  0  0  0
   62.7480   32.9640   47.5890 N   0  0  0  0  0  0  0  0  0  0  0  0
   63.3900   33.8220   46.5710 C   0  0  0  0  0  0  0  0  0  0  0  0
   59.0241   32.1592   44.4839 H   0  0  0  0  0  0  0  0  0  0  0  0
   57.5850   31.9064   43.4391 H   0  0  0  0  0  0  0  0  0  0  0  0
   58.4274   33.4929   43.4391 H   0  0  0  0  0  0  0  0  0  0  0  0
   56.7764   34.0812   44.9120 H   0  0  0  0  0  0  0  0  0  0  0  0
   56.4292   32.3737   45.3575 H   0  0  0  0  0  0  0  0  0  0  0  0
   57.3590   33.1180   47.2240 H   0  0  0  0  0  0  0  0  0  0  0  0
   58.2438   35.2267   45.6699 H   0  0  0  0  0  0  0  0  0  0  0  0
   58.1788   35.0798   47.4719 H   0  0  0  0  0  0  0  0  0  0  0  0
   60.4884   35.2375   45.7941 H   0  0  0  0  0  0  0  0  0  0  0  0
   60.3975   34.9874   47.5883 H   0  0  0  0  0  0  0  0  0  0  0  0
   60.2970   32.6720   45.6420 H   0  0  0  0  0  0  0  0  0  0  0  0
   59.0910   30.6930   48.9070 H   0  0  0  0  0  0  0  0  0  0  0  0
   58.8980   32.0290   47.9500 H   0  0  0  0  0  0  0  0  0  0  0  0
   57.2065   30.5848   46.7829 H   0  0  0  0  0  0  0  0  0  0  0  0
   56.9253   28.9868   44.8948 H   0  0  0  0  0  0  0  0  0  0  0  0
   58.6743   26.4502   44.0820 H   0  0  0  0  0  0  0  0  0  0  0  0
   57.9957   27.7841   43.0887 H   0  0  0  0  0  0  0  0  0  0  0  0
   59.7651   27.4748   43.0887 H   0  0  0  0  0  0  0  0  0  0  0  0
   61.1556   28.0756   45.0289 H   0  0  0  0  0  0  0  0  0  0  0  0
   61.4399   29.6711   46.9187 H   0  0  0  0  0  0  0  0  0  0  0  0
   61.2685   29.9844   51.0518 H   0  0  0  0  0  0  0  0  0  0  0  0
   60.1522   29.5952   49.6994 H   0  0  0  0  0  0  0  0  0  0  0  0
   61.8254   28.9416   49.6994 H   0  0  0  0  0  0  0  0  0  0  0  0
   63.1908   30.4082   51.3749 H   0  0  0  0  0  0  0  0  0  0  0  0
   65.4341   31.3556   51.8573 H   0  0  0  0  0  0  0  0  0  0  0  0
   66.4399   33.0356   50.3237 H   0  0  0  0  0  0  0  0  0  0  0  0
   65.1913   33.8047   48.3226 H   0  0  0  0  0  0  0  0  0  0  0  0
   63.9772   34.6068   47.0704 H   0  0  0  0  0  0  0  0  0  0  0  0
   64.0544   33.2108   45.9425 H   0  0  0  0  0  0  0  0  0  0  0  0
   62.6162   34.2870   45.9425 H   0  0  0  0  0  0  0  0  0  0  0  0
  1  2  1  0
  2  3  1  0
  3  4  1  0
  4  5  1  0
  5  6  1  0
  6  7  1  0
  7  8  2  0
  8  9  1  0
  9 10  1  0
 10 11  2  0
 11 12  1  0
 12 13  2  0
 13 14  1  0
 13 15  1  0
 15 16  2  0
  8 17  1  0
 17 18  1  0
 17 19  2  0
 19 20  1  0
 20 21  2  0
 21 22  1  0
 22 23  2  0
 23 24  1  0
 24 25  2  0
 25 26  1  0
 25  7  1  0
 16 10  1  0
 24 19  1  0
  1 27  1  0
  1 28  1  0
  1 29  1  0
  2 30  1  0
  2 31  1  0
  3 32  1  0
  4 33  1  0
  4 34  1  0
  5 35  1  0
  5 36  1  0
  6 37  1  0
  9 38  1  0
  9 39  1  0
 11 40  1  0
 12 41  1  0
 14 42  1  0
 14 43  1  0
 14 44  1  0
 15 45  1  0
 16 46  1  0
 18 47  1  0
 18 48  1  0
 18 49  1  0
 20 50  1  0
 21 51  1  0
 22 52  1  0
 23 53  1  0
 26 54  1  0
 26 55  1  0
 26 56  1  0
M  CHG  3   9   1  17   1  25   1
M  END
>  <UniqueID>  (15) 
15

>  <SMILES>  (15) 
CCNCCNc1c([NH2+]c2ccc(C)cc2)[n+](C)c2ccccc2[n+]1C

>  <Energy>  (15) 
80.72275349627922

>  <Genealogy>  (15) 
CCNCCNc1c([NH2+]c2ccc(C)cc2)[n+](C)c2ccccc2[n+]1C (protonated)
CCNCCNc1c([NH2+]c2ccc(C)cc2)[n+](C)c2ccccc2[n+]1C (3D coordinates assigned)
CCNCCNc1c([NH2+]c2ccc(C)cc2)[n+](C)c2ccccc2[n+]1C (optimized conformer: 80.72275349627922 kcal/mol)

>  <smiles>  (15) 
CCNCCNc1c(Nc2ccc(C)cc2)[n+](C)c2ccccc2[n+]1C

>  <score_type>  (15) 
oracle

>  <origin>  (15) 
adg

>  <m_score__min__energy>  (15) 
-2.75

>  <m_primary>  (15) 
energy

$$$$
15:0
     RDKit          3D

 44 45  0  0  0  0  0  0  0  0999 V2000
   63.3730   33.9340   46.3760 C   0  0  0  0  0  0  0  0  0  0  0  0
   63.7410   32.7120   47.2270 C   0  0  0  0  0  0  0  0  0  0  0  0
   63.5880   32.8910   48.6970 N   0  0  0  0  0  0  0  0  0  0  0  0
   64.8700   33.0890   49.4320 C   0  0  0  0  0  0  0  0  0  0  0  0
   65.2540   31.9660   50.4030 C   0  0  0  0  0  0  0  0  0  0  0  0
   62.4440   33.7370   49.1580 C   0  0  0  0  0  0  0  0  0  0  0  0
   61.1290   33.3380   48.6040 N   0  0  0  0  0  0  0  0  0  0  0  0
   60.0790   34.3700   48.5230 C   0  0  0  0  0  0  0  0  0  0  0  0
   59.2710   34.2890   47.2520 C   0  0  0  0  0  0  0  0  0  0  0  0
   59.6910   34.9650   46.0940 C   0  0  0  0  0  0  0  0  0  0  0  0
   58.9560   34.8590   44.9090 C   0  0  0  0  0  0  0  0  0  0  0  0
   57.8000   34.0770   44.8700 C   0  0  0  0  0  0  0  0  0  0  0  0
   57.3730   33.4020   46.0170 C   0  0  0  0  0  0  0  0  0  0  0  0
   58.1030   33.5070   47.2040 C   0  0  0  0  0  0  0  0  0  0  0  0
   60.7180   31.9630   48.7690 C   0  0  0  0  0  0  0  0  0  0  0  0
   61.4650   30.9700   48.4330 N   0  0  0  0  0  0  0  0  0  0  0  0
   60.7660   29.7180   48.7030 C   0  0  0  0  0  0  0  0  0  0  0  0
   59.3990   30.1360   49.2650 C   0  0  0  0  0  0  0  0  0  0  0  0
   59.4540   31.5830   49.2790 N   0  0  0  0  0  0  0  0  0  0  0  0
   63.1191   34.7770   47.0354 H   0  0  0  0  0  0  0  0  0  0  0  0
   64.2280   34.2096   45.7412 H   0  0  0  0  0  0  0  0  0  0  0  0
   62.5080   33.6917   45.7412 H   0  0  0  0  0  0  0  0  0  0  0  0
   63.0966   31.8759   46.9176 H   0  0  0  0  0  0  0  0  0  0  0  0
   64.8119   32.5312   47.0525 H   0  0  0  0  0  0  0  0  0  0  0  0
   63.3030   31.9290   49.0060 H   0  0  0  0  0  0  0  0  0  0  0  0
   65.6754   33.1848   48.6890 H   0  0  0  0  0  0  0  0  0  0  0  0
   64.7282   33.9877   50.0502 H   0  0  0  0  0  0  0  0  0  0  0  0
   65.1333   32.3189   51.4379 H   0  0  0  0  0  0  0  0  0  0  0  0
   64.6022   31.0962   50.2338 H   0  0  0  0  0  0  0  0  0  0  0  0
   66.3019   31.6774   50.2338 H   0  0  0  0  0  0  0  0  0  0  0  0
   62.3892   33.6743   50.2548 H   0  0  0  0  0  0  0  0  0  0  0  0
   62.6413   34.7574   48.7976 H   0  0  0  0  0  0  0  0  0  0  0  0
   59.3993   34.2467   49.3791 H   0  0  0  0  0  0  0  0  0  0  0  0
   60.5787   35.3499   48.5338 H   0  0  0  0  0  0  0  0  0  0  0  0
   60.6023   35.5805   46.1197 H   0  0  0  0  0  0  0  0  0  0  0  0
   59.2890   35.3924   44.0065 H   0  0  0  0  0  0  0  0  0  0  0  0
   57.2250   33.9921   43.9361 H   0  0  0  0  0  0  0  0  0  0  0  0
   56.4613   32.7874   45.9853 H   0  0  0  0  0  0  0  0  0  0  0  0
   57.7625   32.9756   48.1049 H   0  0  0  0  0  0  0  0  0  0  0  0
   60.6417   29.1376   47.7769 H   0  0  0  0  0  0  0  0  0  0  0  0
   61.3219   29.0786   49.4045 H   0  0  0  0  0  0  0  0  0  0  0  0
   58.5845   29.7819   48.6160 H   0  0  0  0  0  0  0  0  0  0  0  0
   59.2019   29.7100   50.2598 H   0  0  0  0  0  0  0  0  0  0  0  0
   58.6740   32.2170   49.5580 H   0  0  0  0  0  0  0  0  0  0  0  0
  1  2  1  0
  2  3  1  0
  3  4  1  0
  4  5  1  0
  3  6  1  0
  6  7  1  0
  7  8  1  0
  8  9  1  0
  9 10  2  0
 10 11  1  0
 11 12  2  0
 12 13  1  0
 13 14  2  0
  7 15  1  0
 15 16  2  0
 16 17  1  0
 17 18  1  0
 18 19  1  0
 14  9  1  0
 19 15  1  0
  1 20  1  0
  1 21  1  0
  1 22  1  0
  2 23  1  0
  2 24  1  0
  3 25  1  0
  4 26  1  0
  4 27  1  0
  5 28  1  0
  5 29  1  0
  5 30  1  0
  6 31  1  0
  6 32  1  0
  8 33  1  0
  8 34  1  0
 10 35  1  0
 11 36  1  0
 12 37  1  0
 13 38  1  0
 14 39  1  0
 17 40  1  0
 17 41  1  0
 18 42  1  0
 18 43  1  0
 19 44  1  0
M  CHG  1   3   1
M  END
>  <UniqueID>  (16) 
16

>  <SMILES>  (16) 
CC[NH+](CC)CN(Cc1ccccc1)C1=NCCN1

>  <Energy>  (16) 
73.2924985018772

>  <Genealogy>  (16) 
CC[NH+](CC)CN(Cc1ccccc1)C1=NCCN1 (protonated)
CC[NH+](CC)CN(Cc1ccccc1)C1=NCCN1 (3D coordinates assigned)
CC[NH+](CC)CN(Cc1ccccc1)C1=NCCN1 (nonaromatic ring conformer: 73.2924985018772 kcal/mol)

>  <smiles>  (16) 
CCN(CC)CN(Cc1ccccc1)C1=NCCN1

>  <score_type>  (16) 
oracle

>  <origin>  (16) 
adg

>  <m_score__min__energy>  (16) 
-4.0800000000000001

>  <m_primary>  (16) 
energy

$$$$
16:0
     RDKit          3D

 83 86  0  0  0  0  0  0  0  0999 V2000
   58.1630   33.1030   52.0120 C   0  0  0  0  0  0  0  0  0  0  0  0
   57.7480   32.0300   51.0000 C   0  0  0  0  0  0  0  0  0  0  0  0
   58.1950   30.6710   51.3950 N   0  0  0  0  0  0  0  0  0  0  0  0
   57.0970   29.9120   52.0380 C   0  0  0  0  0  0  0  0  0  0  0  0
   55.8020   30.7200   52.0200 C   0  0  0  0  0  0  0  0  0  0  0  0
   59.4370   30.6550   52.2140 C   0  0  0  0  0  0  0  0  0  0  0  0
   60.2750   29.3740   52.0680 C   0  0  0  0  0  0  0  0  0  0  0  0
   59.7020   28.5660   51.0600 O   0  0  0  0  0  0  0  0  0  0  0  0
   60.6540   28.2590   50.0560 C   0  0  0  0  0  0  0  0  0  0  0  0
   60.5220   29.2230   48.8660 C   0  0  0  0  0  0  0  0  0  0  0  0
   59.3940   30.1690   49.0180 N   0  0  0  0  0  0  0  0  0  0  0  0
   59.0820   30.8580   47.7720 C   0  0  0  0  0  0  0  0  0  0  0  0
   58.4880   30.1410   46.6840 C   0  0  0  0  0  0  0  0  0  0  0  0
   58.2200   28.7430   46.7470 C   0  0  0  0  0  0  0  0  0  0  0  0
   57.5810   28.0750   45.7080 C   0  0  0  0  0  0  0  0  0  0  0  0
   57.1840   28.7690   44.5780 C   0  0  0  0  0  0  0  0  0  0  0  0
   57.4600   30.1250   44.4620 C   0  0  0  0  0  0  0  0  0  0  0  0
   58.1440   30.8310   45.4880 C   0  0  0  0  0  0  0  0  0  0  0  0
   58.4490   32.1680   45.3430 N   0  0  0  0  0  0  0  0  0  0  0  0
   58.3870   32.7950   43.9980 C   0  0  0  0  0  0  0  0  0  0  0  0
   58.8420   32.9140   46.4330 C   0  0  0  0  0  0  0  0  0  0  0  0
   58.8120   34.3320   46.3730 C   0  0  0  0  0  0  0  0  0  0  0  0
   59.2710   35.1080   47.4240 C   0  0  0  0  0  0  0  0  0  0  0  0
   59.8010   34.5120   48.5480 C   0  0  0  0  0  0  0  0  0  0  0  0
   59.8530   33.1100   48.6680 C   0  0  0  0  0  0  0  0  0  0  0  0
   60.4930   32.5370   49.7830 O   0  0  0  0  0  0  0  0  0  0  0  0
   61.3060   33.2000   50.7570 C   0  0  0  0  0  0  0  0  0  0  0  0
   62.6830   32.5080   50.9160 C   0  0  0  0  0  0  0  0  0  0  0  0
   63.5320   32.4690   49.6740 N   0  0  0  0  0  0  0  0  0  0  0  0
   64.8500   31.9120   50.0940 C   0  0  0  0  0  0  0  0  0  0  0  0
   63.7500   33.8650   49.1400 C   0  0  0  0  0  0  0  0  0  0  0  0
   63.1780   34.1010   47.7310 C   0  0  0  0  0  0  0  0  0  0  0  0
   63.7240   33.0640   46.7470 C   0  0  0  0  0  0  0  0  0  0  0  0
   63.6140   31.6220   47.2740 C   0  0  0  0  0  0  0  0  0  0  0  0
   62.9350   31.5410   48.6560 C   0  0  0  0  0  0  0  0  0  0  0  0
   59.2710   32.2820   47.6390 C   0  0  0  0  0  0  0  0  0  0  0  0
   58.0152   32.7209   53.0329 H   0  0  0  0  0  0  0  0  0  0  0  0
   59.2235   33.3552   51.8648 H   0  0  0  0  0  0  0  0  0  0  0  0
   57.5482   34.0032   51.8648 H   0  0  0  0  0  0  0  0  0  0  0  0
   56.6512   32.0298   50.9162 H   0  0  0  0  0  0  0  0  0  0  0  0
   58.2276   32.2732   50.0404 H   0  0  0  0  0  0  0  0  0  0  0  0
   56.9422   28.9690   51.4932 H   0  0  0  0  0  0  0  0  0  0  0  0
   57.3724   29.7073   53.0831 H   0  0  0  0  0  0  0  0  0  0  0  0
   55.4806   30.9206   53.0527 H   0  0  0  0  0  0  0  0  0  0  0  0
   55.9716   31.6728   51.4972 H   0  0  0  0  0  0  0  0  0  0  0  0
   55.0207   30.1489   51.4972 H   0  0  0  0  0  0  0  0  0  0  0  0
   60.0596   31.5102   51.9123 H   0  0  0  0  0  0  0  0  0  0  0  0
   59.1210   30.7063   53.2664 H   0  0  0  0  0  0  0  0  0  0  0  0
   61.3061   29.6368   51.7892 H   0  0  0  0  0  0  0  0  0  0  0  0
   60.2893   28.8266   53.0220 H   0  0  0  0  0  0  0  0  0  0  0  0
   61.6655   28.3453   50.4796 H   0  0  0  0  0  0  0  0  0  0  0  0
   60.4739   27.2336   49.7009 H   0  0  0  0  0  0  0  0  0  0  0  0
   61.4545   29.7993   48.7752 H   0  0  0  0  0  0  0  0  0  0  0  0
   60.3283   28.6173   47.9684 H   0  0  0  0  0  0  0  0  0  0  0  0
   58.5730   29.6900   49.4440 H   0  0  0  0  0  0  0  0  0  0  0  0
   59.6030   30.8670   49.7650 H   0  0  0  0  0  0  0  0  0  0  0  0
   58.5262   28.1780   47.6398 H   0  0  0  0  0  0  0  0  0  0  0  0
   57.3909   26.9942   45.7842 H   0  0  0  0  0  0  0  0  0  0  0  0
   56.6495   28.2460   43.7713 H   0  0  0  0  0  0  0  0  0  0  0  0
   57.1425   30.6638   43.5570 H   0  0  0  0  0  0  0  0  0  0  0  0
   58.2793   33.8844   44.1059 H   0  0  0  0  0  0  0  0  0  0  0  0
   59.3117   32.5709   43.4460 H   0  0  0  0  0  0  0  0  0  0  0  0
   57.5241   32.3941   43.4460 H   0  0  0  0  0  0  0  0  0  0  0  0
   58.4158   34.8246   45.4728 H   0  0  0  0  0  0  0  0  0  0  0  0
   59.2124   36.2047   47.3615 H   0  0  0  0  0  0  0  0  0  0  0  0
   60.1890   35.1406   49.3631 H   0  0  0  0  0  0  0  0  0  0  0  0
   61.4642   34.2416   50.4407 H   0  0  0  0  0  0  0  0  0  0  0  0
   60.7859   33.1585   51.7254 H   0  0  0  0  0  0  0  0  0  0  0  0
   63.2448   33.0447   51.6947 H   0  0  0  0  0  0  0  0  0  0  0  0
   62.4682   31.4595   51.1699 H   0  0  0  0  0  0  0  0  0  0  0  0
   64.9050   31.8888   51.1924 H   0  0  0  0  0  0  0  0  0  0  0  0
   64.9590   30.8909   49.6997 H   0  0  0  0  0  0  0  0  0  0  0  0
   65.6582   32.5455   49.6997 H   0  0  0  0  0  0  0  0  0  0  0  0
   63.2716   34.5761   49.8295 H   0  0  0  0  0  0  0  0  0  0  0  0
   64.8382   34.0073   49.0659 H   0  0  0  0  0  0  0  0  0  0  0  0
   62.0815   34.0218   47.7681 H   0  0  0  0  0  0  0  0  0  0  0  0
   63.4760   35.1037   47.3908 H   0  0  0  0  0  0  0  0  0  0  0  0
   63.1565   33.1386   45.8077 H   0  0  0  0  0  0  0  0  0  0  0  0
   64.7922   33.2805   46.5983 H   0  0  0  0  0  0  0  0  0  0  0  0
   63.0251   31.0301   46.5579 H   0  0  0  0  0  0  0  0  0  0  0  0
   64.6362   31.2307   47.3838 H   0  0  0  0  0  0  0  0  0  0  0  0
   61.8712   31.7941   48.5362 H   0  0  0  0  0  0  0  0  0  0  0  0
   63.0818   30.5163   49.0281 H   0  0  0  0  0  0  0  0  0  0  0  0
  1  2  1  0
  2  3  1  0
  3  4  1  0
  4  5  1  0
  3  6  1  0
  6  7  1  0
  7  8  1  0
  8  9  1  0
  9 10  1  0
 10 11  1  0
 11 12  1  0
 12 13  2  0
 13 14  1  0
 14 15  2  0
 15 16  1  0
 16 17  2  0
 17 18  1  0
 18 19  2  0
 19 20  1  0
 19 21  1  0
 21 22  2  0
 22 23  1  0
 23 24  2  0
 24 25  1  0
 25 26  1  0
 26 27  1  0
 27 28  1  0
 28 29  1  0
 29 30  1  0
 29 31  1  0
 31 32  1  0
 32 33  1  0
 33 34  1  0
 34 35  1  0
 25 36  2  0
 36 12  1  0
 18 13  1  0
 36 21  1  0
 35 29  1  0
  1 37  1  0
  1 38  1  0
  1 39  1  0
  2 40  1  0
  2 41  1  0
  4 42  1  0
  4 43  1  0
  5 44  1  0
  5 45  1  0
  5 46  1  0
  6 47  1  0
  6 48  1  0
  7 49  1  0
  7 50  1  0
  9 51  1  0
  9 52  1  0
 10 53  1  0
 10 54  1  0
 11 55  1  0
 11 56  1  0
 14 57  1  0
 15 58  1  0
 16 59  1  0
 17 60  1  0
 20 61  1  0
 20 62  1  0
 20 63  1  0
 22 64  1  0
 23 65  1  0
 24 66  1  0
 27 67  1  0
 27 68  1  0
 28 69  1  0
 28 70  1  0
 30 71  1  0
 30 72  1  0
 30 73  1  0
 31 74  1  0
 31 75  1  0
 32 76  1  0
 32 77  1  0
 33 78  1  0
 33 79  1  0
 34 80  1  0
 34 81  1  0
 35 82  1  0
 35 83  1  0
M  CHG  3  11   1  19   1  29   1
M  END
>  <UniqueID>  (17) 
17

>  <SMILES>  (17) 
CCN(CC)CCOCC[NH2+]c1c2ccccc2[n+](C)c2cccc(OCC[N+]3(C)CCCCC3)c12

>  <Energy>  (17) 
140.83786837245847

>  <Genealogy>  (17) 
CCN(CC)CCOCC[NH2+]c1c2ccccc2[n+](C)c2cccc(OCC[N+]3(C)CCCCC3)c12 (protonated)
CCN(CC)CCOCC[NH2+]c1c2ccccc2[n+](C)c2cccc(OCC[N+]3(C)CCCCC3)c12 (3D coordinates assigned)
CCN(CC)CCOCC[NH2+]c1c2ccccc2[n+](C)c2cccc(OCC[N+]3(C)CCCCC3)c12 (nonaromatic ring conformer: 140.83786837245847 kcal/mol)

>  <smiles>  (17) 
CCN(CC)CCOCCNc1c2ccccc2[n+](C)c2cccc(OCC[N+]3(C)CCCCC3)c12

>  <score_type>  (17) 
oracle

>  <origin>  (17) 
adg

>  <m_score__min__energy>  (17) 
-3.5699999999999998

>  <m_primary>  (17) 
energy

$$$$
17:0
     RDKit          3D

 71 74  0  0  0  0  0  0  0  0999 V2000
   58.0700   32.6560   42.7700 C   0  0  0  0  0  0  0  0  0  0  0  0
   58.2290   32.2290   44.1800 N   0  0  0  0  0  0  0  0  0  0  0  0
   58.7390   33.1090   45.1160 C   0  0  0  0  0  0  0  0  0  0  0  0
   58.8520   34.5000   44.8520 C   0  0  0  0  0  0  0  0  0  0  0  0
   59.4520   35.3600   45.7710 C   0  0  0  0  0  0  0  0  0  0  0  0
   59.9540   34.8610   46.9680 C   0  0  0  0  0  0  0  0  0  0  0  0
   59.8080   33.5110   47.2800 C   0  0  0  0  0  0  0  0  0  0  0  0
   59.1560   32.6340   46.3890 C   0  0  0  0  0  0  0  0  0  0  0  0
   58.9110   31.2960   46.7400 C   0  0  0  0  0  0  0  0  0  0  0  0
   59.3520   30.7870   48.0110 N   0  0  0  0  0  0  0  0  0  0  0  0
   60.6960   30.2310   48.1620 C   0  0  0  0  0  0  0  0  0  0  0  0
   61.7130   31.3630   48.3720 C   0  0  0  0  0  0  0  0  0  0  0  0
   62.8580   31.3180   47.3450 C   0  0  0  0  0  0  0  0  0  0  0  0
   63.7590   32.5030   47.4420 N   0  0  0  0  0  0  0  0  0  0  0  0
   63.9840   32.8820   48.8490 C   0  0  0  0  0  0  0  0  0  0  0  0
   63.2050   33.6480   46.6990 C   0  0  0  0  0  0  0  0  0  0  0  0
   58.2000   30.4660   45.8550 C   0  0  0  0  0  0  0  0  0  0  0  0
   57.7830   29.1770   46.2510 C   0  0  0  0  0  0  0  0  0  0  0  0
   57.0330   28.3640   45.4010 C   0  0  0  0  0  0  0  0  0  0  0  0
   56.5680   27.1370   45.9000 O   0  0  0  0  0  0  0  0  0  0  0  0
   57.3720   26.1740   46.5780 C   0  0  0  0  0  0  0  0  0  0  0  0
   58.1650   25.3680   45.5260 C   0  0  0  0  0  0  0  0  0  0  0  0
   57.3630   24.5090   44.5930 N   0  0  0  0  0  0  0  0  0  0  0  0
   57.3890   25.1990   43.2700 C   0  0  0  0  0  0  0  0  0  0  0  0
   55.9500   24.3980   45.0530 C   0  0  0  0  0  0  0  0  0  0  0  0
   55.1010   23.4910   44.1240 C   0  0  0  0  0  0  0  0  0  0  0  0
   55.8710   22.5560   43.3810 O   0  0  0  0  0  0  0  0  0  0  0  0
   56.9260   22.0480   44.1640 C   0  0  0  0  0  0  0  0  0  0  0  0
   57.9750   23.1460   44.4390 C   0  0  0  0  0  0  0  0  0  0  0  0
   56.7400   28.8160   44.1080 C   0  0  0  0  0  0  0  0  0  0  0  0
   57.1310   30.0920   43.7010 C   0  0  0  0  0  0  0  0  0  0  0  0
   57.8630   30.9500   44.5610 C   0  0  0  0  0  0  0  0  0  0  0  0
   57.6863   33.6865   42.7400 H   0  0  0  0  0  0  0  0  0  0  0  0
   59.0445   32.6127   42.2616 H   0  0  0  0  0  0  0  0  0  0  0  0
   57.3612   31.9858   42.2616 H   0  0  0  0  0  0  0  0  0  0  0  0
   58.4599   34.9053   43.9075 H   0  0  0  0  0  0  0  0  0  0  0  0
   59.5284   36.4346   45.5489 H   0  0  0  0  0  0  0  0  0  0  0  0
   60.4677   35.5339   47.6704 H   0  0  0  0  0  0  0  0  0  0  0  0
   60.2052   33.1256   48.2306 H   0  0  0  0  0  0  0  0  0  0  0  0
   58.8970   31.1740   48.8670 H   0  0  0  0  0  0  0  0  0  0  0  0
   60.7159   29.5576   49.0316 H   0  0  0  0  0  0  0  0  0  0  0  0
   60.9600   29.6730   47.2515 H   0  0  0  0  0  0  0  0  0  0  0  0
   61.1926   32.3277   48.2794 H   0  0  0  0  0  0  0  0  0  0  0  0
   62.1533   31.2382   49.3723 H   0  0  0  0  0  0  0  0  0  0  0  0
   63.4517   30.4083   47.5181 H   0  0  0  0  0  0  0  0  0  0  0  0
   62.4074   31.3219   46.3415 H   0  0  0  0  0  0  0  0  0  0  0  0
   64.6980   32.2950   47.0340 H   0  0  0  0  0  0  0  0  0  0  0  0
   63.5347   32.1253   49.5089 H   0  0  0  0  0  0  0  0  0  0  0  0
   65.0649   32.9433   49.0439 H   0  0  0  0  0  0  0  0  0  0  0  0
   63.5203   33.8602   49.0439 H   0  0  0  0  0  0  0  0  0  0  0  0
   62.8393   34.4039   47.4096 H   0  0  0  0  0  0  0  0  0  0  0  0
   63.9895   34.0887   46.0663 H   0  0  0  0  0  0  0  0  0  0  0  0
   62.3725   33.3064   46.0663 H   0  0  0  0  0  0  0  0  0  0  0  0
   58.0550   28.8060   47.2502 H   0  0  0  0  0  0  0  0  0  0  0  0
   58.0702   26.6857   47.2567 H   0  0  0  0  0  0  0  0  0  0  0  0
   56.7340   25.4987   47.1671 H   0  0  0  0  0  0  0  0  0  0  0  0
   58.7326   26.0850   44.9146 H   0  0  0  0  0  0  0  0  0  0  0  0
   58.7850   24.6673   46.1045 H   0  0  0  0  0  0  0  0  0  0  0  0
   57.4300   26.2873   43.4248 H   0  0  0  0  0  0  0  0  0  0  0  0
   58.2756   24.8753   42.7050 H   0  0  0  0  0  0  0  0  0  0  0  0
   56.4806   24.9430   42.7050 H   0  0  0  0  0  0  0  0  0  0  0  0
   55.9401   23.9737   46.0678 H   0  0  0  0  0  0  0  0  0  0  0  0
   55.5091   25.4057   45.0361 H   0  0  0  0  0  0  0  0  0  0  0  0
   54.3823   22.9348   44.7437 H   0  0  0  0  0  0  0  0  0  0  0  0
   54.6050   24.1501   43.3963 H   0  0  0  0  0  0  0  0  0  0  0  0
   56.5235   21.6846   45.1210 H   0  0  0  0  0  0  0  0  0  0  0  0
   57.4090   21.2246   43.6174 H   0  0  0  0  0  0  0  0  0  0  0  0
   58.5121   22.8950   45.3656 H   0  0  0  0  0  0  0  0  0  0  0  0
   58.6518   23.1824   43.5726 H   0  0  0  0  0  0  0  0  0  0  0  0
   56.1985   28.1612   43.4094 H   0  0  0  0  0  0  0  0  0  0  0  0
   56.8659   30.4399   42.6917 H   0  0  0  0  0  0  0  0  0  0  0  0
  1  2  1  0
  2  3  2  0
  3  4  1  0
  4  5  2  0
  5  6  1  0
  6  7  2  0
  7  8  1  0
  8  9  2  0
  9 10  1  0
 10 11  1  0
 11 12  1  0
 12 13  1  0
 13 14  1  0
 14 15  1  0
 14 16  1  0
  9 17  1  0
 17 18  2  0
 18 19  1  0
 19 20  1  0
 20 21  1  0
 21 22  1  0
 22 23  1  0
 23 24  1  0
 23 25  1  0
 25 26  1  0
 26 27  1  0
 27 28  1  0
 28 29  1  0
 19 30  2  0
 30 31  1  0
 31 32  2  0
 32  2  1  0
  8  3  1  0
 32 17  1  0
 29 23  1  0
  1 33  1  0
  1 34  1  0
  1 35  1  0
  4 36  1  0
  5 37  1  0
  6 38  1  0
  7 39  1  0
 10 40  1  0
 11 41  1  0
 11 42  1  0
 12 43  1  0
 12 44  1  0
 13 45  1  0
 13 46  1  0
 14 47  1  0
 15 48  1  0
 15 49  1  0
 15 50  1  0
 16 51  1  0
 16 52  1  0
 16 53  1  0
 18 54  1  0
 21 55  1  0
 21 56  1  0
 22 57  1  0
 22 58  1  0
 24 59  1  0
 24 60  1  0
 24 61  1  0
 25 62  1  0
 25 63  1  0
 26 64  1  0
 26 65  1  0
 28 66  1  0
 28 67  1  0
 29 68  1  0
 29 69  1  0
 30 70  1  0
 31 71  1  0
M  CHG  3   2   1  14   1  23   1
M  END
>  <UniqueID>  (18) 
18

>  <SMILES>  (18) 
C[n+]1c2ccccc2c(NCCC[NH+](C)C)c2cc(OCC[N+]3(C)CCOCC3)ccc21

>  <Energy>  (18) 
122.10469918298662

>  <Genealogy>  (18) 
C[n+]1c2ccccc2c(NCCC[NH+](C)C)c2cc(OCC[N+]3(C)CCOCC3)ccc21 (protonated)
C[n+]1c2ccccc2c(NCCC[NH+](C)C)c2cc(OCC[N+]3(C)CCOCC3)ccc21 (3D coordinates assigned)
C[n+]1c2ccccc2c(NCCC[NH+](C)C)c2cc(OCC[N+]3(C)CCOCC3)ccc21 (nonaromatic ring conformer: 122.10469918298662 kcal/mol)

>  <smiles>  (18) 
CN(C)CCCNc1c2ccccc2[n+](C)c2ccc(OCC[N+]3(C)CCOCC3)cc12

>  <score_type>  (18) 
oracle

>  <origin>  (18) 
adg

>  <m_score__min__energy>  (18) 
-4.8300000000000001

>  <m_primary>  (18) 
energy

$$$$
18:0
     RDKit          3D

 50 52  0  0  0  0  0  0  0  0999 V2000
   60.9320   28.9650   44.8820 C   0  0  0  0  0  0  0  0  0  0  0  0
   59.6580   28.4830   45.5900 C   0  0  0  0  0  0  0  0  0  0  0  0
   59.3740   29.1720   46.8720 N   0  0  0  0  0  0  0  0  0  0  0  0
   58.9850   28.2360   47.9500 C   0  0  0  0  0  0  0  0  0  0  0  0
   59.7970   26.9480   47.8440 C   0  0  0  0  0  0  0  0  0  0  0  0
   60.4400   30.1080   47.3020 C   0  0  0  0  0  0  0  0  0  0  0  0
   59.8660   31.3140   48.0610 C   0  0  0  0  0  0  0  0  0  0  0  0
   58.4890   31.6070   47.6370 N   0  0  0  0  0  0  0  0  0  0  0  0
   58.5000   32.3720   46.4150 C   0  0  0  0  0  0  0  0  0  0  0  0
   59.0540   33.6600   46.3030 C   0  0  0  0  0  0  0  0  0  0  0  0
   59.6420   34.4940   47.4060 C   0  0  0  0  0  0  0  0  0  0  0  0
   61.0940   34.1540   47.6160 C   0  0  0  0  0  0  0  0  0  0  0  0
   61.9140   33.8120   46.5260 C   0  0  0  0  0  0  0  0  0  0  0  0
   63.2560   33.4770   46.7310 C   0  0  0  0  0  0  0  0  0  0  0  0
   63.7910   33.4880   48.0220 C   0  0  0  0  0  0  0  0  0  0  0  0
   62.9860   33.8370   49.1100 C   0  0  0  0  0  0  0  0  0  0  0  0
   61.6430   34.1680   48.9100 C   0  0  0  0  0  0  0  0  0  0  0  0
   58.9120   34.1860   44.7010 S   0  0  0  0  0  0  0  0  0  0  0  0
   58.1800   32.7870   44.1390 C   0  0  0  0  0  0  0  0  0  0  0  0
   57.7740   32.4940   42.8430 C   0  0  0  0  0  0  0  0  0  0  0  0
   57.2000   31.2370   42.6130 C   0  0  0  0  0  0  0  0  0  0  0  0
   57.0570   30.3460   43.6400 N   0  0  0  0  0  0  0  0  0  0  0  0
   57.4540   30.6360   44.9130 C   0  0  0  0  0  0  0  0  0  0  0  0
   58.0270   31.8860   45.1800 C   0  0  0  0  0  0  0  0  0  0  0  0
   61.6836   29.2494   45.6331 H   0  0  0  0  0  0  0  0  0  0  0  0
   61.3304   28.1555   44.2528 H   0  0  0  0  0  0  0  0  0  0  0  0
   60.6948   29.8355   44.2528 H   0  0  0  0  0  0  0  0  0  0  0  0
   58.8055   28.6472   44.9145 H   0  0  0  0  0  0  0  0  0  0  0  0
   59.8144   27.4212   45.8311 H   0  0  0  0  0  0  0  0  0  0  0  0
   59.1744   28.7063   48.9262 H   0  0  0  0  0  0  0  0  0  0  0  0
   57.9159   27.9970   47.8511 H   0  0  0  0  0  0  0  0  0  0  0  0
   60.0305   26.5777   48.8531 H   0  0  0  0  0  0  0  0  0  0  0  0
   59.2131   26.1901   47.3012 H   0  0  0  0  0  0  0  0  0  0  0  0
   60.7326   27.1480   47.3012 H   0  0  0  0  0  0  0  0  0  0  0  0
   61.1399   29.5727   47.9605 H   0  0  0  0  0  0  0  0  0  0  0  0
   60.9516   30.4812   46.4025 H   0  0  0  0  0  0  0  0  0  0  0  0
   59.8697   31.0937   49.1387 H   0  0  0  0  0  0  0  0  0  0  0  0
   60.4910   32.1920   47.8406 H   0  0  0  0  0  0  0  0  0  0  0  0
   57.9910   32.1400   48.3850 H   0  0  0  0  0  0  0  0  0  0  0  0
   57.9590   30.7180   47.4870 H   0  0  0  0  0  0  0  0  0  0  0  0
   59.5554   35.5577   47.1395 H   0  0  0  0  0  0  0  0  0  0  0  0
   59.0928   34.2870   48.3363 H   0  0  0  0  0  0  0  0  0  0  0  0
   61.4979   33.8080   45.5077 H   0  0  0  0  0  0  0  0  0  0  0  0
   63.8912   33.2045   45.8753 H   0  0  0  0  0  0  0  0  0  0  0  0
   64.8463   33.2218   48.1820 H   0  0  0  0  0  0  0  0  0  0  0  0
   63.4100   33.8512   50.1249 H   0  0  0  0  0  0  0  0  0  0  0  0
   61.0126   34.4408   49.7692 H   0  0  0  0  0  0  0  0  0  0  0  0
   57.8986   33.2220   42.0278 H   0  0  0  0  0  0  0  0  0  0  0  0
   56.8629   30.9657   41.6017 H   0  0  0  0  0  0  0  0  0  0  0  0
   57.3258   29.8981   45.7186 H   0  0  0  0  0  0  0  0  0  0  0  0
  1  2  1  0
  2  3  1  0
  3  4  1  0
  4  5  1  0
  3  6  1  0
  6  7  1  0
  7  8  1  0
  8  9  1  0
  9 10  2  0
 10 11  1  0
 11 12  1  0
 12 13  2  0
 13 14  1  0
 14 15  2  0
 15 16  1  0
 16 17  2  0
 10 18  1  0
 18 19  1  0
 19 20  2  0
 20 21  1  0
 21 22  2  0
 22 23  1  0
 23 24  2  0
 24  9  1  0
 17 12  1  0
 24 19  1  0
  1 25  1  0
  1 26  1  0
  1 27  1  0
  2 28  1  0
  2 29  1  0
  4 30  1  0
  4 31  1  0
  5 32  1  0
  5 33  1  0
  5 34  1  0
  6 35  1  0
  6 36  1  0
  7 37  1  0
  7 38  1  0
  8 39  1  0
  8 40  1  0
 11 41  1  0
 11 42  1  0
 13 43  1  0
 14 44  1  0
 15 45  1  0
 16 46  1  0
 17 47  1  0
 20 48  1  0
 21 49  1  0
 23 50  1  0
M  CHG  1   8   1
M  END
>  <UniqueID>  (19) 
19

>  <SMILES>  (19) 
CCN(CC)CC[NH2+]c1c(Cc2ccccc2)sc2ccncc12

>  <Energy>  (19) 
81.76294972359679

>  <Genealogy>  (19) 
CCN(CC)CC[NH2+]c1c(Cc2ccccc2)sc2ccncc12 (protonated)
CCN(CC)CC[NH2+]c1c(Cc2ccccc2)sc2ccncc12 (3D coordinates assigned)
CCN(CC)CC[NH2+]c1c(Cc2ccccc2)sc2ccncc12 (optimized conformer: 81.76294972359679 kcal/mol)

>  <smiles>  (19) 
CCN(CC)CCNc1c(Cc2ccccc2)sc2ccncc12

>  <score_type>  (19) 
oracle

>  <origin>  (19) 
adg

>  <m_score__min__energy>  (19) 
-5.3799999999999999

>  <m_primary>  (19) 
energy

$$$$
19:0
     RDKit          3D

 67 70  0  0  0  0  0  0  0  0999 V2000
   57.9800   26.2070   46.8000 C   0  0  0  0  0  0  0  0  0  0  0  0
   59.2140   25.8040   46.0060 C   0  0  0  0  0  0  0  0  0  0  0  0
   60.3250   26.7180   46.2980 N   0  0  0  0  0  0  0  0  0  0  0  0
   60.3200   27.1750   47.6970 C   0  0  0  0  0  0  0  0  0  0  0  0
   60.3790   28.7170   47.8310 C   0  0  0  0  0  0  0  0  0  0  0  0
   60.6170   29.3790   46.5290 N   0  0  0  0  0  0  0  0  0  0  0  0
   59.5970   30.3760   46.2640 C   0  0  0  0  0  0  0  0  0  0  0  0
   58.6380   30.2020   45.2250 C   0  0  0  0  0  0  0  0  0  0  0  0
   58.3340   28.9200   44.7210 C   0  0  0  0  0  0  0  0  0  0  0  0
   57.3860   28.7540   43.7140 C   0  0  0  0  0  0  0  0  0  0  0  0
   56.7110   29.8550   43.1980 C   0  0  0  0  0  0  0  0  0  0  0  0
   56.9820   31.1330   43.6800 C   0  0  0  0  0  0  0  0  0  0  0  0
   57.9530   31.3450   44.6890 C   0  0  0  0  0  0  0  0  0  0  0  0
   58.2360   32.6160   45.1610 N   0  0  0  0  0  0  0  0  0  0  0  0
   57.6780   33.8210   44.5210 C   0  0  0  0  0  0  0  0  0  0  0  0
   59.0150   32.7310   46.2800 C   0  0  0  0  0  0  0  0  0  0  0  0
   59.2220   33.8660   46.9910 N   0  0  0  0  0  0  0  0  0  0  0  0
   59.9520   33.4890   48.0550 C   0  0  0  0  0  0  0  0  0  0  0  0
   60.3190   34.3000   49.1260 C   0  0  0  0  0  0  0  0  0  0  0  0
   60.9300   33.6980   50.2350 C   0  0  0  0  0  0  0  0  0  0  0  0
   61.1190   32.3020   50.2870 C   0  0  0  0  0  0  0  0  0  0  0  0
   61.6360   31.7580   51.4770 O   0  0  0  0  0  0  0  0  0  0  0  0
   63.0070   31.7880   51.8750 C   0  0  0  0  0  0  0  0  0  0  0  0
   63.9230   31.5340   50.6600 C   0  0  0  0  0  0  0  0  0  0  0  0
   64.6090   32.7450   50.1150 N   0  0  0  0  0  0  0  0  0  0  0  0
   64.1470   33.0530   48.7390 C   0  0  0  0  0  0  0  0  0  0  0  0
   64.2680   33.8970   50.9840 C   0  0  0  0  0  0  0  0  0  0  0  0
   66.0810   32.5760   50.1190 C   0  0  0  0  0  0  0  0  0  0  0  0
   60.7540   31.5030   49.1740 C   0  0  0  0  0  0  0  0  0  0  0  0
   60.2140   32.1350   48.0420 C   0  0  0  0  0  0  0  0  0  0  0  0
   59.6440   31.6470   46.8650 C   0  0  0  0  0  0  0  0  0  0  0  0
   58.1971   26.1361   47.8760 H   0  0  0  0  0  0  0  0  0  0  0  0
   57.7043   27.2419   46.5490 H   0  0  0  0  0  0  0  0  0  0  0  0
   57.1466   25.5343   46.5490 H   0  0  0  0  0  0  0  0  0  0  0  0
   59.5045   24.7793   46.2810 H   0  0  0  0  0  0  0  0  0  0  0  0
   58.9817   25.8528   44.9319 H   0  0  0  0  0  0  0  0  0  0  0  0
   61.2300   26.2300   46.0990 H   0  0  0  0  0  0  0  0  0  0  0  0
   59.3988   26.8164   48.1795 H   0  0  0  0  0  0  0  0  0  0  0  0
   61.2214   26.7685   48.1788 H   0  0  0  0  0  0  0  0  0  0  0  0
   59.4231   29.0744   48.2414 H   0  0  0  0  0  0  0  0  0  0  0  0
   61.2174   28.9678   48.4974 H   0  0  0  0  0  0  0  0  0  0  0  0
   61.5680   29.8120   46.5030 H   0  0  0  0  0  0  0  0  0  0  0  0
   60.6010   28.6450   45.7990 H   0  0  0  0  0  0  0  0  0  0  0  0
   58.8525   28.0397   45.1287 H   0  0  0  0  0  0  0  0  0  0  0  0
   57.1704   27.7478   43.3253 H   0  0  0  0  0  0  0  0  0  0  0  0
   55.9602   29.7158   42.4062 H   0  0  0  0  0  0  0  0  0  0  0  0
   56.4323   31.9930   43.2699 H   0  0  0  0  0  0  0  0  0  0  0  0
   57.3500   34.5293   45.2961 H   0  0  0  0  0  0  0  0  0  0  0  0
   58.4488   34.2938   43.8947 H   0  0  0  0  0  0  0  0  0  0  0  0
   56.8188   33.5390   43.8947 H   0  0  0  0  0  0  0  0  0  0  0  0
   58.8320   34.8210   46.8290 H   0  0  0  0  0  0  0  0  0  0  0  0
   60.1344   35.3841   49.1025 H   0  0  0  0  0  0  0  0  0  0  0  0
   61.2662   34.3231   51.0754 H   0  0  0  0  0  0  0  0  0  0  0  0
   63.2387   32.7739   52.3043 H   0  0  0  0  0  0  0  0  0  0  0  0
   63.1795   31.0009   52.6238 H   0  0  0  0  0  0  0  0  0  0  0  0
   64.6961   30.8121   50.9619 H   0  0  0  0  0  0  0  0  0  0  0  0
   63.2682   31.1668   49.8560 H   0  0  0  0  0  0  0  0  0  0  0  0
   63.2326   33.6626   48.7871 H   0  0  0  0  0  0  0  0  0  0  0  0
   64.9311   33.6097   48.2049 H   0  0  0  0  0  0  0  0  0  0  0  0
   63.9347   32.1151   48.2049 H   0  0  0  0  0  0  0  0  0  0  0  0
   64.3562   33.5991   52.0392 H   0  0  0  0  0  0  0  0  0  0  0  0
   64.9586   34.7282   50.7787 H   0  0  0  0  0  0  0  0  0  0  0  0
   63.2362   34.2184   50.7787 H   0  0  0  0  0  0  0  0  0  0  0  0
   66.4425   32.5345   51.1571 H   0  0  0  0  0  0  0  0  0  0  0  0
   66.3442   31.6417   49.6014 H   0  0  0  0  0  0  0  0  0  0  0  0
   66.5491   33.4263   49.6014 H   0  0  0  0  0  0  0  0  0  0  0  0
   60.8908   30.4118   49.1967 H   0  0  0  0  0  0  0  0  0  0  0  0
  1  2  1  0
  2  3  1  0
  3  4  1  0
  4  5  1  0
  5  6  1  0
  6  7  1  0
  7  8  2  0
  8  9  1  0
  9 10  2  0
 10 11  1  0
 11 12  2  0
 12 13  1  0
 13 14  2  0
 14 15  1  0
 14 16  1  0
 16 17  1  0
 17 18  1  0
 18 19  2  0
 19 20  1  0
 20 21  2  0
 21 22  1  0
 22 23  1  0
 23 24  1  0
 24 25  1  0
 25 26  1  0
 25 27  1  0
 25 28  1  0
 21 29  1  0
 29 30  2  0
 30 31  1  0
 31  7  1  0
 13  8  1  0
 31 16  2  0
 30 18  1  0
  1 32  1  0
  1 33  1  0
  1 34  1  0
  2 35  1  0
  2 36  1  0
  3 37  1  0
  4 38  1  0
  4 39  1  0
  5 40  1  0
  5 41  1  0
  6 42  1  0
  6 43  1  0
  9 44  1  0
 10 45  1  0
 11 46  1  0
 12 47  1  0
 15 48  1  0
 15 49  1  0
 15 50  1  0
 17 51  1  0
 19 52  1  0
 20 53  1  0
 23 54  1  0
 23 55  1  0
 24 56  1  0
 24 57  1  0
 26 58  1  0
 26 59  1  0
 26 60  1  0
 27 61  1  0
 27 62  1  0
 27 63  1  0
 28 64  1  0
 28 65  1  0
 28 66  1  0
 29 67  1  0
M  CHG  3   6   1  14   1  25   1
M  END
>  <UniqueID>  (20) 
20

>  <SMILES>  (20) 
CCNCC[NH2+]c1c2ccccc2[n+](C)c2[nH]c3ccc(OCC[N+](C)(C)C)cc3c12

>  <Energy>  (20) 
134.6534932597826

>  <Genealogy>  (20) 
CCNCC[NH2+]c1c2ccccc2[n+](C)c2[nH]c3ccc(OCC[N+](C)(C)C)cc3c12 (protonated)
CCNCC[NH2+]c1c2ccccc2[n+](C)c2[nH]c3ccc(OCC[N+](C)(C)C)cc3c12 (3D coordinates assigned)
CCNCC[NH2+]c1c2ccccc2[n+](C)c2[nH]c3ccc(OCC[N+](C)(C)C)cc3c12 (optimized conformer: 134.6534932597826 kcal/mol)

>  <smiles>  (20) 
CCNCCNc1c2ccccc2[n+](C)c2[nH]c3ccc(OCC[N+](C)(C)C)cc3c12

>  <score_type>  (20) 
oracle

>  <origin>  (20) 
adg

>  <m_score__min__energy>  (20) 
-3.2200000000000002

>  <m_primary>  (20) 
energy

$$$$
20:0
     RDKit          3D

 32 33  0  0  0  0  0  0  0  0999 V2000
   59.2700   35.0110   45.1480 C   0  0  0  0  0  0  0  0  0  0  0  0
   57.9980   34.2010   44.8890 C   0  0  2  0  0  0  0  0  0  0  0  0
   57.4610   33.7080   46.1680 C   0  0  0  0  0  0  0  0  0  0  0  0
   57.0410   33.3250   47.1760 N   0  0  0  0  0  0  0  0  0  0  0  0
   58.2800   33.0390   43.9190 C   0  0  0  0  0  0  0  0  0  0  0  0
   57.3060   31.9580   44.0930 N   0  0  0  0  0  0  0  0  0  0  0  0
   57.5850   30.6470   44.6280 C   0  0  0  0  0  0  0  0  0  0  0  0
   58.9120   30.3040   44.9200 C   0  0  0  0  0  0  0  0  0  0  0  0
   59.2350   29.0490   45.4400 C   0  0  0  0  0  0  0  0  0  0  0  0
   58.2290   28.0940   45.6860 C   0  0  0  0  0  0  0  0  0  0  0  0
   58.5040   26.8010   46.2110 C   0  0  0  0  0  0  0  0  0  0  0  0
   59.9170   26.3570   46.5500 C   0  0  0  0  0  0  0  0  0  0  0  0
   60.1850   26.6310   47.8800 F   0  0  0  0  0  0  0  0  0  0  0  0
   60.8220   27.0300   45.7500 F   0  0  0  0  0  0  0  0  0  0  0  0
   60.0930   24.9990   46.3490 F   0  0  0  0  0  0  0  0  0  0  0  0
   57.4290   25.9170   46.4190 C   0  0  0  0  0  0  0  0  0  0  0  0
   56.1260   26.3090   46.1130 C   0  0  0  0  0  0  0  0  0  0  0  0
   55.1670   25.5150   46.3010 O   0  0  0  0  0  0  0  0  0  0  0  0
   55.8870   27.5460   45.6130 N   0  0  0  0  0  0  0  0  0  0  0  0
   56.8860   28.4390   45.3930 C   0  0  0  0  0  0  0  0  0  0  0  0
   56.5720   29.7000   44.8740 C   0  0  0  0  0  0  0  0  0  0  0  0
   59.4267   35.1108   46.2322 H   0  0  0  0  0  0  0  0  0  0  0  0
   60.1313   34.4947   44.6990 H   0  0  0  0  0  0  0  0  0  0  0  0
   59.1664   36.0098   44.6990 H   0  0  0  0  0  0  0  0  0  0  0  0
   57.2457   34.8497   44.4165 H   0  0  0  0  0  0  0  0  0  0  0  0
   58.2223   33.4116   42.8856 H   0  0  0  0  0  0  0  0  0  0  0  0
   59.2837   32.6423   44.1316 H   0  0  0  0  0  0  0  0  0  0  0  0
   56.3150   32.1890   43.8510 H   0  0  0  0  0  0  0  0  0  0  0  0
   59.7126   31.0357   44.7365 H   0  0  0  0  0  0  0  0  0  0  0  0
   60.2846   28.8038   45.6596 H   0  0  0  0  0  0  0  0  0  0  0  0
   57.6173   24.9121   46.8248 H   0  0  0  0  0  0  0  0  0  0  0  0
   55.5241   29.9540   44.6561 H   0  0  0  0  0  0  0  0  0  0  0  0
  1  2  1  0
  2  3  1  0
  3  4  3  0
  2  5  1  0
  5  6  1  0
  6  7  1  0
  7  8  2  0
  8  9  1  0
  9 10  2  0
 10 11  1  0
 11 12  1  0
 12 13  1  0
 12 14  1  0
 12 15  1  0
 11 16  2  0
 16 17  1  0
 17 18  2  0
 17 19  1  0
 19 20  1  0
 20 21  2  0
 21  7  1  0
 20 10  1  0
  1 22  1  0
  1 23  1  0
  1 24  1  0
  2 25  1  6
  5 26  1  0
  5 27  1  0
  6 28  1  0
  8 29  1  0
  9 30  1  0
 16 31  1  0
 21 32  1  0
M  CHG  1  19  -1
M  END
>  <UniqueID>  (21) 
21

>  <SMILES>  (21) 
C[C@H](C#N)CNc1ccc2c(C(F)(F)F)cc(=O)[n-]c2c1

>  <Energy>  (21) 
35.9577594275465

>  <Genealogy>  (21) 
CC(C#N)CNc1ccc2c(C(F)(F)F)cc(=O)[n-]c2c1 (protonated)
C[C@H](C#N)CNc1ccc2c(C(F)(F)F)cc(=O)[n-]c2c1 (chirality)
C[C@H](C#N)CNc1ccc2c(C(F)(F)F)cc(=O)[n-]c2c1 (3D coordinates assigned)
C[C@H](C#N)CNc1ccc2c(C(F)(F)F)cc(=O)[n-]c2c1 (optimized conformer: 35.9577594275465 kcal/mol)

>  <smiles>  (21) 
CC(C#N)CNc1ccc2c(C(F)(F)F)cc(=O)[nH]c2c1

>  <score_type>  (21) 
oracle

>  <origin>  (21) 
adg

>  <m_score__min__energy>  (21) 
-8.6600000000000001

>  <m_primary>  (21) 
energy

$$$$
21:0
     RDKit          3D

 54 57  0  0  0  0  0  0  0  0999 V2000
   57.7720   32.2670   43.4310 C   0  0  0  0  0  0  0  0  0  0  0  0
   58.4260   33.4600   44.1250 C   0  0  0  0  0  0  0  0  0  0  0  0
   57.5610   34.0360   45.2580 C   0  0  0  0  0  0  0  0  0  0  0  0
   57.5180   33.1560   46.5200 C   0  0  0  0  0  0  0  0  0  0  0  0
   58.8720   32.7840   46.9700 N   0  0  0  0  0  0  0  0  0  0  0  0
   59.6680   33.6490   47.6960 C   0  0  0  0  0  0  0  0  0  0  0  0
   59.2330   34.7980   47.9920 O   0  0  0  0  0  0  0  0  0  0  0  0
   60.9390   33.2720   48.1000 N   0  0  0  0  0  0  0  0  0  0  0  0
   61.7830   34.2220   48.8450 C   0  0  0  0  0  0  0  0  0  0  0  0
   61.4410   32.0410   47.7450 C   0  0  0  0  0  0  0  0  0  0  0  0
   62.6110   31.6880   48.0600 O   0  0  0  0  0  0  0  0  0  0  0  0
   60.6310   31.1870   47.0210 C   0  0  0  0  0  0  0  0  0  0  0  0
   60.8950   29.9490   46.5800 N   0  0  0  0  0  0  0  0  0  0  0  0
   59.7420   29.6190   45.9390 C   0  0  0  0  0  0  0  0  0  0  0  0
   59.5280   28.2850   45.2760 C   0  0  2  0  0  0  0  0  0  0  0  0
   58.1960   28.2980   44.4990 C   0  0  0  0  0  0  0  0  0  0  0  0
   57.7680   26.8740   44.1060 C   0  0  0  0  0  0  0  0  0  0  0  0
   57.7040   25.9280   45.2600 N   0  0  2  0  0  0  0  0  0  0  0  0
   56.3640   25.3790   45.4140 C   0  0  0  0  0  0  0  0  0  0  0  0
   55.5190   26.0330   46.0100 O   0  0  0  0  0  0  0  0  0  0  0  0
   55.9640   24.0370   44.8410 C   0  0  0  0  0  0  0  0  0  0  0  0
   57.1180   23.1240   44.4470 C   0  0  0  0  0  0  0  0  0  0  0  0
   56.3120   23.8310   43.3740 C   0  0  0  0  0  0  0  0  0  0  0  0
   58.2410   26.4720   46.5310 C   0  0  0  0  0  0  0  0  0  0  0  0
   59.6090   27.1280   46.3040 C   0  0  0  0  0  0  0  0  0  0  0  0
   58.7840   30.5840   45.9680 N   0  0  0  0  0  0  0  0  0  0  0  0
   59.3870   31.5620   46.6600 C   0  0  0  0  0  0  0  0  0  0  0  0
   57.3885   31.5674   44.1882 H   0  0  0  0  0  0  0  0  0  0  0  0
   56.9407   32.6189   42.8025 H   0  0  0  0  0  0  0  0  0  0  0  0
   58.5158   31.7555   42.8025 H   0  0  0  0  0  0  0  0  0  0  0  0
   59.3889   33.1368   44.5472 H   0  0  0  0  0  0  0  0  0  0  0  0
   58.5564   34.2513   43.3721 H   0  0  0  0  0  0  0  0  0  0  0  0
   57.9654   35.0204   45.5360 H   0  0  0  0  0  0  0  0  0  0  0  0
   56.5315   34.0947   44.8749 H   0  0  0  0  0  0  0  0  0  0  0  0
   57.0144   33.7112   47.3251 H   0  0  0  0  0  0  0  0  0  0  0  0
   56.9711   32.2331   46.2768 H   0  0  0  0  0  0  0  0  0  0  0  0
   61.6447   34.0664   49.9251 H   0  0  0  0  0  0  0  0  0  0  0  0
   62.8387   34.0580   48.5831 H   0  0  0  0  0  0  0  0  0  0  0  0
   61.4958   35.2511   48.5831 H   0  0  0  0  0  0  0  0  0  0  0  0
   60.3361   28.1059   44.5515 H   0  0  0  0  0  0  0  0  0  0  0  0
   57.4156   28.7455   45.1320 H   0  0  0  0  0  0  0  0  0  0  0  0
   58.3343   28.8865   43.5800 H   0  0  0  0  0  0  0  0  0  0  0  0
   56.7714   26.9258   43.6434 H   0  0  0  0  0  0  0  0  0  0  0  0
   58.5312   26.4875   43.4145 H   0  0  0  0  0  0  0  0  0  0  0  0
   58.3220   25.1130   45.0220 H   0  0  0  0  0  0  0  0  0  0  0  0
   55.0568   23.9266   45.4532 H   0  0  0  0  0  0  0  0  0  0  0  0
   58.1551   23.4310   44.6475 H   0  0  0  0  0  0  0  0  0  0  0  0
   57.3873   22.0778   44.6544 H   0  0  0  0  0  0  0  0  0  0  0  0
   56.7652   24.6502   42.7965 H   0  0  0  0  0  0  0  0  0  0  0  0
   55.7556   23.5087   42.4815 H   0  0  0  0  0  0  0  0  0  0  0  0
   57.5414   27.2230   46.9267 H   0  0  0  0  0  0  0  0  0  0  0  0
   58.3591   25.6460   47.2478 H   0  0  0  0  0  0  0  0  0  0  0  0
   59.9760   27.5270   47.2612 H   0  0  0  0  0  0  0  0  0  0  0  0
   60.2932   26.3640   45.9063 H   0  0  0  0  0  0  0  0  0  0  0  0
  1  2  1  0
  2  3  1  0
  3  4  1  0
  4  5  1  0
  5  6  1  0
  6  7  2  0
  6  8  1  0
  8  9  1  0
  8 10  1  0
 10 11  2  0
 10 12  1  0
 12 13  1  0
 13 14  1  0
 14 15  1  0
 15 16  1  0
 16 17  1  0
 17 18  1  0
 18 19  1  0
 19 20  2  0
 19 21  1  0
 21 22  1  0
 22 23  1  0
 18 24  1  0
 24 25  1  0
 14 26  2  0
 26 27  1  0
 27  5  1  0
 27 12  2  0
 25 15  1  0
 23 21  1  0
  1 28  1  0
  1 29  1  0
  1 30  1  0
  2 31  1  0
  2 32  1  0
  3 33  1  0
  3 34  1  0
  4 35  1  0
  4 36  1  0
  9 37  1  0
  9 38  1  0
  9 39  1  0
 15 40  1  6
 16 41  1  0
 16 42  1  0
 17 43  1  0
 17 44  1  0
 18 45  1  6
 21 46  1  0
 22 47  1  0
 22 48  1  0
 23 49  1  0
 23 50  1  0
 24 51  1  0
 24 52  1  0
 25 53  1  0
 25 54  1  0
M  CHG  2  13  -1  18   1
M  END
>  <UniqueID>  (22) 
22

>  <SMILES>  (22) 
CCCCn1c(=O)n(C)c(=O)c2[n-]c(C3CC[NH+](C(=O)C4CC4)CC3)nc21

>  <Energy>  (22) 
366.1538459496057

>  <Genealogy>  (22) 
CCCCn1c(=O)n(C)c(=O)c2[n-]c(C3CC[NH+](C(=O)C4CC4)CC3)nc21 (protonated)
CCCCn1c(=O)n(C)c(=O)c2[n-]c(C3CC[NH+](C(=O)C4CC4)CC3)nc21 (3D coordinates assigned)
CCCCn1c(=O)n(C)c(=O)c2[n-]c(C3CC[NH+](C(=O)C4CC4)CC3)nc21 (nonaromatic ring conformer: 366.1538459496057 kcal/mol)

>  <smiles>  (22) 
CCCCn1c(=O)n(C)c(=O)c2[nH]c(C3CCN(C(=O)C4CC4)CC3)nc21

>  <score_type>  (22) 
oracle

>  <origin>  (22) 
adg

>  <m_score__min__energy>  (22) 
-7.29

>  <m_primary>  (22) 
energy

$$$$
22:0
     RDKit          3D

 62 65  0  0  0  0  0  0  0  0999 V2000
   58.0260   33.2180   44.1420 C   0  0  0  0  0  0  0  0  0  0  0  0
   57.3960   31.8970   43.7040 C   0  0  0  0  0  0  0  0  0  0  0  0
   57.0820   31.0360   44.8650 N   0  0  0  0  0  0  0  0  0  0  0  0
   56.4900   29.7270   44.4970 C   0  0  0  0  0  0  0  0  0  0  0  0
   56.2500   29.6790   42.9910 C   0  0  0  0  0  0  0  0  0  0  0  0
   58.2080   30.9230   45.8270 C   0  0  0  0  0  0  0  0  0  0  0  0
   58.4140   29.5120   46.4160 C   0  0  0  0  0  0  0  0  0  0  0  0
   58.4980   29.5770   47.8250 O   0  0  0  0  0  0  0  0  0  0  0  0
   59.4270   28.6280   48.3190 C   0  0  0  0  0  0  0  0  0  0  0  0
   60.0130   29.0670   49.6710 C   0  0  0  0  0  0  0  0  0  0  0  0
   59.6460   30.4580   49.9860 N   0  0  0  0  0  0  0  0  0  0  0  0
   60.6560   31.3830   49.4960 C   0  0  0  0  0  0  0  0  0  0  0  0
   62.0180   31.2540   49.8850 C   0  0  0  0  0  0  0  0  0  0  0  0
   62.9900   32.0930   49.2800 C   0  0  0  0  0  0  0  0  0  0  0  0
   62.6460   32.8400   48.1710 N   0  0  0  0  0  0  0  0  0  0  0  0
   63.6550   33.1770   47.1490 C   0  0  0  0  0  0  0  0  0  0  0  0
   61.3230   33.1440   47.9330 C   0  0  0  0  0  0  0  0  0  0  0  0
   60.9550   34.1490   47.0010 C   0  0  0  0  0  0  0  0  0  0  0  0
   59.6150   34.4500   46.7600 C   0  0  0  0  0  0  0  0  0  0  0  0
   58.6170   33.7750   47.4490 C   0  0  0  0  0  0  0  0  0  0  0  0
   58.9480   32.7850   48.3730 C   0  0  0  0  0  0  0  0  0  0  0  0
   60.2980   32.4390   48.6180 C   0  0  0  0  0  0  0  0  0  0  0  0
   64.3550   32.1390   49.9050 C   0  0  0  0  0  0  0  0  0  0  0  0
   65.3650   33.1010   49.6810 C   0  0  0  0  0  0  0  0  0  0  0  0
   66.4740   32.9630   50.5070 C   0  0  0  0  0  0  0  0  0  0  0  0
   66.1770   31.7130   51.5890 S   0  0  0  0  0  0  0  0  0  0  0  0
   64.6700   31.3020   50.9700 C   0  0  0  0  0  0  0  0  0  0  0  0
   63.6520   30.5030   51.7050 C   0  0  0  0  0  0  0  0  0  0  0  0
   62.4920   30.1110   50.7860 C   0  0  0  0  0  0  0  0  0  0  0  0
   58.0492   33.2667   45.2407 H   0  0  0  0  0  0  0  0  0  0  0  0
   59.0519   33.2826   43.7504 H   0  0  0  0  0  0  0  0  0  0  0  0
   57.4305   34.0559   43.7504 H   0  0  0  0  0  0  0  0  0  0  0  0
   56.4671   32.1087   43.1542 H   0  0  0  0  0  0  0  0  0  0  0  0
   58.1165   31.3658   43.0647 H   0  0  0  0  0  0  0  0  0  0  0  0
   57.1799   28.9196   44.7837 H   0  0  0  0  0  0  0  0  0  0  0  0
   55.5330   29.5979   45.0237 H   0  0  0  0  0  0  0  0  0  0  0  0
   55.1885   29.4667   42.7955 H   0  0  0  0  0  0  0  0  0  0  0  0
   56.5181   30.6485   42.5459 H   0  0  0  0  0  0  0  0  0  0  0  0
   56.8703   28.8871   42.5459 H   0  0  0  0  0  0  0  0  0  0  0  0
   59.1326   31.2160   45.3081 H   0  0  0  0  0  0  0  0  0  0  0  0
   57.9601   31.5798   46.6738 H   0  0  0  0  0  0  0  0  0  0  0  0
   57.5651   28.8726   46.1321 H   0  0  0  0  0  0  0  0  0  0  0  0
   59.3505   29.0920   46.0204 H   0  0  0  0  0  0  0  0  0  0  0  0
   58.9175   27.6615   48.4468 H   0  0  0  0  0  0  0  0  0  0  0  0
   60.2516   28.5423   47.5960 H   0  0  0  0  0  0  0  0  0  0  0  0
   59.6260   28.4065   50.4609 H   0  0  0  0  0  0  0  0  0  0  0  0
   61.1095   29.0016   49.6122 H   0  0  0  0  0  0  0  0  0  0  0  0
   58.7060   30.6890   49.5910 H   0  0  0  0  0  0  0  0  0  0  0  0
   59.5160   30.5780   51.0170 H   0  0  0  0  0  0  0  0  0  0  0  0
   64.5873   33.4884   47.6428 H   0  0  0  0  0  0  0  0  0  0  0  0
   63.8496   32.2951   46.5210 H   0  0  0  0  0  0  0  0  0  0  0  0
   63.2805   33.9988   46.5210 H   0  0  0  0  0  0  0  0  0  0  0  0
   61.7392   34.6991   46.4602 H   0  0  0  0  0  0  0  0  0  0  0  0
   59.3488   35.2226   46.0236 H   0  0  0  0  0  0  0  0  0  0  0  0
   57.5610   34.0221   47.2653 H   0  0  0  0  0  0  0  0  0  0  0  0
   58.1477   32.2650   48.9199 H   0  0  0  0  0  0  0  0  0  0  0  0
   65.2810   33.8902   48.9194 H   0  0  0  0  0  0  0  0  0  0  0  0
   67.3906   33.5693   50.4602 H   0  0  0  0  0  0  0  0  0  0  0  0
   64.1252   29.5902   52.0959 H   0  0  0  0  0  0  0  0  0  0  0  0
   63.2547   31.1149   52.5283 H   0  0  0  0  0  0  0  0  0  0  0  0
   62.8190   29.2767   50.1481 H   0  0  0  0  0  0  0  0  0  0  0  0
   61.6456   29.8335   51.4314 H   0  0  0  0  0  0  0  0  0  0  0  0
  1  2  1  0
  2  3  1  0
  3  4  1  0
  4  5  1  0
  3  6  1  0
  6  7  1  0
  7  8  1  0
  8  9  1  0
  9 10  1  0
 10 11  1  0
 11 12  1  0
 12 13  2  0
 13 14  1  0
 14 15  2  0
 15 16  1  0
 15 17  1  0
 17 18  2  0
 18 19  1  0
 19 20  2  0
 20 21  1  0
 21 22  2  0
 14 23  1  0
 23 24  1  0
 24 25  2  0
 25 26  1  0
 26 27  1  0
 27 28  1  0
 28 29  1  0
 22 12  1  0
 27 23  2  0
 29 13  1  0
 22 17  1  0
  1 30  1  0
  1 31  1  0
  1 32  1  0
  2 33  1  0
  2 34  1  0
  4 35  1  0
  4 36  1  0
  5 37  1  0
  5 38  1  0
  5 39  1  0
  6 40  1  0
  6 41  1  0
  7 42  1  0
  7 43  1  0
  9 44  1  0
  9 45  1  0
 10 46  1  0
 10 47  1  0
 11 48  1  0
 11 49  1  0
 16 50  1  0
 16 51  1  0
 16 52  1  0
 18 53  1  0
 19 54  1  0
 20 55  1  0
 21 56  1  0
 24 57  1  0
 25 58  1  0
 28 59  1  0
 28 60  1  0
 29 61  1  0
 29 62  1  0
M  CHG  2  11   1  15   1
M  END
>  <UniqueID>  (23) 
23

>  <SMILES>  (23) 
CCN(CC)CCOCC[NH2+]c1c2c([n+](C)c3ccccc13)-c1ccsc1CC2

>  <Energy>  (23) 
126.77377821492031

>  <Genealogy>  (23) 
CCN(CC)CCOCC[NH2+]c1c2c([n+](C)c3ccccc13)-c1ccsc1CC2 (protonated)
CCN(CC)CCOCC[NH2+]c1c2c([n+](C)c3ccccc13)-c1ccsc1CC2 (3D coordinates assigned)
CCN(CC)CCOCC[NH2+]c1c2c([n+](C)c3ccccc13)-c1ccsc1CC2 (nonaromatic ring conformer: 126.77377821492031 kcal/mol)

>  <smiles>  (23) 
CCN(CC)CCOCCNc1c2c([n+](C)c3ccccc13)-c1ccsc1CC2

>  <score_type>  (23) 
oracle

>  <origin>  (23) 
adg

>  <m_score__min__energy>  (23) 
-5

>  <m_primary>  (23) 
energy

$$$$
23:0
     RDKit          3D

 54 57  0  0  0  0  0  0  0  0999 V2000
   59.3370   33.4870   53.3060 C   0  0  0  0  0  0  0  0  0  0  0  0
   58.6250   33.8950   52.0220 C   0  0  0  0  0  0  0  0  0  0  0  0
   57.6310   32.8770   51.6590 N   0  0  0  0  0  0  0  0  0  0  0  0
   57.3140   31.9720   52.7770 C   0  0  0  0  0  0  0  0  0  0  0  0
   57.0170   30.5350   52.3240 C   0  0  0  0  0  0  0  0  0  0  0  0
   57.7960   30.2250   51.1860 O   0  0  0  0  0  0  0  0  0  0  0  0
   58.8780   29.3810   51.5330 C   0  0  0  0  0  0  0  0  0  0  0  0
   60.1930   29.9350   50.9860 C   0  0  0  0  0  0  0  0  0  0  0  0
   60.0480   31.3540   50.6650 N   0  0  0  0  0  0  0  0  0  0  0  0
   60.9060   31.9830   49.7040 C   0  0  0  0  0  0  0  0  0  0  0  0
   60.3640   32.6000   48.5830 C   0  0  0  0  0  0  0  0  0  0  0  0
   61.1800   33.2570   47.6670 C   0  0  0  0  0  0  0  0  0  0  0  0
   62.5370   33.3410   47.8100 N   0  0  0  0  0  0  0  0  0  0  0  0
   63.3450   34.0870   46.8290 C   0  0  0  0  0  0  0  0  0  0  0  0
   63.1260   32.6860   48.8820 C   0  0  0  0  0  0  0  0  0  0  0  0
   64.5320   32.6620   49.0510 C   0  0  0  0  0  0  0  0  0  0  0  0
   65.1150   31.9850   50.1230 C   0  0  0  0  0  0  0  0  0  0  0  0
   64.3220   31.3110   51.0450 C   0  0  0  0  0  0  0  0  0  0  0  0
   62.9350   31.3120   50.9110 C   0  0  0  0  0  0  0  0  0  0  0  0
   62.3150   31.9970   49.8470 C   0  0  0  0  0  0  0  0  0  0  0  0
   60.2890   33.7930   46.6370 C   0  0  0  0  0  0  0  0  0  0  0  0
   60.3990   34.4490   45.5090 O   0  0  0  0  0  0  0  0  0  0  0  0
   59.1660   34.5900   45.0380 C   0  0  0  0  0  0  0  0  0  0  0  0
   58.2410   34.0090   45.9130 C   0  0  0  0  0  0  0  0  0  0  0  0
   56.7710   33.8500   45.7180 C   0  0  0  0  0  0  0  0  0  0  0  0
   59.0150   33.5000   46.9220 C   0  0  0  0  0  0  0  0  0  0  0  0
   58.9570   32.7270   48.1470 C   0  0  0  0  0  0  0  0  0  0  0  0
   57.9270   32.2630   48.7040 O   0  0  0  0  0  0  0  0  0  0  0  0
   58.7501   33.8233   54.1734 H   0  0  0  0  0  0  0  0  0  0  0  0
   59.4409   32.3923   53.3357 H   0  0  0  0  0  0  0  0  0  0  0  0
   60.3340   33.9509   53.3357 H   0  0  0  0  0  0  0  0  0  0  0  0
   58.1199   34.8601   52.1754 H   0  0  0  0  0  0  0  0  0  0  0  0
   59.3628   33.9873   51.2114 H   0  0  0  0  0  0  0  0  0  0  0  0
   57.9900   32.3180   50.8500 H   0  0  0  0  0  0  0  0  0  0  0  0
   58.1720   31.9518   53.4650 H   0  0  0  0  0  0  0  0  0  0  0  0
   56.4052   32.3570   53.2627 H   0  0  0  0  0  0  0  0  0  0  0  0
   57.2634   29.8366   53.1374 H   0  0  0  0  0  0  0  0  0  0  0  0
   55.9502   30.4452   52.0714 H   0  0  0  0  0  0  0  0  0  0  0  0
   58.9439   29.3107   52.6288 H   0  0  0  0  0  0  0  0  0  0  0  0
   58.7046   28.3865   51.0962 H   0  0  0  0  0  0  0  0  0  0  0  0
   60.9818   29.8124   51.7428 H   0  0  0  0  0  0  0  0  0  0  0  0
   60.4614   29.3856   50.0716 H   0  0  0  0  0  0  0  0  0  0  0  0
   59.5650   31.9600   51.3660 H   0  0  0  0  0  0  0  0  0  0  0  0
   64.0533   34.7409   47.3588 H   0  0  0  0  0  0  0  0  0  0  0  0
   63.9017   33.3786   46.1980 H   0  0  0  0  0  0  0  0  0  0  0  0
   62.6832   34.6984   46.1980 H   0  0  0  0  0  0  0  0  0  0  0  0
   65.1739   33.1847   48.3266 H   0  0  0  0  0  0  0  0  0  0  0  0
   66.2088   31.9846   50.2393 H   0  0  0  0  0  0  0  0  0  0  0  0
   64.7912   30.7751   51.8832 H   0  0  0  0  0  0  0  0  0  0  0  0
   62.3173   30.7722   51.6438 H   0  0  0  0  0  0  0  0  0  0  0  0
   58.9079   35.0922   44.0940 H   0  0  0  0  0  0  0  0  0  0  0  0
   56.2748   33.7963   46.6982 H   0  0  0  0  0  0  0  0  0  0  0  0
   56.3804   34.7111   45.1560 H   0  0  0  0  0  0  0  0  0  0  0  0
   56.5736   32.9253   45.1560 H   0  0  0  0  0  0  0  0  0  0  0  0
  1  2  1  0
  2  3  1  0
  3  4  1  0
  4  5  1  0
  5  6  1  0
  6  7  1  0
  7  8  1  0
  8  9  1  0
  9 10  1  0
 10 11  2  0
 11 12  1  0
 12 13  2  0
 13 14  1  0
 13 15  1  0
 15 16  2  0
 16 17  1  0
 17 18  2  0
 18 19  1  0
 19 20  2  0
 12 21  1  0
 21 22  1  0
 22 23  1  0
 23 24  2  0
 24 25  1  0
 24 26  1  0
 26 27  1  0
 27 28  2  0
 20 10  1  0
 26 21  2  0
 27 11  1  0
 20 15  1  0
  1 29  1  0
  1 30  1  0
  1 31  1  0
  2 32  1  0
  2 33  1  0
  3 34  1  0
  4 35  1  0
  4 36  1  0
  5 37  1  0
  5 38  1  0
  7 39  1  0
  7 40  1  0
  8 41  1  0
  8 42  1  0
  9 43  1  0
 14 44  1  0
 14 45  1  0
 14 46  1  0
 16 47  1  0
 17 48  1  0
 18 49  1  0
 19 50  1  0
 23 51  1  0
 25 52  1  0
 25 53  1  0
 25 54  1  0
M  CHG  1  13   1
M  END
>  <UniqueID>  (24) 
24

>  <SMILES>  (24) 
CCNCCOCCNc1c2c([n+](C)c3ccccc13)-c1occ(C)c1C2=O

>  <Energy>  (24) 
148.59139466425532

>  <Genealogy>  (24) 
CCNCCOCCNc1c2c([n+](C)c3ccccc13)-c1occ(C)c1C2=O (3D coordinates assigned)
CCNCCOCCNc1c2c([n+](C)c3ccccc13)-c1occ(C)c1C2=O (nonaromatic ring conformer: 148.59139466425532 kcal/mol)

>  <smiles>  (24) 
CCNCCOCCNc1c2c([n+](C)c3ccccc13)-c1occ(C)c1C2=O

>  <score_type>  (24) 
oracle

>  <origin>  (24) 
adg

>  <m_score__min__energy>  (24) 
-6.2599999999999998

>  <m_primary>  (24) 
energy

$$$$
24:0
     RDKit          3D

 53 57  0  0  0  0  0  0  0  0999 V2000
   55.4950   23.9210   44.5880 C   0  0  0  0  0  0  0  0  0  0  0  0
   54.9390   24.9020   45.6250 C   0  0  0  0  0  0  0  0  0  0  0  0
   55.9020   25.9550   45.9810 N   0  0  0  0  0  0  0  0  0  0  0  0
   57.2740   25.4390   46.0910 C   0  0  0  0  0  0  0  0  0  0  0  0
   58.2630   26.5990   46.2120 C   0  0  0  0  0  0  0  0  0  0  0  0
   57.5820   27.8410   46.5810 N   0  0  0  0  0  0  0  0  0  0  0  0
   58.1380   29.1070   46.2100 C   0  0  0  0  0  0  0  0  0  0  0  0
   59.1410   29.6930   46.9700 C   0  0  0  0  0  0  0  0  0  0  0  0
   59.7120   30.9020   46.6180 C   0  0  0  0  0  0  0  0  0  0  0  0
   59.1450   31.6840   45.6380 N   0  0  0  0  0  0  0  0  0  0  0  0
   59.3620   33.1400   45.6070 C   0  0  0  0  0  0  0  0  0  0  0  0
   58.2320   31.0970   44.7750 C   0  0  0  0  0  0  0  0  0  0  0  0
   57.7930   31.7580   43.6030 C   0  0  0  0  0  0  0  0  0  0  0  0
   56.8550   31.1650   42.7560 C   0  0  0  0  0  0  0  0  0  0  0  0
   56.3380   29.9060   43.0470 C   0  0  0  0  0  0  0  0  0  0  0  0
   56.7590   29.2200   44.1860 C   0  0  0  0  0  0  0  0  0  0  0  0
   57.7060   29.7940   45.0560 C   0  0  0  0  0  0  0  0  0  0  0  0
   60.7250   31.2760   47.5820 N   0  0  0  0  0  0  0  0  0  0  0  0
   60.6600   30.3600   48.5810 C   0  0  0  0  0  0  0  0  0  0  0  0
   61.5320   30.3940   49.6660 C   0  0  0  0  0  0  0  0  0  0  0  0
   62.5310   31.3760   49.6830 C   0  0  0  0  0  0  0  0  0  0  0  0
   63.4220   31.4640   50.7640 C   0  0  0  0  0  0  0  0  0  0  0  0
   64.4480   32.4110   50.7530 C   0  0  0  0  0  0  0  0  0  0  0  0
   64.6010   33.2700   49.6620 C   0  0  0  0  0  0  0  0  0  0  0  0
   63.7260   33.1920   48.5750 C   0  0  0  0  0  0  0  0  0  0  0  0
   62.6770   32.2540   48.5740 C   0  0  0  0  0  0  0  0  0  0  0  0
   61.7820   32.1410   47.4860 C   0  0  0  0  0  0  0  0  0  0  0  0
   61.9990   32.7810   46.4230 O   0  0  0  0  0  0  0  0  0  0  0  0
   59.6870   29.3270   48.2680 C   0  0  0  0  0  0  0  0  0  0  0  0
   59.3630   28.3470   48.9880 O   0  0  0  0  0  0  0  0  0  0  0  0
   55.9742   23.0755   45.1032 H   0  0  0  0  0  0  0  0  0  0  0  0
   54.6736   23.5487   43.9581 H   0  0  0  0  0  0  0  0  0  0  0  0
   56.2364   24.4344   43.9581 H   0  0  0  0  0  0  0  0  0  0  0  0
   54.0356   25.3755   45.2131 H   0  0  0  0  0  0  0  0  0  0  0  0
   54.7173   24.3308   46.5385 H   0  0  0  0  0  0  0  0  0  0  0  0
   55.8770   26.7100   45.2560 H   0  0  0  0  0  0  0  0  0  0  0  0
   57.3520   24.7998   46.9828 H   0  0  0  0  0  0  0  0  0  0  0  0
   57.5125   24.8548   45.1900 H   0  0  0  0  0  0  0  0  0  0  0  0
   59.0081   26.3558   46.9838 H   0  0  0  0  0  0  0  0  0  0  0  0
   58.7482   26.7454   45.2357 H   0  0  0  0  0  0  0  0  0  0  0  0
   56.5930   27.8180   46.9210 H   0  0  0  0  0  0  0  0  0  0  0  0
   59.4193   33.5242   46.6361 H   0  0  0  0  0  0  0  0  0  0  0  0
   60.3028   33.3594   45.0808 H   0  0  0  0  0  0  0  0  0  0  0  0
   58.5261   33.6242   45.0808 H   0  0  0  0  0  0  0  0  0  0  0  0
   58.1959   32.7514   43.3564 H   0  0  0  0  0  0  0  0  0  0  0  0
   56.5222   31.6965   41.8523 H   0  0  0  0  0  0  0  0  0  0  0  0
   55.5947   29.4504   42.3763 H   0  0  0  0  0  0  0  0  0  0  0  0
   56.3484   28.2236   44.4063 H   0  0  0  0  0  0  0  0  0  0  0  0
   61.4389   29.6690   50.4880 H   0  0  0  0  0  0  0  0  0  0  0  0
   63.3117   30.7849   51.6223 H   0  0  0  0  0  0  0  0  0  0  0  0
   65.1384   32.4809   51.6065 H   0  0  0  0  0  0  0  0  0  0  0  0
   65.4138   34.0111   49.6585 H   0  0  0  0  0  0  0  0  0  0  0  0
   63.8579   33.8668   47.7164 H   0  0  0  0  0  0  0  0  0  0  0  0
  1  2  1  0
  2  3  1  0
  3  4  1  0
  4  5  1  0
  5  6  1  0
  6  7  1  0
  7  8  2  0
  8  9  1  0
  9 10  2  0
 10 11  1  0
 10 12  1  0
 12 13  2  0
 13 14  1  0
 14 15  2  0
 15 16  1  0
 16 17  2  0
  9 18  1  0
 18 19  1  0
 19 20  2  0
 20 21  1  0
 21 22  2  0
 22 23  1  0
 23 24  2  0
 24 25  1  0
 25 26  2  0
 26 27  1  0
 27 28  2  0
 19 29  1  0
 29 30  2  0
 17  7  1  0
 27 18  1  0
 29  8  1  0
 17 12  1  0
 26 21  1  0
  1 31  1  0
  1 32  1  0
  1 33  1  0
  2 34  1  0
  2 35  1  0
  3 36  1  0
  4 37  1  0
  4 38  1  0
  5 39  1  0
  5 40  1  0
  6 41  1  0
 11 42  1  0
 11 43  1  0
 11 44  1  0
 13 45  1  0
 14 46  1  0
 15 47  1  0
 16 48  1  0
 20 49  1  0
 22 50  1  0
 23 51  1  0
 24 52  1  0
 25 53  1  0
M  CHG  1  10   1
M  END
>  <UniqueID>  (25) 
25

>  <SMILES>  (25) 
CCNCCNc1c2c([n+](C)c3ccccc13)-n1c(cc3ccccc3c1=O)C2=O

>  <Energy>  (25) 
122.47174658379775

>  <Genealogy>  (25) 
CCNCCNc1c2c([n+](C)c3ccccc13)-n1c(cc3ccccc3c1=O)C2=O (3D coordinates assigned)
CCNCCNc1c2c([n+](C)c3ccccc13)-n1c(cc3ccccc3c1=O)C2=O (nonaromatic ring conformer: 122.47174658379775 kcal/mol)

>  <smiles>  (25) 
CCNCCNc1c2c([n+](C)c3ccccc13)-n1c(cc3ccccc3c1=O)C2=O

>  <score_type>  (25) 
oracle

>  <origin>  (25) 
adg

>  <m_score__min__energy>  (25) 
-7.29

>  <m_primary>  (25) 
energy

$$$$
