0:0
     RDKit          3D

 57 59  0  0  0  0  0  0  0  0999 V2000
   60.1426   33.9681   49.7743 H   0  0  0  0  0  0  0  0  0  0  0  0
   60.6350   34.0880   48.7980 C   0  0  0  0  0  0  0  0  0  0  0  0
   61.9710   34.2090   48.7910 C   0  0  0  0  0  0  0  0  0  0  0  0
   62.4505   34.5800   49.7088 H   0  0  0  0  0  0  0  0  0  0  0  0
   62.8700   33.8760   47.6220 C   0  0  0  0  0  0  0  0  0  0  0  0
   63.4402   34.7742   47.3425 H   0  0  0  0  0  0  0  0  0  0  0  0
   62.2390   33.5370   46.7872 H   0  0  0  0  0  0  0  0  0  0  0  0
   63.8230   32.7840   47.9600 N   0  0  0  0  0  0  0  0  0  0  0  0
   64.7940   33.1260   47.7580 H   0  0  0  0  0  0  0  0  0  0  0  0
   63.7760   32.4190   49.4030 C   0  0  0  0  0  0  0  0  0  0  0  0
   63.4255   33.2926   49.9721 H   0  0  0  0  0  0  0  0  0  0  0  0
   64.7920   32.1131   49.6932 H   0  0  0  0  0  0  0  0  0  0  0  0
   62.8390   31.2300   49.7060 C   0  0  0  0  0  0  0  0  0  0  0  0
   62.4049   31.3553   50.7089 H   0  0  0  0  0  0  0  0  0  0  0  0
   63.4176   30.2955   49.6627 H   0  0  0  0  0  0  0  0  0  0  0  0
   61.7590   31.1730   48.7130 N   0  0  0  0  0  0  0  0  0  0  0  0
   60.5910   30.3460   49.0970 C   0  0  0  0  0  0  0  0  0  0  0  0
   59.6847   30.9489   48.9388 H   0  0  0  0  0  0  0  0  0  0  0  0
   60.7619   30.0584   50.1449 H   0  0  0  0  0  0  0  0  0  0  0  0
   60.4180   29.0170   48.3210 C   0  0  0  0  0  0  0  0  0  0  0  0
   60.2748   28.2050   49.0491 H   0  0  0  0  0  0  0  0  0  0  0  0
   61.3239   28.8776   47.7128 H   0  0  0  0  0  0  0  0  0  0  0  0
   59.2460   29.0210   47.3750 C   0  0  0  0  0  0  0  0  0  0  0  0
   58.8860   30.1930   46.6890 C   0  0  0  0  0  0  0  0  0  0  0  0
   59.4756   31.1111   46.8282 H   0  0  0  0  0  0  0  0  0  0  0  0
   57.7820   30.1990   45.8300 C   0  0  0  0  0  0  0  0  0  0  0  0
   57.5045   31.1226   45.3010 H   0  0  0  0  0  0  0  0  0  0  0  0
   57.0250   29.0280   45.6400 C   0  0  0  0  0  0  0  0  0  0  0  0
   55.9080   28.9840   44.7920 O   0  0  0  0  0  0  0  0  0  0  0  0
   55.5510   30.0170   43.8770 C   0  0  0  0  0  0  0  0  0  0  0  0
   55.5985   30.9907   44.3865 H   0  0  0  0  0  0  0  0  0  0  0  0
   54.5284   29.8448   43.5102 H   0  0  0  0  0  0  0  0  0  0  0  0
   56.5180   30.0110   42.7040 C   0  0  0  0  0  0  0  0  0  0  0  0
   57.5514   30.0046   43.0808 H   0  0  0  0  0  0  0  0  0  0  0  0
   56.3456   29.1139   42.0912 H   0  0  0  0  0  0  0  0  0  0  0  0
   56.3567   30.9102   42.0912 H   0  0  0  0  0  0  0  0  0  0  0  0
   57.3930   27.8590   46.3150 C   0  0  0  0  0  0  0  0  0  0  0  0
   56.8100   26.9379   46.1682 H   0  0  0  0  0  0  0  0  0  0  0  0
   58.4950   27.8520   47.1740 C   0  0  0  0  0  0  0  0  0  0  0  0
   58.7757   26.9252   47.6958 H   0  0  0  0  0  0  0  0  0  0  0  0
   62.2490   30.9300   47.3410 C   0  0  0  0  0  0  0  0  0  0  0  0
   61.5197   31.3366   46.6249 H   0  0  0  0  0  0  0  0  0  0  0  0
   62.3701   29.8449   47.2076 H   0  0  0  0  0  0  0  0  0  0  0  0
   63.6170   31.6000   47.0960 C   0  0  0  0  0  0  0  0  0  0  0  0
   63.6735   31.9154   46.0437 H   0  0  0  0  0  0  0  0  0  0  0  0
   64.4002   30.8661   47.3369 H   0  0  0  0  0  0  0  0  0  0  0  0
   59.7720   34.1030   47.5980 C   0  0  0  0  0  0  0  0  0  0  0  0
   60.1110   34.8550   46.4590 C   0  0  0  0  0  0  0  0  0  0  0  0
   61.0491   35.4292   46.4402 H   0  0  0  0  0  0  0  0  0  0  0  0
   59.2590   34.8750   45.3500 C   0  0  0  0  0  0  0  0  0  0  0  0
   59.5361   35.4519   44.4554 H   0  0  0  0  0  0  0  0  0  0  0  0
   58.0570   34.1640   45.3760 C   0  0  0  0  0  0  0  0  0  0  0  0
   57.3924   34.1743   44.4995 H   0  0  0  0  0  0  0  0  0  0  0  0
   57.6990   33.4390   46.5170 C   0  0  0  0  0  0  0  0  0  0  0  0
   56.7481   32.8865   46.5413 H   0  0  0  0  0  0  0  0  0  0  0  0
   58.5490   33.4160   47.6270 C   0  0  0  0  0  0  0  0  0  0  0  0
   58.2573   32.8562   48.5279 H   0  0  0  0  0  0  0  0  0  0  0  0
  1  2  1  0
  2  3  2  0
  3  4  1  0
  3  5  1  0
  5  6  1  0
  5  7  1  0
  5  8  1  0
  8  9  1  0
  8 10  1  0
 10 11  1  0
 10 12  1  0
 10 13  1  0
 13 14  1  0
 13 15  1  0
 13 16  1  0
 16 17  1  0
 17 18  1  0
 17 19  1  0
 17 20  1  0
 20 21  1  0
 20 22  1  0
 20 23  1  0
 23 24  2  0
 24 25  1  0
 24 26  1  0
 26 27  1  0
 26 28  2  0
 28 29  1  0
 29 30  1  0
 30 31  1  0
 30 32  1  0
 30 33  1  0
 33 34  1  0
 33 35  1  0
 33 36  1  0
 28 37  1  0
 37 38  1  0
 37 39  2  0
 39 40  1  0
 16 41  1  0
 41 42  1  0
 41 43  1  0
 41 44  1  0
 44 45  1  0
 44 46  1  0
  2 47  1  0
 47 48  2  0
 48 49  1  0
 48 50  1  0
 50 51  1  0
 50 52  2  0
 52 53  1  0
 52 54  1  0
 54 55  1  0
 54 56  2  0
 56 57  1  0
 44  8  1  0
 56 47  1  0
 39 23  1  0
M  CHG  1   8   1
M  END
>  <UniqueID>  (1) 
1

>  <SMILES>  (1) 
CCOc1ccc(CCN2CC[NH+](C/C=C\c3ccccc3)CC2)cc1

>  <Energy>  (1) 
75.80299182597881

>  <Genealogy>  (1) 
CCOc1ccc(CCN2CC[NH+](CC=Cc3ccccc3)CC2)cc1 (protonated)
CCOc1ccc(CCN2CC[NH+](C/C=C\c3ccccc3)CC2)cc1 (cis-trans isomerization)
CCOc1ccc(CCN2CC[NH+](C/C=C\c3ccccc3)CC2)cc1 (3D coordinates assigned)
CCOc1ccc(CCN2CC[NH+](C/C=C\c3ccccc3)CC2)cc1 (nonaromatic ring conformer: 75.80299182597881 kcal/mol)

>  <smiles>  (1) 
CCOc1ccc(CCN2CCN(CC=Cc3ccccc3)CC2)cc1

>  <score_type>  (1) 
oracle

>  <origin>  (1) 
adg

>  <m_score__min__energy>  (1) 
-6.8099999999999996

>  <m_primary>  (1) 
energy

$$$$
1:0
     RDKit          3D

 77 79  0  0  0  0  0  0  0  0999 V2000
   59.7410   27.0820   46.0990 C   0  0  0  0  0  0  0  0  0  0  0  0
   58.4350   27.0790   46.8760 C   0  0  0  0  0  0  0  0  0  0  0  0
   58.1690   28.3780   47.4040 O   0  0  0  0  0  0  0  0  0  0  0  0
   58.2330   29.5760   46.6710 C   0  0  0  0  0  0  0  0  0  0  0  0
   57.3550   29.7620   45.5880 C   0  0  0  0  0  0  0  0  0  0  0  0
   57.4690   30.8600   44.7590 C   0  0  0  0  0  0  0  0  0  0  0  0
   58.4370   31.8180   45.0030 C   0  0  0  0  0  0  0  0  0  0  0  0
   59.2970   31.7300   46.1240 C   0  0  0  0  0  0  0  0  0  0  0  0
   59.2080   30.5850   46.9770 C   0  0  0  0  0  0  0  0  0  0  0  0
   60.1150   30.4920   48.0830 C   0  0  0  0  0  0  0  0  0  0  0  0
   59.9020   29.5470   49.1700 N   0  0  0  0  0  0  0  0  0  0  0  0
   60.7440   28.3180   49.1830 C   0  0  0  0  0  0  0  0  0  0  0  0
   61.1070   27.6910   50.5540 C   0  0  0  0  0  0  0  0  0  0  0  0
   61.8190   28.6430   51.5200 C   0  0  0  0  0  0  0  0  0  0  0  0
   60.8740   29.5530   52.0420 O   0  0  0  0  0  0  0  0  0  0  0  0
   60.0560   28.9310   53.0170 C   0  0  0  0  0  0  0  0  0  0  0  0
   58.5910   29.0050   52.5770 C   0  0  0  0  0  0  0  0  0  0  0  0
   58.1800   30.4290   52.1950 C   0  0  0  0  0  0  0  0  0  0  0  0
   58.0200   30.5060   50.7950 O   0  0  0  0  0  0  0  0  0  0  0  0
   57.9480   31.8560   50.3920 C   0  0  0  0  0  0  0  0  0  0  0  0
   57.9950   32.7680   51.6190 C   0  0  0  0  0  0  0  0  0  0  0  0
   59.2090   33.6170   51.5840 N   0  0  0  0  0  0  0  0  0  0  0  0
   60.0460   33.4750   52.7980 C   0  0  0  0  0  0  0  0  0  0  0  0
   61.3720   32.7980   52.4660 C   0  0  0  0  0  0  0  0  0  0  0  0
   59.9650   33.4910   50.3140 C   0  0  0  0  0  0  0  0  0  0  0  0
   59.6640   34.5960   49.2900 C   0  0  0  0  0  0  0  0  0  0  0  0
   61.1860   31.4230   48.1690 C   0  0  0  0  0  0  0  0  0  0  0  0
   62.2070   31.2960   49.1470 C   0  0  0  0  0  0  0  0  0  0  0  0
   63.2780   32.1830   49.1910 C   0  0  0  0  0  0  0  0  0  0  0  0
   63.3680   33.2110   48.2650 C   0  0  0  0  0  0  0  0  0  0  0  0
   62.3700   33.3770   47.3090 C   0  0  0  0  0  0  0  0  0  0  0  0
   61.2430   32.5150   47.2670 C   0  0  0  0  0  0  0  0  0  0  0  0
   60.2130   32.7300   46.3780 N   0  0  0  0  0  0  0  0  0  0  0  0
   60.0800   34.0480   45.7150 C   0  0  0  0  0  0  0  0  0  0  0  0
   60.5864   27.0839   46.8028 H   0  0  0  0  0  0  0  0  0  0  0  0
   59.7930   26.1840   45.4659 H   0  0  0  0  0  0  0  0  0  0  0  0
   59.7889   27.9803   45.4659 H   0  0  0  0  0  0  0  0  0  0  0  0
   57.6144   26.7852   46.2050 H   0  0  0  0  0  0  0  0  0  0  0  0
   58.5159   26.3644   47.7084 H   0  0  0  0  0  0  0  0  0  0  0  0
   56.5648   29.0206   45.3985 H   0  0  0  0  0  0  0  0  0  0  0  0
   56.7885   30.9735   43.9023 H   0  0  0  0  0  0  0  0  0  0  0  0
   58.5406   32.6666   44.3108 H   0  0  0  0  0  0  0  0  0  0  0  0
   58.8930   29.2910   49.2340 H   0  0  0  0  0  0  0  0  0  0  0  0
   60.0190   30.0470   50.0810 H   0  0  0  0  0  0  0  0  0  0  0  0
   60.2088   27.5502   48.6051 H   0  0  0  0  0  0  0  0  0  0  0  0
   61.7094   28.6455   48.7698 H   0  0  0  0  0  0  0  0  0  0  0  0
   60.1773   27.3486   51.0320 H   0  0  0  0  0  0  0  0  0  0  0  0
   61.8113   26.8719   50.3465 H   0  0  0  0  0  0  0  0  0  0  0  0
   62.2702   28.0669   52.3413 H   0  0  0  0  0  0  0  0  0  0  0  0
   62.6111   29.1909   50.9886 H   0  0  0  0  0  0  0  0  0  0  0  0
   60.3531   27.8776   53.1269 H   0  0  0  0  0  0  0  0  0  0  0  0
   60.1760   29.4483   53.9803 H   0  0  0  0  0  0  0  0  0  0  0  0
   58.4477   28.3481   51.7064 H   0  0  0  0  0  0  0  0  0  0  0  0
   57.9648   28.6853   53.4230 H   0  0  0  0  0  0  0  0  0  0  0  0
   57.2301   30.6826   52.6884 H   0  0  0  0  0  0  0  0  0  0  0  0
   58.9574   31.1372   52.5176 H   0  0  0  0  0  0  0  0  0  0  0  0
   58.7986   32.0861   49.7336 H   0  0  0  0  0  0  0  0  0  0  0  0
   57.0044   32.0232   49.8520 H   0  0  0  0  0  0  0  0  0  0  0  0
   57.1027   33.4113   51.6271 H   0  0  0  0  0  0  0  0  0  0  0  0
   58.0201   32.1459   52.5258 H   0  0  0  0  0  0  0  0  0  0  0  0
   60.2453   34.4723   53.2172 H   0  0  0  0  0  0  0  0  0  0  0  0
   59.5060   32.8537   53.5277 H   0  0  0  0  0  0  0  0  0  0  0  0
   61.8918   32.5326   53.3984 H   0  0  0  0  0  0  0  0  0  0  0  0
   61.1818   31.8867   51.8801 H   0  0  0  0  0  0  0  0  0  0  0  0
   61.9986   33.4865   51.8801 H   0  0  0  0  0  0  0  0  0  0  0  0
   61.0395   33.5206   50.5477 H   0  0  0  0  0  0  0  0  0  0  0  0
   59.6550   32.5409   49.8544 H   0  0  0  0  0  0  0  0  0  0  0  0
   59.4105   35.5267   49.8187 H   0  0  0  0  0  0  0  0  0  0  0  0
   60.5496   34.7623   48.6590 H   0  0  0  0  0  0  0  0  0  0  0  0
   58.8164   34.2902   48.6590 H   0  0  0  0  0  0  0  0  0  0  0  0
   62.1504   30.4812   49.8838 H   0  0  0  0  0  0  0  0  0  0  0  0
   64.0545   32.0685   49.9616 H   0  0  0  0  0  0  0  0  0  0  0  0
   64.2286   33.8958   48.2858 H   0  0  0  0  0  0  0  0  0  0  0  0
   62.4562   34.1902   46.5733 H   0  0  0  0  0  0  0  0  0  0  0  0
   60.0005   34.8361   46.4783 H   0  0  0  0  0  0  0  0  0  0  0  0
   60.9640   34.2335   45.0872 H   0  0  0  0  0  0  0  0  0  0  0  0
   59.1768   34.0532   45.0872 H   0  0  0  0  0  0  0  0  0  0  0  0
  1  2  1  0
  2  3  1  0
  3  4  1  0
  4  5  2  0
  5  6  1  0
  6  7  2  0
  7  8  1  0
  8  9  2  0
  9 10  1  0
 10 11  1  0
 11 12  1  0
 12 13  1  0
 13 14  1  0
 14 15  1  0
 15 16  1  0
 16 17  1  0
 17 18  1  0
 18 19  1  0
 19 20  1  0
 20 21  1  0
 21 22  1  0
 22 23  1  0
 23 24  1  0
 22 25  1  0
 25 26  1  0
 10 27  2  0
 27 28  1  0
 28 29  2  0
 29 30  1  0
 30 31  2  0
 31 32  1  0
 32 33  2  0
 33 34  1  0
  9  4  1  0
 32 27  1  0
 33  8  1  0
  1 35  1  0
  1 36  1  0
  1 37  1  0
  2 38  1  0
  2 39  1  0
  5 40  1  0
  6 41  1  0
  7 42  1  0
 11 43  1  0
 11 44  1  0
 12 45  1  0
 12 46  1  0
 13 47  1  0
 13 48  1  0
 14 49  1  0
 14 50  1  0
 16 51  1  0
 16 52  1  0
 17 53  1  0
 17 54  1  0
 18 55  1  0
 18 56  1  0
 20 57  1  0
 20 58  1  0
 21 59  1  0
 21 60  1  0
 23 61  1  0
 23 62  1  0
 24 63  1  0
 24 64  1  0
 24 65  1  0
 25 66  1  0
 25 67  1  0
 26 68  1  0
 26 69  1  0
 26 70  1  0
 28 71  1  0
 29 72  1  0
 30 73  1  0
 31 74  1  0
 34 75  1  0
 34 76  1  0
 34 77  1  0
M  CHG  2  11   1  33   1
M  END
>  <UniqueID>  (2) 
2

>  <SMILES>  (2) 
CCOc1cccc2c1c([NH2+]CCCOCCCOCCN(CC)CC)c1ccccc1[n+]2C

>  <Energy>  (2) 
107.86726985992323

>  <Genealogy>  (2) 
CCOc1cccc2c1c([NH2+]CCCOCCCOCCN(CC)CC)c1ccccc1[n+]2C (protonated)
CCOc1cccc2c1c([NH2+]CCCOCCCOCCN(CC)CC)c1ccccc1[n+]2C (3D coordinates assigned)
CCOc1cccc2c1c([NH2+]CCCOCCCOCCN(CC)CC)c1ccccc1[n+]2C (optimized conformer: 107.86726985992323 kcal/mol)

>  <smiles>  (2) 
CCOc1cccc2c1c(NCCCOCCCOCCN(CC)CC)c1ccccc1[n+]2C

>  <score_type>  (2) 
oracle

>  <origin>  (2) 
adg

>  <m_score__min__energy>  (2) 
-4.04

>  <m_primary>  (2) 
energy

$$$$
2:0
     RDKit          3D

 69 71  0  0  0  0  0  0  0  0999 V2000
   63.0740   33.7960   46.5400 C   0  0  0  0  0  0  0  0  0  0  0  0
   62.6450   32.6690   47.4870 C   0  0  0  0  0  0  0  0  0  0  0  0
   63.0630   32.9290   48.8890 N   0  0  2  0  0  0  0  0  0  0  0  0
   62.6870   34.3050   49.2720 C   0  0  0  0  0  0  0  0  0  0  0  0
   64.5290   32.7270   49.0630 C   0  0  0  0  0  0  0  0  0  0  0  0
   64.8680   32.0830   50.4140 C   0  0  0  0  0  0  0  0  0  0  0  0
   63.7900   32.2770   51.3090 O   0  0  0  0  0  0  0  0  0  0  0  0
   63.3560   31.0440   51.8500 C   0  0  0  0  0  0  0  0  0  0  0  0
   62.5740   30.2630   50.7890 C   0  0  0  0  0  0  0  0  0  0  0  0
   61.2550   30.8880   50.5360 N   0  0  0  0  0  0  0  0  0  0  0  0
   61.0010   31.9730   51.5020 C   0  0  0  0  0  0  0  0  0  0  0  0
   60.1730   29.8810   50.6100 C   0  0  0  0  0  0  0  0  0  0  0  0
   59.2010   30.0590   49.4360 C   0  0  0  0  0  0  0  0  0  0  0  0
   59.8540   30.7190   48.3040 N   0  0  0  0  0  0  0  0  0  0  0  0
   59.2420   30.8120   47.0050 C   0  0  0  0  0  0  0  0  0  0  0  0
   58.9850   29.6550   46.2540 C   0  0  0  0  0  0  0  0  0  0  0  0
   58.4710   29.7710   44.9500 C   0  0  0  0  0  0  0  0  0  0  0  0
   58.0670   30.9940   44.4580 N   0  0  0  0  0  0  0  0  0  0  0  0
   57.2670   31.0540   43.2160 C   0  0  0  0  0  0  0  0  0  0  0  0
   58.3870   32.1510   45.1470 C   0  0  0  0  0  0  0  0  0  0  0  0
   58.2050   33.4360   44.5740 C   0  0  0  0  0  0  0  0  0  0  0  0
   58.4990   34.5940   45.2970 C   0  0  0  0  0  0  0  0  0  0  0  0
   58.9930   34.5040   46.5920 C   0  0  0  0  0  0  0  0  0  0  0  0
   59.2230   33.2570   47.1670 C   0  0  0  0  0  0  0  0  0  0  0  0
   58.9470   32.0720   46.4520 C   0  0  0  0  0  0  0  0  0  0  0  0
   58.4620   28.4930   44.1260 C   0  0  0  0  0  0  0  0  0  0  0  0
   57.7590   27.3590   44.8860 C   0  0  0  0  0  0  0  0  0  0  0  0
   58.1130   27.3050   46.3930 C   0  0  0  0  0  0  0  0  0  0  0  0
   59.2410   28.2670   46.8030 C   0  0  0  0  0  0  0  0  0  0  0  0
   63.4045   34.6641   47.1292 H   0  0  0  0  0  0  0  0  0  0  0  0
   63.9020   33.4467   45.9057 H   0  0  0  0  0  0  0  0  0  0  0  0
   62.2233   34.0857   45.9057 H   0  0  0  0  0  0  0  0  0  0  0  0
   61.5494   32.5761   47.4547 H   0  0  0  0  0  0  0  0  0  0  0  0
   63.1336   31.7415   47.1538 H   0  0  0  0  0  0  0  0  0  0  0  0
   62.5330   32.2810   49.5220 H   0  0  0  0  0  0  0  0  0  0  0  0
   62.6645   34.3872   50.3687 H   0  0  0  0  0  0  0  0  0  0  0  0
   63.4246   35.0131   48.8663 H   0  0  0  0  0  0  0  0  0  0  0  0
   61.6918   34.5396   48.8663 H   0  0  0  0  0  0  0  0  0  0  0  0
   64.8949   32.0737   48.2572 H   0  0  0  0  0  0  0  0  0  0  0  0
   65.0129   33.7142   49.0281 H   0  0  0  0  0  0  0  0  0  0  0  0
   65.0401   31.0056   50.2744 H   0  0  0  0  0  0  0  0  0  0  0  0
   65.7762   32.5474   50.8256 H   0  0  0  0  0  0  0  0  0  0  0  0
   64.2297   30.4559   52.1673 H   0  0  0  0  0  0  0  0  0  0  0  0
   62.7054   31.2344   52.7163 H   0  0  0  0  0  0  0  0  0  0  0  0
   63.1517   30.2502   49.8530 H   0  0  0  0  0  0  0  0  0  0  0  0
   62.4123   29.2385   51.1556 H   0  0  0  0  0  0  0  0  0  0  0  0
   61.0927   31.5813   52.5258 H   0  0  0  0  0  0  0  0  0  0  0  0
   61.7349   32.7782   51.3504 H   0  0  0  0  0  0  0  0  0  0  0  0
   59.9859   32.3688   51.3504 H   0  0  0  0  0  0  0  0  0  0  0  0
   60.6115   28.8730   50.5688 H   0  0  0  0  0  0  0  0  0  0  0  0
   59.6236   30.0137   51.5537 H   0  0  0  0  0  0  0  0  0  0  0  0
   58.8403   29.0704   49.1157 H   0  0  0  0  0  0  0  0  0  0  0  0
   58.3627   30.6880   49.7699 H   0  0  0  0  0  0  0  0  0  0  0  0
   60.8540   31.0090   48.4040 H   0  0  0  0  0  0  0  0  0  0  0  0
   56.1999   31.1340   43.4707 H   0  0  0  0  0  0  0  0  0  0  0  0
   57.5701   31.9319   42.6266 H   0  0  0  0  0  0  0  0  0  0  0  0
   57.4358   30.1407   42.6266 H   0  0  0  0  0  0  0  0  0  0  0  0
   57.8266   33.5215   43.5447 H   0  0  0  0  0  0  0  0  0  0  0  0
   58.3387   35.5813   44.8391 H   0  0  0  0  0  0  0  0  0  0  0  0
   59.2029   35.4196   47.1644 H   0  0  0  0  0  0  0  0  0  0  0  0
   59.6241   33.1948   48.1894 H   0  0  0  0  0  0  0  0  0  0  0  0
   57.9306   28.6772   43.1807 H   0  0  0  0  0  0  0  0  0  0  0  0
   59.5019   28.1934   43.9287 H   0  0  0  0  0  0  0  0  0  0  0  0
   56.6721   27.4982   44.7896 H   0  0  0  0  0  0  0  0  0  0  0  0
   58.1027   26.4133   44.4414 H   0  0  0  0  0  0  0  0  0  0  0  0
   57.2122   27.5616   46.9698 H   0  0  0  0  0  0  0  0  0  0  0  0
   58.4712   26.2859   46.6006 H   0  0  0  0  0  0  0  0  0  0  0  0
   59.2926   28.3164   47.9007 H   0  0  0  0  0  0  0  0  0  0  0  0
   60.1912   27.8938   46.3934 H   0  0  0  0  0  0  0  0  0  0  0  0
  1  2  1  0
  2  3  1  0
  3  4  1  0
  3  5  1  0
  5  6  1  0
  6  7  1  0
  7  8  1  0
  8  9  1  0
  9 10  1  0
 10 11  1  0
 10 12  1  0
 12 13  1  0
 13 14  1  0
 14 15  1  0
 15 16  2  0
 16 17  1  0
 17 18  2  0
 18 19  1  0
 18 20  1  0
 20 21  2  0
 21 22  1  0
 22 23  2  0
 23 24  1  0
 24 25  2  0
 17 26  1  0
 26 27  1  0
 27 28  1  0
 28 29  1  0
 25 15  1  0
 29 16  1  0
 25 20  1  0
  1 30  1  0
  1 31  1  0
  1 32  1  0
  2 33  1  0
  2 34  1  0
  3 35  1  1
  4 36  1  0
  4 37  1  0
  4 38  1  0
  5 39  1  0
  5 40  1  0
  6 41  1  0
  6 42  1  0
  8 43  1  0
  8 44  1  0
  9 45  1  0
  9 46  1  0
 11 47  1  0
 11 48  1  0
 11 49  1  0
 12 50  1  0
 12 51  1  0
 13 52  1  0
 13 53  1  0
 14 54  1  0
 19 55  1  0
 19 56  1  0
 19 57  1  0
 21 58  1  0
 22 59  1  0
 23 60  1  0
 24 61  1  0
 26 62  1  0
 26 63  1  0
 27 64  1  0
 27 65  1  0
 28 66  1  0
 28 67  1  0
 29 68  1  0
 29 69  1  0
M  CHG  2   3   1  18   1
M  END
>  <UniqueID>  (3) 
3

>  <SMILES>  (3) 
CC[N@H+](C)CCOCCN(C)CCNc1c2c([n+](C)c3ccccc13)CCCC2

>  <Energy>  (3) 
96.44830018950726

>  <Genealogy>  (3) 
CC[NH+](C)CCOCCN(C)CCNc1c2c([n+](C)c3ccccc13)CCCC2 (protonated)
CC[N@H+](C)CCOCCN(C)CCNc1c2c([n+](C)c3ccccc13)CCCC2 (chirality)
CC[N@H+](C)CCOCCN(C)CCNc1c2c([n+](C)c3ccccc13)CCCC2 (3D coordinates assigned)
CC[N@H+](C)CCOCCN(C)CCNc1c2c([n+](C)c3ccccc13)CCCC2 (nonaromatic ring conformer: 96.44830018950726 kcal/mol)

>  <smiles>  (3) 
CCN(C)CCOCCN(C)CCNc1c2c([n+](C)c3ccccc13)CCCC2

>  <score_type>  (3) 
oracle

>  <origin>  (3) 
adg

>  <m_score__min__energy>  (3) 
-4.4000000000000004

>  <m_primary>  (3) 
energy

$$$$
3:0
     RDKit          3D

 41 41  0  0  0  0  0  0  0  0999 V2000
   56.6175   32.7481   44.0128 H   0  0  0  0  0  0  0  0  0  0  0  0
   57.0400   32.0360   44.7370 C   0  0  0  0  0  0  0  0  0  0  0  0
   56.5290   30.8490   44.8290 N   0  0  0  0  0  0  0  0  0  0  0  0
   55.7510   30.2390   43.7570 C   0  0  0  0  0  0  0  0  0  0  0  0
   55.3612   31.0264   43.0952 H   0  0  0  0  0  0  0  0  0  0  0  0
   54.9145   29.6728   44.1925 H   0  0  0  0  0  0  0  0  0  0  0  0
   56.6380   29.2880   42.9480 C   0  0  0  0  0  0  0  0  0  0  0  0
   56.9521   29.7915   42.0218 H   0  0  0  0  0  0  0  0  0  0  0  0
   56.0583   28.3813   42.7201 H   0  0  0  0  0  0  0  0  0  0  0  0
   57.8370   28.8950   43.7120 N   0  0  0  0  0  0  0  0  0  0  0  0
   57.6760   29.0300   44.7370 H   0  0  0  0  0  0  0  0  0  0  0  0
   58.6260   29.5210   43.4280 H   0  0  0  0  0  0  0  0  0  0  0  0
   58.2350   27.5010   43.4330 C   0  0  0  0  0  0  0  0  0  0  0  0
   59.3012   27.4875   43.1626 H   0  0  0  0  0  0  0  0  0  0  0  0
   57.6007   27.1338   42.6127 H   0  0  0  0  0  0  0  0  0  0  0  0
   58.0210   26.5640   44.6400 C   0  0  0  0  0  0  0  0  0  0  0  0
   57.3528   27.0614   45.3584 H   0  0  0  0  0  0  0  0  0  0  0  0
   59.0073   26.3569   45.0809 H   0  0  0  0  0  0  0  0  0  0  0  0
   57.4010   25.2250   44.2400 C   0  0  0  0  0  0  0  0  0  0  0  0
   57.1383   24.6576   45.1450 H   0  0  0  0  0  0  0  0  0  0  0  0
   56.4943   25.4044   43.6436 H   0  0  0  0  0  0  0  0  0  0  0  0
   58.1243   24.6496   43.6436 H   0  0  0  0  0  0  0  0  0  0  0  0
   58.1810   32.4570   45.5850 C   0  0  0  0  0  0  0  0  0  0  0  0
   58.1760   33.7660   46.0920 C   0  0  0  0  0  0  0  0  0  0  0  0
   57.3358   34.4360   45.8571 H   0  0  0  0  0  0  0  0  0  0  0  0
   59.2230   34.2280   46.8900 C   0  0  0  0  0  0  0  0  0  0  0  0
   59.2031   35.2574   47.2773 H   0  0  0  0  0  0  0  0  0  0  0  0
   60.3020   33.3850   47.2010 C   0  0  0  0  0  0  0  0  0  0  0  0
   61.3790   33.8040   47.9980 O   0  0  0  0  0  0  0  0  0  0  0  0
   62.7430   33.4910   47.7360 C   0  0  0  0  0  0  0  0  0  0  0  0
   63.2803   33.3677   48.6879 H   0  0  0  0  0  0  0  0  0  0  0  0
   62.8004   32.5563   47.1588 H   0  0  0  0  0  0  0  0  0  0  0  0
   63.2021   34.3071   47.1588 H   0  0  0  0  0  0  0  0  0  0  0  0
   60.3130   32.0780   46.7040 C   0  0  0  0  0  0  0  0  0  0  0  0
   61.1561   31.4143   46.9463 H   0  0  0  0  0  0  0  0  0  0  0  0
   59.2620   31.5970   45.8980 C   0  0  0  0  0  0  0  0  0  0  0  0
   59.2670   30.2800   45.4070 O   0  0  0  0  0  0  0  0  0  0  0  0
   60.3050   29.3300   45.6270 C   0  0  0  0  0  0  0  0  0  0  0  0
   60.4541   29.1936   46.7083 H   0  0  0  0  0  0  0  0  0  0  0  0
   60.0250   28.3688   45.1713 H   0  0  0  0  0  0  0  0  0  0  0  0
   61.2377   29.6939   45.1713 H   0  0  0  0  0  0  0  0  0  0  0  0
  1  2  1  0
  2  3  2  0
  3  4  1  0
  4  5  1  0
  4  6  1  0
  4  7  1  0
  7  8  1  0
  7  9  1  0
  7 10  1  0
 10 11  1  0
 10 12  1  0
 10 13  1  0
 13 14  1  0
 13 15  1  0
 13 16  1  0
 16 17  1  0
 16 18  1  0
 16 19  1  0
 19 20  1  0
 19 21  1  0
 19 22  1  0
  2 23  1  0
 23 24  2  0
 24 25  1  0
 24 26  1  0
 26 27  1  0
 26 28  2  0
 28 29  1  0
 29 30  1  0
 30 31  1  0
 30 32  1  0
 30 33  1  0
 28 34  1  0
 34 35  1  0
 34 36  2  0
 36 37  1  0
 37 38  1  0
 38 39  1  0
 38 40  1  0
 38 41  1  0
 36 23  1  0
M  CHG  1  10   1
M  END
>  <UniqueID>  (4) 
4

>  <SMILES>  (4) 
CCC[NH2+]CC/N=C/c1ccc(OC)cc1OC

>  <Energy>  (4) 
30.799529328793405

>  <Genealogy>  (4) 
CCC[NH2+]CCN=Cc1ccc(OC)cc1OC (protonated)
CCC[NH2+]CC/N=C/c1ccc(OC)cc1OC (cis-trans isomerization)
CCC[NH2+]CC/N=C/c1ccc(OC)cc1OC (3D coordinates assigned)
CCC[NH2+]CC/N=C/c1ccc(OC)cc1OC (optimized conformer: 30.799529328793405 kcal/mol)

>  <smiles>  (4) 
CCCNCCN=Cc1ccc(OC)cc1OC

>  <score_type>  (4) 
oracle

>  <origin>  (4) 
adg

>  <m_score__min__energy>  (4) 
-3.0299999999999998

>  <m_primary>  (4) 
energy

$$$$
4:0
     RDKit          3D

 81 83  0  0  0  0  0  0  0  0999 V2000
   63.3130   33.8130   46.5870 C   0  0  0  0  0  0  0  0  0  0  0  0
   63.0700   32.5400   47.4100 C   0  0  0  0  0  0  0  0  0  0  0  0
   63.0430   32.7550   48.8760 N   0  0  0  0  0  0  0  0  0  0  0  0
   64.2310   33.4290   49.4470 C   0  0  0  0  0  0  0  0  0  0  0  0
   65.2130   32.4260   50.0510 C   0  0  0  0  0  0  0  0  0  0  0  0
   62.4440   31.6560   49.6740 C   0  0  0  0  0  0  0  0  0  0  0  0
   61.5140   32.1040   50.8110 C   0  0  0  0  0  0  0  0  0  0  0  0
   61.3200   33.5000   50.7630 O   0  0  0  0  0  0  0  0  0  0  0  0
   60.1120   33.8380   51.4090 C   0  0  0  0  0  0  0  0  0  0  0  0
   59.6370   32.6570   52.2600 C   0  0  0  0  0  0  0  0  0  0  0  0
   58.1080   32.6050   52.4770 C   0  0  0  0  0  0  0  0  0  0  0  0
   57.3470   31.9220   51.4120 N   0  0  0  0  0  0  0  0  0  0  0  0
   57.9700   31.9720   50.0810 C   0  0  0  0  0  0  0  0  0  0  0  0
   58.5320   30.6060   49.6710 C   0  0  0  0  0  0  0  0  0  0  0  0
   59.5710   30.7750   48.6590 N   0  0  0  0  0  0  0  0  0  0  0  0
   59.2380   31.2400   47.3400 C   0  0  0  0  0  0  0  0  0  0  0  0
   59.3410   32.6060   47.0290 C   0  0  0  0  0  0  0  0  0  0  0  0
   59.8840   33.5190   47.9580 C   0  0  0  0  0  0  0  0  0  0  0  0
   60.0280   34.8650   47.6330 C   0  0  0  0  0  0  0  0  0  0  0  0
   59.6510   35.3210   46.3740 C   0  0  0  0  0  0  0  0  0  0  0  0
   59.1120   34.4360   45.4400 C   0  0  0  0  0  0  0  0  0  0  0  0
   58.9150   33.0670   45.7560 C   0  0  0  0  0  0  0  0  0  0  0  0
   58.3380   32.1890   44.8570 N   0  0  0  0  0  0  0  0  0  0  0  0
   57.6170   32.7070   43.6750 C   0  0  0  0  0  0  0  0  0  0  0  0
   58.4030   30.8260   45.0850 C   0  0  0  0  0  0  0  0  0  0  0  0
   58.0590   29.8860   44.0840 C   0  0  0  0  0  0  0  0  0  0  0  0
   58.0500   28.5180   44.3490 C   0  0  0  0  0  0  0  0  0  0  0  0
   58.4020   28.0340   45.6140 C   0  0  0  0  0  0  0  0  0  0  0  0
   58.3310   26.6190   45.9070 N   0  0  0  0  0  0  0  0  0  0  0  0
   59.3050   26.0010   46.8170 C   0  0  0  0  0  0  0  0  0  0  0  0
   60.7350   26.3390   46.4020 C   0  0  0  0  0  0  0  0  0  0  0  0
   57.2920   25.7810   45.2890 C   0  0  0  0  0  0  0  0  0  0  0  0
   55.9730   25.8990   46.0480 C   0  0  0  0  0  0  0  0  0  0  0  0
   58.8140   28.9450   46.5950 C   0  0  0  0  0  0  0  0  0  0  0  0
   58.8280   30.3330   46.3460 C   0  0  0  0  0  0  0  0  0  0  0  0
   63.4753   34.6631   47.2659 H   0  0  0  0  0  0  0  0  0  0  0  0
   64.2011   33.6756   45.9527 H   0  0  0  0  0  0  0  0  0  0  0  0
   62.4367   34.0124   45.9527 H   0  0  0  0  0  0  0  0  0  0  0  0
   62.1023   32.1138   47.1069 H   0  0  0  0  0  0  0  0  0  0  0  0
   63.9169   31.8681   47.2067 H   0  0  0  0  0  0  0  0  0  0  0  0
   64.7400   33.9906   48.6498 H   0  0  0  0  0  0  0  0  0  0  0  0
   63.8918   34.1023   50.2480 H   0  0  0  0  0  0  0  0  0  0  0  0
   65.1618   32.4782   51.1486 H   0  0  0  0  0  0  0  0  0  0  0  0
   64.9502   31.4105   49.7196 H   0  0  0  0  0  0  0  0  0  0  0  0
   66.2338   32.6672   49.7196 H   0  0  0  0  0  0  0  0  0  0  0  0
   61.8638   31.0174   48.9917 H   0  0  0  0  0  0  0  0  0  0  0  0
   63.2850   31.1354   50.1553 H   0  0  0  0  0  0  0  0  0  0  0  0
   60.5426   31.5988   50.7057 H   0  0  0  0  0  0  0  0  0  0  0  0
   61.9737   31.8394   51.7747 H   0  0  0  0  0  0  0  0  0  0  0  0
   60.2749   34.7130   52.0554 H   0  0  0  0  0  0  0  0  0  0  0  0
   59.3479   34.0752   50.6541 H   0  0  0  0  0  0  0  0  0  0  0  0
   59.9462   31.7265   51.7614 H   0  0  0  0  0  0  0  0  0  0  0  0
   60.0925   32.7808   53.2536 H   0  0  0  0  0  0  0  0  0  0  0  0
   57.9159   32.0791   53.4239 H   0  0  0  0  0  0  0  0  0  0  0  0
   57.7631   33.6495   52.4781 H   0  0  0  0  0  0  0  0  0  0  0  0
   56.3850   32.3310   51.3560 H   0  0  0  0  0  0  0  0  0  0  0  0
   57.2146   32.2832   49.3444 H   0  0  0  0  0  0  0  0  0  0  0  0
   58.8022   32.6905   50.1167 H   0  0  0  0  0  0  0  0  0  0  0  0
   58.9610   30.1091   50.5536 H   0  0  0  0  0  0  0  0  0  0  0  0
   57.7196   29.9924   49.2545 H   0  0  0  0  0  0  0  0  0  0  0  0
   60.4980   30.3170   48.8160 H   0  0  0  0  0  0  0  0  0  0  0  0
   60.1971   33.1630   48.9506 H   0  0  0  0  0  0  0  0  0  0  0  0
   60.4400   35.5681   48.3719 H   0  0  0  0  0  0  0  0  0  0  0  0
   59.7782   36.3823   46.1142 H   0  0  0  0  0  0  0  0  0  0  0  0
   58.8351   34.8058   44.4417 H   0  0  0  0  0  0  0  0  0  0  0  0
   56.7647   33.3193   44.0047 H   0  0  0  0  0  0  0  0  0  0  0  0
   58.2989   33.3230   43.0704 H   0  0  0  0  0  0  0  0  0  0  0  0
   57.2508   31.8642   43.0704 H   0  0  0  0  0  0  0  0  0  0  0  0
   57.7937   30.2423   43.0777 H   0  0  0  0  0  0  0  0  0  0  0  0
   57.7634   27.8116   43.5560 H   0  0  0  0  0  0  0  0  0  0  0  0
   59.1295   26.3725   47.8374 H   0  0  0  0  0  0  0  0  0  0  0  0
   59.1778   24.9091   46.7764 H   0  0  0  0  0  0  0  0  0  0  0  0
   61.3527   26.4850   47.3004 H   0  0  0  0  0  0  0  0  0  0  0  0
   61.1478   25.5137   45.8033 H   0  0  0  0  0  0  0  0  0  0  0  0
   60.7346   27.2618   45.8033 H   0  0  0  0  0  0  0  0  0  0  0  0
   57.1392   26.1055   44.2491 H   0  0  0  0  0  0  0  0  0  0  0  0
   57.6223   24.7322   45.3201 H   0  0  0  0  0  0  0  0  0  0  0  0
   56.1698   25.8814   47.1301 H   0  0  0  0  0  0  0  0  0  0  0  0
   55.4793   26.8449   45.7804 H   0  0  0  0  0  0  0  0  0  0  0  0
   55.3193   25.0558   45.7804 H   0  0  0  0  0  0  0  0  0  0  0  0
   59.1329   28.5704   47.5789 H   0  0  0  0  0  0  0  0  0  0  0  0
  1  2  1  0
  2  3  1  0
  3  4  1  0
  4  5  1  0
  3  6  1  0
  6  7  1  0
  7  8  1  0
  8  9  1  0
  9 10  1  0
 10 11  1  0
 11 12  1  0
 12 13  1  0
 13 14  1  0
 14 15  1  0
 15 16  1  0
 16 17  2  0
 17 18  1  0
 18 19  2  0
 19 20  1  0
 20 21  2  0
 21 22  1  0
 22 23  2  0
 23 24  1  0
 23 25  1  0
 25 26  2  0
 26 27  1  0
 27 28  2  0
 28 29  1  0
 29 30  1  0
 30 31  1  0
 29 32  1  0
 32 33  1  0
 28 34  1  0
 34 35  2  0
 35 16  1  0
 22 17  1  0
 35 25  1  0
  1 36  1  0
  1 37  1  0
  1 38  1  0
  2 39  1  0
  2 40  1  0
  4 41  1  0
  4 42  1  0
  5 43  1  0
  5 44  1  0
  5 45  1  0
  6 46  1  0
  6 47  1  0
  7 48  1  0
  7 49  1  0
  9 50  1  0
  9 51  1  0
 10 52  1  0
 10 53  1  0
 11 54  1  0
 11 55  1  0
 12 56  1  0
 13 57  1  0
 13 58  1  0
 14 59  1  0
 14 60  1  0
 15 61  1  0
 18 62  1  0
 19 63  1  0
 20 64  1  0
 21 65  1  0
 24 66  1  0
 24 67  1  0
 24 68  1  0
 26 69  1  0
 27 70  1  0
 30 71  1  0
 30 72  1  0
 31 73  1  0
 31 74  1  0
 31 75  1  0
 32 76  1  0
 32 77  1  0
 33 78  1  0
 33 79  1  0
 33 80  1  0
 34 81  1  0
M  CHG  1  23   1
M  END
>  <UniqueID>  (5) 
5

>  <SMILES>  (5) 
CCN(CC)CCOCCCNCCNc1c2ccccc2[n+](C)c2ccc(N(CC)CC)cc12

>  <Energy>  (5) 
106.47796650023977

>  <Genealogy>  (5) 
CCN(CC)CCOCCCNCCNc1c2ccccc2[n+](C)c2ccc(N(CC)CC)cc12 (3D coordinates assigned)
CCN(CC)CCOCCCNCCNc1c2ccccc2[n+](C)c2ccc(N(CC)CC)cc12 (optimized conformer: 106.47796650023977 kcal/mol)

>  <smiles>  (5) 
CCN(CC)CCOCCCNCCNc1c2ccccc2[n+](C)c2ccc(N(CC)CC)cc12

>  <score_type>  (5) 
oracle

>  <origin>  (5) 
adg

>  <m_score__min__energy>  (5) 
-6.2000000000000002

>  <m_primary>  (5) 
energy

$$$$
5:0
     RDKit          3D

 86 89  0  0  0  0  0  0  0  0999 V2000
   58.1490   27.4080   43.4580 C   0  0  0  0  0  0  0  0  0  0  0  0
   57.6530   27.4600   44.9030 C   0  0  0  0  0  0  0  0  0  0  0  0
   58.7860   27.5270   45.8530 N   0  0  0  0  0  0  0  0  0  0  0  0
   58.7940   26.4440   46.8610 C   0  0  0  0  0  0  0  0  0  0  0  0
   59.7100   26.7230   48.0540 C   0  0  0  0  0  0  0  0  0  0  0  0
   60.1190   27.8860   45.3040 C   0  0  0  0  0  0  0  0  0  0  0  0
   60.7680   29.1390   45.9360 C   0  0  0  0  0  0  0  0  0  0  0  0
   59.9800   29.6600   47.0750 N   0  0  0  0  0  0  0  0  0  0  0  0
   59.8290   31.1120   47.0140 C   0  0  0  0  0  0  0  0  0  0  0  0
   59.0770   31.7070   45.9520 C   0  0  0  0  0  0  0  0  0  0  0  0
   58.4750   30.9420   44.9120 C   0  0  0  0  0  0  0  0  0  0  0  0
   57.6550   31.5320   43.9540 C   0  0  0  0  0  0  0  0  0  0  0  0
   57.4050   32.8910   43.9960 C   0  0  0  0  0  0  0  0  0  0  0  0
   58.0220   33.6780   44.9610 C   0  0  0  0  0  0  0  0  0  0  0  0
   58.9120   33.1170   45.9140 C   0  0  0  0  0  0  0  0  0  0  0  0
   59.6040   33.9210   46.7880 N   0  0  0  0  0  0  0  0  0  0  0  0
   59.7370   35.3700   46.5010 C   0  0  0  0  0  0  0  0  0  0  0  0
   60.2140   33.3810   47.9000 C   0  0  0  0  0  0  0  0  0  0  0  0
   60.6530   34.2290   48.9420 C   0  0  0  0  0  0  0  0  0  0  0  0
   61.3750   33.7480   50.0140 C   0  0  0  0  0  0  0  0  0  0  0  0
   61.6630   32.3920   50.1190 C   0  0  0  0  0  0  0  0  0  0  0  0
   62.4930   31.9080   51.1450 O   0  0  0  0  0  0  0  0  0  0  0  0
   63.6630   31.1090   50.9850 C   0  0  0  0  0  0  0  0  0  0  0  0
   64.9130   31.7340   51.6610 C   0  0  0  0  0  0  0  0  0  0  0  0
   65.6580   32.7720   50.8690 N   0  0  0  0  0  0  0  0  0  0  0  0
   64.9690   33.0080   49.5710 C   0  0  0  0  0  0  0  0  0  0  0  0
   65.6260   34.0630   51.6430 C   0  0  0  0  0  0  0  0  0  0  0  0
   66.8650   34.2470   52.5440 C   0  0  0  0  0  0  0  0  0  0  0  0
   68.1340   34.3130   51.7500 N   0  0  0  0  0  0  0  0  0  0  0  0
   69.2490   33.8010   52.5850 C   0  0  0  0  0  0  0  0  0  0  0  0
   68.4360   35.7260   51.4060 C   0  0  0  0  0  0  0  0  0  0  0  0
   68.0440   33.5150   50.4850 C   0  0  0  0  0  0  0  0  0  0  0  0
   67.0700   32.3290   50.6190 C   0  0  0  0  0  0  0  0  0  0  0  0
   61.1290   31.4820   49.1760 C   0  0  0  0  0  0  0  0  0  0  0  0
   61.3590   30.1070   49.3470 O   0  0  0  0  0  0  0  0  0  0  0  0
   60.8900   29.2930   50.4190 C   0  0  0  0  0  0  0  0  0  0  0  0
   60.3930   31.9680   48.0310 C   0  0  0  0  0  0  0  0  0  0  0  0
   59.2430   27.2933   43.4497 H   0  0  0  0  0  0  0  0  0  0  0  0
   57.6868   26.5534   42.9422 H   0  0  0  0  0  0  0  0  0  0  0  0
   57.8741   28.3399   42.9422 H   0  0  0  0  0  0  0  0  0  0  0  0
   57.0210   28.3507   45.0341 H   0  0  0  0  0  0  0  0  0  0  0  0
   57.0784   26.5448   45.1084 H   0  0  0  0  0  0  0  0  0  0  0  0
   57.7682   26.3093   47.2345 H   0  0  0  0  0  0  0  0  0  0  0  0
   59.1801   25.5427   46.3624 H   0  0  0  0  0  0  0  0  0  0  0  0
   59.1559   26.5542   48.9891 H   0  0  0  0  0  0  0  0  0  0  0  0
   60.5781   26.0485   48.0154 H   0  0  0  0  0  0  0  0  0  0  0  0
   60.0547   27.7669   48.0154 H   0  0  0  0  0  0  0  0  0  0  0  0
   60.7953   27.0334   45.4642 H   0  0  0  0  0  0  0  0  0  0  0  0
   59.9611   28.1233   44.2416 H   0  0  0  0  0  0  0  0  0  0  0  0
   61.7747   28.8754   46.2924 H   0  0  0  0  0  0  0  0  0  0  0  0
   60.8096   29.9235   45.1661 H   0  0  0  0  0  0  0  0  0  0  0  0
   60.3990   29.3850   47.9870 H   0  0  0  0  0  0  0  0  0  0  0  0
   59.0830   29.1440   47.1470 H   0  0  0  0  0  0  0  0  0  0  0  0
   58.6625   29.8591   44.8647 H   0  0  0  0  0  0  0  0  0  0  0  0
   57.2050   30.9155   43.1619 H   0  0  0  0  0  0  0  0  0  0  0  0
   56.7194   33.3483   43.2674 H   0  0  0  0  0  0  0  0  0  0  0  0
   57.8164   34.7583   44.9869 H   0  0  0  0  0  0  0  0  0  0  0  0
   59.7882   35.9281   47.4475 H   0  0  0  0  0  0  0  0  0  0  0  0
   60.6551   35.5462   45.9213 H   0  0  0  0  0  0  0  0  0  0  0  0
   58.8663   35.7104   45.9213 H   0  0  0  0  0  0  0  0  0  0  0  0
   60.4123   35.3014   48.8967 H   0  0  0  0  0  0  0  0  0  0  0  0
   61.7256   34.4424   50.7917 H   0  0  0  0  0  0  0  0  0  0  0  0
   63.4782   30.1211   51.4321 H   0  0  0  0  0  0  0  0  0  0  0  0
   63.8702   31.0357   49.9072 H   0  0  0  0  0  0  0  0  0  0  0  0
   64.5850   32.2029   52.6005 H   0  0  0  0  0  0  0  0  0  0  0  0
   65.6212   30.9018   51.7871 H   0  0  0  0  0  0  0  0  0  0  0  0
   63.9436   33.3592   49.7587 H   0  0  0  0  0  0  0  0  0  0  0  0
   65.5181   33.7693   48.9975 H   0  0  0  0  0  0  0  0  0  0  0  0
   64.9360   32.0699   48.9975 H   0  0  0  0  0  0  0  0  0  0  0  0
   65.5815   34.8997   50.9303 H   0  0  0  0  0  0  0  0  0  0  0  0
   64.7409   34.0376   52.2957 H   0  0  0  0  0  0  0  0  0  0  0  0
   66.7539   35.1815   53.1135 H   0  0  0  0  0  0  0  0  0  0  0  0
   66.9292   33.3768   53.2138 H   0  0  0  0  0  0  0  0  0  0  0  0
   68.9942   33.9180   53.6487 H   0  0  0  0  0  0  0  0  0  0  0  0
   69.4148   32.7366   52.3626 H   0  0  0  0  0  0  0  0  0  0  0  0
   70.1644   34.3690   52.3626 H   0  0  0  0  0  0  0  0  0  0  0  0
   68.5607   36.3097   52.3300 H   0  0  0  0  0  0  0  0  0  0  0  0
   69.3638   35.7697   50.8166 H   0  0  0  0  0  0  0  0  0  0  0  0
   67.6071   36.1451   50.8166 H   0  0  0  0  0  0  0  0  0  0  0  0
   67.6944   34.1718   49.6748 H   0  0  0  0  0  0  0  0  0  0  0  0
   69.0434   33.1109   50.2663 H   0  0  0  0  0  0  0  0  0  0  0  0
   67.0967   31.7434   49.6882 H   0  0  0  0  0  0  0  0  0  0  0  0
   67.3905   31.7285   51.4831 H   0  0  0  0  0  0  0  0  0  0  0  0
   61.1587   29.7594   51.3783 H   0  0  0  0  0  0  0  0  0  0  0  0
   59.7964   29.1941   50.3530 H   0  0  0  0  0  0  0  0  0  0  0  0
   61.3529   28.2973   50.3530 H   0  0  0  0  0  0  0  0  0  0  0  0
  1  2  1  0
  2  3  1  0
  3  4  1  0
  4  5  1  0
  3  6  1  0
  6  7  1  0
  7  8  1  0
  8  9  1  0
  9 10  2  0
 10 11  1  0
 11 12  2  0
 12 13  1  0
 13 14  2  0
 14 15  1  0
 15 16  2  0
 16 17  1  0
 16 18  1  0
 18 19  2  0
 19 20  1  0
 20 21  2  0
 21 22  1  0
 22 23  1  0
 23 24  1  0
 24 25  1  0
 25 26  1  0
 25 27  1  0
 27 28  1  0
 28 29  1  0
 29 30  1  0
 29 31  1  0
 29 32  1  0
 32 33  1  0
 21 34  1  0
 34 35  1  0
 35 36  1  0
 34 37  2  0
 37  9  1  0
 15 10  1  0
 37 18  1  0
 33 25  1  0
  1 38  1  0
  1 39  1  0
  1 40  1  0
  2 41  1  0
  2 42  1  0
  4 43  1  0
  4 44  1  0
  5 45  1  0
  5 46  1  0
  5 47  1  0
  6 48  1  0
  6 49  1  0
  7 50  1  0
  7 51  1  0
  8 52  1  0
  8 53  1  0
 11 54  1  0
 12 55  1  0
 13 56  1  0
 14 57  1  0
 17 58  1  0
 17 59  1  0
 17 60  1  0
 19 61  1  0
 20 62  1  0
 23 63  1  0
 23 64  1  0
 24 65  1  0
 24 66  1  0
 26 67  1  0
 26 68  1  0
 26 69  1  0
 27 70  1  0
 27 71  1  0
 28 72  1  0
 28 73  1  0
 30 74  1  0
 30 75  1  0
 30 76  1  0
 31 77  1  0
 31 78  1  0
 31 79  1  0
 32 80  1  0
 32 81  1  0
 33 82  1  0
 33 83  1  0
 36 84  1  0
 36 85  1  0
 36 86  1  0
M  CHG  4   8   1  16   1  25   1  29   1
M  END
>  <UniqueID>  (6) 
6

>  <SMILES>  (6) 
CCN(CC)CC[NH2+]c1c2ccccc2[n+](C)c2ccc(OCC[N+]3(C)CC[N+](C)(C)CC3)c(OC)c12

>  <Energy>  (6) 
160.9541552870849

>  <Genealogy>  (6) 
CCN(CC)CC[NH2+]c1c2ccccc2[n+](C)c2ccc(OCC[N+]3(C)CC[N+](C)(C)CC3)c(OC)c12 (protonated)
CCN(CC)CC[NH2+]c1c2ccccc2[n+](C)c2ccc(OCC[N+]3(C)CC[N+](C)(C)CC3)c(OC)c12 (3D coordinates assigned)
CCN(CC)CC[NH2+]c1c2ccccc2[n+](C)c2ccc(OCC[N+]3(C)CC[N+](C)(C)CC3)c(OC)c12 (nonaromatic ring conformer: 160.9541552870849 kcal/mol)

>  <smiles>  (6) 
CCN(CC)CCNc1c2ccccc2[n+](C)c2ccc(OCC[N+]3(C)CC[N+](C)(C)CC3)c(OC)c12

>  <score_type>  (6) 
oracle

>  <origin>  (6) 
adg

>  <m_score__min__energy>  (6) 
-1.98

>  <m_primary>  (6) 
energy

$$$$
6:0
     RDKit          3D

 57 60  0  0  0  0  0  0  0  0999 V2000
   57.6770   32.3460   51.6430 C   0  0  0  0  0  0  0  0  0  0  0  0
   56.8830   31.0430   51.6330 C   0  0  0  0  0  0  0  0  0  0  0  0
   57.7300   29.9230   51.1970 N   0  0  0  0  0  0  0  0  0  0  0  0
   59.1490   30.3080   51.1670 C   0  0  0  0  0  0  0  0  0  0  0  0
   59.9960   29.2480   50.4480 C   0  0  0  0  0  0  0  0  0  0  0  0
   60.0010   29.3930   48.9210 C   0  0  0  0  0  0  0  0  0  0  0  0
   58.7380   29.9500   48.4300 N   0  0  0  0  0  0  0  0  0  0  0  0
   58.6490   30.6860   47.1990 C   0  0  0  0  0  0  0  0  0  0  0  0
   58.8640   32.0880   47.1510 C   0  0  0  0  0  0  0  0  0  0  0  0
   59.2760   32.7990   48.2980 C   0  0  0  0  0  0  0  0  0  0  0  0
   59.4940   34.1730   48.2500 C   0  0  0  0  0  0  0  0  0  0  0  0
   59.3360   34.8640   47.0540 C   0  0  0  0  0  0  0  0  0  0  0  0
   58.9680   34.1860   45.8920 C   0  0  0  0  0  0  0  0  0  0  0  0
   58.7220   32.7900   45.9060 C   0  0  0  0  0  0  0  0  0  0  0  0
   58.3900   32.1040   44.7470 N   0  0  0  0  0  0  0  0  0  0  0  0
   58.1480   32.8130   43.4760 C   0  0  0  0  0  0  0  0  0  0  0  0
   58.3200   30.7360   44.7990 C   0  0  0  0  0  0  0  0  0  0  0  0
   58.1600   29.9020   43.7420 N   0  0  0  0  0  0  0  0  0  0  0  0
   58.1430   28.6630   44.2690 C   0  0  0  0  0  0  0  0  0  0  0  0
   58.0210   27.4670   43.5670 C   0  0  0  0  0  0  0  0  0  0  0  0
   58.0320   26.2660   44.2960 C   0  0  0  0  0  0  0  0  0  0  0  0
   58.1420   26.2860   45.7040 C   0  0  0  0  0  0  0  0  0  0  0  0
   58.1420   24.7440   46.6230 S   0  0  0  0  0  0  0  0  0  0  0  0
   57.8500   23.6700   45.1720 C   0  0  0  0  0  0  0  0  0  0  0  0
   58.9430   22.6220   45.0140 C   0  0  0  0  0  0  0  0  0  0  0  0
   58.2750   27.5090   46.3910 C   0  0  0  0  0  0  0  0  0  0  0  0
   58.2830   28.6910   45.6420 C   0  0  0  0  0  0  0  0  0  0  0  0
   58.4230   30.0320   45.9840 C   0  0  0  0  0  0  0  0  0  0  0  0
   57.8643   32.6533   52.6825 H   0  0  0  0  0  0  0  0  0  0  0  0
   58.6365   32.1947   51.1269 H   0  0  0  0  0  0  0  0  0  0  0  0
   57.1026   33.1294   51.1269 H   0  0  0  0  0  0  0  0  0  0  0  0
   56.5093   30.8398   52.6474 H   0  0  0  0  0  0  0  0  0  0  0  0
   56.0426   31.1458   50.9308 H   0  0  0  0  0  0  0  0  0  0  0  0
   57.6230   29.1670   51.9120 H   0  0  0  0  0  0  0  0  0  0  0  0
   59.2496   31.2672   50.6380 H   0  0  0  0  0  0  0  0  0  0  0  0
   59.5080   30.3973   52.2029 H   0  0  0  0  0  0  0  0  0  0  0  0
   61.0323   29.3293   50.8078 H   0  0  0  0  0  0  0  0  0  0  0  0
   59.5474   28.2699   50.6761 H   0  0  0  0  0  0  0  0  0  0  0  0
   60.8241   30.0614   48.6282 H   0  0  0  0  0  0  0  0  0  0  0  0
   60.1319   28.3938   48.4800 H   0  0  0  0  0  0  0  0  0  0  0  0
   57.8950   29.8830   49.0400 H   0  0  0  0  0  0  0  0  0  0  0  0
   59.4272   32.2593   49.2445 H   0  0  0  0  0  0  0  0  0  0  0  0
   59.7920   34.7134   49.1606 H   0  0  0  0  0  0  0  0  0  0  0  0
   59.5021   35.9510   47.0240 H   0  0  0  0  0  0  0  0  0  0  0  0
   58.8670   34.7437   44.9492 H   0  0  0  0  0  0  0  0  0  0  0  0
   57.7993   33.8347   43.6867 H   0  0  0  0  0  0  0  0  0  0  0  0
   59.0822   32.8566   42.8968 H   0  0  0  0  0  0  0  0  0  0  0  0
   57.3822   32.2763   42.8968 H   0  0  0  0  0  0  0  0  0  0  0  0
   58.1090   30.1280   42.7250 H   0  0  0  0  0  0  0  0  0  0  0  0
   57.9188   27.4624   42.4718 H   0  0  0  0  0  0  0  0  0  0  0  0
   57.9545   25.3046   43.7672 H   0  0  0  0  0  0  0  0  0  0  0  0
   56.8832   23.1601   45.2955 H   0  0  0  0  0  0  0  0  0  0  0  0
   57.8515   24.3033   44.2726 H   0  0  0  0  0  0  0  0  0  0  0  0
   59.2839   22.2951   46.0074 H   0  0  0  0  0  0  0  0  0  0  0  0
   58.5458   21.7586   44.4602 H   0  0  0  0  0  0  0  0  0  0  0  0
   59.7890   23.0551   44.4602 H   0  0  0  0  0  0  0  0  0  0  0  0
   58.3700   27.5340   47.4866 H   0  0  0  0  0  0  0  0  0  0  0  0
  1  2  1  0
  2  3  1  0
  3  4  1  0
  4  5  1  0
  5  6  1  0
  6  7  1  0
  7  8  1  0
  8  9  2  0
  9 10  1  0
 10 11  2  0
 11 12  1  0
 12 13  2  0
 13 14  1  0
 14 15  2  0
 15 16  1  0
 15 17  1  0
 17 18  1  0
 18 19  1  0
 19 20  2  0
 20 21  1  0
 21 22  2  0
 22 23  1  0
 23 24  1  0
 24 25  1  0
 22 26  1  0
 26 27  2  0
 27 28  1  0
 28  8  1  0
 14  9  1  0
 28 17  2  0
 27 19  1  0
  1 29  1  0
  1 30  1  0
  1 31  1  0
  2 32  1  0
  2 33  1  0
  3 34  1  0
  4 35  1  0
  4 36  1  0
  5 37  1  0
  5 38  1  0
  6 39  1  0
  6 40  1  0
  7 41  1  0
 10 42  1  0
 11 43  1  0
 12 44  1  0
 13 45  1  0
 16 46  1  0
 16 47  1  0
 16 48  1  0
 18 49  1  0
 20 50  1  0
 21 51  1  0
 24 52  1  0
 24 53  1  0
 25 54  1  0
 25 55  1  0
 25 56  1  0
 26 57  1  0
M  CHG  1  15   1
M  END
>  <UniqueID>  (7) 
7

>  <SMILES>  (7) 
CCNCCCNc1c2ccccc2[n+](C)c2[nH]c3ccc(SCC)cc3c12

>  <Energy>  (7) 
103.58565086698022

>  <Genealogy>  (7) 
CCNCCCNc1c2ccccc2[n+](C)c2[nH]c3ccc(SCC)cc3c12 (3D coordinates assigned)
CCNCCCNc1c2ccccc2[n+](C)c2[nH]c3ccc(SCC)cc3c12 (optimized conformer: 103.58565086698022 kcal/mol)

>  <smiles>  (7) 
CCNCCCNc1c2ccccc2[n+](C)c2[nH]c3ccc(SCC)cc3c12

>  <score_type>  (7) 
oracle

>  <origin>  (7) 
adg

>  <m_score__min__energy>  (7) 
-6.7000000000000002

>  <m_primary>  (7) 
energy

$$$$
7:0
     RDKit          3D

 65 67  0  0  0  0  0  0  0  0999 V2000
   63.3620   33.4700   46.7710 C   0  0  0  0  0  0  0  0  0  0  0  0
   62.9880   32.1920   47.5190 C   0  0  0  0  0  0  0  0  0  0  0  0
   62.5750   32.4930   48.8980 N   0  0  0  0  0  0  0  0  0  0  0  0
   63.0250   33.8370   49.2900 C   0  0  0  0  0  0  0  0  0  0  0  0
   63.4690   33.8590   50.7580 C   0  0  0  0  0  0  0  0  0  0  0  0
   63.4820   32.5440   51.2840 O   0  0  0  0  0  0  0  0  0  0  0  0
   62.3810   32.3200   52.1490 C   0  0  0  0  0  0  0  0  0  0  0  0
   61.7170   30.9760   51.8370 C   0  0  0  0  0  0  0  0  0  0  0  0
   61.2460   30.9450   50.5020 O   0  0  0  0  0  0  0  0  0  0  0  0
   61.4850   29.6880   49.8970 C   0  0  0  0  0  0  0  0  0  0  0  0
   60.7050   29.5720   48.5880 C   0  0  0  0  0  0  0  0  0  0  0  0
   59.6940   30.6260   48.4960 N   0  0  0  0  0  0  0  0  0  0  0  0
   59.1730   31.0610   47.2270 C   0  0  0  0  0  0  0  0  0  0  0  0
   58.6740   30.1010   46.3270 C   0  0  0  0  0  0  0  0  0  0  0  0
   58.5850   28.7400   46.6970 C   0  0  0  0  0  0  0  0  0  0  0  0
   58.1550   27.7780   45.7860 C   0  0  0  0  0  0  0  0  0  0  0  0
   57.8100   28.1500   44.4940 C   0  0  0  0  0  0  0  0  0  0  0  0
   57.8550   29.4910   44.1170 C   0  0  0  0  0  0  0  0  0  0  0  0
   58.2430   30.5010   45.0370 C   0  0  0  0  0  0  0  0  0  0  0  0
   58.2250   31.8370   44.6970 N   0  0  0  0  0  0  0  0  0  0  0  0
   57.5130   32.2770   43.4740 C   0  0  0  0  0  0  0  0  0  0  0  0
   58.8320   32.7720   45.5150 C   0  0  0  0  0  0  0  0  0  0  0  0
   59.0750   34.0910   45.0570 C   0  0  0  0  0  0  0  0  0  0  0  0
   59.6190   35.0530   45.8940 C   0  0  0  0  0  0  0  0  0  0  0  0
   59.9330   34.7430   47.2070 C   0  0  0  0  0  0  0  0  0  0  0  0
   59.7450   33.4410   47.7040 C   0  0  0  0  0  0  0  0  0  0  0  0
   60.0350   33.1430   49.0480 O   0  0  0  0  0  0  0  0  0  0  0  0
   59.6460   33.9040   50.1930 C   0  0  0  0  0  0  0  0  0  0  0  0
   58.9120   33.0290   51.2030 C   0  0  0  0  0  0  0  0  0  0  0  0
   59.2490   32.4220   46.8340 C   0  0  0  0  0  0  0  0  0  0  0  0
   63.5944   34.2643   47.4956 H   0  0  0  0  0  0  0  0  0  0  0  0
   64.2425   33.2808   46.1393 H   0  0  0  0  0  0  0  0  0  0  0  0
   62.5185   33.7853   46.1393 H   0  0  0  0  0  0  0  0  0  0  0  0
   62.1574   31.6974   46.9941 H   0  0  0  0  0  0  0  0  0  0  0  0
   63.8684   31.5333   47.5516 H   0  0  0  0  0  0  0  0  0  0  0  0
   61.5320   32.4450   48.9640 H   0  0  0  0  0  0  0  0  0  0  0  0
   62.9980   31.7860   49.5460 H   0  0  0  0  0  0  0  0  0  0  0  0
   63.8716   34.1333   48.6532 H   0  0  0  0  0  0  0  0  0  0  0  0
   62.1868   34.5384   49.1658 H   0  0  0  0  0  0  0  0  0  0  0  0
   64.4798   34.2876   50.8257 H   0  0  0  0  0  0  0  0  0  0  0  0
   62.7625   34.4710   51.3379 H   0  0  0  0  0  0  0  0  0  0  0  0
   62.7344   32.3157   53.1907 H   0  0  0  0  0  0  0  0  0  0  0  0
   61.6440   33.1231   52.0012 H   0  0  0  0  0  0  0  0  0  0  0  0
   62.4514   30.1695   51.9790 H   0  0  0  0  0  0  0  0  0  0  0  0
   60.8620   30.8396   52.5155 H   0  0  0  0  0  0  0  0  0  0  0  0
   62.5602   29.5840   49.6891 H   0  0  0  0  0  0  0  0  0  0  0  0
   61.1547   28.8930   50.5817 H   0  0  0  0  0  0  0  0  0  0  0  0
   61.4022   29.6649   47.7422 H   0  0  0  0  0  0  0  0  0  0  0  0
   60.2017   28.5943   48.5604 H   0  0  0  0  0  0  0  0  0  0  0  0
   59.3710   31.0990   49.3700 H   0  0  0  0  0  0  0  0  0  0  0  0
   58.8590   28.4362   47.7181 H   0  0  0  0  0  0  0  0  0  0  0  0
   58.0888   26.7231   46.0906 H   0  0  0  0  0  0  0  0  0  0  0  0
   57.5006   27.3852   43.7665 H   0  0  0  0  0  0  0  0  0  0  0  0
   57.5851   29.7722   43.0884 H   0  0  0  0  0  0  0  0  0  0  0  0
   56.6088   32.8358   43.7571 H   0  0  0  0  0  0  0  0  0  0  0  0
   58.1730   32.9249   42.8785 H   0  0  0  0  0  0  0  0  0  0  0  0
   57.2287   31.3969   42.8785 H   0  0  0  0  0  0  0  0  0  0  0  0
   58.8275   34.3563   44.0186 H   0  0  0  0  0  0  0  0  0  0  0  0
   59.8024   36.0685   45.5132 H   0  0  0  0  0  0  0  0  0  0  0  0
   60.3342   35.5246   47.8689 H   0  0  0  0  0  0  0  0  0  0  0  0
   60.5443   34.3259   50.6674 H   0  0  0  0  0  0  0  0  0  0  0  0
   58.9701   34.7085   49.8677 H   0  0  0  0  0  0  0  0  0  0  0  0
   59.1770   33.3449   52.2228 H   0  0  0  0  0  0  0  0  0  0  0  0
   57.8266   33.1326   51.0575 H   0  0  0  0  0  0  0  0  0  0  0  0
   59.2028   31.9782   51.0575 H   0  0  0  0  0  0  0  0  0  0  0  0
  1  2  1  0
  2  3  1  0
  3  4  1  0
  4  5  1  0
  5  6  1  0
  6  7  1  0
  7  8  1  0
  8  9  1  0
  9 10  1  0
 10 11  1  0
 11 12  1  0
 12 13  1  0
 13 14  2  0
 14 15  1  0
 15 16  2  0
 16 17  1  0
 17 18  2  0
 18 19  1  0
 19 20  2  0
 20 21  1  0
 20 22  1  0
 22 23  2  0
 23 24  1  0
 24 25  2  0
 25 26  1  0
 26 27  1  0
 27 28  1  0
 28 29  1  0
 26 30  2  0
 30 13  1  0
 19 14  1  0
 30 22  1  0
  1 31  1  0
  1 32  1  0
  1 33  1  0
  2 34  1  0
  2 35  1  0
  3 36  1  0
  3 37  1  0
  4 38  1  0
  4 39  1  0
  5 40  1  0
  5 41  1  0
  7 42  1  0
  7 43  1  0
  8 44  1  0
  8 45  1  0
 10 46  1  0
 10 47  1  0
 11 48  1  0
 11 49  1  0
 12 50  1  0
 15 51  1  0
 16 52  1  0
 17 53  1  0
 18 54  1  0
 21 55  1  0
 21 56  1  0
 21 57  1  0
 23 58  1  0
 24 59  1  0
 25 60  1  0
 28 61  1  0
 28 62  1  0
 29 63  1  0
 29 64  1  0
 29 65  1  0
M  CHG  2   3   1  20   1
M  END
>  <UniqueID>  (8) 
8

>  <SMILES>  (8) 
CC[NH2+]CCOCCOCCNc1c2ccccc2[n+](C)c2cccc(OCC)c12

>  <Energy>  (8) 
91.67284178387926

>  <Genealogy>  (8) 
CC[NH2+]CCOCCOCCNc1c2ccccc2[n+](C)c2cccc(OCC)c12 (protonated)
CC[NH2+]CCOCCOCCNc1c2ccccc2[n+](C)c2cccc(OCC)c12 (3D coordinates assigned)
CC[NH2+]CCOCCOCCNc1c2ccccc2[n+](C)c2cccc(OCC)c12 (optimized conformer: 91.67284178387926 kcal/mol)

>  <smiles>  (8) 
CCNCCOCCOCCNc1c2ccccc2[n+](C)c2cccc(OCC)c12

>  <score_type>  (8) 
oracle

>  <origin>  (8) 
adg

>  <m_score__min__energy>  (8) 
-2.4900000000000002

>  <m_primary>  (8) 
energy

$$$$
8:0
     RDKit          3D

 57 59  0  0  0  0  0  0  0  0999 V2000
   63.3540   32.3960   47.4400 C   0  0  0  0  0  0  0  0  0  0  0  0
   62.5620   33.6860   47.2970 C   0  0  0  0  0  0  0  0  0  0  0  0
   61.0610   33.6150   48.3320 S   0  0  0  0  0  0  0  0  0  0  0  0
   59.9360   33.5930   46.9230 C   0  0  0  0  0  0  0  0  0  0  0  0
   59.6800   34.8490   46.3630 C   0  0  0  0  0  0  0  0  0  0  0  0
   58.8960   34.9780   45.2310 C   0  0  0  0  0  0  0  0  0  0  0  0
   58.3760   33.8510   44.6130 C   0  0  0  0  0  0  0  0  0  0  0  0
   58.6070   32.5540   45.1320 C   0  0  0  0  0  0  0  0  0  0  0  0
   59.3350   32.4190   46.3560 C   0  0  0  0  0  0  0  0  0  0  0  0
   59.4010   31.1280   46.9520 C   0  0  0  0  0  0  0  0  0  0  0  0
   60.1090   30.9040   48.1800 N   0  0  0  0  0  0  0  0  0  0  0  0
   59.3950   30.8710   49.4610 C   0  0  0  0  0  0  0  0  0  0  0  0
   58.4740   32.1000   49.6480 C   0  0  0  0  0  0  0  0  0  0  0  0
   57.6520   32.0470   50.8890 N   0  0  0  0  0  0  0  0  0  0  0  0
   57.5470   30.6500   51.3930 C   0  0  0  0  0  0  0  0  0  0  0  0
   56.4090   30.4180   52.4010 C   0  0  0  0  0  0  0  0  0  0  0  0
   58.1520   33.0070   51.9090 C   0  0  0  0  0  0  0  0  0  0  0  0
   59.3590   33.8240   51.4320 C   0  0  0  0  0  0  0  0  0  0  0  0
   58.6640   30.0630   46.3920 C   0  0  0  0  0  0  0  0  0  0  0  0
   58.5380   28.8270   47.0680 C   0  0  0  0  0  0  0  0  0  0  0  0
   57.7930   27.7860   46.5250 C   0  0  0  0  0  0  0  0  0  0  0  0
   57.1380   27.9580   45.3110 C   0  0  0  0  0  0  0  0  0  0  0  0
   57.2370   29.1700   44.6300 C   0  0  0  0  0  0  0  0  0  0  0  0
   58.0130   30.2400   45.1450 C   0  0  0  0  0  0  0  0  0  0  0  0
   58.1170   31.4400   44.4790 N   0  0  0  0  0  0  0  0  0  0  0  0
   57.7080   31.5320   43.0590 C   0  0  0  0  0  0  0  0  0  0  0  0
   63.4940   32.1680   48.5070 H   0  0  0  0  0  0  0  0  0  0  0  0
   62.8051   31.5734   46.9582 H   0  0  0  0  0  0  0  0  0  0  0  0
   64.3359   32.5133   46.9582 H   0  0  0  0  0  0  0  0  0  0  0  0
   63.1856   34.5337   47.6174 H   0  0  0  0  0  0  0  0  0  0  0  0
   62.2691   33.8150   46.2446 H   0  0  0  0  0  0  0  0  0  0  0  0
   60.1088   35.7478   46.8301 H   0  0  0  0  0  0  0  0  0  0  0  0
   58.6846   35.9763   44.8203 H   0  0  0  0  0  0  0  0  0  0  0  0
   57.7718   33.9668   43.7011 H   0  0  0  0  0  0  0  0  0  0  0  0
   61.1330   30.7020   48.1280 H   0  0  0  0  0  0  0  0  0  0  0  0
   58.7814   29.9590   49.5012 H   0  0  0  0  0  0  0  0  0  0  0  0
   60.1445   30.8848   50.2660 H   0  0  0  0  0  0  0  0  0  0  0  0
   59.1019   33.0024   49.6853 H   0  0  0  0  0  0  0  0  0  0  0  0
   57.7749   32.1109   48.7988 H   0  0  0  0  0  0  0  0  0  0  0  0
   56.6760   32.3330   50.6370 H   0  0  0  0  0  0  0  0  0  0  0  0
   57.3834   29.9857   50.5317 H   0  0  0  0  0  0  0  0  0  0  0  0
   58.4851   30.4396   51.9274 H   0  0  0  0  0  0  0  0  0  0  0  0
   56.8037   30.4985   53.4246 H   0  0  0  0  0  0  0  0  0  0  0  0
   55.6252   31.1748   52.2497 H   0  0  0  0  0  0  0  0  0  0  0  0
   55.9840   29.4147   52.2497 H   0  0  0  0  0  0  0  0  0  0  0  0
   57.3382   33.7021   52.1630 H   0  0  0  0  0  0  0  0  0  0  0  0
   58.4799   32.4179   52.7781 H   0  0  0  0  0  0  0  0  0  0  0  0
   59.9147   34.2002   52.3036 H   0  0  0  0  0  0  0  0  0  0  0  0
   60.0175   33.1852   50.8251 H   0  0  0  0  0  0  0  0  0  0  0  0
   59.0106   34.6727   50.8251 H   0  0  0  0  0  0  0  0  0  0  0  0
   59.0370   28.6871   48.0382 H   0  0  0  0  0  0  0  0  0  0  0  0
   57.7219   26.8256   47.0565 H   0  0  0  0  0  0  0  0  0  0  0  0
   56.5411   27.1368   44.8875 H   0  0  0  0  0  0  0  0  0  0  0  0
   56.7040   29.2991   43.6764 H   0  0  0  0  0  0  0  0  0  0  0  0
   56.6363   31.7731   43.0010 H   0  0  0  0  0  0  0  0  0  0  0  0
   58.2890   32.3219   42.5605 H   0  0  0  0  0  0  0  0  0  0  0  0
   57.8948   30.5694   42.5605 H   0  0  0  0  0  0  0  0  0  0  0  0
  1  2  1  0
  2  3  1  0
  3  4  1  0
  4  5  2  0
  5  6  1  0
  6  7  2  0
  7  8  1  0
  8  9  2  0
  9 10  1  0
 10 11  1  0
 11 12  1  0
 12 13  1  0
 13 14  1  0
 14 15  1  0
 15 16  1  0
 14 17  1  0
 17 18  1  0
 10 19  2  0
 19 20  1  0
 20 21  2  0
 21 22  1  0
 22 23  2  0
 23 24  1  0
 24 25  2  0
 25 26  1  0
  9  4  1  0
 24 19  1  0
 25  8  1  0
  1 27  1  0
  1 28  1  0
  1 29  1  0
  2 30  1  0
  2 31  1  0
  5 32  1  0
  6 33  1  0
  7 34  1  0
 11 35  1  0
 12 36  1  0
 12 37  1  0
 13 38  1  0
 13 39  1  0
 14 40  1  0
 15 41  1  0
 15 42  1  0
 16 43  1  0
 16 44  1  0
 16 45  1  0
 17 46  1  0
 17 47  1  0
 18 48  1  0
 18 49  1  0
 18 50  1  0
 20 51  1  0
 21 52  1  0
 22 53  1  0
 23 54  1  0
 26 55  1  0
 26 56  1  0
 26 57  1  0
M  CHG  2  14   1  25   1
M  END
>  <UniqueID>  (9) 
9

>  <SMILES>  (9) 
CCSc1cccc2c1c(NCC[NH+](CC)CC)c1ccccc1[n+]2C

>  <Energy>  (9) 
87.81632514280199

>  <Genealogy>  (9) 
CCSc1cccc2c1c(NCC[NH+](CC)CC)c1ccccc1[n+]2C (protonated)
CCSc1cccc2c1c(NCC[NH+](CC)CC)c1ccccc1[n+]2C (3D coordinates assigned)
CCSc1cccc2c1c(NCC[NH+](CC)CC)c1ccccc1[n+]2C (optimized conformer: 87.81632514280199 kcal/mol)

>  <smiles>  (9) 
CCSc1cccc2c1c(NCCN(CC)CC)c1ccccc1[n+]2C

>  <score_type>  (9) 
oracle

>  <origin>  (9) 
adg

>  <m_score__min__energy>  (9) 
-4.9299999999999997

>  <m_primary>  (9) 
energy

$$$$
9:0
     RDKit          3D

 46 48  0  0  0  0  0  0  0  0999 V2000
   59.7540   33.9640   49.0430 C   0  0  0  0  0  0  0  0  0  0  0  0
   59.3330   34.1010   47.6090 C   0  0  0  0  0  0  0  0  0  0  0  0
   60.0070   34.9880   46.7560 C   0  0  0  0  0  0  0  0  0  0  0  0
   59.6440   35.0800   45.4090 C   0  0  0  0  0  0  0  0  0  0  0  0
   58.6160   34.2810   44.9030 C   0  0  0  0  0  0  0  0  0  0  0  0
   57.9410   33.3820   45.7420 C   0  0  0  0  0  0  0  0  0  0  0  0
   56.8620   32.4890   45.1830 C   0  0  0  0  0  0  0  0  0  0  0  0
   57.4330   31.4060   44.3520 N   0  0  0  0  0  0  0  0  0  0  0  0
   56.3590   30.5810   43.7460 C   0  0  0  0  0  0  0  0  0  0  0  0
   56.0140   29.3650   44.6200 C   0  0  0  0  0  0  0  0  0  0  0  0
   57.1780   28.4530   44.7670 N   0  0  0  0  0  0  0  0  0  0  0  0
   57.0690   27.6070   45.9850 C   0  0  0  0  0  0  0  0  0  0  0  0
   56.3230   26.3170   45.7610 C   0  0  0  0  0  0  0  0  0  0  0  0
   56.9000   25.0850   45.5110 C   0  0  0  0  0  0  0  0  0  0  0  0
   55.8540   24.1910   45.4200 C   0  0  0  0  0  0  0  0  0  0  0  0
   54.7090   24.9360   45.6190 C   0  0  0  0  0  0  0  0  0  0  0  0
   53.3150   24.4060   45.6110 C   0  0  0  0  0  0  0  0  0  0  0  0
   55.0170   26.1980   45.8100 O   0  0  0  0  0  0  0  0  0  0  0  0
   58.4930   29.1380   44.6460 C   0  0  0  0  0  0  0  0  0  0  0  0
   58.4330   30.6050   45.1060 C   0  0  0  0  0  0  0  0  0  0  0  0
   58.3120   33.2890   47.0950 C   0  0  0  0  0  0  0  0  0  0  0  0
   58.9146   34.2372   49.6993 H   0  0  0  0  0  0  0  0  0  0  0  0
   60.0501   32.9231   49.2404 H   0  0  0  0  0  0  0  0  0  0  0  0
   60.6059   34.6313   49.2404 H   0  0  0  0  0  0  0  0  0  0  0  0
   60.8231   35.6126   47.1481 H   0  0  0  0  0  0  0  0  0  0  0  0
   60.1692   35.7833   44.7460 H   0  0  0  0  0  0  0  0  0  0  0  0
   58.3346   34.3571   43.8423 H   0  0  0  0  0  0  0  0  0  0  0  0
   56.3002   32.0420   46.0164 H   0  0  0  0  0  0  0  0  0  0  0  0
   56.2017   33.0994   44.5495 H   0  0  0  0  0  0  0  0  0  0  0  0
   55.4582   31.2008   43.6261 H   0  0  0  0  0  0  0  0  0  0  0  0
   56.7171   30.2132   42.7731 H   0  0  0  0  0  0  0  0  0  0  0  0
   55.7069   29.7162   45.6162 H   0  0  0  0  0  0  0  0  0  0  0  0
   55.1992   28.8094   44.1327 H   0  0  0  0  0  0  0  0  0  0  0  0
   57.1260   27.7850   43.9600 H   0  0  0  0  0  0  0  0  0  0  0  0
   58.0844   27.3653   46.3321 H   0  0  0  0  0  0  0  0  0  0  0  0
   56.4982   28.1840   46.7275 H   0  0  0  0  0  0  0  0  0  0  0  0
   57.9725   24.8639   45.4063 H   0  0  0  0  0  0  0  0  0  0  0  0
   55.9185   23.1097   45.2287 H   0  0  0  0  0  0  0  0  0  0  0  0
   52.9671   24.2737   46.6461 H   0  0  0  0  0  0  0  0  0  0  0  0
   52.6557   25.1162   45.0905 H   0  0  0  0  0  0  0  0  0  0  0  0
   53.2941   23.4372   45.0905 H   0  0  0  0  0  0  0  0  0  0  0  0
   59.2285   28.6032   45.2649 H   0  0  0  0  0  0  0  0  0  0  0  0
   58.7794   29.1303   43.5840 H   0  0  0  0  0  0  0  0  0  0  0  0
   58.1685   30.6278   46.1735 H   0  0  0  0  0  0  0  0  0  0  0  0
   59.4215   31.0505   44.9202 H   0  0  0  0  0  0  0  0  0  0  0  0
   57.7979   32.5745   47.7546 H   0  0  0  0  0  0  0  0  0  0  0  0
  1  2  1  0
  2  3  2  0
  3  4  1  0
  4  5  2  0
  5  6  1  0
  6  7  1  0
  7  8  1  0
  8  9  1  0
  9 10  1  0
 10 11  1  0
 11 12  1  0
 12 13  1  0
 13 14  2  0
 14 15  1  0
 15 16  2  0
 16 17  1  0
 16 18  1  0
 11 19  1  0
 19 20  1  0
  6 21  2  0
 21  2  1  0
 20  8  1  0
 18 13  1  0
  1 22  1  0
  1 23  1  0
  1 24  1  0
  3 25  1  0
  4 26  1  0
  5 27  1  0
  7 28  1  0
  7 29  1  0
  9 30  1  0
  9 31  1  0
 10 32  1  0
 10 33  1  0
 11 34  1  0
 12 35  1  0
 12 36  1  0
 14 37  1  0
 15 38  1  0
 17 39  1  0
 17 40  1  0
 17 41  1  0
 19 42  1  0
 19 43  1  0
 20 44  1  0
 20 45  1  0
 21 46  1  0
M  CHG  1  11   1
M  END
>  <UniqueID>  (10) 
10

>  <SMILES>  (10) 
Cc1cccc(CN2CC[NH+](Cc3ccc(C)o3)CC2)c1

>  <Energy>  (10) 
83.75997487538908

>  <Genealogy>  (10) 
Cc1cccc(CN2CC[NH+](Cc3ccc(C)o3)CC2)c1 (protonated)
Cc1cccc(CN2CC[NH+](Cc3ccc(C)o3)CC2)c1 (3D coordinates assigned)
Cc1cccc(CN2CC[NH+](Cc3ccc(C)o3)CC2)c1 (nonaromatic ring conformer: 83.75997487538908 kcal/mol)

>  <smiles>  (10) 
Cc1cccc(CN2CCN(Cc3ccc(C)o3)CC2)c1

>  <score_type>  (10) 
oracle

>  <origin>  (10) 
adg

>  <m_score__min__energy>  (10) 
-6.2400000000000002

>  <m_primary>  (10) 
energy

$$$$
10:0
     RDKit          3D

 51 53  0  0  0  0  0  0  0  0999 V2000
   57.0963   33.7839   44.8215 H   0  0  0  0  0  0  0  0  0  0  0  0
   57.4370   33.1180   45.6280 C   0  0  0  0  0  0  0  0  0  0  0  0
   57.1880   31.8450   45.5670 N   0  0  0  0  0  0  0  0  0  0  0  0
   56.6290   31.2010   44.4740 O   0  0  0  0  0  0  0  0  0  0  0  0
   56.2020   29.8390   44.4910 C   0  0  0  0  0  0  0  0  0  0  0  0
   55.4689   29.6771   43.6871 H   0  0  0  0  0  0  0  0  0  0  0  0
   55.7426   29.6170   45.4655 H   0  0  0  0  0  0  0  0  0  0  0  0
   57.4010   28.9110   44.2780 C   0  0  0  0  0  0  0  0  0  0  0  0
   57.2363   28.3157   43.3678 H   0  0  0  0  0  0  0  0  0  0  0  0
   57.4955   28.2577   45.1579 H   0  0  0  0  0  0  0  0  0  0  0  0
   58.6500   29.6770   44.1310 N   0  0  0  0  0  0  0  0  0  0  0  0
   58.5230   30.6490   44.4990 H   0  0  0  0  0  0  0  0  0  0  0  0
   58.8850   29.7430   43.1130 H   0  0  0  0  0  0  0  0  0  0  0  0
   59.7810   29.0240   44.8170 C   0  0  0  0  0  0  0  0  0  0  0  0
   60.6332   28.9724   44.1234 H   0  0  0  0  0  0  0  0  0  0  0  0
   59.4529   28.0205   45.1260 H   0  0  0  0  0  0  0  0  0  0  0  0
   60.2150   29.7830   46.0750 C   0  0  0  0  0  0  0  0  0  0  0  0
   59.8961   29.2254   46.9680 H   0  0  0  0  0  0  0  0  0  0  0  0
   61.3099   29.8885   46.0802 H   0  0  0  0  0  0  0  0  0  0  0  0
   59.7506   30.7801   46.0802 H   0  0  0  0  0  0  0  0  0  0  0  0
   58.1860   33.6790   46.7930 C   0  0  0  0  0  0  0  0  0  0  0  0
   59.0693   34.2234   46.4278 H   0  0  0  0  0  0  0  0  0  0  0  0
   57.5245   34.3607   47.3477 H   0  0  0  0  0  0  0  0  0  0  0  0
   58.6170   32.6060   47.6860 N   0  0  0  0  0  0  0  0  0  0  0  0
   58.4590   31.6190   47.3820 H   0  0  0  0  0  0  0  0  0  0  0  0
   59.6610   32.8460   48.6430 C   0  0  0  0  0  0  0  0  0  0  0  0
   60.9590   33.1620   48.2090 C   0  0  0  0  0  0  0  0  0  0  0  0
   61.2540   33.2650   46.8320 C   0  0  0  0  0  0  0  0  0  0  0  0
   60.4495   33.1381   46.0926 H   0  0  0  0  0  0  0  0  0  0  0  0
   62.5500   33.5250   46.4000 C   0  0  0  0  0  0  0  0  0  0  0  0
   62.7635   33.6128   45.3245 H   0  0  0  0  0  0  0  0  0  0  0  0
   63.5760   33.6740   47.3260 C   0  0  0  0  0  0  0  0  0  0  0  0
   64.6058   33.8476   46.9806 H   0  0  0  0  0  0  0  0  0  0  0  0
   63.3030   33.6040   48.6920 C   0  0  0  0  0  0  0  0  0  0  0  0
   64.1248   33.7175   49.4143 H   0  0  0  0  0  0  0  0  0  0  0  0
   61.9840   33.3890   49.1650 C   0  0  0  0  0  0  0  0  0  0  0  0
   61.6860   33.3890   50.5150 N   0  0  0  0  0  0  0  0  0  0  0  0
   62.6780   33.8980   51.4890 C   0  0  0  0  0  0  0  0  0  0  0  0
   62.3166   33.7126   52.5113 H   0  0  0  0  0  0  0  0  0  0  0  0
   63.6372   33.3807   51.3397 H   0  0  0  0  0  0  0  0  0  0  0  0
   62.8172   34.9789   51.3397 H   0  0  0  0  0  0  0  0  0  0  0  0
   60.4500   32.9440   50.9520 C   0  0  0  0  0  0  0  0  0  0  0  0
   60.1890   32.6920   52.3250 C   0  0  0  0  0  0  0  0  0  0  0  0
   60.9961   32.8201   53.0614 H   0  0  0  0  0  0  0  0  0  0  0  0
   58.9270   32.2850   52.7550 C   0  0  0  0  0  0  0  0  0  0  0  0
   58.7429   32.1097   53.8252 H   0  0  0  0  0  0  0  0  0  0  0  0
   57.9010   32.1000   51.8370 C   0  0  0  0  0  0  0  0  0  0  0  0
   56.9019   31.7967   52.1832 H   0  0  0  0  0  0  0  0  0  0  0  0
   58.1360   32.2980   50.4800 C   0  0  0  0  0  0  0  0  0  0  0  0
   57.3217   32.1363   49.7583 H   0  0  0  0  0  0  0  0  0  0  0  0
   59.4070   32.7040   50.0180 C   0  0  0  0  0  0  0  0  0  0  0  0
  1  2  1  0
  2  3  2  0
  3  4  1  0
  4  5  1  0
  5  6  1  0
  5  7  1  0
  5  8  1  0
  8  9  1  0
  8 10  1  0
  8 11  1  0
 11 12  1  0
 11 13  1  0
 11 14  1  0
 14 15  1  0
 14 16  1  0
 14 17  1  0
 17 18  1  0
 17 19  1  0
 17 20  1  0
  2 21  1  0
 21 22  1  0
 21 23  1  0
 21 24  1  0
 24 25  1  0
 24 26  1  0
 26 27  2  0
 27 28  1  0
 28 29  1  0
 28 30  2  0
 30 31  1  0
 30 32  1  0
 32 33  1  0
 32 34  2  0
 34 35  1  0
 34 36  1  0
 36 37  2  0
 37 38  1  0
 38 39  1  0
 38 40  1  0
 38 41  1  0
 37 42  1  0
 42 43  2  0
 43 44  1  0
 43 45  1  0
 45 46  1  0
 45 47  2  0
 47 48  1  0
 47 49  1  0
 49 50  1  0
 49 51  2  0
 51 26  1  0
 36 27  1  0
 51 42  1  0
M  CHG  2  11   1  37   1
M  END
>  <UniqueID>  (11) 
11

>  <SMILES>  (11) 
CC[NH2+]CCO/N=C/CNc1c2ccccc2[n+](C)c2ccccc12

>  <Energy>  (11) 
73.3784942347407

>  <Genealogy>  (11) 
CC[NH2+]CCON=CCNc1c2ccccc2[n+](C)c2ccccc12 (protonated)
CC[NH2+]CCO/N=C/CNc1c2ccccc2[n+](C)c2ccccc12 (cis-trans isomerization)
CC[NH2+]CCO/N=C/CNc1c2ccccc2[n+](C)c2ccccc12 (3D coordinates assigned)
CC[NH2+]CCO/N=C/CNc1c2ccccc2[n+](C)c2ccccc12 (optimized conformer: 73.3784942347407 kcal/mol)

>  <smiles>  (11) 
CCNCCON=CCNc1c2ccccc2[n+](C)c2ccccc12

>  <score_type>  (11) 
oracle

>  <origin>  (11) 
adg

>  <m_score__min__energy>  (11) 
-4.5999999999999996

>  <m_primary>  (11) 
energy

$$$$
11:0
     RDKit          3D

 50 53  0  0  0  0  0  0  0  0999 V2000
   55.3890   30.0990   43.7510 C   0  0  0  0  0  0  0  0  0  0  0  0
   56.4430   30.3330   44.6790 O   0  0  0  0  0  0  0  0  0  0  0  0
   57.6430   29.6040   44.7240 C   0  0  0  0  0  0  0  0  0  0  0  0
   57.7390   28.3010   44.1970 C   0  0  0  0  0  0  0  0  0  0  0  0
   58.9400   27.5910   44.2820 C   0  0  0  0  0  0  0  0  0  0  0  0
   60.0530   28.1700   44.8910 C   0  0  0  0  0  0  0  0  0  0  0  0
   59.9720   29.4610   45.4130 C   0  0  0  0  0  0  0  0  0  0  0  0
   58.7750   30.1880   45.3290 C   0  0  0  0  0  0  0  0  0  0  0  0
   58.7230   31.5230   45.8640 N   0  0  0  0  0  0  0  0  0  0  0  0
   59.0920   31.7860   47.2560 C   0  0  0  0  0  0  0  0  0  0  0  0
   58.1690   32.8590   47.8540 C   0  0  0  0  0  0  0  0  0  0  0  0
   58.0360   34.0530   46.9880 N   0  0  0  0  0  0  0  0  0  0  0  0
   59.2400   34.9110   46.9750 C   0  0  0  0  0  0  0  0  0  0  0  0
   60.2030   34.4800   48.0410 C   0  0  0  0  0  0  0  0  0  0  0  0
   59.9240   34.4790   49.3660 N   0  0  0  0  0  0  0  0  0  0  0  0
   60.9640   33.9860   50.0280 N   0  0  0  0  0  0  0  0  0  0  0  0
   61.0090   33.7880   51.4730 C   0  0  0  0  0  0  0  0  0  0  0  0
   61.9120   33.6490   49.1320 C   0  0  0  0  0  0  0  0  0  0  0  0
   63.1590   33.0620   49.3540 C   0  0  0  0  0  0  0  0  0  0  0  0
   63.9600   32.7880   48.2300 C   0  0  0  0  0  0  0  0  0  0  0  0
   63.5010   33.0950   46.9280 C   0  0  0  0  0  0  0  0  0  0  0  0
   62.2360   33.6800   46.7350 C   0  0  0  0  0  0  0  0  0  0  0  0
   61.4690   33.9470   47.8690 C   0  0  0  0  0  0  0  0  0  0  0  0
   57.5910   33.6840   45.6270 C   0  0  0  0  0  0  0  0  0  0  0  0
   58.5260   32.6640   44.9690 C   0  0  0  0  0  0  0  0  0  0  0  0
   54.4576   29.8922   44.2985 H   0  0  0  0  0  0  0  0  0  0  0  0
   55.2529   30.9888   43.1187 H   0  0  0  0  0  0  0  0  0  0  0  0
   55.6422   29.2352   43.1187 H   0  0  0  0  0  0  0  0  0  0  0  0
   56.8639   27.8398   43.7159 H   0  0  0  0  0  0  0  0  0  0  0  0
   59.0074   26.5741   43.8680 H   0  0  0  0  0  0  0  0  0  0  0  0
   60.9960   27.6079   44.9598 H   0  0  0  0  0  0  0  0  0  0  0  0
   60.8526   29.9121   45.8937 H   0  0  0  0  0  0  0  0  0  0  0  0
   58.9966   30.8581   47.8391 H   0  0  0  0  0  0  0  0  0  0  0  0
   60.1311   32.1452   47.2910 H   0  0  0  0  0  0  0  0  0  0  0  0
   57.1712   32.4204   48.0026 H   0  0  0  0  0  0  0  0  0  0  0  0
   58.6172   33.1881   48.8031 H   0  0  0  0  0  0  0  0  0  0  0  0
   59.7290   34.8339   45.9927 H   0  0  0  0  0  0  0  0  0  0  0  0
   58.9380   35.9511   47.1674 H   0  0  0  0  0  0  0  0  0  0  0  0
   59.0300   34.7960   49.8070 H   0  0  0  0  0  0  0  0  0  0  0  0
   60.7927   34.7397   51.9804 H   0  0  0  0  0  0  0  0  0  0  0  0
   60.2583   33.0385   51.7639 H   0  0  0  0  0  0  0  0  0  0  0  0
   62.0099   33.4365   51.7639 H   0  0  0  0  0  0  0  0  0  0  0  0
   63.5030   32.8223   50.3710 H   0  0  0  0  0  0  0  0  0  0  0  0
   64.9515   32.3312   48.3652 H   0  0  0  0  0  0  0  0  0  0  0  0
   64.1383   32.8746   46.0589 H   0  0  0  0  0  0  0  0  0  0  0  0
   61.8656   33.9180   45.7270 H   0  0  0  0  0  0  0  0  0  0  0  0
   56.5819   33.2507   45.6896 H   0  0  0  0  0  0  0  0  0  0  0  0
   57.5980   34.5952   45.0108 H   0  0  0  0  0  0  0  0  0  0  0  0
   58.0804   32.3155   44.0256 H   0  0  0  0  0  0  0  0  0  0  0  0
   59.4973   33.1391   44.7668 H   0  0  0  0  0  0  0  0  0  0  0  0
  1  2  1  0
  2  3  1  0
  3  4  2  0
  4  5  1  0
  5  6  2  0
  6  7  1  0
  7  8  2  0
  8  9  1  0
  9 10  1  0
 10 11  1  0
 11 12  1  0
 12 13  1  0
 13 14  1  0
 14 15  2  0
 15 16  1  0
 16 17  1  0
 16 18  1  0
 18 19  2  0
 19 20  1  0
 20 21  2  0
 21 22  1  0
 22 23  2  0
 12 24  1  0
 24 25  1  0
  8  3  1  0
 25  9  1  0
 23 14  1  0
 23 18  1  0
  1 26  1  0
  1 27  1  0
  1 28  1  0
  4 29  1  0
  5 30  1  0
  6 31  1  0
  7 32  1  0
 10 33  1  0
 10 34  1  0
 11 35  1  0
 11 36  1  0
 13 37  1  0
 13 38  1  0
 15 39  1  0
 17 40  1  0
 17 41  1  0
 17 42  1  0
 19 43  1  0
 20 44  1  0
 21 45  1  0
 22 46  1  0
 24 47  1  0
 24 48  1  0
 25 49  1  0
 25 50  1  0
M  CHG  1  15   1
M  END
>  <UniqueID>  (12) 
12

>  <SMILES>  (12) 
COc1ccccc1N1CCN(Cc2[nH+]n(C)c3ccccc23)CC1

>  <Energy>  (12) 
98.18871872706396

>  <Genealogy>  (12) 
COc1ccccc1N1CCN(Cc2[nH+]n(C)c3ccccc23)CC1 (protonated)
COc1ccccc1N1CCN(Cc2[nH+]n(C)c3ccccc23)CC1 (3D coordinates assigned)
COc1ccccc1N1CCN(Cc2[nH+]n(C)c3ccccc23)CC1 (nonaromatic ring conformer: 98.18871872706396 kcal/mol)

>  <smiles>  (12) 
COc1ccccc1N1CCN(Cc2nn(C)c3ccccc23)CC1

>  <score_type>  (12) 
oracle

>  <origin>  (12) 
adg

>  <m_score__min__energy>  (12) 
-7.0999999999999996

>  <m_primary>  (12) 
energy

$$$$
12:0
     RDKit          3D

 32 33  0  0  0  0  0  0  0  0999 V2000
   56.2080   29.7600   44.8850 O   0  0  0  0  0  0  0  0  0  0  0  0
   57.1900   29.5980   44.1100 C   0  0  0  0  0  0  0  0  0  0  0  0
   58.1290   30.6590   43.9010 N   0  0  0  0  0  0  0  0  0  0  0  0
   58.1500   31.8600   44.6940 C   0  0  0  0  0  0  0  0  0  0  0  0
   57.7490   33.0760   44.1180 C   0  0  0  0  0  0  0  0  0  0  0  0
   57.7080   34.2470   44.8750 C   0  0  0  0  0  0  0  0  0  0  0  0
   58.0590   34.2230   46.2240 C   0  0  0  0  0  0  0  0  0  0  0  0
   58.4590   33.0230   46.8290 C   0  0  0  0  0  0  0  0  0  0  0  0
   58.8140   33.0040   48.1860 C   0  0  0  0  0  0  0  0  0  0  0  0
   59.2270   31.8150   48.7890 C   0  0  0  0  0  0  0  0  0  0  0  0
   59.2940   30.6380   48.0420 C   0  0  0  0  0  0  0  0  0  0  0  0
   58.9430   30.6390   46.6900 C   0  0  0  0  0  0  0  0  0  0  0  0
   58.5090   31.8260   46.0650 C   0  0  0  0  0  0  0  0  0  0  0  0
   57.3600   28.3930   43.4170 O   0  0  0  0  0  0  0  0  0  0  0  0
   58.1320   27.2950   43.9030 C   0  0  0  0  0  0  0  0  0  0  0  0
   57.5100   26.7210   45.1870 C   0  0  1  0  0  0  0  0  0  0  0  0
   57.7490   24.7910   45.2580 Br  0  0  0  0  0  0  0  0  0  0  0  0
   58.1330   27.3400   46.4430 C   0  0  0  0  0  0  0  0  0  0  0  0
   60.0680   27.1700   46.4430 Br  0  0  0  0  0  0  0  0  0  0  0  0
   58.8320   30.5430   43.1370 H   0  0  0  0  0  0  0  0  0  0  0  0
   57.4635   33.1057   43.0561 H   0  0  0  0  0  0  0  0  0  0  0  0
   57.3977   35.1924   44.4060 H   0  0  0  0  0  0  0  0  0  0  0  0
   58.0220   35.1493   46.8162 H   0  0  0  0  0  0  0  0  0  0  0  0
   58.7667   33.9303   48.7774 H   0  0  0  0  0  0  0  0  0  0  0  0
   59.5001   31.8055   49.8545 H   0  0  0  0  0  0  0  0  0  0  0  0
   59.6250   29.7045   48.5205 H   0  0  0  0  0  0  0  0  0  0  0  0
   59.0056   29.7072   46.1088 H   0  0  0  0  0  0  0  0  0  0  0  0
   58.1652   26.5085   43.1347 H   0  0  0  0  0  0  0  0  0  0  0  0
   59.1484   27.6494   44.1296 H   0  0  0  0  0  0  0  0  0  0  0  0
   56.4382   26.9673   45.1628 H   0  0  0  0  0  0  0  0  0  0  0  0
   57.8688   28.4070   46.4832 H   0  0  0  0  0  0  0  0  0  0  0  0
   57.7415   26.8038   47.3201 H   0  0  0  0  0  0  0  0  0  0  0  0
  1  2  2  0
  2  3  1  0
  3  4  1  0
  4  5  2  0
  5  6  1  0
  6  7  2  0
  7  8  1  0
  8  9  2  0
  9 10  1  0
 10 11  2  0
 11 12  1  0
 12 13  2  0
  2 14  1  0
 14 15  1  0
 15 16  1  0
 16 17  1  0
 16 18  1  0
 18 19  1  0
 13  4  1  0
 13  8  1  0
  3 20  1  0
  5 21  1  0
  6 22  1  0
  7 23  1  0
  9 24  1  0
 10 25  1  0
 11 26  1  0
 12 27  1  0
 15 28  1  0
 15 29  1  0
 16 30  1  6
 18 31  1  0
 18 32  1  0
M  END
>  <UniqueID>  (13) 
13

>  <SMILES>  (13) 
O=C(Nc1cccc2ccccc12)OC[C@@H](Br)CBr

>  <Energy>  (13) 
37.41242226764659

>  <Genealogy>  (13) 
O=C(Nc1cccc2ccccc12)OC[C@@H](Br)CBr (chirality)
O=C(Nc1cccc2ccccc12)OC[C@@H](Br)CBr (3D coordinates assigned)
O=C(Nc1cccc2ccccc12)OC[C@@H](Br)CBr (optimized conformer: 37.41242226764659 kcal/mol)

>  <smiles>  (13) 
O=C(Nc1cccc2ccccc12)OCC(Br)CBr

>  <score_type>  (13) 
oracle

>  <origin>  (13) 
adg

>  <m_score__min__energy>  (13) 
-7.2300000000000004

>  <m_primary>  (13) 
energy

$$$$
13:0
     RDKit          3D

 57 58  0  0  0  0  0  0  0  0999 V2000
   61.9230   31.1480   53.3020 N   0  0  0  0  0  0  0  0  0  0  0  0
   62.1600   32.5570   53.6160 C   0  0  0  0  0  0  0  0  0  0  0  0
   61.0410   33.4510   53.0670 C   0  0  0  0  0  0  0  0  0  0  0  0
   59.9900   32.6420   52.4300 N   0  0  0  0  0  0  0  0  0  0  0  0
   58.8530   33.4720   52.0000 C   0  0  0  0  0  0  0  0  0  0  0  0
   57.7710   32.6250   51.3080 C   0  0  0  0  0  0  0  0  0  0  0  0
   58.2980   31.3360   50.6490 C   0  0  0  0  0  0  0  0  0  0  0  0
   58.6540   30.2180   51.6390 C   0  0  0  0  0  0  0  0  0  0  0  0
   60.1090   30.0400   51.7290 N   0  0  0  0  0  0  0  0  0  0  0  0
   60.5800   28.9870   50.8180 C   0  0  0  0  0  0  0  0  0  0  0  0
   61.1320   29.6090   49.5280 C   0  0  0  0  0  0  0  0  0  0  0  0
   62.2490   30.6330   49.7700 C   0  0  0  0  0  0  0  0  0  0  0  0
   61.7200   31.8710   50.3730 N   0  0  0  0  0  0  0  0  0  0  0  0
   61.9810   33.0710   49.5610 C   0  0  0  0  0  0  0  0  0  0  0  0
   60.8570   33.3040   48.5880 C   0  0  0  0  0  0  0  0  0  0  0  0
   60.2980   34.5840   48.4570 C   0  0  0  0  0  0  0  0  0  0  0  0
   59.2730   34.8190   47.5370 C   0  0  0  0  0  0  0  0  0  0  0  0
   58.8080   33.7810   46.7190 C   0  0  0  0  0  0  0  0  0  0  0  0
   57.8060   34.0150   45.7650 C   0  0  0  0  0  0  0  0  0  0  0  0
   57.3690   32.9770   44.9380 C   0  0  0  0  0  0  0  0  0  0  0  0
   57.9250   31.7010   45.0570 C   0  0  0  0  0  0  0  0  0  0  0  0
   58.9230   31.4540   46.0050 C   0  0  0  0  0  0  0  0  0  0  0  0
   59.3730   32.4870   46.8390 C   0  0  0  0  0  0  0  0  0  0  0  0
   60.3880   32.2570   47.7800 C   0  0  0  0  0  0  0  0  0  0  0  0
   62.0600   30.9760   52.2810 H   0  0  0  0  0  0  0  0  0  0  0  0
   60.9390   30.9030   53.5550 H   0  0  0  0  0  0  0  0  0  0  0  0
   62.5730   30.5410   53.8520 H   0  0  0  0  0  0  0  0  0  0  0  0
   62.2094   32.6764   54.7084 H   0  0  0  0  0  0  0  0  0  0  0  0
   63.1068   32.8610   53.1457 H   0  0  0  0  0  0  0  0  0  0  0  0
   60.6009   34.0268   53.8945 H   0  0  0  0  0  0  0  0  0  0  0  0
   61.4691   34.1286   52.3137 H   0  0  0  0  0  0  0  0  0  0  0  0
   60.4040   32.1960   51.5800 H   0  0  0  0  0  0  0  0  0  0  0  0
   58.4143   33.9627   52.8814 H   0  0  0  0  0  0  0  0  0  0  0  0
   59.2212   34.2186   51.2810 H   0  0  0  0  0  0  0  0  0  0  0  0
   57.0197   32.3444   52.0609 H   0  0  0  0  0  0  0  0  0  0  0  0
   57.3562   33.2446   50.4993 H   0  0  0  0  0  0  0  0  0  0  0  0
   57.5234   30.9571   49.9661 H   0  0  0  0  0  0  0  0  0  0  0  0
   59.2304   31.6062   50.1317 H   0  0  0  0  0  0  0  0  0  0  0  0
   58.2611   30.4787   52.6328 H   0  0  0  0  0  0  0  0  0  0  0  0
   58.2068   29.2782   51.2828 H   0  0  0  0  0  0  0  0  0  0  0  0
   60.5610   30.9430   51.4500 H   0  0  0  0  0  0  0  0  0  0  0  0
   61.3750   28.4087   51.3115 H   0  0  0  0  0  0  0  0  0  0  0  0
   59.7366   28.3274   50.5657 H   0  0  0  0  0  0  0  0  0  0  0  0
   61.5307   28.8021   48.8956 H   0  0  0  0  0  0  0  0  0  0  0  0
   60.3009   30.1453   49.0466 H   0  0  0  0  0  0  0  0  0  0  0  0
   62.9959   30.1948   50.4483 H   0  0  0  0  0  0  0  0  0  0  0  0
   62.7041   30.8858   48.8010 H   0  0  0  0  0  0  0  0  0  0  0  0
   60.6810   31.7680   50.4560 H   0  0  0  0  0  0  0  0  0  0  0  0
   62.0725   33.9439   50.2241 H   0  0  0  0  0  0  0  0  0  0  0  0
   62.9141   32.9231   48.9976 H   0  0  0  0  0  0  0  0  0  0  0  0
   60.6693   35.4087   49.0831 H   0  0  0  0  0  0  0  0  0  0  0  0
   58.8297   35.8223   47.4547 H   0  0  0  0  0  0  0  0  0  0  0  0
   57.3637   35.0175   45.6680 H   0  0  0  0  0  0  0  0  0  0  0  0
   56.5843   33.1653   44.1905 H   0  0  0  0  0  0  0  0  0  0  0  0
   57.5767   30.8880   44.4030 H   0  0  0  0  0  0  0  0  0  0  0  0
   59.3559   30.4469   46.0965 H   0  0  0  0  0  0  0  0  0  0  0  0
   60.8185   31.2502   47.8849 H   0  0  0  0  0  0  0  0  0  0  0  0
  1  2  1  0
  2  3  1  0
  3  4  1  0
  4  5  1  0
  5  6  1  0
  6  7  1  0
  7  8  1  0
  8  9  1  0
  9 10  1  0
 10 11  1  0
 11 12  1  0
 12 13  1  0
 13 14  1  0
 14 15  1  0
 15 16  2  0
 16 17  1  0
 17 18  2  0
 18 19  1  0
 19 20  2  0
 20 21  1  0
 21 22  2  0
 22 23  1  0
 23 24  2  0
 24 15  1  0
 23 18  1  0
  1 25  1  0
  1 26  1  0
  1 27  1  0
  2 28  1  0
  2 29  1  0
  3 30  1  0
  3 31  1  0
  4 32  1  0
  5 33  1  0
  5 34  1  0
  6 35  1  0
  6 36  1  0
  7 37  1  0
  7 38  1  0
  8 39  1  0
  8 40  1  0
  9 41  1  0
 10 42  1  0
 10 43  1  0
 11 44  1  0
 11 45  1  0
 12 46  1  0
 12 47  1  0
 13 48  1  0
 14 49  1  0
 14 50  1  0
 16 51  1  0
 17 52  1  0
 19 53  1  0
 20 54  1  0
 21 55  1  0
 22 56  1  0
 24 57  1  0
M  CHG  1   1   1
M  END
>  <UniqueID>  (14) 
14

>  <SMILES>  (14) 
[NH3+]CCNCCCCNCCCNCc1ccc2ccccc2c1

>  <Energy>  (14) 
42.32148114893165

>  <Genealogy>  (14) 
[NH3+]CCNCCCCNCCCNCc1ccc2ccccc2c1 (protonated)
[NH3+]CCNCCCCNCCCNCc1ccc2ccccc2c1 (3D coordinates assigned)
[NH3+]CCNCCCCNCCCNCc1ccc2ccccc2c1 (optimized conformer: 42.32148114893165 kcal/mol)

>  <smiles>  (14) 
NCCNCCCCNCCCNCc1ccc2ccccc2c1

>  <score_type>  (14) 
oracle

>  <origin>  (14) 
adg

>  <m_score__min__energy>  (14) 
-6

>  <m_primary>  (14) 
energy

$$$$
14:0
     RDKit          3D

 50 52  0  0  0  0  0  0  0  0999 V2000
   60.2900   30.1080   46.0240 C   0  0  0  0  0  0  0  0  0  0  0  0
   58.8370   30.0560   46.2780 N   0  0  0  0  0  0  0  0  0  0  0  0
   58.5450   28.9310   47.1860 C   0  0  0  0  0  0  0  0  0  0  0  0
   58.0760   29.9180   45.0130 C   0  0  0  0  0  0  0  0  0  0  0  0
   57.7260   31.2900   44.4310 C   0  0  0  0  0  0  0  0  0  0  0  0
   57.1950   32.1220   45.4430 O   0  0  0  0  0  0  0  0  0  0  0  0
   57.6520   33.4490   45.2820 C   0  0  0  0  0  0  0  0  0  0  0  0
   58.3280   33.9170   46.5690 C   0  0  0  0  0  0  0  0  0  0  0  0
   58.7500   32.7740   47.3800 N   0  0  0  0  0  0  0  0  0  0  0  0
   59.7410   32.9160   48.4130 C   0  0  0  0  0  0  0  0  0  0  0  0
   59.4050   32.6560   49.7550 C   0  0  0  0  0  0  0  0  0  0  0  0
   58.1270   32.1640   50.0990 C   0  0  0  0  0  0  0  0  0  0  0  0
   57.8120   31.8590   51.4210 C   0  0  0  0  0  0  0  0  0  0  0  0
   58.7690   32.0140   52.4170 C   0  0  0  0  0  0  0  0  0  0  0  0
   60.0400   32.4940   52.1020 C   0  0  0  0  0  0  0  0  0  0  0  0
   60.3800   32.8530   50.7700 C   0  0  0  0  0  0  0  0  0  0  0  0
   61.6270   33.3570   50.4480 N   0  0  0  0  0  0  0  0  0  0  0  0
   62.5320   33.8330   51.5190 C   0  0  0  0  0  0  0  0  0  0  0  0
   62.0230   33.4290   49.1250 C   0  0  0  0  0  0  0  0  0  0  0  0
   63.3730   33.6770   48.7610 C   0  0  0  0  0  0  0  0  0  0  0  0
   63.7480   33.8020   47.4240 C   0  0  0  0  0  0  0  0  0  0  0  0
   62.7990   33.6680   46.4170 C   0  0  0  0  0  0  0  0  0  0  0  0
   61.4750   33.3840   46.7390 C   0  0  0  0  0  0  0  0  0  0  0  0
   61.0720   33.2400   48.0850 C   0  0  0  0  0  0  0  0  0  0  0  0
   60.8293   30.1273   46.9825 H   0  0  0  0  0  0  0  0  0  0  0  0
   60.5939   29.2202   45.4501 H   0  0  0  0  0  0  0  0  0  0  0  0
   60.5297   31.0153   45.4501 H   0  0  0  0  0  0  0  0  0  0  0  0
   58.6328   29.2693   48.2290 H   0  0  0  0  0  0  0  0  0  0  0  0
   57.5229   28.5680   47.0031 H   0  0  0  0  0  0  0  0  0  0  0  0
   59.2615   28.1167   47.0031 H   0  0  0  0  0  0  0  0  0  0  0  0
   58.6861   29.3633   44.2849 H   0  0  0  0  0  0  0  0  0  0  0  0
   57.1412   29.3777   45.2235 H   0  0  0  0  0  0  0  0  0  0  0  0
   58.6342   31.7530   44.0177 H   0  0  0  0  0  0  0  0  0  0  0  0
   56.9766   31.1649   43.6355 H   0  0  0  0  0  0  0  0  0  0  0  0
   58.3742   33.4896   44.4533 H   0  0  0  0  0  0  0  0  0  0  0  0
   56.7980   34.1052   45.0581 H   0  0  0  0  0  0  0  0  0  0  0  0
   59.2098   34.5229   46.3134 H   0  0  0  0  0  0  0  0  0  0  0  0
   57.6081   34.5137   47.1484 H   0  0  0  0  0  0  0  0  0  0  0  0
   58.5150   31.8150   47.0380 H   0  0  0  0  0  0  0  0  0  0  0  0
   57.3708   32.0198   49.3132 H   0  0  0  0  0  0  0  0  0  0  0  0
   56.8058   31.4954   51.6768 H   0  0  0  0  0  0  0  0  0  0  0  0
   58.5229   31.7570   53.4579 H   0  0  0  0  0  0  0  0  0  0  0  0
   60.7920   32.5964   52.8983 H   0  0  0  0  0  0  0  0  0  0  0  0
   62.0922   33.6017   52.5004 H   0  0  0  0  0  0  0  0  0  0  0  0
   63.5061   33.3306   51.4261 H   0  0  0  0  0  0  0  0  0  0  0  0
   62.6699   34.9204   51.4261 H   0  0  0  0  0  0  0  0  0  0  0  0
   64.1361   33.7721   49.5475 H   0  0  0  0  0  0  0  0  0  0  0  0
   64.7973   34.0071   47.1653 H   0  0  0  0  0  0  0  0  0  0  0  0
   63.0949   33.7866   45.3642 H   0  0  0  0  0  0  0  0  0  0  0  0
   60.7330   33.2702   45.9349 H   0  0  0  0  0  0  0  0  0  0  0  0
  1  2  1  0
  2  3  1  0
  2  4  1  0
  4  5  1  0
  5  6  1  0
  6  7  1  0
  7  8  1  0
  8  9  1  0
  9 10  1  0
 10 11  2  0
 11 12  1  0
 12 13  2  0
 13 14  1  0
 14 15  2  0
 15 16  1  0
 16 17  2  0
 17 18  1  0
 17 19  1  0
 19 20  2  0
 20 21  1  0
 21 22  2  0
 22 23  1  0
 23 24  2  0
 24 10  1  0
 16 11  1  0
 24 19  1  0
  1 25  1  0
  1 26  1  0
  1 27  1  0
  3 28  1  0
  3 29  1  0
  3 30  1  0
  4 31  1  0
  4 32  1  0
  5 33  1  0
  5 34  1  0
  7 35  1  0
  7 36  1  0
  8 37  1  0
  8 38  1  0
  9 39  1  0
 12 40  1  0
 13 41  1  0
 14 42  1  0
 15 43  1  0
 18 44  1  0
 18 45  1  0
 18 46  1  0
 20 47  1  0
 21 48  1  0
 22 49  1  0
 23 50  1  0
M  CHG  1  17   1
M  END
>  <UniqueID>  (15) 
15

>  <SMILES>  (15) 
CN(C)CCOCCNc1c2ccccc2[n+](C)c2ccccc12

>  <Energy>  (15) 
75.47517437179803

>  <Genealogy>  (15) 
CN(C)CCOCCNc1c2ccccc2[n+](C)c2ccccc12 (3D coordinates assigned)
CN(C)CCOCCNc1c2ccccc2[n+](C)c2ccccc12 (optimized conformer: 75.47517437179803 kcal/mol)

>  <smiles>  (15) 
CN(C)CCOCCNc1c2ccccc2[n+](C)c2ccccc12

>  <score_type>  (15) 
oracle

>  <origin>  (15) 
adg

>  <m_score__min__energy>  (15) 
-4.7300000000000004

>  <m_primary>  (15) 
energy

$$$$
15:0
     RDKit          3D

 61 64  0  0  0  0  0  0  0  0999 V2000
   62.2620   31.8180   47.9800 C   0  0  0  0  0  0  0  0  0  0  0  0
   62.1070   32.8180   49.1250 C   0  0  0  0  0  0  0  0  0  0  0  0
   60.9180   32.5040   49.9350 N   0  0  0  0  0  0  0  0  0  0  0  0
   60.1860   33.7110   50.3630 C   0  0  0  0  0  0  0  0  0  0  0  0
   59.2570   33.4590   51.5580 C   0  0  0  0  0  0  0  0  0  0  0  0
   59.5510   32.2050   52.1370 O   0  0  0  0  0  0  0  0  0  0  0  0
   58.4460   31.3410   51.9800 C   0  0  0  0  0  0  0  0  0  0  0  0
   58.9270   29.9870   51.4780 C   0  0  0  0  0  0  0  0  0  0  0  0
   60.0940   30.1650   50.6960 O   0  0  0  0  0  0  0  0  0  0  0  0
   60.6320   28.9210   50.2860 C   0  0  0  0  0  0  0  0  0  0  0  0
   60.0300   28.4250   48.9630 C   0  0  0  0  0  0  0  0  0  0  0  0
   58.8830   29.2370   48.5480 N   0  0  0  0  0  0  0  0  0  0  0  0
   58.6580   29.6460   47.1900 C   0  0  0  0  0  0  0  0  0  0  0  0
   58.3400   28.7400   46.1500 C   0  0  0  0  0  0  0  0  0  0  0  0
   58.1650   27.3670   46.4090 C   0  0  0  0  0  0  0  0  0  0  0  0
   57.9410   26.4710   45.3650 C   0  0  0  0  0  0  0  0  0  0  0  0
   57.8780   26.9260   44.0520 C   0  0  0  0  0  0  0  0  0  0  0  0
   57.9820   28.2880   43.7720 C   0  0  0  0  0  0  0  0  0  0  0  0
   58.1620   29.2330   44.8100 C   0  0  0  0  0  0  0  0  0  0  0  0
   58.1720   30.5970   44.5590 N   0  0  0  0  0  0  0  0  0  0  0  0
   57.6780   31.1560   43.2890 C   0  0  0  0  0  0  0  0  0  0  0  0
   58.5650   31.4310   45.5720 C   0  0  0  0  0  0  0  0  0  0  0  0
   58.7810   30.9850   46.8550 C   0  0  0  0  0  0  0  0  0  0  0  0
   59.1270   31.9710   47.6560 O   0  0  0  0  0  0  0  0  0  0  0  0
   59.1650   33.0610   46.9220 C   0  0  0  0  0  0  0  0  0  0  0  0
   59.5190   34.3400   47.3470 C   0  0  0  0  0  0  0  0  0  0  0  0
   59.5550   35.3680   46.3900 C   0  0  0  0  0  0  0  0  0  0  0  0
   59.2520   35.0980   45.0390 C   0  0  0  0  0  0  0  0  0  0  0  0
   58.8970   33.7990   44.6300 C   0  0  0  0  0  0  0  0  0  0  0  0
   58.8310   32.7960   45.6060 C   0  0  0  0  0  0  0  0  0  0  0  0
   62.4182   30.8101   48.3920 H   0  0  0  0  0  0  0  0  0  0  0  0
   61.3521   31.8244   47.3619 H   0  0  0  0  0  0  0  0  0  0  0  0
   63.1272   32.0996   47.3619 H   0  0  0  0  0  0  0  0  0  0  0  0
   63.0009   32.7754   49.7647 H   0  0  0  0  0  0  0  0  0  0  0  0
   61.9885   33.8256   48.7000 H   0  0  0  0  0  0  0  0  0  0  0  0
   61.2280   32.0000   50.7990 H   0  0  0  0  0  0  0  0  0  0  0  0
   60.2830   31.8710   49.3980 H   0  0  0  0  0  0  0  0  0  0  0  0
   60.9175   34.4826   50.6448 H   0  0  0  0  0  0  0  0  0  0  0  0
   59.5562   34.0293   49.5192 H   0  0  0  0  0  0  0  0  0  0  0  0
   59.4035   34.2506   52.3076 H   0  0  0  0  0  0  0  0  0  0  0  0
   58.2125   33.4636   51.2130 H   0  0  0  0  0  0  0  0  0  0  0  0
   57.9395   31.2141   52.9482 H   0  0  0  0  0  0  0  0  0  0  0  0
   57.7436   31.7732   51.2521 H   0  0  0  0  0  0  0  0  0  0  0  0
   59.1551   29.3371   52.3357 H   0  0  0  0  0  0  0  0  0  0  0  0
   58.1410   29.5207   50.8658 H   0  0  0  0  0  0  0  0  0  0  0  0
   61.7190   29.0319   50.1589 H   0  0  0  0  0  0  0  0  0  0  0  0
   60.3879   28.1803   51.0618 H   0  0  0  0  0  0  0  0  0  0  0  0
   60.8018   28.4730   48.1806 H   0  0  0  0  0  0  0  0  0  0  0  0
   59.6814   27.3924   49.1122 H   0  0  0  0  0  0  0  0  0  0  0  0
   58.3540   29.7390   49.2970 H   0  0  0  0  0  0  0  0  0  0  0  0
   58.2054   26.9982   47.4445 H   0  0  0  0  0  0  0  0  0  0  0  0
   57.8135   25.3998   45.5803 H   0  0  0  0  0  0  0  0  0  0  0  0
   57.7454   26.2073   43.2299 H   0  0  0  0  0  0  0  0  0  0  0  0
   57.9233   28.6330   42.7291 H   0  0  0  0  0  0  0  0  0  0  0  0
   56.9629   31.9652   43.4981 H   0  0  0  0  0  0  0  0  0  0  0  0
   58.5241   31.5549   42.7102 H   0  0  0  0  0  0  0  0  0  0  0  0
   57.1781   30.3654   42.7102 H   0  0  0  0  0  0  0  0  0  0  0  0
   59.7631   34.5390   48.4010 H   0  0  0  0  0  0  0  0  0  0  0  0
   59.8213   36.3904   46.6963 H   0  0  0  0  0  0  0  0  0  0  0  0
   59.2936   35.9102   44.2984 H   0  0  0  0  0  0  0  0  0  0  0  0
   58.6778   33.5777   43.5750 H   0  0  0  0  0  0  0  0  0  0  0  0
  1  2  1  0
  2  3  1  0
  3  4  1  0
  4  5  1  0
  5  6  1  0
  6  7  1  0
  7  8  1  0
  8  9  1  0
  9 10  1  0
 10 11  1  0
 11 12  1  0
 12 13  1  0
 13 14  2  0
 14 15  1  0
 15 16  2  0
 16 17  1  0
 17 18  2  0
 18 19  1  0
 19 20  2  0
 20 21  1  0
 20 22  1  0
 22 23  2  0
 23 24  1  0
 24 25  1  0
 25 26  2  0
 26 27  1  0
 27 28  2  0
 28 29  1  0
 29 30  2  0
 23 13  1  0
 30 25  1  0
 19 14  1  0
 30 22  1  0
  1 31  1  0
  1 32  1  0
  1 33  1  0
  2 34  1  0
  2 35  1  0
  3 36  1  0
  3 37  1  0
  4 38  1  0
  4 39  1  0
  5 40  1  0
  5 41  1  0
  7 42  1  0
  7 43  1  0
  8 44  1  0
  8 45  1  0
 10 46  1  0
 10 47  1  0
 11 48  1  0
 11 49  1  0
 12 50  1  0
 15 51  1  0
 16 52  1  0
 17 53  1  0
 18 54  1  0
 21 55  1  0
 21 56  1  0
 21 57  1  0
 26 58  1  0
 27 59  1  0
 28 60  1  0
 29 61  1  0
M  CHG  2   3   1  20   1
M  END
>  <UniqueID>  (16) 
16

>  <SMILES>  (16) 
CC[NH2+]CCOCCOCCNc1c2ccccc2[n+](C)c2c1oc1ccccc12

>  <Energy>  (16) 
114.54335228905134

>  <Genealogy>  (16) 
CC[NH2+]CCOCCOCCNc1c2ccccc2[n+](C)c2c1oc1ccccc12 (protonated)
CC[NH2+]CCOCCOCCNc1c2ccccc2[n+](C)c2c1oc1ccccc12 (3D coordinates assigned)
CC[NH2+]CCOCCOCCNc1c2ccccc2[n+](C)c2c1oc1ccccc12 (optimized conformer: 114.54335228905134 kcal/mol)

>  <smiles>  (16) 
CCNCCOCCOCCNc1c2ccccc2[n+](C)c2c1oc1ccccc12

>  <score_type>  (16) 
oracle

>  <origin>  (16) 
adg

>  <m_score__min__energy>  (16) 
-4.3300000000000001

>  <m_primary>  (16) 
energy

$$$$
16:0
     RDKit          3D

 60 62  0  0  0  0  0  0  0  0999 V2000
   63.3190   33.8370   46.3970 C   0  0  0  0  0  0  0  0  0  0  0  0
   63.4390   32.4980   47.1170 C   0  0  0  0  0  0  0  0  0  0  0  0
   63.0980   32.6520   48.5480 N   0  0  0  0  0  0  0  0  0  0  0  0
   64.0900   31.9920   49.4350 C   0  0  0  0  0  0  0  0  0  0  0  0
   63.4680   31.1130   50.5290 C   0  0  0  0  0  0  0  0  0  0  0  0
   62.8330   34.0690   48.8950 C   0  0  0  0  0  0  0  0  0  0  0  0
   61.8530   34.1960   50.0710 C   0  0  0  0  0  0  0  0  0  0  0  0
   60.5130   34.2130   49.6160 O   0  0  0  0  0  0  0  0  0  0  0  0
   59.6370   33.5540   50.5150 C   0  0  0  0  0  0  0  0  0  0  0  0
   60.1360   32.1350   50.8190 C   0  0  0  0  0  0  0  0  0  0  0  0
   59.9200   31.1480   49.6550 C   0  0  0  0  0  0  0  0  0  0  0  0
   60.6430   31.5650   48.4400 N   0  0  0  0  0  0  0  0  0  0  0  0
   59.8300   31.3280   47.2560 C   0  0  0  0  0  0  0  0  0  0  0  0
   59.3640   32.4160   46.4710 C   0  0  0  0  0  0  0  0  0  0  0  0
   59.7760   33.7490   46.7270 C   0  0  0  0  0  0  0  0  0  0  0  0
   59.2370   34.8180   46.0170 C   0  0  0  0  0  0  0  0  0  0  0  0
   58.2770   34.5920   45.0430 C   0  0  0  0  0  0  0  0  0  0  0  0
   57.8890   33.2910   44.7330 C   0  0  0  0  0  0  0  0  0  0  0  0
   58.4640   32.1740   45.3960 C   0  0  0  0  0  0  0  0  0  0  0  0
   58.1540   30.8820   45.0220 N   0  0  0  0  0  0  0  0  0  0  0  0
   57.4700   30.6320   43.7320 C   0  0  0  0  0  0  0  0  0  0  0  0
   58.5300   29.8170   45.8170 C   0  0  0  0  0  0  0  0  0  0  0  0
   58.0240   28.5110   45.5880 C   0  0  0  0  0  0  0  0  0  0  0  0
   58.4810   27.4190   46.3220 C   0  0  0  0  0  0  0  0  0  0  0  0
   57.7910   25.6720   45.9710 Br  0  0  0  0  0  0  0  0  0  0  0  0
   59.4470   27.5970   47.3030 C   0  0  0  0  0  0  0  0  0  0  0  0
   59.9190   28.8740   47.5930 C   0  0  0  0  0  0  0  0  0  0  0  0
   59.4340   30.0110   46.9000 C   0  0  0  0  0  0  0  0  0  0  0  0
   63.2464   34.6466   47.1381 H   0  0  0  0  0  0  0  0  0  0  0  0
   64.2066   33.9953   45.7668 H   0  0  0  0  0  0  0  0  0  0  0  0
   62.4174   33.8349   45.7668 H   0  0  0  0  0  0  0  0  0  0  0  0
   62.7502   31.7750   46.6557 H   0  0  0  0  0  0  0  0  0  0  0  0
   64.4751   32.1382   47.0329 H   0  0  0  0  0  0  0  0  0  0  0  0
   64.7419   31.3602   48.8138 H   0  0  0  0  0  0  0  0  0  0  0  0
   64.6391   32.7951   49.9484 H   0  0  0  0  0  0  0  0  0  0  0  0
   63.7464   31.5064   51.5178 H   0  0  0  0  0  0  0  0  0  0  0  0
   62.3728   31.1202   50.4266 H   0  0  0  0  0  0  0  0  0  0  0  0
   63.8391   30.0826   50.4266 H   0  0  0  0  0  0  0  0  0  0  0  0
   63.7826   34.5517   49.1694 H   0  0  0  0  0  0  0  0  0  0  0  0
   62.3799   34.5560   48.0189 H   0  0  0  0  0  0  0  0  0  0  0  0
   61.9918   33.3407   50.7487 H   0  0  0  0  0  0  0  0  0  0  0  0
   62.0565   35.1411   50.5958 H   0  0  0  0  0  0  0  0  0  0  0  0
   59.5846   34.1267   51.4527 H   0  0  0  0  0  0  0  0  0  0  0  0
   58.6415   33.4864   50.0520 H   0  0  0  0  0  0  0  0  0  0  0  0
   61.2125   32.1837   51.0397 H   0  0  0  0  0  0  0  0  0  0  0  0
   59.5529   31.7618   51.6738 H   0  0  0  0  0  0  0  0  0  0  0  0
   60.2801   30.1543   49.9598 H   0  0  0  0  0  0  0  0  0  0  0  0
   58.8453   31.1257   49.4217 H   0  0  0  0  0  0  0  0  0  0  0  0
   60.9240   32.5690   48.5090 H   0  0  0  0  0  0  0  0  0  0  0  0
   61.5600   31.0790   48.3600 H   0  0  0  0  0  0  0  0  0  0  0  0
   60.5346   33.9412   47.5000 H   0  0  0  0  0  0  0  0  0  0  0  0
   59.5733   35.8436   46.2291 H   0  0  0  0  0  0  0  0  0  0  0  0
   57.8209   35.4418   44.5140 H   0  0  0  0  0  0  0  0  0  0  0  0
   57.1234   33.1253   43.9607 H   0  0  0  0  0  0  0  0  0  0  0  0
   56.4525   30.2601   43.9225 H   0  0  0  0  0  0  0  0  0  0  0  0
   57.4165   31.5687   43.1578 H   0  0  0  0  0  0  0  0  0  0  0  0
   58.0331   29.8816   43.1578 H   0  0  0  0  0  0  0  0  0  0  0  0
   57.2558   28.3581   44.8157 H   0  0  0  0  0  0  0  0  0  0  0  0
   59.8397   26.7282   47.8516 H   0  0  0  0  0  0  0  0  0  0  0  0
   60.6824   29.0029   48.3744 H   0  0  0  0  0  0  0  0  0  0  0  0
  1  2  1  0
  2  3  1  0
  3  4  1  0
  4  5  1  0
  3  6  1  0
  6  7  1  0
  7  8  1  0
  8  9  1  0
  9 10  1  0
 10 11  1  0
 11 12  1  0
 12 13  1  0
 13 14  2  0
 14 15  1  0
 15 16  2  0
 16 17  1  0
 17 18  2  0
 18 19  1  0
 19 20  2  0
 20 21  1  0
 20 22  1  0
 22 23  2  0
 23 24  1  0
 24 25  1  0
 24 26  2  0
 26 27  1  0
 27 28  2  0
 28 13  1  0
 19 14  1  0
 28 22  1  0
  1 29  1  0
  1 30  1  0
  1 31  1  0
  2 32  1  0
  2 33  1  0
  4 34  1  0
  4 35  1  0
  5 36  1  0
  5 37  1  0
  5 38  1  0
  6 39  1  0
  6 40  1  0
  7 41  1  0
  7 42  1  0
  9 43  1  0
  9 44  1  0
 10 45  1  0
 10 46  1  0
 11 47  1  0
 11 48  1  0
 12 49  1  0
 12 50  1  0
 15 51  1  0
 16 52  1  0
 17 53  1  0
 18 54  1  0
 21 55  1  0
 21 56  1  0
 21 57  1  0
 23 58  1  0
 26 59  1  0
 27 60  1  0
M  CHG  2  12   1  20   1
M  END
>  <UniqueID>  (17) 
17

>  <SMILES>  (17) 
CCN(CC)CCOCCC[NH2+]c1c2ccccc2[n+](C)c2cc(Br)ccc12

>  <Energy>  (17) 
90.81716505816591

>  <Genealogy>  (17) 
CCN(CC)CCOCCC[NH2+]c1c2ccccc2[n+](C)c2cc(Br)ccc12 (protonated)
CCN(CC)CCOCCC[NH2+]c1c2ccccc2[n+](C)c2cc(Br)ccc12 (3D coordinates assigned)
CCN(CC)CCOCCC[NH2+]c1c2ccccc2[n+](C)c2cc(Br)ccc12 (optimized conformer: 90.81716505816591 kcal/mol)

>  <smiles>  (17) 
CCN(CC)CCOCCCNc1c2ccccc2[n+](C)c2cc(Br)ccc12

>  <score_type>  (17) 
oracle

>  <origin>  (17) 
adg

>  <m_score__min__energy>  (17) 
-4.4500000000000002

>  <m_primary>  (17) 
energy

$$$$
17:0
     RDKit          3D

 30 32  0  0  0  0  0  0  0  0999 V2000
   59.3050   27.3160   47.3370 C   0  0  0  0  0  0  0  0  0  0  0  0
   59.4540   28.0470   46.0840 N   0  0  0  0  0  0  0  0  0  0  0  0
   60.6010   28.3600   45.4500 C   0  0  0  0  0  0  0  0  0  0  0  0
   60.3570   28.9510   44.2610 N   0  0  0  0  0  0  0  0  0  0  0  0
   59.0400   29.0030   44.1350 N   0  0  0  0  0  0  0  0  0  0  0  0
   58.4960   28.4450   45.2290 C   0  0  0  0  0  0  0  0  0  0  0  0
   56.7290   28.2440   45.4830 S   0  0  0  0  0  0  0  0  0  0  0  0
   56.2490   29.3790   44.1360 C   0  0  0  0  0  0  0  0  0  0  0  0
   57.0180   30.6590   44.2280 C   0  0  0  0  0  0  0  0  0  0  0  0
   57.3740   31.1510   45.4430 N   0  0  0  0  0  0  0  0  0  0  0  0
   58.1040   32.2910   45.5500 C   0  0  0  0  0  0  0  0  0  0  0  0
   58.4570   32.7810   46.8130 C   0  0  0  0  0  0  0  0  0  0  0  0
   59.2120   33.9540   46.9230 C   0  0  0  0  0  0  0  0  0  0  0  0
   59.6530   34.5650   48.5080 Cl  0  0  0  0  0  0  0  0  0  0  0  0
   59.6160   34.6390   45.7720 C   0  0  0  0  0  0  0  0  0  0  0  0
   59.2680   34.1560   44.5060 C   0  0  0  0  0  0  0  0  0  0  0  0
   58.5100   32.9790   44.3870 C   0  0  0  0  0  0  0  0  0  0  0  0
   58.1340   32.4460   43.1420 C   0  0  0  0  0  0  0  0  0  0  0  0
   58.4680   33.0120   42.0670 O   0  0  0  0  0  0  0  0  0  0  0  0
   57.4030   31.3030   43.0940 N   0  0  0  0  0  0  0  0  0  0  0  0
   59.4455   28.0054   48.1826 H   0  0  0  0  0  0  0  0  0  0  0  0
   58.2985   26.8750   47.3868 H   0  0  0  0  0  0  0  0  0  0  0  0
   60.0586   26.5162   47.3868 H   0  0  0  0  0  0  0  0  0  0  0  0
   61.6062   28.1599   45.8495 H   0  0  0  0  0  0  0  0  0  0  0  0
   58.5350   29.3940   43.3090 H   0  0  0  0  0  0  0  0  0  0  0  0
   56.4580   28.9003   43.1679 H   0  0  0  0  0  0  0  0  0  0  0  0
   55.1757   29.6025   44.2256 H   0  0  0  0  0  0  0  0  0  0  0  0
   58.1407   32.2437   47.7193 H   0  0  0  0  0  0  0  0  0  0  0  0
   60.2094   35.5607   45.8628 H   0  0  0  0  0  0  0  0  0  0  0  0
   59.5878   34.6977   43.6037 H   0  0  0  0  0  0  0  0  0  0  0  0
  1  2  1  0
  2  3  1  0
  3  4  2  0
  4  5  1  0
  5  6  2  0
  6  7  1  0
  7  8  1  0
  8  9  1  0
  9 10  2  0
 10 11  1  0
 11 12  2  0
 12 13  1  0
 13 14  1  0
 13 15  2  0
 15 16  1  0
 16 17  2  0
 17 18  1  0
 18 19  2  0
 18 20  1  0
  6  2  1  0
 20  9  1  0
 17 11  1  0
  1 21  1  0
  1 22  1  0
  1 23  1  0
  3 24  1  0
  5 25  1  0
  8 26  1  0
  8 27  1  0
 12 28  1  0
 15 29  1  0
 16 30  1  0
M  CHG  2   5   1  20  -1
M  END
>  <UniqueID>  (18) 
18

>  <SMILES>  (18) 
Cn1cn[nH+]c1SCc1nc2cc(Cl)ccc2c(=O)[n-]1

>  <Energy>  (18) 
65.81676938894294

>  <Genealogy>  (18) 
Cn1cn[nH+]c1SCc1nc2cc(Cl)ccc2c(=O)[n-]1 (protonated)
Cn1cn[nH+]c1SCc1nc2cc(Cl)ccc2c(=O)[n-]1 (3D coordinates assigned)
Cn1cn[nH+]c1SCc1nc2cc(Cl)ccc2c(=O)[n-]1 (optimized conformer: 65.81676938894294 kcal/mol)

>  <smiles>  (18) 
Cn1cnnc1SCc1nc2cc(Cl)ccc2c(=O)[nH]1

>  <score_type>  (18) 
oracle

>  <origin>  (18) 
adg

>  <m_score__min__energy>  (18) 
-7.3200000000000003

>  <m_primary>  (18) 
energy

$$$$
18:0
     RDKit          3D

 33 32  0  0  0  0  0  0  0  0999 V2000
   56.6250   29.9640   42.8040 C   0  0  0  0  0  0  0  0  0  0  0  0
   55.9230   30.3830   44.0920 C   0  0  0  0  0  0  0  0  0  0  0  0
   56.1790   29.4030   45.1600 N   0  0  0  0  0  0  0  0  0  0  0  0
   57.6140   29.2290   45.4360 C   0  0  0  0  0  0  0  0  0  0  0  0
   58.1580   30.3560   46.2120 C   0  0  0  0  0  0  0  0  0  0  0  0
   58.5930   31.2790   46.8520 C   0  0  0  0  0  0  0  0  0  0  0  0
   59.1220   32.4150   47.6250 C   0  0  0  0  0  0  0  0  0  0  0  0
   58.6610   33.7210   47.0890 N   0  0  0  0  0  0  0  0  0  0  0  0
   57.3820   33.5330   46.3570 C   0  0  0  0  0  0  0  0  0  0  0  0
   57.4530   33.9800   44.8920 C   0  0  0  0  0  0  0  0  0  0  0  0
   59.7090   34.4250   46.2920 C   0  0  0  0  0  0  0  0  0  0  0  0
   61.1310   33.8630   46.4480 C   0  0  0  0  0  0  0  0  0  0  0  0
   57.5456   29.4145   43.0502 H   0  0  0  0  0  0  0  0  0  0  0  0
   55.9575   29.3165   42.2165 H   0  0  0  0  0  0  0  0  0  0  0  0
   56.8781   30.8589   42.2165 H   0  0  0  0  0  0  0  0  0  0  0  0
   56.2998   31.3676   44.4060 H   0  0  0  0  0  0  0  0  0  0  0  0
   54.8398   30.4333   43.9070 H   0  0  0  0  0  0  0  0  0  0  0  0
   55.6980   29.7200   46.0350 H   0  0  0  0  0  0  0  0  0  0  0  0
   57.7574   28.3001   46.0074 H   0  0  0  0  0  0  0  0  0  0  0  0
   58.1462   29.1852   44.4743 H   0  0  0  0  0  0  0  0  0  0  0  0
   58.7853   32.3213   48.6680 H   0  0  0  0  0  0  0  0  0  0  0  0
   60.2195   32.3895   47.5550 H   0  0  0  0  0  0  0  0  0  0  0  0
   58.4510   34.3310   47.9160 H   0  0  0  0  0  0  0  0  0  0  0  0
   57.1171   32.4657   46.3844 H   0  0  0  0  0  0  0  0  0  0  0  0
   56.6262   34.1592   46.8535 H   0  0  0  0  0  0  0  0  0  0  0  0
   57.6254   35.0655   44.8478 H   0  0  0  0  0  0  0  0  0  0  0  0
   58.2793   33.4567   44.3886 H   0  0  0  0  0  0  0  0  0  0  0  0
   56.5052   33.7385   44.3886 H   0  0  0  0  0  0  0  0  0  0  0  0
   59.4310   34.3598   45.2297 H   0  0  0  0  0  0  0  0  0  0  0  0
   59.7429   35.4566   46.6722 H   0  0  0  0  0  0  0  0  0  0  0  0
   61.3723   33.7676   47.5170 H   0  0  0  0  0  0  0  0  0  0  0  0
   61.1891   32.8743   45.9694 H   0  0  0  0  0  0  0  0  0  0  0  0
   61.8493   34.5449   45.9694 H   0  0  0  0  0  0  0  0  0  0  0  0
  1  2  1  0
  2  3  1  0
  3  4  1  0
  4  5  1  0
  5  6  3  0
  6  7  1  0
  7  8  1  0
  8  9  1  0
  9 10  1  0
  8 11  1  0
 11 12  1  0
  1 13  1  0
  1 14  1  0
  1 15  1  0
  2 16  1  0
  2 17  1  0
  3 18  1  0
  4 19  1  0
  4 20  1  0
  7 21  1  0
  7 22  1  0
  8 23  1  0
  9 24  1  0
  9 25  1  0
 10 26  1  0
 10 27  1  0
 10 28  1  0
 11 29  1  0
 11 30  1  0
 12 31  1  0
 12 32  1  0
 12 33  1  0
M  CHG  1   8   1
M  END
>  <UniqueID>  (19) 
19

>  <SMILES>  (19) 
CCNCC#CC[NH+](CC)CC

>  <Energy>  (19) 
24.83906788784401

>  <Genealogy>  (19) 
CCNCC#CC[NH+](CC)CC (protonated)
CCNCC#CC[NH+](CC)CC (3D coordinates assigned)
CCNCC#CC[NH+](CC)CC (optimized conformer: 24.83906788784401 kcal/mol)

>  <smiles>  (19) 
CCNCC#CCN(CC)CC

>  <score_type>  (19) 
oracle

>  <origin>  (19) 
adg

>  <m_score__min__energy>  (19) 
-2.54

>  <m_primary>  (19) 
energy

$$$$
19:0
     RDKit          3D

 53 54  0  0  0  0  0  0  0  0999 V2000
   53.8460   24.4280   45.4790 C   0  0  0  0  0  0  0  0  0  0  0  0
   55.3250   24.8250   45.5170 C   0  0  0  0  0  0  0  0  0  0  0  0
   55.5330   26.1840   46.0390 N   0  0  0  0  0  0  0  0  0  0  0  0
   56.8530   26.3460   46.6640 C   0  0  0  0  0  0  0  0  0  0  0  0
   57.9080   25.5360   45.9020 C   0  0  0  0  0  0  0  0  0  0  0  0
   58.5050   26.3330   44.7300 C   0  0  0  0  0  0  0  0  0  0  0  0
   57.5050   27.1390   43.9950 N   0  0  0  0  0  0  0  0  0  0  0  0
   57.7840   28.5910   43.8140 C   0  0  0  0  0  0  0  0  0  0  0  0
   58.4760   29.2640   45.0180 C   0  0  0  0  0  0  0  0  0  0  0  0
   58.8740   30.7210   44.6880 C   0  0  0  0  0  0  0  0  0  0  0  0
   58.0210   31.3430   43.6400 N   0  0  0  0  0  0  0  0  0  0  0  0
   58.0740   32.8190   43.7050 C   0  0  0  0  0  0  0  0  0  0  0  0
   57.2980   33.3530   44.9170 C   0  0  0  0  0  0  0  0  0  0  0  0
   58.2330   33.6440   46.0610 C   0  0  0  0  0  0  0  0  0  0  0  0
   58.1390   32.9110   47.2550 C   0  0  0  0  0  0  0  0  0  0  0  0
   58.9860   33.2030   48.3300 C   0  0  0  0  0  0  0  0  0  0  0  0
   59.9220   34.2340   48.2220 C   0  0  0  0  0  0  0  0  0  0  0  0
   60.0130   34.9780   47.0420 C   0  0  0  0  0  0  0  0  0  0  0  0
   59.1690   34.6880   45.9660 C   0  0  0  0  0  0  0  0  0  0  0  0
   56.6240   30.8740   43.7370 C   0  0  0  0  0  0  0  0  0  0  0  0
   56.5350   29.3880   43.3560 C   0  0  0  0  0  0  0  0  0  0  0  0
   53.4671   24.3263   46.5067 H   0  0  0  0  0  0  0  0  0  0  0  0
   53.2716   25.2037   44.9515 H   0  0  0  0  0  0  0  0  0  0  0  0
   53.7372   23.4689   44.9515 H   0  0  0  0  0  0  0  0  0  0  0  0
   55.8641   24.1142   46.1605 H   0  0  0  0  0  0  0  0  0  0  0  0
   55.7021   24.8038   44.4839 H   0  0  0  0  0  0  0  0  0  0  0  0
   54.7900   26.4010   46.7450 H   0  0  0  0  0  0  0  0  0  0  0  0
   57.1327   27.4097   46.6497 H   0  0  0  0  0  0  0  0  0  0  0  0
   56.8040   25.9820   47.7009 H   0  0  0  0  0  0  0  0  0  0  0  0
   58.7170   25.2636   46.5958 H   0  0  0  0  0  0  0  0  0  0  0  0
   57.4196   24.6398   45.4918 H   0  0  0  0  0  0  0  0  0  0  0  0
   59.2754   27.0108   45.1263 H   0  0  0  0  0  0  0  0  0  0  0  0
   58.9182   25.6026   44.0188 H   0  0  0  0  0  0  0  0  0  0  0  0
   57.4300   26.7170   43.0400 H   0  0  0  0  0  0  0  0  0  0  0  0
   56.5660   27.0100   44.4400 H   0  0  0  0  0  0  0  0  0  0  0  0
   58.5184   28.6244   42.9958 H   0  0  0  0  0  0  0  0  0  0  0  0
   57.7858   29.2653   45.8745 H   0  0  0  0  0  0  0  0  0  0  0  0
   59.3884   28.6983   45.2577 H   0  0  0  0  0  0  0  0  0  0  0  0
   58.7921   31.3214   45.6061 H   0  0  0  0  0  0  0  0  0  0  0  0
   59.9022   30.6966   44.2978 H   0  0  0  0  0  0  0  0  0  0  0  0
   59.1242   33.1366   43.7839 H   0  0  0  0  0  0  0  0  0  0  0  0
   57.6123   33.2232   42.7921 H   0  0  0  0  0  0  0  0  0  0  0  0
   56.7763   34.2787   44.6325 H   0  0  0  0  0  0  0  0  0  0  0  0
   56.5735   32.5899   45.2375 H   0  0  0  0  0  0  0  0  0  0  0  0
   57.3968   32.1042   47.3457 H   0  0  0  0  0  0  0  0  0  0  0  0
   58.9146   32.6204   49.2603 H   0  0  0  0  0  0  0  0  0  0  0  0
   60.5887   34.4610   49.0669 H   0  0  0  0  0  0  0  0  0  0  0  0
   60.7487   35.7916   46.9602 H   0  0  0  0  0  0  0  0  0  0  0  0
   59.2378   35.2794   45.0411 H   0  0  0  0  0  0  0  0  0  0  0  0
   56.2672   31.0064   44.7691 H   0  0  0  0  0  0  0  0  0  0  0  0
   56.0002   31.4596   43.0457 H   0  0  0  0  0  0  0  0  0  0  0  0
   55.6432   28.9531   43.8310 H   0  0  0  0  0  0  0  0  0  0  0  0
   56.4758   29.3230   42.2595 H   0  0  0  0  0  0  0  0  0  0  0  0
  1  2  1  0
  2  3  1  0
  3  4  1  0
  4  5  1  0
  5  6  1  0
  6  7  1  0
  7  8  1  0
  8  9  1  0
  9 10  1  0
 10 11  1  0
 11 12  1  0
 12 13  1  0
 13 14  1  0
 14 15  2  0
 15 16  1  0
 16 17  2  0
 17 18  1  0
 18 19  2  0
 11 20  1  0
 20 21  1  0
 21  8  1  0
 19 14  1  0
  1 22  1  0
  1 23  1  0
  1 24  1  0
  2 25  1  0
  2 26  1  0
  3 27  1  0
  4 28  1  0
  4 29  1  0
  5 30  1  0
  5 31  1  0
  6 32  1  0
  6 33  1  0
  7 34  1  0
  7 35  1  0
  8 36  1  0
  9 37  1  0
  9 38  1  0
 10 39  1  0
 10 40  1  0
 12 41  1  0
 12 42  1  0
 13 43  1  0
 13 44  1  0
 15 45  1  0
 16 46  1  0
 17 47  1  0
 18 48  1  0
 19 49  1  0
 20 50  1  0
 20 51  1  0
 21 52  1  0
 21 53  1  0
M  CHG  1   7   1
M  END
>  <UniqueID>  (20) 
20

>  <SMILES>  (20) 
CCNCCC[NH2+]C1CCN(CCc2ccccc2)CC1

>  <Energy>  (20) 
58.05292467863196

>  <Genealogy>  (20) 
CCNCCC[NH2+]C1CCN(CCc2ccccc2)CC1 (protonated)
CCNCCC[NH2+]C1CCN(CCc2ccccc2)CC1 (3D coordinates assigned)
CCNCCC[NH2+]C1CCN(CCc2ccccc2)CC1 (nonaromatic ring conformer: 58.05292467863196 kcal/mol)

>  <smiles>  (20) 
CCNCCCNC1CCN(CCc2ccccc2)CC1

>  <score_type>  (20) 
oracle

>  <origin>  (20) 
adg

>  <m_score__min__energy>  (20) 
-6.8700000000000001

>  <m_primary>  (20) 
energy

$$$$
20:0
     RDKit          3D

 47 48  0  0  0  0  0  0  0  0999 V2000
   54.4070   30.6820   51.8830 C   0  0  0  0  0  0  0  0  0  0  0  0
   55.3610   29.6080   52.3900 C   0  0  0  0  0  0  0  0  0  0  0  0
   56.6640   29.7900   51.8380 O   0  0  0  0  0  0  0  0  0  0  0  0
   57.4500   30.9250   52.0710 C   0  0  0  0  0  0  0  0  0  0  0  0
   57.2460   31.6410   53.0890 O   0  0  0  0  0  0  0  0  0  0  0  0
   58.5140   31.2720   51.1090 C   0  0  0  0  0  0  0  0  0  0  0  0
   58.6900   32.5340   50.5700 C   0  0  0  0  0  0  0  0  0  0  0  0
   59.7850   32.4420   49.7370 C   0  0  0  0  0  0  0  0  0  0  0  0
   60.4930   33.7570   48.8210 S   0  0  0  0  0  0  0  0  0  0  0  0
   61.8330   34.1140   49.3990 O   0  0  0  0  0  0  0  0  0  0  0  0
   59.6040   34.9680   48.9080 O   0  0  0  0  0  0  0  0  0  0  0  0
   60.6700   33.2750   47.1590 N   0  0  0  0  0  0  0  0  0  0  0  0
   61.9610   33.4820   46.4900 C   0  0  0  0  0  0  0  0  0  0  0  0
   63.0450   32.6200   47.1290 C   0  0  0  0  0  0  0  0  0  0  0  0
   59.5790   32.6290   46.4770 C   0  0  0  0  0  0  0  0  0  0  0  0
   59.5390   31.2300   46.3560 C   0  0  0  0  0  0  0  0  0  0  0  0
   58.4720   30.6060   45.7030 C   0  0  0  0  0  0  0  0  0  0  0  0
   57.4240   31.3730   45.1620 C   0  0  0  0  0  0  0  0  0  0  0  0
   56.3310   30.7930   44.4990 O   0  0  0  0  0  0  0  0  0  0  0  0
   56.4340   30.0120   43.3130 C   0  0  0  0  0  0  0  0  0  0  0  0
   57.4640   32.7660   45.2850 C   0  0  0  0  0  0  0  0  0  0  0  0
   58.5300   33.3910   45.9380 C   0  0  0  0  0  0  0  0  0  0  0  0
   60.2420   31.1430   49.7940 C   0  0  0  0  0  0  0  0  0  0  0  0
   59.4630   30.4290   50.6300 N   0  0  0  0  0  0  0  0  0  0  0  0
   59.6500   29.0150   50.9490 C   0  0  0  0  0  0  0  0  0  0  0  0
   53.9482   31.1986   52.7389 H   0  0  0  0  0  0  0  0  0  0  0  0
   54.9635   31.4079   51.2720 H   0  0  0  0  0  0  0  0  0  0  0  0
   53.6205   30.2150   51.2720 H   0  0  0  0  0  0  0  0  0  0  0  0
   55.4218   29.6675   53.4867 H   0  0  0  0  0  0  0  0  0  0  0  0
   54.9807   28.6229   52.0819 H   0  0  0  0  0  0  0  0  0  0  0  0
   58.0806   33.4285   50.7660 H   0  0  0  0  0  0  0  0  0  0  0  0
   61.8645   33.2120   45.4280 H   0  0  0  0  0  0  0  0  0  0  0  0
   62.2456   34.5397   46.5911 H   0  0  0  0  0  0  0  0  0  0  0  0
   62.9655   32.6832   48.2243 H   0  0  0  0  0  0  0  0  0  0  0  0
   62.9166   31.5746   46.8118 H   0  0  0  0  0  0  0  0  0  0  0  0
   64.0346   32.9805   46.8118 H   0  0  0  0  0  0  0  0  0  0  0  0
   60.3526   30.6216   46.7778 H   0  0  0  0  0  0  0  0  0  0  0  0
   58.4517   29.5100   45.6117 H   0  0  0  0  0  0  0  0  0  0  0  0
   56.5735   28.9544   43.5814 H   0  0  0  0  0  0  0  0  0  0  0  0
   55.5136   30.1217   42.7207 H   0  0  0  0  0  0  0  0  0  0  0  0
   57.2945   30.3565   42.7207 H   0  0  0  0  0  0  0  0  0  0  0  0
   56.6498   33.3744   44.8643 H   0  0  0  0  0  0  0  0  0  0  0  0
   58.5473   34.4870   46.0303 H   0  0  0  0  0  0  0  0  0  0  0  0
   61.1087   30.7499   49.2423 H   0  0  0  0  0  0  0  0  0  0  0  0
   59.6672   28.8847   52.0411 H   0  0  0  0  0  0  0  0  0  0  0  0
   58.8214   28.4303   50.5230 H   0  0  0  0  0  0  0  0  0  0  0  0
   60.6021   28.6658   50.5230 H   0  0  0  0  0  0  0  0  0  0  0  0
  1  2  1  0
  2  3  1  0
  3  4  1  0
  4  5  2  0
  4  6  1  0
  6  7  2  0
  7  8  1  0
  8  9  1  0
  9 10  2  0
  9 11  2  0
  9 12  1  0
 12 13  1  0
 13 14  1  0
 12 15  1  0
 15 16  2  0
 16 17  1  0
 17 18  2  0
 18 19  1  0
 19 20  1  0
 18 21  1  0
 21 22  2  0
  8 23  2  0
 23 24  1  0
 24 25  1  0
 24  6  1  0
 22 15  1  0
  1 26  1  0
  1 27  1  0
  1 28  1  0
  2 29  1  0
  2 30  1  0
  7 31  1  0
 13 32  1  0
 13 33  1  0
 14 34  1  0
 14 35  1  0
 14 36  1  0
 16 37  1  0
 17 38  1  0
 20 39  1  0
 20 40  1  0
 20 41  1  0
 21 42  1  0
 22 43  1  0
 23 44  1  0
 25 45  1  0
 25 46  1  0
 25 47  1  0
M  END
>  <UniqueID>  (21) 
21

>  <SMILES>  (21) 
CCOC(=O)c1cc(S(=O)(=O)N(CC)c2ccc(OC)cc2)cn1C

>  <Energy>  (21) 
68.81228547933553

>  <Genealogy>  (21) 
CCOC(=O)c1cc(S(=O)(=O)N(CC)c2ccc(OC)cc2)cn1C (3D coordinates assigned)
CCOC(=O)c1cc(S(=O)(=O)N(CC)c2ccc(OC)cc2)cn1C (optimized conformer: 68.81228547933553 kcal/mol)

>  <smiles>  (21) 
CCOC(=O)c1cc(S(=O)(=O)N(CC)c2ccc(OC)cc2)cn1C

>  <score_type>  (21) 
oracle

>  <origin>  (21) 
adg

>  <m_score__min__energy>  (21) 
-7.4299999999999997

>  <m_primary>  (21) 
energy

$$$$
