0:0
     RDKit          3D

 44 48  0  0  0  0  0  0  0  0999 V2000
   64.1330   32.5950   48.7680 C   0  0  0  0  0  0  0  0  0  0  0  0
   62.9860   32.8400   47.9060 N   0  0  0  0  0  0  0  0  0  0  0  0
   61.9170   32.0410   47.7500 C   0  0  0  0  0  0  0  0  0  0  0  0
   61.1370   32.6370   46.7760 C   0  0  0  0  0  0  0  0  0  0  0  0
   59.8510   32.1640   46.2300 C   0  0  0  0  0  0  0  0  0  0  0  0
   59.5580   30.7850   46.1190 C   0  0  0  0  0  0  0  0  0  0  0  0
   58.3200   30.4390   45.5790 C   0  0  0  0  0  0  0  0  0  0  0  0
   57.6800   29.2360   45.3540 C   0  0  0  0  0  0  0  0  0  0  0  0
   58.2020   27.8710   45.5750 C   0  0  0  0  0  0  0  0  0  0  0  0
   57.5590   26.7780   44.9820 C   0  0  0  0  0  0  0  0  0  0  0  0
   58.0680   25.4870   45.1990 C   0  0  0  0  0  0  0  0  0  0  0  0
   57.4390   24.3200   44.6250 N   0  0  0  0  0  0  0  0  0  0  0  0
   56.0830   24.3880   44.0650 C   0  0  0  0  0  0  0  0  0  0  0  0
   55.8900   23.3030   43.0010 C   0  0  0  0  0  0  0  0  0  0  0  0
   56.2700   22.0360   43.4970 O   0  0  0  0  0  0  0  0  0  0  0  0
   57.6600   22.0270   43.7540 C   0  0  0  0  0  0  0  0  0  0  0  0
   58.0090   22.9930   44.8900 C   0  0  0  0  0  0  0  0  0  0  0  0
   59.1750   25.3410   45.9750 N   0  0  0  0  0  0  0  0  0  0  0  0
   59.8000   26.4090   46.5310 C   0  0  0  0  0  0  0  0  0  0  0  0
   59.3220   27.6650   46.3240 N   0  0  0  0  0  0  0  0  0  0  0  0
   56.4360   29.4980   44.8850 N   0  0  0  0  0  0  0  0  0  0  0  0
   56.2700   30.8140   44.7940 N   0  0  0  0  0  0  0  0  0  0  0  0
   57.4110   31.3850   45.2140 C   0  0  0  0  0  0  0  0  0  0  0  0
   57.7000   32.7380   45.3290 C   0  0  0  0  0  0  0  0  0  0  0  0
   58.9190   33.0920   45.8330 N   0  0  0  0  0  0  0  0  0  0  0  0
   61.7610   33.7620   46.3670 N   0  0  0  0  0  0  0  0  0  0  0  0
   62.8840   33.8550   47.0650 N   0  0  0  0  0  0  0  0  0  0  0  0
   63.8213   32.6616   49.8208 H   0  0  0  0  0  0  0  0  0  0  0  0
   64.5346   31.5908   48.5673 H   0  0  0  0  0  0  0  0  0  0  0  0
   64.9099   33.3475   48.5673 H   0  0  0  0  0  0  0  0  0  0  0  0
   61.7056   31.1046   48.2871 H   0  0  0  0  0  0  0  0  0  0  0  0
   60.2761   30.0181   46.4448 H   0  0  0  0  0  0  0  0  0  0  0  0
   56.6678   26.9281   44.3550 H   0  0  0  0  0  0  0  0  0  0  0  0
   55.3499   24.2393   44.8715 H   0  0  0  0  0  0  0  0  0  0  0  0
   55.9380   25.3741   43.5996 H   0  0  0  0  0  0  0  0  0  0  0  0
   54.8305   23.2715   42.7071 H   0  0  0  0  0  0  0  0  0  0  0  0
   56.5227   23.5448   42.1343 H   0  0  0  0  0  0  0  0  0  0  0  0
   57.9677   21.0099   44.0382 H   0  0  0  0  0  0  0  0  0  0  0  0
   58.1890   22.3468   42.8441 H   0  0  0  0  0  0  0  0  0  0  0  0
   57.6004   22.6048   45.8346 H   0  0  0  0  0  0  0  0  0  0  0  0
   59.1032   23.0816   44.9603 H   0  0  0  0  0  0  0  0  0  0  0  0
   60.6960   26.2585   47.1511 H   0  0  0  0  0  0  0  0  0  0  0  0
   59.8510   28.4700   46.7250 H   0  0  0  0  0  0  0  0  0  0  0  0
   56.9695   33.5016   45.0235 H   0  0  0  0  0  0  0  0  0  0  0  0
  1  2  1  0
  2  3  1  0
  3  4  2  0
  4  5  1  0
  5  6  2  0
  6  7  1  0
  7  8  2  0
  8  9  1  0
  9 10  2  0
 10 11  1  0
 11 12  1  0
 12 13  1  0
 13 14  1  0
 14 15  1  0
 15 16  1  0
 16 17  1  0
 11 18  2  0
 18 19  1  0
 19 20  2  0
  8 21  1  0
 21 22  1  0
 22 23  2  0
 23 24  1  0
 24 25  2  0
  4 26  1  0
 26 27  2  0
 27  2  1  0
 25  5  1  0
 23  7  1  0
 20  9  1  0
 17 12  1  0
  1 28  1  0
  1 29  1  0
  1 30  1  0
  3 31  1  0
  6 32  1  0
 10 33  1  0
 13 34  1  0
 13 35  1  0
 14 36  1  0
 14 37  1  0
 16 38  1  0
 16 39  1  0
 17 40  1  0
 17 41  1  0
 19 42  1  0
 20 43  1  0
 24 44  1  0
M  CHG  2  20   1  21  -1
M  END
>  <UniqueID>  (1) 
1

>  <SMILES>  (1) 
Cn1cc(-c2cc3c(-c4cc(N5CCOCC5)nc[nH+]4)[n-]nc3cn2)nn1

>  <Energy>  (1) 
131.54779796760835

>  <Genealogy>  (1) 
Cn1cc(-c2cc3c(-c4cc(N5CCOCC5)nc[nH+]4)[n-]nc3cn2)nn1 (protonated)
Cn1cc(-c2cc3c(-c4cc(N5CCOCC5)nc[nH+]4)[n-]nc3cn2)nn1 (3D coordinates assigned)
Cn1cc(-c2cc3c(-c4cc(N5CCOCC5)nc[nH+]4)[n-]nc3cn2)nn1 (nonaromatic ring conformer: 131.54779796760835 kcal/mol)

>  <smiles>  (1) 
Cn1cc(-c2cc3c(-c4cc(N5CCOCC5)ncn4)[nH]nc3cn2)nn1

>  <score_type>  (1) 
oracle

>  <origin>  (1) 
adg

>  <m_score__min__energy>  (1) 
-8.3699999999999992

>  <m_primary>  (1) 
energy

$$$$
1:0
     RDKit          3D

 36 39  0  0  0  0  0  0  0  0999 V2000
   55.9946   30.2849   42.0627 H   0  0  0  0  0  0  0  0  0  0  0  0
   56.4500   30.2940   43.0640 C   0  0  0  0  0  0  0  0  0  0  0  0
   56.4630   29.1630   43.8130 N   0  0  0  0  0  0  0  0  0  0  0  0
   57.0120   29.1520   45.0580 C   0  0  0  0  0  0  0  0  0  0  0  0
   57.0460   28.0650   45.7730 N   0  0  0  0  0  0  0  0  0  0  0  0
   56.8780   26.7160   45.3040 C   0  0  0  0  0  0  0  0  0  0  0  0
   55.9740   25.8240   45.9070 C   0  0  0  0  0  0  0  0  0  0  0  0
   55.3491   26.1619   46.7468 H   0  0  0  0  0  0  0  0  0  0  0  0
   55.8660   24.5100   45.4440 C   0  0  0  0  0  0  0  0  0  0  0  0
   55.1439   23.8253   45.9127 H   0  0  0  0  0  0  0  0  0  0  0  0
   56.6710   24.0540   44.3850 C   0  0  0  0  0  0  0  0  0  0  0  0
   56.5410   22.6560   43.9070 C   0  0  0  0  0  0  0  0  0  0  0  0
   56.3310   21.5960   44.7130 N   0  0  0  0  0  0  0  0  0  0  0  0
   56.2750   20.5500   43.9010 N   0  0  0  0  0  0  0  0  0  0  0  0
   56.4440   20.9410   42.6480 N   0  0  0  0  0  0  0  0  0  0  0  0
   56.6110   22.2520   42.6260 N   0  0  0  0  0  0  0  0  0  0  0  0
   56.7630   22.8160   41.7630 H   0  0  0  0  0  0  0  0  0  0  0  0
   57.5970   24.9420   43.8080 C   0  0  0  0  0  0  0  0  0  0  0  0
   58.2418   24.5995   42.9853 H   0  0  0  0  0  0  0  0  0  0  0  0
   57.7040   26.2560   44.2720 C   0  0  0  0  0  0  0  0  0  0  0  0
   58.4438   26.9345   43.8222 H   0  0  0  0  0  0  0  0  0  0  0  0
   57.5760   30.2860   45.5510 N   0  0  0  0  0  0  0  0  0  0  0  0
   57.5970   31.4460   44.8380 C   0  0  0  0  0  0  0  0  0  0  0  0
   58.2180   32.6560   45.4370 C   0  0  0  0  0  0  0  0  0  0  0  0
   58.3700   32.7900   46.8320 C   0  0  0  0  0  0  0  0  0  0  0  0
   58.0314   31.9832   47.4987 H   0  0  0  0  0  0  0  0  0  0  0  0
   58.9490   33.9430   47.3740 C   0  0  0  0  0  0  0  0  0  0  0  0
   59.0672   34.0371   48.4636 H   0  0  0  0  0  0  0  0  0  0  0  0
   59.3770   34.9740   46.5360 C   0  0  0  0  0  0  0  0  0  0  0  0
   59.9380   36.0890   47.0640 F   0  0  0  0  0  0  0  0  0  0  0  0
   59.2210   34.8590   45.1530 C   0  0  0  0  0  0  0  0  0  0  0  0
   59.5542   35.6738   44.4934 H   0  0  0  0  0  0  0  0  0  0  0  0
   58.6420   33.7100   44.6050 C   0  0  0  0  0  0  0  0  0  0  0  0
   58.5168   33.6289   43.5152 H   0  0  0  0  0  0  0  0  0  0  0  0
   57.0130   31.4670   43.5620 C   0  0  0  0  0  0  0  0  0  0  0  0
   57.0000   32.3918   42.9666 H   0  0  0  0  0  0  0  0  0  0  0  0
  1  2  1  0
  2  3  1  0
  3  4  1  0
  4  5  2  0
  5  6  1  0
  6  7  2  0
  7  8  1  0
  7  9  1  0
  9 10  1  0
  9 11  2  0
 11 12  1  0
 12 13  2  0
 13 14  1  0
 14 15  1  0
 15 16  2  0
 16 17  1  0
 11 18  1  0
 18 19  1  0
 18 20  2  0
 20 21  1  0
  4 22  1  0
 22 23  2  0
 23 24  1  0
 24 25  2  0
 25 26  1  0
 25 27  1  0
 27 28  1  0
 27 29  2  0
 29 30  1  0
 29 31  1  0
 31 32  1  0
 31 33  2  0
 33 34  1  0
 23 35  1  0
 35 36  1  0
 35  2  2  0
 20  6  1  0
 33 24  1  0
 16 12  1  0
M  CHG  3   3  -1  14  -1  16   1
M  END
>  <UniqueID>  (2) 
2

>  <SMILES>  (2) 
Fc1ccc(-c2cc[n-]/c(=N\c3ccc(-c4n[n-]n[nH+]4)cc3)n2)cc1

>  <Energy>  (2) 
93.00647635714968

>  <Genealogy>  (2) 
Fc1ccc(-c2cc[n-]c(=Nc3ccc(-c4n[n-]n[nH+]4)cc3)n2)cc1 (protonated)
Fc1ccc(-c2cc[n-]/c(=N\c3ccc(-c4n[n-]n[nH+]4)cc3)n2)cc1 (cis-trans isomerization)
Fc1ccc(-c2cc[n-]/c(=N\c3ccc(-c4n[n-]n[nH+]4)cc3)n2)cc1 (3D coordinates assigned)
Fc1ccc(-c2cc[n-]/c(=N\c3ccc(-c4n[n-]n[nH+]4)cc3)n2)cc1 (optimized conformer: 93.00647635714968 kcal/mol)

>  <smiles>  (2) 
Fc1ccc(-c2cc[nH]c(=Nc3ccc(-c4nn[nH]n4)cc3)n2)cc1

>  <score_type>  (2) 
oracle

>  <origin>  (2) 
adg

>  <m_score__min__energy>  (2) 
-10.44

>  <m_primary>  (2) 
energy

$$$$
2:0
     RDKit          3D

 40 42  0  0  0  0  0  0  0  0999 V2000
   57.3970   25.3940   44.7850 C   0  0  0  0  0  0  0  0  0  0  0  0
   57.3280   26.7660   45.1540 O   0  0  0  0  0  0  0  0  0  0  0  0
   57.9050   27.7860   44.3900 C   0  0  0  0  0  0  0  0  0  0  0  0
   58.5050   27.4960   43.3190 O   0  0  0  0  0  0  0  0  0  0  0  0
   57.8670   29.2050   44.8470 C   0  0  0  0  0  0  0  0  0  0  0  0
   56.9110   30.0800   44.4450 C   0  0  0  0  0  0  0  0  0  0  0  0
   55.8040   29.7160   43.4970 C   0  0  0  0  0  0  0  0  0  0  0  0
   56.9370   31.4060   44.8860 O   0  0  0  0  0  0  0  0  0  0  0  0
   58.0230   31.9610   45.5580 C   0  0  0  0  0  0  0  0  0  0  0  0
   58.0600   33.3410   45.7550 C   0  0  0  0  0  0  0  0  0  0  0  0
   59.1560   33.9360   46.3720 C   0  0  0  0  0  0  0  0  0  0  0  0
   60.2350   33.1540   46.8050 C   0  0  0  0  0  0  0  0  0  0  0  0
   61.3070   33.7510   47.4040 N   0  0  0  0  0  0  0  0  0  0  0  0
   62.3760   33.0380   47.8520 C   0  0  0  0  0  0  0  0  0  0  0  0
   63.4380   33.7300   48.4550 O   0  0  0  0  0  0  0  0  0  0  0  0
   64.4840   33.1110   49.1990 C   0  0  0  0  0  0  0  0  0  0  0  0
   62.3870   31.6440   47.6990 C   0  0  0  0  0  0  0  0  0  0  0  0
   61.3070   31.0040   47.0920 C   0  0  0  0  0  0  0  0  0  0  0  0
   60.2040   31.7460   46.6290 C   0  0  0  0  0  0  0  0  0  0  0  0
   59.0750   31.1420   46.0020 C   0  0  0  0  0  0  0  0  0  0  0  0
   58.9040   29.6330   45.8830 C   0  0  1  0  0  0  0  0  0  0  0  0
   58.5080   29.0510   47.2480 C   0  0  0  0  0  0  0  0  0  0  0  0
   57.4283   24.7716   45.6915 H   0  0  0  0  0  0  0  0  0  0  0  0
   56.5110   25.1296   44.1891 H   0  0  0  0  0  0  0  0  0  0  0  0
   58.3050   25.2198   44.1891 H   0  0  0  0  0  0  0  0  0  0  0  0
   54.9121   29.4227   44.0701 H   0  0  0  0  0  0  0  0  0  0  0  0
   55.5641   30.5826   42.8634 H   0  0  0  0  0  0  0  0  0  0  0  0
   56.1252   28.8762   42.8634 H   0  0  0  0  0  0  0  0  0  0  0  0
   57.2170   33.9634   45.4203 H   0  0  0  0  0  0  0  0  0  0  0  0
   59.1755   35.0257   46.5206 H   0  0  0  0  0  0  0  0  0  0  0  0
   61.3200   34.7890   47.5290 H   0  0  0  0  0  0  0  0  0  0  0  0
   64.2872   33.2275   50.2750 H   0  0  0  0  0  0  0  0  0  0  0  0
   64.5287   32.0409   48.9482 H   0  0  0  0  0  0  0  0  0  0  0  0
   65.4435   33.5868   48.9482 H   0  0  0  0  0  0  0  0  0  0  0  0
   63.2456   31.0569   48.0570 H   0  0  0  0  0  0  0  0  0  0  0  0
   61.3170   29.9104   46.9740 H   0  0  0  0  0  0  0  0  0  0  0  0
   59.8748   29.2429   45.5434 H   0  0  0  0  0  0  0  0  0  0  0  0
   58.9320   29.6741   48.0492 H   0  0  0  0  0  0  0  0  0  0  0  0
   57.4116   29.0363   47.3362 H   0  0  0  0  0  0  0  0  0  0  0  0
   58.8968   28.0258   47.3362 H   0  0  0  0  0  0  0  0  0  0  0  0
  1  2  1  0
  2  3  1  0
  3  4  2  0
  3  5  1  0
  5  6  2  0
  6  7  1  0
  6  8  1  0
  8  9  1  0
  9 10  2  0
 10 11  1  0
 11 12  2  0
 12 13  1  0
 13 14  2  0
 14 15  1  0
 15 16  1  0
 14 17  1  0
 17 18  2  0
 18 19  1  0
 19 20  2  0
 20 21  1  0
 21 22  1  0
 21  5  1  0
 20  9  1  0
 19 12  1  0
  1 23  1  0
  1 24  1  0
  1 25  1  0
  7 26  1  0
  7 27  1  0
  7 28  1  0
 10 29  1  0
 11 30  1  0
 13 31  1  0
 16 32  1  0
 16 33  1  0
 16 34  1  0
 17 35  1  0
 18 36  1  0
 21 37  1  6
 22 38  1  0
 22 39  1  0
 22 40  1  0
M  CHG  1  13   1
M  END
>  <UniqueID>  (3) 
3

>  <SMILES>  (3) 
COC(=O)C1=C(C)Oc2ccc3[nH+]c(OC)ccc3c2[C@H]1C

>  <Energy>  (3) 
50.448779109049624

>  <Genealogy>  (3) 
COC(=O)C1=C(C)Oc2ccc3[nH+]c(OC)ccc3c2C1C (protonated)
COC(=O)C1=C(C)Oc2ccc3[nH+]c(OC)ccc3c2[C@H]1C (chirality)
COC(=O)C1=C(C)Oc2ccc3[nH+]c(OC)ccc3c2[C@H]1C (3D coordinates assigned)
COC(=O)C1=C(C)Oc2ccc3[nH+]c(OC)ccc3c2[C@H]1C (nonaromatic ring conformer: 50.448779109049624 kcal/mol)

>  <smiles>  (3) 
COC(=O)C1=C(C)Oc2ccc3nc(OC)ccc3c2C1C

>  <score_type>  (3) 
oracle

>  <origin>  (3) 
adg

>  <m_score__min__energy>  (3) 
-5.5800000000000001

>  <m_primary>  (3) 
energy

$$$$
3:0
     RDKit          3D

 41 44  0  0  0  0  0  0  0  0999 V2000
   56.7440   22.9610   47.7910 O   0  0  0  0  0  0  0  0  0  0  0  0
   56.9430   23.9610   46.6850 S   0  0  0  0  0  0  0  0  0  0  0  0
   55.8840   25.0220   46.7900 O   0  0  0  0  0  0  0  0  0  0  0  0
   58.5030   24.6950   46.8590 N   0  0  0  0  0  0  0  0  0  0  0  0
   58.7690   26.1010   46.7740 C   0  0  0  0  0  0  0  0  0  0  0  0
   58.2410   26.9010   45.7460 C   0  0  0  0  0  0  0  0  0  0  0  0
   58.5180   28.2710   45.7060 C   0  0  0  0  0  0  0  0  0  0  0  0
   59.3230   28.8690   46.6910 C   0  0  0  0  0  0  0  0  0  0  0  0
   59.6110   30.3250   46.6340 C   0  0  0  0  0  0  0  0  0  0  0  0
   58.7000   31.1250   46.1490 N   0  0  0  0  0  0  0  0  0  0  0  0
   58.8560   32.5440   46.0090 C   0  0  0  0  0  0  0  0  0  0  0  0
   58.0530   33.2380   45.0950 C   0  0  0  0  0  0  0  0  0  0  0  0
   58.2700   34.6000   44.8640 C   0  0  0  0  0  0  0  0  0  0  0  0
   59.2910   35.2730   45.5420 C   0  0  0  0  0  0  0  0  0  0  0  0
   60.0840   34.5890   46.4700 C   0  0  0  0  0  0  0  0  0  0  0  0
   59.8520   33.2320   46.7220 C   0  0  0  0  0  0  0  0  0  0  0  0
   60.7750   32.3880   48.0070 S   0  0  0  0  0  0  0  0  0  0  0  0
   60.9690   30.8650   47.0300 C   0  0  0  0  0  0  0  0  0  0  0  0
   59.8610   28.0600   47.7080 C   0  0  0  0  0  0  0  0  0  0  0  0
   59.5830   26.6900   47.7460 C   0  0  0  0  0  0  0  0  0  0  0  0
   56.8140   23.1830   45.1110 C   0  0  0  0  0  0  0  0  0  0  0  0
   55.8800   23.6360   44.1670 C   0  0  0  0  0  0  0  0  0  0  0  0
   55.7730   23.0010   42.9260 C   0  0  0  0  0  0  0  0  0  0  0  0
   56.5980   21.9150   42.6200 C   0  0  0  0  0  0  0  0  0  0  0  0
   57.5350   21.4640   43.5560 C   0  0  0  0  0  0  0  0  0  0  0  0
   57.6440   22.0960   44.7980 C   0  0  0  0  0  0  0  0  0  0  0  0
   57.6072   26.4475   44.9697 H   0  0  0  0  0  0  0  0  0  0  0  0
   58.1017   28.8871   44.8954 H   0  0  0  0  0  0  0  0  0  0  0  0
   57.2505   32.7109   44.5581 H   0  0  0  0  0  0  0  0  0  0  0  0
   57.6362   35.1430   44.1475 H   0  0  0  0  0  0  0  0  0  0  0  0
   59.4708   36.3403   45.3458 H   0  0  0  0  0  0  0  0  0  0  0  0
   60.8893   35.1175   47.0012 H   0  0  0  0  0  0  0  0  0  0  0  0
   61.5513   31.0860   46.1233 H   0  0  0  0  0  0  0  0  0  0  0  0
   61.4932   30.1120   47.6368 H   0  0  0  0  0  0  0  0  0  0  0  0
   60.5050   28.5081   48.4790 H   0  0  0  0  0  0  0  0  0  0  0  0
   60.0089   26.0698   48.5485 H   0  0  0  0  0  0  0  0  0  0  0  0
   55.2310   24.4920   44.4037 H   0  0  0  0  0  0  0  0  0  0  0  0
   55.0380   23.3568   42.1889 H   0  0  0  0  0  0  0  0  0  0  0  0
   56.5106   21.4153   41.6440 H   0  0  0  0  0  0  0  0  0  0  0  0
   58.1865   20.6113   43.3143 H   0  0  0  0  0  0  0  0  0  0  0  0
   58.3823   21.7403   45.5317 H   0  0  0  0  0  0  0  0  0  0  0  0
  1  2  2  0
  2  3  2  0
  2  4  1  0
  4  5  1  0
  5  6  2  0
  6  7  1  0
  7  8  2  0
  8  9  1  0
  9 10  2  0
 10 11  1  0
 11 12  2  0
 12 13  1  0
 13 14  2  0
 14 15  1  0
 15 16  2  0
 16 17  1  0
 17 18  1  0
  8 19  1  0
 19 20  2  0
  2 21  1  0
 21 22  2  0
 22 23  1  0
 23 24  2  0
 24 25  1  0
 25 26  2  0
 20  5  1  0
 26 21  1  0
 18  9  1  0
 16 11  1  0
  6 27  1  0
  7 28  1  0
 12 29  1  0
 13 30  1  0
 14 31  1  0
 15 32  1  0
 18 33  1  0
 18 34  1  0
 19 35  1  0
 20 36  1  0
 22 37  1  0
 23 38  1  0
 24 39  1  0
 25 40  1  0
 26 41  1  0
M  CHG  1   4  -1
M  END
>  <UniqueID>  (4) 
4

>  <SMILES>  (4) 
O=S(=O)([N-]c1ccc(C2=Nc3ccccc3SC2)cc1)c1ccccc1

>  <Energy>  (4) 
57.89197069790103

>  <Genealogy>  (4) 
O=S(=O)([N-]c1ccc(C2=Nc3ccccc3SC2)cc1)c1ccccc1 (protonated)
O=S(=O)([N-]c1ccc(C2=Nc3ccccc3SC2)cc1)c1ccccc1 (3D coordinates assigned)
O=S(=O)([N-]c1ccc(C2=Nc3ccccc3SC2)cc1)c1ccccc1 (nonaromatic ring conformer: 57.89197069790103 kcal/mol)

>  <smiles>  (4) 
O=S(=O)(Nc1ccc(C2=Nc3ccccc3SC2)cc1)c1ccccc1

>  <score_type>  (4) 
oracle

>  <origin>  (4) 
adg

>  <m_score__min__energy>  (4) 
-10.42

>  <m_primary>  (4) 
energy

$$$$
4:0
     RDKit          3D

 24 25  0  0  0  0  0  0  0  0999 V2000
   57.0950   29.5430   45.9450 O   0  0  0  0  0  0  0  0  0  0  0  0
   56.4060   29.8830   44.9610 N   0  0  0  0  0  0  0  0  0  0  0  0
   55.1450   29.3570   44.8220 O   0  0  0  0  0  0  0  0  0  0  0  0
   56.9240   30.8530   44.0360 C   0  0  0  0  0  0  0  0  0  0  0  0
   56.9240   30.6450   42.7020 N   0  0  0  0  0  0  0  0  0  0  0  0
   57.4750   31.7630   42.1910 C   0  0  0  0  0  0  0  0  0  0  0  0
   57.7990   32.6270   43.2130 C   0  0  0  0  0  0  0  0  0  0  0  0
   57.4510   32.0550   44.3780 N   0  0  0  0  0  0  0  0  0  0  0  0
   57.5940   32.6720   45.7020 C   0  0  0  0  0  0  0  0  0  0  0  0
   59.0380   32.6770   46.1630 C   0  0  0  0  0  0  0  0  0  0  0  0
   59.5600   31.5510   46.8290 C   0  0  0  0  0  0  0  0  0  0  0  0
   60.8790   31.5420   47.2890 C   0  0  0  0  0  0  0  0  0  0  0  0
   61.6890   32.6650   47.1140 C   0  0  0  0  0  0  0  0  0  0  0  0
   63.3440   32.6520   47.6950 Cl  0  0  0  0  0  0  0  0  0  0  0  0
   61.1770   33.8020   46.4860 C   0  0  0  0  0  0  0  0  0  0  0  0
   59.8560   33.8230   46.0220 C   0  0  0  0  0  0  0  0  0  0  0  0
   59.2690   35.3130   45.2860 Cl  0  0  0  0  0  0  0  0  0  0  0  0
   57.6408   31.9562   41.1209 H   0  0  0  0  0  0  0  0  0  0  0  0
   58.2637   33.6171   43.0957 H   0  0  0  0  0  0  0  0  0  0  0  0
   57.2314   33.7094   45.6533 H   0  0  0  0  0  0  0  0  0  0  0  0
   57.0056   32.0831   46.4210 H   0  0  0  0  0  0  0  0  0  0  0  0
   58.9221   30.6692   46.9886 H   0  0  0  0  0  0  0  0  0  0  0  0
   61.2798   30.6485   47.7899 H   0  0  0  0  0  0  0  0  0  0  0  0
   61.8160   34.6877   46.3548 H   0  0  0  0  0  0  0  0  0  0  0  0
  1  2  2  0
  2  3  1  0
  2  4  1  0
  4  5  2  0
  5  6  1  0
  6  7  2  0
  7  8  1  0
  8  9  1  0
  9 10  1  0
 10 11  2  0
 11 12  1  0
 12 13  2  0
 13 14  1  0
 13 15  1  0
 15 16  2  0
 16 17  1  0
  8  4  1  0
 16 10  1  0
  6 18  1  0
  7 19  1  0
  9 20  1  0
  9 21  1  0
 11 22  1  0
 12 23  1  0
 15 24  1  0
M  CHG  2   2   1   3  -1
M  END
>  <UniqueID>  (5) 
5

>  <SMILES>  (5) 
O=[N+]([O-])c1nccn1Cc1ccc(Cl)cc1Cl

>  <Energy>  (5) 
56.97396472108183

>  <Genealogy>  (5) 
O=[N+]([O-])c1nccn1Cc1ccc(Cl)cc1Cl (3D coordinates assigned)
O=[N+]([O-])c1nccn1Cc1ccc(Cl)cc1Cl (optimized conformer: 56.97396472108183 kcal/mol)

>  <smiles>  (5) 
O=[N+]([O-])c1nccn1Cc1ccc(Cl)cc1Cl

>  <score_type>  (5) 
oracle

>  <origin>  (5) 
adg

>  <m_score__min__energy>  (5) 
-7.9500000000000002

>  <m_primary>  (5) 
energy

$$$$
5:0
     RDKit          3D

 36 38  0  0  0  0  0  0  0  0999 V2000
   59.5540   28.9180   44.8460 C   0  0  0  0  0  0  0  0  0  0  0  0
   58.3100   29.2480   45.3900 C   0  0  0  0  0  0  0  0  0  0  0  0
   58.2390   29.9830   46.5780 C   0  0  0  0  0  0  0  0  0  0  0  0
   59.4100   30.3820   47.2370 C   0  0  0  0  0  0  0  0  0  0  0  0
   59.2890   31.1100   48.4290 O   0  0  0  0  0  0  0  0  0  0  0  0
   58.5870   32.3470   48.5650 C   0  0  0  0  0  0  0  0  0  0  0  0
   58.6070   33.0880   47.2490 C   0  0  0  0  0  0  0  0  0  0  0  0
   57.4010   33.2140   46.5350 C   0  0  0  0  0  0  0  0  0  0  0  0
   57.3430   33.9550   45.3530 C   0  0  0  0  0  0  0  0  0  0  0  0
   58.4840   34.5980   44.8760 C   0  0  0  0  0  0  0  0  0  0  0  0
   59.6860   34.5010   45.5780 C   0  0  0  0  0  0  0  0  0  0  0  0
   59.7660   33.7490   46.7620 C   0  0  0  0  0  0  0  0  0  0  0  0
   61.0680   33.6870   47.4590 C   0  0  0  0  0  0  0  0  0  0  0  0
   61.1930   34.2060   48.7580 C   0  0  0  0  0  0  0  0  0  0  0  0
   62.4310   34.1860   49.4070 C   0  0  0  0  0  0  0  0  0  0  0  0
   63.5530   33.6570   48.7610 C   0  0  0  0  0  0  0  0  0  0  0  0
   63.4390   33.1520   47.4630 C   0  0  0  0  0  0  0  0  0  0  0  0
   62.2030   33.1740   46.8090 C   0  0  0  0  0  0  0  0  0  0  0  0
   60.6600   30.0660   46.6710 C   0  0  0  0  0  0  0  0  0  0  0  0
   60.7270   29.3350   45.4810 C   0  0  0  0  0  0  0  0  0  0  0  0
   59.6100   28.3300   43.9180 H   0  0  0  0  0  0  0  0  0  0  0  0
   57.3865   28.9298   44.8840 H   0  0  0  0  0  0  0  0  0  0  0  0
   57.2578   30.2496   46.9978 H   0  0  0  0  0  0  0  0  0  0  0  0
   57.5454   32.1467   48.8566 H   0  0  0  0  0  0  0  0  0  0  0  0
   59.0740   32.9605   49.3372 H   0  0  0  0  0  0  0  0  0  0  0  0
   56.4924   32.7225   46.9129 H   0  0  0  0  0  0  0  0  0  0  0  0
   56.3964   34.0314   44.7980 H   0  0  0  0  0  0  0  0  0  0  0  0
   58.4368   35.1824   43.9453 H   0  0  0  0  0  0  0  0  0  0  0  0
   60.5802   35.0187   45.2005 H   0  0  0  0  0  0  0  0  0  0  0  0
   60.3142   34.6295   49.2662 H   0  0  0  0  0  0  0  0  0  0  0  0
   62.5228   34.5869   50.4272 H   0  0  0  0  0  0  0  0  0  0  0  0
   64.5255   33.6384   49.2748 H   0  0  0  0  0  0  0  0  0  0  0  0
   64.3221   32.7369   46.9553 H   0  0  0  0  0  0  0  0  0  0  0  0
   62.1192   32.7884   45.7822 H   0  0  0  0  0  0  0  0  0  0  0  0
   61.5856   30.3949   47.1660 H   0  0  0  0  0  0  0  0  0  0  0  0
   61.7054   29.0875   45.0435 H   0  0  0  0  0  0  0  0  0  0  0  0
  1  2  2  0
  2  3  1  0
  3  4  2  0
  4  5  1  0
  5  6  1  0
  6  7  1  0
  7  8  2  0
  8  9  1  0
  9 10  2  0
 10 11  1  0
 11 12  2  0
 12 13  1  0
 13 14  2  0
 14 15  1  0
 15 16  2  0
 16 17  1  0
 17 18  2  0
  4 19  1  0
 19 20  2  0
 20  1  1  0
 12  7  1  0
 18 13  1  0
  1 21  1  0
  2 22  1  0
  3 23  1  0
  6 24  1  0
  6 25  1  0
  8 26  1  0
  9 27  1  0
 10 28  1  0
 11 29  1  0
 14 30  1  0
 15 31  1  0
 16 32  1  0
 17 33  1  0
 18 34  1  0
 19 35  1  0
 20 36  1  0
M  END
>  <UniqueID>  (6) 
6

>  <SMILES>  (6) 
c1ccc(OCc2ccccc2-c2ccccc2)cc1

>  <Energy>  (6) 
47.902681793780815

>  <Genealogy>  (6) 
c1ccc(OCc2ccccc2-c2ccccc2)cc1 (3D coordinates assigned)
c1ccc(OCc2ccccc2-c2ccccc2)cc1 (optimized conformer: 47.902681793780815 kcal/mol)

>  <smiles>  (6) 
c1ccc(OCc2ccccc2-c2ccccc2)cc1

>  <score_type>  (6) 
oracle

>  <origin>  (6) 
adg

>  <m_score__min__energy>  (6) 
-7.0999999999999996

>  <m_primary>  (6) 
energy

$$$$
6:0
     RDKit          3D

 47 49  0  0  0  0  0  0  0  0999 V2000
   56.3660   30.9840   44.7000 O   0  0  0  0  0  0  0  0  0  0  0  0
   57.4170   31.4180   45.2450 C   0  0  0  0  0  0  0  0  0  0  0  0
   57.5700   32.9040   45.4780 C   0  0  2  0  0  0  0  0  0  0  0  0
   58.5030   33.5490   44.4300 C   0  0  0  0  0  0  0  0  0  0  0  0
   58.8850   34.9660   44.8620 C   0  0  0  0  0  0  0  0  0  0  0  0
   59.5630   34.9760   46.2510 C   0  0  0  0  0  0  0  0  0  0  0  0
   59.4170   33.6870   46.9650 N   0  0  0  0  0  0  0  0  0  0  0  0
   59.9060   33.8100   48.3550 C   0  0  0  0  0  0  0  0  0  0  0  0
   61.3960   33.6040   48.3970 C   0  0  0  0  0  0  0  0  0  0  0  0
   62.1170   33.8260   49.5820 C   0  0  0  0  0  0  0  0  0  0  0  0
   63.4930   33.5790   49.6240 C   0  0  0  0  0  0  0  0  0  0  0  0
   64.1560   33.1100   48.4870 C   0  0  0  0  0  0  0  0  0  0  0  0
   63.4450   32.8870   47.3050 C   0  0  0  0  0  0  0  0  0  0  0  0
   62.0700   33.1320   47.2590 C   0  0  0  0  0  0  0  0  0  0  0  0
   58.0100   33.2300   46.9290 C   0  0  0  0  0  0  0  0  0  0  0  0
   58.4450   30.4890   45.6180 N   0  0  0  0  0  0  0  0  0  0  0  0
   59.1670   29.7740   44.5590 C   0  0  0  0  0  0  0  0  0  0  0  0
   60.2970   28.9100   45.1380 C   0  0  0  0  0  0  0  0  0  0  0  0
   61.0660   29.6890   46.2100 C   0  0  0  0  0  0  0  0  0  0  0  0
   60.1590   30.1650   47.3680 C   0  0  0  0  0  0  0  0  0  0  0  0
   58.6610   30.1400   47.0240 C   0  0  0  0  0  0  0  0  0  0  0  0
   56.5744   33.3533   45.3478 H   0  0  0  0  0  0  0  0  0  0  0  0
   59.4145   32.9410   44.3322 H   0  0  0  0  0  0  0  0  0  0  0  0
   57.9781   33.5979   43.4646 H   0  0  0  0  0  0  0  0  0  0  0  0
   59.5808   35.3889   44.1224 H   0  0  0  0  0  0  0  0  0  0  0  0
   57.9649   35.5655   44.9248 H   0  0  0  0  0  0  0  0  0  0  0  0
   60.6346   35.1860   46.1185 H   0  0  0  0  0  0  0  0  0  0  0  0
   59.0698   35.7503   46.8570 H   0  0  0  0  0  0  0  0  0  0  0  0
   59.6661   34.8128   48.7381 H   0  0  0  0  0  0  0  0  0  0  0  0
   59.4183   33.0458   48.9781 H   0  0  0  0  0  0  0  0  0  0  0  0
   61.5981   34.1950   50.4790 H   0  0  0  0  0  0  0  0  0  0  0  0
   64.0542   33.7543   50.5537 H   0  0  0  0  0  0  0  0  0  0  0  0
   65.2382   32.9162   48.5224 H   0  0  0  0  0  0  0  0  0  0  0  0
   63.9679   32.5184   46.4102 H   0  0  0  0  0  0  0  0  0  0  0  0
   61.5131   32.9543   46.3272 H   0  0  0  0  0  0  0  0  0  0  0  0
   57.9092   32.3259   47.5474 H   0  0  0  0  0  0  0  0  0  0  0  0
   57.3693   34.0353   47.3176 H   0  0  0  0  0  0  0  0  0  0  0  0
   58.4611   29.1257   44.0192 H   0  0  0  0  0  0  0  0  0  0  0  0
   59.6114   30.5166   43.8800 H   0  0  0  0  0  0  0  0  0  0  0  0
   59.8664   28.0030   45.5874 H   0  0  0  0  0  0  0  0  0  0  0  0
   60.9896   28.6370   44.3282 H   0  0  0  0  0  0  0  0  0  0  0  0
   61.8510   29.0382   46.6226 H   0  0  0  0  0  0  0  0  0  0  0  0
   61.4895   30.5838   45.7305 H   0  0  0  0  0  0  0  0  0  0  0  0
   60.3281   29.5092   48.2348 H   0  0  0  0  0  0  0  0  0  0  0  0
   60.4252   31.2114   47.5781 H   0  0  0  0  0  0  0  0  0  0  0  0
   58.2649   29.1308   47.2102 H   0  0  0  0  0  0  0  0  0  0  0  0
   58.1418   30.8770   47.6543 H   0  0  0  0  0  0  0  0  0  0  0  0
  1  2  2  0
  2  3  1  0
  3  4  1  0
  4  5  1  0
  5  6  1  0
  6  7  1  0
  7  8  1  0
  8  9  1  0
  9 10  2  0
 10 11  1  0
 11 12  2  0
 12 13  1  0
 13 14  2  0
  7 15  1  0
  2 16  1  0
 16 17  1  0
 17 18  1  0
 18 19  1  0
 19 20  1  0
 20 21  1  0
 15  3  1  0
 21 16  1  0
 14  9  1  0
  3 22  1  6
  4 23  1  0
  4 24  1  0
  5 25  1  0
  5 26  1  0
  6 27  1  0
  6 28  1  0
  8 29  1  0
  8 30  1  0
 10 31  1  0
 11 32  1  0
 12 33  1  0
 13 34  1  0
 14 35  1  0
 15 36  1  0
 15 37  1  0
 17 38  1  0
 17 39  1  0
 18 40  1  0
 18 41  1  0
 19 42  1  0
 19 43  1  0
 20 44  1  0
 20 45  1  0
 21 46  1  0
 21 47  1  0
M  END
>  <UniqueID>  (7) 
7

>  <SMILES>  (7) 
O=C([C@@H]1CCCN(Cc2ccccc2)C1)N1CCCCC1

>  <Energy>  (7) 
54.84026158003957

>  <Genealogy>  (7) 
O=C([C@@H]1CCCN(Cc2ccccc2)C1)N1CCCCC1 (chirality)
O=C([C@@H]1CCCN(Cc2ccccc2)C1)N1CCCCC1 (3D coordinates assigned)
O=C([C@@H]1CCCN(Cc2ccccc2)C1)N1CCCCC1 (nonaromatic ring conformer: 54.84026158003957 kcal/mol)

>  <smiles>  (7) 
O=C(C1CCCN(Cc2ccccc2)C1)N1CCCCC1

>  <score_type>  (7) 
oracle

>  <origin>  (7) 
adg

>  <m_score__min__energy>  (7) 
-8.1999999999999993

>  <m_primary>  (7) 
energy

$$$$
7:0
     RDKit          3D

 40 43  0  0  0  0  0  0  0  0999 V2000
   57.1030   30.0780   45.5740 O   0  0  0  0  0  0  0  0  0  0  0  0
   58.1540   30.6360   45.9980 C   0  0  0  0  0  0  0  0  0  0  0  0
   58.3500   32.0140   45.8050 C   0  0  0  0  0  0  0  0  0  0  0  0
   57.3950   32.8020   45.1320 C   0  0  0  0  0  0  0  0  0  0  0  0
   57.6260   34.1610   44.9160 C   0  0  0  0  0  0  0  0  0  0  0  0
   58.8100   34.7480   45.3560 C   0  0  0  0  0  0  0  0  0  0  0  0
   59.7670   33.9850   46.0280 C   0  0  0  0  0  0  0  0  0  0  0  0
   59.5410   32.6150   46.2800 C   0  0  0  0  0  0  0  0  0  0  0  0
   60.4770   31.8060   46.9600 C   0  0  0  0  0  0  0  0  0  0  0  0
   61.7310   32.3290   47.5420 C   0  0  0  0  0  0  0  0  0  0  0  0
   62.5870   33.1190   46.7580 C   0  0  0  0  0  0  0  0  0  0  0  0
   63.7940   33.5870   47.2870 C   0  0  0  0  0  0  0  0  0  0  0  0
   64.1600   33.2570   48.5950 C   0  0  0  0  0  0  0  0  0  0  0  0
   63.3230   32.4530   49.3730 C   0  0  0  0  0  0  0  0  0  0  0  0
   62.1160   31.9820   48.8480 C   0  0  0  0  0  0  0  0  0  0  0  0
   60.2260   30.4780   47.0930 N   0  0  0  0  0  0  0  0  0  0  0  0
   59.1130   29.8980   46.6380 N   0  0  0  0  0  0  0  0  0  0  0  0
   58.9810   28.4450   46.7970 C   0  0  0  0  0  0  0  0  0  0  0  0
   58.7260   27.7680   45.4460 C   0  0  0  0  0  0  0  0  0  0  0  0
   57.6480   26.7870   45.5520 N   0  0  0  0  0  0  0  0  0  0  0  0
   57.4910   25.6770   44.8120 C   0  0  0  0  0  0  0  0  0  0  0  0
   56.3920   25.0020   45.2930 C   0  0  0  0  0  0  0  0  0  0  0  0
   55.8680   25.6770   46.3390 N   0  0  0  0  0  0  0  0  0  0  0  0
   56.6630   26.7600   46.4700 C   0  0  0  0  0  0  0  0  0  0  0  0
   56.4615   32.3428   44.7747 H   0  0  0  0  0  0  0  0  0  0  0  0
   56.8713   34.7702   44.3970 H   0  0  0  0  0  0  0  0  0  0  0  0
   58.9919   35.8174   45.1733 H   0  0  0  0  0  0  0  0  0  0  0  0
   60.7034   34.4549   46.3632 H   0  0  0  0  0  0  0  0  0  0  0  0
   62.3073   33.3706   45.7243 H   0  0  0  0  0  0  0  0  0  0  0  0
   64.4560   34.2154   46.6731 H   0  0  0  0  0  0  0  0  0  0  0  0
   65.1070   33.6303   49.0119 H   0  0  0  0  0  0  0  0  0  0  0  0
   63.6144   32.1901   50.4006 H   0  0  0  0  0  0  0  0  0  0  0  0
   61.4661   31.3382   49.4588 H   0  0  0  0  0  0  0  0  0  0  0  0
   59.9089   28.0444   47.2311 H   0  0  0  0  0  0  0  0  0  0  0  0
   58.1272   28.2401   47.4595 H   0  0  0  0  0  0  0  0  0  0  0  0
   58.4461   28.5328   44.7066 H   0  0  0  0  0  0  0  0  0  0  0  0
   59.6443   27.2500   45.1325 H   0  0  0  0  0  0  0  0  0  0  0  0
   58.1273   25.3633   43.9714 H   0  0  0  0  0  0  0  0  0  0  0  0
   56.0004   24.0574   44.8875 H   0  0  0  0  0  0  0  0  0  0  0  0
   56.5222   27.5332   47.2397 H   0  0  0  0  0  0  0  0  0  0  0  0
  1  2  2  0
  2  3  1  0
  3  4  2  0
  4  5  1  0
  5  6  2  0
  6  7  1  0
  7  8  2  0
  8  9  1  0
  9 10  1  0
 10 11  2  0
 11 12  1  0
 12 13  2  0
 13 14  1  0
 14 15  2  0
  9 16  2  0
 16 17  1  0
 17 18  1  0
 18 19  1  0
 19 20  1  0
 20 21  1  0
 21 22  2  0
 22 23  1  0
 23 24  2  0
 17  2  1  0
 24 20  1  0
  8  3  1  0
 15 10  1  0
  4 25  1  0
  5 26  1  0
  6 27  1  0
  7 28  1  0
 11 29  1  0
 12 30  1  0
 13 31  1  0
 14 32  1  0
 15 33  1  0
 18 34  1  0
 18 35  1  0
 19 36  1  0
 19 37  1  0
 21 38  1  0
 22 39  1  0
 24 40  1  0
M  END
>  <UniqueID>  (8) 
8

>  <SMILES>  (8) 
O=c1c2ccccc2c(-c2ccccc2)nn1CCn1ccnc1

>  <Energy>  (8) 
82.68692699265232

>  <Genealogy>  (8) 
O=c1c2ccccc2c(-c2ccccc2)nn1CCn1ccnc1 (3D coordinates assigned)
O=c1c2ccccc2c(-c2ccccc2)nn1CCn1ccnc1 (optimized conformer: 82.68692699265232 kcal/mol)

>  <smiles>  (8) 
O=c1c2ccccc2c(-c2ccccc2)nn1CCn1ccnc1

>  <score_type>  (8) 
oracle

>  <origin>  (8) 
adg

>  <m_score__min__energy>  (8) 
-8.0999999999999996

>  <m_primary>  (8) 
energy

$$$$
8:0
     RDKit          3D

 28 29  0  0  0  0  0  0  0  0999 V2000
   56.3500   25.4680   47.2390 O   0  0  0  0  0  0  0  0  0  0  0  0
   56.0250   26.1180   46.2110 C   0  0  0  0  0  0  0  0  0  0  0  0
   54.6830   26.3410   45.9330 O   0  0  0  0  0  0  0  0  0  0  0  0
   57.0750   26.6030   45.2640 C   0  0  0  0  0  0  0  0  0  0  0  0
   57.5320   27.9390   45.6610 N   0  0  0  0  0  0  0  0  0  0  0  0
   58.4270   28.1010   46.8140 C   0  0  0  0  0  0  0  0  0  0  0  0
   59.4630   29.1970   46.5410 C   0  0  0  0  0  0  0  0  0  0  0  0
   58.7960   30.4770   46.0950 C   0  0  0  0  0  0  0  0  0  0  0  0
   59.4020   31.7130   46.3660 C   0  0  0  0  0  0  0  0  0  0  0  0
   58.8270   32.9030   45.9010 C   0  0  0  0  0  0  0  0  0  0  0  0
   59.5820   34.4510   46.2660 S   0  0  0  0  0  0  0  0  0  0  0  0
   59.2930   35.4320   45.1650 O   0  0  0  0  0  0  0  0  0  0  0  0
   59.0320   34.9980   47.5550 O   0  0  0  0  0  0  0  0  0  0  0  0
   61.2410   34.2430   46.4100 O   0  0  0  0  0  0  0  0  0  0  0  0
   57.6400   32.8560   45.1580 C   0  0  0  0  0  0  0  0  0  0  0  0
   57.0400   31.6290   44.8690 C   0  0  0  0  0  0  0  0  0  0  0  0
   57.6130   30.4330   45.3290 C   0  0  0  0  0  0  0  0  0  0  0  0
   56.9970   29.1210   45.0360 C   0  0  0  0  0  0  0  0  0  0  0  0
   56.0220   29.0380   44.2400 O   0  0  0  0  0  0  0  0  0  0  0  0
   57.9272   25.9076   45.2782 H   0  0  0  0  0  0  0  0  0  0  0  0
   56.6507   26.6536   44.2504 H   0  0  0  0  0  0  0  0  0  0  0  0
   57.8326   28.3770   47.6974 H   0  0  0  0  0  0  0  0  0  0  0  0
   58.9529   27.1513   46.9917 H   0  0  0  0  0  0  0  0  0  0  0  0
   60.0324   29.3906   47.4621 H   0  0  0  0  0  0  0  0  0  0  0  0
   60.1318   28.8534   45.7381 H   0  0  0  0  0  0  0  0  0  0  0  0
   60.3350   31.7480   46.9476 H   0  0  0  0  0  0  0  0  0  0  0  0
   57.1793   33.7890   44.8012 H   0  0  0  0  0  0  0  0  0  0  0  0
   56.1130   31.5993   44.2775 H   0  0  0  0  0  0  0  0  0  0  0  0
  1  2  2  0
  2  3  1  0
  2  4  1  0
  4  5  1  0
  5  6  1  0
  6  7  1  0
  7  8  1  0
  8  9  2  0
  9 10  1  0
 10 11  1  0
 11 12  2  0
 11 13  2  0
 11 14  1  0
 10 15  2  0
 15 16  1  0
 16 17  2  0
 17 18  1  0
 18 19  2  0
 18  5  1  0
 17  8  1  0
  4 20  1  0
  4 21  1  0
  6 22  1  0
  6 23  1  0
  7 24  1  0
  7 25  1  0
  9 26  1  0
 15 27  1  0
 16 28  1  0
M  CHG  2   3  -1  14  -1
M  END
>  <UniqueID>  (9) 
9

>  <SMILES>  (9) 
O=C([O-])CN1CCc2cc(S(=O)(=O)[O-])ccc2C1=O

>  <Energy>  (9) 
28.197480687469024

>  <Genealogy>  (9) 
O=C([O-])CN1CCc2cc(S(=O)(=O)[O-])ccc2C1=O (protonated)
O=C([O-])CN1CCc2cc(S(=O)(=O)[O-])ccc2C1=O (3D coordinates assigned)
O=C([O-])CN1CCc2cc(S(=O)(=O)[O-])ccc2C1=O (nonaromatic ring conformer: 28.197480687469024 kcal/mol)

>  <smiles>  (9) 
O=C(O)CN1CCc2cc(S(=O)(=O)O)ccc2C1=O

>  <score_type>  (9) 
oracle

>  <origin>  (9) 
adg

>  <m_score__min__energy>  (9) 
-10.539999999999999

>  <m_primary>  (9) 
energy

$$$$
9:0
     RDKit          3D

 36 38  0  0  1  0  0  0  0  0999 V2000
   60.3960   29.7200   47.8930 C   0  0  0  0  0  0  0  0  0  0  0  0
   59.0900   30.5590   48.0370 C   0  0  0  0  0  0  0  0  0  0  0  0
   58.6050   30.9320   46.7480 N   0  0  0  0  0  0  0  0  0  0  0  0
   58.7980   32.2560   46.3690 C   0  0  0  0  0  0  0  0  0  0  0  0
   59.5630   33.2640   46.9190 C   0  0  0  0  0  0  0  0  0  0  0  0
   59.6100   34.4880   46.3300 C   0  0  0  0  0  0  0  0  0  0  0  0
   58.9120   34.7460   45.1980 C   0  0  0  0  0  0  0  0  0  0  0  0
   58.1400   33.7820   44.6140 C   0  0  0  0  0  0  0  0  0  0  0  0
   58.1110   32.5510   45.2300 C   0  0  0  0  0  0  0  0  0  0  0  0
   57.4690   31.4210   44.8580 C   0  0  0  0  0  0  0  0  0  0  0  0
   56.6250   31.1760   43.8460 N   0  0  0  0  0  0  0  0  0  0  0  0
   56.0520   29.9750   43.6750 C   0  0  0  0  0  0  0  0  0  0  0  0
   56.3670   29.0210   44.5590 N   0  0  0  0  0  0  0  0  0  0  0  0
   57.2230   29.2520   45.5870 C   0  0  0  0  0  0  0  0  0  0  0  0
   57.6330   28.2790   46.1940 N   0  0  0  0  0  0  0  0  0  0  0  0
   57.9280   27.0010   45.9180 C   0  0  0  0  0  0  0  0  0  0  0  0
   56.7820   26.0130   45.7350 C   0  0  0  0  0  0  0  0  0  0  0  0
   55.5390   26.6690   46.0060 N   0  0  0  0  0  0  0  0  0  0  0  0
   57.8180   30.4650   45.8160 C   0  0  0  0  0  0  0  0  0  0  0  0
   60.7838   29.4709   48.8918 H   0  0  0  0  0  0  0  0  0  0  0  0
   60.1774   28.7929   47.3428 H   0  0  0  0  0  0  0  0  0  0  0  0
   61.1483   30.3042   47.3428 H   0  0  0  0  0  0  0  0  0  0  0  0
   58.3266   29.9589   48.5538 H   0  0  0  0  0  0  0  0  0  0  0  0
   59.3067   31.4675   48.6181 H   0  0  0  0  0  0  0  0  0  0  0  0
   60.1373   33.0762   47.8382 H   0  0  0  0  0  0  0  0  0  0  0  0
   60.2246   35.2818   46.7797 H   0  0  0  0  0  0  0  0  0  0  0  0
   58.9676   35.7458   44.7426 H   0  0  0  0  0  0  0  0  0  0  0  0
   57.5686   33.9799   43.6951 H   0  0  0  0  0  0  0  0  0  0  0  0
   55.3550   29.7832   42.8459 H   0  0  0  0  0  0  0  0  0  0  0  0
   55.9270   28.0930   44.4320 H   0  0  0  0  0  0  0  0  0  0  0  0
   58.5124   26.9967   44.9861 H   0  0  0  0  0  0  0  0  0  0  0  0
   58.4494   26.6446   46.8186 H   0  0  0  0  0  0  0  0  0  0  0  0
   56.7816   25.6394   44.7004 H   0  0  0  0  0  0  0  0  0  0  0  0
   56.9106   25.1695   46.4292 H   0  0  0  0  0  0  0  0  0  0  0  0
   55.1380   26.3340   46.9120 H   0  0  0  0  0  0  0  0  0  0  0  0
   55.7210   27.6950   46.1430 H   0  0  0  0  0  0  0  0  0  0  0  0
  1  2  1  0
  2  3  1  0
  3  4  1  0
  4  5  2  0
  5  6  1  0
  6  7  2  0
  7  8  1  0
  8  9  2  0
  9 10  1  0
 10 11  1  0
 11 12  2  0
 12 13  1  0
 13 14  1  0
 14 15  2  0
 15 16  1  0
 16 17  1  0
 17 18  1  0
 14 19  1  0
 19  3  1  0
  9  4  1  0
 19 10  2  0
  1 20  1  0
  1 21  1  0
  1 22  1  0
  2 23  1  0
  2 24  1  0
  5 25  1  0
  6 26  1  0
  7 27  1  0
  8 28  1  0
 12 29  1  0
 13 30  1  0
 16 31  1  0
 16 32  1  0
 17 33  1  0
 17 34  1  0
 18 35  1  0
 18 36  1  0
M  END
>  <smiles>  (10) 
CCn1c2ccccc2c2nc[nH]c(=NCCN)c21

>  <score_type>  (10) 
oracle

>  <origin>  (10) 
adg

>  <m_score__min__energy>  (10) 
-7.5899999999999999

>  <m_primary>  (10) 
energy

$$$$
10:0
     RDKit          3D

 42 43  0  0  0  0  0  0  0  0999 V2000
   56.6380   30.0180   43.5100 C   0  0  0  0  0  0  0  0  0  0  0  0
   56.6700   30.4820   44.8550 O   0  0  0  0  0  0  0  0  0  0  0  0
   57.3940   31.6020   45.2900 C   0  0  0  0  0  0  0  0  0  0  0  0
   57.0770   32.9100   44.8800 C   0  0  0  0  0  0  0  0  0  0  0  0
   57.8240   33.9940   45.3450 C   0  0  0  0  0  0  0  0  0  0  0  0
   58.9030   33.7940   46.2270 C   0  0  0  0  0  0  0  0  0  0  0  0
   59.6650   34.8660   46.7200 O   0  0  0  0  0  0  0  0  0  0  0  0
   59.9880   36.0370   45.9780 C   0  0  0  0  0  0  0  0  0  0  0  0
   59.2260   32.4850   46.6300 C   0  0  0  0  0  0  0  0  0  0  0  0
   60.5590   32.2000   47.7560 S   0  0  0  0  0  0  0  0  0  0  0  0
   60.0140   31.8410   49.1110 O   0  0  0  0  0  0  0  0  0  0  0  0
   61.3660   31.0360   47.2540 O   0  0  0  0  0  0  0  0  0  0  0  0
   61.5900   33.6140   47.8690 N   0  0  1  0  0  0  0  0  0  0  0  0
   61.8750   33.9720   49.2770 C   0  0  0  0  0  0  0  0  0  0  0  0
   62.8480   32.9960   49.9650 C   0  0  0  0  0  0  0  0  0  0  0  0
   64.0050   32.5390   49.0430 C   0  0  2  0  0  0  0  0  0  0  0  0
   65.3340   32.4800   49.8060 C   0  0  0  0  0  0  0  0  0  0  0  0
   64.1300   33.4440   47.8100 C   0  0  0  0  0  0  0  0  0  0  0  0
   62.8070   33.4720   47.0200 C   0  0  0  0  0  0  0  0  0  0  0  0
   58.4660   31.4020   46.1630 C   0  0  0  0  0  0  0  0  0  0  0  0
   56.5623   28.9206   43.5024 H   0  0  0  0  0  0  0  0  0  0  0  0
   55.7675   30.4492   42.9940 H   0  0  0  0  0  0  0  0  0  0  0  0
   57.5595   30.3256   42.9940 H   0  0  0  0  0  0  0  0  0  0  0  0
   56.2371   33.0793   44.1902 H   0  0  0  0  0  0  0  0  0  0  0  0
   57.5673   35.0129   45.0195 H   0  0  0  0  0  0  0  0  0  0  0  0
   60.2150   36.8598   46.6719 H   0  0  0  0  0  0  0  0  0  0  0  0
   60.8651   35.8392   45.3443 H   0  0  0  0  0  0  0  0  0  0  0  0
   59.1335   36.3169   45.3443 H   0  0  0  0  0  0  0  0  0  0  0  0
   61.0230   34.4010   47.4740 H   0  0  0  0  0  0  0  0  0  0  0  0
   60.9277   33.9738   49.8361 H   0  0  0  0  0  0  0  0  0  0  0  0
   62.3534   34.9625   49.2726 H   0  0  0  0  0  0  0  0  0  0  0  0
   62.2841   32.1075   50.2853 H   0  0  0  0  0  0  0  0  0  0  0  0
   63.2981   33.5279   50.8162 H   0  0  0  0  0  0  0  0  0  0  0  0
   63.7640   31.5235   48.6957 H   0  0  0  0  0  0  0  0  0  0  0  0
   65.1363   32.4888   50.8880 H   0  0  0  0  0  0  0  0  0  0  0  0
   65.8697   31.5572   49.5386 H   0  0  0  0  0  0  0  0  0  0  0  0
   65.9493   33.3517   49.5386 H   0  0  0  0  0  0  0  0  0  0  0  0
   64.9307   33.0609   47.1603 H   0  0  0  0  0  0  0  0  0  0  0  0
   64.3654   34.4656   48.1429 H   0  0  0  0  0  0  0  0  0  0  0  0
   62.7241   32.5331   46.4529 H   0  0  0  0  0  0  0  0  0  0  0  0
   62.8451   34.3600   46.3720 H   0  0  0  0  0  0  0  0  0  0  0  0
   58.7177   30.3819   46.4886 H   0  0  0  0  0  0  0  0  0  0  0  0
  1  2  1  0
  2  3  1  0
  3  4  2  0
  4  5  1  0
  5  6  2  0
  6  7  1  0
  7  8  1  0
  6  9  1  0
  9 10  1  0
 10 11  2  0
 10 12  2  0
 10 13  1  0
 13 14  1  0
 14 15  1  0
 15 16  1  0
 16 17  1  0
 16 18  1  0
 18 19  1  0
  9 20  2  0
 20  3  1  0
 19 13  1  0
  1 21  1  0
  1 22  1  0
  1 23  1  0
  4 24  1  0
  5 25  1  0
  8 26  1  0
  8 27  1  0
  8 28  1  0
 13 29  1  6
 14 30  1  0
 14 31  1  0
 15 32  1  0
 15 33  1  0
 16 34  1  6
 17 35  1  0
 17 36  1  0
 17 37  1  0
 18 38  1  0
 18 39  1  0
 19 40  1  0
 19 41  1  0
 20 42  1  0
M  CHG  1  13   1
M  END
>  <UniqueID>  (11) 
10

>  <SMILES>  (11) 
COc1ccc(OC)c(S(=O)(=O)[NH+]2CCC(C)CC2)c1

>  <Energy>  (11) 
45.59019994802244

>  <Genealogy>  (11) 
COc1ccc(OC)c(S(=O)(=O)[NH+]2CCC(C)CC2)c1 (protonated)
COc1ccc(OC)c(S(=O)(=O)[NH+]2CCC(C)CC2)c1 (3D coordinates assigned)
COc1ccc(OC)c(S(=O)(=O)[NH+]2CCC(C)CC2)c1 (nonaromatic ring conformer: 45.59019994802244 kcal/mol)

>  <smiles>  (11) 
COc1ccc(OC)c(S(=O)(=O)N2CCC(C)CC2)c1

>  <score_type>  (11) 
oracle

>  <origin>  (11) 
adg

>  <m_score__min__energy>  (11) 
-5.6200000000000001

>  <m_primary>  (11) 
energy

$$$$
11:0
     RDKit          3D

 42 45  0  0  1  0  0  0  0  0999 V2000
   55.9520   19.9040   44.9150 C   0  0  0  0  0  0  0  0  0  0  0  0
   56.0150   21.1150   45.4730 N   0  0  0  0  0  0  0  0  0  0  0  0
   56.3430   21.9860   44.4940 C   0  0  0  0  0  0  0  0  0  0  0  0
   56.5010   23.4450   44.7650 C   0  0  0  0  0  0  0  0  0  0  0  0
   57.9230   23.7990   44.5280 C   0  0  0  0  0  0  0  0  0  0  0  0
   58.5500   24.6680   45.5840 C   0  0  0  0  0  0  0  0  0  0  0  0
   57.5810   25.5360   46.2230 N   0  0  0  0  0  0  0  0  0  0  0  0
   57.6630   26.9340   46.2490 C   0  0  0  0  0  0  0  0  0  0  0  0
   56.9080   27.7770   45.4620 C   0  0  0  0  0  0  0  0  0  0  0  0
   57.0690   29.1300   45.5650 C   0  0  0  0  0  0  0  0  0  0  0  0
   56.3640   29.8900   44.8310 N   0  0  0  0  0  0  0  0  0  0  0  0
   56.8310   30.7780   43.8230 C   0  0  0  0  0  0  0  0  0  0  0  0
   57.3410   32.0440   44.4190 C   0  0  0  0  0  0  0  0  0  0  0  0
   58.1740   32.9440   43.7480 C   0  0  0  0  0  0  0  0  0  0  0  0
   58.4980   34.3030   44.9090 S   0  0  0  0  0  0  0  0  0  0  0  0
   57.3960   33.4130   46.2200 C   0  0  0  0  0  0  0  0  0  0  0  0
   57.0570   32.4460   45.6460 N   0  0  0  0  0  0  0  0  0  0  0  0
   57.9490   29.7060   46.4200 N   0  0  0  0  0  0  0  0  0  0  0  0
   58.6740   28.8670   47.1770 C   0  0  0  0  0  0  0  0  0  0  0  0
   58.5360   27.5440   47.0940 N   0  0  0  0  0  0  0  0  0  0  0  0
   56.4570   24.8700   46.8740 C   0  0  0  0  0  0  0  0  0  0  0  0
   55.9430   23.7110   46.1090 C   0  0  0  0  0  0  0  0  0  0  0  0
   56.4730   21.2940   43.3710 N   0  0  0  0  0  0  0  0  0  0  0  0
   56.2380   20.0170   43.6030 N   0  0  0  0  0  0  0  0  0  0  0  0
   55.7071   18.9686   45.4394 H   0  0  0  0  0  0  0  0  0  0  0  0
   55.9378   24.1084   44.0922 H   0  0  0  0  0  0  0  0  0  0  0  0
   58.5010   22.8650   44.4682 H   0  0  0  0  0  0  0  0  0  0  0  0
   57.9411   24.3864   43.5981 H   0  0  0  0  0  0  0  0  0  0  0  0
   59.0067   24.0228   46.3489 H   0  0  0  0  0  0  0  0  0  0  0  0
   59.3034   25.3036   45.0957 H   0  0  0  0  0  0  0  0  0  0  0  0
   56.1774   27.3614   44.7525 H   0  0  0  0  0  0  0  0  0  0  0  0
   57.6435   30.2913   43.2636 H   0  0  0  0  0  0  0  0  0  0  0  0
   55.9921   31.0196   43.1538 H   0  0  0  0  0  0  0  0  0  0  0  0
   58.5570   32.8483   42.7213 H   0  0  0  0  0  0  0  0  0  0  0  0
   57.1485   33.7305   47.2437 H   0  0  0  0  0  0  0  0  0  0  0  0
   58.0560   30.7300   46.4840 H   0  0  0  0  0  0  0  0  0  0  0  0
   59.4036   29.2839   47.8868 H   0  0  0  0  0  0  0  0  0  0  0  0
   56.7845   24.5183   47.8635 H   0  0  0  0  0  0  0  0  0  0  0  0
   55.6398   25.6028   46.9455 H   0  0  0  0  0  0  0  0  0  0  0  0
   56.1249   22.8138   46.7188 H   0  0  0  0  0  0  0  0  0  0  0  0
   54.8897   23.9629   45.9166 H   0  0  0  0  0  0  0  0  0  0  0  0
   56.2630   19.2230   42.9130 H   0  0  0  0  0  0  0  0  0  0  0  0
  1  2  2  0
  2  3  1  0
  3  4  1  0
  4  5  1  0
  5  6  1  0
  6  7  1  0
  7  8  1  0
  8  9  2  0
  9 10  1  0
 10 11  2  0
 11 12  1  0
 12 13  1  0
 13 14  2  0
 14 15  1  0
 15 16  1  0
 16 17  2  0
 10 18  1  0
 18 19  1  0
 19 20  2  0
  7 21  1  0
 21 22  1  0
  3 23  2  0
 23 24  1  0
 24  1  1  0
 22  4  1  0
 20  8  1  0
 17 13  1  0
  1 25  1  0
  4 26  1  0
  5 27  1  0
  5 28  1  0
  6 29  1  0
  6 30  1  0
  9 31  1  0
 12 32  1  0
 12 33  1  0
 14 34  1  0
 16 35  1  0
 18 36  1  0
 19 37  1  0
 21 38  1  0
 21 39  1  0
 22 40  1  0
 22 41  1  0
 24 42  1  0
M  END
>  <smiles>  (12) 
c1nc(C2CCN(c3cc(=NCc4cscn4)[nH]cn3)CC2)n[nH]1

>  <score_type>  (12) 
oracle

>  <origin>  (12) 
adg

>  <m_score__min__energy>  (12) 
-7.2300000000000004

>  <m_primary>  (12) 
energy

$$$$
12:0
     RDKit          3D

 36 38  0  0  0  0  0  0  0  0999 V2000
   58.6090   33.6110   44.3920 C   0  0  0  0  0  0  0  0  0  0  0  0
   58.1740   33.6880   45.8580 C   0  0  1  0  0  0  0  0  0  0  0  0
   57.7430   32.3640   46.2940 N   0  0  0  0  0  0  0  0  0  0  0  0
   58.4930   31.2980   46.3160 C   0  0  0  0  0  0  0  0  0  0  0  0
   58.2360   30.2300   45.3160 C   0  0  0  0  0  0  0  0  0  0  0  0
   57.1010   30.2900   44.4840 C   0  0  0  0  0  0  0  0  0  0  0  0
   56.8620   29.2910   43.5370 C   0  0  0  0  0  0  0  0  0  0  0  0
   57.7530   28.2240   43.4020 C   0  0  0  0  0  0  0  0  0  0  0  0
   57.5190   27.2560   42.4830 F   0  0  0  0  0  0  0  0  0  0  0  0
   58.8890   28.1570   44.2140 C   0  0  0  0  0  0  0  0  0  0  0  0
   59.1320   29.1540   45.1630 C   0  0  0  0  0  0  0  0  0  0  0  0
   59.5630   31.1330   47.3410 C   0  0  0  0  0  0  0  0  0  0  0  0
   59.6240   29.9310   48.0710 C   0  0  0  0  0  0  0  0  0  0  0  0
   60.6160   29.7280   49.0310 C   0  0  0  0  0  0  0  0  0  0  0  0
   60.6760   28.2210   49.9260 Cl  0  0  0  0  0  0  0  0  0  0  0  0
   61.5590   30.7240   49.2800 C   0  0  0  0  0  0  0  0  0  0  0  0
   61.5120   31.9250   48.5720 C   0  0  0  0  0  0  0  0  0  0  0  0
   60.5190   32.1490   47.6010 C   0  0  0  0  0  0  0  0  0  0  0  0
   60.4990   33.4020   46.8820 N   0  0  0  0  0  0  0  0  0  0  0  0
   61.7620   33.9970   46.4320 C   0  0  0  0  0  0  0  0  0  0  0  0
   59.2810   34.1640   46.7680 C   0  0  0  0  0  0  0  0  0  0  0  0
   59.1480   35.2340   47.4250 O   0  0  0  0  0  0  0  0  0  0  0  0
   59.6910   33.4195   44.3402 H   0  0  0  0  0  0  0  0  0  0  0  0
   58.0677   32.7947   43.8913 H   0  0  0  0  0  0  0  0  0  0  0  0
   58.3808   34.5635   43.8913 H   0  0  0  0  0  0  0  0  0  0  0  0
   57.3537   34.4181   45.9216 H   0  0  0  0  0  0  0  0  0  0  0  0
   56.3973   31.1299   44.5806 H   0  0  0  0  0  0  0  0  0  0  0  0
   55.9697   29.3450   42.8960 H   0  0  0  0  0  0  0  0  0  0  0  0
   59.5926   27.3184   44.1059 H   0  0  0  0  0  0  0  0  0  0  0  0
   60.0302   29.0979   45.7955 H   0  0  0  0  0  0  0  0  0  0  0  0
   58.8808   29.1423   47.8824 H   0  0  0  0  0  0  0  0  0  0  0  0
   62.3415   30.5626   50.0361 H   0  0  0  0  0  0  0  0  0  0  0  0
   62.2598   32.7057   48.7752 H   0  0  0  0  0  0  0  0  0  0  0  0
   62.3655   34.2813   47.3066 H   0  0  0  0  0  0  0  0  0  0  0  0
   62.3166   33.2654   45.8260 H   0  0  0  0  0  0  0  0  0  0  0  0
   61.5510   34.8904   45.8260 H   0  0  0  0  0  0  0  0  0  0  0  0
  1  2  1  0
  2  3  1  0
  3  4  2  0
  4  5  1  0
  5  6  2  0
  6  7  1  0
  7  8  2  0
  8  9  1  0
  8 10  1  0
 10 11  2  0
  4 12  1  0
 12 13  2  0
 13 14  1  0
 14 15  1  0
 14 16  2  0
 16 17  1  0
 17 18  2  0
 18 19  1  0
 19 20  1  0
 19 21  1  0
 21 22  2  0
 21  2  1  0
 11  5  1  0
 18 12  1  0
  1 23  1  0
  1 24  1  0
  1 25  1  0
  2 26  1  6
  6 27  1  0
  7 28  1  0
 10 29  1  0
 11 30  1  0
 13 31  1  0
 16 32  1  0
 17 33  1  0
 20 34  1  0
 20 35  1  0
 20 36  1  0
M  END
>  <UniqueID>  (13) 
11

>  <SMILES>  (13) 
C[C@H]1N=C(c2ccc(F)cc2)c2cc(Cl)ccc2N(C)C1=O

>  <Energy>  (13) 
52.27366835156688

>  <Genealogy>  (13) 
C[C@H]1N=C(c2ccc(F)cc2)c2cc(Cl)ccc2N(C)C1=O (chirality)
C[C@H]1N=C(c2ccc(F)cc2)c2cc(Cl)ccc2N(C)C1=O (3D coordinates assigned)
C[C@H]1N=C(c2ccc(F)cc2)c2cc(Cl)ccc2N(C)C1=O (nonaromatic ring conformer: 52.27366835156688 kcal/mol)

>  <smiles>  (13) 
CC1N=C(c2ccc(F)cc2)c2cc(Cl)ccc2N(C)C1=O

>  <score_type>  (13) 
oracle

>  <origin>  (13) 
adg

>  <m_score__min__energy>  (13) 
-5.4699999999999998

>  <m_primary>  (13) 
energy

$$$$
13:0
     RDKit          3D

 17 17  0  0  0  0  0  0  0  0999 V2000
   55.5850   29.6620   44.8680 O   0  0  0  0  0  0  0  0  0  0  0  0
   56.7350   29.9320   44.4280 C   0  0  0  0  0  0  0  0  0  0  0  0
   57.4350   31.1550   44.9070 C   0  0  0  0  0  0  0  0  0  0  0  0
   58.1490   31.1670   46.1230 C   0  0  0  0  0  0  0  0  0  0  0  0
   58.8000   32.3280   46.5520 C   0  0  0  0  0  0  0  0  0  0  0  0
   58.7510   33.4900   45.7780 C   0  0  0  0  0  0  0  0  0  0  0  0
   59.6430   35.0720   46.3690 Br  0  0  0  0  0  0  0  0  0  0  0  0
   58.0500   33.4910   44.5700 C   0  0  0  0  0  0  0  0  0  0  0  0
   57.3970   32.3340   44.1360 C   0  0  0  0  0  0  0  0  0  0  0  0
   57.3450   29.0130   43.4060 C   0  0  0  0  0  0  0  0  0  0  0  0
   56.5370   28.9640   42.2850 F   0  0  0  0  0  0  0  0  0  0  0  0
   57.4780   27.7360   43.9210 F   0  0  0  0  0  0  0  0  0  0  0  0
   58.1942   30.2565   46.7386 H   0  0  0  0  0  0  0  0  0  0  0  0
   59.3530   32.3263   47.5029 H   0  0  0  0  0  0  0  0  0  0  0  0
   58.0117   34.4047   43.9586 H   0  0  0  0  0  0  0  0  0  0  0  0
   56.8478   32.3438   43.1829 H   0  0  0  0  0  0  0  0  0  0  0  0
   58.3393   29.3994   43.1377 H   0  0  0  0  0  0  0  0  0  0  0  0
  1  2  2  0
  2  3  1  0
  3  4  2  0
  4  5  1  0
  5  6  2  0
  6  7  1  0
  6  8  1  0
  8  9  2  0
  2 10  1  0
 10 11  1  0
 10 12  1  0
  9  3  1  0
  4 13  1  0
  5 14  1  0
  8 15  1  0
  9 16  1  0
 10 17  1  0
M  END
>  <UniqueID>  (14) 
12

>  <SMILES>  (14) 
O=C(c1ccc(Br)cc1)C(F)F

>  <Energy>  (14) 
16.404551107576964

>  <Genealogy>  (14) 
O=C(c1ccc(Br)cc1)C(F)F (3D coordinates assigned)
O=C(c1ccc(Br)cc1)C(F)F (optimized conformer: 16.404551107576964 kcal/mol)

>  <smiles>  (14) 
O=C(c1ccc(Br)cc1)C(F)F

>  <score_type>  (14) 
oracle

>  <origin>  (14) 
adg

>  <m_score__min__energy>  (14) 
-5.0800000000000001

>  <m_primary>  (14) 
energy

$$$$
14:0
     RDKit          3D

 31 33  0  0  0  0  0  0  0  0999 V2000
   57.6770   25.9360   44.4660 C   0  0  0  0  0  0  0  0  0  0  0  0
   57.2790   26.6900   45.6040 O   0  0  0  0  0  0  0  0  0  0  0  0
   58.0490   27.7340   46.1260 C   0  0  0  0  0  0  0  0  0  0  0  0
   59.2200   27.6410   46.8510 C   0  0  0  0  0  0  0  0  0  0  0  0
   59.6490   28.8850   47.1420 N   0  0  0  0  0  0  0  0  0  0  0  0
   58.7860   29.7530   46.6290 N   0  0  0  0  0  0  0  0  0  0  0  0
   58.9120   31.1690   46.8300 C   0  0  0  0  0  0  0  0  0  0  0  0
   58.9060   31.7160   48.1360 C   0  0  0  0  0  0  0  0  0  0  0  0
   59.0670   33.0990   48.3240 C   0  0  0  0  0  0  0  0  0  0  0  0
   59.2450   33.9030   47.1980 C   0  0  0  0  0  0  0  0  0  0  0  0
   59.2730   33.3850   45.9540 C   0  0  0  0  0  0  0  0  0  0  0  0
   59.1190   32.0180   45.7230 C   0  0  0  0  0  0  0  0  0  0  0  0
   59.4920   34.4740   44.9890 C   0  0  0  0  0  0  0  0  0  0  0  0
   59.5890   35.6810   45.7350 O   0  0  0  0  0  0  0  0  0  0  0  0
   59.4440   35.3590   47.1140 C   0  0  0  0  0  0  0  0  0  0  0  0
   57.7940   29.0830   45.9930 C   0  0  0  0  0  0  0  0  0  0  0  0
   56.6990   29.6740   45.1950 C   0  0  0  0  0  0  0  0  0  0  0  0
   55.5240   28.9240   44.8990 N   0  0  0  0  0  0  0  0  0  0  0  0
   56.7830   30.8700   44.8050 O   0  0  0  0  0  0  0  0  0  0  0  0
   58.1671   25.0076   44.7944 H   0  0  0  0  0  0  0  0  0  0  0  0
   56.7916   25.6893   43.8616 H   0  0  0  0  0  0  0  0  0  0  0  0
   58.3802   26.5278   43.8616 H   0  0  0  0  0  0  0  0  0  0  0  0
   59.7204   26.7059   47.1430 H   0  0  0  0  0  0  0  0  0  0  0  0
   58.7749   31.0560   49.0062 H   0  0  0  0  0  0  0  0  0  0  0  0
   59.0531   33.5366   49.3331 H   0  0  0  0  0  0  0  0  0  0  0  0
   59.1581   31.6118   44.7015 H   0  0  0  0  0  0  0  0  0  0  0  0
   60.4229   34.3006   44.4293 H   0  0  0  0  0  0  0  0  0  0  0  0
   58.6660   34.5270   44.2645 H   0  0  0  0  0  0  0  0  0  0  0  0
   60.3498   35.6489   47.6668 H   0  0  0  0  0  0  0  0  0  0  0  0
   58.5922   35.8974   47.5551 H   0  0  0  0  0  0  0  0  0  0  0  0
   55.5210   27.8820   44.9640 H   0  0  0  0  0  0  0  0  0  0  0  0
  1  2  1  0
  2  3  1  0
  3  4  1  0
  4  5  2  0
  5  6  1  0
  6  7  1  0
  7  8  2  0
  8  9  1  0
  9 10  2  0
 10 11  1  0
 11 12  2  0
 11 13  1  0
 13 14  1  0
 14 15  1  0
  6 16  1  0
 16 17  1  0
 17 18  1  0
 17 19  2  0
 16  3  2  0
 12  7  1  0
 15 10  1  0
  1 20  1  0
  1 21  1  0
  1 22  1  0
  4 23  1  0
  8 24  1  0
  9 25  1  0
 12 26  1  0
 13 27  1  0
 13 28  1  0
 15 29  1  0
 15 30  1  0
 18 31  1  0
M  CHG  1  18  -1
M  END
>  <UniqueID>  (15) 
13

>  <SMILES>  (15) 
COc1cnn(-c2ccc3c(c2)COC3)c1C([NH-])=O

>  <Energy>  (15) 
80.2688852089401

>  <Genealogy>  (15) 
COc1cnn(-c2ccc3c(c2)COC3)c1C([NH-])=O (protonated)
COc1cnn(-c2ccc3c(c2)COC3)c1C([NH-])=O (3D coordinates assigned)
COc1cnn(-c2ccc3c(c2)COC3)c1C([NH-])=O (nonaromatic ring conformer: 80.2688852089401 kcal/mol)

>  <smiles>  (15) 
COc1cnn(-c2ccc3c(c2)COC3)c1C(N)=O

>  <score_type>  (15) 
oracle

>  <origin>  (15) 
adg

>  <m_score__min__energy>  (15) 
-9.3100000000000005

>  <m_primary>  (15) 
energy

$$$$
15:0
     RDKit          3D

 23 24  0  0  0  0  0  0  0  0999 V2000
   58.0120   27.7950   44.9350 C   0  0  0  0  0  0  0  0  0  0  0  0
   56.6940   28.0960   45.2770 C   0  0  0  0  0  0  0  0  0  0  0  0
   56.2630   29.3840   45.2440 N   0  0  0  0  0  0  0  0  0  0  0  0
   57.0980   30.3940   44.8820 C   0  0  0  0  0  0  0  0  0  0  0  0
   56.6510   31.6150   44.8620 N   0  0  0  0  0  0  0  0  0  0  0  0
   57.4010   32.7720   44.3770 C   0  0  0  0  0  0  0  0  0  0  0  0
   58.1630   33.4200   45.5030 C   0  0  0  0  0  0  0  0  0  0  0  0
   58.1110   32.8740   46.7940 C   0  0  0  0  0  0  0  0  0  0  0  0
   58.8380   33.4750   47.8250 C   0  0  0  0  0  0  0  0  0  0  0  0
   59.5910   34.5790   47.5750 N   0  0  0  0  0  0  0  0  0  0  0  0
   59.6620   35.1270   46.3320 C   0  0  0  0  0  0  0  0  0  0  0  0
   58.9500   34.5580   45.2730 C   0  0  0  0  0  0  0  0  0  0  0  0
   58.3880   30.1120   44.5430 N   0  0  0  0  0  0  0  0  0  0  0  0
   58.8570   28.8390   44.5640 C   0  0  0  0  0  0  0  0  0  0  0  0
   58.3762   26.7573   44.9576 H   0  0  0  0  0  0  0  0  0  0  0  0
   56.0044   27.2918   45.5730 H   0  0  0  0  0  0  0  0  0  0  0  0
   58.1099   32.4444   43.6023 H   0  0  0  0  0  0  0  0  0  0  0  0
   56.6934   33.5039   43.9604 H   0  0  0  0  0  0  0  0  0  0  0  0
   57.5026   31.9795   46.9933 H   0  0  0  0  0  0  0  0  0  0  0  0
   58.8010   33.0541   48.8406 H   0  0  0  0  0  0  0  0  0  0  0  0
   60.2812   36.0198   46.1603 H   0  0  0  0  0  0  0  0  0  0  0  0
   59.0062   34.9990   44.2668 H   0  0  0  0  0  0  0  0  0  0  0  0
   59.9016   28.6316   44.2888 H   0  0  0  0  0  0  0  0  0  0  0  0
  1  2  1  0
  2  3  2  0
  3  4  1  0
  4  5  2  3
  5  6  1  0
  6  7  1  0
  7  8  2  0
  8  9  1  0
  9 10  2  0
 10 11  1  0
 11 12  2  0
  4 13  1  0
 13 14  1  0
 14  1  2  0
 12  7  1  0
  1 15  1  0
  2 16  1  0
  6 17  1  0
  6 18  1  0
  8 19  1  0
  9 20  1  0
 11 21  1  0
 12 22  1  0
 14 23  1  0
M  CHG  1  13  -1
M  END
>  <UniqueID>  (16) 
14

>  <SMILES>  (16) 
c1cnc(=NCc2ccncc2)[n-]c1

>  <Energy>  (16) 
24.836221791601176

>  <Genealogy>  (16) 
c1cnc(=NCc2ccncc2)[n-]c1 (protonated)
c1cnc(=NCc2ccncc2)[n-]c1 (3D coordinates assigned)
c1cnc(=NCc2ccncc2)[n-]c1 (optimized conformer: 24.836221791601176 kcal/mol)

>  <smiles>  (16) 
c1cnc(=NCc2ccncc2)[nH]c1

>  <score_type>  (16) 
oracle

>  <origin>  (16) 
adg

>  <m_score__min__energy>  (16) 
-7.0599999999999996

>  <m_primary>  (16) 
energy

$$$$
16:0
     RDKit          3D

 26 27  0  0  1  0  0  0  0  0999 V2000
   56.1980   30.3570   44.5940 O   0  0  0  0  0  0  0  0  0  0  0  0
   56.9230   31.3590   44.4850 C   0  0  0  0  0  0  0  0  0  0  0  0
   58.0540   31.2780   43.4970 C   0  0  0  0  0  0  0  0  0  0  0  0
   57.4040   31.9710   41.9860 Cl  0  0  0  0  0  0  0  0  0  0  0  0
   56.7700   32.5640   45.2140 N   0  0  0  0  0  0  0  0  0  0  0  0
   57.7930   33.2700   45.5080 C   0  0  0  0  0  0  0  0  0  0  0  0
   58.8060   32.8060   46.3390 C   0  0  0  0  0  0  0  0  0  0  0  0
   59.7190   33.8410   46.4130 C   0  0  0  0  0  0  0  0  0  0  0  0
   60.9680   33.8490   47.1680 C   0  0  0  0  0  0  0  0  0  0  0  0
   62.1410   33.5850   46.4920 C   0  0  0  0  0  0  0  0  0  0  0  0
   63.3730   33.5770   47.1520 C   0  0  0  0  0  0  0  0  0  0  0  0
   63.3610   33.8400   48.4890 C   0  0  0  0  0  0  0  0  0  0  0  0
   62.2040   34.1100   49.2120 C   0  0  0  0  0  0  0  0  0  0  0  0
   61.0030   34.1090   48.5190 C   0  0  0  0  0  0  0  0  0  0  0  0
   59.2840   34.8700   45.6720 N   0  0  0  0  0  0  0  0  0  0  0  0
   58.1200   34.5120   45.1310 N   0  0  0  0  0  0  0  0  0  0  0  0
   58.9170   31.8620   43.8495 H   0  0  0  0  0  0  0  0  0  0  0  0
   58.4061   30.2452   43.3581 H   0  0  0  0  0  0  0  0  0  0  0  0
   58.8678   31.8248   46.8323 H   0  0  0  0  0  0  0  0  0  0  0  0
   62.1062   33.3767   45.4125 H   0  0  0  0  0  0  0  0  0  0  0  0
   64.3105   33.3677   46.6160 H   0  0  0  0  0  0  0  0  0  0  0  0
   64.3206   33.8387   49.0268 H   0  0  0  0  0  0  0  0  0  0  0  0
   62.2403   34.3164   50.2919 H   0  0  0  0  0  0  0  0  0  0  0  0
   60.0662   34.3187   49.0560 H   0  0  0  0  0  0  0  0  0  0  0  0
   59.7340   35.8130   45.5080 H   0  0  0  0  0  0  0  0  0  0  0  0
   57.5440   35.1030   44.5060 H   0  0  0  0  0  0  0  0  0  0  0  0
  1  2  2  0
  2  3  1  0
  3  4  1  0
  2  5  1  0
  5  6  2  0
  6  7  1  0
  7  8  2  0
  8  9  1  0
  9 10  2  0
 10 11  1  0
 11 12  2  0
 12 13  1  0
 13 14  2  0
  8 15  1  0
 15 16  1  0
 16  6  1  0
 14  9  1  0
  3 17  1  0
  3 18  1  0
  7 19  1  0
 10 20  1  0
 11 21  1  0
 12 22  1  0
 13 23  1  0
 14 24  1  0
 15 25  1  0
 16 26  1  0
M  END
>  <smiles>  (17) 
O=C(CCl)N=c1cc(-c2ccccc2)[nH][nH]1

>  <score_type>  (17) 
oracle

>  <origin>  (17) 
adg

>  <m_score__min__energy>  (17) 
-6.75

>  <m_primary>  (17) 
energy

$$$$
17:0
     RDKit          3D

 50 53  0  0  0  0  0  0  0  0999 V2000
   64.7710   32.3740   50.0380 C   0  0  0  0  0  0  0  0  0  0  0  0
   64.2940   33.4930   49.2960 O   0  0  0  0  0  0  0  0  0  0  0  0
   63.0570   33.5360   48.6380 C   0  0  0  0  0  0  0  0  0  0  0  0
   63.0420   33.4310   47.2420 C   0  0  0  0  0  0  0  0  0  0  0  0
   61.8340   33.4730   46.5400 C   0  0  0  0  0  0  0  0  0  0  0  0
   60.6170   33.6140   47.2240 C   0  0  0  0  0  0  0  0  0  0  0  0
   59.3760   33.6930   46.4940 N   0  0  0  0  0  0  0  0  0  0  0  0
   59.2160   34.6130   45.3660 C   0  0  0  0  0  0  0  0  0  0  0  0
   58.8840   33.7860   44.1270 C   0  0  0  0  0  0  0  0  0  0  0  0
   57.6380   32.9860   44.2940 N   0  0  0  0  0  0  0  0  0  0  0  0
   57.6660   31.7260   43.4990 C   0  0  0  0  0  0  0  0  0  0  0  0
   56.8620   30.5830   44.0870 C   0  0  0  0  0  0  0  0  0  0  0  0
   55.5780   30.2370   43.7130 C   0  0  0  0  0  0  0  0  0  0  0  0
   55.1380   29.2300   44.4890 N   0  0  0  0  0  0  0  0  0  0  0  0
   56.0970   28.9060   45.3420 N   0  0  0  0  0  0  0  0  0  0  0  0
   57.1630   29.6980   45.1170 C   0  0  0  0  0  0  0  0  0  0  0  0
   58.4160   29.5700   45.8820 C   0  0  0  0  0  0  0  0  0  0  0  0
   58.3580   29.3300   47.2650 C   0  0  0  0  0  0  0  0  0  0  0  0
   59.5350   29.2180   48.0110 C   0  0  0  0  0  0  0  0  0  0  0  0
   60.7770   29.3260   47.3800 C   0  0  0  0  0  0  0  0  0  0  0  0
   60.8440   29.5330   45.9990 C   0  0  0  0  0  0  0  0  0  0  0  0
   59.6670   29.6480   45.2500 C   0  0  0  0  0  0  0  0  0  0  0  0
   57.1850   32.8020   45.7050 C   0  0  0  0  0  0  0  0  0  0  0  0
   58.3430   32.6730   46.7180 C   0  0  0  0  0  0  0  0  0  0  0  0
   60.6310   33.7200   48.6260 C   0  0  0  0  0  0  0  0  0  0  0  0
   61.8390   33.6830   49.3280 C   0  0  0  0  0  0  0  0  0  0  0  0
   64.6820   32.5829   51.1143 H   0  0  0  0  0  0  0  0  0  0  0  0
   64.1734   31.4854   49.7863 H   0  0  0  0  0  0  0  0  0  0  0  0
   65.8259   32.1898   49.7863 H   0  0  0  0  0  0  0  0  0  0  0  0
   63.9882   33.3145   46.6933 H   0  0  0  0  0  0  0  0  0  0  0  0
   61.8375   33.3949   45.4428 H   0  0  0  0  0  0  0  0  0  0  0  0
   58.3987   35.3195   45.5734 H   0  0  0  0  0  0  0  0  0  0  0  0
   60.1409   35.1866   45.2063 H   0  0  0  0  0  0  0  0  0  0  0  0
   58.7548   34.4665   43.2725 H   0  0  0  0  0  0  0  0  0  0  0  0
   59.7137   33.0831   43.9612 H   0  0  0  0  0  0  0  0  0  0  0  0
   56.8850   33.5600   43.8450 H   0  0  0  0  0  0  0  0  0  0  0  0
   57.2671   31.9448   42.4975 H   0  0  0  0  0  0  0  0  0  0  0  0
   58.7140   31.3920   43.4865 H   0  0  0  0  0  0  0  0  0  0  0  0
   55.0032   30.7122   42.9044 H   0  0  0  0  0  0  0  0  0  0  0  0
   57.3823   29.2298   47.7630 H   0  0  0  0  0  0  0  0  0  0  0  0
   59.4833   29.0446   49.0960 H   0  0  0  0  0  0  0  0  0  0  0  0
   61.7022   29.2481   47.9699 H   0  0  0  0  0  0  0  0  0  0  0  0
   61.8220   29.6055   45.5008 H   0  0  0  0  0  0  0  0  0  0  0  0
   59.7226   29.8001   44.1620 H   0  0  0  0  0  0  0  0  0  0  0  0
   56.5711   33.6696   45.9883 H   0  0  0  0  0  0  0  0  0  0  0  0
   56.6209   31.8583   45.7405 H   0  0  0  0  0  0  0  0  0  0  0  0
   57.9414   32.7896   47.7354 H   0  0  0  0  0  0  0  0  0  0  0  0
   58.8043   31.6829   46.5877 H   0  0  0  0  0  0  0  0  0  0  0  0
   59.6842   33.8329   49.1744 H   0  0  0  0  0  0  0  0  0  0  0  0
   61.8379   33.7691   50.4246 H   0  0  0  0  0  0  0  0  0  0  0  0
  1  2  1  0
  2  3  1  0
  3  4  2  0
  4  5  1  0
  5  6  2  0
  6  7  1  0
  7  8  1  0
  8  9  1  0
  9 10  1  0
 10 11  1  0
 11 12  1  0
 12 13  2  0
 13 14  1  0
 14 15  1  0
 15 16  2  0
 16 17  1  0
 17 18  2  0
 18 19  1  0
 19 20  2  0
 20 21  1  0
 21 22  2  0
 10 23  1  0
 23 24  1  0
  6 25  1  0
 25 26  2  0
 26  3  1  0
 24  7  1  0
 16 12  1  0
 22 17  1  0
  1 27  1  0
  1 28  1  0
  1 29  1  0
  4 30  1  0
  5 31  1  0
  8 32  1  0
  8 33  1  0
  9 34  1  0
  9 35  1  0
 10 36  1  0
 11 37  1  0
 11 38  1  0
 13 39  1  0
 18 40  1  0
 19 41  1  0
 20 42  1  0
 21 43  1  0
 22 44  1  0
 23 45  1  0
 23 46  1  0
 24 47  1  0
 24 48  1  0
 25 49  1  0
 26 50  1  0
M  CHG  2  10   1  14  -1
M  END
>  <UniqueID>  (18) 
15

>  <SMILES>  (18) 
COc1ccc(N2CC[NH+](Cc3c[n-]nc3-c3ccccc3)CC2)cc1

>  <Energy>  (18) 
101.56259009209698

>  <Genealogy>  (18) 
COc1ccc(N2CC[NH+](Cc3c[n-]nc3-c3ccccc3)CC2)cc1 (protonated)
COc1ccc(N2CC[NH+](Cc3c[n-]nc3-c3ccccc3)CC2)cc1 (3D coordinates assigned)
COc1ccc(N2CC[NH+](Cc3c[n-]nc3-c3ccccc3)CC2)cc1 (nonaromatic ring conformer: 101.56259009209698 kcal/mol)

>  <smiles>  (18) 
COc1ccc(N2CCN(Cc3c[nH]nc3-c3ccccc3)CC2)cc1

>  <score_type>  (18) 
oracle

>  <origin>  (18) 
adg

>  <m_score__min__energy>  (18) 
-9.0600000000000005

>  <m_primary>  (18) 
energy

$$$$
18:0
     RDKit          3D

 45 47  0  0  0  0  0  0  0  0999 V2000
   63.7620   33.1830   48.2810 C   0  0  0  0  0  0  0  0  0  0  0  0
   62.8970   32.7070   47.1140 C   0  0  0  0  0  0  0  0  0  0  0  0
   61.9390   31.5830   47.5240 C   0  0  0  0  0  0  0  0  0  0  0  0
   60.5770   31.8580   47.0650 N   0  0  0  0  0  0  0  0  0  0  0  0
   59.9080   33.0450   47.0600 C   0  0  0  0  0  0  0  0  0  0  0  0
   60.4210   34.1330   47.4360 O   0  0  0  0  0  0  0  0  0  0  0  0
   58.6300   32.9370   46.6040 N   0  0  0  0  0  0  0  0  0  0  0  0
   57.6510   34.0000   46.3910 C   0  0  0  0  0  0  0  0  0  0  0  0
   57.3880   34.1840   44.9020 C   0  0  0  0  0  0  0  0  0  0  0  0
   58.5140   31.6310   46.3050 C   0  0  0  0  0  0  0  0  0  0  0  0
   57.4390   30.9850   45.7940 N   0  0  0  0  0  0  0  0  0  0  0  0
   57.5460   29.6400   45.5530 C   0  0  0  0  0  0  0  0  0  0  0  0
   56.3820   28.9130   45.0220 C   0  0  0  0  0  0  0  0  0  0  0  0
   55.8200   29.3440   43.9820 O   0  0  0  0  0  0  0  0  0  0  0  0
   55.8920   27.7060   45.6200 N   0  0  0  0  0  0  0  0  0  0  0  0
   56.7010   26.7690   46.3900 C   0  0  0  0  0  0  0  0  0  0  0  0
   56.7540   25.4480   45.6720 C   0  0  0  0  0  0  0  0  0  0  0  0
   55.5600   24.8550   45.2230 C   0  0  0  0  0  0  0  0  0  0  0  0
   55.5830   23.6180   44.5750 C   0  0  0  0  0  0  0  0  0  0  0  0
   56.7950   22.9540   44.3760 C   0  0  0  0  0  0  0  0  0  0  0  0
   57.9870   23.5240   44.8300 C   0  0  0  0  0  0  0  0  0  0  0  0
   57.9760   24.7630   45.4800 C   0  0  0  0  0  0  0  0  0  0  0  0
   59.5050   25.4230   46.0500 Cl  0  0  0  0  0  0  0  0  0  0  0  0
   58.7570   28.9620   45.8770 C   0  0  0  0  0  0  0  0  0  0  0  0
   59.8180   29.6550   46.3900 N   0  0  0  0  0  0  0  0  0  0  0  0
   59.6720   30.9870   46.5860 C   0  0  0  0  0  0  0  0  0  0  0  0
   63.2758   32.9155   49.2308 H   0  0  0  0  0  0  0  0  0  0  0  0
   64.7493   32.7012   48.2260 H   0  0  0  0  0  0  0  0  0  0  0  0
   63.8833   34.2749   48.2260 H   0  0  0  0  0  0  0  0  0  0  0  0
   62.3068   33.5569   46.7408 H   0  0  0  0  0  0  0  0  0  0  0  0
   63.5671   32.3125   46.3360 H   0  0  0  0  0  0  0  0  0  0  0  0
   62.2837   30.6374   47.0801 H   0  0  0  0  0  0  0  0  0  0  0  0
   61.9305   31.5143   48.6218 H   0  0  0  0  0  0  0  0  0  0  0  0
   56.7105   33.7340   46.8957 H   0  0  0  0  0  0  0  0  0  0  0  0
   58.0467   34.9397   46.8038 H   0  0  0  0  0  0  0  0  0  0  0  0
   56.4940   34.8095   44.7621 H   0  0  0  0  0  0  0  0  0  0  0  0
   58.2549   34.6736   44.4343 H   0  0  0  0  0  0  0  0  0  0  0  0
   57.2252   33.2018   44.4343 H   0  0  0  0  0  0  0  0  0  0  0  0
   57.7201   27.1682   46.5000 H   0  0  0  0  0  0  0  0  0  0  0  0
   56.2539   26.6288   47.3852 H   0  0  0  0  0  0  0  0  0  0  0  0
   54.6010   25.3694   45.3835 H   0  0  0  0  0  0  0  0  0  0  0  0
   54.6447   23.1661   44.2208 H   0  0  0  0  0  0  0  0  0  0  0  0
   56.8113   21.9818   43.8616 H   0  0  0  0  0  0  0  0  0  0  0  0
   58.9394   22.9958   44.6756 H   0  0  0  0  0  0  0  0  0  0  0  0
   58.8383   27.8772   45.7137 H   0  0  0  0  0  0  0  0  0  0  0  0
  1  2  1  0
  2  3  1  0
  3  4  1  0
  4  5  1  0
  5  6  2  0
  5  7  1  0
  7  8  1  0
  8  9  1  0
  7 10  1  0
 10 11  2  0
 11 12  1  0
 12 13  1  0
 13 14  2  0
 13 15  1  0
 15 16  1  0
 16 17  1  0
 17 18  2  0
 18 19  1  0
 19 20  2  0
 20 21  1  0
 21 22  2  0
 22 23  1  0
 12 24  2  0
 24 25  1  0
 25 26  2  0
 26  4  1  0
 26 10  1  0
 22 17  1  0
  1 27  1  0
  1 28  1  0
  1 29  1  0
  2 30  1  0
  2 31  1  0
  3 32  1  0
  3 33  1  0
  8 34  1  0
  8 35  1  0
  9 36  1  0
  9 37  1  0
  9 38  1  0
 16 39  1  0
 16 40  1  0
 18 41  1  0
 19 42  1  0
 20 43  1  0
 21 44  1  0
 24 45  1  0
M  CHG  1  15  -1
M  END
>  <UniqueID>  (19) 
16

>  <SMILES>  (19) 
CCCn1c(=O)n(CC)c2nc(C(=O)[N-]Cc3ccccc3Cl)cnc21

>  <Energy>  (19) 
88.4808677004733

>  <Genealogy>  (19) 
CCCn1c(=O)n(CC)c2nc(C(=O)[N-]Cc3ccccc3Cl)cnc21 (protonated)
CCCn1c(=O)n(CC)c2nc(C(=O)[N-]Cc3ccccc3Cl)cnc21 (3D coordinates assigned)
CCCn1c(=O)n(CC)c2nc(C(=O)[N-]Cc3ccccc3Cl)cnc21 (optimized conformer: 88.4808677004733 kcal/mol)

>  <smiles>  (19) 
CCCn1c(=O)n(CC)c2nc(C(=O)NCc3ccccc3Cl)cnc21

>  <score_type>  (19) 
oracle

>  <origin>  (19) 
adg

>  <m_score__min__energy>  (19) 
-9.2400000000000002

>  <m_primary>  (19) 
energy

$$$$
19:0
     RDKit          3D

 57 58  0  0  0  0  0  0  0  0999 V2000
   59.2830   35.0380   45.2120 C   0  0  0  0  0  0  0  0  0  0  0  0
   59.9560   34.0230   46.1320 C   0  0  0  0  0  0  0  0  0  0  0  0
   59.3200   34.0320   47.4710 N   0  0  0  0  0  0  0  0  0  0  0  0
   58.5230   32.8020   47.6870 C   0  0  0  0  0  0  0  0  0  0  0  0
   57.7860   32.4250   46.4050 C   0  0  0  0  0  0  0  0  0  0  0  0
   60.3320   34.2120   48.5370 C   0  0  0  0  0  0  0  0  0  0  0  0
   61.7730   34.1740   47.9800 C   0  0  0  0  0  0  0  0  0  0  0  0
   62.8030   33.8990   49.0160 N   0  0  1  0  0  0  0  0  0  0  0  0
   62.3050   34.1670   50.3800 C   0  0  0  0  0  0  0  0  0  0  0  0
   63.3350   32.5160   48.9020 C   0  0  0  0  0  0  0  0  0  0  0  0
   62.2960   31.4930   48.4830 C   0  0  0  0  0  0  0  0  0  0  0  0
   61.5420   30.8080   49.4480 C   0  0  0  0  0  0  0  0  0  0  0  0
   60.5730   29.8770   49.0630 C   0  0  0  0  0  0  0  0  0  0  0  0
   60.3440   29.6080   47.7020 C   0  0  0  0  0  0  0  0  0  0  0  0
   59.3140   28.6200   47.2900 C   0  0  0  0  0  0  0  0  0  0  0  0
   58.3100   28.9740   46.3720 C   0  0  0  0  0  0  0  0  0  0  0  0
   57.3400   28.0440   45.9870 C   0  0  0  0  0  0  0  0  0  0  0  0
   57.3590   26.7470   46.5110 C   0  0  0  0  0  0  0  0  0  0  0  0
   56.1220   25.5910   46.0240 S   0  0  0  0  0  0  0  0  0  0  0  0
   56.6470   24.7500   44.5460 C   0  0  0  0  0  0  0  0  0  0  0  0
   54.8240   26.2990   45.7510 O   0  0  0  0  0  0  0  0  0  0  0  0
   55.9090   24.5930   47.1280 O   0  0  0  0  0  0  0  0  0  0  0  0
   58.3540   26.3860   47.4290 C   0  0  0  0  0  0  0  0  0  0  0  0
   59.3250   27.3150   47.8150 C   0  0  0  0  0  0  0  0  0  0  0  0
   61.1100   30.2840   46.7370 C   0  0  0  0  0  0  0  0  0  0  0  0
   62.0790   31.2150   47.1230 C   0  0  0  0  0  0  0  0  0  0  0  0
   58.7759   35.8028   45.8185 H   0  0  0  0  0  0  0  0  0  0  0  0
   60.0426   35.5177   44.5772 H   0  0  0  0  0  0  0  0  0  0  0  0
   58.5455   34.5250   44.5772 H   0  0  0  0  0  0  0  0  0  0  0  0
   59.8613   33.0187   45.6933 H   0  0  0  0  0  0  0  0  0  0  0  0
   61.0171   34.2915   46.2411 H   0  0  0  0  0  0  0  0  0  0  0  0
   59.1937   31.9797   47.9767 H   0  0  0  0  0  0  0  0  0  0  0  0
   57.7884   32.9836   48.4854 H   0  0  0  0  0  0  0  0  0  0  0  0
   56.8333   31.9376   46.6596 H   0  0  0  0  0  0  0  0  0  0  0  0
   57.5877   33.3324   45.8157 H   0  0  0  0  0  0  0  0  0  0  0  0
   58.4058   31.7332   45.8157 H   0  0  0  0  0  0  0  0  0  0  0  0
   60.1653   35.1839   49.0245 H   0  0  0  0  0  0  0  0  0  0  0  0
   60.2225   33.3838   49.2526 H   0  0  0  0  0  0  0  0  0  0  0  0
   61.8297   33.3856   47.2150 H   0  0  0  0  0  0  0  0  0  0  0  0
   61.9868   35.1715   47.5685 H   0  0  0  0  0  0  0  0  0  0  0  0
   63.6190   34.5380   48.8530 H   0  0  0  0  0  0  0  0  0  0  0  0
   63.0249   33.7796   51.1159 H   0  0  0  0  0  0  0  0  0  0  0  0
   62.1852   35.2514   50.5201 H   0  0  0  0  0  0  0  0  0  0  0  0
   61.3339   33.6697   50.5201 H   0  0  0  0  0  0  0  0  0  0  0  0
   64.1429   32.5156   48.1555 H   0  0  0  0  0  0  0  0  0  0  0  0
   63.6864   32.2244   49.9027 H   0  0  0  0  0  0  0  0  0  0  0  0
   61.7149   31.0053   50.5163 H   0  0  0  0  0  0  0  0  0  0  0  0
   59.9855   29.3512   49.8301 H   0  0  0  0  0  0  0  0  0  0  0  0
   58.2875   29.9909   45.9533 H   0  0  0  0  0  0  0  0  0  0  0  0
   56.5585   28.3332   45.2690 H   0  0  0  0  0  0  0  0  0  0  0  0
   57.2112   23.8461   44.8192 H   0  0  0  0  0  0  0  0  0  0  0  0
   55.7652   24.4664   43.9526 H   0  0  0  0  0  0  0  0  0  0  0  0
   57.2890   25.4176   43.9526 H   0  0  0  0  0  0  0  0  0  0  0  0
   58.3713   25.3688   47.8472 H   0  0  0  0  0  0  0  0  0  0  0  0
   60.1037   27.0231   48.5350 H   0  0  0  0  0  0  0  0  0  0  0  0
   60.9458   30.0789   45.6688 H   0  0  0  0  0  0  0  0  0  0  0  0
   62.6751   31.7330   46.3573 H   0  0  0  0  0  0  0  0  0  0  0  0
  1  2  1  0
  2  3  1  0
  3  4  1  0
  4  5  1  0
  3  6  1  0
  6  7  1  0
  7  8  1  0
  8  9  1  0
  8 10  1  0
 10 11  1  0
 11 12  2  0
 12 13  1  0
 13 14  2  0
 14 15  1  0
 15 16  2  0
 16 17  1  0
 17 18  2  0
 18 19  1  0
 19 20  1  0
 19 21  2  0
 19 22  2  0
 18 23  1  0
 23 24  2  0
 14 25  1  0
 25 26  2  0
 26 11  1  0
 24 15  1  0
  1 27  1  0
  1 28  1  0
  1 29  1  0
  2 30  1  0
  2 31  1  0
  4 32  1  0
  4 33  1  0
  5 34  1  0
  5 35  1  0
  5 36  1  0
  6 37  1  0
  6 38  1  0
  7 39  1  0
  7 40  1  0
  8 41  1  6
  9 42  1  0
  9 43  1  0
  9 44  1  0
 10 45  1  0
 10 46  1  0
 12 47  1  0
 13 48  1  0
 16 49  1  0
 17 50  1  0
 20 51  1  0
 20 52  1  0
 20 53  1  0
 23 54  1  0
 24 55  1  0
 25 56  1  0
 26 57  1  0
M  CHG  1   8   1
M  END
>  <UniqueID>  (20) 
17

>  <SMILES>  (20) 
CCN(CC)CC[N@@H+](C)Cc1ccc(-c2ccc(S(C)(=O)=O)cc2)cc1

>  <Energy>  (20) 
60.797081895027624

>  <Genealogy>  (20) 
CCN(CC)CC[NH+](C)Cc1ccc(-c2ccc(S(C)(=O)=O)cc2)cc1 (protonated)
CCN(CC)CC[N@@H+](C)Cc1ccc(-c2ccc(S(C)(=O)=O)cc2)cc1 (chirality)
CCN(CC)CC[N@@H+](C)Cc1ccc(-c2ccc(S(C)(=O)=O)cc2)cc1 (3D coordinates assigned)
CCN(CC)CC[N@@H+](C)Cc1ccc(-c2ccc(S(C)(=O)=O)cc2)cc1 (optimized conformer: 60.797081895027624 kcal/mol)

>  <smiles>  (20) 
CCN(CC)CCN(C)Cc1ccc(-c2ccc(S(C)(=O)=O)cc2)cc1

>  <score_type>  (20) 
oracle

>  <origin>  (20) 
adg

>  <m_score__min__energy>  (20) 
-6.0099999999999998

>  <m_primary>  (20) 
energy

$$$$
20:0
     RDKit          3D

 23 23  0  0  0  0  0  0  0  0999 V2000
   57.1610   30.7560   43.1640 C   0  0  0  0  0  0  0  0  0  0  0  0
   57.6870   30.8990   44.5880 C   0  0  0  0  0  0  0  0  0  0  0  0
   57.7730   29.5810   45.2390 N   0  0  0  0  0  0  0  0  0  0  0  0
   56.7270   28.6970   45.3400 C   0  0  0  0  0  0  0  0  0  0  0  0
   55.4150   28.9980   44.8410 N   0  0  0  0  0  0  0  0  0  0  0  0
   57.0400   27.4940   45.9950 C   0  0  0  0  0  0  0  0  0  0  0  0
   56.1810   26.3170   46.2150 C   0  0  0  0  0  0  0  0  0  0  0  0
   56.6580   25.3070   46.8000 O   0  0  0  0  0  0  0  0  0  0  0  0
   54.8640   26.2970   45.7480 O   0  0  0  0  0  0  0  0  0  0  0  0
   54.1210   25.0940   45.5970 C   0  0  0  0  0  0  0  0  0  0  0  0
   58.6620   27.5550   46.4400 S   0  0  0  0  0  0  0  0  0  0  0  0
   58.9090   29.0800   45.7940 C   0  0  0  0  0  0  0  0  0  0  0  0
   60.3660   29.8350   45.8210 S   0  0  0  0  0  0  0  0  0  0  0  0
   56.0999   30.4675   43.1923 H   0  0  0  0  0  0  0  0  0  0  0  0
   57.2662   31.7153   42.6362 H   0  0  0  0  0  0  0  0  0  0  0  0
   57.7374   29.9820   42.6362 H   0  0  0  0  0  0  0  0  0  0  0  0
   58.6874   31.3555   44.5606 H   0  0  0  0  0  0  0  0  0  0  0  0
   56.9964   31.5352   45.1609 H   0  0  0  0  0  0  0  0  0  0  0  0
   55.0810   29.9810   44.7500 H   0  0  0  0  0  0  0  0  0  0  0  0
   54.7730   28.2510   44.5020 H   0  0  0  0  0  0  0  0  0  0  0  0
   53.8715   24.6901   46.5893 H   0  0  0  0  0  0  0  0  0  0  0  0
   53.1942   25.3026   45.0424 H   0  0  0  0  0  0  0  0  0  0  0  0
   54.7225   24.3587   45.0424 H   0  0  0  0  0  0  0  0  0  0  0  0
  1  2  1  0
  2  3  1  0
  3  4  1  0
  4  5  1  0
  4  6  2  0
  6  7  1  0
  7  8  2  0
  7  9  1  0
  9 10  1  0
  6 11  1  0
 11 12  1  0
 12 13  2  0
 12  3  1  0
  1 14  1  0
  1 15  1  0
  1 16  1  0
  2 17  1  0
  2 18  1  0
  5 19  1  0
  5 20  1  0
 10 21  1  0
 10 22  1  0
 10 23  1  0
M  END
>  <UniqueID>  (21) 
18

>  <SMILES>  (21) 
CCn1c(N)c(C(=O)OC)sc1=S

>  <Energy>  (21) 
50.23492037406749

>  <Genealogy>  (21) 
CCn1c(N)c(C(=O)OC)sc1=S (3D coordinates assigned)
CCn1c(N)c(C(=O)OC)sc1=S (optimized conformer: 50.23492037406749 kcal/mol)

>  <smiles>  (21) 
CCn1c(N)c(C(=O)OC)sc1=S

>  <score_type>  (21) 
oracle

>  <origin>  (21) 
adg

>  <m_score__min__energy>  (21) 
-5.4199999999999999

>  <m_primary>  (21) 
energy

$$$$
21:0
     RDKit          3D

 31 31  0  0  0  0  0  0  0  0999 V2000
   56.3870   30.0860   43.2620 C   0  0  0  0  0  0  0  0  0  0  0  0
   57.3820   31.2210   43.4770 C   0  0  0  0  0  0  0  0  0  0  0  0
   57.7920   31.2930   44.8880 N   0  0  0  0  0  0  0  0  0  0  0  0
   58.0330   30.0430   45.6250 C   0  0  0  0  0  0  0  0  0  0  0  0
   59.4320   29.5050   45.3370 C   0  0  0  0  0  0  0  0  0  0  0  0
   57.8900   32.5600   45.5770 C   0  0  0  0  0  0  0  0  0  0  0  0
   57.7730   32.5910   46.8330 O   0  0  0  0  0  0  0  0  0  0  0  0
   58.1440   33.8190   44.8410 C   0  0  0  0  0  0  0  0  0  0  0  0
   59.2370   34.5630   45.0510 C   0  0  0  0  0  0  0  0  0  0  0  0
   59.8840   34.6740   46.3730 C   0  0  0  0  0  0  0  0  0  0  0  0
   59.6000   35.6650   47.0960 O   0  0  0  0  0  0  0  0  0  0  0  0
   60.8600   33.6850   46.8750 C   0  0  0  0  0  0  0  0  0  0  0  0
   60.5380   32.5040   47.4530 N   0  0  0  0  0  0  0  0  0  0  0  0
   61.6310   31.7640   47.7790 C   0  0  0  0  0  0  0  0  0  0  0  0
   62.8490   32.3480   47.4510 C   0  0  0  0  0  0  0  0  0  0  0  0
   62.5300   33.8330   46.7250 S   0  0  0  0  0  0  0  0  0  0  0  0
   56.0513   29.7031   44.2370 H   0  0  0  0  0  0  0  0  0  0  0  0
   55.5205   30.4601   42.6969 H   0  0  0  0  0  0  0  0  0  0  0  0
   56.8713   29.2760   42.6969 H   0  0  0  0  0  0  0  0  0  0  0  0
   58.2698   31.0462   42.8515 H   0  0  0  0  0  0  0  0  0  0  0  0
   56.9006   32.1704   43.1998 H   0  0  0  0  0  0  0  0  0  0  0  0
   57.9358   30.2358   46.7036 H   0  0  0  0  0  0  0  0  0  0  0  0
   57.2942   29.2950   45.3016 H   0  0  0  0  0  0  0  0  0  0  0  0
   59.9507   29.3055   46.2863 H   0  0  0  0  0  0  0  0  0  0  0  0
   59.3544   28.5726   44.7586 H   0  0  0  0  0  0  0  0  0  0  0  0
   59.9991   30.2492   44.7586 H   0  0  0  0  0  0  0  0  0  0  0  0
   57.4087   34.1551   44.0951 H   0  0  0  0  0  0  0  0  0  0  0  0
   59.6707   35.1142   44.2036 H   0  0  0  0  0  0  0  0  0  0  0  0
   59.5620   32.1670   47.6060 H   0  0  0  0  0  0  0  0  0  0  0  0
   61.5572   30.7797   48.2645 H   0  0  0  0  0  0  0  0  0  0  0  0
   63.8443   31.9166   47.6334 H   0  0  0  0  0  0  0  0  0  0  0  0
  1  2  1  0
  2  3  1  0
  3  4  1  0
  4  5  1  0
  3  6  1  0
  6  7  2  0
  6  8  1  0
  8  9  2  3
  9 10  1  0
 10 11  2  0
 10 12  1  0
 12 13  2  0
 13 14  1  0
 14 15  2  0
 15 16  1  0
 16 12  1  0
  1 17  1  0
  1 18  1  0
  1 19  1  0
  2 20  1  0
  2 21  1  0
  4 22  1  0
  4 23  1  0
  5 24  1  0
  5 25  1  0
  5 26  1  0
  8 27  1  0
  9 28  1  0
 13 29  1  0
 14 30  1  0
 15 31  1  0
M  CHG  1  13   1
M  END
>  <UniqueID>  (22) 
19

>  <SMILES>  (22) 
CCN(CC)C(=O)C=CC(=O)c1[nH+]ccs1

>  <Energy>  (22) 
54.32003793909209

>  <Genealogy>  (22) 
CCN(CC)C(=O)C=CC(=O)c1[nH+]ccs1 (protonated)
CCN(CC)C(=O)C=CC(=O)c1[nH+]ccs1 (3D coordinates assigned)
CCN(CC)C(=O)C=CC(=O)c1[nH+]ccs1 (optimized conformer: 54.32003793909209 kcal/mol)

>  <smiles>  (22) 
CCN(CC)C(=O)C=CC(=O)c1nccs1

>  <score_type>  (22) 
oracle

>  <origin>  (22) 
adg

>  <m_score__min__energy>  (22) 
-4.6500000000000004

>  <m_primary>  (22) 
energy

$$$$
22:0
     RDKit          3D

 36 40  0  0  0  0  0  0  0  0999 V2000
   57.0560   27.5730   45.5740 Br  0  0  0  0  0  0  0  0  0  0  0  0
   57.1620   29.2170   44.6010 C   0  0  0  0  0  0  0  0  0  0  0  0
   56.5530   29.3340   43.3420 C   0  0  0  0  0  0  0  0  0  0  0  0
   56.6280   30.5420   42.6220 C   0  0  0  0  0  0  0  0  0  0  0  0
   57.3130   31.6470   43.1550 C   0  0  0  0  0  0  0  0  0  0  0  0
   57.9170   31.5240   44.4090 C   0  0  0  0  0  0  0  0  0  0  0  0
   58.6330   32.5240   45.0760 C   0  0  0  0  0  0  0  0  0  0  0  0
   59.1180   32.0990   46.3160 C   0  0  0  0  0  0  0  0  0  0  0  0
   59.9070   32.9050   47.2620 C   0  0  0  0  0  0  0  0  0  0  0  0
   61.1670   32.6110   47.6580 N   0  0  0  0  0  0  0  0  0  0  0  0
   61.6670   33.5160   48.5450 C   0  0  0  0  0  0  0  0  0  0  0  0
   63.0400   33.4040   49.0800 C   0  0  0  0  0  0  0  0  0  0  0  0
   64.1750   33.0840   48.3410 C   0  0  0  0  0  0  0  0  0  0  0  0
   65.2720   33.0830   49.1300 N   0  0  0  0  0  0  0  0  0  0  0  0
   64.8420   33.3880   50.3650 C   0  0  0  0  0  0  0  0  0  0  0  0
   65.6120   33.4780   51.5240 C   0  0  0  0  0  0  0  0  0  0  0  0
   64.9540   33.7700   52.7310 C   0  0  0  0  0  0  0  0  0  0  0  0
   63.5540   33.9530   52.7560 C   0  0  0  0  0  0  0  0  0  0  0  0
   62.8010   33.8550   51.5720 C   0  0  0  0  0  0  0  0  0  0  0  0
   63.4820   33.5880   50.3820 C   0  0  0  0  0  0  0  0  0  0  0  0
   60.8010   34.5640   48.8520 C   0  0  0  0  0  0  0  0  0  0  0  0
   59.3750   34.3230   47.9950 S   0  0  0  0  0  0  0  0  0  0  0  0
   58.6530   30.4910   46.5710 S   0  0  0  0  0  0  0  0  0  0  0  0
   57.8380   30.3290   45.1110 C   0  0  0  0  0  0  0  0  0  0  0  0
   56.0133   28.4761   42.9146 H   0  0  0  0  0  0  0  0  0  0  0  0
   56.1471   30.6210   41.6358 H   0  0  0  0  0  0  0  0  0  0  0  0
   57.3727   32.5920   42.5951 H   0  0  0  0  0  0  0  0  0  0  0  0
   58.7962   33.5330   44.6695 H   0  0  0  0  0  0  0  0  0  0  0  0
   61.7000   31.7750   47.3290 H   0  0  0  0  0  0  0  0  0  0  0  0
   64.1786   32.8625   47.2635 H   0  0  0  0  0  0  0  0  0  0  0  0
   66.2530   32.8780   48.8360 H   0  0  0  0  0  0  0  0  0  0  0  0
   66.7009   33.3252   51.4945 H   0  0  0  0  0  0  0  0  0  0  0  0
   65.5332   33.8566   53.6621 H   0  0  0  0  0  0  0  0  0  0  0  0
   63.0489   34.1737   53.7079 H   0  0  0  0  0  0  0  0  0  0  0  0
   61.7087   33.9847   51.5829 H   0  0  0  0  0  0  0  0  0  0  0  0
   61.0130   35.4005   49.5341 H   0  0  0  0  0  0  0  0  0  0  0  0
  1  2  1  0
  2  3  2  0
  3  4  1  0
  4  5  2  0
  5  6  1  0
  6  7  1  0
  7  8  2  0
  8  9  1  0
  9 10  2  0
 10 11  1  0
 11 12  1  0
 12 13  2  0
 13 14  1  0
 14 15  1  0
 15 16  2  0
 16 17  1  0
 17 18  2  0
 18 19  1  0
 19 20  2  0
 11 21  2  0
 21 22  1  0
  8 23  1  0
 23 24  1  0
 24  2  1  0
 24  6  2  0
 22  9  1  0
 20 12  1  0
 20 15  1  0
  3 25  1  0
  4 26  1  0
  5 27  1  0
  7 28  1  0
 10 29  1  0
 13 30  1  0
 14 31  1  0
 16 32  1  0
 17 33  1  0
 18 34  1  0
 19 35  1  0
 21 36  1  0
M  CHG  1  10   1
M  END
>  <UniqueID>  (23) 
20

>  <SMILES>  (23) 
Brc1cccc2cc(-c3[nH+]c(-c4c[nH]c5ccccc45)cs3)sc12

>  <Energy>  (23) 
139.02783172357425

>  <Genealogy>  (23) 
Brc1cccc2cc(-c3[nH+]c(-c4c[nH]c5ccccc45)cs3)sc12 (protonated)
Brc1cccc2cc(-c3[nH+]c(-c4c[nH]c5ccccc45)cs3)sc12 (3D coordinates assigned)
Brc1cccc2cc(-c3[nH+]c(-c4c[nH]c5ccccc45)cs3)sc12 (optimized conformer: 139.02783172357425 kcal/mol)

>  <smiles>  (23) 
Brc1cccc2cc(-c3nc(-c4c[nH]c5ccccc45)cs3)sc12

>  <score_type>  (23) 
oracle

>  <origin>  (23) 
adg

>  <m_score__min__energy>  (23) 
-7.1900000000000004

>  <m_primary>  (23) 
energy

$$$$
23:0
     RDKit          3D

 44 47  0  0  0  0  0  0  0  0999 V2000
   55.8460   22.8920   44.6390 C   0  0  0  0  0  0  0  0  0  0  0  0
   56.3910   24.2740   44.8480 C   0  0  0  0  0  0  0  0  0  0  0  0
   55.9080   25.0720   45.8950 C   0  0  0  0  0  0  0  0  0  0  0  0
   56.3880   26.3730   46.0700 C   0  0  0  0  0  0  0  0  0  0  0  0
   57.3520   26.9000   45.1940 C   0  0  0  0  0  0  0  0  0  0  0  0
   57.8370   28.2460   45.3710 N   0  0  0  0  0  0  0  0  0  0  0  0
   59.1350   28.4870   46.0350 C   0  0  0  0  0  0  0  0  0  0  0  0
   59.8530   29.7320   45.4680 C   0  0  0  0  0  0  0  0  0  0  0  0
   58.9170   30.8470   45.3320 N   0  0  0  0  0  0  0  0  0  0  0  0
   59.2490   32.1240   45.2660 N   0  0  0  0  0  0  0  0  0  0  0  0
   58.1120   32.8080   45.0090 C   0  0  0  0  0  0  0  0  0  0  0  0
   58.0490   34.2970   44.8730 C   0  0  0  0  0  0  0  0  0  0  0  0
   59.2560   34.8960   45.3450 O   0  0  0  0  0  0  0  0  0  0  0  0
   59.9780   34.4820   46.4760 C   0  0  0  0  0  0  0  0  0  0  0  0
   61.2980   33.9930   46.3990 C   0  0  0  0  0  0  0  0  0  0  0  0
   61.9680   33.5900   47.5590 C   0  0  0  0  0  0  0  0  0  0  0  0
   61.3340   33.6750   48.8010 C   0  0  0  0  0  0  0  0  0  0  0  0
   60.0270   34.1620   48.8850 C   0  0  0  0  0  0  0  0  0  0  0  0
   59.3540   34.5650   47.7270 C   0  0  0  0  0  0  0  0  0  0  0  0
   57.0360   31.9370   44.8970 C   0  0  0  0  0  0  0  0  0  0  0  0
   57.6090   30.7010   45.0970 C   0  0  0  0  0  0  0  0  0  0  0  0
   56.9960   29.3780   45.0690 C   0  0  0  0  0  0  0  0  0  0  0  0
   55.7720   29.2380   44.8010 O   0  0  0  0  0  0  0  0  0  0  0  0
   57.8160   26.1050   44.1310 C   0  0  0  0  0  0  0  0  0  0  0  0
   57.3350   24.8040   43.9570 C   0  0  0  0  0  0  0  0  0  0  0  0
   55.6598   22.4198   45.6149 H   0  0  0  0  0  0  0  0  0  0  0  0
   54.9038   22.9509   44.0744 H   0  0  0  0  0  0  0  0  0  0  0  0
   56.5748   22.2919   44.0744 H   0  0  0  0  0  0  0  0  0  0  0  0
   55.1476   24.6721   46.5820 H   0  0  0  0  0  0  0  0  0  0  0  0
   56.0086   26.9884   46.8990 H   0  0  0  0  0  0  0  0  0  0  0  0
   58.9612   28.6365   47.1108 H   0  0  0  0  0  0  0  0  0  0  0  0
   59.7770   27.6125   45.8534 H   0  0  0  0  0  0  0  0  0  0  0  0
   60.6655   30.0229   46.1500 H   0  0  0  0  0  0  0  0  0  0  0  0
   60.2595   29.4865   44.4758 H   0  0  0  0  0  0  0  0  0  0  0  0
   57.9062   34.5576   43.8139 H   0  0  0  0  0  0  0  0  0  0  0  0
   57.2079   34.6728   45.4740 H   0  0  0  0  0  0  0  0  0  0  0  0
   61.8027   33.9281   45.4238 H   0  0  0  0  0  0  0  0  0  0  0  0
   62.9964   33.2053   47.4931 H   0  0  0  0  0  0  0  0  0  0  0  0
   61.8633   33.3588   49.7120 H   0  0  0  0  0  0  0  0  0  0  0  0
   59.5270   34.2285   49.8625 H   0  0  0  0  0  0  0  0  0  0  0  0
   58.3262   34.9503   47.7995 H   0  0  0  0  0  0  0  0  0  0  0  0
   55.9812   32.1766   44.6969 H   0  0  0  0  0  0  0  0  0  0  0  0
   58.5625   26.5095   43.4316 H   0  0  0  0  0  0  0  0  0  0  0  0
   57.6987   24.1934   43.1174 H   0  0  0  0  0  0  0  0  0  0  0  0
  1  2  1  0
  2  3  2  0
  3  4  1  0
  4  5  2  0
  5  6  1  0
  6  7  1  0
  7  8  1  0
  8  9  1  0
  9 10  1  0
 10 11  2  0
 11 12  1  0
 12 13  1  0
 13 14  1  0
 14 15  2  0
 15 16  1  0
 16 17  2  0
 17 18  1  0
 18 19  2  0
 11 20  1  0
 20 21  2  0
 21 22  1  0
 22 23  2  0
  5 24  1  0
 24 25  2  0
 25  2  1  0
 22  6  1  0
 21  9  1  0
 19 14  1  0
  1 26  1  0
  1 27  1  0
  1 28  1  0
  3 29  1  0
  4 30  1  0
  7 31  1  0
  7 32  1  0
  8 33  1  0
  8 34  1  0
 12 35  1  0
 12 36  1  0
 15 37  1  0
 16 38  1  0
 17 39  1  0
 18 40  1  0
 19 41  1  0
 20 42  1  0
 24 43  1  0
 25 44  1  0
M  END
>  <UniqueID>  (24) 
21

>  <SMILES>  (24) 
Cc1ccc(N2CCn3nc(COc4ccccc4)cc3C2=O)cc1

>  <Energy>  (24) 
83.54283776194862

>  <Genealogy>  (24) 
Cc1ccc(N2CCn3nc(COc4ccccc4)cc3C2=O)cc1 (3D coordinates assigned)
Cc1ccc(N2CCn3nc(COc4ccccc4)cc3C2=O)cc1 (nonaromatic ring conformer: 83.54283776194862 kcal/mol)

>  <smiles>  (24) 
Cc1ccc(N2CCn3nc(COc4ccccc4)cc3C2=O)cc1

>  <score_type>  (24) 
oracle

>  <origin>  (24) 
adg

>  <m_score__min__energy>  (24) 
-7.6699999999999999

>  <m_primary>  (24) 
energy

$$$$
24:0
     RDKit          3D

 35 37  0  0  0  0  0  0  0  0999 V2000
   57.0110   24.6730   44.6180 C   0  0  0  0  0  0  0  0  0  0  0  0
   56.4180   25.3570   45.8530 C   0  0  0  0  0  0  0  0  0  0  0  0
   56.6810   24.5290   47.1140 C   0  0  0  0  0  0  0  0  0  0  0  0
   56.9970   26.7420   46.0090 C   0  0  0  0  0  0  0  0  0  0  0  0
   58.0220   26.9920   46.9370 C   0  0  0  0  0  0  0  0  0  0  0  0
   58.5320   28.2860   47.0530 C   0  0  0  0  0  0  0  0  0  0  0  0
   59.4510   28.5320   47.8800 O   0  0  0  0  0  0  0  0  0  0  0  0
   58.0140   29.3010   46.2460 C   0  0  0  0  0  0  0  0  0  0  0  0
   58.4750   30.5450   46.3290 O   0  0  0  0  0  0  0  0  0  0  0  0
   58.0060   31.5450   45.5800 C   0  0  0  0  0  0  0  0  0  0  0  0
   58.5910   32.8990   45.7500 C   0  0  0  0  0  0  0  0  0  0  0  0
   59.0470   33.3030   47.0190 C   0  0  0  0  0  0  0  0  0  0  0  0
   59.5930   34.5760   47.2060 C   0  0  0  0  0  0  0  0  0  0  0  0
   59.6830   35.4640   46.1320 C   0  0  0  0  0  0  0  0  0  0  0  0
   59.2230   35.0830   44.8710 C   0  0  0  0  0  0  0  0  0  0  0  0
   58.6750   33.8100   44.6770 C   0  0  0  0  0  0  0  0  0  0  0  0
   56.9850   31.2890   44.6430 C   0  0  0  0  0  0  0  0  0  0  0  0
   56.4760   29.9940   44.5260 C   0  0  0  0  0  0  0  0  0  0  0  0
   55.5640   29.7460   43.6930 O   0  0  0  0  0  0  0  0  0  0  0  0
   56.9890   28.9810   45.3360 C   0  0  0  0  0  0  0  0  0  0  0  0
   56.5280   27.7350   45.2530 O   0  0  0  0  0  0  0  0  0  0  0  0
   57.7009   23.8772   44.9354 H   0  0  0  0  0  0  0  0  0  0  0  0
   56.2004   24.2369   44.0157 H   0  0  0  0  0  0  0  0  0  0  0  0
   57.5577   25.4135   44.0157 H   0  0  0  0  0  0  0  0  0  0  0  0
   55.3298   25.4375   45.7141 H   0  0  0  0  0  0  0  0  0  0  0  0
   56.4854   25.1447   48.0043 H   0  0  0  0  0  0  0  0  0  0  0  0
   56.0172   23.6519   47.1218 H   0  0  0  0  0  0  0  0  0  0  0  0
   57.7292   24.1957   47.1218 H   0  0  0  0  0  0  0  0  0  0  0  0
   58.4171   26.1789   47.5636 H   0  0  0  0  0  0  0  0  0  0  0  0
   58.9730   32.6109   47.8708 H   0  0  0  0  0  0  0  0  0  0  0  0
   59.9523   34.8788   48.2006 H   0  0  0  0  0  0  0  0  0  0  0  0
   60.1166   36.4640   46.2802 H   0  0  0  0  0  0  0  0  0  0  0  0
   59.2913   35.7852   44.0270 H   0  0  0  0  0  0  0  0  0  0  0  0
   58.3078   33.5185   43.6819 H   0  0  0  0  0  0  0  0  0  0  0  0
   56.5936   32.0999   44.0111 H   0  0  0  0  0  0  0  0  0  0  0  0
  1  2  1  0
  2  3  1  0
  2  4  1  0
  4  5  2  0
  5  6  1  0
  6  7  2  0
  6  8  1  0
  8  9  1  0
  9 10  1  0
 10 11  1  0
 11 12  2  0
 12 13  1  0
 13 14  2  0
 14 15  1  0
 15 16  2  0
 10 17  2  0
 17 18  1  0
 18 19  2  0
 18 20  1  0
 20 21  1  0
 21  4  1  0
 20  8  2  0
 16 11  1  0
  1 22  1  0
  1 23  1  0
  1 24  1  0
  2 25  1  0
  3 26  1  0
  3 27  1  0
  3 28  1  0
  5 29  1  0
 12 30  1  0
 13 31  1  0
 14 32  1  0
 15 33  1  0
 16 34  1  0
 17 35  1  0
M  END
>  <UniqueID>  (25) 
22

>  <SMILES>  (25) 
CC(C)c1cc(=O)c2oc(-c3ccccc3)cc(=O)c2o1

>  <Energy>  (25) 
41.83621893403704

>  <Genealogy>  (25) 
CC(C)c1cc(=O)c2oc(-c3ccccc3)cc(=O)c2o1 (3D coordinates assigned)
CC(C)c1cc(=O)c2oc(-c3ccccc3)cc(=O)c2o1 (optimized conformer: 41.83621893403704 kcal/mol)

>  <smiles>  (25) 
CC(C)c1cc(=O)c2oc(-c3ccccc3)cc(=O)c2o1

>  <score_type>  (25) 
oracle

>  <origin>  (25) 
adg

>  <m_score__min__energy>  (25) 
-6.8300000000000001

>  <m_primary>  (25) 
energy

$$$$
25:0
     RDKit          3D

 26 26  0  0  0  0  0  0  0  0999 V2000
   61.0890   33.8440   46.3570 C   0  0  0  0  0  0  0  0  0  0  0  0
   59.5830   33.7810   46.4260 N   0  0  0  0  0  0  0  0  0  0  0  0
   59.2440   34.5920   47.6100 C   0  0  0  0  0  0  0  0  0  0  0  0
   59.0630   34.3830   45.2190 C   0  0  0  0  0  0  0  0  0  0  0  0
   57.5900   34.2170   45.0740 C   0  0  0  0  0  0  0  0  0  0  0  0
   57.1230   32.9950   45.5610 N   0  0  0  0  0  0  0  0  0  0  0  0
   57.3950   31.7910   45.1200 C   0  0  0  0  0  0  0  0  0  0  0  0
   56.4400   31.0560   44.5000 N   0  0  0  0  0  0  0  0  0  0  0  0
   56.6870   29.8000   44.0350 C   0  0  0  0  0  0  0  0  0  0  0  0
   57.9320   29.2300   44.1840 C   0  0  0  0  0  0  0  0  0  0  0  0
   58.9100   29.9990   44.8280 C   0  0  0  0  0  0  0  0  0  0  0  0
   58.6220   31.2400   45.2720 N   0  0  0  0  0  0  0  0  0  0  0  0
   61.5023   33.8613   47.3762 H   0  0  0  0  0  0  0  0  0  0  0  0
   61.4688   32.9610   45.8222 H   0  0  0  0  0  0  0  0  0  0  0  0
   61.3937   34.7557   45.8222 H   0  0  0  0  0  0  0  0  0  0  0  0
   59.4809   34.0254   48.5226 H   0  0  0  0  0  0  0  0  0  0  0  0
   59.8278   35.5242   47.5953 H   0  0  0  0  0  0  0  0  0  0  0  0
   58.1705   34.8314   47.5953 H   0  0  0  0  0  0  0  0  0  0  0  0
   59.2947   35.4582   45.2356 H   0  0  0  0  0  0  0  0  0  0  0  0
   59.5370   33.8740   44.3668 H   0  0  0  0  0  0  0  0  0  0  0  0
   57.0910   35.0270   45.6263 H   0  0  0  0  0  0  0  0  0  0  0  0
   57.3622   34.2484   43.9983 H   0  0  0  0  0  0  0  0  0  0  0  0
   55.8852   29.2358   43.5361 H   0  0  0  0  0  0  0  0  0  0  0  0
   58.1485   28.2169   43.8141 H   0  0  0  0  0  0  0  0  0  0  0  0
   59.9200   29.5880   44.9727 H   0  0  0  0  0  0  0  0  0  0  0  0
   59.4110   31.7380   45.7340 H   0  0  0  0  0  0  0  0  0  0  0  0
  1  2  1  0
  2  3  1  0
  2  4  1  0
  4  5  1  0
  5  6  1  0
  6  7  2  3
  7  8  1  0
  8  9  2  0
  9 10  1  0
 10 11  2  0
 11 12  1  0
 12  7  1  0
  1 13  1  0
  1 14  1  0
  1 15  1  0
  3 16  1  0
  3 17  1  0
  3 18  1  0
  4 19  1  0
  4 20  1  0
  5 21  1  0
  5 22  1  0
  9 23  1  0
 10 24  1  0
 11 25  1  0
 12 26  1  0
M  END
>  <smiles>  (26) 
CN(C)CCN=c1nccc[nH]1

>  <score_type>  (26) 
oracle

>  <origin>  (26) 
adg

>  <m_score__min__energy>  (26) 
-4.04

>  <m_primary>  (26) 
energy

$$$$
26:0
     RDKit          3D

 37 40  0  0  0  0  0  0  0  0999 V2000
   56.5660   30.4940   44.8740 O   0  0  0  0  0  0  0  0  0  0  0  0
   57.7690   30.6760   45.2100 C   0  0  0  0  0  0  0  0  0  0  0  0
   58.6720   29.5590   45.2530 N   0  0  0  0  0  0  0  0  0  0  0  0
   58.2470   28.1930   45.3960 C   0  0  0  0  0  0  0  0  0  0  0  0
   59.2090   27.1540   45.3660 C   0  0  0  0  0  0  0  0  0  0  0  0
   58.8230   25.8140   45.5280 C   0  0  0  0  0  0  0  0  0  0  0  0
   57.4710   25.5570   45.7290 C   0  0  0  0  0  0  0  0  0  0  0  0
   56.8990   24.3540   45.9130 N   0  0  0  0  0  0  0  0  0  0  0  0
   55.5920   24.6980   46.0710 C   0  0  0  0  0  0  0  0  0  0  0  0
   54.5130   23.7170   46.3090 C   0  0  0  0  0  0  0  0  0  0  0  0
   54.4700   22.9700   47.4960 C   0  0  0  0  0  0  0  0  0  0  0  0
   53.4420   22.0470   47.7060 C   0  0  0  0  0  0  0  0  0  0  0  0
   52.4640   21.8760   46.7270 C   0  0  0  0  0  0  0  0  0  0  0  0
   52.5160   22.6040   45.5800 N   0  0  0  0  0  0  0  0  0  0  0  0
   53.5050   23.5100   45.3500 C   0  0  0  0  0  0  0  0  0  0  0  0
   55.3820   26.0360   45.9880 N   0  0  0  0  0  0  0  0  0  0  0  0
   56.5770   26.5480   45.7720 N   0  0  0  0  0  0  0  0  0  0  0  0
   56.8940   27.8570   45.6220 C   0  0  0  0  0  0  0  0  0  0  0  0
   58.2430   32.0500   45.5040 C   0  0  0  0  0  0  0  0  0  0  0  0
   57.7000   33.1630   44.8320 C   0  0  0  0  0  0  0  0  0  0  0  0
   58.1590   34.4530   45.1130 C   0  0  0  0  0  0  0  0  0  0  0  0
   59.1660   34.6490   46.0620 C   0  0  0  0  0  0  0  0  0  0  0  0
   59.6100   35.9010   46.3310 F   0  0  0  0  0  0  0  0  0  0  0  0
   59.7190   33.5530   46.7280 C   0  0  0  0  0  0  0  0  0  0  0  0
   59.2640   32.2600   46.4500 C   0  0  0  0  0  0  0  0  0  0  0  0
   59.6840   29.7380   45.0620 H   0  0  0  0  0  0  0  0  0  0  0  0
   60.2704   27.3997   45.2141 H   0  0  0  0  0  0  0  0  0  0  0  0
   59.5611   24.9990   45.4972 H   0  0  0  0  0  0  0  0  0  0  0  0
   55.2465   23.1111   48.2622 H   0  0  0  0  0  0  0  0  0  0  0  0
   53.4047   21.4603   48.6358 H   0  0  0  0  0  0  0  0  0  0  0  0
   51.6505   21.1522   46.8827 H   0  0  0  0  0  0  0  0  0  0  0  0
   53.5162   24.0825   44.4108 H   0  0  0  0  0  0  0  0  0  0  0  0
   56.1192   28.6360   45.6748 H   0  0  0  0  0  0  0  0  0  0  0  0
   56.9096   33.0158   44.0813 H   0  0  0  0  0  0  0  0  0  0  0  0
   57.7265   35.3161   44.5858 H   0  0  0  0  0  0  0  0  0  0  0  0
   60.5139   33.7070   47.4726 H   0  0  0  0  0  0  0  0  0  0  0  0
   59.7073   31.4007   46.9745 H   0  0  0  0  0  0  0  0  0  0  0  0
  1  2  2  0
  2  3  1  0
  3  4  1  0
  4  5  1  0
  5  6  2  0
  6  7  1  0
  7  8  2  0
  8  9  1  0
  9 10  1  0
 10 11  2  0
 11 12  1  0
 12 13  2  0
 13 14  1  0
 14 15  2  0
  9 16  2  0
 16 17  1  0
 17 18  1  0
  2 19  1  0
 19 20  2  0
 20 21  1  0
 21 22  2  0
 22 23  1  0
 22 24  1  0
 24 25  2  0
 18  4  2  0
 25 19  1  0
 17  7  1  0
 15 10  1  0
  3 26  1  0
  5 27  1  0
  6 28  1  0
 11 29  1  0
 12 30  1  0
 13 31  1  0
 15 32  1  0
 18 33  1  0
 20 34  1  0
 21 35  1  0
 24 36  1  0
 25 37  1  0
M  END
>  <UniqueID>  (27) 
23

>  <SMILES>  (27) 
O=C(Nc1ccc2nc(-c3cccnc3)nn2c1)c1ccc(F)cc1

>  <Energy>  (27) 
87.07022696168362

>  <Genealogy>  (27) 
O=C(Nc1ccc2nc(-c3cccnc3)nn2c1)c1ccc(F)cc1 (3D coordinates assigned)
O=C(Nc1ccc2nc(-c3cccnc3)nn2c1)c1ccc(F)cc1 (optimized conformer: 87.07022696168362 kcal/mol)

>  <smiles>  (27) 
O=C(Nc1ccc2nc(-c3cccnc3)nn2c1)c1ccc(F)cc1

>  <score_type>  (27) 
oracle

>  <origin>  (27) 
adg

>  <m_score__min__energy>  (27) 
-8.0600000000000005

>  <m_primary>  (27) 
energy

$$$$
27:0
     RDKit          3D

 37 39  0  0  0  0  0  0  0  0999 V2000
   61.5510   29.2980   50.7960 C   0  0  0  0  0  0  0  0  0  0  0  0
   60.5800   28.9940   49.8000 O   0  0  0  0  0  0  0  0  0  0  0  0
   60.0090   29.9390   48.9350 C   0  0  0  0  0  0  0  0  0  0  0  0
   59.3220   31.0740   49.4050 C   0  0  0  0  0  0  0  0  0  0  0  0
   58.7710   31.9870   48.5010 C   0  0  0  0  0  0  0  0  0  0  0  0
   58.8890   31.7820   47.1170 C   0  0  0  0  0  0  0  0  0  0  0  0
   58.3190   32.7280   46.1950 N   0  0  0  0  0  0  0  0  0  0  0  0
   58.5790   34.0490   46.0540 C   0  0  0  0  0  0  0  0  0  0  0  0
   59.7260   34.9930   47.0650 S   0  0  0  0  0  0  0  0  0  0  0  0
   61.2280   34.2160   46.3730 C   0  0  0  0  0  0  0  0  0  0  0  0
   62.0340   33.5650   47.4630 C   0  0  0  0  0  0  0  0  0  0  0  0
   61.7710   33.8660   48.8090 C   0  0  0  0  0  0  0  0  0  0  0  0
   62.5060   33.2470   49.8250 C   0  0  0  0  0  0  0  0  0  0  0  0
   63.5040   32.3220   49.5060 C   0  0  0  0  0  0  0  0  0  0  0  0
   64.2140   31.7230   50.4930 F   0  0  0  0  0  0  0  0  0  0  0  0
   63.7680   32.0150   48.1680 C   0  0  0  0  0  0  0  0  0  0  0  0
   63.0370   32.6320   47.1480 C   0  0  0  0  0  0  0  0  0  0  0  0
   57.9440   34.5750   44.9830 N   0  0  0  0  0  0  0  0  0  0  0  0
   57.2540   33.5850   44.4390 N   0  0  0  0  0  0  0  0  0  0  0  0
   57.4900   32.4800   45.1630 C   0  0  0  0  0  0  0  0  0  0  0  0
   56.9880   31.3530   44.9050 O   0  0  0  0  0  0  0  0  0  0  0  0
   59.5800   30.6520   46.6530 C   0  0  0  0  0  0  0  0  0  0  0  0
   60.1320   29.7400   47.5560 C   0  0  0  0  0  0  0  0  0  0  0  0
   61.1087   29.1595   51.7936 H   0  0  0  0  0  0  0  0  0  0  0  0
   62.4156   28.6275   50.6819 H   0  0  0  0  0  0  0  0  0  0  0  0
   61.8789   30.3418   50.6819 H   0  0  0  0  0  0  0  0  0  0  0  0
   59.2183   31.2432   50.4870 H   0  0  0  0  0  0  0  0  0  0  0  0
   58.2402   32.8739   48.8773 H   0  0  0  0  0  0  0  0  0  0  0  0
   60.9346   33.4543   45.6356 H   0  0  0  0  0  0  0  0  0  0  0  0
   61.8412   34.9926   45.8925 H   0  0  0  0  0  0  0  0  0  0  0  0
   60.9844   34.5910   49.0651 H   0  0  0  0  0  0  0  0  0  0  0  0
   62.2982   33.4887   50.8778 H   0  0  0  0  0  0  0  0  0  0  0  0
   64.5528   31.2862   47.9169 H   0  0  0  0  0  0  0  0  0  0  0  0
   63.2474   32.3866   46.0966 H   0  0  0  0  0  0  0  0  0  0  0  0
   56.6520   33.6710   43.5890 H   0  0  0  0  0  0  0  0  0  0  0  0
   59.6877   30.4833   45.5714 H   0  0  0  0  0  0  0  0  0  0  0  0
   60.6685   28.8569   47.1788 H   0  0  0  0  0  0  0  0  0  0  0  0
  1  2  1  0
  2  3  1  0
  3  4  2  0
  4  5  1  0
  5  6  2  0
  6  7  1  0
  7  8  1  0
  8  9  1  0
  9 10  1  0
 10 11  1  0
 11 12  2  0
 12 13  1  0
 13 14  2  0
 14 15  1  0
 14 16  1  0
 16 17  2  0
  8 18  2  0
 18 19  1  0
 19 20  1  0
 20 21  2  0
  6 22  1  0
 22 23  2  0
 23  3  1  0
 20  7  1  0
 17 11  1  0
  1 24  1  0
  1 25  1  0
  1 26  1  0
  4 27  1  0
  5 28  1  0
 10 29  1  0
 10 30  1  0
 12 31  1  0
 13 32  1  0
 16 33  1  0
 17 34  1  0
 19 35  1  0
 22 36  1  0
 23 37  1  0
M  END
>  <UniqueID>  (28) 
24

>  <SMILES>  (28) 
COc1ccc(-n2c(SCc3ccc(F)cc3)n[nH]c2=O)cc1

>  <Energy>  (28) 
78.00659325673655

>  <Genealogy>  (28) 
COc1ccc(-n2c(SCc3ccc(F)cc3)n[nH]c2=O)cc1 (3D coordinates assigned)
COc1ccc(-n2c(SCc3ccc(F)cc3)n[nH]c2=O)cc1 (optimized conformer: 78.00659325673655 kcal/mol)

>  <smiles>  (28) 
COc1ccc(-n2c(SCc3ccc(F)cc3)n[nH]c2=O)cc1

>  <score_type>  (28) 
oracle

>  <origin>  (28) 
adg

>  <m_score__min__energy>  (28) 
-6.6900000000000004

>  <m_primary>  (28) 
energy

$$$$
28:0
     RDKit          3D

 41 44  0  0  0  0  0  0  0  0999 V2000
   56.2940   30.8450   44.4970 O   0  0  0  0  0  0  0  0  0  0  0  0
   57.4110   30.9100   45.0860 C   0  0  0  0  0  0  0  0  0  0  0  0
   58.0260   32.1490   45.2830 C   0  0  0  0  0  0  0  0  0  0  0  0
   57.3950   33.3250   44.8220 C   0  0  0  0  0  0  0  0  0  0  0  0
   57.9860   34.5680   45.0040 C   0  0  0  0  0  0  0  0  0  0  0  0
   59.2110   34.6620   45.6440 C   0  0  0  0  0  0  0  0  0  0  0  0
   59.8560   33.5160   46.1100 C   0  0  0  0  0  0  0  0  0  0  0  0
   59.2830   32.2200   45.9480 C   0  0  0  0  0  0  0  0  0  0  0  0
   59.8990   31.0550   46.4070 N   0  0  0  0  0  0  0  0  0  0  0  0
   61.2060   31.1020   47.1260 C   0  0  0  0  0  0  0  0  0  0  0  0
   61.0230   31.3060   48.5890 N   0  0  0  0  0  0  0  0  0  0  0  0
   59.5830   31.3200   48.9530 C   0  0  0  0  0  0  0  0  0  0  0  0
   59.3470   31.8690   50.3610 C   0  0  0  0  0  0  0  0  0  0  0  0
   59.6450   33.6750   50.4330 S   0  0  0  0  0  0  0  0  0  0  0  0
   60.9090   33.7740   49.1100 C   0  0  0  0  0  0  0  0  0  0  0  0
   61.7690   32.5070   49.0630 C   0  0  0  0  0  0  0  0  0  0  0  0
   59.2850   29.8210   46.2030 C   0  0  0  0  0  0  0  0  0  0  0  0
   59.8660   28.5950   46.6400 C   0  0  0  0  0  0  0  0  0  0  0  0
   59.2330   27.3710   46.4260 C   0  0  0  0  0  0  0  0  0  0  0  0
   58.0100   27.3190   45.7730 C   0  0  0  0  0  0  0  0  0  0  0  0
   57.4090   28.4920   45.3320 C   0  0  0  0  0  0  0  0  0  0  0  0
   58.0310   29.7430   45.5370 C   0  0  0  0  0  0  0  0  0  0  0  0
   56.4228   33.2554   44.3122 H   0  0  0  0  0  0  0  0  0  0  0  0
   57.4827   35.4762   44.6408 H   0  0  0  0  0  0  0  0  0  0  0  0
   59.6786   35.6475   45.7858 H   0  0  0  0  0  0  0  0  0  0  0  0
   60.8288   33.6143   46.6139 H   0  0  0  0  0  0  0  0  0  0  0  0
   61.7372   30.1528   46.9622 H   0  0  0  0  0  0  0  0  0  0  0  0
   61.7839   31.9506   46.7313 H   0  0  0  0  0  0  0  0  0  0  0  0
   61.4410   30.4850   49.0850 H   0  0  0  0  0  0  0  0  0  0  0  0
   59.0417   31.9502   48.2320 H   0  0  0  0  0  0  0  0  0  0  0  0
   59.2194   30.2821   48.9305 H   0  0  0  0  0  0  0  0  0  0  0  0
   58.3065   31.6660   50.6545 H   0  0  0  0  0  0  0  0  0  0  0  0
   60.0499   31.3746   51.0476 H   0  0  0  0  0  0  0  0  0  0  0  0
   60.4038   33.8999   48.1410 H   0  0  0  0  0  0  0  0  0  0  0  0
   61.5657   34.6306   49.3219 H   0  0  0  0  0  0  0  0  0  0  0  0
   62.6148   32.6840   48.3823 H   0  0  0  0  0  0  0  0  0  0  0  0
   62.1012   32.2999   50.0910 H   0  0  0  0  0  0  0  0  0  0  0  0
   60.8362   28.6148   47.1581 H   0  0  0  0  0  0  0  0  0  0  0  0
   59.7058   26.4418   46.7768 H   0  0  0  0  0  0  0  0  0  0  0  0
   57.5165   26.3504   45.6045 H   0  0  0  0  0  0  0  0  0  0  0  0
   56.4379   28.4453   44.8175 H   0  0  0  0  0  0  0  0  0  0  0  0
  1  2  2  0
  2  3  1  0
  3  4  2  0
  4  5  1  0
  5  6  2  0
  6  7  1  0
  7  8  2  0
  8  9  1  0
  9 10  1  0
 10 11  1  0
 11 12  1  0
 12 13  1  0
 13 14  1  0
 14 15  1  0
 15 16  1  0
  9 17  1  0
 17 18  2  0
 18 19  1  0
 19 20  2  0
 20 21  1  0
 21 22  2  0
 22  2  1  0
  8  3  1  0
 16 11  1  0
 22 17  1  0
  4 23  1  0
  5 24  1  0
  6 25  1  0
  7 26  1  0
 10 27  1  0
 10 28  1  0
 11 29  1  0
 12 30  1  0
 12 31  1  0
 13 32  1  0
 13 33  1  0
 15 34  1  0
 15 35  1  0
 16 36  1  0
 16 37  1  0
 18 38  1  0
 19 39  1  0
 20 40  1  0
 21 41  1  0
M  CHG  1  11   1
M  END
>  <UniqueID>  (29) 
25

>  <SMILES>  (29) 
O=c1c2ccccc2n(C[NH+]2CCSCC2)c2ccccc12

>  <Energy>  (29) 
76.37430868556638

>  <Genealogy>  (29) 
O=c1c2ccccc2n(C[NH+]2CCSCC2)c2ccccc12 (protonated)
O=c1c2ccccc2n(C[NH+]2CCSCC2)c2ccccc12 (3D coordinates assigned)
O=c1c2ccccc2n(C[NH+]2CCSCC2)c2ccccc12 (nonaromatic ring conformer: 76.37430868556638 kcal/mol)

>  <smiles>  (29) 
O=c1c2ccccc2n(CN2CCSCC2)c2ccccc12

>  <score_type>  (29) 
oracle

>  <origin>  (29) 
adg

>  <m_score__min__energy>  (29) 
-6.1799999999999997

>  <m_primary>  (29) 
energy

$$$$
29:0
     RDKit          3D

 51 54  0  0  1  0  0  0  0  0999 V2000
   57.7370   31.9690   41.9010 C   0  0  0  0  0  0  0  0  0  0  0  0
   58.3030   31.5380   43.1370 N   0  0  0  0  0  0  0  0  0  0  0  0
   58.1750   32.7150   44.3850 S   0  0  0  0  0  0  0  0  0  0  0  0
   58.8350   34.0010   44.0230 O   0  0  0  0  0  0  0  0  0  0  0  0
   56.6910   33.0190   44.5300 O   0  0  0  0  0  0  0  0  0  0  0  0
   58.6970   32.0740   45.9230 C   0  0  0  0  0  0  0  0  0  0  0  0
   59.5110   32.7670   46.7960 C   0  0  0  0  0  0  0  0  0  0  0  0
   59.8790   32.1840   48.0000 C   0  0  0  0  0  0  0  0  0  0  0  0
   59.4350   30.9140   48.3260 C   0  0  0  0  0  0  0  0  0  0  0  0
   58.6180   30.1970   47.4710 C   0  0  0  0  0  0  0  0  0  0  0  0
   58.2410   30.7820   46.2490 C   0  0  0  0  0  0  0  0  0  0  0  0
   57.3870   30.0910   45.4010 N   0  0  0  0  0  0  0  0  0  0  0  0
   57.2610   28.8290   45.3540 C   0  0  0  0  0  0  0  0  0  0  0  0
   56.0730   28.1780   45.2820 N   0  0  0  0  0  0  0  0  0  0  0  0
   56.2920   26.8690   45.2640 N   0  0  0  0  0  0  0  0  0  0  0  0
   57.6130   26.6710   45.3220 C   0  0  0  0  0  0  0  0  0  0  0  0
   58.2760   27.9170   45.3800 C   0  0  0  0  0  0  0  0  0  0  0  0
   59.7130   28.0840   45.4410 C   0  0  0  0  0  0  0  0  0  0  0  0
   60.1740   27.3740   46.7080 C   0  0  0  0  0  0  0  0  0  0  0  0
   60.5080   25.9390   46.5210 C   0  0  0  0  0  0  0  0  0  0  0  0
   59.4930   25.1000   45.8780 C   0  0  0  0  0  0  0  0  0  0  0  0
   59.9440   23.7910   45.8290 C   0  0  0  0  0  0  0  0  0  0  0  0
   59.1440   22.8060   45.2590 C   0  0  0  0  0  0  0  0  0  0  0  0
   59.6400   21.5110   45.2330 O   0  0  0  0  0  0  0  0  0  0  0  0
   57.8970   23.0900   44.7330 C   0  0  0  0  0  0  0  0  0  0  0  0
   57.1660   22.0470   44.1840 O   0  0  0  0  0  0  0  0  0  0  0  0
   57.4660   21.5310   42.9190 C   0  0  0  0  0  0  0  0  0  0  0  0
   57.4420   24.3760   44.7750 C   0  0  0  0  0  0  0  0  0  0  0  0
   58.2440   25.3360   45.3420 C   0  0  0  0  0  0  0  0  0  0  0  0
   56.8764   32.6244   42.1006 H   0  0  0  0  0  0  0  0  0  0  0  0
   58.4932   32.5221   41.3245 H   0  0  0  0  0  0  0  0  0  0  0  0
   57.4049   31.0930   41.3245 H   0  0  0  0  0  0  0  0  0  0  0  0
   58.0470   30.5800   43.4290 H   0  0  0  0  0  0  0  0  0  0  0  0
   59.8660   33.7758   46.5386 H   0  0  0  0  0  0  0  0  0  0  0  0
   60.5267   32.7336   48.6989 H   0  0  0  0  0  0  0  0  0  0  0  0
   59.7380   30.4663   49.2840 H   0  0  0  0  0  0  0  0  0  0  0  0
   58.2700   29.1892   47.7414 H   0  0  0  0  0  0  0  0  0  0  0  0
   55.1280   28.6330   45.2460 H   0  0  0  0  0  0  0  0  0  0  0  0
   55.5510   26.1400   45.2160 H   0  0  0  0  0  0  0  0  0  0  0  0
   60.1866   27.6315   44.5573 H   0  0  0  0  0  0  0  0  0  0  0  0
   59.9910   29.1482   45.4560 H   0  0  0  0  0  0  0  0  0  0  0  0
   61.0699   27.8894   47.0844 H   0  0  0  0  0  0  0  0  0  0  0  0
   59.3301   27.4103   47.4126 H   0  0  0  0  0  0  0  0  0  0  0  0
   61.4193   25.8873   45.9072 H   0  0  0  0  0  0  0  0  0  0  0  0
   60.6120   25.5340   47.5384 H   0  0  0  0  0  0  0  0  0  0  0  0
   60.9311   23.5315   46.2393 H   0  0  0  0  0  0  0  0  0  0  0  0
   59.1170   20.7290   44.8620 H   0  0  0  0  0  0  0  0  0  0  0  0
   58.0161   20.5849   43.0299 H   0  0  0  0  0  0  0  0  0  0  0  0
   56.5325   21.3497   42.3661 H   0  0  0  0  0  0  0  0  0  0  0  0
   58.0854   22.2526   42.3661 H   0  0  0  0  0  0  0  0  0  0  0  0
   56.4557   24.6376   44.3642 H   0  0  0  0  0  0  0  0  0  0  0  0
  1  2  1  0
  2  3  1  0
  3  4  2  0
  3  5  2  0
  3  6  1  0
  6  7  2  0
  7  8  1  0
  8  9  2  0
  9 10  1  0
 10 11  2  0
 11 12  1  0
 12 13  2  0
 13 14  1  0
 14 15  1  0
 15 16  1  0
 16 17  2  0
 17 18  1  0
 18 19  1  0
 19 20  1  0
 20 21  1  0
 21 22  2  0
 22 23  1  0
 23 24  1  0
 23 25  2  0
 25 26  1  0
 26 27  1  0
 25 28  1  0
 28 29  2  0
 11  6  1  0
 17 13  1  0
 29 21  1  0
 29 16  1  0
  1 30  1  0
  1 31  1  0
  1 32  1  0
  2 33  1  0
  7 34  1  0
  8 35  1  0
  9 36  1  0
 10 37  1  0
 14 38  1  0
 15 39  1  0
 18 40  1  0
 18 41  1  0
 19 42  1  0
 19 43  1  0
 20 44  1  0
 20 45  1  0
 22 46  1  0
 24 47  1  0
 27 48  1  0
 27 49  1  0
 27 50  1  0
 28 51  1  0
M  END
>  <smiles>  (30) 
CNS(=O)(=O)c1ccccc1N=c1[nH][nH]c2c1CCCc1cc(O)c(OC)cc1-2

>  <score_type>  (30) 
oracle

>  <origin>  (30) 
adg

>  <m_score__min__energy>  (30) 
-7.3499999999999996

>  <m_primary>  (30) 
energy

$$$$
30:0
     RDKit          3D

 33 34  0  0  0  0  0  0  0  0999 V2000
   57.4910   22.8530   44.4830 C   0  0  0  0  0  0  0  0  0  0  0  0
   57.2050   23.9380   45.3610 O   0  0  0  0  0  0  0  0  0  0  0  0
   57.4620   25.2840   45.0670 C   0  0  0  0  0  0  0  0  0  0  0  0
   57.4120   26.2940   46.0460 C   0  0  0  0  0  0  0  0  0  0  0  0
   57.6780   27.6240   45.7020 C   0  0  0  0  0  0  0  0  0  0  0  0
   58.0120   27.9650   44.3830 C   0  0  0  0  0  0  0  0  0  0  0  0
   58.2580   29.3420   44.0510 N   0  0  0  0  0  0  0  0  0  0  0  0
   57.4560   30.4350   44.5250 C   0  0  0  0  0  0  0  0  0  0  0  0
   56.2600   30.2340   44.8690 O   0  0  0  0  0  0  0  0  0  0  0  0
   57.9940   31.8110   44.5470 C   0  0  0  0  0  0  0  0  0  0  0  0
   58.4730   32.4770   45.6610 C   0  0  0  0  0  0  0  0  0  0  0  0
   58.5160   31.9150   47.3250 Cl  0  0  0  0  0  0  0  0  0  0  0  0
   58.8640   33.7150   45.1910 C   0  0  0  0  0  0  0  0  0  0  0  0
   59.4030   34.8410   46.0110 C   0  0  0  0  0  0  0  0  0  0  0  0
   58.6380   33.7920   43.8660 N   0  0  0  0  0  0  0  0  0  0  0  0
   58.1240   32.6340   43.4780 N   0  0  0  0  0  0  0  0  0  0  0  0
   57.7870   32.3480   42.0870 C   0  0  0  0  0  0  0  0  0  0  0  0
   58.0420   26.9580   43.4030 C   0  0  0  0  0  0  0  0  0  0  0  0
   57.7750   25.6300   43.7470 C   0  0  0  0  0  0  0  0  0  0  0  0
   57.7275   21.9558   45.0738 H   0  0  0  0  0  0  0  0  0  0  0  0
   56.6147   22.6538   43.8487 H   0  0  0  0  0  0  0  0  0  0  0  0
   58.3516   23.1117   43.8487 H   0  0  0  0  0  0  0  0  0  0  0  0
   57.1627   26.0367   47.0860 H   0  0  0  0  0  0  0  0  0  0  0  0
   57.6248   28.4080   46.4717 H   0  0  0  0  0  0  0  0  0  0  0  0
   58.9960   29.5540   43.3430 H   0  0  0  0  0  0  0  0  0  0  0  0
   59.2895   34.6039   47.0791 H   0  0  0  0  0  0  0  0  0  0  0  0
   60.4684   34.9864   45.7789 H   0  0  0  0  0  0  0  0  0  0  0  0
   58.8481   35.7620   45.7789 H   0  0  0  0  0  0  0  0  0  0  0  0
   56.9487   31.6366   42.0516 H   0  0  0  0  0  0  0  0  0  0  0  0
   57.4980   33.2807   41.5805 H   0  0  0  0  0  0  0  0  0  0  0  0
   58.6603   31.9111   41.5805 H   0  0  0  0  0  0  0  0  0  0  0  0
   58.2768   27.2164   42.3599 H   0  0  0  0  0  0  0  0  0  0  0  0
   57.8111   24.8491   42.9732 H   0  0  0  0  0  0  0  0  0  0  0  0
  1  2  1  0
  2  3  1  0
  3  4  2  0
  4  5  1  0
  5  6  2  0
  6  7  1  0
  7  8  1  0
  8  9  2  0
  8 10  1  0
 10 11  2  0
 11 12  1  0
 11 13  1  0
 13 14  1  0
 13 15  2  0
 15 16  1  0
 16 17  1  0
  6 18  1  0
 18 19  2  0
 19  3  1  0
 16 10  1  0
  1 20  1  0
  1 21  1  0
  1 22  1  0
  4 23  1  0
  5 24  1  0
  7 25  1  0
 14 26  1  0
 14 27  1  0
 14 28  1  0
 17 29  1  0
 17 30  1  0
 17 31  1  0
 18 32  1  0
 19 33  1  0
M  END
>  <UniqueID>  (31) 
26

>  <SMILES>  (31) 
COc1ccc(NC(=O)c2c(Cl)c(C)nn2C)cc1

>  <Energy>  (31) 
67.85942949694268

>  <Genealogy>  (31) 
COc1ccc(NC(=O)c2c(Cl)c(C)nn2C)cc1 (3D coordinates assigned)
COc1ccc(NC(=O)c2c(Cl)c(C)nn2C)cc1 (optimized conformer: 67.85942949694268 kcal/mol)

>  <smiles>  (31) 
COc1ccc(NC(=O)c2c(Cl)c(C)nn2C)cc1

>  <score_type>  (31) 
oracle

>  <origin>  (31) 
adg

>  <m_score__min__energy>  (31) 
-6.71

>  <m_primary>  (31) 
energy

$$$$
31:0
     RDKit          3D

 23 23  0  0  0  0  0  0  0  0999 V2000
   58.6800   34.3020   46.4110 C   0  0  0  0  0  0  0  0  0  0  0  0
   57.4990   33.5960   46.0490 O   0  0  0  0  0  0  0  0  0  0  0  0
   57.4740   32.6360   45.0320 C   0  0  0  0  0  0  0  0  0  0  0  0
   57.8900   32.9850   43.7480 C   0  0  0  0  0  0  0  0  0  0  0  0
   57.8590   32.0080   42.7380 C   0  0  0  0  0  0  0  0  0  0  0  0
   58.2610   32.2830   41.4210 O   0  0  0  0  0  0  0  0  0  0  0  0
   57.3820   32.6990   40.3810 C   0  0  0  0  0  0  0  0  0  0  0  0
   57.4240   30.7540   43.0400 N   0  0  0  0  0  0  0  0  0  0  0  0
   57.0210   30.4290   44.2990 C   0  0  0  0  0  0  0  0  0  0  0  0
   56.5820   29.1280   44.5670 O   0  0  0  0  0  0  0  0  0  0  0  0
   57.4740   28.0320   44.7240 C   0  0  0  0  0  0  0  0  0  0  0  0
   57.0490   31.3690   45.2800 N   0  0  0  0  0  0  0  0  0  0  0  0
   58.7579   34.3485   47.5073 H   0  0  0  0  0  0  0  0  0  0  0  0
   59.5585   33.7807   46.0028 H   0  0  0  0  0  0  0  0  0  0  0  0
   58.6368   35.3225   46.0028 H   0  0  0  0  0  0  0  0  0  0  0  0
   58.2361   34.0060   43.5294 H   0  0  0  0  0  0  0  0  0  0  0  0
   56.4709   33.1302   40.8215 H   0  0  0  0  0  0  0  0  0  0  0  0
   57.8822   33.4559   39.7590 H   0  0  0  0  0  0  0  0  0  0  0  0
   57.1138   31.8323   39.7590 H   0  0  0  0  0  0  0  0  0  0  0  0
   57.4000   30.0260   42.2910 H   0  0  0  0  0  0  0  0  0  0  0  0
   57.6317   27.8382   45.7952 H   0  0  0  0  0  0  0  0  0  0  0  0
   57.0436   27.1380   44.2491 H   0  0  0  0  0  0  0  0  0  0  0  0
   58.4368   28.2719   44.2491 H   0  0  0  0  0  0  0  0  0  0  0  0
  1  2  1  0
  2  3  1  0
  3  4  2  0
  4  5  1  0
  5  6  1  0
  6  7  1  0
  5  8  2  0
  8  9  1  0
  9 10  1  0
 10 11  1  0
  9 12  2  0
 12  3  1  0
  1 13  1  0
  1 14  1  0
  1 15  1  0
  4 16  1  0
  7 17  1  0
  7 18  1  0
  7 19  1  0
  8 20  1  0
 11 21  1  0
 11 22  1  0
 11 23  1  0
M  CHG  1   8   1
M  END
>  <UniqueID>  (32) 
27

>  <SMILES>  (32) 
COc1cc(OC)[nH+]c(OC)n1

>  <Energy>  (32) 
16.32373636135132

>  <Genealogy>  (32) 
COc1cc(OC)[nH+]c(OC)n1 (protonated)
COc1cc(OC)[nH+]c(OC)n1 (3D coordinates assigned)
COc1cc(OC)[nH+]c(OC)n1 (optimized conformer: 16.32373636135132 kcal/mol)

>  <smiles>  (32) 
COc1cc(OC)nc(OC)n1

>  <score_type>  (32) 
oracle

>  <origin>  (32) 
adg

>  <m_score__min__energy>  (32) 
-2.4700000000000002

>  <m_primary>  (32) 
energy

$$$$
32:0
     RDKit          3D

 33 33  0  0  0  0  0  0  0  0999 V2000
   58.1740   34.2090   46.1940 C   0  0  0  0  0  0  0  0  0  0  0  0
   57.0270   33.7010   45.3250 C   0  0  0  0  0  0  0  0  0  0  0  0
   57.3070   32.3230   44.8620 N   0  0  0  0  0  0  0  0  0  0  0  0
   58.1590   32.3240   43.6500 C   0  0  0  0  0  0  0  0  0  0  0  0
   57.3970   31.7330   42.4680 C   0  0  0  0  0  0  0  0  0  0  0  0
   57.9210   31.5170   45.9410 C   0  0  0  0  0  0  0  0  0  0  0  0
   58.2970   30.1510   45.4190 C   0  0  0  0  0  0  0  0  0  0  0  0
   59.6480   29.7660   45.4450 C   0  0  0  0  0  0  0  0  0  0  0  0
   60.0360   28.5070   44.9850 C   0  0  0  0  0  0  0  0  0  0  0  0
   59.0800   27.6180   44.4960 C   0  0  0  0  0  0  0  0  0  0  0  0
   57.7330   27.9830   44.4650 C   0  0  0  0  0  0  0  0  0  0  0  0
   57.3250   29.2510   44.9260 C   0  0  0  0  0  0  0  0  0  0  0  0
   55.9750   29.6420   44.9110 O   0  0  0  0  0  0  0  0  0  0  0  0
   55.1670   29.7150   43.7410 C   0  0  0  0  0  0  0  0  0  0  0  0
   57.9096   34.0919   47.2553 H   0  0  0  0  0  0  0  0  0  0  0  0
   59.0833   33.6294   45.9765 H   0  0  0  0  0  0  0  0  0  0  0  0
   58.3559   35.2718   45.9765 H   0  0  0  0  0  0  0  0  0  0  0  0
   56.0970   33.7049   45.9124 H   0  0  0  0  0  0  0  0  0  0  0  0
   56.9215   34.3589   44.4498 H   0  0  0  0  0  0  0  0  0  0  0  0
   58.4520   33.3574   43.4130 H   0  0  0  0  0  0  0  0  0  0  0  0
   59.0539   31.7135   43.8407 H   0  0  0  0  0  0  0  0  0  0  0  0
   56.5789   31.0985   42.8395 H   0  0  0  0  0  0  0  0  0  0  0  0
   56.9809   32.5469   41.8561 H   0  0  0  0  0  0  0  0  0  0  0  0
   58.0818   31.1275   41.8561 H   0  0  0  0  0  0  0  0  0  0  0  0
   58.8238   32.0275   46.3076 H   0  0  0  0  0  0  0  0  0  0  0  0
   57.1968   31.4021   46.7609 H   0  0  0  0  0  0  0  0  0  0  0  0
   60.4063   30.4630   45.8313 H   0  0  0  0  0  0  0  0  0  0  0  0
   61.0965   28.2159   45.0083 H   0  0  0  0  0  0  0  0  0  0  0  0
   59.3880   26.6261   44.1336 H   0  0  0  0  0  0  0  0  0  0  0  0
   56.9845   27.2759   44.0780 H   0  0  0  0  0  0  0  0  0  0  0  0
   54.1101   29.8105   44.0306 H   0  0  0  0  0  0  0  0  0  0  0  0
   55.4641   30.5900   43.1442 H   0  0  0  0  0  0  0  0  0  0  0  0
   55.3025   28.8010   43.1442 H   0  0  0  0  0  0  0  0  0  0  0  0
  1  2  1  0
  2  3  1  0
  3  4  1  0
  4  5  1  0
  3  6  1  0
  6  7  1  0
  7  8  2  0
  8  9  1  0
  9 10  2  0
 10 11  1  0
 11 12  2  0
 12 13  1  0
 13 14  1  0
 12  7  1  0
  1 15  1  0
  1 16  1  0
  1 17  1  0
  2 18  1  0
  2 19  1  0
  4 20  1  0
  4 21  1  0
  5 22  1  0
  5 23  1  0
  5 24  1  0
  6 25  1  0
  6 26  1  0
  8 27  1  0
  9 28  1  0
 10 29  1  0
 11 30  1  0
 14 31  1  0
 14 32  1  0
 14 33  1  0
M  END
>  <UniqueID>  (33) 
28

>  <SMILES>  (33) 
CCN(CC)Cc1ccccc1OC

>  <Energy>  (33) 
28.690866951604956

>  <Genealogy>  (33) 
CCN(CC)Cc1ccccc1OC (3D coordinates assigned)
CCN(CC)Cc1ccccc1OC (optimized conformer: 28.690866951604956 kcal/mol)

>  <smiles>  (33) 
CCN(CC)Cc1ccccc1OC

>  <score_type>  (33) 
oracle

>  <origin>  (33) 
adg

>  <m_score__min__energy>  (33) 
-5.0700000000000003

>  <m_primary>  (33) 
energy

$$$$
33:0
     RDKit          3D

 26 28  0  0  0  0  0  0  0  0999 V2000
   59.7220   34.5880   45.8820 C   0  0  0  0  0  0  0  0  0  0  0  0
   59.0340   33.5390   45.0750 C   0  0  0  0  0  0  0  0  0  0  0  0
   58.8230   33.7000   43.7390 N   0  0  0  0  0  0  0  0  0  0  0  0
   58.0940   32.2880   43.2610 S   0  0  0  0  0  0  0  0  0  0  0  0
   58.0780   31.5160   44.7390 C   0  0  0  0  0  0  0  0  0  0  0  0
   57.5600   30.1610   45.0660 C   0  0  0  0  0  0  0  0  0  0  0  0
   58.4360   29.2040   45.6010 C   0  0  0  0  0  0  0  0  0  0  0  0
   57.9680   27.9250   45.9150 C   0  0  0  0  0  0  0  0  0  0  0  0
   58.8200   26.9480   46.4500 C   0  0  0  0  0  0  0  0  0  0  0  0
   58.3200   25.6790   46.7530 C   0  0  0  0  0  0  0  0  0  0  0  0
   56.9730   25.3810   46.5250 C   0  0  0  0  0  0  0  0  0  0  0  0
   56.1140   26.3480   45.9920 C   0  0  0  0  0  0  0  0  0  0  0  0
   54.7760   26.0210   45.7760 O   0  0  0  0  0  0  0  0  0  0  0  0
   56.6100   27.6280   45.6840 C   0  0  0  0  0  0  0  0  0  0  0  0
   55.8040   28.5560   45.1770 O   0  0  0  0  0  0  0  0  0  0  0  0
   56.2130   29.7830   44.8670 C   0  0  0  0  0  0  0  0  0  0  0  0
   55.3750   30.5930   44.3920 O   0  0  0  0  0  0  0  0  0  0  0  0
   58.6460   32.3520   45.6370 N   0  0  0  0  0  0  0  0  0  0  0  0
   59.5834   34.3767   46.9526 H   0  0  0  0  0  0  0  0  0  0  0  0
   60.7960   34.5879   45.6443 H   0  0  0  0  0  0  0  0  0  0  0  0
   59.2940   35.5730   45.6443 H   0  0  0  0  0  0  0  0  0  0  0  0
   59.4917   29.4607   45.7733 H   0  0  0  0  0  0  0  0  0  0  0  0
   59.8799   27.1803   46.6308 H   0  0  0  0  0  0  0  0  0  0  0  0
   58.9880   24.9121   47.1721 H   0  0  0  0  0  0  0  0  0  0  0  0
   56.5863   24.3799   46.7663 H   0  0  0  0  0  0  0  0  0  0  0  0
   54.0380   26.3430   46.3910 H   0  0  0  0  0  0  0  0  0  0  0  0
  1  2  1  0
  2  3  2  0
  3  4  1  0
  4  5  1  0
  5  6  1  0
  6  7  2  0
  7  8  1  0
  8  9  2  0
  9 10  1  0
 10 11  2  0
 11 12  1  0
 12 13  1  0
 12 14  2  0
 14 15  1  0
 15 16  1  0
 16 17  2  0
  5 18  2  0
 18  2  1  0
 16  6  1  0
 14  8  1  0
  1 19  1  0
  1 20  1  0
  1 21  1  0
  7 22  1  0
  9 23  1  0
 10 24  1  0
 11 25  1  0
 13 26  1  0
M  END
>  <UniqueID>  (34) 
29

>  <SMILES>  (34) 
Cc1nsc(-c2cc3cccc(O)c3oc2=O)n1

>  <Energy>  (34) 
70.8563393851357

>  <Genealogy>  (34) 
Cc1nsc(-c2cc3cccc(O)c3oc2=O)n1 (3D coordinates assigned)
Cc1nsc(-c2cc3cccc(O)c3oc2=O)n1 (optimized conformer: 70.8563393851357 kcal/mol)

>  <smiles>  (34) 
Cc1nsc(-c2cc3cccc(O)c3oc2=O)n1

>  <score_type>  (34) 
oracle

>  <origin>  (34) 
adg

>  <m_score__min__energy>  (34) 
-8.5700000000000003

>  <m_primary>  (34) 
energy

$$$$
34:0
     RDKit          3D

 36 37  0  0  0  0  0  0  0  0999 V2000
   60.4120   29.1950   48.5290 C   0  0  0  0  0  0  0  0  0  0  0  0
   58.8990   29.3780   48.5600 C   0  0  0  0  0  0  0  0  0  0  0  0
   58.4740   30.4000   47.6040 N   0  0  0  0  0  0  0  0  0  0  0  0
   58.9780   31.7390   47.6660 C   0  0  0  0  0  0  0  0  0  0  0  0
   59.8420   32.0550   48.5280 O   0  0  0  0  0  0  0  0  0  0  0  0
   58.4560   32.7770   46.7270 C   0  0  0  0  0  0  0  0  0  0  0  0
   57.3360   32.2440   46.0290 O   0  0  0  0  0  0  0  0  0  0  0  0
   57.3230   31.9010   44.6690 C   0  0  0  0  0  0  0  0  0  0  0  0
   57.8400   32.7630   43.6800 C   0  0  0  0  0  0  0  0  0  0  0  0
   57.7500   32.4230   42.3290 C   0  0  0  0  0  0  0  0  0  0  0  0
   57.1400   31.2270   41.9470 C   0  0  0  0  0  0  0  0  0  0  0  0
   56.6340   30.3600   42.9170 C   0  0  0  0  0  0  0  0  0  0  0  0
   56.7470   30.6730   44.2780 C   0  0  0  0  0  0  0  0  0  0  0  0
   56.2140   29.7520   45.2400 N   0  0  0  0  0  0  0  0  0  0  0  0
   56.6800   28.4120   45.4360 C   0  0  0  0  0  0  0  0  0  0  0  0
   55.8580   27.4730   45.6220 O   0  0  0  0  0  0  0  0  0  0  0  0
   58.1210   28.1340   45.4580 C   0  0  0  0  0  0  0  0  0  0  0  0
   59.1050   28.8690   44.8100 C   0  0  0  0  0  0  0  0  0  0  0  0
   60.3970   28.3750   45.0280 C   0  0  0  0  0  0  0  0  0  0  0  0
   60.4350   27.2540   45.8470 C   0  0  0  0  0  0  0  0  0  0  0  0
   58.8600   26.8780   46.3000 S   0  0  0  0  0  0  0  0  0  0  0  0
   60.7969   29.1484   49.5584 H   0  0  0  0  0  0  0  0  0  0  0  0
   60.6576   28.2606   48.0031 H   0  0  0  0  0  0  0  0  0  0  0  0
   60.8733   30.0439   48.0031 H   0  0  0  0  0  0  0  0  0  0  0  0
   58.4161   28.4234   48.3042 H   0  0  0  0  0  0  0  0  0  0  0  0
   58.6060   29.7002   49.5701 H   0  0  0  0  0  0  0  0  0  0  0  0
   57.7760   30.1630   46.8610 H   0  0  0  0  0  0  0  0  0  0  0  0
   58.1480   33.6674   47.2947 H   0  0  0  0  0  0  0  0  0  0  0  0
   59.2412   33.0614   46.0110 H   0  0  0  0  0  0  0  0  0  0  0  0
   58.3172   33.7092   43.9749 H   0  0  0  0  0  0  0  0  0  0  0  0
   58.1605   33.0987   41.5642 H   0  0  0  0  0  0  0  0  0  0  0  0
   57.0580   30.9676   40.8812 H   0  0  0  0  0  0  0  0  0  0  0  0
   56.1431   29.4245   42.6107 H   0  0  0  0  0  0  0  0  0  0  0  0
   58.8910   29.7507   44.1880 H   0  0  0  0  0  0  0  0  0  0  0  0
   61.2974   28.8319   44.5915 H   0  0  0  0  0  0  0  0  0  0  0  0
   61.3402   26.7061   46.1477 H   0  0  0  0  0  0  0  0  0  0  0  0
  1  2  1  0
  2  3  1  0
  3  4  1  0
  4  5  2  0
  4  6  1  0
  6  7  1  0
  7  8  1  0
  8  9  2  0
  9 10  1  0
 10 11  2  0
 11 12  1  0
 12 13  2  0
 13 14  1  0
 14 15  1  0
 15 16  2  0
 15 17  1  0
 17 18  2  0
 18 19  1  0
 19 20  2  0
 20 21  1  0
 13  8  1  0
 21 17  1  0
  1 22  1  0
  1 23  1  0
  1 24  1  0
  2 25  1  0
  2 26  1  0
  3 27  1  0
  6 28  1  0
  6 29  1  0
  9 30  1  0
 10 31  1  0
 11 32  1  0
 12 33  1  0
 18 34  1  0
 19 35  1  0
 20 36  1  0
M  CHG  1  14  -1
M  END
>  <UniqueID>  (35) 
30

>  <SMILES>  (35) 
CCNC(=O)COc1ccccc1[N-]C(=O)c1cccs1

>  <Energy>  (35) 
58.06919180192134

>  <Genealogy>  (35) 
CCNC(=O)COc1ccccc1[N-]C(=O)c1cccs1 (protonated)
CCNC(=O)COc1ccccc1[N-]C(=O)c1cccs1 (3D coordinates assigned)
CCNC(=O)COc1ccccc1[N-]C(=O)c1cccs1 (optimized conformer: 58.06919180192134 kcal/mol)

>  <smiles>  (35) 
CCNC(=O)COc1ccccc1NC(=O)c1cccs1

>  <score_type>  (35) 
oracle

>  <origin>  (35) 
adg

>  <m_score__min__energy>  (35) 
-9.2300000000000004

>  <m_primary>  (35) 
energy

$$$$
35:0
     RDKit          3D

 70 74  0  0  0  0  0  0  0  0999 V2000
   56.5530   30.1520   42.8300 C   0  0  0  0  0  0  0  0  0  0  0  0
   56.7460   29.3590   44.4560 S   0  0  0  0  0  0  0  0  0  0  0  0
   57.4550   30.8210   45.2210 C   0  0  0  0  0  0  0  0  0  0  0  0
   58.3570   30.6950   46.2820 C   0  0  0  0  0  0  0  0  0  0  0  0
   58.8920   31.8360   46.8920 C   0  0  0  0  0  0  0  0  0  0  0  0
   58.5540   33.1310   46.4290 C   0  0  0  0  0  0  0  0  0  0  0  0
   59.1410   34.4120   47.0350 C   0  0  0  0  0  0  0  0  0  0  0  0
   60.3810   34.9100   46.2850 C   0  0  0  0  0  0  0  0  0  0  0  0
   61.5250   33.9020   46.3710 C   0  0  0  0  0  0  0  0  0  0  0  0
   61.7410   33.3620   47.7280 N   0  0  0  0  0  0  0  0  0  0  0  0
   62.8740   32.4730   47.9020 C   0  0  0  0  0  0  0  0  0  0  0  0
   63.6170   32.1990   46.9170 O   0  0  0  0  0  0  0  0  0  0  0  0
   63.1690   31.8170   49.1900 C   0  0  0  0  0  0  0  0  0  0  0  0
   62.2600   30.8950   49.7230 C   0  0  0  0  0  0  0  0  0  0  0  0
   62.5070   30.2960   50.9630 C   0  0  0  0  0  0  0  0  0  0  0  0
   63.6670   30.6130   51.6890 C   0  0  0  0  0  0  0  0  0  0  0  0
   63.9200   29.9910   53.0520 C   0  0  0  0  0  0  0  0  0  0  0  0
   64.7730   28.7810   53.0010 N   0  0  0  0  0  0  0  0  0  0  0  0
   64.1950   27.6830   52.2000 C   0  0  0  0  0  0  0  0  0  0  0  0
   65.1560   26.4880   52.1730 C   0  0  0  0  0  0  0  0  0  0  0  0
   66.5000   26.8360   51.6390 N   0  0  0  0  0  0  0  0  0  0  0  0
   66.7800   26.1380   50.3620 C   0  0  0  0  0  0  0  0  0  0  0  0
   68.1410   26.5480   49.7480 C   0  0  0  0  0  0  0  0  0  0  0  0
   69.0050   27.3240   50.7440 C   0  0  0  0  0  0  0  0  0  0  0  0
   68.2600   28.5610   51.2970 C   0  0  0  0  0  0  0  0  0  0  0  0
   66.7470   28.2940   51.5040 C   0  0  2  0  0  0  0  0  0  0  0  0
   66.2130   29.0470   52.7460 C   0  0  0  0  0  0  0  0  0  0  0  0
   64.6100   31.4850   51.1160 C   0  0  0  0  0  0  0  0  0  0  0  0
   64.3650   32.0790   49.8740 C   0  0  0  0  0  0  0  0  0  0  0  0
   60.7550   33.4860   48.8300 C   0  0  0  0  0  0  0  0  0  0  0  0
   59.5150   34.3510   48.5240 C   0  0  0  0  0  0  0  0  0  0  0  0
   57.5950   33.2390   45.3990 C   0  0  0  0  0  0  0  0  0  0  0  0
   57.0600   32.0950   44.7940 C   0  0  0  0  0  0  0  0  0  0  0  0
   56.2949   31.2124   42.9675 H   0  0  0  0  0  0  0  0  0  0  0  0
   57.4964   30.0739   42.2697 H   0  0  0  0  0  0  0  0  0  0  0  0
   55.7510   29.6491   42.2697 H   0  0  0  0  0  0  0  0  0  0  0  0
   58.6473   29.6958   46.6387 H   0  0  0  0  0  0  0  0  0  0  0  0
   59.5829   31.7253   47.7408 H   0  0  0  0  0  0  0  0  0  0  0  0
   58.2947   35.1066   46.9281 H   0  0  0  0  0  0  0  0  0  0  0  0
   60.1210   35.0672   45.2278 H   0  0  0  0  0  0  0  0  0  0  0  0
   60.7122   35.8507   46.7490 H   0  0  0  0  0  0  0  0  0  0  0  0
   61.3002   33.0634   45.6955 H   0  0  0  0  0  0  0  0  0  0  0  0
   62.4445   34.4352   46.0876 H   0  0  0  0  0  0  0  0  0  0  0  0
   61.3474   30.6404   49.1642 H   0  0  0  0  0  0  0  0  0  0  0  0
   61.7876   29.5715   51.3724 H   0  0  0  0  0  0  0  0  0  0  0  0
   64.4145   30.7388   53.6894 H   0  0  0  0  0  0  0  0  0  0  0  0
   62.9433   29.6813   53.4523 H   0  0  0  0  0  0  0  0  0  0  0  0
   63.2392   27.3712   52.6463 H   0  0  0  0  0  0  0  0  0  0  0  0
   64.0303   28.0359   51.1712 H   0  0  0  0  0  0  0  0  0  0  0  0
   65.2736   26.1093   53.1990 H   0  0  0  0  0  0  0  0  0  0  0  0
   64.7215   25.7309   51.5036 H   0  0  0  0  0  0  0  0  0  0  0  0
   66.7889   25.0537   50.5472 H   0  0  0  0  0  0  0  0  0  0  0  0
   65.9926   26.4199   49.6475 H   0  0  0  0  0  0  0  0  0  0  0  0
   68.6807   25.6400   49.4409 H   0  0  0  0  0  0  0  0  0  0  0  0
   67.9432   27.2021   48.8860 H   0  0  0  0  0  0  0  0  0  0  0  0
   69.2678   26.6611   51.5815 H   0  0  0  0  0  0  0  0  0  0  0  0
   69.9083   27.6706   50.2205 H   0  0  0  0  0  0  0  0  0  0  0  0
   68.7054   28.8391   52.2636 H   0  0  0  0  0  0  0  0  0  0  0  0
   68.3605   29.3712   50.5598 H   0  0  0  0  0  0  0  0  0  0  0  0
   66.2077   28.6690   50.6217 H   0  0  0  0  0  0  0  0  0  0  0  0
   66.7911   28.7291   53.6262 H   0  0  0  0  0  0  0  0  0  0  0  0
   66.3238   30.1246   52.5551 H   0  0  0  0  0  0  0  0  0  0  0  0
   65.5476   31.7015   51.6490 H   0  0  0  0  0  0  0  0  0  0  0  0
   65.1128   32.7539   49.4321 H   0  0  0  0  0  0  0  0  0  0  0  0
   60.4066   32.4748   49.0871 H   0  0  0  0  0  0  0  0  0  0  0  0
   61.2828   33.9975   49.6484 H   0  0  0  0  0  0  0  0  0  0  0  0
   58.6599   33.9360   49.0777 H   0  0  0  0  0  0  0  0  0  0  0  0
   59.7631   35.3781   48.8297 H   0  0  0  0  0  0  0  0  0  0  0  0
   57.2638   34.2342   45.0674 H   0  0  0  0  0  0  0  0  0  0  0  0
   56.3268   32.1974   43.9804 H   0  0  0  0  0  0  0  0  0  0  0  0
  1  2  1  0
  2  3  1  0
  3  4  2  0
  4  5  1  0
  5  6  2  0
  6  7  1  0
  7  8  1  0
  8  9  1  0
  9 10  1  0
 10 11  1  0
 11 12  2  0
 11 13  1  0
 13 14  2  0
 14 15  1  0
 15 16  2  0
 16 17  1  0
 17 18  1  0
 18 19  1  0
 19 20  1  0
 20 21  1  0
 21 22  1  0
 22 23  1  0
 23 24  1  0
 24 25  1  0
 25 26  1  0
 26 27  1  0
 16 28  1  0
 28 29  2  0
 10 30  1  0
 30 31  1  0
  6 32  1  0
 32 33  2  0
 33  3  1  0
 31  7  1  0
 29 13  1  0
 27 18  1  0
 26 21  1  0
  1 34  1  0
  1 35  1  0
  1 36  1  0
  4 37  1  0
  5 38  1  0
  7 39  1  0
  8 40  1  0
  8 41  1  0
  9 42  1  0
  9 43  1  0
 14 44  1  0
 15 45  1  0
 17 46  1  0
 17 47  1  0
 19 48  1  0
 19 49  1  0
 20 50  1  0
 20 51  1  0
 22 52  1  0
 22 53  1  0
 23 54  1  0
 23 55  1  0
 24 56  1  0
 24 57  1  0
 25 58  1  0
 25 59  1  0
 26 60  1  6
 27 61  1  0
 27 62  1  0
 28 63  1  0
 29 64  1  0
 30 65  1  0
 30 66  1  0
 31 67  1  0
 31 68  1  0
 32 69  1  0
 33 70  1  0
M  END
>  <UniqueID>  (36) 
31

>  <SMILES>  (36) 
CSc1ccc(C2CCN(C(=O)c3ccc(CN4CCN5CCCC[C@@H]5C4)cc3)CC2)cc1

>  <Energy>  (36) 
102.22148266037527

>  <Genealogy>  (36) 
CSc1ccc(C2CCN(C(=O)c3ccc(CN4CCN5CCCC[C@@H]5C4)cc3)CC2)cc1 (chirality)
CSc1ccc(C2CCN(C(=O)c3ccc(CN4CCN5CCCC[C@@H]5C4)cc3)CC2)cc1 (3D coordinates assigned)
CSc1ccc(C2CCN(C(=O)c3ccc(CN4CCN5CCCC[C@@H]5C4)cc3)CC2)cc1 (nonaromatic ring conformer: 102.22148266037527 kcal/mol)

>  <smiles>  (36) 
CSc1ccc(C2CCN(C(=O)c3ccc(CN4CCN5CCCCC5C4)cc3)CC2)cc1

>  <score_type>  (36) 
oracle

>  <origin>  (36) 
adg

>  <m_score__min__energy>  (36) 
-9.8599999999999994

>  <m_primary>  (36) 
energy

$$$$
36:0
     RDKit          3D

 46 48  0  0  0  0  0  0  0  0999 V2000
   55.6921   31.2834   43.9427 H   0  0  0  0  0  0  0  0  0  0  0  0
   55.5090   30.2140   44.1240 C   0  0  0  0  0  0  0  0  0  0  0  0
   54.6551   29.7132   43.6444 H   0  0  0  0  0  0  0  0  0  0  0  0
   56.3230   29.5240   44.9260 C   0  0  0  0  0  0  0  0  0  0  0  0
   56.1380   28.2070   45.1790 N   0  0  0  0  0  0  0  0  0  0  0  0
   57.1730   27.8660   45.9760 C   0  0  0  0  0  0  0  0  0  0  0  0
   57.4050   26.6330   46.4540 C   0  0  0  0  0  0  0  0  0  0  0  0
   57.8700   26.5458   47.4471 H   0  0  0  0  0  0  0  0  0  0  0  0
   57.0760   25.3830   45.7320 C   0  0  0  0  0  0  0  0  0  0  0  0
   56.3560   24.3830   46.4020 C   0  0  0  0  0  0  0  0  0  0  0  0
   56.0627   24.5324   47.4516 H   0  0  0  0  0  0  0  0  0  0  0  0
   56.0080   23.1980   45.7470 C   0  0  0  0  0  0  0  0  0  0  0  0
   55.4552   22.4168   46.2894 H   0  0  0  0  0  0  0  0  0  0  0  0
   56.3570   22.9980   44.4080 C   0  0  0  0  0  0  0  0  0  0  0  0
   55.9870   21.7900   43.7950 O   0  0  0  0  0  0  0  0  0  0  0  0
   56.2410   20.5000   44.3420 C   0  0  0  0  0  0  0  0  0  0  0  0
   55.3635   20.1659   44.9151 H   0  0  0  0  0  0  0  0  0  0  0  0
   56.4396   19.7894   43.5262 H   0  0  0  0  0  0  0  0  0  0  0  0
   57.4510   20.5660   45.2610 C   0  0  0  0  0  0  0  0  0  0  0  0
   57.1170   20.5478   46.3089 H   0  0  0  0  0  0  0  0  0  0  0  0
   58.1045   19.7022   45.0694 H   0  0  0  0  0  0  0  0  0  0  0  0
   58.0067   21.4958   45.0694 H   0  0  0  0  0  0  0  0  0  0  0  0
   57.0570   24.0080   43.7220 C   0  0  0  0  0  0  0  0  0  0  0  0
   57.3307   23.8646   42.6663 H   0  0  0  0  0  0  0  0  0  0  0  0
   57.4060   25.1930   44.3770 C   0  0  0  0  0  0  0  0  0  0  0  0
   57.9422   25.9822   43.8295 H   0  0  0  0  0  0  0  0  0  0  0  0
   57.9640   28.9770   46.1770 C   0  0  0  0  0  0  0  0  0  0  0  0
   59.0140   29.0250   46.8750 O   0  0  0  0  0  0  0  0  0  0  0  0
   57.4320   30.0270   45.5280 N   0  0  0  0  0  0  0  0  0  0  0  0
   57.9400   31.3740   45.5130 C   0  0  0  0  0  0  0  0  0  0  0  0
   58.0430   32.0730   44.3040 C   0  0  0  0  0  0  0  0  0  0  0  0
   57.7208   31.5953   43.3670 H   0  0  0  0  0  0  0  0  0  0  0  0
   58.5520   33.3720   44.2810 C   0  0  0  0  0  0  0  0  0  0  0  0
   58.6204   33.9134   43.3259 H   0  0  0  0  0  0  0  0  0  0  0  0
   58.9780   33.9950   45.4660 C   0  0  0  0  0  0  0  0  0  0  0  0
   59.5190   35.3990   45.4090 C   0  0  0  0  0  0  0  0  0  0  0  0
   59.6649   35.7775   46.4315 H   0  0  0  0  0  0  0  0  0  0  0  0
   60.4818   35.3996   44.8769 H   0  0  0  0  0  0  0  0  0  0  0  0
   58.8056   36.0455   44.8769 H   0  0  0  0  0  0  0  0  0  0  0  0
   58.8790   33.2940   46.6930 C   0  0  0  0  0  0  0  0  0  0  0  0
   59.3310   33.9170   47.9870 C   0  0  0  0  0  0  0  0  0  0  0  0
   58.9177   33.3473   48.8323 H   0  0  0  0  0  0  0  0  0  0  0  0
   60.4298   33.9020   48.0370 H   0  0  0  0  0  0  0  0  0  0  0  0
   58.9758   34.9569   48.0370 H   0  0  0  0  0  0  0  0  0  0  0  0
   58.3700   31.9840   46.7000 C   0  0  0  0  0  0  0  0  0  0  0  0
   58.3082   31.4304   47.6485 H   0  0  0  0  0  0  0  0  0  0  0  0
  1  2  1  0
  2  3  1  0
  2  4  2  0
  4  5  1  0
  5  6  1  0
  6  7  2  0
  7  8  1  0
  7  9  1  0
  9 10  2  0
 10 11  1  0
 10 12  1  0
 12 13  1  0
 12 14  2  0
 14 15  1  0
 15 16  1  0
 16 17  1  0
 16 18  1  0
 16 19  1  0
 19 20  1  0
 19 21  1  0
 19 22  1  0
 14 23  1  0
 23 24  1  0
 23 25  2  0
 25 26  1  0
  6 27  1  0
 27 28  2  0
 27 29  1  0
 29 30  1  0
 30 31  2  0
 31 32  1  0
 31 33  1  0
 33 34  1  0
 33 35  2  0
 35 36  1  0
 36 37  1  0
 36 38  1  0
 36 39  1  0
 35 40  1  0
 40 41  1  0
 41 42  1  0
 41 43  1  0
 41 44  1  0
 40 45  2  0
 45 46  1  0
 29  4  1  0
 45 30  1  0
 25  9  1  0
M  CHG  1   5  -1
M  END
>  <UniqueID>  (37) 
32

>  <SMILES>  (37) 
C=c1[n-]/c(=C\c2ccc(OCC)cc2)c(=O)n1-c1ccc(C)c(C)c1

>  <Energy>  (37) 
88.55731172045921

>  <Genealogy>  (37) 
C=c1[n-]c(=Cc2ccc(OCC)cc2)c(=O)n1-c1ccc(C)c(C)c1 (protonated)
C=c1[n-]/c(=C\c2ccc(OCC)cc2)c(=O)n1-c1ccc(C)c(C)c1 (cis-trans isomerization)
C=c1[n-]/c(=C\c2ccc(OCC)cc2)c(=O)n1-c1ccc(C)c(C)c1 (3D coordinates assigned)
C=c1[n-]/c(=C\c2ccc(OCC)cc2)c(=O)n1-c1ccc(C)c(C)c1 (optimized conformer: 88.55731172045921 kcal/mol)

>  <smiles>  (37) 
C=c1[nH]c(=Cc2ccc(OCC)cc2)c(=O)n1-c1ccc(C)c(C)c1

>  <score_type>  (37) 
oracle

>  <origin>  (37) 
adg

>  <m_score__min__energy>  (37) 
-9.5899999999999999

>  <m_primary>  (37) 
energy

$$$$
37:0
     RDKit          3D

 46 48  0  0  0  0  0  0  0  0999 V2000
   62.5670   31.5280   47.5130 C   0  0  0  0  0  0  0  0  0  0  0  0
   61.2280   31.0460   48.1010 C   0  0  0  0  0  0  0  0  0  0  0  0
   60.7570   29.7210   47.6100 N   0  0  0  0  0  0  0  0  0  0  0  0
   59.6210   29.1870   48.3990 C   0  0  0  0  0  0  0  0  0  0  0  0
   59.4430   27.6760   48.2150 C   0  0  0  0  0  0  0  0  0  0  0  0
   60.4440   29.7440   46.1920 C   0  0  0  0  0  0  0  0  0  0  0  0
   61.2900   29.3450   45.3470 O   0  0  0  0  0  0  0  0  0  0  0  0
   59.1960   30.3690   45.6920 C   0  0  0  0  0  0  0  0  0  0  0  0
   58.0110   29.7570   45.2560 C   0  0  0  0  0  0  0  0  0  0  0  0
   57.7810   28.3210   45.0170 C   0  0  0  0  0  0  0  0  0  0  0  0
   58.3550   27.6800   43.9100 C   0  0  0  0  0  0  0  0  0  0  0  0
   58.1280   26.3210   43.6890 C   0  0  0  0  0  0  0  0  0  0  0  0
   57.3120   25.5960   44.5610 C   0  0  0  0  0  0  0  0  0  0  0  0
   56.7070   26.2250   45.6560 C   0  0  0  0  0  0  0  0  0  0  0  0
   55.8880   25.4560   46.4960 O   0  0  0  0  0  0  0  0  0  0  0  0
   56.2670   24.2090   47.0670 C   0  0  0  0  0  0  0  0  0  0  0  0
   56.9400   27.5970   45.8750 C   0  0  0  0  0  0  0  0  0  0  0  0
   57.0780   30.6680   45.0430 O   0  0  0  0  0  0  0  0  0  0  0  0
   57.5980   31.8420   45.3020 C   0  0  0  0  0  0  0  0  0  0  0  0
   56.9680   33.0820   45.2230 C   0  0  0  0  0  0  0  0  0  0  0  0
   57.7110   34.2210   45.5800 C   0  0  0  0  0  0  0  0  0  0  0  0
   59.0510   34.0950   46.0080 C   0  0  0  0  0  0  0  0  0  0  0  0
   59.6610   32.8290   46.0780 C   0  0  0  0  0  0  0  0  0  0  0  0
   58.9030   31.7190   45.7000 C   0  0  0  0  0  0  0  0  0  0  0  0
   63.2585   31.7769   48.3315 H   0  0  0  0  0  0  0  0  0  0  0  0
   63.0037   30.7306   46.8937 H   0  0  0  0  0  0  0  0  0  0  0  0
   62.3953   32.4208   46.8937 H   0  0  0  0  0  0  0  0  0  0  0  0
   61.3396   30.9834   49.1935 H   0  0  0  0  0  0  0  0  0  0  0  0
   60.4727   31.7767   47.7761 H   0  0  0  0  0  0  0  0  0  0  0  0
   61.5620   29.0710   47.7600 H   0  0  0  0  0  0  0  0  0  0  0  0
   59.8017   29.3946   49.4640 H   0  0  0  0  0  0  0  0  0  0  0  0
   58.7039   29.6792   48.0431 H   0  0  0  0  0  0  0  0  0  0  0  0
   59.3858   27.1908   49.2006 H   0  0  0  0  0  0  0  0  0  0  0  0
   58.5157   27.4814   47.6562 H   0  0  0  0  0  0  0  0  0  0  0  0
   60.2997   27.2712   47.6562 H   0  0  0  0  0  0  0  0  0  0  0  0
   58.9866   28.2505   43.2131 H   0  0  0  0  0  0  0  0  0  0  0  0
   58.5923   25.8198   42.8269 H   0  0  0  0  0  0  0  0  0  0  0  0
   57.1436   24.5231   44.3861 H   0  0  0  0  0  0  0  0  0  0  0  0
   56.2436   24.2859   48.1641 H   0  0  0  0  0  0  0  0  0  0  0  0
   55.5658   23.4274   46.7392 H   0  0  0  0  0  0  0  0  0  0  0  0
   57.2845   23.9497   46.7392 H   0  0  0  0  0  0  0  0  0  0  0  0
   56.4592   28.1040   46.7246 H   0  0  0  0  0  0  0  0  0  0  0  0
   55.9225   33.1673   44.8918 H   0  0  0  0  0  0  0  0  0  0  0  0
   57.2458   35.2163   45.5256 H   0  0  0  0  0  0  0  0  0  0  0  0
   59.6216   34.9926   46.2885 H   0  0  0  0  0  0  0  0  0  0  0  0
   60.7008   32.7174   46.4193 H   0  0  0  0  0  0  0  0  0  0  0  0
  1  2  1  0
  2  3  1  0
  3  4  1  0
  4  5  1  0
  3  6  1  0
  6  7  2  0
  6  8  1  0
  8  9  2  0
  9 10  1  0
 10 11  2  0
 11 12  1  0
 12 13  2  0
 13 14  1  0
 14 15  1  0
 15 16  1  0
 14 17  2  0
  9 18  1  0
 18 19  1  0
 19 20  2  0
 20 21  1  0
 21 22  2  0
 22 23  1  0
 23 24  2  0
 24  8  1  0
 17 10  1  0
 24 19  1  0
  1 25  1  0
  1 26  1  0
  1 27  1  0
  2 28  1  0
  2 29  1  0
  3 30  1  0
  4 31  1  0
  4 32  1  0
  5 33  1  0
  5 34  1  0
  5 35  1  0
 11 36  1  0
 12 37  1  0
 13 38  1  0
 16 39  1  0
 16 40  1  0
 16 41  1  0
 17 42  1  0
 20 43  1  0
 21 44  1  0
 22 45  1  0
 23 46  1  0
M  CHG  1   3   1
M  END
>  <UniqueID>  (38) 
33

>  <SMILES>  (38) 
CC[NH+](CC)C(=O)c1c(-c2cccc(OC)c2)oc2ccccc12

>  <Energy>  (38) 
91.87315674186691

>  <Genealogy>  (38) 
CC[NH+](CC)C(=O)c1c(-c2cccc(OC)c2)oc2ccccc12 (protonated)
CC[NH+](CC)C(=O)c1c(-c2cccc(OC)c2)oc2ccccc12 (3D coordinates assigned)
CC[NH+](CC)C(=O)c1c(-c2cccc(OC)c2)oc2ccccc12 (optimized conformer: 91.87315674186691 kcal/mol)

>  <smiles>  (38) 
CCN(CC)C(=O)c1c(-c2cccc(OC)c2)oc2ccccc12

>  <score_type>  (38) 
oracle

>  <origin>  (38) 
adg

>  <m_score__min__energy>  (38) 
-6.0999999999999996

>  <m_primary>  (38) 
energy

$$$$
38:0
     RDKit          3D

 25 27  0  0  0  0  0  0  0  0999 V2000
   58.2360   31.8420   46.7540 C   0  0  0  0  0  0  0  0  0  0  0  0
   58.1460   31.8970   45.2570 C   0  0  0  0  0  0  0  0  0  0  0  0
   58.1810   33.1090   44.5650 C   0  0  0  0  0  0  0  0  0  0  0  0
   58.0950   32.7010   42.9510 S   0  0  0  0  0  0  0  0  0  0  0  0
   58.0030   31.0520   43.0780 N   0  0  0  0  0  0  0  0  0  0  0  0
   58.0230   30.7620   44.4050 C   0  0  0  0  0  0  0  0  0  0  0  0
   57.9420   29.3640   44.8770 C   0  0  0  0  0  0  0  0  0  0  0  0
   59.1200   28.5970   45.0880 C   0  0  0  0  0  0  0  0  0  0  0  0
   59.0380   27.2730   45.5540 C   0  0  0  0  0  0  0  0  0  0  0  0
   57.7730   26.7510   45.8090 C   0  0  0  0  0  0  0  0  0  0  0  0
   56.6450   27.4810   45.6240 C   0  0  0  0  0  0  0  0  0  0  0  0
   56.6820   28.7940   45.1650 C   0  0  0  0  0  0  0  0  0  0  0  0
   55.5430   26.7170   45.9580 O   0  0  0  0  0  0  0  0  0  0  0  0
   56.0090   25.4280   46.3790 C   0  0  0  0  0  0  0  0  0  0  0  0
   57.4380   25.4930   46.2680 O   0  0  0  0  0  0  0  0  0  0  0  0
   57.3752   32.3680   47.1926 H   0  0  0  0  0  0  0  0  0  0  0  0
   58.2310   30.7925   47.0833 H   0  0  0  0  0  0  0  0  0  0  0  0
   59.1677   32.3252   47.0833 H   0  0  0  0  0  0  0  0  0  0  0  0
   58.2506   34.1195   44.9940 H   0  0  0  0  0  0  0  0  0  0  0  0
   57.9200   30.3730   42.2890 H   0  0  0  0  0  0  0  0  0  0  0  0
   60.1047   29.0433   44.8849 H   0  0  0  0  0  0  0  0  0  0  0  0
   59.9439   26.6694   45.7119 H   0  0  0  0  0  0  0  0  0  0  0  0
   55.7559   29.3720   45.0302 H   0  0  0  0  0  0  0  0  0  0  0  0
   55.7110   25.2304   47.4193 H   0  0  0  0  0  0  0  0  0  0  0  0
   55.5846   24.6168   45.7693 H   0  0  0  0  0  0  0  0  0  0  0  0
  1  2  1  0
  2  3  2  0
  3  4  1  0
  4  5  1  0
  5  6  2  0
  6  7  1  0
  7  8  2  0
  8  9  1  0
  9 10  2  0
 10 11  1  0
 11 12  2  0
 11 13  1  0
 13 14  1  0
 14 15  1  0
  6  2  1  0
 12  7  1  0
 15 10  1  0
  1 16  1  0
  1 17  1  0
  1 18  1  0
  3 19  1  0
  5 20  1  0
  8 21  1  0
  9 22  1  0
 12 23  1  0
 14 24  1  0
 14 25  1  0
M  CHG  1   5   1
M  END
>  <UniqueID>  (39) 
34

>  <SMILES>  (39) 
Cc1cs[nH+]c1-c1ccc2c(c1)OCO2

>  <Energy>  (39) 
91.32806916684295

>  <Genealogy>  (39) 
Cc1cs[nH+]c1-c1ccc2c(c1)OCO2 (protonated)
Cc1cs[nH+]c1-c1ccc2c(c1)OCO2 (3D coordinates assigned)
Cc1cs[nH+]c1-c1ccc2c(c1)OCO2 (nonaromatic ring conformer: 91.32806916684295 kcal/mol)

>  <smiles>  (39) 
Cc1csnc1-c1ccc2c(c1)OCO2

>  <score_type>  (39) 
oracle

>  <origin>  (39) 
adg

>  <m_score__min__energy>  (39) 
-4.5199999999999996

>  <m_primary>  (39) 
energy

$$$$
39:0
     RDKit          3D

 40 42  0  0  0  0  0  0  0  0999 V2000
   63.1510   31.8420   49.1100 C   0  0  0  0  0  0  0  0  0  0  0  0
   63.5140   33.1920   48.6360 N   0  0  0  0  0  0  0  0  0  0  0  0
   63.6330   33.2370   47.1510 C   0  0  0  0  0  0  0  0  0  0  0  0
   62.4040   33.8460   46.4450 C   0  0  0  0  0  0  0  0  0  0  0  0
   61.1890   33.6060   47.2300 N   0  0  0  0  0  0  0  0  0  0  0  0
   60.0290   32.9770   46.6470 C   0  0  0  0  0  0  0  0  0  0  0  0
   59.2540   33.6560   45.6890 C   0  0  0  0  0  0  0  0  0  0  0  0
   58.1380   33.0390   45.1150 C   0  0  0  0  0  0  0  0  0  0  0  0
   57.7930   31.7290   45.4660 C   0  0  0  0  0  0  0  0  0  0  0  0
   56.6360   31.1310   44.8690 N   0  0  0  0  0  0  0  0  0  0  0  0
   56.3330   29.7290   44.8450 C   0  0  0  0  0  0  0  0  0  0  0  0
   55.1410   29.3700   44.6590 O   0  0  0  0  0  0  0  0  0  0  0  0
   57.3820   28.7020   44.9790 C   0  0  0  0  0  0  0  0  0  0  0  0
   58.5450   28.5950   44.2200 C   0  0  0  0  0  0  0  0  0  0  0  0
   59.3300   27.4860   44.5630 C   0  0  0  0  0  0  0  0  0  0  0  0
   58.7900   26.7130   45.5810 C   0  0  0  0  0  0  0  0  0  0  0  0
   57.3310   27.4050   46.0510 S   0  0  0  0  0  0  0  0  0  0  0  0
   58.5590   31.0510   46.4310 C   0  0  0  0  0  0  0  0  0  0  0  0
   59.6720   31.6680   47.0080 C   0  0  0  0  0  0  0  0  0  0  0  0
   61.1630   34.0550   48.6270 C   0  0  0  0  0  0  0  0  0  0  0  0
   62.5930   34.2220   49.1730 C   0  0  0  0  0  0  0  0  0  0  0  0
   63.1473   31.8283   50.2099 H   0  0  0  0  0  0  0  0  0  0  0  0
   62.1503   31.5791   48.7367 H   0  0  0  0  0  0  0  0  0  0  0  0
   63.8849   31.1126   48.7367 H   0  0  0  0  0  0  0  0  0  0  0  0
   64.4610   33.4000   49.0350 H   0  0  0  0  0  0  0  0  0  0  0  0
   64.5157   33.8402   46.8921 H   0  0  0  0  0  0  0  0  0  0  0  0
   63.7175   32.1962   46.8052 H   0  0  0  0  0  0  0  0  0  0  0  0
   62.5526   34.9299   46.3304 H   0  0  0  0  0  0  0  0  0  0  0  0
   62.2895   33.3724   45.4588 H   0  0  0  0  0  0  0  0  0  0  0  0
   59.5276   34.6785   45.3896 H   0  0  0  0  0  0  0  0  0  0  0  0
   57.5272   33.5871   44.3826 H   0  0  0  0  0  0  0  0  0  0  0  0
   58.8198   29.3097   43.4302 H   0  0  0  0  0  0  0  0  0  0  0  0
   60.2852   27.2502   44.0711 H   0  0  0  0  0  0  0  0  0  0  0  0
   59.2390   25.8038   46.0073 H   0  0  0  0  0  0  0  0  0  0  0  0
   58.2807   30.0305   46.7329 H   0  0  0  0  0  0  0  0  0  0  0  0
   60.2734   31.1238   47.7511 H   0  0  0  0  0  0  0  0  0  0  0  0
   60.6391   35.0204   48.6861 H   0  0  0  0  0  0  0  0  0  0  0  0
   60.6403   33.2989   49.2313 H   0  0  0  0  0  0  0  0  0  0  0  0
   62.9679   35.2166   48.8897 H   0  0  0  0  0  0  0  0  0  0  0  0
   62.5556   34.1088   50.2665 H   0  0  0  0  0  0  0  0  0  0  0  0
  1  2  1  0
  2  3  1  0
  3  4  1  0
  4  5  1  0
  5  6  1  0
  6  7  2  0
  7  8  1  0
  8  9  2  0
  9 10  1  0
 10 11  1  0
 11 12  2  0
 11 13  1  0
 13 14  2  0
 14 15  1  0
 15 16  2  0
 16 17  1  0
  9 18  1  0
 18 19  2  0
  5 20  1  0
 20 21  1  0
 21  2  1  0
 19  6  1  0
 17 13  1  0
  1 22  1  0
  1 23  1  0
  1 24  1  0
  2 25  1  0
  3 26  1  0
  3 27  1  0
  4 28  1  0
  4 29  1  0
  7 30  1  0
  8 31  1  0
 14 32  1  0
 15 33  1  0
 16 34  1  0
 18 35  1  0
 19 36  1  0
 20 37  1  0
 20 38  1  0
 21 39  1  0
 21 40  1  0
M  CHG  2   2   1  10  -1
M  END
>  <UniqueID>  (40) 
35

>  <SMILES>  (40) 
C[NH+]1CCN(c2ccc([N-]C(=O)c3cccs3)cc2)CC1

>  <Energy>  (40) 
83.73217572855037

>  <Genealogy>  (40) 
C[NH+]1CCN(c2ccc([N-]C(=O)c3cccs3)cc2)CC1 (protonated)
C[NH+]1CCN(c2ccc([N-]C(=O)c3cccs3)cc2)CC1 (3D coordinates assigned)
C[NH+]1CCN(c2ccc([N-]C(=O)c3cccs3)cc2)CC1 (nonaromatic ring conformer: 83.73217572855037 kcal/mol)

>  <smiles>  (40) 
CN1CCN(c2ccc(NC(=O)c3cccs3)cc2)CC1

>  <score_type>  (40) 
oracle

>  <origin>  (40) 
adg

>  <m_score__min__energy>  (40) 
-7.7400000000000002

>  <m_primary>  (40) 
energy

$$$$
40:0
     RDKit          3D

 40 42  0  0  0  0  0  0  0  0999 V2000
   60.7214   34.9906   46.3739 H   0  0  0  0  0  0  0  0  0  0  0  0
   60.0290   34.2090   46.0280 C   0  0  0  0  0  0  0  0  0  0  0  0
   59.4440   34.3800   44.8320 C   0  0  0  0  0  0  0  0  0  0  0  0
   59.9661   34.9890   44.0793 H   0  0  0  0  0  0  0  0  0  0  0  0
   58.1700   33.8090   44.4820 N   0  0  0  0  0  0  0  0  0  0  0  0
   56.9780   34.0880   45.2900 C   0  0  0  0  0  0  0  0  0  0  0  0
   57.2363   34.0275   46.3575 H   0  0  0  0  0  0  0  0  0  0  0  0
   56.6066   35.0974   45.0592 H   0  0  0  0  0  0  0  0  0  0  0  0
   56.1972   33.3483   45.0592 H   0  0  0  0  0  0  0  0  0  0  0  0
   58.1250   32.7180   43.5030 C   0  0  0  0  0  0  0  0  0  0  0  0
   57.4259   32.9833   42.6962 H   0  0  0  0  0  0  0  0  0  0  0  0
   59.1340   32.5642   43.0927 H   0  0  0  0  0  0  0  0  0  0  0  0
   57.6680   31.4530   44.1550 C   0  0  0  0  0  0  0  0  0  0  0  0
   56.3890   31.2180   44.5110 N   0  0  0  0  0  0  0  0  0  0  0  0
   56.3920   30.0050   44.9740 O   0  0  0  0  0  0  0  0  0  0  0  0
   57.6030   29.5120   44.9060 C   0  0  0  0  0  0  0  0  0  0  0  0
   57.9720   28.1250   45.3230 C   0  0  0  0  0  0  0  0  0  0  0  0
   57.2105   27.6096   44.7192 H   0  0  0  0  0  0  0  0  0  0  0  0
   58.4760   28.0100   46.7530 C   0  0  0  0  0  0  0  0  0  0  0  0
   58.4799   28.8941   47.4075 H   0  0  0  0  0  0  0  0  0  0  0  0
   58.2306   27.3727   47.6153 H   0  0  0  0  0  0  0  0  0  0  0  0
   59.4530   27.9190   45.5940 C   0  0  0  0  0  0  0  0  0  0  0  0
   60.1647   28.7371   45.4093 H   0  0  0  0  0  0  0  0  0  0  0  0
   60.2084   27.1882   45.2695 H   0  0  0  0  0  0  0  0  0  0  0  0
   58.4730   30.3930   44.3760 N   0  0  0  0  0  0  0  0  0  0  0  0
   59.8100   33.0470   46.9130 C   0  0  0  0  0  0  0  0  0  0  0  0
   60.5440   31.8580   46.7560 C   0  0  0  0  0  0  0  0  0  0  0  0
   61.3125   31.7894   45.9720 H   0  0  0  0  0  0  0  0  0  0  0  0
   60.3030   30.7630   47.5900 C   0  0  0  0  0  0  0  0  0  0  0  0
   60.8933   29.8426   47.4700 H   0  0  0  0  0  0  0  0  0  0  0  0
   59.3080   30.8330   48.5830 C   0  0  0  0  0  0  0  0  0  0  0  0
   59.0250   29.7600   49.4410 O   0  0  0  0  0  0  0  0  0  0  0  0
   59.9460   29.2170   50.3810 C   0  0  0  0  0  0  0  0  0  0  0  0
   59.5933   29.4249   51.4020 H   0  0  0  0  0  0  0  0  0  0  0  0
   60.0220   28.1296   50.2337 H   0  0  0  0  0  0  0  0  0  0  0  0
   60.9343   29.6769   50.2337 H   0  0  0  0  0  0  0  0  0  0  0  0
   58.5640   32.0090   48.7210 C   0  0  0  0  0  0  0  0  0  0  0  0
   57.7838   32.0729   49.4938 H   0  0  0  0  0  0  0  0  0  0  0  0
   58.8030   33.1050   47.8850 C   0  0  0  0  0  0  0  0  0  0  0  0
   58.1971   34.0169   47.9915 H   0  0  0  0  0  0  0  0  0  0  0  0
  1  2  1  0
  2  3  2  0
  3  4  1  0
  3  5  1  0
  5  6  1  0
  6  7  1  0
  6  8  1  0
  6  9  1  0
  5 10  1  0
 10 11  1  0
 10 12  1  0
 10 13  1  0
 13 14  2  0
 14 15  1  0
 15 16  1  0
 16 17  1  0
 17 18  1  0
 17 19  1  0
 19 20  1  0
 19 21  1  0
 19 22  1  0
 22 23  1  0
 22 24  1  0
 16 25  2  0
  2 26  1  0
 26 27  2  0
 27 28  1  0
 27 29  1  0
 29 30  1  0
 29 31  2  0
 31 32  1  0
 32 33  1  0
 33 34  1  0
 33 35  1  0
 33 36  1  0
 31 37  1  0
 37 38  1  0
 37 39  2  0
 39 40  1  0
 25 13  1  0
 39 26  1  0
 22 17  1  0
M  END
>  <UniqueID>  (41) 
36

>  <SMILES>  (41) 
COc1ccc(/C=C\N(C)Cc2noc(C3CC3)n2)cc1

>  <Energy>  (41) 
341.39252698025916

>  <Genealogy>  (41) 
COc1ccc(/C=C\N(C)Cc2noc(C3CC3)n2)cc1 (cis-trans isomerization)
COc1ccc(/C=C\N(C)Cc2noc(C3CC3)n2)cc1 (3D coordinates assigned)
COc1ccc(/C=C\N(C)Cc2noc(C3CC3)n2)cc1 (nonaromatic ring conformer: 341.39252698025916 kcal/mol)

>  <smiles>  (41) 
COc1ccc(C=CN(C)Cc2noc(C3CC3)n2)cc1

>  <score_type>  (41) 
oracle

>  <origin>  (41) 
adg

>  <m_score__min__energy>  (41) 
-7.5300000000000002

>  <m_primary>  (41) 
energy

$$$$
41:0
     RDKit          3D

 48 52  0  0  0  0  0  0  0  0999 V2000
   66.5330   31.0920   53.6920 O   0  0  0  0  0  0  0  0  0  0  0  0
   66.5740   30.6660   52.5190 N   0  0  0  0  0  0  0  0  0  0  0  0
   67.3770   29.5870   52.2330 O   0  0  0  0  0  0  0  0  0  0  0  0
   65.7940   31.2920   51.4840 C   0  0  0  0  0  0  0  0  0  0  0  0
   66.3130   32.3720   50.7470 C   0  0  0  0  0  0  0  0  0  0  0  0
   65.5510   32.9780   49.7440 C   0  0  0  0  0  0  0  0  0  0  0  0
   64.2530   32.5280   49.4710 C   0  0  0  0  0  0  0  0  0  0  0  0
   63.4630   33.1620   48.3980 C   0  0  0  0  0  0  0  0  0  0  0  0
   63.9360   33.2950   47.1410 N   0  0  0  0  0  0  0  0  0  0  0  0
   62.8740   33.6150   46.3780 C   0  0  0  0  0  0  0  0  0  0  0  0
   61.7490   33.7090   47.1130 N   0  0  0  0  0  0  0  0  0  0  0  0
   62.1050   33.4830   48.3940 C   0  0  0  0  0  0  0  0  0  0  0  0
   61.0560   33.4740   49.4980 C   0  0  2  0  0  0  0  0  0  0  0  0
   61.5820   33.8420   50.9120 C   0  0  0  0  0  0  0  0  0  0  0  0
   60.9410   32.9790   52.0030 C   0  0  0  0  0  0  0  0  0  0  0  0
   59.4310   32.8630   51.7750 C   0  0  0  0  0  0  0  0  0  0  0  0
   59.0920   32.3090   50.3730 C   0  0  0  0  0  0  0  0  0  0  0  0
   60.2820   32.2050   49.5000 N   0  0  0  0  0  0  0  0  0  0  0  0
   59.9010   31.7090   48.1480 C   0  0  0  0  0  0  0  0  0  0  0  0
   59.4560   32.7980   47.1780 C   0  0  0  0  0  0  0  0  0  0  0  0
   58.1170   32.8630   46.7600 C   0  0  0  0  0  0  0  0  0  0  0  0
   57.7240   33.7920   45.7920 C   0  0  0  0  0  0  0  0  0  0  0  0
   58.6640   34.6570   45.2260 C   0  0  0  0  0  0  0  0  0  0  0  0
   59.9970   34.6120   45.6380 C   0  0  0  0  0  0  0  0  0  0  0  0
   60.3990   33.6990   46.6230 C   0  0  0  0  0  0  0  0  0  0  0  0
   63.7410   31.4340   50.1850 C   0  0  0  0  0  0  0  0  0  0  0  0
   64.5010   30.8270   51.1890 C   0  0  0  0  0  0  0  0  0  0  0  0
   67.3263   32.7425   50.9617 H   0  0  0  0  0  0  0  0  0  0  0  0
   65.9732   33.8131   49.1658 H   0  0  0  0  0  0  0  0  0  0  0  0
   64.8950   33.0670   46.8000 H   0  0  0  0  0  0  0  0  0  0  0  0
   62.9192   33.7791   45.2912 H   0  0  0  0  0  0  0  0  0  0  0  0
   60.3723   34.2980   49.2458 H   0  0  0  0  0  0  0  0  0  0  0  0
   62.6717   33.6935   50.9357 H   0  0  0  0  0  0  0  0  0  0  0  0
   61.3201   34.8918   51.1103 H   0  0  0  0  0  0  0  0  0  0  0  0
   61.3890   31.9746   51.9803 H   0  0  0  0  0  0  0  0  0  0  0  0
   61.1186   33.4507   52.9808 H   0  0  0  0  0  0  0  0  0  0  0  0
   59.0092   32.1877   52.5340 H   0  0  0  0  0  0  0  0  0  0  0  0
   58.9999   33.8721   51.8521 H   0  0  0  0  0  0  0  0  0  0  0  0
   58.6500   31.3082   50.4870 H   0  0  0  0  0  0  0  0  0  0  0  0
   58.3903   33.0104   49.8980 H   0  0  0  0  0  0  0  0  0  0  0  0
   60.7708   31.1954   47.7126 H   0  0  0  0  0  0  0  0  0  0  0  0
   59.0363   31.0442   48.2905 H   0  0  0  0  0  0  0  0  0  0  0  0
   57.3737   32.1796   47.1963 H   0  0  0  0  0  0  0  0  0  0  0  0
   56.6718   33.8421   45.4751 H   0  0  0  0  0  0  0  0  0  0  0  0
   58.3527   35.3756   44.4535 H   0  0  0  0  0  0  0  0  0  0  0  0
   60.7336   35.2944   45.1888 H   0  0  0  0  0  0  0  0  0  0  0  0
   62.7359   31.0518   49.9534 H   0  0  0  0  0  0  0  0  0  0  0  0
   64.0840   29.9792   51.7523 H   0  0  0  0  0  0  0  0  0  0  0  0
  1  2  2  0
  2  3  1  0
  2  4  1  0
  4  5  2  0
  5  6  1  0
  6  7  2  0
  7  8  1  0
  8  9  1  0
  9 10  2  0
 10 11  1  0
 11 12  1  0
 12 13  1  0
 13 14  1  0
 14 15  1  0
 15 16  1  0
 16 17  1  0
 17 18  1  0
 18 19  1  0
 19 20  1  0
 20 21  2  0
 21 22  1  0
 22 23  2  0
 23 24  1  0
 24 25  2  0
  7 26  1  0
 26 27  2  0
 27  4  1  0
 12  8  2  0
 18 13  1  0
 25 20  1  0
 25 11  1  0
  5 28  1  0
  6 29  1  0
  9 30  1  0
 10 31  1  0
 13 32  1  6
 14 33  1  0
 14 34  1  0
 15 35  1  0
 15 36  1  0
 16 37  1  0
 16 38  1  0
 17 39  1  0
 17 40  1  0
 19 41  1  0
 19 42  1  0
 21 43  1  0
 22 44  1  0
 23 45  1  0
 24 46  1  0
 26 47  1  0
 27 48  1  0
M  CHG  3   2   1   3  -1   9   1
M  END
>  <UniqueID>  (42) 
37

>  <SMILES>  (42) 
O=[N+]([O-])c1ccc(-c2[nH+]cn3c2[C@@H]2CCCCN2Cc2ccccc2-3)cc1

>  <Energy>  (42) 
117.2085486628097

>  <Genealogy>  (42) 
O=[N+]([O-])c1ccc(-c2[nH+]cn3c2C2CCCCN2Cc2ccccc2-3)cc1 (protonated)
O=[N+]([O-])c1ccc(-c2[nH+]cn3c2[C@@H]2CCCCN2Cc2ccccc2-3)cc1 (chirality)
O=[N+]([O-])c1ccc(-c2[nH+]cn3c2[C@@H]2CCCCN2Cc2ccccc2-3)cc1 (3D coordinates assigned)
O=[N+]([O-])c1ccc(-c2[nH+]cn3c2[C@@H]2CCCCN2Cc2ccccc2-3)cc1 (nonaromatic ring conformer: 117.2085486628097 kcal/mol)

>  <smiles>  (42) 
O=[N+]([O-])c1ccc(-c2ncn3c2C2CCCCN2Cc2ccccc2-3)cc1

>  <score_type>  (42) 
oracle

>  <origin>  (42) 
adg

>  <m_score__min__energy>  (42) 
-6.8099999999999996

>  <m_primary>  (42) 
energy

$$$$
42:0
     RDKit          3D

 37 40  0  0  0  0  0  0  0  0999 V2000
   60.3150   34.5280   48.2800 Br  0  0  0  0  0  0  0  0  0  0  0  0
   59.2940   33.7820   46.8480 C   0  0  0  0  0  0  0  0  0  0  0  0
   58.8600   34.5990   45.8010 C   0  0  0  0  0  0  0  0  0  0  0  0
   58.1100   34.0540   44.7550 C   0  0  0  0  0  0  0  0  0  0  0  0
   57.7920   32.6930   44.7540 C   0  0  0  0  0  0  0  0  0  0  0  0
   58.2230   31.8590   45.8020 C   0  0  0  0  0  0  0  0  0  0  0  0
   57.8870   30.4130   45.8020 C   0  0  0  0  0  0  0  0  0  0  0  0
   58.4830   29.5400   46.7290 C   0  0  0  0  0  0  0  0  0  0  0  0
   58.1680   28.1780   46.7290 C   0  0  0  0  0  0  0  0  0  0  0  0
   57.2470   27.6590   45.8040 C   0  0  0  0  0  0  0  0  0  0  0  0
   56.9190   26.2140   45.8130 C   0  0  0  0  0  0  0  0  0  0  0  0
   55.6640   25.7350   45.9610 N   0  0  0  0  0  0  0  0  0  0  0  0
   55.6090   24.3730   45.9380 C   0  0  0  0  0  0  0  0  0  0  0  0
   54.3180   23.6500   46.0790 C   0  0  0  0  0  0  0  0  0  0  0  0
   54.0360   22.9350   47.2570 C   0  0  0  0  0  0  0  0  0  0  0  0
   52.8270   22.2520   47.3960 C   0  0  0  0  0  0  0  0  0  0  0  0
   51.9010   22.2830   46.3550 C   0  0  0  0  0  0  0  0  0  0  0  0
   52.1810   22.9700   45.2170 N   0  0  0  0  0  0  0  0  0  0  0  0
   53.3500   23.6450   45.0560 C   0  0  0  0  0  0  0  0  0  0  0  0
   56.8490   23.7510   45.7620 C   0  0  0  0  0  0  0  0  0  0  0  0
   58.0180   24.9510   45.6410 S   0  0  0  0  0  0  0  0  0  0  0  0
   56.6490   28.5310   44.8770 C   0  0  0  0  0  0  0  0  0  0  0  0
   56.9670   29.8920   44.8770 C   0  0  0  0  0  0  0  0  0  0  0  0
   58.9790   32.4190   46.8510 C   0  0  0  0  0  0  0  0  0  0  0  0
   59.1084   35.6706   45.7999 H   0  0  0  0  0  0  0  0  0  0  0  0
   57.7692   34.6977   43.9307 H   0  0  0  0  0  0  0  0  0  0  0  0
   57.2006   32.2709   43.9281 H   0  0  0  0  0  0  0  0  0  0  0  0
   59.2040   29.9324   47.4612 H   0  0  0  0  0  0  0  0  0  0  0  0
   58.6450   27.5075   47.4590 H   0  0  0  0  0  0  0  0  0  0  0  0
   54.7728   22.9141   48.0735 H   0  0  0  0  0  0  0  0  0  0  0  0
   52.6070   21.6945   48.3184 H   0  0  0  0  0  0  0  0  0  0  0  0
   50.9433   21.7512   46.4548 H   0  0  0  0  0  0  0  0  0  0  0  0
   53.5412   24.1910   44.1204 H   0  0  0  0  0  0  0  0  0  0  0  0
   57.0274   22.6667   45.7117 H   0  0  0  0  0  0  0  0  0  0  0  0
   55.9258   28.1392   44.1466 H   0  0  0  0  0  0  0  0  0  0  0  0
   56.4920   30.5620   44.1452 H   0  0  0  0  0  0  0  0  0  0  0  0
   59.3237   31.7803   47.6776 H   0  0  0  0  0  0  0  0  0  0  0  0
  1  2  1  0
  2  3  2  0
  3  4  1  0
  4  5  2  0
  5  6  1  0
  6  7  1  0
  7  8  2  0
  8  9  1  0
  9 10  2  0
 10 11  1  0
 11 12  2  0
 12 13  1  0
 13 14  1  0
 14 15  2  0
 15 16  1  0
 16 17  2  0
 17 18  1  0
 18 19  2  0
 13 20  2  0
 20 21  1  0
 10 22  1  0
 22 23  2  0
  6 24  2  0
 24  2  1  0
 23  7  1  0
 21 11  1  0
 19 14  1  0
  3 25  1  0
  4 26  1  0
  5 27  1  0
  8 28  1  0
  9 29  1  0
 15 30  1  0
 16 31  1  0
 17 32  1  0
 19 33  1  0
 20 34  1  0
 22 35  1  0
 23 36  1  0
 24 37  1  0
M  END
>  <UniqueID>  (43) 
38

>  <SMILES>  (43) 
Brc1cccc(-c2ccc(-c3nc(-c4cccnc4)cs3)cc2)c1

>  <Energy>  (43) 
80.77009291428514

>  <Genealogy>  (43) 
Brc1cccc(-c2ccc(-c3nc(-c4cccnc4)cs3)cc2)c1 (3D coordinates assigned)
Brc1cccc(-c2ccc(-c3nc(-c4cccnc4)cs3)cc2)c1 (optimized conformer: 80.77009291428514 kcal/mol)

>  <smiles>  (43) 
Brc1cccc(-c2ccc(-c3nc(-c4cccnc4)cs3)cc2)c1

>  <score_type>  (43) 
oracle

>  <origin>  (43) 
adg

>  <m_score__min__energy>  (43) 
-8.6699999999999999

>  <m_primary>  (43) 
energy

$$$$
43:0
     RDKit          3D

 58 62  0  0  0  0  0  0  0  0999 V2000
   67.1220   30.9010   51.2240 C   0  0  0  0  0  0  0  0  0  0  0  0
   65.8610   31.6080   50.8230 C   0  0  0  0  0  0  0  0  0  0  0  0
   65.8690   32.5080   49.7470 C   0  0  0  0  0  0  0  0  0  0  0  0
   64.6910   33.1420   49.3460 C   0  0  0  0  0  0  0  0  0  0  0  0
   63.4830   32.8720   50.0060 C   0  0  0  0  0  0  0  0  0  0  0  0
   62.2960   33.5040   49.6080 C   0  0  0  0  0  0  0  0  0  0  0  0
   61.0730   33.1870   50.2350 C   0  0  0  0  0  0  0  0  0  0  0  0
   61.0750   32.3150   51.3320 C   0  0  0  0  0  0  0  0  0  0  0  0
   62.2610   31.6940   51.7490 C   0  0  0  0  0  0  0  0  0  0  0  0
   63.4640   31.9530   51.0800 C   0  0  0  0  0  0  0  0  0  0  0  0
   64.6530   31.3230   51.4780 C   0  0  0  0  0  0  0  0  0  0  0  0
   59.7920   32.1200   52.0850 C   0  0  0  0  0  0  0  0  0  0  0  0
   58.6120   31.9220   51.0990 C   0  0  0  0  0  0  0  0  0  0  0  0
   57.2930   32.0160   51.8820 C   0  0  0  0  0  0  0  0  0  0  0  0
   58.7070   30.5090   50.4760 C   0  0  0  0  0  0  0  0  0  0  0  0
   58.5760   32.9590   50.0310 N   0  0  0  0  0  0  0  0  0  0  0  0
   59.7490   33.8560   49.8780 C   0  0  2  0  0  0  0  0  0  0  0  0
   59.7220   34.5460   48.5610 N   0  0  0  0  0  0  0  0  0  0  0  0
   59.2060   33.8400   47.3940 C   0  0  0  0  0  0  0  0  0  0  0  0
   58.4710   34.5840   46.4570 C   0  0  0  0  0  0  0  0  0  0  0  0
   57.9430   33.9860   45.3170 C   0  0  0  0  0  0  0  0  0  0  0  0
   58.1350   32.6210   45.0810 C   0  0  0  0  0  0  0  0  0  0  0  0
   57.6110   32.0280   43.9290 C   0  0  0  0  0  0  0  0  0  0  0  0
   57.8060   30.6740   43.6990 C   0  0  0  0  0  0  0  0  0  0  0  0
   58.5260   29.9150   44.6200 C   0  0  0  0  0  0  0  0  0  0  0  0
   59.0470   30.4840   45.7530 N   0  0  0  0  0  0  0  0  0  0  0  0
   59.7980   29.6190   46.6760 C   0  0  0  0  0  0  0  0  0  0  0  0
   58.8600   31.8290   46.0060 C   0  0  0  0  0  0  0  0  0  0  0  0
   59.3760   32.4550   47.1680 C   0  0  0  0  0  0  0  0  0  0  0  0
   67.1884   30.8638   52.3214 H   0  0  0  0  0  0  0  0  0  0  0  0
   67.1119   29.8770   50.8223 H   0  0  0  0  0  0  0  0  0  0  0  0
   67.9903   31.4438   50.8223 H   0  0  0  0  0  0  0  0  0  0  0  0
   66.8094   32.7158   49.2155 H   0  0  0  0  0  0  0  0  0  0  0  0
   64.7105   33.8559   48.5093 H   0  0  0  0  0  0  0  0  0  0  0  0
   62.3189   34.2518   48.8016 H   0  0  0  0  0  0  0  0  0  0  0  0
   62.2466   31.0017   52.6037 H   0  0  0  0  0  0  0  0  0  0  0  0
   64.6381   30.6015   52.3082 H   0  0  0  0  0  0  0  0  0  0  0  0
   59.8803   31.2317   52.7278 H   0  0  0  0  0  0  0  0  0  0  0  0
   59.5988   33.0124   52.6984 H   0  0  0  0  0  0  0  0  0  0  0  0
   57.5054   32.0009   52.9612 H   0  0  0  0  0  0  0  0  0  0  0  0
   56.7786   32.9531   51.6226 H   0  0  0  0  0  0  0  0  0  0  0  0
   56.6509   31.1613   51.6226 H   0  0  0  0  0  0  0  0  0  0  0  0
   58.7575   29.7575   51.2777 H   0  0  0  0  0  0  0  0  0  0  0  0
   57.8194   30.3222   49.8537 H   0  0  0  0  0  0  0  0  0  0  0  0
   59.6116   30.4427   49.8537 H   0  0  0  0  0  0  0  0  0  0  0  0
   58.2300   32.5830   49.1180 H   0  0  0  0  0  0  0  0  0  0  0  0
   59.6672   34.6521   50.6327 H   0  0  0  0  0  0  0  0  0  0  0  0
   60.6990   34.8560   48.3490 H   0  0  0  0  0  0  0  0  0  0  0  0
   59.1610   35.4230   48.6680 H   0  0  0  0  0  0  0  0  0  0  0  0
   58.3098   35.6587   46.6273 H   0  0  0  0  0  0  0  0  0  0  0  0
   57.3713   34.5903   44.5973 H   0  0  0  0  0  0  0  0  0  0  0  0
   57.0450   32.6338   43.2061 H   0  0  0  0  0  0  0  0  0  0  0  0
   57.3946   30.2019   42.7946 H   0  0  0  0  0  0  0  0  0  0  0  0
   58.6787   28.8415   44.4345 H   0  0  0  0  0  0  0  0  0  0  0  0
   59.5586   29.8947   47.7136 H   0  0  0  0  0  0  0  0  0  0  0  0
   59.5203   28.5689   46.5023 H   0  0  0  0  0  0  0  0  0  0  0  0
   60.8767   29.7465   46.5023 H   0  0  0  0  0  0  0  0  0  0  0  0
   59.9198   31.8509   47.9091 H   0  0  0  0  0  0  0  0  0  0  0  0
  1  2  1  0
  2  3  2  0
  3  4  1  0
  4  5  2  0
  5  6  1  0
  6  7  2  0
  7  8  1  0
  8  9  2  0
  9 10  1  0
 10 11  2  0
  8 12  1  0
 12 13  1  0
 13 14  1  0
 13 15  1  0
 13 16  1  0
 16 17  1  0
 17 18  1  0
 18 19  1  0
 19 20  2  0
 20 21  1  0
 21 22  2  0
 22 23  1  0
 23 24  2  0
 24 25  1  0
 25 26  2  0
 26 27  1  0
 26 28  1  0
 28 29  2  0
 11  2  1  0
 29 19  1  0
 10  5  1  0
 28 22  1  0
 17  7  1  0
  1 30  1  0
  1 31  1  0
  1 32  1  0
  3 33  1  0
  4 34  1  0
  6 35  1  0
  9 36  1  0
 11 37  1  0
 12 38  1  0
 12 39  1  0
 14 40  1  0
 14 41  1  0
 14 42  1  0
 15 43  1  0
 15 44  1  0
 15 45  1  0
 16 46  1  0
 17 47  1  1
 18 48  1  0
 18 49  1  0
 20 50  1  0
 21 51  1  0
 23 52  1  0
 24 53  1  0
 25 54  1  0
 27 55  1  0
 27 56  1  0
 27 57  1  0
 29 58  1  0
M  CHG  2  18   1  26   1
M  END
>  <UniqueID>  (44) 
39

>  <SMILES>  (44) 
Cc1ccc2cc3c(cc2c1)CC(C)(C)N[C@@H]3[NH2+]c1ccc2ccc[n+](C)c2c1

>  <Energy>  (44) 
93.65068676046523

>  <Genealogy>  (44) 
Cc1ccc2cc3c(cc2c1)CC(C)(C)NC3[NH2+]c1ccc2ccc[n+](C)c2c1 (protonated)
Cc1ccc2cc3c(cc2c1)CC(C)(C)N[C@@H]3[NH2+]c1ccc2ccc[n+](C)c2c1 (chirality)
Cc1ccc2cc3c(cc2c1)CC(C)(C)N[C@@H]3[NH2+]c1ccc2ccc[n+](C)c2c1 (3D coordinates assigned)
Cc1ccc2cc3c(cc2c1)CC(C)(C)N[C@@H]3[NH2+]c1ccc2ccc[n+](C)c2c1 (nonaromatic ring conformer: 93.65068676046523 kcal/mol)

>  <smiles>  (44) 
Cc1ccc2cc3c(cc2c1)CC(C)(C)NC3Nc1ccc2ccc[n+](C)c2c1

>  <score_type>  (44) 
oracle

>  <origin>  (44) 
adg

>  <m_score__min__energy>  (44) 
-5.8200000000000003

>  <m_primary>  (44) 
energy

$$$$
44:0
     RDKit          3D

 26 27  0  0  0  0  0  0  0  0999 V2000
   58.7650   28.2270   46.9600 C   0  0  0  0  0  0  0  0  0  0  0  0
   57.6060   28.1060   46.1440 O   0  0  0  0  0  0  0  0  0  0  0  0
   57.2800   29.0330   45.1500 C   0  0  0  0  0  0  0  0  0  0  0  0
   57.2420   30.3660   45.4280 N   0  0  0  0  0  0  0  0  0  0  0  0
   56.9190   31.2810   44.4770 C   0  0  0  0  0  0  0  0  0  0  0  0
   56.9160   32.6400   44.8200 O   0  0  0  0  0  0  0  0  0  0  0  0
   57.8650   33.2760   45.6340 C   0  0  0  0  0  0  0  0  0  0  0  0
   58.6610   34.2850   45.0770 C   0  0  0  0  0  0  0  0  0  0  0  0
   59.6290   34.9310   45.8520 C   0  0  0  0  0  0  0  0  0  0  0  0
   59.8160   34.5640   47.1880 C   0  0  0  0  0  0  0  0  0  0  0  0
   59.0400   33.5440   47.7470 C   0  0  0  0  0  0  0  0  0  0  0  0
   58.0720   32.8970   46.9740 C   0  0  0  0  0  0  0  0  0  0  0  0
   56.6470   30.8440   43.1720 C   0  0  0  0  0  0  0  0  0  0  0  0
   56.6900   29.4770   42.9030 C   0  0  0  0  0  0  0  0  0  0  0  0
   57.0000   28.5970   43.8920 N   0  0  0  0  0  0  0  0  0  0  0  0
   58.4721   28.1964   48.0198 H   0  0  0  0  0  0  0  0  0  0  0  0
   59.4528   27.3958   46.7456 H   0  0  0  0  0  0  0  0  0  0  0  0
   59.2663   29.1824   46.7456 H   0  0  0  0  0  0  0  0  0  0  0  0
   58.5238   34.5708   44.0237 H   0  0  0  0  0  0  0  0  0  0  0  0
   60.2440   35.7288   45.4101 H   0  0  0  0  0  0  0  0  0  0  0  0
   60.5731   35.0773   47.7990 H   0  0  0  0  0  0  0  0  0  0  0  0
   59.1916   33.2505   48.7962 H   0  0  0  0  0  0  0  0  0  0  0  0
   57.4696   32.0887   47.4142 H   0  0  0  0  0  0  0  0  0  0  0  0
   56.4048   31.5652   42.3775 H   0  0  0  0  0  0  0  0  0  0  0  0
   56.4728   29.1096   41.8892 H   0  0  0  0  0  0  0  0  0  0  0  0
   57.0290   27.5750   43.6790 H   0  0  0  0  0  0  0  0  0  0  0  0
  1  2  1  0
  2  3  1  0
  3  4  2  0
  4  5  1  0
  5  6  1  0
  6  7  1  0
  7  8  2  0
  8  9  1  0
  9 10  2  0
 10 11  1  0
 11 12  2  0
  5 13  2  0
 13 14  1  0
 14 15  2  0
 15  3  1  0
 12  7  1  0
  1 16  1  0
  1 17  1  0
  1 18  1  0
  8 19  1  0
  9 20  1  0
 10 21  1  0
 11 22  1  0
 12 23  1  0
 13 24  1  0
 14 25  1  0
 15 26  1  0
M  CHG  1  15   1
M  END
>  <UniqueID>  (45) 
40

>  <SMILES>  (45) 
COc1nc(Oc2ccccc2)cc[nH+]1

>  <Energy>  (45) 
31.338161018282104

>  <Genealogy>  (45) 
COc1nc(Oc2ccccc2)cc[nH+]1 (protonated)
COc1nc(Oc2ccccc2)cc[nH+]1 (3D coordinates assigned)
COc1nc(Oc2ccccc2)cc[nH+]1 (optimized conformer: 31.338161018282104 kcal/mol)

>  <smiles>  (45) 
COc1nccc(Oc2ccccc2)n1

>  <score_type>  (45) 
oracle

>  <origin>  (45) 
adg

>  <m_score__min__energy>  (45) 
-4.2300000000000004

>  <m_primary>  (45) 
energy

$$$$
45:0
     RDKit          3D

 39 40  0  0  0  0  0  0  0  0999 V2000
   58.1840   27.0760   43.4030 C   0  0  0  0  0  0  0  0  0  0  0  0
   57.3400   27.7920   44.3790 N   0  0  0  0  0  0  0  0  0  0  0  0
   57.7110   29.2240   44.4300 C   0  0  0  0  0  0  0  0  0  0  0  0
   56.5150   30.0860   44.7170 C   0  0  0  0  0  0  0  0  0  0  0  0
   55.3880   29.5440   44.8800 O   0  0  0  0  0  0  0  0  0  0  0  0
   56.6560   31.5080   44.8050 N   0  0  0  0  0  0  0  0  0  0  0  0
   57.6420   32.2100   45.5740 C   0  0  0  0  0  0  0  0  0  0  0  0
   57.8070   33.5870   45.3610 C   0  0  0  0  0  0  0  0  0  0  0  0
   57.0740   34.2230   44.4120 F   0  0  0  0  0  0  0  0  0  0  0  0
   58.7330   34.3120   46.1180 C   0  0  0  0  0  0  0  0  0  0  0  0
   59.4870   33.6710   47.1030 C   0  0  0  0  0  0  0  0  0  0  0  0
   59.3080   32.3060   47.3430 C   0  0  0  0  0  0  0  0  0  0  0  0
   58.3840   31.5740   46.5890 C   0  0  0  0  0  0  0  0  0  0  0  0
   58.1730   30.2700   46.8950 F   0  0  0  0  0  0  0  0  0  0  0  0
   57.4780   27.1600   45.7080 C   0  0  0  0  0  0  0  0  0  0  0  0
   56.3240   26.2360   46.0120 C   0  0  0  0  0  0  0  0  0  0  0  0
   55.1560   26.7070   46.0010 O   0  0  0  0  0  0  0  0  0  0  0  0
   56.4950   24.8370   46.2860 N   0  0  0  0  0  0  0  0  0  0  0  0
   56.8960   23.8200   45.3570 C   0  0  0  0  0  0  0  0  0  0  0  0
   55.9300   23.2630   44.5060 C   0  0  0  0  0  0  0  0  0  0  0  0
   54.6490   23.7090   44.5410 F   0  0  0  0  0  0  0  0  0  0  0  0
   56.2860   22.2640   43.5940 C   0  0  0  0  0  0  0  0  0  0  0  0
   57.6050   21.8060   43.5380 C   0  0  0  0  0  0  0  0  0  0  0  0
   58.5630   22.3270   44.4100 C   0  0  0  0  0  0  0  0  0  0  0  0
   58.2110   23.3210   45.3300 C   0  0  0  0  0  0  0  0  0  0  0  0
   59.1340   23.7440   46.2280 F   0  0  0  0  0  0  0  0  0  0  0  0
   58.9168   26.4544   43.9383 H   0  0  0  0  0  0  0  0  0  0  0  0
   57.5512   26.4351   42.7716 H   0  0  0  0  0  0  0  0  0  0  0  0
   58.7132   27.8049   42.7716 H   0  0  0  0  0  0  0  0  0  0  0  0
   58.4588   29.3727   45.2229 H   0  0  0  0  0  0  0  0  0  0  0  0
   58.1207   29.5123   43.4507 H   0  0  0  0  0  0  0  0  0  0  0  0
   58.8675   35.3887   45.9371 H   0  0  0  0  0  0  0  0  0  0  0  0
   60.2222   34.2407   47.6903 H   0  0  0  0  0  0  0  0  0  0  0  0
   59.8952   31.8055   48.1270 H   0  0  0  0  0  0  0  0  0  0  0  0
   58.4132   26.5813   45.7317 H   0  0  0  0  0  0  0  0  0  0  0  0
   57.4867   27.9569   46.4662 H   0  0  0  0  0  0  0  0  0  0  0  0
   55.5273   21.8387   42.9206 H   0  0  0  0  0  0  0  0  0  0  0  0
   57.8887   21.0348   42.8067 H   0  0  0  0  0  0  0  0  0  0  0  0
   59.5975   21.9550   44.3737 H   0  0  0  0  0  0  0  0  0  0  0  0
  1  2  1  0
  2  3  1  0
  3  4  1  0
  4  5  2  0
  4  6  1  0
  6  7  1  0
  7  8  2  0
  8  9  1  0
  8 10  1  0
 10 11  2  0
 11 12  1  0
 12 13  2  0
 13 14  1  0
  2 15  1  0
 15 16  1  0
 16 17  2  0
 16 18  1  0
 18 19  1  0
 19 20  2  0
 20 21  1  0
 20 22  1  0
 22 23  2  0
 23 24  1  0
 24 25  2  0
 25 26  1  0
 13  7  1  0
 25 19  1  0
  1 27  1  0
  1 28  1  0
  1 29  1  0
  3 30  1  0
  3 31  1  0
 10 32  1  0
 11 33  1  0
 12 34  1  0
 15 35  1  0
 15 36  1  0
 22 37  1  0
 23 38  1  0
 24 39  1  0
M  CHG  2   6  -1  18  -1
M  END
>  <UniqueID>  (46) 
41

>  <SMILES>  (46) 
CN(CC(=O)[N-]c1c(F)cccc1F)CC(=O)[N-]c1c(F)cccc1F

>  <Energy>  (46) 
48.1162612703046

>  <Genealogy>  (46) 
CN(CC(=O)[N-]c1c(F)cccc1F)CC(=O)[N-]c1c(F)cccc1F (protonated)
CN(CC(=O)[N-]c1c(F)cccc1F)CC(=O)[N-]c1c(F)cccc1F (3D coordinates assigned)
CN(CC(=O)[N-]c1c(F)cccc1F)CC(=O)[N-]c1c(F)cccc1F (optimized conformer: 48.1162612703046 kcal/mol)

>  <smiles>  (46) 
CN(CC(=O)Nc1c(F)cccc1F)CC(=O)Nc1c(F)cccc1F

>  <score_type>  (46) 
oracle

>  <origin>  (46) 
adg

>  <m_score__min__energy>  (46) 
-10.890000000000001

>  <m_primary>  (46) 
energy

$$$$
46:0
     RDKit          3D

 37 38  0  0  1  0  0  0  0  0999 V2000
   59.3280   34.6050   46.3200 C   0  0  0  0  0  0  0  0  0  0  0  0
   58.2460   33.8090   47.0110 C   0  0  0  0  0  0  0  0  0  0  0  0
   57.1580   33.4790   46.0980 N   0  0  0  0  0  0  0  0  0  0  0  0
   57.4000   32.5290   45.2320 C   0  0  0  0  0  0  0  0  0  0  0  0
   57.6830   32.8600   43.9410 C   0  0  0  0  0  0  0  0  0  0  0  0
   57.9420   31.8800   43.0050 C   0  0  0  0  0  0  0  0  0  0  0  0
   58.2400   32.3360   41.6210 C   0  0  0  0  0  0  0  0  0  0  0  0
   57.0390   32.3570   40.7340 C   0  0  0  0  0  0  0  0  0  0  0  0
   57.9180   30.5890   43.3710 N   0  0  0  0  0  0  0  0  0  0  0  0
   57.6390   30.2770   44.6470 C   0  0  0  0  0  0  0  0  0  0  0  0
   57.5960   28.9230   45.1090 N   0  0  0  0  0  0  0  0  0  0  0  0
   56.4760   28.2100   45.2560 N   0  0  0  0  0  0  0  0  0  0  0  0
   56.7770   26.9810   45.7050 C   0  0  0  0  0  0  0  0  0  0  0  0
   55.8960   25.8350   46.0210 C   0  0  0  0  0  0  0  0  0  0  0  0
   58.1560   26.9290   45.8430 C   0  0  0  0  0  0  0  0  0  0  0  0
   58.6600   28.1690   45.4610 C   0  0  0  0  0  0  0  0  0  0  0  0
   60.1020   28.5640   45.4510 C   0  0  0  0  0  0  0  0  0  0  0  0
   57.3830   31.2280   45.5730 N   0  0  0  0  0  0  0  0  0  0  0  0
   59.9728   35.0793   47.0745 H   0  0  0  0  0  0  0  0  0  0  0  0
   59.9318   33.9342   45.6912 H   0  0  0  0  0  0  0  0  0  0  0  0
   58.8673   35.3811   45.6912 H   0  0  0  0  0  0  0  0  0  0  0  0
   58.6814   32.8766   47.3996 H   0  0  0  0  0  0  0  0  0  0  0  0
   57.8365   34.4210   47.8281 H   0  0  0  0  0  0  0  0  0  0  0  0
   57.7052   33.9184   43.6422 H   0  0  0  0  0  0  0  0  0  0  0  0
   58.6552   33.3534   41.6705 H   0  0  0  0  0  0  0  0  0  0  0  0
   58.9521   31.6181   41.1879 H   0  0  0  0  0  0  0  0  0  0  0  0
   56.1281   32.3729   41.3505 H   0  0  0  0  0  0  0  0  0  0  0  0
   57.0678   33.2548   40.0990 H   0  0  0  0  0  0  0  0  0  0  0  0
   57.0364   31.4588   40.0990 H   0  0  0  0  0  0  0  0  0  0  0  0
   58.1130   29.8550   42.6740 H   0  0  0  0  0  0  0  0  0  0  0  0
   55.8127   25.7266   47.1125 H   0  0  0  0  0  0  0  0  0  0  0  0
   54.8981   26.0106   45.5927 H   0  0  0  0  0  0  0  0  0  0  0  0
   56.3222   24.9158   45.5927 H   0  0  0  0  0  0  0  0  0  0  0  0
   58.7435   26.0664   46.1905 H   0  0  0  0  0  0  0  0  0  0  0  0
   60.4623   28.6627   46.4856 H   0  0  0  0  0  0  0  0  0  0  0  0
   60.6896   27.7937   44.9300 H   0  0  0  0  0  0  0  0  0  0  0  0
   60.2150   29.5262   44.9300 H   0  0  0  0  0  0  0  0  0  0  0  0
  1  2  1  0
  2  3  1  0
  3  4  2  0
  4  5  1  0
  5  6  2  0
  6  7  1  0
  7  8  1  0
  6  9  1  0
  9 10  1  0
 10 11  1  0
 11 12  1  0
 12 13  2  0
 13 14  1  0
 13 15  1  0
 15 16  2  0
 16 17  1  0
 10 18  2  0
 18  4  1  0
 16 11  1  0
  1 19  1  0
  1 20  1  0
  1 21  1  0
  2 22  1  0
  2 23  1  0
  5 24  1  0
  7 25  1  0
  7 26  1  0
  8 27  1  0
  8 28  1  0
  8 29  1  0
  9 30  1  0
 14 31  1  0
 14 32  1  0
 14 33  1  0
 15 34  1  0
 17 35  1  0
 17 36  1  0
 17 37  1  0
M  END
>  <smiles>  (47) 
CCN=c1cc(CC)[nH]c(-n2nc(C)cc2C)n1

>  <score_type>  (47) 
oracle

>  <origin>  (47) 
adg

>  <m_score__min__energy>  (47) 
-6.8499999999999996

>  <m_primary>  (47) 
energy

$$$$
47:0
     RDKit          3D

 31 31  0  0  0  0  0  0  0  0999 V2000
   58.6810   25.1640   46.6320 C   0  0  0  0  0  0  0  0  0  0  0  0
   58.4420   26.5970   46.2330 C   0  0  0  0  0  0  0  0  0  0  0  0
   59.5180   27.4820   46.1560 C   0  0  0  0  0  0  0  0  0  0  0  0
   59.3150   28.8210   45.7900 C   0  0  0  0  0  0  0  0  0  0  0  0
   60.5350   29.7060   45.6590 C   0  0  0  0  0  0  0  0  0  0  0  0
   58.0440   29.2710   45.4890 N   0  0  0  0  0  0  0  0  0  0  0  0
   57.8070   30.6900   45.1290 C   0  0  0  0  0  0  0  0  0  0  0  0
   57.8950   30.9170   43.6000 C   0  0  0  0  0  0  0  0  0  0  0  0
   56.6330   30.3800   42.9130 C   0  0  0  0  0  0  0  0  0  0  0  0
   58.0890   32.3990   43.2510 C   0  0  0  0  0  0  0  0  0  0  0  0
   56.9770   28.4010   45.5350 C   0  0  0  0  0  0  0  0  0  0  0  0
   55.8150   28.8000   45.2370 O   0  0  0  0  0  0  0  0  0  0  0  0
   57.1570   27.0590   45.9110 C   0  0  0  0  0  0  0  0  0  0  0  0
   56.0190   26.1650   45.9610 C   0  0  0  0  0  0  0  0  0  0  0  0
   55.1090   25.4510   46.0010 N   0  0  0  0  0  0  0  0  0  0  0  0
   58.6940   25.0862   47.7292 H   0  0  0  0  0  0  0  0  0  0  0  0
   57.8759   24.5320   46.2291 H   0  0  0  0  0  0  0  0  0  0  0  0
   59.6477   24.8275   46.2291 H   0  0  0  0  0  0  0  0  0  0  0  0
   60.5338   27.1269   46.3841 H   0  0  0  0  0  0  0  0  0  0  0  0
   60.9034   29.9732   46.6604 H   0  0  0  0  0  0  0  0  0  0  0  0
   61.3217   29.1671   45.1107 H   0  0  0  0  0  0  0  0  0  0  0  0
   60.2670   30.6211   45.1107 H   0  0  0  0  0  0  0  0  0  0  0  0
   56.8049   30.9828   45.4755 H   0  0  0  0  0  0  0  0  0  0  0  0
   58.5854   31.2999   45.6109 H   0  0  0  0  0  0  0  0  0  0  0  0
   58.7758   30.3686   43.2347 H   0  0  0  0  0  0  0  0  0  0  0  0
   55.9039   30.0698   43.6760 H   0  0  0  0  0  0  0  0  0  0  0  0
   56.1934   31.1690   42.2851 H   0  0  0  0  0  0  0  0  0  0  0  0
   56.8967   29.5161   42.2851 H   0  0  0  0  0  0  0  0  0  0  0  0
   58.1660   32.9869   44.1776 H   0  0  0  0  0  0  0  0  0  0  0  0
   59.0106   32.5196   42.6627 H   0  0  0  0  0  0  0  0  0  0  0  0
   57.2295   32.7527   42.6627 H   0  0  0  0  0  0  0  0  0  0  0  0
  1  2  1  0
  2  3  1  0
  3  4  2  0
  4  5  1  0
  4  6  1  0
  6  7  1  0
  7  8  1  0
  8  9  1  0
  8 10  1  0
  6 11  1  0
 11 12  2  0
 11 13  1  0
 13 14  1  0
 14 15  3  0
 13  2  2  0
  1 16  1  0
  1 17  1  0
  1 18  1  0
  3 19  1  0
  5 20  1  0
  5 21  1  0
  5 22  1  0
  7 23  1  0
  7 24  1  0
  8 25  1  0
  9 26  1  0
  9 27  1  0
  9 28  1  0
 10 29  1  0
 10 30  1  0
 10 31  1  0
M  END
>  <UniqueID>  (48) 
42

>  <SMILES>  (48) 
Cc1cc(C)n(CC(C)C)c(=O)c1C#N

>  <Energy>  (48) 
29.84009720291924

>  <Genealogy>  (48) 
Cc1cc(C)n(CC(C)C)c(=O)c1C#N (3D coordinates assigned)
Cc1cc(C)n(CC(C)C)c(=O)c1C#N (optimized conformer: 29.84009720291924 kcal/mol)

>  <smiles>  (48) 
Cc1cc(C)n(CC(C)C)c(=O)c1C#N

>  <score_type>  (48) 
oracle

>  <origin>  (48) 
adg

>  <m_score__min__energy>  (48) 
-5.6799999999999997

>  <m_primary>  (48) 
energy

$$$$
48:0
     RDKit          3D

 33 35  0  0  0  0  0  0  0  0999 V2000
   56.9970   28.5850   44.9030 C   0  0  0  0  0  0  0  0  0  0  0  0
   57.5590   29.8390   45.4930 C   0  0  0  0  0  0  0  0  0  0  0  0
   58.3210   29.7910   46.6610 C   0  0  0  0  0  0  0  0  0  0  0  0
   58.8460   30.9690   47.1940 C   0  0  0  0  0  0  0  0  0  0  0  0
   58.6190   32.2150   46.5590 C   0  0  0  0  0  0  0  0  0  0  0  0
   57.8440   32.1970   45.3690 C   0  0  0  0  0  0  0  0  0  0  0  0
   57.5900   33.3810   44.6900 C   0  0  0  0  0  0  0  0  0  0  0  0
   58.0960   34.5760   45.1760 C   0  0  0  0  0  0  0  0  0  0  0  0
   58.8550   34.5860   46.3460 C   0  0  0  0  0  0  0  0  0  0  0  0
   59.3020   35.6930   46.7550 O   0  0  0  0  0  0  0  0  0  0  0  0
   59.1120   33.4200   47.0400 N   0  0  0  0  0  0  0  0  0  0  0  0
   59.9380   33.5190   48.2680 C   0  0  0  0  0  0  0  0  0  0  0  0
   61.4050   33.3670   47.9410 C   0  0  0  0  0  0  0  0  0  0  0  0
   62.2760   32.7620   48.8650 C   0  0  0  0  0  0  0  0  0  0  0  0
   63.6380   32.6360   48.5750 C   0  0  0  0  0  0  0  0  0  0  0  0
   64.1430   33.1160   47.3640 C   0  0  0  0  0  0  0  0  0  0  0  0
   63.2870   33.7200   46.4420 C   0  0  0  0  0  0  0  0  0  0  0  0
   61.9240   33.8480   46.7270 C   0  0  0  0  0  0  0  0  0  0  0  0
   57.3460   31.0310   44.8790 N   0  0  0  0  0  0  0  0  0  0  0  0
   56.6919   27.9042   45.7113 H   0  0  0  0  0  0  0  0  0  0  0  0
   56.1233   28.8315   44.2819 H   0  0  0  0  0  0  0  0  0  0  0  0
   57.7625   28.0969   44.2819 H   0  0  0  0  0  0  0  0  0  0  0  0
   58.5071   28.8283   47.1597 H   0  0  0  0  0  0  0  0  0  0  0  0
   59.4426   30.9297   48.1173 H   0  0  0  0  0  0  0  0  0  0  0  0
   56.9888   33.3706   43.7689 H   0  0  0  0  0  0  0  0  0  0  0  0
   57.8992   35.5159   44.6395 H   0  0  0  0  0  0  0  0  0  0  0  0
   59.7726   34.5007   48.7358 H   0  0  0  0  0  0  0  0  0  0  0  0
   59.6447   32.7127   48.9564 H   0  0  0  0  0  0  0  0  0  0  0  0
   61.8834   32.3858   49.8212 H   0  0  0  0  0  0  0  0  0  0  0  0
   64.3125   32.1585   49.3010 H   0  0  0  0  0  0  0  0  0  0  0  0
   65.2149   33.0179   47.1373 H   0  0  0  0  0  0  0  0  0  0  0  0
   63.6856   34.0965   45.4884 H   0  0  0  0  0  0  0  0  0  0  0  0
   61.2549   34.3275   45.9974 H   0  0  0  0  0  0  0  0  0  0  0  0
  1  2  1  0
  2  3  2  0
  3  4  1  0
  4  5  2  0
  5  6  1  0
  6  7  1  0
  7  8  2  0
  8  9  1  0
  9 10  2  0
  9 11  1  0
 11 12  1  0
 12 13  1  0
 13 14  2  0
 14 15  1  0
 15 16  2  0
 16 17  1  0
 17 18  2  0
  6 19  2  0
 19  2  1  0
 11  5  1  0
 18 13  1  0
  1 20  1  0
  1 21  1  0
  1 22  1  0
  3 23  1  0
  4 24  1  0
  7 25  1  0
  8 26  1  0
 12 27  1  0
 12 28  1  0
 14 29  1  0
 15 30  1  0
 16 31  1  0
 17 32  1  0
 18 33  1  0
M  END
>  <UniqueID>  (49) 
43

>  <SMILES>  (49) 
Cc1ccc2c(ccc(=O)n2Cc2ccccc2)n1

>  <Energy>  (49) 
45.8737340104154

>  <Genealogy>  (49) 
Cc1ccc2c(ccc(=O)n2Cc2ccccc2)n1 (3D coordinates assigned)
Cc1ccc2c(ccc(=O)n2Cc2ccccc2)n1 (optimized conformer: 45.8737340104154 kcal/mol)

>  <smiles>  (49) 
Cc1ccc2c(ccc(=O)n2Cc2ccccc2)n1

>  <score_type>  (49) 
oracle

>  <origin>  (49) 
adg

>  <m_score__min__energy>  (49) 
-7.0700000000000003

>  <m_primary>  (49) 
energy

$$$$
