0:0
     RDKit          3D

 37 39  0  0  0  0  0  0  0  0999 V2000
   59.9690   32.7350   48.7690 O   0  0  0  0  0  0  0  0  0  0  0  0
   59.7820   33.0480   47.6030 C   0  0  0  0  0  0  0  0  0  0  0  0
   58.8980   32.1770   46.7450 C   0  0  0  0  0  0  0  0  0  0  0  0
   59.0260   32.5360   45.2520 C   0  0  1  0  0  0  0  0  0  0  0  0
   58.0920   31.6950   44.4000 C   0  0  0  0  0  0  0  0  0  0  0  0
   57.8830   31.9900   43.0370 C   0  0  0  0  0  0  0  0  0  0  0  0
   57.0180   31.2050   42.2680 C   0  0  0  0  0  0  0  0  0  0  0  0
   56.3560   30.1200   42.8450 C   0  0  0  0  0  0  0  0  0  0  0  0
   56.5550   29.8170   44.1930 C   0  0  0  0  0  0  0  0  0  0  0  0
   57.4170   30.5980   44.9690 C   0  0  0  0  0  0  0  0  0  0  0  0
   58.7970   34.0400   45.0150 C   0  0  0  0  0  0  0  0  0  0  0  0
   59.6420   34.8880   45.9330 C   0  0  0  0  0  0  0  0  0  0  0  0
   59.6580   36.0990   45.7680 O   0  0  0  0  0  0  0  0  0  0  0  0
   60.4550   34.2840   47.0560 C   0  0  2  0  0  0  0  0  0  0  0  0
   62.1320   33.8380   46.4760 S   0  0  0  0  0  0  0  0  0  0  0  0
   62.8220   33.5930   48.1150 C   0  0  0  0  0  0  0  0  0  0  0  0
   62.4170   34.4110   49.1770 C   0  0  0  0  0  0  0  0  0  0  0  0
   62.9480   34.2140   50.4560 C   0  0  0  0  0  0  0  0  0  0  0  0
   63.8780   33.1940   50.6780 C   0  0  0  0  0  0  0  0  0  0  0  0
   64.2750   32.3680   49.6210 C   0  0  0  0  0  0  0  0  0  0  0  0
   63.7460   32.5640   48.3420 C   0  0  0  0  0  0  0  0  0  0  0  0
   57.8519   32.3133   47.0566 H   0  0  0  0  0  0  0  0  0  0  0  0
   59.2136   31.1314   46.8759 H   0  0  0  0  0  0  0  0  0  0  0  0
   60.0562   32.3049   44.9432 H   0  0  0  0  0  0  0  0  0  0  0  0
   58.4033   32.8425   42.5760 H   0  0  0  0  0  0  0  0  0  0  0  0
   56.8589   31.4431   41.2059 H   0  0  0  0  0  0  0  0  0  0  0  0
   55.6773   29.5036   42.2373 H   0  0  0  0  0  0  0  0  0  0  0  0
   56.0324   28.9616   44.6460 H   0  0  0  0  0  0  0  0  0  0  0  0
   57.5688   30.3539   46.0308 H   0  0  0  0  0  0  0  0  0  0  0  0
   57.7364   34.2709   45.1932 H   0  0  0  0  0  0  0  0  0  0  0  0
   59.0834   34.2697   43.9781 H   0  0  0  0  0  0  0  0  0  0  0  0
   60.5311   35.0401   47.8513 H   0  0  0  0  0  0  0  0  0  0  0  0
   61.6803   35.2096   49.0052 H   0  0  0  0  0  0  0  0  0  0  0  0
   62.6337   34.8619   51.2875 H   0  0  0  0  0  0  0  0  0  0  0  0
   64.2974   33.0410   51.6833 H   0  0  0  0  0  0  0  0  0  0  0  0
   65.0042   31.5634   49.7965 H   0  0  0  0  0  0  0  0  0  0  0  0
   64.0552   31.9102   47.5132 H   0  0  0  0  0  0  0  0  0  0  0  0
  1  2  2  0
  2  3  1  0
  3  4  1  0
  4  5  1  0
  5  6  2  0
  6  7  1  0
  7  8  2  0
  8  9  1  0
  9 10  2  0
  4 11  1  0
 11 12  1  0
 12 13  2  0
 12 14  1  0
 14 15  1  0
 15 16  1  0
 16 17  2  0
 17 18  1  0
 18 19  2  0
 19 20  1  0
 20 21  2  0
 14  2  1  0
 21 16  1  0
 10  5  1  0
  3 22  1  0
  3 23  1  0
  4 24  1  6
  6 25  1  0
  7 26  1  0
  8 27  1  0
  9 28  1  0
 10 29  1  0
 11 30  1  0
 11 31  1  0
 14 32  1  1
 17 33  1  0
 18 34  1  0
 19 35  1  0
 20 36  1  0
 21 37  1  0
M  END
>  <UniqueID>  (1) 
1

>  <SMILES>  (1) 
O=C1CC(c2ccccc2)CC(=O)C1Sc1ccccc1

>  <Energy>  (1) 
33.985577350304716

>  <Genealogy>  (1) 
O=C1CC(c2ccccc2)CC(=O)C1Sc1ccccc1 (3D coordinates assigned)
O=C1CC(c2ccccc2)CC(=O)C1Sc1ccccc1 (nonaromatic ring conformer: 33.985577350304716 kcal/mol)

>  <smiles>  (1) 
O=C1CC(c2ccccc2)CC(=O)C1Sc1ccccc1

>  <score_type>  (1) 
oracle

>  <origin>  (1) 
adg

>  <m_score__min__energy>  (1) 
-8.0099999999999998

>  <m_primary>  (1) 
energy

$$$$
1:0
     RDKit          3D

 42 44  0  0  0  0  0  0  0  0999 V2000
   64.3490   33.0300   49.0100 C   0  0  0  0  0  0  0  0  0  0  0  0
   63.4190   34.2030   48.7150 C   0  0  0  0  0  0  0  0  0  0  0  0
   62.0690   33.7170   48.3900 N   0  0  0  0  0  0  0  0  0  0  0  0
   61.1120   33.5130   49.4840 C   0  0  0  0  0  0  0  0  0  0  0  0
   59.7950   34.2390   49.1990 C   0  0  0  0  0  0  0  0  0  0  0  0
   58.8220   33.4630   48.5260 O   0  0  0  0  0  0  0  0  0  0  0  0
   59.3120   32.5970   47.5080 C   0  0  1  0  0  0  0  0  0  0  0  0
   58.0880   32.1070   46.6970 C   0  0  0  0  0  0  0  0  0  0  0  0
   57.6210   33.0670   45.6510 N   0  0  0  0  0  0  0  0  0  0  0  0
   57.7690   32.5390   44.2770 C   0  0  0  0  0  0  0  0  0  0  0  0
   57.2840   31.1240   44.2100 C   0  0  0  0  0  0  0  0  0  0  0  0
   58.0660   29.9890   44.1880 C   0  0  0  0  0  0  0  0  0  0  0  0
   57.1810   28.9340   44.0960 C   0  0  0  0  0  0  0  0  0  0  0  0
   55.9480   29.3890   44.0610 O   0  0  0  0  0  0  0  0  0  0  0  0
   55.9740   30.7010   44.1250 C   0  0  0  0  0  0  0  0  0  0  0  0
   58.1730   34.4350   45.7840 C   0  0  0  0  0  0  0  0  0  0  0  0
   59.7160   34.4610   45.8050 C   0  0  0  0  0  0  0  0  0  0  0  0
   60.3130   33.2250   46.5070 C   0  0  1  0  0  0  0  0  0  0  0  0
   61.7250   33.4700   47.0050 C   0  0  0  0  0  0  0  0  0  0  0  0
   62.6380   33.5080   46.1330 O   0  0  0  0  0  0  0  0  0  0  0  0
   64.4479   32.9052   50.0984 H   0  0  0  0  0  0  0  0  0  0  0  0
   63.9310   32.1115   48.5721 H   0  0  0  0  0  0  0  0  0  0  0  0
   65.3386   33.2275   48.5721 H   0  0  0  0  0  0  0  0  0  0  0  0
   63.3664   34.8553   49.5992 H   0  0  0  0  0  0  0  0  0  0  0  0
   63.8134   34.7639   47.8548 H   0  0  0  0  0  0  0  0  0  0  0  0
   60.9137   32.4365   49.5932 H   0  0  0  0  0  0  0  0  0  0  0  0
   61.5445   33.9195   50.4101 H   0  0  0  0  0  0  0  0  0  0  0  0
   59.3688   34.5638   50.1596 H   0  0  0  0  0  0  0  0  0  0  0  0
   60.0418   35.0750   48.5281 H   0  0  0  0  0  0  0  0  0  0  0  0
   59.8687   31.8025   48.0266 H   0  0  0  0  0  0  0  0  0  0  0  0
   58.3579   31.1624   46.2022 H   0  0  0  0  0  0  0  0  0  0  0  0
   57.2604   31.9925   47.4126 H   0  0  0  0  0  0  0  0  0  0  0  0
   57.1794   33.1580   43.5847 H   0  0  0  0  0  0  0  0  0  0  0  0
   58.8319   32.5671   43.9950 H   0  0  0  0  0  0  0  0  0  0  0  0
   59.1637   29.9355   44.2341 H   0  0  0  0  0  0  0  0  0  0  0  0
   57.4647   27.8719   44.0577 H   0  0  0  0  0  0  0  0  0  0  0  0
   55.0915   31.3576   44.1127 H   0  0  0  0  0  0  0  0  0  0  0  0
   57.8234   35.0387   44.9335 H   0  0  0  0  0  0  0  0  0  0  0  0
   57.8231   34.8400   46.7450 H   0  0  0  0  0  0  0  0  0  0  0  0
   60.0833   34.4909   44.7686 H   0  0  0  0  0  0  0  0  0  0  0  0
   60.0297   35.3521   46.3685 H   0  0  0  0  0  0  0  0  0  0  0  0
   60.4602   32.4272   45.7641 H   0  0  0  0  0  0  0  0  0  0  0  0
  1  2  1  0
  2  3  1  0
  3  4  1  0
  4  5  1  0
  5  6  1  0
  6  7  1  0
  7  8  1  0
  8  9  1  0
  9 10  1  0
 10 11  1  0
 11 12  1  0
 12 13  2  0
 13 14  1  0
 14 15  1  0
  9 16  1  0
 16 17  1  0
 17 18  1  0
 18 19  1  0
 19 20  2  0
 19  3  1  0
 18  7  1  0
 15 11  2  0
  1 21  1  0
  1 22  1  0
  1 23  1  0
  2 24  1  0
  2 25  1  0
  4 26  1  0
  4 27  1  0
  5 28  1  0
  5 29  1  0
  7 30  1  1
  8 31  1  0
  8 32  1  0
 10 33  1  0
 10 34  1  0
 12 35  1  0
 13 36  1  0
 15 37  1  0
 16 38  1  0
 16 39  1  0
 17 40  1  0
 17 41  1  0
 18 42  1  6
M  END
>  <UniqueID>  (2) 
2

>  <SMILES>  (2) 
CCN1CCO[C@H]2CN(Cc3ccoc3)CC[C@H]2C1=O

>  <Energy>  (2) 
92.63351567774664

>  <Genealogy>  (2) 
CCN1CCO[C@H]2CN(Cc3ccoc3)CC[C@H]2C1=O (chirality)
CCN1CCO[C@H]2CN(Cc3ccoc3)CC[C@H]2C1=O (3D coordinates assigned)
CCN1CCO[C@H]2CN(Cc3ccoc3)CC[C@H]2C1=O (nonaromatic ring conformer: 92.63351567774664 kcal/mol)

>  <smiles>  (2) 
CCN1CCOC2CN(Cc3ccoc3)CCC2C1=O

>  <score_type>  (2) 
oracle

>  <origin>  (2) 
adg

>  <m_score__min__energy>  (2) 
-5.0300000000000002

>  <m_primary>  (2) 
energy

$$$$
2:0
     RDKit          3D

 43 44  0  0  0  0  0  0  0  0999 V2000
   55.8900   23.7190   43.7690 C   0  0  0  0  0  0  0  0  0  0  0  0
   56.6340   24.8260   44.5060 C   0  0  0  0  0  0  0  0  0  0  0  0
   55.7610   25.3600   45.9800 S   0  0  0  0  0  0  0  0  0  0  0  0
   54.4340   25.9670   45.6160 O   0  0  0  0  0  0  0  0  0  0  0  0
   55.5170   24.1560   46.8450 O   0  0  0  0  0  0  0  0  0  0  0  0
   56.7090   26.5040   46.8830 N   0  0  0  0  0  0  0  0  0  0  0  0
   58.1210   26.3930   46.5090 C   0  0  0  0  0  0  0  0  0  0  0  0
   58.8400   27.7370   46.6760 C   0  0  0  0  0  0  0  0  0  0  0  0
   57.9300   28.8860   46.6060 N   0  0  0  0  0  0  0  0  0  0  0  0
   57.1840   29.0680   45.0420 S   0  0  0  0  0  0  0  0  0  0  0  0
   57.7590   28.0330   44.1160 O   0  0  0  0  0  0  0  0  0  0  0  0
   55.7170   28.7870   45.1970 O   0  0  0  0  0  0  0  0  0  0  0  0
   57.5200   30.6720   44.3430 C   0  0  0  0  0  0  0  0  0  0  0  0
   57.3020   30.8040   42.9640 C   0  0  0  0  0  0  0  0  0  0  0  0
   57.6050   31.9900   42.3020 C   0  0  0  0  0  0  0  0  0  0  0  0
   58.1370   33.0650   43.0040 C   0  0  0  0  0  0  0  0  0  0  0  0
   58.3540   32.9770   44.3860 C   0  0  0  0  0  0  0  0  0  0  0  0
   57.9940   31.7920   45.0870 C   0  0  0  0  0  0  0  0  0  0  0  0
   58.1730   31.7150   46.5940 C   0  0  0  0  0  0  0  0  0  0  0  0
   58.4270   33.0670   47.2650 C   0  0  0  0  0  0  0  0  0  0  0  0
   59.4510   33.8720   46.4760 C   0  0  0  0  0  0  0  0  0  0  0  0
   58.8930   34.1980   45.0940 C   0  0  0  0  0  0  0  0  0  0  0  0
   55.4312   23.0363   44.4994 H   0  0  0  0  0  0  0  0  0  0  0  0
   55.1054   24.1618   43.1378 H   0  0  0  0  0  0  0  0  0  0  0  0
   56.5963   23.1598   43.1378 H   0  0  0  0  0  0  0  0  0  0  0  0
   57.6270   24.4530   44.7973 H   0  0  0  0  0  0  0  0  0  0  0  0
   56.7150   25.6890   43.8287 H   0  0  0  0  0  0  0  0  0  0  0  0
   56.3730   27.4550   46.6040 H   0  0  0  0  0  0  0  0  0  0  0  0
   58.6057   25.6433   47.1517 H   0  0  0  0  0  0  0  0  0  0  0  0
   58.1816   26.0916   45.4528 H   0  0  0  0  0  0  0  0  0  0  0  0
   59.3424   27.7467   47.6545 H   0  0  0  0  0  0  0  0  0  0  0  0
   59.5558   27.8328   45.8463 H   0  0  0  0  0  0  0  0  0  0  0  0
   56.8856   29.9580   42.3975 H   0  0  0  0  0  0  0  0  0  0  0  0
   57.4230   32.0768   41.2206 H   0  0  0  0  0  0  0  0  0  0  0  0
   58.3900   33.9930   42.4704 H   0  0  0  0  0  0  0  0  0  0  0  0
   57.2605   31.2803   47.0281 H   0  0  0  0  0  0  0  0  0  0  0  0
   59.0662   31.0991   46.7754 H   0  0  0  0  0  0  0  0  0  0  0  0
   57.4832   33.6301   47.3127 H   0  0  0  0  0  0  0  0  0  0  0  0
   58.8172   32.8926   48.2786 H   0  0  0  0  0  0  0  0  0  0  0  0
   59.6722   34.8072   47.0112 H   0  0  0  0  0  0  0  0  0  0  0  0
   60.3732   33.2823   46.3672 H   0  0  0  0  0  0  0  0  0  0  0  0
   58.0790   34.9294   45.2056 H   0  0  0  0  0  0  0  0  0  0  0  0
   59.7172   34.6004   44.4867 H   0  0  0  0  0  0  0  0  0  0  0  0
  1  2  1  0
  2  3  1  0
  3  4  2  0
  3  5  2  0
  3  6  1  0
  6  7  1  0
  7  8  1  0
  8  9  1  0
  9 10  1  0
 10 11  2  0
 10 12  2  0
 10 13  1  0
 13 14  2  0
 14 15  1  0
 15 16  2  0
 16 17  1  0
 17 18  2  0
 18 19  1  0
 19 20  1  0
 20 21  1  0
 21 22  1  0
 18 13  1  0
 22 17  1  0
  1 23  1  0
  1 24  1  0
  1 25  1  0
  2 26  1  0
  2 27  1  0
  6 28  1  0
  7 29  1  0
  7 30  1  0
  8 31  1  0
  8 32  1  0
 14 33  1  0
 15 34  1  0
 16 35  1  0
 19 36  1  0
 19 37  1  0
 20 38  1  0
 20 39  1  0
 21 40  1  0
 21 41  1  0
 22 42  1  0
 22 43  1  0
M  CHG  1   9  -1
M  END
>  <UniqueID>  (3) 
3

>  <SMILES>  (3) 
CCS(=O)(=O)NCC[N-]S(=O)(=O)c1cccc2c1CCCC2

>  <Energy>  (3) 
34.78529728413214

>  <Genealogy>  (3) 
CCS(=O)(=O)NCC[N-]S(=O)(=O)c1cccc2c1CCCC2 (protonated)
CCS(=O)(=O)NCC[N-]S(=O)(=O)c1cccc2c1CCCC2 (3D coordinates assigned)
CCS(=O)(=O)NCC[N-]S(=O)(=O)c1cccc2c1CCCC2 (nonaromatic ring conformer: 34.78529728413214 kcal/mol)

>  <smiles>  (3) 
CCS(=O)(=O)NCCNS(=O)(=O)c1cccc2c1CCCC2

>  <score_type>  (3) 
oracle

>  <origin>  (3) 
adg

>  <m_score__min__energy>  (3) 
-10.33

>  <m_primary>  (3) 
energy

$$$$
3:0
     RDKit          3D

 53 55  0  0  0  0  0  0  0  0999 V2000
   57.5524   27.4246   44.9445 H   0  0  0  0  0  0  0  0  0  0  0  0
   57.4180   28.4810   45.2200 C   0  0  0  0  0  0  0  0  0  0  0  0
   56.2510   29.0610   44.8930 C   0  0  0  0  0  0  0  0  0  0  0  0
   55.3319   28.4900   45.0911 H   0  0  0  0  0  0  0  0  0  0  0  0
   56.0940   30.4360   44.2740 C   0  0  0  0  0  0  0  0  0  0  0  0
   55.1488   30.8734   44.6281 H   0  0  0  0  0  0  0  0  0  0  0  0
   56.1047   30.3068   43.1817 H   0  0  0  0  0  0  0  0  0  0  0  0
   57.1990   31.3590   44.6200 N   0  0  0  0  0  0  0  0  0  0  0  0
   56.7180   32.6140   45.2450 C   0  0  0  0  0  0  0  0  0  0  0  0
   56.2617   33.2475   44.4701 H   0  0  0  0  0  0  0  0  0  0  0  0
   55.9825   32.3542   46.0206 H   0  0  0  0  0  0  0  0  0  0  0  0
   57.8480   33.3740   45.8980 C   0  0  0  0  0  0  0  0  0  0  0  0
   58.5700   34.3340   45.1730 C   0  0  0  0  0  0  0  0  0  0  0  0
   58.3143   34.5343   44.1220 H   0  0  0  0  0  0  0  0  0  0  0  0
   59.6140   35.0370   45.7830 C   0  0  0  0  0  0  0  0  0  0  0  0
   60.1860   35.7782   45.2056 H   0  0  0  0  0  0  0  0  0  0  0  0
   59.9330   34.8020   47.1210 C   0  0  0  0  0  0  0  0  0  0  0  0
   60.7592   35.3539   47.5929 H   0  0  0  0  0  0  0  0  0  0  0  0
   59.2000   33.8600   47.8690 C   0  0  0  0  0  0  0  0  0  0  0  0
   59.4740   33.5930   49.2190 O   0  0  0  0  0  0  0  0  0  0  0  0
   58.8090   32.6030   49.9960 C   0  0  0  0  0  0  0  0  0  0  0  0
   58.9534   32.8179   51.0651 H   0  0  0  0  0  0  0  0  0  0  0  0
   57.7343   32.6138   49.7617 H   0  0  0  0  0  0  0  0  0  0  0  0
   59.2254   31.6122   49.7617 H   0  0  0  0  0  0  0  0  0  0  0  0
   58.1570   33.1580   47.2520 C   0  0  0  0  0  0  0  0  0  0  0  0
   57.5731   32.4294   47.8336 H   0  0  0  0  0  0  0  0  0  0  0  0
   58.0970   31.6240   43.4750 C   0  0  0  0  0  0  0  0  0  0  0  0
   58.8710   30.8436   43.4326 H   0  0  0  0  0  0  0  0  0  0  0  0
   58.5641   32.6110   43.6074 H   0  0  0  0  0  0  0  0  0  0  0  0
   57.3060   31.6200   42.1700 C   0  0  0  0  0  0  0  0  0  0  0  0
   56.2291   31.6146   42.3940 H   0  0  0  0  0  0  0  0  0  0  0  0
   57.5548   32.5194   41.5876 H   0  0  0  0  0  0  0  0  0  0  0  0
   57.5639   30.7231   41.5876 H   0  0  0  0  0  0  0  0  0  0  0  0
   58.5340   29.1470   45.9190 C   0  0  0  0  0  0  0  0  0  0  0  0
   58.3510   29.5830   47.2380 C   0  0  0  0  0  0  0  0  0  0  0  0
   57.3855   29.4188   47.7389 H   0  0  0  0  0  0  0  0  0  0  0  0
   59.3870   30.2250   47.9210 C   0  0  0  0  0  0  0  0  0  0  0  0
   59.2258   30.5769   48.9507 H   0  0  0  0  0  0  0  0  0  0  0  0
   60.6340   30.4250   47.3030 C   0  0  0  0  0  0  0  0  0  0  0  0
   61.7170   31.1580   48.0050 C   0  0  0  0  0  0  0  0  0  0  0  0
   62.5480   32.0580   47.3150 C   0  0  0  0  0  0  0  0  0  0  0  0
   62.3857   32.2397   46.2423 H   0  0  0  0  0  0  0  0  0  0  0  0
   63.5510   32.7050   47.9660 N   0  0  0  0  0  0  0  0  0  0  0  0
   63.7890   32.5090   49.2890 C   0  0  0  0  0  0  0  0  0  0  0  0
   64.6099   33.0470   49.7858 H   0  0  0  0  0  0  0  0  0  0  0  0
   62.9920   31.6250   50.0180 C   0  0  0  0  0  0  0  0  0  0  0  0
   63.1805   31.4620   51.0894 H   0  0  0  0  0  0  0  0  0  0  0  0
   61.9540   30.9500   49.3750 C   0  0  0  0  0  0  0  0  0  0  0  0
   61.3192   30.2530   49.9417 H   0  0  0  0  0  0  0  0  0  0  0  0
   60.8330   29.9320   46.0010 C   0  0  0  0  0  0  0  0  0  0  0  0
   61.8108   30.0582   45.5132 H   0  0  0  0  0  0  0  0  0  0  0  0
   59.7980   29.2830   45.3220 C   0  0  0  0  0  0  0  0  0  0  0  0
   59.9743   28.8767   44.3151 H   0  0  0  0  0  0  0  0  0  0  0  0
  1  2  1  0
  2  3  2  0
  3  4  1  0
  3  5  1  0
  5  6  1  0
  5  7  1  0
  5  8  1  0
  8  9  1  0
  9 10  1  0
  9 11  1  0
  9 12  1  0
 12 13  2  0
 13 14  1  0
 13 15  1  0
 15 16  1  0
 15 17  2  0
 17 18  1  0
 17 19  1  0
 19 20  1  0
 20 21  1  0
 21 22  1  0
 21 23  1  0
 21 24  1  0
 19 25  2  0
 25 26  1  0
  8 27  1  0
 27 28  1  0
 27 29  1  0
 27 30  1  0
 30 31  1  0
 30 32  1  0
 30 33  1  0
  2 34  1  0
 34 35  2  0
 35 36  1  0
 35 37  1  0
 37 38  1  0
 37 39  2  0
 39 40  1  0
 40 41  2  0
 41 42  1  0
 41 43  1  0
 43 44  2  0
 44 45  1  0
 44 46  1  0
 46 47  1  0
 46 48  2  0
 48 49  1  0
 39 50  1  0
 50 51  1  0
 50 52  2  0
 52 53  1  0
 25 12  1  0
 52 34  1  0
 48 40  1  0
M  END
>  <UniqueID>  (4) 
4

>  <SMILES>  (4) 
CCN(C/C=C\c1ccc(-c2cccnc2)cc1)Cc1cccc(OC)c1

>  <Energy>  (4) 
63.499727631033814

>  <Genealogy>  (4) 
CCN(C/C=C\c1ccc(-c2cccnc2)cc1)Cc1cccc(OC)c1 (cis-trans isomerization)
CCN(C/C=C\c1ccc(-c2cccnc2)cc1)Cc1cccc(OC)c1 (3D coordinates assigned)
CCN(C/C=C\c1ccc(-c2cccnc2)cc1)Cc1cccc(OC)c1 (optimized conformer: 63.499727631033814 kcal/mol)

>  <smiles>  (4) 
CCN(CC=Cc1ccc(-c2cccnc2)cc1)Cc1cccc(OC)c1

>  <score_type>  (4) 
oracle

>  <origin>  (4) 
adg

>  <m_score__min__energy>  (4) 
-8.9199999999999999

>  <m_primary>  (4) 
energy

$$$$
4:0
     RDKit          3D

 37 37  0  0  0  0  0  0  0  0999 V2000
   63.3860   32.8490   47.4630 C   0  0  0  0  0  0  0  0  0  0  0  0
   62.2710   33.6300   46.7690 C   0  0  0  0  0  0  0  0  0  0  0  0
   61.1520   33.9250   47.6820 N   0  0  0  0  0  0  0  0  0  0  0  0
   61.4080   34.2520   49.0940 C   0  0  0  0  0  0  0  0  0  0  0  0
   60.2480   33.8160   49.9850 C   0  0  0  0  0  0  0  0  0  0  0  0
   59.8610   34.2480   47.1240 C   0  0  0  0  0  0  0  0  0  0  0  0
   59.2670   35.2960   47.5030 O   0  0  0  0  0  0  0  0  0  0  0  0
   59.2080   33.3700   46.1260 C   0  0  0  0  0  0  0  0  0  0  0  0
   58.6720   33.9150   44.9470 C   0  0  0  0  0  0  0  0  0  0  0  0
   58.0500   33.0930   44.0040 C   0  0  0  0  0  0  0  0  0  0  0  0
   57.9420   31.7090   44.2230 C   0  0  0  0  0  0  0  0  0  0  0  0
   57.2630   30.8270   43.1910 C   0  0  0  0  0  0  0  0  0  0  0  0
   55.9580   30.2400   43.7400 C   0  0  0  0  0  0  0  0  0  0  0  0
   57.0190   31.5930   41.8860 C   0  0  0  0  0  0  0  0  0  0  0  0
   58.4650   31.1670   45.4110 C   0  0  0  0  0  0  0  0  0  0  0  0
   59.0880   31.9910   46.3530 C   0  0  0  0  0  0  0  0  0  0  0  0
   63.2678   32.9318   48.5535 H   0  0  0  0  0  0  0  0  0  0  0  0
   63.3312   31.7908   47.1676 H   0  0  0  0  0  0  0  0  0  0  0  0
   64.3617   33.2621   47.1676 H   0  0  0  0  0  0  0  0  0  0  0  0
   62.6825   34.5786   46.3936 H   0  0  0  0  0  0  0  0  0  0  0  0
   61.8839   33.0107   45.9464 H   0  0  0  0  0  0  0  0  0  0  0  0
   62.3235   33.7369   49.4205 H   0  0  0  0  0  0  0  0  0  0  0  0
   61.5216   35.3426   49.1820 H   0  0  0  0  0  0  0  0  0  0  0  0
   60.5360   33.9243   51.0411 H   0  0  0  0  0  0  0  0  0  0  0  0
   59.3700   34.4455   49.7780 H   0  0  0  0  0  0  0  0  0  0  0  0
   60.0020   32.7640   49.7780 H   0  0  0  0  0  0  0  0  0  0  0  0
   58.7427   34.9975   44.7650 H   0  0  0  0  0  0  0  0  0  0  0  0
   57.6413   33.5328   43.0823 H   0  0  0  0  0  0  0  0  0  0  0  0
   57.9394   29.9890   42.9668 H   0  0  0  0  0  0  0  0  0  0  0  0
   55.9846   30.2520   44.8396 H   0  0  0  0  0  0  0  0  0  0  0  0
   55.1080   30.8425   43.3872 H   0  0  0  0  0  0  0  0  0  0  0  0
   55.8448   29.2043   43.3872 H   0  0  0  0  0  0  0  0  0  0  0  0
   56.6926   32.6176   42.1178 H   0  0  0  0  0  0  0  0  0  0  0  0
   57.9504   31.6282   41.3018 H   0  0  0  0  0  0  0  0  0  0  0  0
   56.2389   31.0830   41.3018 H   0  0  0  0  0  0  0  0  0  0  0  0
   58.3832   30.0865   45.6003 H   0  0  0  0  0  0  0  0  0  0  0  0
   59.4875   31.5542   47.2801 H   0  0  0  0  0  0  0  0  0  0  0  0
  1  2  1  0
  2  3  1  0
  3  4  1  0
  4  5  1  0
  3  6  1  0
  6  7  2  0
  6  8  1  0
  8  9  2  0
  9 10  1  0
 10 11  2  0
 11 12  1  0
 12 13  1  0
 12 14  1  0
 11 15  1  0
 15 16  2  0
 16  8  1  0
  1 17  1  0
  1 18  1  0
  1 19  1  0
  2 20  1  0
  2 21  1  0
  4 22  1  0
  4 23  1  0
  5 24  1  0
  5 25  1  0
  5 26  1  0
  9 27  1  0
 10 28  1  0
 12 29  1  0
 13 30  1  0
 13 31  1  0
 13 32  1  0
 14 33  1  0
 14 34  1  0
 14 35  1  0
 15 36  1  0
 16 37  1  0
M  END
>  <UniqueID>  (5) 
5

>  <SMILES>  (5) 
CCN(CC)C(=O)c1ccc(C(C)C)cc1

>  <Energy>  (5) 
31.40381137362554

>  <Genealogy>  (5) 
CCN(CC)C(=O)c1ccc(C(C)C)cc1 (3D coordinates assigned)
CCN(CC)C(=O)c1ccc(C(C)C)cc1 (optimized conformer: 31.40381137362554 kcal/mol)

>  <smiles>  (5) 
CCN(CC)C(=O)c1ccc(C(C)C)cc1

>  <score_type>  (5) 
oracle

>  <origin>  (5) 
adg

>  <m_score__min__energy>  (5) 
-6.21

>  <m_primary>  (5) 
energy

$$$$
5:0
     RDKit          3D

 49 52  0  0  1  0  0  0  0  0999 V2000
   55.1460   26.6980   46.0010 N   0  0  0  0  0  0  0  0  0  0  0  0
   56.5260   26.5630   46.3500 C   0  0  0  0  0  0  0  0  0  0  0  0
   56.9030   25.4630   46.7730 O   0  0  0  0  0  0  0  0  0  0  0  0
   57.4460   27.6830   46.2100 C   0  0  0  0  0  0  0  0  0  0  0  0
   58.6900   27.7030   46.7990 C   0  0  0  0  0  0  0  0  0  0  0  0
   59.5730   28.7320   46.6900 C   0  0  0  0  0  0  0  0  0  0  0  0
   59.2060   29.8670   45.9250 C   0  0  0  0  0  0  0  0  0  0  0  0
   57.9780   29.8230   45.3530 C   0  0  0  0  0  0  0  0  0  0  0  0
   57.5570   30.8880   44.6020 C   0  0  0  0  0  0  0  0  0  0  0  0
   58.3000   31.8350   44.3170 N   0  0  0  0  0  0  0  0  0  0  0  0
   58.3120   33.1510   44.7250 C   0  0  0  0  0  0  0  0  0  0  0  0
   58.8000   33.4180   46.1160 C   0  0  0  0  0  0  0  0  0  0  0  0
   59.8560   34.3080   46.3580 C   0  0  0  0  0  0  0  0  0  0  0  0
   60.3120   34.5690   47.6320 C   0  0  0  0  0  0  0  0  0  0  0  0
   59.7150   33.9360   48.7030 C   0  0  0  0  0  0  0  0  0  0  0  0
   58.6810   33.0570   48.5280 C   0  0  0  0  0  0  0  0  0  0  0  0
   58.0090   32.3640   49.5590 N   0  0  0  0  0  0  0  0  0  0  0  0
   58.5310   31.3160   50.3440 C   0  0  0  0  0  0  0  0  0  0  0  0
   59.6990   30.8990   50.1680 O   0  0  0  0  0  0  0  0  0  0  0  0
   57.7650   30.6410   51.4030 C   0  0  0  0  0  0  0  0  0  0  0  0
   58.4250   29.7450   52.2170 C   0  0  0  0  0  0  0  0  0  0  0  0
   57.7650   29.0640   53.2480 C   0  0  0  0  0  0  0  0  0  0  0  0
   56.4220   29.2810   53.4720 C   0  0  0  0  0  0  0  0  0  0  0  0
   55.7860   30.1780   52.6480 C   0  0  0  0  0  0  0  0  0  0  0  0
   54.0740   30.4680   52.9170 Cl  0  0  0  0  0  0  0  0  0  0  0  0
   56.4380   30.8510   51.6300 C   0  0  0  0  0  0  0  0  0  0  0  0
   58.2610   32.8310   47.2350 C   0  0  0  0  0  0  0  0  0  0  0  0
   56.3240   30.8540   44.0440 N   0  0  0  0  0  0  0  0  0  0  0  0
   55.4740   29.8240   44.1770 C   0  0  0  0  0  0  0  0  0  0  0  0
   55.8700   28.7670   44.9040 N   0  0  0  0  0  0  0  0  0  0  0  0
   57.0900   28.7730   45.4720 C   0  0  0  0  0  0  0  0  0  0  0  0
   54.4150   26.3830   46.7050 H   0  0  0  0  0  0  0  0  0  0  0  0
   54.8310   27.0960   45.0800 H   0  0  0  0  0  0  0  0  0  0  0  0
   58.9897   26.8297   47.3970 H   0  0  0  0  0  0  0  0  0  0  0  0
   60.5535   28.6840   47.1863 H   0  0  0  0  0  0  0  0  0  0  0  0
   59.8764   30.7305   45.8029 H   0  0  0  0  0  0  0  0  0  0  0  0
   58.9583   33.7094   44.0318 H   0  0  0  0  0  0  0  0  0  0  0  0
   57.2577   33.4649   44.7225 H   0  0  0  0  0  0  0  0  0  0  0  0
   60.3346   34.8128   45.5059 H   0  0  0  0  0  0  0  0  0  0  0  0
   61.1416   35.2732   47.7932 H   0  0  0  0  0  0  0  0  0  0  0  0
   60.0785   34.1427   49.7204 H   0  0  0  0  0  0  0  0  0  0  0  0
   57.0080   32.6410   49.7890 H   0  0  0  0  0  0  0  0  0  0  0  0
   59.4969   29.5603   52.0527 H   0  0  0  0  0  0  0  0  0  0  0  0
   58.3193   28.3547   53.8801 H   0  0  0  0  0  0  0  0  0  0  0  0
   55.8828   28.7585   54.2759 H   0  0  0  0  0  0  0  0  0  0  0  0
   55.8814   31.5602   50.9998 H   0  0  0  0  0  0  0  0  0  0  0  0
   57.4297   32.1259   47.0875 H   0  0  0  0  0  0  0  0  0  0  0  0
   55.9760   31.6570   43.4690 H   0  0  0  0  0  0  0  0  0  0  0  0
   54.4812   29.8452   43.7039 H   0  0  0  0  0  0  0  0  0  0  0  0
  1  2  1  0
  2  3  2  0
  2  4  1  0
  4  5  2  0
  5  6  1  0
  6  7  2  0
  7  8  1  0
  8  9  1  0
  9 10  2  0
 10 11  1  0
 11 12  1  0
 12 13  2  0
 13 14  1  0
 14 15  2  0
 15 16  1  0
 16 17  1  0
 17 18  1  0
 18 19  2  0
 18 20  1  0
 20 21  2  0
 21 22  1  0
 22 23  2  0
 23 24  1  0
 24 25  1  0
 24 26  2  0
 16 27  2  0
  9 28  1  0
 28 29  1  0
 29 30  2  0
 30 31  1  0
 31  4  1  0
 31  8  2  0
 27 12  1  0
 26 20  1  0
  1 32  1  0
  1 33  1  0
  5 34  1  0
  6 35  1  0
  7 36  1  0
 11 37  1  0
 11 38  1  0
 13 39  1  0
 14 40  1  0
 15 41  1  0
 17 42  1  0
 21 43  1  0
 22 44  1  0
 23 45  1  0
 26 46  1  0
 27 47  1  0
 28 48  1  0
 29 49  1  0
M  END
>  <smiles>  (6) 
NC(=O)c1cccc2c(=NCc3cccc(NC(=O)c4cccc(Cl)c4)c3)[nH]cnc12

>  <score_type>  (6) 
oracle

>  <origin>  (6) 
adg

>  <m_score__min__energy>  (6) 
-10.17

>  <m_primary>  (6) 
energy

$$$$
6:0
     RDKit          3D

 56 59  0  0  0  0  0  0  0  0999 V2000
   56.9941   22.4506   42.4530 H   0  0  0  0  0  0  0  0  0  0  0  0
   56.6760   22.3290   43.4990 C   0  0  0  0  0  0  0  0  0  0  0  0
   56.6270   21.0560   44.0700 C   0  0  0  0  0  0  0  0  0  0  0  0
   56.9164   20.1762   43.4765 H   0  0  0  0  0  0  0  0  0  0  0  0
   56.2110   20.8980   45.3940 C   0  0  0  0  0  0  0  0  0  0  0  0
   56.1675   19.8920   45.8369 H   0  0  0  0  0  0  0  0  0  0  0  0
   55.8490   22.0120   46.1610 C   0  0  0  0  0  0  0  0  0  0  0  0
   55.2460   21.7500   47.8360 S   0  0  0  0  0  0  0  0  0  0  0  0
   56.6370   22.6350   48.6060 C   0  0  0  0  0  0  0  0  0  0  0  0
   56.5470   22.5778   49.7008 H   0  0  0  0  0  0  0  0  0  0  0  0
   57.5846   22.1733   48.2913 H   0  0  0  0  0  0  0  0  0  0  0  0
   56.6203   23.6889   48.2913 H   0  0  0  0  0  0  0  0  0  0  0  0
   55.9330   23.3050   45.5950 C   0  0  0  0  0  0  0  0  0  0  0  0
   55.5800   24.4800   46.3400 N   0  0  0  0  0  0  0  0  0  0  0  0
   56.2130   25.6140   46.2750 C   0  0  0  0  0  0  0  0  0  0  0  0
   55.6150   26.6780   45.6820 N   0  0  0  0  0  0  0  0  0  0  0  0
   56.2680   27.8630   45.5820 C   0  0  0  0  0  0  0  0  0  0  0  0
   55.6360   28.9470   44.9650 O   0  0  0  0  0  0  0  0  0  0  0  0
   56.2780   29.7450   43.9770 C   0  0  0  0  0  0  0  0  0  0  0  0
   56.8948   30.5116   44.4688 H   0  0  0  0  0  0  0  0  0  0  0  0
   56.9175   29.1071   43.3492 H   0  0  0  0  0  0  0  0  0  0  0  0
   55.5180   30.2331   43.3492 H   0  0  0  0  0  0  0  0  0  0  0  0
   57.5260   27.9820   46.0790 N   0  0  0  0  0  0  0  0  0  0  0  0
   58.1340   26.9260   46.6810 C   0  0  0  0  0  0  0  0  0  0  0  0
   59.3490   27.0120   47.1350 N   0  0  0  0  0  0  0  0  0  0  0  0
   60.0100   28.1950   47.6160 C   0  0  0  0  0  0  0  0  0  0  0  0
   60.4470   29.1430   46.6850 C   0  0  0  0  0  0  0  0  0  0  0  0
   60.2731   28.9738   45.6121 H   0  0  0  0  0  0  0  0  0  0  0  0
   61.1030   30.3040   47.1060 C   0  0  0  0  0  0  0  0  0  0  0  0
   61.4290   31.0468   46.3630 H   0  0  0  0  0  0  0  0  0  0  0  0
   61.3490   30.5290   48.4720 C   0  0  0  0  0  0  0  0  0  0  0  0
   62.0070   31.7360   48.9130 N   0  0  0  0  0  0  0  0  0  0  0  0
   63.2220   32.2110   48.2370 C   0  0  0  0  0  0  0  0  0  0  0  0
   63.7898   31.3486   47.8577 H   0  0  0  0  0  0  0  0  0  0  0  0
   62.9394   32.8659   47.3996 H   0  0  0  0  0  0  0  0  0  0  0  0
   64.0910   32.9980   49.2240 C   0  0  0  0  0  0  0  0  0  0  0  0
   64.3955   32.3270   50.0407 H   0  0  0  0  0  0  0  0  0  0  0  0
   64.9630   33.3815   48.6740 H   0  0  0  0  0  0  0  0  0  0  0  0
   63.3720   34.1590   49.8030 N   0  0  0  0  0  0  0  0  0  0  0  0
   63.9950   34.5640   51.0720 C   0  0  0  0  0  0  0  0  0  0  0  0
   63.4000   34.1772   51.9125 H   0  0  0  0  0  0  0  0  0  0  0  0
   65.0150   34.1559   51.1264 H   0  0  0  0  0  0  0  0  0  0  0  0
   64.0360   35.6619   51.1264 H   0  0  0  0  0  0  0  0  0  0  0  0
   61.9060   33.9670   49.9560 C   0  0  0  0  0  0  0  0  0  0  0  0
   61.5783   34.4886   50.8673 H   0  0  0  0  0  0  0  0  0  0  0  0
   61.4272   34.3729   49.0527 H   0  0  0  0  0  0  0  0  0  0  0  0
   61.4970   32.4900   50.0650 C   0  0  0  0  0  0  0  0  0  0  0  0
   61.9132   32.0651   50.9904 H   0  0  0  0  0  0  0  0  0  0  0  0
   60.3992   32.4219   50.0809 H   0  0  0  0  0  0  0  0  0  0  0  0
   60.9450   29.5550   49.4030 C   0  0  0  0  0  0  0  0  0  0  0  0
   61.1449   29.7085   50.4737 H   0  0  0  0  0  0  0  0  0  0  0  0
   60.2920   28.3940   48.9800 C   0  0  0  0  0  0  0  0  0  0  0  0
   59.9972   27.6323   49.7168 H   0  0  0  0  0  0  0  0  0  0  0  0
   57.4790   25.7410   46.7640 N   0  0  0  0  0  0  0  0  0  0  0  0
   56.3210   23.4490   44.2560 C   0  0  0  0  0  0  0  0  0  0  0  0
   56.3463   24.4490   43.7983 H   0  0  0  0  0  0  0  0  0  0  0  0
  1  2  1  0
  2  3  2  0
  3  4  1  0
  3  5  1  0
  5  6  1  0
  5  7  2  0
  7  8  1  0
  8  9  1  0
  9 10  1  0
  9 11  1  0
  9 12  1  0
  7 13  1  0
 13 14  1  0
 14 15  2  0
 15 16  1  0
 16 17  2  0
 17 18  1  0
 18 19  1  0
 19 20  1  0
 19 21  1  0
 19 22  1  0
 17 23  1  0
 23 24  1  0
 24 25  2  0
 25 26  1  0
 26 27  2  0
 27 28  1  0
 27 29  1  0
 29 30  1  0
 29 31  2  0
 31 32  1  0
 32 33  1  0
 33 34  1  0
 33 35  1  0
 33 36  1  0
 36 37  1  0
 36 38  1  0
 36 39  1  0
 39 40  1  0
 40 41  1  0
 40 42  1  0
 40 43  1  0
 39 44  1  0
 44 45  1  0
 44 46  1  0
 44 47  1  0
 47 48  1  0
 47 49  1  0
 31 50  1  0
 50 51  1  0
 50 52  2  0
 52 53  1  0
 24 54  1  0
 13 55  2  0
 55 56  1  0
 55  2  1  0
 54 15  1  0
 52 26  1  0
 47 32  1  0
M  CHG  2  23  -1  54  -1
M  END
>  <UniqueID>  (7) 
6

>  <SMILES>  (7) 
COc1n/c(=N/c2ccccc2SC)[n-]/c(=N/c2ccc(N3CCN(C)CC3)cc2)[n-]1

>  <Energy>  (7) 
77.51989385677962

>  <Genealogy>  (7) 
COc1nc(=Nc2ccccc2SC)[n-]c(=Nc2ccc(N3CCN(C)CC3)cc2)[n-]1 (protonated)
COc1n/c(=N/c2ccccc2SC)[n-]/c(=N/c2ccc(N3CCN(C)CC3)cc2)[n-]1 (cis-trans isomerization)
COc1n/c(=N/c2ccccc2SC)[n-]/c(=N/c2ccc(N3CCN(C)CC3)cc2)[n-]1 (3D coordinates assigned)
COc1n/c(=N/c2ccccc2SC)[n-]/c(=N/c2ccc(N3CCN(C)CC3)cc2)[n-]1 (nonaromatic ring conformer: 77.51989385677962 kcal/mol)

>  <smiles>  (7) 
COc1nc(=Nc2ccccc2SC)[nH]c(=Nc2ccc(N3CCN(C)CC3)cc2)[nH]1

>  <score_type>  (7) 
oracle

>  <origin>  (7) 
adg

>  <m_score__min__energy>  (7) 
-11.24

>  <m_primary>  (7) 
energy

$$$$
7:0
     RDKit          3D

 38 41  0  0  0  0  0  0  0  0999 V2000
   53.6710   26.2590   53.7840 C   0  0  0  0  0  0  0  0  0  0  0  0
   54.6480   27.2660   54.0200 O   0  0  0  0  0  0  0  0  0  0  0  0
   54.7590   28.4480   53.2720 C   0  0  0  0  0  0  0  0  0  0  0  0
   53.6620   29.0640   52.6290 C   0  0  0  0  0  0  0  0  0  0  0  0
   53.8300   30.2670   51.8960 C   0  0  0  0  0  0  0  0  0  0  0  0
   52.6750   30.9230   51.2320 C   0  0  0  0  0  0  0  0  0  0  0  0
   52.0000   30.5070   50.0990 C   0  0  0  0  0  0  0  0  0  0  0  0
   51.0130   31.3790   49.8250 N   0  0  0  0  0  0  0  0  0  0  0  0
   51.0320   32.3390   50.7370 N   0  0  0  0  0  0  0  0  0  0  0  0
   52.0300   32.0880   51.6040 C   0  0  0  0  0  0  0  0  0  0  0  0
   55.1210   30.8320   51.8160 C   0  0  0  0  0  0  0  0  0  0  0  0
   56.1470   30.1900   52.4330 N   0  0  0  0  0  0  0  0  0  0  0  0
   57.4550   30.4810   52.5570 C   0  0  0  0  0  0  0  0  0  0  0  0
   58.1470   31.6240   51.9210 C   0  0  0  0  0  0  0  0  0  0  0  0
   58.1540   32.8690   52.5730 C   0  0  0  0  0  0  0  0  0  0  0  0
   58.8060   33.9650   52.0040 C   0  0  0  0  0  0  0  0  0  0  0  0
   59.4580   33.8320   50.7780 C   0  0  0  0  0  0  0  0  0  0  0  0
   59.4540   32.6030   50.1140 C   0  0  0  0  0  0  0  0  0  0  0  0
   58.7930   31.4980   50.6690 C   0  0  0  0  0  0  0  0  0  0  0  0
   58.8560   29.9320   49.7820 S   0  0  0  0  0  0  0  0  0  0  0  0
   59.2490   30.7080   48.1830 C   0  0  0  0  0  0  0  0  0  0  0  0
   58.0740   29.5520   53.3200 N   0  0  0  0  0  0  0  0  0  0  0  0
   57.1600   28.6610   53.6910 N   0  0  0  0  0  0  0  0  0  0  0  0
   55.9990   29.0650   53.1420 C   0  0  0  0  0  0  0  0  0  0  0  0
   53.2994   25.8760   54.7459 H   0  0  0  0  0  0  0  0  0  0  0  0
   52.8345   26.6866   53.2118 H   0  0  0  0  0  0  0  0  0  0  0  0
   54.1237   25.4358   53.2118 H   0  0  0  0  0  0  0  0  0  0  0  0
   52.6648   28.6049   52.6976 H   0  0  0  0  0  0  0  0  0  0  0  0
   52.2334   29.6052   49.5140 H   0  0  0  0  0  0  0  0  0  0  0  0
   52.2914   32.7113   52.4718 H   0  0  0  0  0  0  0  0  0  0  0  0
   55.2922   31.7698   51.2672 H   0  0  0  0  0  0  0  0  0  0  0  0
   57.6415   32.9811   53.5398 H   0  0  0  0  0  0  0  0  0  0  0  0
   58.8054   34.9347   52.5234 H   0  0  0  0  0  0  0  0  0  0  0  0
   59.9755   34.6952   50.3340 H   0  0  0  0  0  0  0  0  0  0  0  0
   59.9728   32.5014   49.1494 H   0  0  0  0  0  0  0  0  0  0  0  0
   59.7398   31.6770   48.3565 H   0  0  0  0  0  0  0  0  0  0  0  0
   59.9236   30.0522   47.6131 H   0  0  0  0  0  0  0  0  0  0  0  0
   58.3211   30.8637   47.6131 H   0  0  0  0  0  0  0  0  0  0  0  0
  1  2  1  0
  2  3  1  0
  3  4  2  0
  4  5  1  0
  5  6  1  0
  6  7  1  0
  7  8  2  0
  8  9  1  0
  9 10  1  0
  5 11  2  0
 11 12  1  0
 12 13  1  0
 13 14  1  0
 14 15  2  0
 15 16  1  0
 16 17  2  0
 17 18  1  0
 18 19  2  0
 19 20  1  0
 20 21  1  0
 13 22  2  0
 22 23  1  0
 23 24  2  0
 24  3  1  0
 10  6  2  0
 24 12  1  0
 19 14  1  0
  1 25  1  0
  1 26  1  0
  1 27  1  0
  4 28  1  0
  7 29  1  0
 10 30  1  0
 11 31  1  0
 15 32  1  0
 16 33  1  0
 17 34  1  0
 18 35  1  0
 21 36  1  0
 21 37  1  0
 21 38  1  0
M  CHG  1   9  -1
M  END
>  <UniqueID>  (8) 
7

>  <SMILES>  (8) 
COc1cc(-c2cn[n-]c2)cn2c(-c3ccccc3SC)nnc12

>  <Energy>  (8) 
116.3669705033952

>  <Genealogy>  (8) 
COc1cc(-c2cn[n-]c2)cn2c(-c3ccccc3SC)nnc12 (protonated)
COc1cc(-c2cn[n-]c2)cn2c(-c3ccccc3SC)nnc12 (3D coordinates assigned)
COc1cc(-c2cn[n-]c2)cn2c(-c3ccccc3SC)nnc12 (optimized conformer: 116.3669705033952 kcal/mol)

>  <smiles>  (8) 
COc1cc(-c2cn[nH]c2)cn2c(-c3ccccc3SC)nnc12

>  <score_type>  (8) 
oracle

>  <origin>  (8) 
adg

>  <m_score__min__energy>  (8) 
-9.5299999999999994

>  <m_primary>  (8) 
energy

$$$$
8:0
     RDKit          3D

 52 55  0  0  0  0  0  0  0  0999 V2000
   57.8440   32.1930   43.3160 C   0  0  0  0  0  0  0  0  0  0  0  0
   57.4860   32.9150   44.6090 C   0  0  0  0  0  0  0  0  0  0  0  0
   58.6970   33.1610   45.4180 N   0  0  0  0  0  0  0  0  0  0  0  0
   59.2270   34.4270   45.4900 C   0  0  0  0  0  0  0  0  0  0  0  0
   58.6960   35.3870   44.8650 O   0  0  0  0  0  0  0  0  0  0  0  0
   60.3680   34.6790   46.2570 C   0  0  0  0  0  0  0  0  0  0  0  0
   60.9580   33.6490   46.9780 C   0  0  0  0  0  0  0  0  0  0  0  0
   60.3990   32.3670   46.9470 C   0  0  0  0  0  0  0  0  0  0  0  0
   60.9280   31.2880   47.6820 C   0  0  0  0  0  0  0  0  0  0  0  0
   62.0620   31.4480   48.5430 N   0  0  0  0  0  0  0  0  0  0  0  0
   63.3220   31.9400   47.9690 C   0  0  0  0  0  0  0  0  0  0  0  0
   64.3020   32.3870   49.0550 C   0  0  0  0  0  0  0  0  0  0  0  0
   64.3090   31.4670   50.1280 O   0  0  0  0  0  0  0  0  0  0  0  0
   63.0790   31.5580   50.8160 C   0  0  0  0  0  0  0  0  0  0  0  0
   61.9230   31.0440   49.9510 C   0  0  0  0  0  0  0  0  0  0  0  0
   60.3580   30.0610   47.5730 N   0  0  0  0  0  0  0  0  0  0  0  0
   59.2770   29.8430   46.7800 C   0  0  0  0  0  0  0  0  0  0  0  0
   58.6970   28.4830   46.6610 C   0  0  0  0  0  0  0  0  0  0  0  0
   57.6450   28.2280   45.7600 C   0  0  0  0  0  0  0  0  0  0  0  0
   57.0770   26.9530   45.6730 C   0  0  0  0  0  0  0  0  0  0  0  0
   57.5350   25.9130   46.4980 C   0  0  0  0  0  0  0  0  0  0  0  0
   56.9610   24.5960   46.4430 N   0  0  0  0  0  0  0  0  0  0  0  0
   55.5730   24.3340   46.1590 C   0  0  0  0  0  0  0  0  0  0  0  0
   55.0850   22.9250   46.0720 C   0  0  0  0  0  0  0  0  0  0  0  0
   54.7560   25.2770   45.9920 O   0  0  0  0  0  0  0  0  0  0  0  0
   58.6080   26.1550   47.3660 C   0  0  0  0  0  0  0  0  0  0  0  0
   59.1810   27.4270   47.4540 C   0  0  0  0  0  0  0  0  0  0  0  0
   58.7420   30.8780   46.0810 N   0  0  0  0  0  0  0  0  0  0  0  0
   59.2630   32.1350   46.1390 C   0  0  0  0  0  0  0  0  0  0  0  0
   58.3211   31.2307   43.5534 H   0  0  0  0  0  0  0  0  0  0  0  0
   56.9300   32.0145   42.7305 H   0  0  0  0  0  0  0  0  0  0  0  0
   58.5393   32.8125   42.7305 H   0  0  0  0  0  0  0  0  0  0  0  0
   57.0113   33.8772   44.3665 H   0  0  0  0  0  0  0  0  0  0  0  0
   56.7942   32.2853   45.1876 H   0  0  0  0  0  0  0  0  0  0  0  0
   60.7978   35.6910   46.2895 H   0  0  0  0  0  0  0  0  0  0  0  0
   61.8634   33.8410   47.5725 H   0  0  0  0  0  0  0  0  0  0  0  0
   63.7848   31.1336   47.3812 H   0  0  0  0  0  0  0  0  0  0  0  0
   63.0935   32.8091   47.3346 H   0  0  0  0  0  0  0  0  0  0  0  0
   65.3130   32.4498   48.6260 H   0  0  0  0  0  0  0  0  0  0  0  0
   63.9874   33.3708   49.4334 H   0  0  0  0  0  0  0  0  0  0  0  0
   63.1358   30.9554   51.7345 H   0  0  0  0  0  0  0  0  0  0  0  0
   62.8914   32.6146   51.0575 H   0  0  0  0  0  0  0  0  0  0  0  0
   61.9016   29.9455   50.0042 H   0  0  0  0  0  0  0  0  0  0  0  0
   60.9906   31.4810   50.3379 H   0  0  0  0  0  0  0  0  0  0  0  0
   57.2670   29.0384   45.1194 H   0  0  0  0  0  0  0  0  0  0  0  0
   56.2664   26.7636   44.9539 H   0  0  0  0  0  0  0  0  0  0  0  0
   57.5530   23.7900   46.7530 H   0  0  0  0  0  0  0  0  0  0  0  0
   54.9454   22.5220   47.0860 H   0  0  0  0  0  0  0  0  0  0  0  0
   54.1264   22.9016   45.5330 H   0  0  0  0  0  0  0  0  0  0  0  0
   55.8238   22.3137   45.5330 H   0  0  0  0  0  0  0  0  0  0  0  0
   59.0035   25.3358   47.9844 H   0  0  0  0  0  0  0  0  0  0  0  0
   60.0160   27.6032   48.1481 H   0  0  0  0  0  0  0  0  0  0  0  0
  1  2  1  0
  2  3  1  0
  3  4  1  0
  4  5  2  0
  4  6  1  0
  6  7  2  0
  7  8  1  0
  8  9  2  0
  9 10  1  0
 10 11  1  0
 11 12  1  0
 12 13  1  0
 13 14  1  0
 14 15  1  0
  9 16  1  0
 16 17  2  0
 17 18  1  0
 18 19  2  0
 19 20  1  0
 20 21  2  0
 21 22  1  0
 22 23  1  0
 23 24  1  0
 23 25  2  0
 21 26  1  0
 26 27  2  0
 17 28  1  0
 28 29  2  0
 29  3  1  0
 29  8  1  0
 15 10  1  0
 27 18  1  0
  1 30  1  0
  1 31  1  0
  1 32  1  0
  2 33  1  0
  2 34  1  0
  6 35  1  0
  7 36  1  0
 11 37  1  0
 11 38  1  0
 12 39  1  0
 12 40  1  0
 14 41  1  0
 14 42  1  0
 15 43  1  0
 15 44  1  0
 19 45  1  0
 20 46  1  0
 22 47  1  0
 24 48  1  0
 24 49  1  0
 24 50  1  0
 26 51  1  0
 27 52  1  0
M  END
>  <UniqueID>  (9) 
8

>  <SMILES>  (9) 
CCn1c(=O)ccc2c(N3CCOCC3)nc(-c3ccc(NC(C)=O)cc3)nc21

>  <Energy>  (9) 
71.84816020335923

>  <Genealogy>  (9) 
CCn1c(=O)ccc2c(N3CCOCC3)nc(-c3ccc(NC(C)=O)cc3)nc21 (3D coordinates assigned)
CCn1c(=O)ccc2c(N3CCOCC3)nc(-c3ccc(NC(C)=O)cc3)nc21 (nonaromatic ring conformer: 71.84816020335923 kcal/mol)

>  <smiles>  (9) 
CCn1c(=O)ccc2c(N3CCOCC3)nc(-c3ccc(NC(C)=O)cc3)nc21

>  <score_type>  (9) 
oracle

>  <origin>  (9) 
adg

>  <m_score__min__energy>  (9) 
-7.8200000000000003

>  <m_primary>  (9) 
energy

$$$$
9:0
     RDKit          3D

 48 52  0  0  0  0  0  0  0  0999 V2000
   57.2530   26.1490   46.3610 O   0  0  0  0  0  0  0  0  0  0  0  0
   57.3460   26.5640   45.1740 C   0  0  0  0  0  0  0  0  0  0  0  0
   57.3120   25.6310   44.0810 N   0  0  0  0  0  0  0  0  0  0  0  0
   57.4890   24.2150   44.2490 C   0  0  0  0  0  0  0  0  0  0  0  0
   58.5290   23.7460   45.0680 C   0  0  0  0  0  0  0  0  0  0  0  0
   58.7130   22.3740   45.2590 C   0  0  0  0  0  0  0  0  0  0  0  0
   57.8530   21.4600   44.6480 C   0  0  0  0  0  0  0  0  0  0  0  0
   56.7990   21.9160   43.8540 C   0  0  0  0  0  0  0  0  0  0  0  0
   56.6080   23.2880   43.6560 C   0  0  0  0  0  0  0  0  0  0  0  0
   55.5410   23.7070   42.9310 F   0  0  0  0  0  0  0  0  0  0  0  0
   57.4520   28.0140   44.9270 C   0  0  0  0  0  0  0  0  0  0  0  0
   57.8280   28.9760   45.8700 C   0  0  0  0  0  0  0  0  0  0  0  0
   57.7610   30.1660   45.1850 C   0  0  0  0  0  0  0  0  0  0  0  0
   58.0120   31.4210   45.6270 N   0  0  0  0  0  0  0  0  0  0  0  0
   57.8640   32.4740   44.7640 C   0  0  0  0  0  0  0  0  0  0  0  0
   58.1050   33.7860   45.1890 O   0  0  0  0  0  0  0  0  0  0  0  0
   57.9810   34.2090   46.5460 C   0  0  0  0  0  0  0  0  0  0  0  0
   59.2730   33.9950   47.2850 C   0  0  0  0  0  0  0  0  0  0  0  0
   59.2710   33.8360   48.6780 C   0  0  0  0  0  0  0  0  0  0  0  0
   60.4320   33.6090   49.3470 N   0  0  0  0  0  0  0  0  0  0  0  0
   61.6260   33.5230   48.7000 C   0  0  0  0  0  0  0  0  0  0  0  0
   62.8000   33.2830   49.4210 C   0  0  0  0  0  0  0  0  0  0  0  0
   64.0250   33.1870   48.7520 C   0  0  0  0  0  0  0  0  0  0  0  0
   64.0800   33.3320   47.3620 C   0  0  0  0  0  0  0  0  0  0  0  0
   62.9110   33.5730   46.6330 C   0  0  0  0  0  0  0  0  0  0  0  0
   61.6780   33.6700   47.2960 C   0  0  0  0  0  0  0  0  0  0  0  0
   60.4910   33.9080   46.5940 C   0  0  0  0  0  0  0  0  0  0  0  0
   57.4590   32.2450   43.4270 C   0  0  0  0  0  0  0  0  0  0  0  0
   57.2010   30.9350   42.9860 C   0  0  0  0  0  0  0  0  0  0  0  0
   57.3640   29.9070   43.9080 C   0  0  0  0  0  0  0  0  0  0  0  0
   57.1700   28.5900   43.7310 N   0  0  0  0  0  0  0  0  0  0  0  0
   56.9960   25.9740   43.1470 H   0  0  0  0  0  0  0  0  0  0  0  0
   59.2022   24.4623   45.5617 H   0  0  0  0  0  0  0  0  0  0  0  0
   59.5372   22.0136   45.8921 H   0  0  0  0  0  0  0  0  0  0  0  0
   58.0057   20.3802   44.7921 H   0  0  0  0  0  0  0  0  0  0  0  0
   56.1162   21.1940   43.3823 H   0  0  0  0  0  0  0  0  0  0  0  0
   58.1125   28.8167   46.9206 H   0  0  0  0  0  0  0  0  0  0  0  0
   57.7233   35.2781   46.5697 H   0  0  0  0  0  0  0  0  0  0  0  0
   57.1912   33.6175   47.0321 H   0  0  0  0  0  0  0  0  0  0  0  0
   58.3233   33.8954   49.2332 H   0  0  0  0  0  0  0  0  0  0  0  0
   62.7603   33.1697   50.5144 H   0  0  0  0  0  0  0  0  0  0  0  0
   64.9472   32.9970   49.3207 H   0  0  0  0  0  0  0  0  0  0  0  0
   65.0456   33.2563   46.8406 H   0  0  0  0  0  0  0  0  0  0  0  0
   62.9581   33.6865   45.5399 H   0  0  0  0  0  0  0  0  0  0  0  0
   60.5129   34.0269   45.5007 H   0  0  0  0  0  0  0  0  0  0  0  0
   57.3462   33.0914   42.7335 H   0  0  0  0  0  0  0  0  0  0  0  0
   56.8829   30.7315   41.9528 H   0  0  0  0  0  0  0  0  0  0  0  0
   56.8600   28.1140   42.8530 H   0  0  0  0  0  0  0  0  0  0  0  0
  1  2  2  0
  2  3  1  0
  3  4  1  0
  4  5  2  0
  5  6  1  0
  6  7  2  0
  7  8  1  0
  8  9  2  0
  9 10  1  0
  2 11  1  0
 11 12  2  0
 12 13  1  0
 13 14  2  0
 14 15  1  0
 15 16  1  0
 16 17  1  0
 17 18  1  0
 18 19  2  0
 19 20  1  0
 20 21  2  0
 21 22  1  0
 22 23  2  0
 23 24  1  0
 24 25  2  0
 25 26  1  0
 26 27  2  0
 15 28  2  0
 28 29  1  0
 29 30  2  0
 30 31  1  0
  9  4  1  0
 31 11  1  0
 30 13  1  0
 27 18  1  0
 26 21  1  0
  3 32  1  0
  5 33  1  0
  6 34  1  0
  7 35  1  0
  8 36  1  0
 12 37  1  0
 17 38  1  0
 17 39  1  0
 19 40  1  0
 22 41  1  0
 23 42  1  0
 24 43  1  0
 25 44  1  0
 27 45  1  0
 28 46  1  0
 29 47  1  0
 31 48  1  0
M  END
>  <UniqueID>  (10) 
9

>  <SMILES>  (10) 
O=C(Nc1ccccc1F)c1cc2nc(OCc3cnc4ccccc4c3)ccc2[nH]1

>  <Energy>  (10) 
95.15547842715138

>  <Genealogy>  (10) 
O=C(Nc1ccccc1F)c1cc2nc(OCc3cnc4ccccc4c3)ccc2[nH]1 (3D coordinates assigned)
O=C(Nc1ccccc1F)c1cc2nc(OCc3cnc4ccccc4c3)ccc2[nH]1 (optimized conformer: 95.15547842715138 kcal/mol)

>  <smiles>  (10) 
O=C(Nc1ccccc1F)c1cc2nc(OCc3cnc4ccccc4c3)ccc2[nH]1

>  <score_type>  (10) 
oracle

>  <origin>  (10) 
adg

>  <m_score__min__energy>  (10) 
-10.01

>  <m_primary>  (10) 
energy

$$$$
10:0
     RDKit          3D

 47 49  0  0  0  0  0  0  0  0999 V2000
   58.8460   32.3040   49.4560 C   0  0  0  0  0  0  0  0  0  0  0  0
   58.8850   33.0070   48.1330 C   0  0  0  0  0  0  0  0  0  0  0  0
   59.4420   34.2900   48.0420 C   0  0  0  0  0  0  0  0  0  0  0  0
   59.4620   34.9650   46.8240 C   0  0  0  0  0  0  0  0  0  0  0  0
   58.9200   34.3720   45.6840 C   0  0  0  0  0  0  0  0  0  0  0  0
   58.9580   35.0480   44.5060 F   0  0  0  0  0  0  0  0  0  0  0  0
   58.3410   33.0880   45.7560 C   0  0  0  0  0  0  0  0  0  0  0  0
   57.7160   32.4870   44.5970 N   0  0  0  0  0  0  0  0  0  0  0  0
   58.1950   31.1090   44.3790 C   0  0  0  0  0  0  0  0  0  0  0  0
   57.1090   30.0850   44.6250 C   0  0  0  0  0  0  0  0  0  0  0  0
   55.9360   30.4810   44.8640 O   0  0  0  0  0  0  0  0  0  0  0  0
   57.3970   28.6750   44.6320 N   0  0  0  0  0  0  0  0  0  0  0  0
   58.4530   28.1170   43.7730 C   0  0  0  0  0  0  0  0  0  0  0  0
   58.0850   26.7020   43.3080 C   0  0  0  0  0  0  0  0  0  0  0  0
   57.6260   25.8600   44.4240 N   0  0  0  0  0  0  0  0  0  0  0  0
   57.5970   24.4270   44.2670 C   0  0  0  0  0  0  0  0  0  0  0  0
   56.6920   23.8320   43.3670 C   0  0  0  0  0  0  0  0  0  0  0  0
   56.6500   22.4400   43.2230 C   0  0  0  0  0  0  0  0  0  0  0  0
   57.5110   21.6300   43.9740 C   0  0  0  0  0  0  0  0  0  0  0  0
   58.4190   22.2100   44.8640 C   0  0  0  0  0  0  0  0  0  0  0  0
   58.4680   23.6030   45.0120 C   0  0  0  0  0  0  0  0  0  0  0  0
   59.3950   24.1420   45.8510 F   0  0  0  0  0  0  0  0  0  0  0  0
   57.3610   26.4570   45.7400 C   0  0  0  0  0  0  0  0  0  0  0  0
   56.6680   27.8130   45.5740 C   0  0  0  0  0  0  0  0  0  0  0  0
   58.3270   32.4150   46.9920 C   0  0  0  0  0  0  0  0  0  0  0  0
   58.8872   33.0461   50.2669 H   0  0  0  0  0  0  0  0  0  0  0  0
   57.9143   31.7247   49.5361 H   0  0  0  0  0  0  0  0  0  0  0  0
   59.7079   31.6252   49.5361 H   0  0  0  0  0  0  0  0  0  0  0  0
   59.8659   34.7667   48.9381 H   0  0  0  0  0  0  0  0  0  0  0  0
   59.9067   35.9691   46.7609 H   0  0  0  0  0  0  0  0  0  0  0  0
   56.6710   32.4930   44.6790 H   0  0  0  0  0  0  0  0  0  0  0  0
   57.9550   33.0600   43.7530 H   0  0  0  0  0  0  0  0  0  0  0  0
   58.5432   31.0145   43.3399 H   0  0  0  0  0  0  0  0  0  0  0  0
   59.0106   30.9165   45.0915 H   0  0  0  0  0  0  0  0  0  0  0  0
   58.5815   28.7640   42.8927 H   0  0  0  0  0  0  0  0  0  0  0  0
   59.3879   28.0667   44.3505 H   0  0  0  0  0  0  0  0  0  0  0  0
   57.2810   26.7711   42.5605 H   0  0  0  0  0  0  0  0  0  0  0  0
   58.9860   26.2388   42.8794 H   0  0  0  0  0  0  0  0  0  0  0  0
   56.0146   24.4641   42.7741 H   0  0  0  0  0  0  0  0  0  0  0  0
   55.9397   21.9819   42.5190 H   0  0  0  0  0  0  0  0  0  0  0  0
   57.4725   20.5363   43.8632 H   0  0  0  0  0  0  0  0  0  0  0  0
   59.0969   21.5718   45.4498 H   0  0  0  0  0  0  0  0  0  0  0  0
   56.7112   25.7851   46.3199 H   0  0  0  0  0  0  0  0  0  0  0  0
   58.3152   26.6029   46.2674 H   0  0  0  0  0  0  0  0  0  0  0  0
   55.6484   27.6500   45.1948 H   0  0  0  0  0  0  0  0  0  0  0  0
   56.6442   28.3125   46.5538 H   0  0  0  0  0  0  0  0  0  0  0  0
   57.8739   31.4152   47.0630 H   0  0  0  0  0  0  0  0  0  0  0  0
  1  2  1  0
  2  3  2  0
  3  4  1  0
  4  5  2  0
  5  6  1  0
  5  7  1  0
  7  8  1  0
  8  9  1  0
  9 10  1  0
 10 11  2  0
 10 12  1  0
 12 13  1  0
 13 14  1  0
 14 15  1  0
 15 16  1  0
 16 17  2  0
 17 18  1  0
 18 19  2  0
 19 20  1  0
 20 21  2  0
 21 22  1  0
 15 23  1  0
 23 24  1  0
  7 25  2  0
 25  2  1  0
 24 12  1  0
 21 16  1  0
  1 26  1  0
  1 27  1  0
  1 28  1  0
  3 29  1  0
  4 30  1  0
  8 31  1  0
  8 32  1  0
  9 33  1  0
  9 34  1  0
 13 35  1  0
 13 36  1  0
 14 37  1  0
 14 38  1  0
 17 39  1  0
 18 40  1  0
 19 41  1  0
 20 42  1  0
 23 43  1  0
 23 44  1  0
 24 45  1  0
 24 46  1  0
 25 47  1  0
M  CHG  1   8   1
M  END
>  <UniqueID>  (11) 
10

>  <SMILES>  (11) 
Cc1ccc(F)c([NH2+]CC(=O)N2CCN(c3ccccc3F)CC2)c1

>  <Energy>  (11) 
54.521587031679005

>  <Genealogy>  (11) 
Cc1ccc(F)c([NH2+]CC(=O)N2CCN(c3ccccc3F)CC2)c1 (protonated)
Cc1ccc(F)c([NH2+]CC(=O)N2CCN(c3ccccc3F)CC2)c1 (3D coordinates assigned)
Cc1ccc(F)c([NH2+]CC(=O)N2CCN(c3ccccc3F)CC2)c1 (nonaromatic ring conformer: 54.521587031679005 kcal/mol)

>  <smiles>  (11) 
Cc1ccc(F)c(NCC(=O)N2CCN(c3ccccc3F)CC2)c1

>  <score_type>  (11) 
oracle

>  <origin>  (11) 
adg

>  <m_score__min__energy>  (11) 
-6.0300000000000002

>  <m_primary>  (11) 
energy

$$$$
11:0
     RDKit          3D

 40 42  0  0  0  0  0  0  0  0999 V2000
   60.6010   30.4990   47.9220 C   0  0  0  0  0  0  0  0  0  0  0  0
   59.6370   31.1940   48.8780 C   0  0  0  0  0  0  0  0  0  0  0  0
   58.7780   32.1340   48.1580 N   0  0  0  0  0  0  0  0  0  0  0  0
   58.5070   32.1490   46.8820 C   0  0  0  0  0  0  0  0  0  0  0  0
   57.8500   31.1130   46.2690 N   0  0  0  0  0  0  0  0  0  0  0  0
   57.5770   31.1440   44.9330 C   0  0  0  0  0  0  0  0  0  0  0  0
   56.9020   30.0830   44.3070 C   0  0  0  0  0  0  0  0  0  0  0  0
   56.6330   30.1380   42.9350 C   0  0  0  0  0  0  0  0  0  0  0  0
   57.0350   31.2470   42.1830 C   0  0  0  0  0  0  0  0  0  0  0  0
   57.7070   32.3070   42.7990 C   0  0  0  0  0  0  0  0  0  0  0  0
   57.9790   32.2590   44.1700 C   0  0  0  0  0  0  0  0  0  0  0  0
   58.6320   33.2800   44.7770 N   0  0  0  0  0  0  0  0  0  0  0  0
   58.9060   33.2570   46.1070 C   0  0  0  0  0  0  0  0  0  0  0  0
   59.7670   34.6190   46.8190 S   0  0  0  0  0  0  0  0  0  0  0  0
   58.8900   35.2800   47.8450 O   0  0  0  0  0  0  0  0  0  0  0  0
   60.0980   35.6270   45.7540 O   0  0  0  0  0  0  0  0  0  0  0  0
   61.2640   34.0510   47.5520 C   0  0  0  0  0  0  0  0  0  0  0  0
   61.4560   34.1860   48.9330 C   0  0  0  0  0  0  0  0  0  0  0  0
   62.6490   33.7590   49.5240 C   0  0  0  0  0  0  0  0  0  0  0  0
   63.6700   33.2070   48.7340 C   0  0  0  0  0  0  0  0  0  0  0  0
   64.9350   32.7140   49.3730 C   0  0  0  0  0  0  0  0  0  0  0  0
   63.4720   33.0600   47.3540 C   0  0  0  0  0  0  0  0  0  0  0  0
   62.2780   33.4860   46.7640 C   0  0  0  0  0  0  0  0  0  0  0  0
   61.3600   29.9518   48.5003 H   0  0  0  0  0  0  0  0  0  0  0  0
   60.0439   29.7935   47.2881 H   0  0  0  0  0  0  0  0  0  0  0  0
   61.0944   31.2505   47.2881 H   0  0  0  0  0  0  0  0  0  0  0  0
   59.0094   30.4368   49.3708 H   0  0  0  0  0  0  0  0  0  0  0  0
   60.2218   31.7517   49.6243 H   0  0  0  0  0  0  0  0  0  0  0  0
   57.5500   30.2750   46.8120 H   0  0  0  0  0  0  0  0  0  0  0  0
   56.5850   29.2092   44.8952 H   0  0  0  0  0  0  0  0  0  0  0  0
   56.1038   29.3067   42.4462 H   0  0  0  0  0  0  0  0  0  0  0  0
   56.8219   31.2851   41.1045 H   0  0  0  0  0  0  0  0  0  0  0  0
   58.0216   33.1782   42.2057 H   0  0  0  0  0  0  0  0  0  0  0  0
   60.6648   34.6298   49.5551 H   0  0  0  0  0  0  0  0  0  0  0  0
   62.7880   33.8558   50.6109 H   0  0  0  0  0  0  0  0  0  0  0  0
   64.8326   32.7539   50.4675 H   0  0  0  0  0  0  0  0  0  0  0  0
   65.1237   31.6765   49.0600 H   0  0  0  0  0  0  0  0  0  0  0  0
   65.7760   33.3502   49.0600 H   0  0  0  0  0  0  0  0  0  0  0  0
   64.2591   32.6077   46.7328 H   0  0  0  0  0  0  0  0  0  0  0  0
   62.1333   33.3778   45.6789 H   0  0  0  0  0  0  0  0  0  0  0  0
  1  2  1  0
  2  3  1  0
  3  4  2  3
  4  5  1  0
  5  6  1  0
  6  7  2  0
  7  8  1  0
  8  9  2  0
  9 10  1  0
 10 11  2  0
 11 12  1  0
 12 13  2  0
 13 14  1  0
 14 15  2  0
 14 16  2  0
 14 17  1  0
 17 18  2  0
 18 19  1  0
 19 20  2  0
 20 21  1  0
 20 22  1  0
 22 23  2  0
 13  4  1  0
 23 17  1  0
 11  6  1  0
  1 24  1  0
  1 25  1  0
  1 26  1  0
  2 27  1  0
  2 28  1  0
  5 29  1  0
  7 30  1  0
  8 31  1  0
  9 32  1  0
 10 33  1  0
 18 34  1  0
 19 35  1  0
 21 36  1  0
 21 37  1  0
 21 38  1  0
 22 39  1  0
 23 40  1  0
M  END
>  <UniqueID>  (12) 
11

>  <SMILES>  (12) 
CCN=c1[nH]c2ccccc2nc1S(=O)(=O)c1ccc(C)cc1

>  <Energy>  (12) 
46.57466261003951

>  <Genealogy>  (12) 
CCN=c1[nH]c2ccccc2nc1S(=O)(=O)c1ccc(C)cc1 (3D coordinates assigned)
CCN=c1[nH]c2ccccc2nc1S(=O)(=O)c1ccc(C)cc1 (optimized conformer: 46.57466261003951 kcal/mol)

>  <smiles>  (12) 
CCN=c1[nH]c2ccccc2nc1S(=O)(=O)c1ccc(C)cc1

>  <score_type>  (12) 
oracle

>  <origin>  (12) 
adg

>  <m_score__min__energy>  (12) 
-8.5600000000000005

>  <m_primary>  (12) 
energy

$$$$
12:0
     RDKit          3D

 27 29  0  0  0  0  0  0  0  0999 V2000
   59.4780   29.5770   46.5370 O   0  0  0  0  0  0  0  0  0  0  0  0
   58.3480   29.1720   46.1480 C   0  0  0  0  0  0  0  0  0  0  0  0
   57.4650   30.0590   45.4960 C   0  0  0  0  0  0  0  0  0  0  0  0
   57.8110   31.4870   45.2810 C   0  0  0  0  0  0  0  0  0  0  0  0
   58.0210   31.9780   43.9800 C   0  0  0  0  0  0  0  0  0  0  0  0
   58.3380   33.3250   43.7760 C   0  0  0  0  0  0  0  0  0  0  0  0
   58.4440   34.1930   44.8650 C   0  0  0  0  0  0  0  0  0  0  0  0
   58.2310   33.7170   46.1600 C   0  0  0  0  0  0  0  0  0  0  0  0
   57.9130   32.3720   46.3700 C   0  0  0  0  0  0  0  0  0  0  0  0
   56.2320   29.5680   45.0380 C   0  0  0  0  0  0  0  0  0  0  0  0
   55.8900   28.2690   45.2330 N   0  0  0  0  0  0  0  0  0  0  0  0
   56.7150   27.3960   45.8670 C   0  0  0  0  0  0  0  0  0  0  0  0
   56.3160   26.0650   46.0440 C   0  0  0  0  0  0  0  0  0  0  0  0
   57.1610   25.1600   46.6920 C   0  0  0  0  0  0  0  0  0  0  0  0
   56.6570   23.4940   46.9120 Cl  0  0  0  0  0  0  0  0  0  0  0  0
   58.4080   25.5810   47.1650 C   0  0  0  0  0  0  0  0  0  0  0  0
   58.8160   26.9070   46.9920 C   0  0  0  0  0  0  0  0  0  0  0  0
   57.9740   27.8290   46.3430 C   0  0  0  0  0  0  0  0  0  0  0  0
   57.9355   31.2994   43.1185 H   0  0  0  0  0  0  0  0  0  0  0  0
   58.5041   33.7014   42.7558 H   0  0  0  0  0  0  0  0  0  0  0  0
   58.6953   35.2515   44.7024 H   0  0  0  0  0  0  0  0  0  0  0  0
   58.3136   34.4017   47.0169 H   0  0  0  0  0  0  0  0  0  0  0  0
   57.7416   32.0036   47.3922 H   0  0  0  0  0  0  0  0  0  0  0  0
   55.5368   30.2422   44.5164 H   0  0  0  0  0  0  0  0  0  0  0  0
   55.3359   25.7316   45.6723 H   0  0  0  0  0  0  0  0  0  0  0  0
   59.0703   24.8661   47.6751 H   0  0  0  0  0  0  0  0  0  0  0  0
   59.7990   27.2308   47.3646 H   0  0  0  0  0  0  0  0  0  0  0  0
  1  2  2  0
  2  3  1  0
  3  4  1  0
  4  5  2  0
  5  6  1  0
  6  7  2  0
  7  8  1  0
  8  9  2  0
  3 10  2  0
 10 11  1  0
 11 12  1  0
 12 13  2  0
 13 14  1  0
 14 15  1  0
 14 16  2  0
 16 17  1  0
 17 18  2  0
 18  2  1  0
  9  4  1  0
 18 12  1  0
  5 19  1  0
  6 20  1  0
  7 21  1  0
  8 22  1  0
  9 23  1  0
 10 24  1  0
 13 25  1  0
 16 26  1  0
 17 27  1  0
M  CHG  1  11  -1
M  END
>  <UniqueID>  (13) 
12

>  <SMILES>  (13) 
O=c1c(-c2ccccc2)c[n-]c2cc(Cl)ccc12

>  <Energy>  (13) 
41.579877382283584

>  <Genealogy>  (13) 
O=c1c(-c2ccccc2)c[n-]c2cc(Cl)ccc12 (protonated)
O=c1c(-c2ccccc2)c[n-]c2cc(Cl)ccc12 (3D coordinates assigned)
O=c1c(-c2ccccc2)c[n-]c2cc(Cl)ccc12 (optimized conformer: 41.579877382283584 kcal/mol)

>  <smiles>  (13) 
O=c1c(-c2ccccc2)c[nH]c2cc(Cl)ccc12

>  <score_type>  (13) 
oracle

>  <origin>  (13) 
adg

>  <m_score__min__energy>  (13) 
-8.4700000000000006

>  <m_primary>  (13) 
energy

$$$$
13:0
     RDKit          3D

 49 52  0  0  0  0  0  0  0  0999 V2000
   62.2560   32.9890   48.0630 C   0  0  0  0  0  0  0  0  0  0  0  0
   61.1830   31.9580   47.9400 C   0  0  0  0  0  0  0  0  0  0  0  0
   60.1550   32.0470   48.6640 O   0  0  0  0  0  0  0  0  0  0  0  0
   61.2900   30.9340   46.9390 N   0  0  0  0  0  0  0  0  0  0  0  0
   60.3780   29.8280   46.8170 C   0  0  0  0  0  0  0  0  0  0  0  0
   60.5590   28.6470   47.5530 C   0  0  0  0  0  0  0  0  0  0  0  0
   59.6610   27.5870   47.4110 C   0  0  0  0  0  0  0  0  0  0  0  0
   58.5750   27.6830   46.5320 C   0  0  0  0  0  0  0  0  0  0  0  0
   57.6950   26.5600   46.3990 N   0  0  0  0  0  0  0  0  0  0  0  0
   57.0500   25.9090   47.3970 C   0  0  0  0  0  0  0  0  0  0  0  0
   56.3430   24.8330   46.9630 N   0  0  0  0  0  0  0  0  0  0  0  0
   56.5850   24.8240   45.6370 C   0  0  0  0  0  0  0  0  0  0  0  0
   56.1210   23.9110   44.6940 C   0  0  0  0  0  0  0  0  0  0  0  0
   56.5340   24.0810   43.3590 C   0  0  0  0  0  0  0  0  0  0  0  0
   57.3960   25.1440   43.0060 C   0  0  0  0  0  0  0  0  0  0  0  0
   57.8510   26.0480   43.9840 C   0  0  0  0  0  0  0  0  0  0  0  0
   57.4080   25.8560   45.2940 C   0  0  0  0  0  0  0  0  0  0  0  0
   58.3770   28.8740   45.7970 C   0  0  0  0  0  0  0  0  0  0  0  0
   56.9510   29.1480   44.7810 S   0  0  0  0  0  0  0  0  0  0  0  0
   55.7900   28.3020   45.2230 O   0  0  0  0  0  0  0  0  0  0  0  0
   57.2970   28.7980   43.3620 O   0  0  0  0  0  0  0  0  0  0  0  0
   56.5000   30.8310   44.8540 N   0  0  0  0  0  0  0  0  0  0  0  0
   57.4380   31.6750   44.1080 C   0  0  0  0  0  0  0  0  0  0  0  0
   58.0250   32.7480   44.9870 C   0  0  0  0  0  0  0  0  0  0  0  0
   57.7180   32.7820   46.3570 C   0  0  0  0  0  0  0  0  0  0  0  0
   58.2110   33.8120   47.1640 C   0  0  0  0  0  0  0  0  0  0  0  0
   59.0140   34.8130   46.6090 C   0  0  0  0  0  0  0  0  0  0  0  0
   59.3280   34.7830   45.2470 C   0  0  0  0  0  0  0  0  0  0  0  0
   58.8390   33.7530   44.4380 C   0  0  0  0  0  0  0  0  0  0  0  0
   59.3040   29.9190   45.9230 C   0  0  0  0  0  0  0  0  0  0  0  0
   62.4579   33.1830   49.1268 H   0  0  0  0  0  0  0  0  0  0  0  0
   63.1726   32.6241   47.5764 H   0  0  0  0  0  0  0  0  0  0  0  0
   61.9280   33.9194   47.5764 H   0  0  0  0  0  0  0  0  0  0  0  0
   62.0090   31.0610   46.1900 H   0  0  0  0  0  0  0  0  0  0  0  0
   61.4104   28.5560   48.2435 H   0  0  0  0  0  0  0  0  0  0  0  0
   59.8082   26.6670   47.9957 H   0  0  0  0  0  0  0  0  0  0  0  0
   57.0942   26.2200   48.4512 H   0  0  0  0  0  0  0  0  0  0  0  0
   55.4543   23.0849   44.9823 H   0  0  0  0  0  0  0  0  0  0  0  0
   56.1835   23.3819   42.5854 H   0  0  0  0  0  0  0  0  0  0  0  0
   57.7134   25.2656   41.9598 H   0  0  0  0  0  0  0  0  0  0  0  0
   58.5298   26.8743   43.7261 H   0  0  0  0  0  0  0  0  0  0  0  0
   58.2520   31.0471   43.7166 H   0  0  0  0  0  0  0  0  0  0  0  0
   56.8913   32.1597   43.2857 H   0  0  0  0  0  0  0  0  0  0  0  0
   57.0873   31.9954   46.7969 H   0  0  0  0  0  0  0  0  0  0  0  0
   57.9669   33.8348   48.2363 H   0  0  0  0  0  0  0  0  0  0  0  0
   59.3988   35.6244   47.2442 H   0  0  0  0  0  0  0  0  0  0  0  0
   59.9604   35.5706   44.8115 H   0  0  0  0  0  0  0  0  0  0  0  0
   59.0924   33.7293   43.3679 H   0  0  0  0  0  0  0  0  0  0  0  0
   59.1855   30.8245   45.3098 H   0  0  0  0  0  0  0  0  0  0  0  0
  1  2  1  0
  2  3  2  0
  2  4  1  0
  4  5  1  0
  5  6  2  0
  6  7  1  0
  7  8  2  0
  8  9  1  0
  9 10  1  0
 10 11  2  0
 11 12  1  0
 12 13  2  0
 13 14  1  0
 14 15  2  0
 15 16  1  0
 16 17  2  0
  8 18  1  0
 18 19  1  0
 19 20  2  0
 19 21  2  0
 19 22  1  0
 22 23  1  0
 23 24  1  0
 24 25  2  0
 25 26  1  0
 26 27  2  0
 27 28  1  0
 28 29  2  0
 18 30  2  0
 30  5  1  0
 17  9  1  0
 29 24  1  0
 17 12  1  0
  1 31  1  0
  1 32  1  0
  1 33  1  0
  4 34  1  0
  6 35  1  0
  7 36  1  0
 10 37  1  0
 13 38  1  0
 14 39  1  0
 15 40  1  0
 16 41  1  0
 23 42  1  0
 23 43  1  0
 25 44  1  0
 26 45  1  0
 27 46  1  0
 28 47  1  0
 29 48  1  0
 30 49  1  0
M  CHG  1  22  -1
M  END
>  <UniqueID>  (14) 
13

>  <SMILES>  (14) 
CC(=O)Nc1ccc(-n2cnc3ccccc32)c(S(=O)(=O)[N-]Cc2ccccc2)c1

>  <Energy>  (14) 
94.20675148679453

>  <Genealogy>  (14) 
CC(=O)Nc1ccc(-n2cnc3ccccc32)c(S(=O)(=O)[N-]Cc2ccccc2)c1 (protonated)
CC(=O)Nc1ccc(-n2cnc3ccccc32)c(S(=O)(=O)[N-]Cc2ccccc2)c1 (3D coordinates assigned)
CC(=O)Nc1ccc(-n2cnc3ccccc32)c(S(=O)(=O)[N-]Cc2ccccc2)c1 (optimized conformer: 94.20675148679453 kcal/mol)

>  <smiles>  (14) 
CC(=O)Nc1ccc(-n2cnc3ccccc32)c(S(=O)(=O)NCc2ccccc2)c1

>  <score_type>  (14) 
oracle

>  <origin>  (14) 
adg

>  <m_score__min__energy>  (14) 
-10.619999999999999

>  <m_primary>  (14) 
energy

$$$$
14:0
     RDKit          3D

 35 38  0  0  0  0  0  0  0  0999 V2000
   59.2590   34.3880   44.7500 O   0  0  0  0  0  0  0  0  0  0  0  0
   58.9090   33.2430   45.1400 C   0  0  0  0  0  0  0  0  0  0  0  0
   58.1840   32.3920   44.2440 N   0  0  0  0  0  0  0  0  0  0  0  0
   57.5630   31.1490   44.5970 C   0  0  0  0  0  0  0  0  0  0  0  0
   56.3570   30.7810   43.9550 C   0  0  0  0  0  0  0  0  0  0  0  0
   55.7250   29.5610   44.2570 C   0  0  0  0  0  0  0  0  0  0  0  0
   56.3290   28.7320   45.1970 C   0  0  0  0  0  0  0  0  0  0  0  0
   55.9010   27.5310   45.6220 N   0  0  0  0  0  0  0  0  0  0  0  0
   56.7840   27.0890   46.5110 N   0  0  0  0  0  0  0  0  0  0  0  0
   57.7720   28.0030   46.6560 C   0  0  0  0  0  0  0  0  0  0  0  0
   58.8950   27.8240   47.5940 C   0  0  0  0  0  0  0  0  0  0  0  0
   59.5640   26.6550   47.7110 N   0  0  0  0  0  0  0  0  0  0  0  0
   60.5430   26.7150   48.6540 C   0  0  0  0  0  0  0  0  0  0  0  0
   60.6630   27.9350   49.3060 C   0  0  0  0  0  0  0  0  0  0  0  0
   59.4990   28.9680   48.6730 S   0  0  0  0  0  0  0  0  0  0  0  0
   57.5010   29.0690   45.8150 C   0  0  0  0  0  0  0  0  0  0  0  0
   58.1620   30.2640   45.5250 C   0  0  0  0  0  0  0  0  0  0  0  0
   59.1600   32.8350   46.4940 N   0  0  0  0  0  0  0  0  0  0  0  0
   60.2840   33.2830   47.2720 C   0  0  0  0  0  0  0  0  0  0  0  0
   61.5700   33.3810   46.7080 C   0  0  0  0  0  0  0  0  0  0  0  0
   62.6570   33.7790   47.4910 C   0  0  0  0  0  0  0  0  0  0  0  0
   62.4760   34.0720   48.8440 C   0  0  0  0  0  0  0  0  0  0  0  0
   61.2080   33.9620   49.4190 C   0  0  0  0  0  0  0  0  0  0  0  0
   60.1160   33.5630   48.6410 C   0  0  0  0  0  0  0  0  0  0  0  0
   58.8920   33.4580   49.2180 F   0  0  0  0  0  0  0  0  0  0  0  0
   55.9086   31.4564   43.2115 H   0  0  0  0  0  0  0  0  0  0  0  0
   54.7841   29.2719   43.7660 H   0  0  0  0  0  0  0  0  0  0  0  0
   61.1932   25.8579   48.8835 H   0  0  0  0  0  0  0  0  0  0  0  0
   61.3892   28.1809   50.0948 H   0  0  0  0  0  0  0  0  0  0  0  0
   59.1210   30.5107   46.0041 H   0  0  0  0  0  0  0  0  0  0  0  0
   58.4780   32.1770   46.9350 H   0  0  0  0  0  0  0  0  0  0  0  0
   61.7202   33.1429   45.6446 H   0  0  0  0  0  0  0  0  0  0  0  0
   63.6571   33.8616   47.0404 H   0  0  0  0  0  0  0  0  0  0  0  0
   63.3322   34.3895   49.4572 H   0  0  0  0  0  0  0  0  0  0  0  0
   61.0677   34.1896   50.4860 H   0  0  0  0  0  0  0  0  0  0  0  0
  1  2  2  0
  2  3  1  0
  3  4  1  0
  4  5  2  0
  5  6  1  0
  6  7  2  0
  7  8  1  0
  8  9  1  0
  9 10  2  0
 10 11  1  0
 11 12  2  0
 12 13  1  0
 13 14  2  0
 14 15  1  0
 10 16  1  0
 16 17  2  0
  2 18  1  0
 18 19  1  0
 19 20  2  0
 20 21  1  0
 21 22  2  0
 22 23  1  0
 23 24  2  0
 24 25  1  0
 17  4  1  0
 24 19  1  0
 16  7  1  0
 15 11  1  0
  5 26  1  0
  6 27  1  0
 13 28  1  0
 14 29  1  0
 17 30  1  0
 18 31  1  0
 20 32  1  0
 21 33  1  0
 22 34  1  0
 23 35  1  0
M  CHG  2   3  -1   8  -1
M  END
>  <UniqueID>  (15) 
14

>  <SMILES>  (15) 
O=C([N-]c1ccc2[n-]nc(-c3nccs3)c2c1)Nc1ccccc1F

>  <Energy>  (15) 
114.91553346615231

>  <Genealogy>  (15) 
O=C([N-]c1ccc2[n-]nc(-c3nccs3)c2c1)Nc1ccccc1F (protonated)
O=C([N-]c1ccc2[n-]nc(-c3nccs3)c2c1)Nc1ccccc1F (3D coordinates assigned)
O=C([N-]c1ccc2[n-]nc(-c3nccs3)c2c1)Nc1ccccc1F (optimized conformer: 114.91553346615231 kcal/mol)

>  <smiles>  (15) 
O=C(Nc1ccc2[nH]nc(-c3nccs3)c2c1)Nc1ccccc1F

>  <score_type>  (15) 
oracle

>  <origin>  (15) 
adg

>  <m_score__min__energy>  (15) 
-10.26

>  <m_primary>  (15) 
energy

$$$$
15:0
     RDKit          3D

 44 46  0  0  0  0  0  0  0  0999 V2000
   57.2200   25.0460   47.6170 O   0  0  0  0  0  0  0  0  0  0  0  0
   57.0250   26.0850   46.5490 S   0  0  0  0  0  0  0  0  0  0  0  0
   57.3140   27.4450   47.1250 O   0  0  0  0  0  0  0  0  0  0  0  0
   55.3890   26.0190   45.9540 N   0  0  0  0  0  0  0  0  0  0  0  0
   54.8710   24.6510   45.9870 C   0  0  0  0  0  0  0  0  0  0  0  0
   55.7320   23.7310   45.1630 C   0  0  0  0  0  0  0  0  0  0  0  0
   55.6690   23.7590   43.7600 C   0  0  0  0  0  0  0  0  0  0  0  0
   56.4660   22.8950   43.0030 C   0  0  0  0  0  0  0  0  0  0  0  0
   57.3300   22.0000   43.6390 C   0  0  0  0  0  0  0  0  0  0  0  0
   57.3980   21.9660   45.0340 C   0  0  0  0  0  0  0  0  0  0  0  0
   56.6030   22.8290   45.7950 C   0  0  0  0  0  0  0  0  0  0  0  0
   58.1290   25.7620   45.2480 N   0  0  0  0  0  0  0  0  0  0  0  0
   57.7670   26.5730   44.0840 C   0  0  0  0  0  0  0  0  0  0  0  0
   57.9950   28.0260   44.3900 C   0  0  0  0  0  0  0  0  0  0  0  0
   59.2070   28.4510   44.9540 C   0  0  0  0  0  0  0  0  0  0  0  0
   59.4060   29.7970   45.2720 C   0  0  0  0  0  0  0  0  0  0  0  0
   58.3900   30.7430   45.0410 C   0  0  0  0  0  0  0  0  0  0  0  0
   58.6010   32.1740   45.3780 C   0  0  0  0  0  0  0  0  0  0  0  0
   58.0050   33.1880   44.6020 C   0  0  0  0  0  0  0  0  0  0  0  0
   58.2050   34.5340   44.9210 C   0  0  0  0  0  0  0  0  0  0  0  0
   59.0010   34.8850   46.0150 C   0  0  0  0  0  0  0  0  0  0  0  0
   59.5980   33.8890   46.7910 C   0  0  0  0  0  0  0  0  0  0  0  0
   59.4010   32.5410   46.4760 C   0  0  0  0  0  0  0  0  0  0  0  0
   57.1720   30.3100   44.4890 C   0  0  0  0  0  0  0  0  0  0  0  0
   56.9740   28.9630   44.1730 C   0  0  0  0  0  0  0  0  0  0  0  0
   54.8578   24.2958   47.0280 H   0  0  0  0  0  0  0  0  0  0  0  0
   53.8539   24.6499   45.5680 H   0  0  0  0  0  0  0  0  0  0  0  0
   54.9906   24.4627   43.2554 H   0  0  0  0  0  0  0  0  0  0  0  0
   56.4127   22.9199   41.9046 H   0  0  0  0  0  0  0  0  0  0  0  0
   57.9569   21.3220   43.0412 H   0  0  0  0  0  0  0  0  0  0  0  0
   58.0773   21.2600   45.5341 H   0  0  0  0  0  0  0  0  0  0  0  0
   56.6603   22.8011   46.8932 H   0  0  0  0  0  0  0  0  0  0  0  0
   58.0060   24.7550   44.9940 H   0  0  0  0  0  0  0  0  0  0  0  0
   58.3880   26.2781   43.2253 H   0  0  0  0  0  0  0  0  0  0  0  0
   56.7055   26.4130   43.8438 H   0  0  0  0  0  0  0  0  0  0  0  0
   60.0059   27.7200   45.1472 H   0  0  0  0  0  0  0  0  0  0  0  0
   60.3639   30.1196   45.7061 H   0  0  0  0  0  0  0  0  0  0  0  0
   57.3781   32.9184   43.7393 H   0  0  0  0  0  0  0  0  0  0  0  0
   57.7350   35.3187   44.3099 H   0  0  0  0  0  0  0  0  0  0  0  0
   59.1571   35.9449   46.2646 H   0  0  0  0  0  0  0  0  0  0  0  0
   60.2245   34.1656   47.6518 H   0  0  0  0  0  0  0  0  0  0  0  0
   59.8748   31.7617   47.0910 H   0  0  0  0  0  0  0  0  0  0  0  0
   56.3678   31.0374   44.3041 H   0  0  0  0  0  0  0  0  0  0  0  0
   56.0120   28.6358   43.7517 H   0  0  0  0  0  0  0  0  0  0  0  0
  1  2  2  0
  2  3  2  0
  2  4  1  0
  4  5  1  0
  5  6  1  0
  6  7  2  0
  7  8  1  0
  8  9  2  0
  9 10  1  0
 10 11  2  0
  2 12  1  0
 12 13  1  0
 13 14  1  0
 14 15  2  0
 15 16  1  0
 16 17  2  0
 17 18  1  0
 18 19  2  0
 19 20  1  0
 20 21  2  0
 21 22  1  0
 22 23  2  0
 17 24  1  0
 24 25  2  0
 11  6  1  0
 25 14  1  0
 23 18  1  0
  5 26  1  0
  5 27  1  0
  7 28  1  0
  8 29  1  0
  9 30  1  0
 10 31  1  0
 11 32  1  0
 12 33  1  0
 13 34  1  0
 13 35  1  0
 15 36  1  0
 16 37  1  0
 19 38  1  0
 20 39  1  0
 21 40  1  0
 22 41  1  0
 23 42  1  0
 24 43  1  0
 25 44  1  0
M  CHG  1   4  -1
M  END
>  <UniqueID>  (16) 
15

>  <SMILES>  (16) 
O=S(=O)([N-]Cc1ccccc1)NCc1ccc(-c2ccccc2)cc1

>  <Energy>  (16) 
46.07152464747368

>  <Genealogy>  (16) 
O=S(=O)([N-]Cc1ccccc1)NCc1ccc(-c2ccccc2)cc1 (protonated)
O=S(=O)([N-]Cc1ccccc1)NCc1ccc(-c2ccccc2)cc1 (3D coordinates assigned)
O=S(=O)([N-]Cc1ccccc1)NCc1ccc(-c2ccccc2)cc1 (optimized conformer: 46.07152464747368 kcal/mol)

>  <smiles>  (16) 
O=S(=O)(NCc1ccccc1)NCc1ccc(-c2ccccc2)cc1

>  <score_type>  (16) 
oracle

>  <origin>  (16) 
adg

>  <m_score__min__energy>  (16) 
-10.550000000000001

>  <m_primary>  (16) 
energy

$$$$
16:0
     RDKit          3D

 37 40  0  0  0  0  0  0  0  0999 V2000
   66.9270   32.6770   50.1170 C   0  0  0  0  0  0  0  0  0  0  0  0
   65.4530   32.9100   50.1540 C   0  0  0  0  0  0  0  0  0  0  0  0
   64.5920   32.4460   49.2230 N   0  0  0  0  0  0  0  0  0  0  0  0
   63.3120   32.8570   49.4450 C   0  0  0  0  0  0  0  0  0  0  0  0
   62.1970   32.4730   48.5650 C   0  0  0  0  0  0  0  0  0  0  0  0
   61.8240   31.1900   48.3690 N   0  0  0  0  0  0  0  0  0  0  0  0
   60.7920   31.2750   47.5090 C   0  0  0  0  0  0  0  0  0  0  0  0
   60.1240   30.0830   46.9450 C   0  0  0  0  0  0  0  0  0  0  0  0
   60.3870   29.7010   45.6200 C   0  0  0  0  0  0  0  0  0  0  0  0
   59.7490   28.5860   45.0670 C   0  0  0  0  0  0  0  0  0  0  0  0
   58.8330   27.8530   45.8280 C   0  0  0  0  0  0  0  0  0  0  0  0
   58.0330   26.4550   45.1330 Cl  0  0  0  0  0  0  0  0  0  0  0  0
   58.5480   28.2410   47.1410 C   0  0  0  0  0  0  0  0  0  0  0  0
   59.1850   29.3550   47.6960 C   0  0  0  0  0  0  0  0  0  0  0  0
   60.5590   32.6120   47.2160 C   0  0  0  0  0  0  0  0  0  0  0  0
   59.4760   33.1950   46.3950 C   0  0  0  0  0  0  0  0  0  0  0  0
   59.7240   34.3420   45.6280 C   0  0  0  0  0  0  0  0  0  0  0  0
   58.6920   34.9020   44.8710 C   0  0  0  0  0  0  0  0  0  0  0  0
   57.4520   34.3450   44.8910 N   0  0  0  0  0  0  0  0  0  0  0  0
   57.1780   33.2450   45.6390 C   0  0  0  0  0  0  0  0  0  0  0  0
   58.1800   32.6550   46.4120 C   0  0  0  0  0  0  0  0  0  0  0  0
   61.4550   33.3660   47.8780 N   0  0  0  0  0  0  0  0  0  0  0  0
   63.1510   33.6740   50.5640 C   0  0  0  0  0  0  0  0  0  0  0  0
   64.6630   33.8790   51.2770 S   0  0  0  0  0  0  0  0  0  0  0  0
   67.3144   32.6158   51.1447 H   0  0  0  0  0  0  0  0  0  0  0  0
   67.1361   31.7346   49.5895 H   0  0  0  0  0  0  0  0  0  0  0  0
   67.4166   33.5089   49.5895 H   0  0  0  0  0  0  0  0  0  0  0  0
   64.8820   31.8440   48.4200 H   0  0  0  0  0  0  0  0  0  0  0  0
   61.0982   30.2813   45.0139 H   0  0  0  0  0  0  0  0  0  0  0  0
   59.9681   28.2852   44.0319 H   0  0  0  0  0  0  0  0  0  0  0  0
   57.8220   27.6692   47.7377 H   0  0  0  0  0  0  0  0  0  0  0  0
   58.9502   29.6633   48.7255 H   0  0  0  0  0  0  0  0  0  0  0  0
   60.7249   34.7982   45.6223 H   0  0  0  0  0  0  0  0  0  0  0  0
   58.8830   35.7950   44.2578 H   0  0  0  0  0  0  0  0  0  0  0  0
   56.1643   32.8179   45.6358 H   0  0  0  0  0  0  0  0  0  0  0  0
   57.9556   31.7732   47.0301 H   0  0  0  0  0  0  0  0  0  0  0  0
   62.2041   34.1076   50.9181 H   0  0  0  0  0  0  0  0  0  0  0  0
  1  2  1  0
  2  3  2  0
  3  4  1  0
  4  5  1  0
  5  6  2  0
  6  7  1  0
  7  8  1  0
  8  9  2  0
  9 10  1  0
 10 11  2  0
 11 12  1  0
 11 13  1  0
 13 14  2  0
  7 15  2  0
 15 16  1  0
 16 17  2  0
 17 18  1  0
 18 19  2  0
 19 20  1  0
 20 21  2  0
 15 22  1  0
  4 23  2  0
 23 24  1  0
 24  2  1  0
 22  5  1  0
 14  8  1  0
 21 16  1  0
  1 25  1  0
  1 26  1  0
  1 27  1  0
  3 28  1  0
  9 29  1  0
 10 30  1  0
 13 31  1  0
 14 32  1  0
 17 33  1  0
 18 34  1  0
 20 35  1  0
 21 36  1  0
 23 37  1  0
M  CHG  2   3   1  22  -1
M  END
>  <UniqueID>  (17) 
16

>  <SMILES>  (17) 
Cc1[nH+]c(-c2nc(-c3ccc(Cl)cc3)c(-c3ccncc3)[n-]2)cs1

>  <Energy>  (17) 
104.85976767293245

>  <Genealogy>  (17) 
Cc1[nH+]c(-c2nc(-c3ccc(Cl)cc3)c(-c3ccncc3)[n-]2)cs1 (protonated)
Cc1[nH+]c(-c2nc(-c3ccc(Cl)cc3)c(-c3ccncc3)[n-]2)cs1 (3D coordinates assigned)
Cc1[nH+]c(-c2nc(-c3ccc(Cl)cc3)c(-c3ccncc3)[n-]2)cs1 (optimized conformer: 104.85976767293245 kcal/mol)

>  <smiles>  (17) 
Cc1nc(-c2nc(-c3ccc(Cl)cc3)c(-c3ccncc3)[nH]2)cs1

>  <score_type>  (17) 
oracle

>  <origin>  (17) 
adg

>  <m_score__min__energy>  (17) 
-6.96

>  <m_primary>  (17) 
energy

$$$$
17:0
     RDKit          3D

 31 33  0  0  0  0  0  0  0  0999 V2000
   57.9890   27.8820   43.8970 O   0  0  0  0  0  0  0  0  0  0  0  0
   57.4310   28.3830   44.9100 C   0  0  0  0  0  0  0  0  0  0  0  0
   56.9360   27.5390   45.9620 N   0  0  0  0  0  0  0  0  0  0  0  0
   56.7950   26.1130   45.8450 C   0  0  0  0  0  0  0  0  0  0  0  0
   57.9200   25.2840   45.6720 C   0  0  0  0  0  0  0  0  0  0  0  0
   57.7660   23.9010   45.5330 C   0  0  0  0  0  0  0  0  0  0  0  0
   56.4900   23.3330   45.5520 C   0  0  0  0  0  0  0  0  0  0  0  0
   55.3660   24.1470   45.7020 C   0  0  0  0  0  0  0  0  0  0  0  0
   55.5130   25.5320   45.8440 C   0  0  0  0  0  0  0  0  0  0  0  0
   54.3800   26.3250   45.9920 O   0  0  0  0  0  0  0  0  0  0  0  0
   57.3290   29.8430   45.0180 C   0  0  0  0  0  0  0  0  0  0  0  0
   58.2990   30.6380   45.5080 N   0  0  0  0  0  0  0  0  0  0  0  0
   57.7280   31.8580   45.3970 C   0  0  0  0  0  0  0  0  0  0  0  0
   58.3900   33.1160   45.8060 C   0  0  0  0  0  0  0  0  0  0  0  0
   58.6820   34.1100   44.8550 C   0  0  0  0  0  0  0  0  0  0  0  0
   59.3080   35.2990   45.2450 C   0  0  0  0  0  0  0  0  0  0  0  0
   59.6460   35.5070   46.5840 C   0  0  0  0  0  0  0  0  0  0  0  0
   59.3590   34.5270   47.5370 C   0  0  0  0  0  0  0  0  0  0  0  0
   58.7340   33.3350   47.1530 C   0  0  0  0  0  0  0  0  0  0  0  0
   56.4870   31.7970   44.8720 N   0  0  0  0  0  0  0  0  0  0  0  0
   56.2780   30.5360   44.6520 O   0  0  0  0  0  0  0  0  0  0  0  0
   56.7390   27.9770   46.8900 H   0  0  0  0  0  0  0  0  0  0  0  0
   58.9265   25.7271   45.6460 H   0  0  0  0  0  0  0  0  0  0  0  0
   58.6509   23.2596   45.4085 H   0  0  0  0  0  0  0  0  0  0  0  0
   56.3709   22.2443   45.4488 H   0  0  0  0  0  0  0  0  0  0  0  0
   54.3615   23.6988   45.7087 H   0  0  0  0  0  0  0  0  0  0  0  0
   58.4169   33.9519   43.7992 H   0  0  0  0  0  0  0  0  0  0  0  0
   59.5344   36.0715   44.4954 H   0  0  0  0  0  0  0  0  0  0  0  0
   60.1382   36.4425   46.8881 H   0  0  0  0  0  0  0  0  0  0  0  0
   59.6247   34.6924   48.5915 H   0  0  0  0  0  0  0  0  0  0  0  0
   58.5107   32.5661   47.9072 H   0  0  0  0  0  0  0  0  0  0  0  0
  1  2  2  0
  2  3  1  0
  3  4  1  0
  4  5  2  0
  5  6  1  0
  6  7  2  0
  7  8  1  0
  8  9  2  0
  9 10  1  0
  2 11  1  0
 11 12  2  0
 12 13  1  0
 13 14  1  0
 14 15  2  0
 15 16  1  0
 16 17  2  0
 17 18  1  0
 18 19  2  0
 13 20  2  0
 20 21  1  0
  9  4  1  0
 21 11  1  0
 19 14  1  0
  3 22  1  0
  5 23  1  0
  6 24  1  0
  7 25  1  0
  8 26  1  0
 15 27  1  0
 16 28  1  0
 17 29  1  0
 18 30  1  0
 19 31  1  0
M  CHG  1  10  -1
M  END
>  <UniqueID>  (18) 
17

>  <SMILES>  (18) 
O=C(Nc1ccccc1[O-])c1nc(-c2ccccc2)no1

>  <Energy>  (18) 
70.3261826684417

>  <Genealogy>  (18) 
O=C(Nc1ccccc1[O-])c1nc(-c2ccccc2)no1 (protonated)
O=C(Nc1ccccc1[O-])c1nc(-c2ccccc2)no1 (3D coordinates assigned)
O=C(Nc1ccccc1[O-])c1nc(-c2ccccc2)no1 (optimized conformer: 70.3261826684417 kcal/mol)

>  <smiles>  (18) 
O=C(Nc1ccccc1O)c1nc(-c2ccccc2)no1

>  <score_type>  (18) 
oracle

>  <origin>  (18) 
adg

>  <m_score__min__energy>  (18) 
-12.41

>  <m_primary>  (18) 
energy

$$$$
18:0
     RDKit          3D

 27 28  0  0  0  0  0  0  0  0999 V2000
   59.4098   35.0327   48.1456 H   0  0  0  0  0  0  0  0  0  0  0  0
   59.1040   34.5340   47.2140 C   0  0  0  0  0  0  0  0  0  0  0  0
   59.6540   34.9350   45.9940 C   0  0  0  0  0  0  0  0  0  0  0  0
   60.3904   35.7516   45.9658 H   0  0  0  0  0  0  0  0  0  0  0  0
   59.2700   34.3000   44.8080 C   0  0  0  0  0  0  0  0  0  0  0  0
   59.7040   34.6200   43.8492 H   0  0  0  0  0  0  0  0  0  0  0  0
   58.3310   33.2540   44.8380 C   0  0  0  0  0  0  0  0  0  0  0  0
   57.8940   32.5790   43.5660 C   0  0  0  0  0  0  0  0  0  0  0  0
   58.5431   32.9069   42.7406 H   0  0  0  0  0  0  0  0  0  0  0  0
   56.8492   32.8532   43.3582 H   0  0  0  0  0  0  0  0  0  0  0  0
   57.9840   31.1270   43.7010 N   0  0  0  0  0  0  0  0  0  0  0  0
   57.0330   30.3770   44.1750 C   0  0  0  0  0  0  0  0  0  0  0  0
   55.7830   30.7970   44.4470 N   0  0  0  0  0  0  0  0  0  0  0  0
   55.1560   29.7090   44.8810 N   0  0  0  0  0  0  0  0  0  0  0  0
   55.9810   28.6700   44.8740 N   0  0  0  0  0  0  0  0  0  0  0  0
   57.1640   29.0690   44.4450 N   0  0  0  0  0  0  0  0  0  0  0  0
   58.3200   28.2020   44.2320 C   0  0  0  0  0  0  0  0  0  0  0  0
   58.5907   28.2132   43.1659 H   0  0  0  0  0  0  0  0  0  0  0  0
   58.0630   27.1791   44.5443 H   0  0  0  0  0  0  0  0  0  0  0  0
   59.5050   28.6900   45.0570 C   0  0  0  0  0  0  0  0  0  0  0  0
   59.2710   28.5936   46.1275 H   0  0  0  0  0  0  0  0  0  0  0  0
   60.3916   28.0838   44.8195 H   0  0  0  0  0  0  0  0  0  0  0  0
   59.7076   29.7448   44.8195 H   0  0  0  0  0  0  0  0  0  0  0  0
   57.7790   32.8610   46.0680 C   0  0  0  0  0  0  0  0  0  0  0  0
   57.0394   32.0474   46.1011 H   0  0  0  0  0  0  0  0  0  0  0  0
   58.1650   33.4990   47.2510 C   0  0  0  0  0  0  0  0  0  0  0  0
   57.7294   33.1862   48.2114 H   0  0  0  0  0  0  0  0  0  0  0  0
  1  2  1  0
  2  3  2  0
  3  4  1  0
  3  5  1  0
  5  6  1  0
  5  7  2  0
  7  8  1  0
  8  9  1  0
  8 10  1  0
  8 11  1  0
 11 12  2  0
 12 13  1  0
 13 14  2  0
 14 15  1  0
 15 16  1  0
 16 17  1  0
 17 18  1  0
 17 19  1  0
 17 20  1  0
 20 21  1  0
 20 22  1  0
 20 23  1  0
  7 24  1  0
 24 25  1  0
 24 26  2  0
 26 27  1  0
 26  2  1  0
 16 12  1  0
M  CHG  1  15  -1
M  END
>  <UniqueID>  (19) 
18

>  <SMILES>  (19) 
CCn1[n-]nn/c1=N\Cc1ccccc1

>  <Energy>  (19) 
63.75383076890475

>  <Genealogy>  (19) 
CCn1[n-]nnc1=NCc1ccccc1 (protonated)
CCn1[n-]nn/c1=N\Cc1ccccc1 (cis-trans isomerization)
CCn1[n-]nn/c1=N\Cc1ccccc1 (3D coordinates assigned)
CCn1[n-]nn/c1=N\Cc1ccccc1 (optimized conformer: 63.75383076890475 kcal/mol)

>  <smiles>  (19) 
CCn1[nH]nnc1=NCc1ccccc1

>  <score_type>  (19) 
oracle

>  <origin>  (19) 
adg

>  <m_score__min__energy>  (19) 
-8.2899999999999991

>  <m_primary>  (19) 
energy

$$$$
19:0
     RDKit          3D

 45 48  0  0  0  0  0  0  0  0999 V2000
   55.5480   29.6550   42.9300 N   0  0  0  0  0  0  0  0  0  0  0  0
   56.1990   30.1420   44.1040 C   0  0  0  0  0  0  0  0  0  0  0  0
   55.8190   29.7390   45.2370 O   0  0  0  0  0  0  0  0  0  0  0  0
   57.3180   31.1490   44.0000 C   0  0  0  0  0  0  0  0  0  0  0  0
   57.0580   32.3450   44.9510 C   0  0  0  0  0  0  0  0  0  0  0  0
   58.3630   32.9660   45.4490 C   0  0  0  0  0  0  0  0  0  0  0  0
   59.1460   31.9480   46.1630 N   0  0  0  0  0  0  0  0  0  0  0  0
   59.6530   32.2250   47.4770 C   0  0  0  0  0  0  0  0  0  0  0  0
   58.8960   31.8920   48.5570 N   0  0  0  0  0  0  0  0  0  0  0  0
   59.2940   32.1610   49.8280 C   0  0  0  0  0  0  0  0  0  0  0  0
   58.4400   31.7540   50.9710 C   0  0  0  0  0  0  0  0  0  0  0  0
   57.8140   30.4940   50.9330 C   0  0  0  0  0  0  0  0  0  0  0  0
   57.0140   30.0610   51.9920 C   0  0  0  0  0  0  0  0  0  0  0  0
   56.8200   30.8810   53.1020 C   0  0  0  0  0  0  0  0  0  0  0  0
   57.4220   32.1390   53.1530 C   0  0  0  0  0  0  0  0  0  0  0  0
   58.2270   32.5870   52.0980 C   0  0  0  0  0  0  0  0  0  0  0  0
   58.8760   34.2210   52.2110 Cl  0  0  0  0  0  0  0  0  0  0  0  0
   60.4930   32.7670   50.0390 N   0  0  0  0  0  0  0  0  0  0  0  0
   61.3010   33.1140   49.0050 C   0  0  0  0  0  0  0  0  0  0  0  0
   62.5330   33.7280   49.2600 C   0  0  0  0  0  0  0  0  0  0  0  0
   63.3810   34.0610   48.2000 C   0  0  0  0  0  0  0  0  0  0  0  0
   63.0060   33.7730   46.8850 C   0  0  0  0  0  0  0  0  0  0  0  0
   61.7770   33.1620   46.6200 C   0  0  0  0  0  0  0  0  0  0  0  0
   60.9050   32.8420   47.6770 C   0  0  0  0  0  0  0  0  0  0  0  0
   59.1800   30.5640   45.6720 C   0  0  0  0  0  0  0  0  0  0  0  0
   58.6990   30.4770   44.2170 C   0  0  0  0  0  0  0  0  0  0  0  0
   54.7700   28.9640   43.0100 H   0  0  0  0  0  0  0  0  0  0  0  0
   55.8360   29.9810   41.9810 H   0  0  0  0  0  0  0  0  0  0  0  0
   57.3415   31.5574   42.9789 H   0  0  0  0  0  0  0  0  0  0  0  0
   56.4821   33.1110   44.4111 H   0  0  0  0  0  0  0  0  0  0  0  0
   56.5001   31.9741   45.8235 H   0  0  0  0  0  0  0  0  0  0  0  0
   58.9421   33.3401   44.5918 H   0  0  0  0  0  0  0  0  0  0  0  0
   58.1370   33.8002   46.1295 H   0  0  0  0  0  0  0  0  0  0  0  0
   57.9568   29.8425   50.0583 H   0  0  0  0  0  0  0  0  0  0  0  0
   56.5361   29.0711   51.9502 H   0  0  0  0  0  0  0  0  0  0  0  0
   56.1927   30.5368   53.9375 H   0  0  0  0  0  0  0  0  0  0  0  0
   57.2629   32.7844   54.0294 H   0  0  0  0  0  0  0  0  0  0  0  0
   62.8337   33.9484   50.2949 H   0  0  0  0  0  0  0  0  0  0  0  0
   64.3452   34.5506   48.4012 H   0  0  0  0  0  0  0  0  0  0  0  0
   63.6809   34.0282   46.0547 H   0  0  0  0  0  0  0  0  0  0  0  0
   61.4910   32.9309   45.5833 H   0  0  0  0  0  0  0  0  0  0  0  0
   60.2120   30.1879   45.7314 H   0  0  0  0  0  0  0  0  0  0  0  0
   58.5083   29.9571   46.2968 H   0  0  0  0  0  0  0  0  0  0  0  0
   59.4377   30.9754   43.5721 H   0  0  0  0  0  0  0  0  0  0  0  0
   58.5921   29.4113   43.9664 H   0  0  0  0  0  0  0  0  0  0  0  0
  1  2  1  0
  2  3  2  0
  2  4  1  0
  4  5  1  0
  5  6  1  0
  6  7  1  0
  7  8  1  0
  8  9  2  0
  9 10  1  0
 10 11  1  0
 11 12  2  0
 12 13  1  0
 13 14  2  0
 14 15  1  0
 15 16  2  0
 16 17  1  0
 10 18  2  0
 18 19  1  0
 19 20  2  0
 20 21  1  0
 21 22  2  0
 22 23  1  0
 23 24  2  0
  7 25  1  0
 25 26  1  0
 26  4  1  0
 24  8  1  0
 16 11  1  0
 24 19  1  0
  1 27  1  0
  1 28  1  0
  4 29  1  0
  5 30  1  0
  5 31  1  0
  6 32  1  0
  6 33  1  0
 12 34  1  0
 13 35  1  0
 14 36  1  0
 15 37  1  0
 20 38  1  0
 21 39  1  0
 22 40  1  0
 23 41  1  0
 25 42  1  0
 25 43  1  0
 26 44  1  0
 26 45  1  0
M  END
>  <UniqueID>  (20) 
19

>  <SMILES>  (20) 
NC(=O)C1CCN(c2nc(-c3ccccc3Cl)nc3ccccc23)CC1

>  <Energy>  (20) 
63.875800758697416

>  <Genealogy>  (20) 
NC(=O)C1CCN(c2nc(-c3ccccc3Cl)nc3ccccc23)CC1 (3D coordinates assigned)
NC(=O)C1CCN(c2nc(-c3ccccc3Cl)nc3ccccc23)CC1 (nonaromatic ring conformer: 63.875800758697416 kcal/mol)

>  <smiles>  (20) 
NC(=O)C1CCN(c2nc(-c3ccccc3Cl)nc3ccccc23)CC1

>  <score_type>  (20) 
oracle

>  <origin>  (20) 
adg

>  <m_score__min__energy>  (20) 
-9.8200000000000003

>  <m_primary>  (20) 
energy

$$$$
20:0
     RDKit          3D

 54 57  0  0  0  0  0  0  0  0999 V2000
   59.3060   33.6130   50.0130 O   0  0  0  0  0  0  0  0  0  0  0  0
   59.5800   34.6040   49.0540 C   0  0  0  0  0  0  0  0  0  0  0  0
   59.9420   33.9780   47.6770 C   0  0  0  0  0  0  0  0  0  0  0  0
   61.4140   33.4980   47.7490 C   0  0  0  0  0  0  0  0  0  0  0  0
   62.3210   33.8370   46.7160 C   0  0  0  0  0  0  0  0  0  0  0  0
   63.6620   33.4470   46.7720 C   0  0  0  0  0  0  0  0  0  0  0  0
   64.1430   32.7450   47.8750 C   0  0  0  0  0  0  0  0  0  0  0  0
   63.2900   32.4570   48.9380 C   0  0  0  0  0  0  0  0  0  0  0  0
   61.9470   32.8450   48.8900 C   0  0  0  0  0  0  0  0  0  0  0  0
   58.9460   32.8010   47.3720 C   0  0  0  0  0  0  0  0  0  0  0  0
   57.6520   33.2920   46.7050 C   0  0  0  0  0  0  0  0  0  0  0  0
   57.9150   33.9230   45.3880 N   0  0  0  0  0  0  0  0  0  0  0  0
   57.4890   33.1140   44.2220 C   0  0  0  0  0  0  0  0  0  0  0  0
   57.6230   31.6180   44.4310 C   0  0  0  0  0  0  0  0  0  0  0  0
   56.5260   30.7640   44.2290 C   0  0  0  0  0  0  0  0  0  0  0  0
   56.6440   29.3910   44.4600 C   0  0  0  0  0  0  0  0  0  0  0  0
   57.8650   28.8410   44.8840 C   0  0  0  0  0  0  0  0  0  0  0  0
   57.9810   27.3850   45.1480 C   0  0  0  0  0  0  0  0  0  0  0  0
   58.5990   26.9210   46.3220 C   0  0  0  0  0  0  0  0  0  0  0  0
   58.6900   25.5490   46.5590 C   0  0  0  0  0  0  0  0  0  0  0  0
   58.1690   24.6500   45.6310 C   0  0  0  0  0  0  0  0  0  0  0  0
   57.5600   25.1380   44.4740 C   0  0  0  0  0  0  0  0  0  0  0  0
   57.4770   26.4780   44.2550 N   0  0  0  0  0  0  0  0  0  0  0  0
   58.9720   29.6900   45.0500 C   0  0  0  0  0  0  0  0  0  0  0  0
   58.8550   31.0620   44.8150 C   0  0  0  0  0  0  0  0  0  0  0  0
   59.2710   34.5020   45.2400 C   0  0  0  0  0  0  0  0  0  0  0  0
   59.7700   35.0850   46.5670 C   0  0  0  0  0  0  0  0  0  0  0  0
   59.3480   34.0510   50.9030 H   0  0  0  0  0  0  0  0  0  0  0  0
   58.6916   35.2416   48.9346 H   0  0  0  0  0  0  0  0  0  0  0  0
   60.4405   35.1939   49.4026 H   0  0  0  0  0  0  0  0  0  0  0  0
   61.9636   34.4182   45.8532 H   0  0  0  0  0  0  0  0  0  0  0  0
   64.3400   33.6953   45.9422 H   0  0  0  0  0  0  0  0  0  0  0  0
   65.1931   32.4191   47.9064 H   0  0  0  0  0  0  0  0  0  0  0  0
   63.6743   31.9221   49.8190 H   0  0  0  0  0  0  0  0  0  0  0  0
   61.2936   32.6405   49.7509 H   0  0  0  0  0  0  0  0  0  0  0  0
   59.4405   32.0839   46.7002 H   0  0  0  0  0  0  0  0  0  0  0  0
   58.6748   32.3322   48.3295 H   0  0  0  0  0  0  0  0  0  0  0  0
   56.9785   32.4344   46.5606 H   0  0  0  0  0  0  0  0  0  0  0  0
   57.1953   34.0479   47.3608 H   0  0  0  0  0  0  0  0  0  0  0  0
   56.4338   33.3410   44.0097 H   0  0  0  0  0  0  0  0  0  0  0  0
   58.1542   33.3810   43.3876 H   0  0  0  0  0  0  0  0  0  0  0  0
   55.5668   31.1794   43.8864 H   0  0  0  0  0  0  0  0  0  0  0  0
   55.7737   28.7355   44.3086 H   0  0  0  0  0  0  0  0  0  0  0  0
   59.0089   27.6361   47.0504 H   0  0  0  0  0  0  0  0  0  0  0  0
   59.1717   25.1783   47.4758 H   0  0  0  0  0  0  0  0  0  0  0  0
   58.2369   23.5665   45.8084 H   0  0  0  0  0  0  0  0  0  0  0  0
   57.1452   24.4359   43.7358 H   0  0  0  0  0  0  0  0  0  0  0  0
   57.0330   26.8050   43.3670 H   0  0  0  0  0  0  0  0  0  0  0  0
   59.9383   29.2711   45.3675 H   0  0  0  0  0  0  0  0  0  0  0  0
   59.7344   31.7124   44.9315 H   0  0  0  0  0  0  0  0  0  0  0  0
   59.9641   33.7139   44.9106 H   0  0  0  0  0  0  0  0  0  0  0  0
   59.2258   35.3123   44.4974 H   0  0  0  0  0  0  0  0  0  0  0  0
   60.7424   35.5705   46.3972 H   0  0  0  0  0  0  0  0  0  0  0  0
   59.0191   35.8059   46.9226 H   0  0  0  0  0  0  0  0  0  0  0  0
  1  2  1  0
  2  3  1  0
  3  4  1  0
  4  5  2  0
  5  6  1  0
  6  7  2  0
  7  8  1  0
  8  9  2  0
  3 10  1  0
 10 11  1  0
 11 12  1  0
 12 13  1  0
 13 14  1  0
 14 15  2  0
 15 16  1  0
 16 17  2  0
 17 18  1  0
 18 19  2  0
 19 20  1  0
 20 21  2  0
 21 22  1  0
 22 23  2  0
 17 24  1  0
 24 25  2  0
 12 26  1  0
 26 27  1  0
 27  3  1  0
  9  4  1  0
 25 14  1  0
 23 18  1  0
  1 28  1  0
  2 29  1  0
  2 30  1  0
  5 31  1  0
  6 32  1  0
  7 33  1  0
  8 34  1  0
  9 35  1  0
 10 36  1  0
 10 37  1  0
 11 38  1  0
 11 39  1  0
 13 40  1  0
 13 41  1  0
 15 42  1  0
 16 43  1  0
 19 44  1  0
 20 45  1  0
 21 46  1  0
 22 47  1  0
 23 48  1  0
 24 49  1  0
 25 50  1  0
 26 51  1  0
 26 52  1  0
 27 53  1  0
 27 54  1  0
M  CHG  1  23   1
M  END
>  <UniqueID>  (21) 
20

>  <SMILES>  (21) 
OCC1(c2ccccc2)CCN(Cc2ccc(-c3cccc[nH+]3)cc2)CC1

>  <Energy>  (21) 
82.8474682966759

>  <Genealogy>  (21) 
OCC1(c2ccccc2)CCN(Cc2ccc(-c3cccc[nH+]3)cc2)CC1 (protonated)
OCC1(c2ccccc2)CCN(Cc2ccc(-c3cccc[nH+]3)cc2)CC1 (3D coordinates assigned)
OCC1(c2ccccc2)CCN(Cc2ccc(-c3cccc[nH+]3)cc2)CC1 (nonaromatic ring conformer: 82.8474682966759 kcal/mol)

>  <smiles>  (21) 
OCC1(c2ccccc2)CCN(Cc2ccc(-c3ccccn3)cc2)CC1

>  <score_type>  (21) 
oracle

>  <origin>  (21) 
adg

>  <m_score__min__energy>  (21) 
-7.8200000000000003

>  <m_primary>  (21) 
energy

$$$$
21:0
     RDKit          3D

 49 52  0  0  0  0  0  0  0  0999 V2000
   66.3750   31.5970   50.5240 C   0  0  0  0  0  0  0  0  0  0  0  0
   65.1770   32.5420   50.3870 C   0  0  0  0  0  0  0  0  0  0  0  0
   65.4460   33.8430   51.1550 C   0  0  0  0  0  0  0  0  0  0  0  0
   63.9410   31.8750   50.9670 C   0  0  0  0  0  0  0  0  0  0  0  0
   62.7450   31.9740   50.3780 C   0  0  0  0  0  0  0  0  0  0  0  0
   62.6050   32.6310   49.0700 C   0  0  0  0  0  0  0  0  0  0  0  0
   61.3490   32.8110   48.4790 C   0  0  0  0  0  0  0  0  0  0  0  0
   61.2350   33.4220   47.2130 C   0  0  0  0  0  0  0  0  0  0  0  0
   59.8960   33.6670   46.6070 C   0  0  0  0  0  0  0  0  0  0  0  0
   59.7670   34.5430   45.5980 C   0  0  0  0  0  0  0  0  0  0  0  0
   58.4630   34.7710   44.8940 C   0  0  0  0  0  0  0  0  0  0  0  0
   57.5840   33.5930   44.9520 N   0  0  0  0  0  0  0  0  0  0  0  0
   57.7910   32.5750   43.8970 C   0  0  0  0  0  0  0  0  0  0  0  0
   57.6210   31.1530   44.3680 C   0  0  0  0  0  0  0  0  0  0  0  0
   58.7360   30.3550   44.6660 C   0  0  0  0  0  0  0  0  0  0  0  0
   58.5440   29.0400   45.0940 C   0  0  0  0  0  0  0  0  0  0  0  0
   57.2500   28.5320   45.2200 C   0  0  0  0  0  0  0  0  0  0  0  0
   56.1630   29.3480   44.9010 C   0  0  0  0  0  0  0  0  0  0  0  0
   56.3700   30.6240   44.4790 N   0  0  0  0  0  0  0  0  0  0  0  0
   57.3990   33.0800   46.3220 C   0  0  0  0  0  0  0  0  0  0  0  0
   58.7200   32.8350   47.0780 C   0  0  0  0  0  0  0  0  0  0  0  0
   62.4080   33.8320   46.5510 C   0  0  0  0  0  0  0  0  0  0  0  0
   63.6620   33.6390   47.1390 C   0  0  0  0  0  0  0  0  0  0  0  0
   63.7590   33.0510   48.4010 C   0  0  0  0  0  0  0  0  0  0  0  0
   65.0100   32.8580   48.9950 O   0  0  0  0  0  0  0  0  0  0  0  0
   66.5889   31.4283   51.5897 H   0  0  0  0  0  0  0  0  0  0  0  0
   66.1419   30.6369   50.0403 H   0  0  0  0  0  0  0  0  0  0  0  0
   67.2544   32.0473   50.0403 H   0  0  0  0  0  0  0  0  0  0  0  0
   65.4052   33.6456   52.2364 H   0  0  0  0  0  0  0  0  0  0  0  0
   66.4424   34.2262   50.8896 H   0  0  0  0  0  0  0  0  0  0  0  0
   64.6833   34.5899   50.8896 H   0  0  0  0  0  0  0  0  0  0  0  0
   64.0329   31.2948   51.8970 H   0  0  0  0  0  0  0  0  0  0  0  0
   61.8565   31.5597   50.8770 H   0  0  0  0  0  0  0  0  0  0  0  0
   60.4443   32.4734   49.0058 H   0  0  0  0  0  0  0  0  0  0  0  0
   60.6501   35.1143   45.2760 H   0  0  0  0  0  0  0  0  0  0  0  0
   57.9487   35.6199   45.3682 H   0  0  0  0  0  0  0  0  0  0  0  0
   58.6830   34.9750   43.8357 H   0  0  0  0  0  0  0  0  0  0  0  0
   57.0653   32.7606   43.0915 H   0  0  0  0  0  0  0  0  0  0  0  0
   58.8341   32.6744   43.5624 H   0  0  0  0  0  0  0  0  0  0  0  0
   59.7528   30.7620   44.5633 H   0  0  0  0  0  0  0  0  0  0  0  0
   59.4107   28.4056   45.3314 H   0  0  0  0  0  0  0  0  0  0  0  0
   57.0886   27.5006   45.5666 H   0  0  0  0  0  0  0  0  0  0  0  0
   55.1383   28.9584   44.9911 H   0  0  0  0  0  0  0  0  0  0  0  0
   56.8053   33.8120   46.8893 H   0  0  0  0  0  0  0  0  0  0  0  0
   56.8946   32.1064   46.2343 H   0  0  0  0  0  0  0  0  0  0  0  0
   58.5498   33.0575   48.1417 H   0  0  0  0  0  0  0  0  0  0  0  0
   58.9915   31.7863   46.8869 H   0  0  0  0  0  0  0  0  0  0  0  0
   62.3374   34.3086   45.5621 H   0  0  0  0  0  0  0  0  0  0  0  0
   64.5726   33.9508   46.6065 H   0  0  0  0  0  0  0  0  0  0  0  0
  1  2  1  0
  2  3  1  0
  2  4  1  0
  4  5  2  0
  5  6  1  0
  6  7  2  0
  7  8  1  0
  8  9  1  0
  9 10  2  0
 10 11  1  0
 11 12  1  0
 12 13  1  0
 13 14  1  0
 14 15  2  0
 15 16  1  0
 16 17  2  0
 17 18  1  0
 18 19  2  0
 12 20  1  0
 20 21  1  0
  8 22  2  0
 22 23  1  0
 23 24  2  0
 24 25  1  0
 25  2  1  0
 24  6  1  0
 21  9  1  0
 19 14  1  0
  1 26  1  0
  1 27  1  0
  1 28  1  0
  3 29  1  0
  3 30  1  0
  3 31  1  0
  4 32  1  0
  5 33  1  0
  7 34  1  0
 10 35  1  0
 11 36  1  0
 11 37  1  0
 13 38  1  0
 13 39  1  0
 15 40  1  0
 16 41  1  0
 17 42  1  0
 18 43  1  0
 20 44  1  0
 20 45  1  0
 21 46  1  0
 21 47  1  0
 22 48  1  0
 23 49  1  0
M  END
>  <UniqueID>  (22) 
21

>  <SMILES>  (22) 
CC1(C)C=Cc2cc(C3=CCN(Cc4ccccn4)CC3)ccc2O1

>  <Energy>  (22) 
63.658421135679035

>  <Genealogy>  (22) 
CC1(C)C=Cc2cc(C3=CCN(Cc4ccccn4)CC3)ccc2O1 (3D coordinates assigned)
CC1(C)C=Cc2cc(C3=CCN(Cc4ccccn4)CC3)ccc2O1 (nonaromatic ring conformer: 63.658421135679035 kcal/mol)

>  <smiles>  (22) 
CC1(C)C=Cc2cc(C3=CCN(Cc4ccccn4)CC3)ccc2O1

>  <score_type>  (22) 
oracle

>  <origin>  (22) 
adg

>  <m_score__min__energy>  (22) 
-9.2699999999999996

>  <m_primary>  (22) 
energy

$$$$
22:0
     RDKit          3D

 34 35  0  0  0  0  0  0  0  0999 V2000
   59.6370   34.5440   46.2510 C   0  0  0  0  0  0  0  0  0  0  0  0
   58.8590   33.3660   45.7460 C   0  0  0  0  0  0  0  0  0  0  0  0
   58.8490   32.1630   46.4680 C   0  0  0  0  0  0  0  0  0  0  0  0
   58.1480   31.0560   45.9810 C   0  0  0  0  0  0  0  0  0  0  0  0
   57.4430   31.1370   44.7720 C   0  0  0  0  0  0  0  0  0  0  0  0
   56.5660   29.7290   44.1580 S   0  0  0  0  0  0  0  0  0  0  0  0
   56.3580   29.9210   42.6820 O   0  0  0  0  0  0  0  0  0  0  0  0
   55.2110   29.6640   44.8090 O   0  0  0  0  0  0  0  0  0  0  0  0
   57.4050   28.2120   44.4190 N   0  0  1  0  0  0  0  0  0  0  0  0
   58.8420   28.3360   44.1410 C   0  0  0  0  0  0  0  0  0  0  0  0
   57.1200   27.6050   45.7400 C   0  0  0  0  0  0  0  0  0  0  0  0
   56.3150   26.3340   45.6830 C   0  0  0  0  0  0  0  0  0  0  0  0
   56.8150   25.0550   45.5320 C   0  0  0  0  0  0  0  0  0  0  0  0
   55.7150   24.2260   45.5030 C   0  0  0  0  0  0  0  0  0  0  0  0
   54.6140   25.0470   45.6270 C   0  0  0  0  0  0  0  0  0  0  0  0
   55.0030   26.2970   45.7300 O   0  0  0  0  0  0  0  0  0  0  0  0
   57.5000   32.3240   44.0250 C   0  0  0  0  0  0  0  0  0  0  0  0
   58.1990   33.4320   44.5100 C   0  0  0  0  0  0  0  0  0  0  0  0
   59.6348   34.5406   47.3510 H   0  0  0  0  0  0  0  0  0  0  0  0
   60.6730   34.4829   45.8863 H   0  0  0  0  0  0  0  0  0  0  0  0
   59.1741   35.4728   45.8863 H   0  0  0  0  0  0  0  0  0  0  0  0
   59.3946   32.0907   47.4204 H   0  0  0  0  0  0  0  0  0  0  0  0
   58.1496   30.1148   46.5504 H   0  0  0  0  0  0  0  0  0  0  0  0
   57.0210   27.5500   43.7040 H   0  0  0  0  0  0  0  0  0  0  0  0
   59.3963   28.3838   45.0900 H   0  0  0  0  0  0  0  0  0  0  0  0
   59.1801   27.4637   43.5624 H   0  0  0  0  0  0  0  0  0  0  0  0
   59.0257   29.2533   43.5624 H   0  0  0  0  0  0  0  0  0  0  0  0
   58.0794   27.3823   46.2298 H   0  0  0  0  0  0  0  0  0  0  0  0
   56.5127   28.3351   46.2951 H   0  0  0  0  0  0  0  0  0  0  0  0
   57.8716   24.7599   45.4516 H   0  0  0  0  0  0  0  0  0  0  0  0
   55.7150   23.1307   45.4015 H   0  0  0  0  0  0  0  0  0  0  0  0
   53.5681   24.7064   45.6380 H   0  0  0  0  0  0  0  0  0  0  0  0
   56.9910   32.3821   43.0516 H   0  0  0  0  0  0  0  0  0  0  0  0
   58.2320   34.3600   43.9203 H   0  0  0  0  0  0  0  0  0  0  0  0
  1  2  1  0
  2  3  2  0
  3  4  1  0
  4  5  2  0
  5  6  1  0
  6  7  2  0
  6  8  2  0
  6  9  1  0
  9 10  1  0
  9 11  1  0
 11 12  1  0
 12 13  2  0
 13 14  1  0
 14 15  2  0
 15 16  1  0
  5 17  1  0
 17 18  2  0
 18  2  1  0
 16 12  1  0
  1 19  1  0
  1 20  1  0
  1 21  1  0
  3 22  1  0
  4 23  1  0
  9 24  1  6
 10 25  1  0
 10 26  1  0
 10 27  1  0
 11 28  1  0
 11 29  1  0
 13 30  1  0
 14 31  1  0
 15 32  1  0
 17 33  1  0
 18 34  1  0
M  CHG  1   9   1
M  END
>  <UniqueID>  (23) 
22

>  <SMILES>  (23) 
Cc1ccc(S(=O)(=O)[N@@H+](C)Cc2ccco2)cc1

>  <Energy>  (23) 
59.51135564076258

>  <Genealogy>  (23) 
Cc1ccc(S(=O)(=O)[NH+](C)Cc2ccco2)cc1 (protonated)
Cc1ccc(S(=O)(=O)[N@@H+](C)Cc2ccco2)cc1 (chirality)
Cc1ccc(S(=O)(=O)[N@@H+](C)Cc2ccco2)cc1 (3D coordinates assigned)
Cc1ccc(S(=O)(=O)[N@@H+](C)Cc2ccco2)cc1 (optimized conformer: 59.51135564076258 kcal/mol)

>  <smiles>  (23) 
Cc1ccc(S(=O)(=O)N(C)Cc2ccco2)cc1

>  <score_type>  (23) 
oracle

>  <origin>  (23) 
adg

>  <m_score__min__energy>  (23) 
-6.4800000000000004

>  <m_primary>  (23) 
energy

$$$$
23:0
     RDKit          3D

 40 41  0  0  0  0  0  0  0  0999 V2000
   58.1260   28.3650   43.9670 C   0  0  0  0  0  0  0  0  0  0  0  0
   57.5770   28.9350   45.2980 C   0  0  1  0  0  0  0  0  0  0  0  0
   57.1020   27.7450   46.1870 C   0  0  0  0  0  0  0  0  0  0  0  0
   55.9750   27.1150   45.6360 O   0  0  0  0  0  0  0  0  0  0  0  0
   58.7390   29.6860   46.0440 C   0  0  0  0  0  0  0  0  0  0  0  0
   59.2260   30.9760   45.3560 C   0  0  0  0  0  0  0  0  0  0  0  0
   58.3620   32.2530   45.6630 C   0  0  1  0  0  0  0  0  0  0  0  0
   57.9320   32.2090   47.1300 C   0  0  0  0  0  0  0  0  0  0  0  0
   58.4670   32.9770   48.0940 C   0  0  0  0  0  0  0  0  0  0  0  0
   59.4360   34.0900   47.8070 C   0  0  0  0  0  0  0  0  0  0  0  0
   60.2010   33.8520   46.5070 C   0  0  0  0  0  0  0  0  0  0  0  0
   59.2180   33.5300   45.3750 C   0  0  0  0  0  0  0  0  0  0  0  0
   57.0810   32.3590   44.7750 C   0  0  0  0  0  0  0  0  0  0  0  0
   56.5620   31.0710   44.1090 C   0  0  0  0  0  0  0  0  0  0  0  0
   56.3230   29.8390   45.0130 C   0  0  1  0  0  0  0  0  0  0  0  0
   55.3050   29.0600   44.4290 O   0  0  0  0  0  0  0  0  0  0  0  0
   58.8744   27.5880   44.1819 H   0  0  0  0  0  0  0  0  0  0  0  0
   57.2999   27.9280   43.3868 H   0  0  0  0  0  0  0  0  0  0  0  0
   58.5937   29.1741   43.3868 H   0  0  0  0  0  0  0  0  0  0  0  0
   57.9177   27.0117   46.2699 H   0  0  0  0  0  0  0  0  0  0  0  0
   56.8303   28.1384   47.1776 H   0  0  0  0  0  0  0  0  0  0  0  0
   56.1280   27.0810   44.6550 H   0  0  0  0  0  0  0  0  0  0  0  0
   58.3841   29.9493   47.0513 H   0  0  0  0  0  0  0  0  0  0  0  0
   59.5968   28.9974   46.0501 H   0  0  0  0  0  0  0  0  0  0  0  0
   60.2565   31.1723   45.6869 H   0  0  0  0  0  0  0  0  0  0  0  0
   59.1442   30.7995   44.2733 H   0  0  0  0  0  0  0  0  0  0  0  0
   57.1356   31.5052   47.4134 H   0  0  0  0  0  0  0  0  0  0  0  0
   58.1836   32.7829   49.1390 H   0  0  0  0  0  0  0  0  0  0  0  0
   58.8792   35.0351   47.7250 H   0  0  0  0  0  0  0  0  0  0  0  0
   60.1641   34.1315   48.6305 H   0  0  0  0  0  0  0  0  0  0  0  0
   60.7714   34.7563   46.2486 H   0  0  0  0  0  0  0  0  0  0  0  0
   60.8891   33.0044   46.6415 H   0  0  0  0  0  0  0  0  0  0  0  0
   58.5397   34.3860   45.2440 H   0  0  0  0  0  0  0  0  0  0  0  0
   59.8087   33.3360   44.4676 H   0  0  0  0  0  0  0  0  0  0  0  0
   56.2722   32.7489   45.4105 H   0  0  0  0  0  0  0  0  0  0  0  0
   57.3776   33.0054   43.9358 H   0  0  0  0  0  0  0  0  0  0  0  0
   55.6043   31.3143   43.6256 H   0  0  0  0  0  0  0  0  0  0  0  0
   57.3712   30.7642   43.4300 H   0  0  0  0  0  0  0  0  0  0  0  0
   56.0460   30.2390   45.9996 H   0  0  0  0  0  0  0  0  0  0  0  0
   55.1030   28.3170   45.0560 H   0  0  0  0  0  0  0  0  0  0  0  0
  2  1  1  6
  2  3  1  0
  3  4  1  0
  2  5  1  0
  5  6  1  0
  7  6  1  6
  7  8  1  0
  8  9  2  0
  9 10  1  0
 10 11  1  0
 11 12  1  0
  7 13  1  0
 13 14  1  0
 14 15  1  0
 15 16  1  0
 15  2  1  0
 12  7  1  0
  1 17  1  0
  1 18  1  0
  1 19  1  0
  3 20  1  0
  3 21  1  0
  4 22  1  0
  5 23  1  0
  5 24  1  0
  6 25  1  0
  6 26  1  0
  8 27  1  0
  9 28  1  0
 10 29  1  0
 10 30  1  0
 11 31  1  0
 11 32  1  0
 12 33  1  0
 12 34  1  0
 13 35  1  0
 13 36  1  0
 14 37  1  0
 14 38  1  0
 15 39  1  1
 16 40  1  0
M  END
>  <UniqueID>  (24) 
23

>  <SMILES>  (24) 
C[C@@]1(CO)CC[C@]2(C=CCCC2)CCC1O

>  <Energy>  (24) 
54.50464304959316

>  <Genealogy>  (24) 
C[C@@]1(CO)CC[C@]2(C=CCCC2)CCC1O (chirality)
C[C@@]1(CO)CC[C@]2(C=CCCC2)CCC1O (3D coordinates assigned)
C[C@@]1(CO)CC[C@]2(C=CCCC2)CCC1O (nonaromatic ring conformer: 54.50464304959316 kcal/mol)

>  <smiles>  (24) 
CC1(CO)CCC2(C=CCCC2)CCC1O

>  <score_type>  (24) 
oracle

>  <origin>  (24) 
adg

>  <m_score__min__energy>  (24) 
-5.6100000000000003

>  <m_primary>  (24) 
energy

$$$$
24:0
     RDKit          3D

 37 39  0  0  0  0  0  0  0  0999 V2000
   59.2720   34.2600   47.4520 C   0  0  0  0  0  0  0  0  0  0  0  0
   58.0020   33.4140   47.4300 C   0  0  0  0  0  0  0  0  0  0  0  0
   57.2500   33.5790   46.1010 C   0  0  0  0  0  0  0  0  0  0  0  0
   58.1890   33.7030   44.8890 C   0  0  0  0  0  0  0  0  0  0  0  0
   58.1210   32.5060   43.9270 C   0  0  0  0  0  0  0  0  0  0  0  0
   58.4830   31.2550   44.5920 N   0  0  0  0  0  0  0  0  0  0  0  0
   59.2570   31.1980   45.6690 N   0  0  0  0  0  0  0  0  0  0  0  0
   59.1950   29.9410   46.1680 C   0  0  0  0  0  0  0  0  0  0  0  0
   59.8080   29.5350   47.4500 C   0  0  0  0  0  0  0  0  0  0  0  0
   60.1040   30.4810   48.4450 C   0  0  0  0  0  0  0  0  0  0  0  0
   60.6710   30.0730   49.6540 C   0  0  0  0  0  0  0  0  0  0  0  0
   60.9310   28.7190   49.8650 C   0  0  0  0  0  0  0  0  0  0  0  0
   60.6290   27.8100   48.9010 N   0  0  0  0  0  0  0  0  0  0  0  0
   60.0750   28.1810   47.7160 C   0  0  0  0  0  0  0  0  0  0  0  0
   58.3580   29.1840   45.3610 C   0  0  0  0  0  0  0  0  0  0  0  0
   57.9320   30.0420   44.3930 C   0  0  0  0  0  0  0  0  0  0  0  0
   56.5420   29.7200   44.0800 C   0  0  0  0  0  0  0  0  0  0  0  0
   55.7920   30.3610   43.2980 O   0  0  0  0  0  0  0  0  0  0  0  0
   56.1120   28.6100   44.8650 N   0  0  0  0  0  0  0  0  0  0  0  0
   57.2320   28.3140   45.7010 C   0  0  0  0  0  0  0  0  0  0  0  0
   57.1970   27.4850   46.6470 O   0  0  0  0  0  0  0  0  0  0  0  0
   59.5647   34.4550   48.4943 H   0  0  0  0  0  0  0  0  0  0  0  0
   60.0813   33.7199   46.9388 H   0  0  0  0  0  0  0  0  0  0  0  0
   59.0854   35.2149   46.9388 H   0  0  0  0  0  0  0  0  0  0  0  0
   58.2730   32.3559   47.5604 H   0  0  0  0  0  0  0  0  0  0  0  0
   57.3454   33.7487   48.2466 H   0  0  0  0  0  0  0  0  0  0  0  0
   56.6021   32.7023   45.9539 H   0  0  0  0  0  0  0  0  0  0  0  0
   56.6711   34.5122   46.1648 H   0  0  0  0  0  0  0  0  0  0  0  0
   57.9179   34.6118   44.3317 H   0  0  0  0  0  0  0  0  0  0  0  0
   59.2159   33.7408   45.2816 H   0  0  0  0  0  0  0  0  0  0  0  0
   57.0956   32.4191   43.5383 H   0  0  0  0  0  0  0  0  0  0  0  0
   58.8387   32.6806   43.1119 H   0  0  0  0  0  0  0  0  0  0  0  0
   59.8887   31.5457   48.2715 H   0  0  0  0  0  0  0  0  0  0  0  0
   60.9103   30.8123   50.4326 H   0  0  0  0  0  0  0  0  0  0  0  0
   61.3808   28.3868   50.8123 H   0  0  0  0  0  0  0  0  0  0  0  0
   59.8345   27.4174   46.9616 H   0  0  0  0  0  0  0  0  0  0  0  0
   55.1490   28.2130   44.9310 H   0  0  0  0  0  0  0  0  0  0  0  0
  1  2  1  0
  2  3  1  0
  3  4  1  0
  4  5  1  0
  5  6  1  0
  6  7  1  0
  7  8  2  0
  8  9  1  0
  9 10  2  0
 10 11  1  0
 11 12  2  0
 12 13  1  0
 13 14  2  0
  8 15  1  0
 15 16  2  0
 16 17  1  0
 17 18  2  0
 17 19  1  0
 19 20  1  0
 20 21  2  0
 16  6  1  0
 14  9  1  0
 20 15  1  0
  1 22  1  0
  1 23  1  0
  1 24  1  0
  2 25  1  0
  2 26  1  0
  3 27  1  0
  3 28  1  0
  4 29  1  0
  4 30  1  0
  5 31  1  0
  5 32  1  0
 10 33  1  0
 11 34  1  0
 12 35  1  0
 14 36  1  0
 19 37  1  0
M  END
>  <UniqueID>  (25) 
24

>  <SMILES>  (25) 
CCCCCn1nc(-c2cccnc2)c2c1C(=O)NC2=O

>  <Energy>  (25) 
116.38223039956299

>  <Genealogy>  (25) 
CCCCCn1nc(-c2cccnc2)c2c1C(=O)NC2=O (3D coordinates assigned)
CCCCCn1nc(-c2cccnc2)c2c1C(=O)NC2=O (nonaromatic ring conformer: 116.38223039956299 kcal/mol)

>  <smiles>  (25) 
CCCCCn1nc(-c2cccnc2)c2c1C(=O)NC2=O

>  <score_type>  (25) 
oracle

>  <origin>  (25) 
adg

>  <m_score__min__energy>  (25) 
-6.8899999999999997

>  <m_primary>  (25) 
energy

$$$$
25:0
     RDKit          3D

 38 41  0  0  0  0  0  0  0  0999 V2000
   56.2670   29.6570   42.4970 C   0  0  0  0  0  0  0  0  0  0  0  0
   55.8900   29.6960   43.9740 C   0  0  0  0  0  0  0  0  0  0  0  0
   57.0760   30.0820   44.8180 C   0  0  0  0  0  0  0  0  0  0  0  0
   57.8180   29.0990   45.4920 C   0  0  0  0  0  0  0  0  0  0  0  0
   58.9080   29.4440   46.2280 N   0  0  0  0  0  0  0  0  0  0  0  0
   59.3190   30.7340   46.3320 C   0  0  0  0  0  0  0  0  0  0  0  0
   60.4170   31.0440   47.0800 N   0  0  0  0  0  0  0  0  0  0  0  0
   60.8600   32.3280   47.2080 C   0  0  0  0  0  0  0  0  0  0  0  0
   62.0040   32.6130   48.0250 N   0  0  0  0  0  0  0  0  0  0  0  0
   63.3630   32.5740   47.5130 C   0  0  0  0  0  0  0  0  0  0  0  0
   64.2390   33.0890   48.6460 C   0  0  0  0  0  0  0  0  0  0  0  0
   63.3020   33.8430   49.5860 C   0  0  0  0  0  0  0  0  0  0  0  0
   61.9000   33.3250   49.2870 C   0  0  0  0  0  0  0  0  0  0  0  0
   60.1640   33.3360   46.5270 C   0  0  0  0  0  0  0  0  0  0  0  0
   60.4490   34.6860   46.4380 C   0  0  0  0  0  0  0  0  0  0  0  0
   59.4690   35.2230   45.6180 C   0  0  0  0  0  0  0  0  0  0  0  0
   58.6390   34.1840   45.2340 C   0  0  0  0  0  0  0  0  0  0  0  0
   59.0780   33.0350   45.7890 N   0  0  0  0  0  0  0  0  0  0  0  0
   58.6150   31.7580   45.6630 C   0  0  0  0  0  0  0  0  0  0  0  0
   57.4880   31.4200   44.8970 C   0  0  0  0  0  0  0  0  0  0  0  0
   57.3569   29.5443   42.3996 H   0  0  0  0  0  0  0  0  0  0  0  0
   55.7656   28.8059   42.0130 H   0  0  0  0  0  0  0  0  0  0  0  0
   55.9505   30.5927   42.0130 H   0  0  0  0  0  0  0  0  0  0  0  0
   55.0868   30.4329   44.1220 H   0  0  0  0  0  0  0  0  0  0  0  0
   55.5513   28.6946   44.2783 H   0  0  0  0  0  0  0  0  0  0  0  0
   57.5158   28.0435   45.4243 H   0  0  0  0  0  0  0  0  0  0  0  0
   63.6443   31.5444   47.2471 H   0  0  0  0  0  0  0  0  0  0  0  0
   63.4739   33.1816   46.6028 H   0  0  0  0  0  0  0  0  0  0  0  0
   64.7164   32.2497   49.1730 H   0  0  0  0  0  0  0  0  0  0  0  0
   65.0452   33.7372   48.2720 H   0  0  0  0  0  0  0  0  0  0  0  0
   63.5685   33.6412   50.6340 H   0  0  0  0  0  0  0  0  0  0  0  0
   63.3701   34.9305   49.4355 H   0  0  0  0  0  0  0  0  0  0  0  0
   61.5643   32.6454   50.0841 H   0  0  0  0  0  0  0  0  0  0  0  0
   61.1681   34.1443   49.2314 H   0  0  0  0  0  0  0  0  0  0  0  0
   61.2807   35.2224   46.9182 H   0  0  0  0  0  0  0  0  0  0  0  0
   59.3694   36.2790   45.3265 H   0  0  0  0  0  0  0  0  0  0  0  0
   57.7601   34.2798   44.5796 H   0  0  0  0  0  0  0  0  0  0  0  0
   56.9303   32.2019   44.3608 H   0  0  0  0  0  0  0  0  0  0  0  0
  1  2  1  0
  2  3  1  0
  3  4  2  0
  4  5  1  0
  5  6  2  0
  6  7  1  0
  7  8  2  0
  8  9  1  0
  9 10  1  0
 10 11  1  0
 11 12  1  0
 12 13  1  0
  8 14  1  0
 14 15  2  0
 15 16  1  0
 16 17  2  0
 17 18  1  0
 18 19  1  0
 19 20  2  0
 20  3  1  0
 19  6  1  0
 13  9  1  0
 18 14  1  0
  1 21  1  0
  1 22  1  0
  1 23  1  0
  2 24  1  0
  2 25  1  0
  4 26  1  0
 10 27  1  0
 10 28  1  0
 11 29  1  0
 11 30  1  0
 12 31  1  0
 12 32  1  0
 13 33  1  0
 13 34  1  0
 15 35  1  0
 16 36  1  0
 17 37  1  0
 20 38  1  0
M  END
>  <UniqueID>  (26) 
25

>  <SMILES>  (26) 
CCc1cnc2nc(N3CCCC3)c3cccn3c2c1

>  <Energy>  (26) 
79.29715114868824

>  <Genealogy>  (26) 
CCc1cnc2nc(N3CCCC3)c3cccn3c2c1 (3D coordinates assigned)
CCc1cnc2nc(N3CCCC3)c3cccn3c2c1 (nonaromatic ring conformer: 79.29715114868824 kcal/mol)

>  <smiles>  (26) 
CCc1cnc2nc(N3CCCC3)c3cccn3c2c1

>  <score_type>  (26) 
oracle

>  <origin>  (26) 
adg

>  <m_score__min__energy>  (26) 
-6.9299999999999997

>  <m_primary>  (26) 
energy

$$$$
26:0
     RDKit          3D

 41 43  0  0  0  0  0  0  0  0999 V2000
   66.3520   32.4250   50.4410 C   0  0  0  0  0  0  0  0  0  0  0  0
   65.0990   31.8240   50.1340 O   0  0  0  0  0  0  0  0  0  0  0  0
   64.1510   32.3740   49.2570 C   0  0  0  0  0  0  0  0  0  0  0  0
   63.7530   31.7270   48.0720 C   0  0  0  0  0  0  0  0  0  0  0  0
   62.8070   32.3180   47.2310 C   0  0  0  0  0  0  0  0  0  0  0  0
   62.2460   33.5640   47.5540 C   0  0  0  0  0  0  0  0  0  0  0  0
   61.2240   34.2090   46.6370 C   0  0  0  0  0  0  0  0  0  0  0  0
   59.8150   33.9200   47.0080 N   0  0  1  0  0  0  0  0  0  0  0  0
   59.4220   34.6180   48.2480 C   0  0  0  0  0  0  0  0  0  0  0  0
   58.8790   34.2160   45.8960 C   0  0  0  0  0  0  0  0  0  0  0  0
   58.3330   32.9610   45.2820 C   0  0  0  0  0  0  0  0  0  0  0  0
   57.7450   32.8680   44.0230 C   0  0  0  0  0  0  0  0  0  0  0  0
   57.4310   31.5360   43.8940 C   0  0  0  0  0  0  0  0  0  0  0  0
   56.8280   30.8370   42.8520 C   0  0  0  0  0  0  0  0  0  0  0  0
   56.6400   29.4520   43.0160 C   0  0  0  0  0  0  0  0  0  0  0  0
   57.0560   28.8080   44.2040 C   0  0  0  0  0  0  0  0  0  0  0  0
   57.6630   29.5450   45.2380 C   0  0  0  0  0  0  0  0  0  0  0  0
   57.8350   30.9130   45.0460 C   0  0  0  0  0  0  0  0  0  0  0  0
   58.3750   31.7770   45.8700 O   0  0  0  0  0  0  0  0  0  0  0  0
   62.6370   34.2030   48.7420 C   0  0  0  0  0  0  0  0  0  0  0  0
   63.5840   33.6120   49.5820 C   0  0  0  0  0  0  0  0  0  0  0  0
   66.4731   32.4831   51.5328 H   0  0  0  0  0  0  0  0  0  0  0  0
   67.1641   31.8184   50.0138 H   0  0  0  0  0  0  0  0  0  0  0  0
   66.3873   33.4380   50.0138 H   0  0  0  0  0  0  0  0  0  0  0  0
   64.1885   30.7522   47.8071 H   0  0  0  0  0  0  0  0  0  0  0  0
   62.4993   31.8034   46.3088 H   0  0  0  0  0  0  0  0  0  0  0  0
   61.3729   35.2985   46.6645 H   0  0  0  0  0  0  0  0  0  0  0  0
   61.3832   33.7861   45.6341 H   0  0  0  0  0  0  0  0  0  0  0  0
   59.7700   32.8910   47.2050 H   0  0  0  0  0  0  0  0  0  0  0  0
   59.7518   34.0323   49.1187 H   0  0  0  0  0  0  0  0  0  0  0  0
   59.8933   35.6116   48.2746 H   0  0  0  0  0  0  0  0  0  0  0  0
   58.3281   34.7303   48.2746 H   0  0  0  0  0  0  0  0  0  0  0  0
   58.0428   34.8162   46.2840 H   0  0  0  0  0  0  0  0  0  0  0  0
   59.4315   34.7656   45.1196 H   0  0  0  0  0  0  0  0  0  0  0  0
   57.5714   33.6762   43.2973 H   0  0  0  0  0  0  0  0  0  0  0  0
   56.5095   31.3495   41.9323 H   0  0  0  0  0  0  0  0  0  0  0  0
   56.1661   28.8664   42.2144 H   0  0  0  0  0  0  0  0  0  0  0  0
   56.9044   27.7248   44.3208 H   0  0  0  0  0  0  0  0  0  0  0  0
   57.9907   29.0561   46.1673 H   0  0  0  0  0  0  0  0  0  0  0  0
   62.1954   35.1735   49.0124 H   0  0  0  0  0  0  0  0  0  0  0  0
   63.8869   34.1241   50.5072 H   0  0  0  0  0  0  0  0  0  0  0  0
  1  2  1  0
  2  3  1  0
  3  4  2  0
  4  5  1  0
  5  6  2  0
  6  7  1  0
  7  8  1  0
  8  9  1  0
  8 10  1  0
 10 11  1  0
 11 12  2  0
 12 13  1  0
 13 14  2  0
 14 15  1  0
 15 16  2  0
 16 17  1  0
 17 18  2  0
 18 19  1  0
  6 20  1  0
 20 21  2  0
 21  3  1  0
 19 11  1  0
 18 13  1  0
  1 22  1  0
  1 23  1  0
  1 24  1  0
  4 25  1  0
  5 26  1  0
  7 27  1  0
  7 28  1  0
  8 29  1  1
  9 30  1  0
  9 31  1  0
  9 32  1  0
 10 33  1  0
 10 34  1  0
 12 35  1  0
 14 36  1  0
 15 37  1  0
 16 38  1  0
 17 39  1  0
 20 40  1  0
 21 41  1  0
M  CHG  1   8   1
M  END
>  <UniqueID>  (27) 
26

>  <SMILES>  (27) 
COc1ccc(C[N@@H+](C)Cc2cc3ccccc3o2)cc1

>  <Energy>  (27) 
78.44468119797641

>  <Genealogy>  (27) 
COc1ccc(C[NH+](C)Cc2cc3ccccc3o2)cc1 (protonated)
COc1ccc(C[N@@H+](C)Cc2cc3ccccc3o2)cc1 (chirality)
COc1ccc(C[N@@H+](C)Cc2cc3ccccc3o2)cc1 (3D coordinates assigned)
COc1ccc(C[N@@H+](C)Cc2cc3ccccc3o2)cc1 (optimized conformer: 78.44468119797641 kcal/mol)

>  <smiles>  (27) 
COc1ccc(CN(C)Cc2cc3ccccc3o2)cc1

>  <score_type>  (27) 
oracle

>  <origin>  (27) 
adg

>  <m_score__min__energy>  (27) 
-5.6699999999999999

>  <m_primary>  (27) 
energy

$$$$
27:0
     RDKit          3D

 63 66  0  0  1  0  0  0  0  0999 V2000
   63.2860   32.6900   46.9960 C   0  0  0  0  0  0  0  0  0  0  0  0
   62.5060   33.8700   47.4010 N   0  0  0  0  0  0  0  0  0  0  0  0
   62.2410   33.7070   48.7990 C   0  0  0  0  0  0  0  0  0  0  0  0
   61.1320   34.5470   49.3430 C   0  0  0  0  0  0  0  0  0  0  0  0
   59.8850   34.3610   48.6280 N   0  0  0  0  0  0  0  0  0  0  0  0
   59.4090   32.9950   48.7280 C   0  0  0  0  0  0  0  0  0  0  0  0
   59.6570   32.3820   50.0700 C   0  0  0  0  0  0  0  0  0  0  0  0
   59.3060   30.9090   50.1410 C   0  0  0  0  0  0  0  0  0  0  0  0
   60.6470   30.1790   50.0020 C   0  0  0  0  0  0  0  0  0  0  0  0
   57.3580   26.5850   46.8580 C   0  0  0  0  0  0  0  0  0  0  0  0
   57.6260   27.6930   46.1510 C   0  0  0  0  0  0  0  0  0  0  0  0
   60.1980   30.8760   46.5980 C   0  0  0  0  0  0  0  0  0  0  0  0
   59.3170   30.7140   45.5480 C   0  0  0  0  0  0  0  0  0  0  0  0
   58.4860   29.6130   45.4730 C   0  0  0  0  0  0  0  0  0  0  0  0
   58.5610   28.6770   46.4810 C   0  0  0  0  0  0  0  0  0  0  0  0
   59.4210   28.8110   47.5310 C   0  0  0  0  0  0  0  0  0  0  0  0
   60.2530   29.9280   47.5900 C   0  0  0  0  0  0  0  0  0  0  0  0
   61.0930   30.0640   48.6110 C   0  0  0  0  0  0  0  0  0  0  0  0
   57.0380   25.3940   46.0820 C   0  0  0  0  0  0  0  0  0  0  0  0
   57.9530   24.3910   45.8270 C   0  0  0  0  0  0  0  0  0  0  0  0
   57.5160   23.3140   45.0750 C   0  0  0  0  0  0  0  0  0  0  0  0
   58.6240   22.0080   44.7130 Cl  0  0  0  0  0  0  0  0  0  0  0  0
   56.2260   23.2320   44.5930 C   0  0  0  0  0  0  0  0  0  0  0  0
   55.3110   24.2360   44.8490 C   0  0  0  0  0  0  0  0  0  0  0  0
   55.7300   25.3160   45.5970 C   0  0  0  0  0  0  0  0  0  0  0  0
   54.8060   26.3410   45.8610 O   0  0  0  0  0  0  0  0  0  0  0  0
   57.0580   28.0700   45.0080 N   0  0  0  0  0  0  0  0  0  0  0  0
   57.5490   29.2180   44.5720 N   0  0  0  0  0  0  0  0  0  0  0  0
   57.1690   29.9340   43.3560 C   0  0  0  0  0  0  0  0  0  0  0  0
   60.1700   34.6470   47.2350 C   0  0  0  0  0  0  0  0  0  0  0  0
   61.2620   33.7750   46.6690 C   0  0  0  0  0  0  0  0  0  0  0  0
   63.6378   32.1578   47.8921 H   0  0  0  0  0  0  0  0  0  0  0  0
   62.6524   32.0197   46.3966 H   0  0  0  0  0  0  0  0  0  0  0  0
   64.1509   33.0103   46.3966 H   0  0  0  0  0  0  0  0  0  0  0  0
   61.9853   32.6517   48.9752 H   0  0  0  0  0  0  0  0  0  0  0  0
   63.1527   34.0339   49.3205 H   0  0  0  0  0  0  0  0  0  0  0  0
   60.9750   34.2812   50.3988 H   0  0  0  0  0  0  0  0  0  0  0  0
   61.4266   35.6005   49.2273 H   0  0  0  0  0  0  0  0  0  0  0  0
   58.3262   32.9869   48.5345 H   0  0  0  0  0  0  0  0  0  0  0  0
   59.9649   32.3998   47.9886 H   0  0  0  0  0  0  0  0  0  0  0  0
   60.7237   32.4970   50.3126 H   0  0  0  0  0  0  0  0  0  0  0  0
   59.0052   32.9028   50.7869 H   0  0  0  0  0  0  0  0  0  0  0  0
   58.8327   30.6696   51.1047 H   0  0  0  0  0  0  0  0  0  0  0  0
   58.5904   30.6148   49.3591 H   0  0  0  0  0  0  0  0  0  0  0  0
   61.4087   30.7333   50.5700 H   0  0  0  0  0  0  0  0  0  0  0  0
   60.5088   29.1588   50.3894 H   0  0  0  0  0  0  0  0  0  0  0  0
   57.3786   26.5761   47.9578 H   0  0  0  0  0  0  0  0  0  0  0  0
   60.8523   31.7593   46.6400 H   0  0  0  0  0  0  0  0  0  0  0  0
   59.2758   31.4761   44.7558 H   0  0  0  0  0  0  0  0  0  0  0  0
   59.4577   28.0471   48.3216 H   0  0  0  0  0  0  0  0  0  0  0  0
   62.1726   30.0915   48.4022 H   0  0  0  0  0  0  0  0  0  0  0  0
   58.9845   24.4457   46.2052 H   0  0  0  0  0  0  0  0  0  0  0  0
   55.9221   22.3579   43.9983 H   0  0  0  0  0  0  0  0  0  0  0  0
   54.2809   24.1753   44.4680 H   0  0  0  0  0  0  0  0  0  0  0  0
   53.9730   26.0530   46.3680 H   0  0  0  0  0  0  0  0  0  0  0  0
   56.3060   27.5650   44.4660 H   0  0  0  0  0  0  0  0  0  0  0  0
   56.6691   30.8759   43.6261 H   0  0  0  0  0  0  0  0  0  0  0  0
   58.0693   30.1536   42.7633 H   0  0  0  0  0  0  0  0  0  0  0  0
   56.4826   29.3115   42.7633 H   0  0  0  0  0  0  0  0  0  0  0  0
   59.2531   34.4863   46.6489 H   0  0  0  0  0  0  0  0  0  0  0  0
   60.5158   35.6895   47.1759 H   0  0  0  0  0  0  0  0  0  0  0  0
   60.9216   32.7293   46.6929 H   0  0  0  0  0  0  0  0  0  0  0  0
   61.4591   34.1229   45.6443 H   0  0  0  0  0  0  0  0  0  0  0  0
  1  2  1  0
  2  3  1  0
  3  4  1  0
  4  5  1  0
  5  6  1  0
  6  7  1  0
  7  8  1  0
  8  9  1  0
  9 10  1  0
 10 11  2  0
 11 12  1  0
 12 13  2  0
 13 14  1  0
 14 15  1  0
 15 16  2  0
 15 17  1  0
 17 18  2  0
 18 19  1  0
 19 20  2  0
 20 21  1  0
 21 22  1  0
 21 23  2  0
 23 24  1  0
 24 25  2  0
 25 26  1  0
 17 27  1  0
 27 28  1  0
 28 29  1  0
  5 30  1  0
 30 31  1  0
 31  2  1  0
 16 11  1  0
 25 19  1  0
 28 14  2  0
  1 32  1  0
  1 33  1  0
  1 34  1  0
  3 35  1  0
  3 36  1  0
  4 37  1  0
  4 38  1  0
  6 39  1  0
  6 40  1  0
  7 41  1  0
  7 42  1  0
  8 43  1  0
  8 44  1  0
  9 45  1  0
  9 46  1  0
 10 47  1  0
 12 48  1  0
 13 49  1  0
 16 50  1  0
 18 51  1  0
 20 52  1  0
 23 53  1  0
 24 54  1  0
 26 55  1  0
 27 56  1  0
 29 57  1  0
 29 58  1  0
 29 59  1  0
 30 60  1  0
 30 61  1  0
 31 62  1  0
 31 63  1  0
M  CHG  1  28   1
M  END
>  <smiles>  (28) 
CN1CCN(CCCCC=c2ccc3c(c2)c(=Cc2cc(Cl)ccc2O)[nH][n+]3C)CC1

>  <score_type>  (28) 
oracle

>  <origin>  (28) 
adg

>  <m_score__min__energy>  (28) 
-9.5199999999999996

>  <m_primary>  (28) 
energy

$$$$
28:0
     RDKit          3D

 31 33  0  0  0  0  0  0  0  0999 V2000
   55.1460   30.5850   45.2310 H   0  0  0  0  0  0  0  0  0  0  0  0
   55.1210   29.6070   44.9650 O   0  0  0  0  0  0  0  0  0  0  0  0
   56.1760   28.7520   45.2660 C   0  0  0  0  0  0  0  0  0  0  0  0
   55.9950   27.4590   45.6220 N   0  0  0  0  0  0  0  0  0  0  0  0
   57.2440   26.9920   45.8250 C   0  0  0  0  0  0  0  0  0  0  0  0
   57.5870   25.7010   46.2170 C   0  0  0  0  0  0  0  0  0  0  0  0
   56.8125   24.9396   46.3914 H   0  0  0  0  0  0  0  0  0  0  0  0
   58.9480   25.3960   46.3840 C   0  0  0  0  0  0  0  0  0  0  0  0
   59.2451   24.3859   46.7024 H   0  0  0  0  0  0  0  0  0  0  0  0
   59.9420   26.3780   46.1460 C   0  0  0  0  0  0  0  0  0  0  0  0
   61.3890   26.0500   46.3670 C   0  0  0  0  0  0  0  0  0  0  0  0
   61.5937   26.0036   47.4468 H   0  0  0  0  0  0  0  0  0  0  0  0
   61.6186   25.0770   45.9081 H   0  0  0  0  0  0  0  0  0  0  0  0
   62.0158   26.8289   45.9081 H   0  0  0  0  0  0  0  0  0  0  0  0
   59.5650   27.6830   45.7650 C   0  0  0  0  0  0  0  0  0  0  0  0
   60.3211   28.4641   45.5971 H   0  0  0  0  0  0  0  0  0  0  0  0
   58.2030   27.9550   45.6070 C   0  0  0  0  0  0  0  0  0  0  0  0
   57.5170   29.0970   45.2450 C   0  0  0  0  0  0  0  0  0  0  0  0
   58.0350   30.3890   44.9100 N   0  0  0  0  0  0  0  0  0  0  0  0
   57.3890   31.4580   45.1420 N   0  0  0  0  0  0  0  0  0  0  0  0
   58.0200   32.6370   45.6560 C   0  0  0  0  0  0  0  0  0  0  0  0
   58.4000   33.6470   44.7610 C   0  0  0  0  0  0  0  0  0  0  0  0
   58.2109   33.5243   43.6843 H   0  0  0  0  0  0  0  0  0  0  0  0
   59.0180   34.8090   45.2310 C   0  0  0  0  0  0  0  0  0  0  0  0
   59.3137   35.5981   44.5240 H   0  0  0  0  0  0  0  0  0  0  0  0
   59.2610   34.9700   46.5980 C   0  0  0  0  0  0  0  0  0  0  0  0
   59.7480   35.8850   46.9662 H   0  0  0  0  0  0  0  0  0  0  0  0
   58.8850   33.9680   47.4970 C   0  0  0  0  0  0  0  0  0  0  0  0
   59.0763   34.0953   48.5727 H   0  0  0  0  0  0  0  0  0  0  0  0
   58.2660   32.8040   47.0310 C   0  0  0  0  0  0  0  0  0  0  0  0
   57.9708   32.0173   47.7410 H   0  0  0  0  0  0  0  0  0  0  0  0
  1  2  1  0
  2  3  1  0
  3  4  1  0
  4  5  1  0
  5  6  2  0
  6  7  1  0
  6  8  1  0
  8  9  1  0
  8 10  2  0
 10 11  1  0
 11 12  1  0
 11 13  1  0
 11 14  1  0
 10 15  1  0
 15 16  1  0
 15 17  2  0
 17 18  1  0
 18 19  1  0
 19 20  2  0
 20 21  1  0
 21 22  2  0
 22 23  1  0
 22 24  1  0
 24 25  1  0
 24 26  2  0
 26 27  1  0
 26 28  1  0
 28 29  1  0
 28 30  2  0
 30 31  1  0
 18  3  2  0
 30 21  1  0
 17  5  1  0
M  CHG  1   4  -1
M  END
>  <UniqueID>  (29) 
27

>  <SMILES>  (29) 
Cc1ccc2[n-]c(O)c(/N=N/c3ccccc3)c2c1

>  <Energy>  (29) 
66.67348089878627

>  <Genealogy>  (29) 
Cc1ccc2[n-]c(O)c(N=Nc3ccccc3)c2c1 (protonated)
Cc1ccc2[n-]c(O)c(/N=N/c3ccccc3)c2c1 (cis-trans isomerization)
Cc1ccc2[n-]c(O)c(/N=N/c3ccccc3)c2c1 (3D coordinates assigned)
Cc1ccc2[n-]c(O)c(/N=N/c3ccccc3)c2c1 (optimized conformer: 66.67348089878627 kcal/mol)

>  <smiles>  (29) 
Cc1ccc2[nH]c(O)c(N=Nc3ccccc3)c2c1

>  <score_type>  (29) 
oracle

>  <origin>  (29) 
adg

>  <m_score__min__energy>  (29) 
-9.6699999999999999

>  <m_primary>  (29) 
energy

$$$$
29:0
     RDKit          3D

 35 37  0  0  1  0  0  0  0  0999 V2000
   56.5680   24.2530   44.4620 C   0  0  0  0  0  0  0  0  0  0  0  0
   55.4310   24.6660   45.3410 C   0  0  0  0  0  0  0  0  0  0  0  0
   58.4290   30.8840   45.0690 N   0  0  0  0  0  0  0  0  0  0  0  0
   58.8870   29.8730   45.7450 C   0  0  0  0  0  0  0  0  0  0  0  0
   57.8910   26.5620   46.8670 C   0  0  0  0  0  0  0  0  0  0  0  0
   58.6110   27.7170   46.6380 C   0  0  0  0  0  0  0  0  0  0  0  0
   59.8630   27.7720   47.1600 N   0  0  0  0  0  0  0  0  0  0  0  0
   56.8050   28.6700   45.4010 C   0  0  0  0  0  0  0  0  0  0  0  0
   56.1080   27.5350   45.6300 N   0  0  0  0  0  0  0  0  0  0  0  0
   56.6170   26.5030   46.3390 C   0  0  0  0  0  0  0  0  0  0  0  0
   55.8620   25.4710   46.4940 N   0  0  0  0  0  0  0  0  0  0  0  0
   58.7380   32.2340   45.4740 C   0  0  0  0  0  0  0  0  0  0  0  0
   58.6400   33.2640   44.5610 C   0  0  0  0  0  0  0  0  0  0  0  0
   58.9340   34.5800   44.9300 C   0  0  0  0  0  0  0  0  0  0  0  0
   59.3300   34.8610   46.2230 C   0  0  0  0  0  0  0  0  0  0  0  0
   59.6120   36.1580   46.5530 F   0  0  0  0  0  0  0  0  0  0  0  0
   59.4270   33.8300   47.1270 C   0  0  0  0  0  0  0  0  0  0  0  0
   59.9330   34.2130   48.7690 Cl  0  0  0  0  0  0  0  0  0  0  0  0
   59.1350   32.5270   46.7620 C   0  0  0  0  0  0  0  0  0  0  0  0
   58.0810   28.7650   45.9140 C   0  0  0  0  0  0  0  0  0  0  0  0
   60.6370   28.8800   46.9760 C   0  0  0  0  0  0  0  0  0  0  0  0
   60.1310   29.9280   46.2630 N   0  0  0  0  0  0  0  0  0  0  0  0
   57.4198   23.9436   45.0855 H   0  0  0  0  0  0  0  0  0  0  0  0
   56.2537   23.4116   43.8270 H   0  0  0  0  0  0  0  0  0  0  0  0
   56.8669   25.1000   43.8270 H   0  0  0  0  0  0  0  0  0  0  0  0
   54.7231   25.2594   44.7436 H   0  0  0  0  0  0  0  0  0  0  0  0
   54.9673   23.7490   45.7335 H   0  0  0  0  0  0  0  0  0  0  0  0
   58.3133   25.7262   47.4442 H   0  0  0  0  0  0  0  0  0  0  0  0
   56.3662   29.4954   44.8212 H   0  0  0  0  0  0  0  0  0  0  0  0
   55.1430   27.4750   45.2370 H   0  0  0  0  0  0  0  0  0  0  0  0
   58.3264   33.0468   43.5293 H   0  0  0  0  0  0  0  0  0  0  0  0
   58.8500   35.3908   44.1914 H   0  0  0  0  0  0  0  0  0  0  0  0
   59.2202   31.7197   47.5043 H   0  0  0  0  0  0  0  0  0  0  0  0
   61.6527   28.9281   47.3956 H   0  0  0  0  0  0  0  0  0  0  0  0
   60.7460   30.7530   46.1430 H   0  0  0  0  0  0  0  0  0  0  0  0
  1  2  1  0
  2  3  1  0
  3  4  2  0
  4  5  1  0
  5  6  2  0
  6  7  1  0
  7  8  2  0
  8  9  1  0
  9 10  1  0
 10 11  2  0
 11 12  1  0
 12 13  2  0
 13 14  1  0
 14 15  2  0
 15 16  1  0
 15 17  1  0
 17 18  1  0
 17 19  2  0
 10 20  1  0
 20 21  2  0
 21 22  1  0
 22  4  1  0
 20  6  1  0
 19 12  1  0
  1 23  1  0
  1 24  1  0
  1 25  1  0
  2 26  1  0
  2 27  1  0
  5 28  1  0
  8 29  1  0
  9 30  1  0
 13 31  1  0
 14 32  1  0
 19 33  1  0
 21 34  1  0
 22 35  1  0
M  END
>  <smiles>  (30) 
CCN=c1cc2nc[nH]c(=Nc3ccc(F)c(Cl)c3)c2c[nH]1

>  <score_type>  (30) 
oracle

>  <origin>  (30) 
adg

>  <m_score__min__energy>  (30) 
-7.04

>  <m_primary>  (30) 
energy

$$$$
30:0
     RDKit          3D

 30 33  0  0  0  0  0  0  0  0999 V2000
   60.2710   26.0340   47.1350 O   0  0  0  0  0  0  0  0  0  0  0  0
   59.3110   26.6270   46.5750 C   0  0  0  0  0  0  0  0  0  0  0  0
   58.2100   25.8340   46.0100 C   0  0  0  0  0  0  0  0  0  0  0  0
   57.1410   26.4320   45.4870 C   0  0  0  0  0  0  0  0  0  0  0  0
   57.0260   27.9000   45.4700 C   0  0  0  0  0  0  0  0  0  0  0  0
   55.8910   28.4000   45.2480 O   0  0  0  0  0  0  0  0  0  0  0  0
   58.2050   28.7530   45.8280 C   0  0  0  0  0  0  0  0  0  0  0  0
   59.2880   28.1090   46.4680 C   0  0  0  0  0  0  0  0  0  0  0  0
   60.3400   28.8610   46.9890 C   0  0  0  0  0  0  0  0  0  0  0  0
   60.3450   30.2460   46.8880 C   0  0  0  0  0  0  0  0  0  0  0  0
   59.3200   30.9330   46.2020 C   0  0  0  0  0  0  0  0  0  0  0  0
   58.2690   30.1660   45.6070 C   0  0  0  0  0  0  0  0  0  0  0  0
   57.3520   30.8230   44.7630 C   0  0  0  0  0  0  0  0  0  0  0  0
   57.3900   32.2000   44.5850 C   0  0  0  0  0  0  0  0  0  0  0  0
   58.3480   32.9750   45.2370 C   0  0  0  0  0  0  0  0  0  0  0  0
   58.3410   34.3680   45.0590 C   0  0  0  0  0  0  0  0  0  0  0  0
   59.2860   35.1650   45.7000 C   0  0  0  0  0  0  0  0  0  0  0  0
   60.2430   34.5820   46.5240 C   0  0  0  0  0  0  0  0  0  0  0  0
   60.2680   33.1980   46.7080 C   0  0  0  0  0  0  0  0  0  0  0  0
   59.3280   32.3570   46.0580 C   0  0  0  0  0  0  0  0  0  0  0  0
   58.2695   24.7356   46.0192 H   0  0  0  0  0  0  0  0  0  0  0  0
   56.3319   25.8202   45.0614 H   0  0  0  0  0  0  0  0  0  0  0  0
   61.1775   28.3503   47.4868 H   0  0  0  0  0  0  0  0  0  0  0  0
   61.1625   30.8182   47.3509 H   0  0  0  0  0  0  0  0  0  0  0  0
   56.5895   30.2328   44.2336 H   0  0  0  0  0  0  0  0  0  0  0  0
   56.6568   32.6839   43.9229 H   0  0  0  0  0  0  0  0  0  0  0  0
   57.5845   34.8323   44.4093 H   0  0  0  0  0  0  0  0  0  0  0  0
   59.2757   36.2553   45.5547 H   0  0  0  0  0  0  0  0  0  0  0  0
   60.9844   35.2149   47.0337 H   0  0  0  0  0  0  0  0  0  0  0  0
   61.0281   32.7529   47.3669 H   0  0  0  0  0  0  0  0  0  0  0  0
  1  2  2  0
  2  3  1  0
  3  4  2  0
  4  5  1  0
  5  6  2  0
  5  7  1  0
  7  8  2  0
  8  9  1  0
  9 10  2  0
 10 11  1  0
 11 12  2  0
 12 13  1  0
 13 14  2  0
 14 15  1  0
 15 16  2  0
 16 17  1  0
 17 18  2  0
 18 19  1  0
 19 20  2  0
  8  2  1  0
 20 11  1  0
 12  7  1  0
 20 15  1  0
  3 21  1  0
  4 22  1  0
  9 23  1  0
 10 24  1  0
 13 25  1  0
 14 26  1  0
 16 27  1  0
 17 28  1  0
 18 29  1  0
 19 30  1  0
M  END
>  <UniqueID>  (31) 
28

>  <SMILES>  (31) 
O=C1C=CC(=O)c2c1ccc1c2ccc2ccccc21

>  <Energy>  (31) 
56.35930249943665

>  <Genealogy>  (31) 
O=C1C=CC(=O)c2c1ccc1c2ccc2ccccc21 (3D coordinates assigned)
O=C1C=CC(=O)c2c1ccc1c2ccc2ccccc21 (nonaromatic ring conformer: 56.35930249943665 kcal/mol)

>  <smiles>  (31) 
O=C1C=CC(=O)c2c1ccc1c2ccc2ccccc21

>  <score_type>  (31) 
oracle

>  <origin>  (31) 
adg

>  <m_score__min__energy>  (31) 
-8.1899999999999995

>  <m_primary>  (31) 
energy

$$$$
31:0
     RDKit          3D

 57 60  0  0  0  0  0  0  0  0999 V2000
   58.9490   27.4080   47.4130 C   0  0  0  0  0  0  0  0  0  0  0  0
   59.7630   27.1000   48.5390 O   0  0  0  0  0  0  0  0  0  0  0  0
   60.4960   28.0460   49.2720 C   0  0  0  0  0  0  0  0  0  0  0  0
   60.9890   27.7770   50.5580 C   0  0  0  0  0  0  0  0  0  0  0  0
   61.7150   28.7490   51.2440 C   0  0  0  0  0  0  0  0  0  0  0  0
   61.9530   29.9940   50.6620 C   0  0  0  0  0  0  0  0  0  0  0  0
   61.4660   30.3030   49.3700 C   0  0  0  0  0  0  0  0  0  0  0  0
   61.7150   31.6090   48.7560 N   0  0  0  0  0  0  0  0  0  0  0  0
   61.6620   31.7250   47.2830 C   0  0  0  0  0  0  0  0  0  0  0  0
   62.0230   33.1070   46.7340 C   0  0  0  0  0  0  0  0  0  0  0  0
   61.5560   34.2040   47.5830 N   0  0  0  0  0  0  0  0  0  0  0  0
   59.8120   34.3560   47.6350 S   0  0  0  0  0  0  0  0  0  0  0  0
   59.4130   35.7060   47.1100 O   0  0  0  0  0  0  0  0  0  0  0  0
   59.2930   34.2220   49.0400 O   0  0  0  0  0  0  0  0  0  0  0  0
   59.0790   33.1200   46.6150 C   0  0  0  0  0  0  0  0  0  0  0  0
   58.7280   31.8860   47.1660 C   0  0  0  0  0  0  0  0  0  0  0  0
   58.1150   30.9090   46.3770 C   0  0  0  0  0  0  0  0  0  0  0  0
   57.8530   31.1480   45.0130 C   0  0  0  0  0  0  0  0  0  0  0  0
   58.1890   32.4080   44.4640 C   0  0  0  0  0  0  0  0  0  0  0  0
   58.7940   33.3840   45.2700 C   0  0  0  0  0  0  0  0  0  0  0  0
   57.8070   32.7660   43.0490 C   0  0  0  0  0  0  0  0  0  0  0  0
   57.5680   31.5270   42.1820 C   0  0  0  0  0  0  0  0  0  0  0  0
   56.6370   30.5480   42.8950 C   0  0  0  0  0  0  0  0  0  0  0  0
   57.2240   30.1430   44.1790 N   0  0  0  0  0  0  0  0  0  0  0  0
   57.1800   28.7540   44.5640 C   0  0  0  0  0  0  0  0  0  0  0  0
   58.2830   27.8140   44.1870 C   0  0  0  0  0  0  0  0  0  0  0  0
   56.2330   28.3290   45.2800 O   0  0  0  0  0  0  0  0  0  0  0  0
   62.1630   34.1140   48.9120 C   0  0  0  0  0  0  0  0  0  0  0  0
   61.8720   32.7910   49.6350 C   0  0  0  0  0  0  0  0  0  0  0  0
   60.7370   29.2960   48.6900 C   0  0  0  0  0  0  0  0  0  0  0  0
   57.9718   27.7777   47.7571 H   0  0  0  0  0  0  0  0  0  0  0  0
   59.4409   28.1822   46.8058 H   0  0  0  0  0  0  0  0  0  0  0  0
   58.8052   26.5021   46.8058 H   0  0  0  0  0  0  0  0  0  0  0  0
   60.8024   26.7986   51.0248 H   0  0  0  0  0  0  0  0  0  0  0  0
   62.1026   28.5330   52.2505 H   0  0  0  0  0  0  0  0  0  0  0  0
   62.5293   30.7488   51.2171 H   0  0  0  0  0  0  0  0  0  0  0  0
   62.3643   30.9935   46.8568 H   0  0  0  0  0  0  0  0  0  0  0  0
   60.6161   31.5416   46.9957 H   0  0  0  0  0  0  0  0  0  0  0  0
   63.1175   33.1737   46.6469 H   0  0  0  0  0  0  0  0  0  0  0  0
   61.5241   33.2124   45.7593 H   0  0  0  0  0  0  0  0  0  0  0  0
   58.9351   31.6818   48.2268 H   0  0  0  0  0  0  0  0  0  0  0  0
   57.8343   29.9443   46.8248 H   0  0  0  0  0  0  0  0  0  0  0  0
   59.0466   34.3651   44.8415 H   0  0  0  0  0  0  0  0  0  0  0  0
   56.8848   33.3651   43.0721 H   0  0  0  0  0  0  0  0  0  0  0  0
   58.6412   33.3308   42.6072 H   0  0  0  0  0  0  0  0  0  0  0  0
   57.1104   31.8339   41.2299 H   0  0  0  0  0  0  0  0  0  0  0  0
   58.5320   31.0308   41.9962 H   0  0  0  0  0  0  0  0  0  0  0  0
   55.6664   31.0333   43.0749 H   0  0  0  0  0  0  0  0  0  0  0  0
   56.4971   29.6576   42.2645 H   0  0  0  0  0  0  0  0  0  0  0  0
   58.7518   27.4145   45.0984 H   0  0  0  0  0  0  0  0  0  0  0  0
   57.8712   26.9849   43.5928 H   0  0  0  0  0  0  0  0  0  0  0  0
   59.0363   28.3521   43.5928 H   0  0  0  0  0  0  0  0  0  0  0  0
   63.2527   34.2183   48.8039 H   0  0  0  0  0  0  0  0  0  0  0  0
   61.7230   34.9170   49.5215 H   0  0  0  0  0  0  0  0  0  0  0  0
   62.7039   32.5918   50.3265 H   0  0  0  0  0  0  0  0  0  0  0  0
   60.9029   32.9264   50.1376 H   0  0  0  0  0  0  0  0  0  0  0  0
   60.3512   29.5015   47.6806 H   0  0  0  0  0  0  0  0  0  0  0  0
  1  2  1  0
  2  3  1  0
  3  4  2  0
  4  5  1  0
  5  6  2  0
  6  7  1  0
  7  8  1  0
  8  9  1  0
  9 10  1  0
 10 11  1  0
 11 12  1  0
 12 13  2  0
 12 14  2  0
 12 15  1  0
 15 16  2  0
 16 17  1  0
 17 18  2  0
 18 19  1  0
 19 20  2  0
 19 21  1  0
 21 22  1  0
 22 23  1  0
 23 24  1  0
 24 25  1  0
 25 26  1  0
 25 27  2  0
 11 28  1  0
 28 29  1  0
  7 30  2  0
 30  3  1  0
 29  8  1  0
 20 15  1  0
 24 18  1  0
  1 31  1  0
  1 32  1  0
  1 33  1  0
  4 34  1  0
  5 35  1  0
  6 36  1  0
  9 37  1  0
  9 38  1  0
 10 39  1  0
 10 40  1  0
 16 41  1  0
 17 42  1  0
 20 43  1  0
 21 44  1  0
 21 45  1  0
 22 46  1  0
 22 47  1  0
 23 48  1  0
 23 49  1  0
 26 50  1  0
 26 51  1  0
 26 52  1  0
 28 53  1  0
 28 54  1  0
 29 55  1  0
 29 56  1  0
 30 57  1  0
M  END
>  <UniqueID>  (32) 
29

>  <SMILES>  (32) 
COc1cccc(N2CCN(S(=O)(=O)c3ccc4c(c3)CCCN4C(C)=O)CC2)c1

>  <Energy>  (32) 
73.47652574268996

>  <Genealogy>  (32) 
COc1cccc(N2CCN(S(=O)(=O)c3ccc4c(c3)CCCN4C(C)=O)CC2)c1 (3D coordinates assigned)
COc1cccc(N2CCN(S(=O)(=O)c3ccc4c(c3)CCCN4C(C)=O)CC2)c1 (nonaromatic ring conformer: 73.47652574268996 kcal/mol)

>  <smiles>  (32) 
COc1cccc(N2CCN(S(=O)(=O)c3ccc4c(c3)CCCN4C(C)=O)CC2)c1

>  <score_type>  (32) 
oracle

>  <origin>  (32) 
adg

>  <m_score__min__energy>  (32) 
-8.8200000000000003

>  <m_primary>  (32) 
energy

$$$$
32:0
     RDKit          3D

 47 50  0  0  0  0  0  0  0  0999 V2000
   55.4910   29.1080   44.8780 O   0  0  0  0  0  0  0  0  0  0  0  0
   56.5860   29.7180   44.9830 C   0  0  0  0  0  0  0  0  0  0  0  0
   57.7230   29.0490   45.4330 C   0  0  0  0  0  0  0  0  0  0  0  0
   58.9220   29.7630   45.5530 C   0  0  0  0  0  0  0  0  0  0  0  0
   60.1740   29.0730   46.0340 C   0  0  0  0  0  0  0  0  0  0  0  0
   60.4270   29.3510   47.5030 C   0  0  0  0  0  0  0  0  0  0  0  0
   59.8010   28.5210   48.4510 C   0  0  0  0  0  0  0  0  0  0  0  0
   59.9700   28.7390   49.8170 C   0  0  0  0  0  0  0  0  0  0  0  0
   60.7600   29.7920   50.2680 C   0  0  0  0  0  0  0  0  0  0  0  0
   61.3940   30.6430   49.3530 C   0  0  0  0  0  0  0  0  0  0  0  0
   62.1830   31.7070   49.8180 C   0  0  0  0  0  0  0  0  0  0  0  0
   62.8150   32.5610   48.9160 C   0  0  0  0  0  0  0  0  0  0  0  0
   62.6660   32.3650   47.5440 C   0  0  0  0  0  0  0  0  0  0  0  0
   61.8860   31.3110   47.0630 C   0  0  0  0  0  0  0  0  0  0  0  0
   61.2340   30.4320   47.9550 C   0  0  0  0  0  0  0  0  0  0  0  0
   58.9520   31.0820   45.2020 N   0  0  0  0  0  0  0  0  0  0  0  0
   57.8330   31.7130   44.7560 C   0  0  0  0  0  0  0  0  0  0  0  0
   57.8930   33.4490   44.3030 S   0  0  0  0  0  0  0  0  0  0  0  0
   57.7990   34.0760   46.0210 C   0  0  0  0  0  0  0  0  0  0  0  0
   59.1770   34.1050   46.6900 C   0  0  0  0  0  0  0  0  0  0  0  0
   59.1290   33.6020   48.1100 C   0  0  0  0  0  0  0  0  0  0  0  0
   58.4090   32.4380   48.4300 C   0  0  0  0  0  0  0  0  0  0  0  0
   58.3570   31.9840   49.7510 C   0  0  0  0  0  0  0  0  0  0  0  0
   59.0190   32.6880   50.7620 C   0  0  0  0  0  0  0  0  0  0  0  0
   59.7340   33.8480   50.4520 C   0  0  0  0  0  0  0  0  0  0  0  0
   59.7920   34.3040   49.1310 C   0  0  0  0  0  0  0  0  0  0  0  0
   56.6610   31.0340   44.6570 N   0  0  0  0  0  0  0  0  0  0  0  0
   57.6795   27.9801   45.6891 H   0  0  0  0  0  0  0  0  0  0  0  0
   60.0637   27.9883   45.8885 H   0  0  0  0  0  0  0  0  0  0  0  0
   61.0267   29.4587   45.4559 H   0  0  0  0  0  0  0  0  0  0  0  0
   59.1691   27.6881   48.1090 H   0  0  0  0  0  0  0  0  0  0  0  0
   59.4765   28.0754   50.5423 H   0  0  0  0  0  0  0  0  0  0  0  0
   60.8874   29.9571   51.3480 H   0  0  0  0  0  0  0  0  0  0  0  0
   62.3030   31.8674   50.8996 H   0  0  0  0  0  0  0  0  0  0  0  0
   63.4329   33.3917   49.2877 H   0  0  0  0  0  0  0  0  0  0  0  0
   63.1651   33.0437   46.8367 H   0  0  0  0  0  0  0  0  0  0  0  0
   61.7786   31.1642   45.9781 H   0  0  0  0  0  0  0  0  0  0  0  0
   59.8460   31.6210   45.2630 H   0  0  0  0  0  0  0  0  0  0  0  0
   57.3885   35.0964   46.0061 H   0  0  0  0  0  0  0  0  0  0  0  0
   57.1519   33.3991   46.5981 H   0  0  0  0  0  0  0  0  0  0  0  0
   59.8652   33.4706   46.1121 H   0  0  0  0  0  0  0  0  0  0  0  0
   59.5206   35.1497   46.7123 H   0  0  0  0  0  0  0  0  0  0  0  0
   57.8848   31.8826   47.6384 H   0  0  0  0  0  0  0  0  0  0  0  0
   57.7942   31.0711   49.9959 H   0  0  0  0  0  0  0  0  0  0  0  0
   58.9769   32.3288   51.8008 H   0  0  0  0  0  0  0  0  0  0  0  0
   60.2519   34.4032   51.2480 H   0  0  0  0  0  0  0  0  0  0  0  0
   60.3587   35.2156   48.8904 H   0  0  0  0  0  0  0  0  0  0  0  0
  1  2  2  0
  2  3  1  0
  3  4  2  0
  4  5  1  0
  5  6  1  0
  6  7  2  0
  7  8  1  0
  8  9  2  0
  9 10  1  0
 10 11  2  0
 11 12  1  0
 12 13  2  0
 13 14  1  0
 14 15  2  0
  4 16  1  0
 16 17  1  0
 17 18  1  0
 18 19  1  0
 19 20  1  0
 20 21  1  0
 21 22  2  0
 22 23  1  0
 23 24  2  0
 24 25  1  0
 25 26  2  0
 17 27  2  0
 27  2  1  0
 15  6  1  0
 26 21  1  0
 15 10  1  0
  3 28  1  0
  5 29  1  0
  5 30  1  0
  7 31  1  0
  8 32  1  0
  9 33  1  0
 11 34  1  0
 12 35  1  0
 13 36  1  0
 14 37  1  0
 16 38  1  0
 19 39  1  0
 19 40  1  0
 20 41  1  0
 20 42  1  0
 22 43  1  0
 23 44  1  0
 24 45  1  0
 25 46  1  0
 26 47  1  0
M  END
>  <UniqueID>  (33) 
30

>  <SMILES>  (33) 
O=c1cc(Cc2cccc3ccccc23)[nH]c(SCCc2ccccc2)n1

>  <Energy>  (33) 
49.859415938746544

>  <Genealogy>  (33) 
O=c1cc(Cc2cccc3ccccc23)[nH]c(SCCc2ccccc2)n1 (3D coordinates assigned)
O=c1cc(Cc2cccc3ccccc23)[nH]c(SCCc2ccccc2)n1 (optimized conformer: 49.859415938746544 kcal/mol)

>  <smiles>  (33) 
O=c1cc(Cc2cccc3ccccc23)[nH]c(SCCc2ccccc2)n1

>  <score_type>  (33) 
oracle

>  <origin>  (33) 
adg

>  <m_score__min__energy>  (33) 
-9.2699999999999996

>  <m_primary>  (33) 
energy

$$$$
33:0
     RDKit          3D

 57 62  0  0  0  0  0  0  0  0999 V2000
   56.6470   33.4220   45.1960 O   0  0  0  0  0  0  0  0  0  0  0  0
   57.0800   32.2680   44.9360 C   0  0  0  0  0  0  0  0  0  0  0  0
   56.2540   31.2050   44.2800 C   0  0  0  0  0  0  0  0  0  0  0  0
   57.2220   30.0700   44.3130 C   0  0  0  0  0  0  0  0  0  0  0  0
   57.0190   28.7670   43.8620 C   0  0  0  0  0  0  0  0  0  0  0  0
   58.0640   27.8270   43.9950 C   0  0  0  0  0  0  0  0  0  0  0  0
   57.8750   26.4660   43.5630 N   0  0  0  0  0  0  0  0  0  0  0  0
   57.7390   25.6100   44.7130 C   0  0  0  0  0  0  0  0  0  0  0  0
   57.5410   26.1710   46.0060 C   0  0  0  0  0  0  0  0  0  0  0  0
   57.3800   25.3430   47.1340 C   0  0  0  0  0  0  0  0  0  0  0  0
   57.4150   23.9670   46.9350 C   0  0  0  0  0  0  0  0  0  0  0  0
   57.2840   22.9970   47.8550 N   0  0  0  0  0  0  0  0  0  0  0  0
   57.3780   21.8330   47.2140 N   0  0  0  0  0  0  0  0  0  0  0  0
   57.5680   22.0650   45.8930 C   0  0  0  0  0  0  0  0  0  0  0  0
   57.5950   23.4230   45.6990 C   0  0  0  0  0  0  0  0  0  0  0  0
   57.7580   24.2030   44.5590 C   0  0  0  0  0  0  0  0  0  0  0  0
   59.2820   28.2230   44.5980 C   0  0  0  0  0  0  0  0  0  0  0  0
   59.4650   29.5400   45.0480 C   0  0  0  0  0  0  0  0  0  0  0  0
   58.4170   30.4530   44.8910 C   0  0  0  0  0  0  0  0  0  0  0  0
   58.4000   31.8260   45.2730 N   0  0  0  0  0  0  0  0  0  0  0  0
   59.3680   32.5090   46.1460 C   0  0  1  0  0  0  0  0  0  0  0  0
   59.8140   33.8520   45.5750 C   0  0  0  0  0  0  0  0  0  0  0  0
   59.4490   34.8860   46.6340 C   0  0  0  0  0  0  0  0  0  0  0  0
   59.1800   34.1750   47.8900 N   0  0  0  0  0  0  0  0  0  0  0  0
   60.3010   34.2230   48.8630 C   0  0  0  0  0  0  0  0  0  0  0  0
   61.5140   33.3980   48.4740 C   0  0  0  0  0  0  0  0  0  0  0  0
   62.4130   33.8650   47.4970 C   0  0  0  0  0  0  0  0  0  0  0  0
   63.5370   33.1100   47.1490 C   0  0  0  0  0  0  0  0  0  0  0  0
   63.7640   31.8740   47.7570 C   0  0  0  0  0  0  0  0  0  0  0  0
   62.8620   31.3850   48.7050 C   0  0  0  0  0  0  0  0  0  0  0  0
   61.7380   32.1380   49.0570 C   0  0  0  0  0  0  0  0  0  0  0  0
   58.7680   32.8170   47.5190 C   0  0  0  0  0  0  0  0  0  0  0  0
   55.3433   30.9821   44.8553 H   0  0  0  0  0  0  0  0  0  0  0  0
   55.8752   31.4628   43.2800 H   0  0  0  0  0  0  0  0  0  0  0  0
   56.0597   28.4755   43.4095 H   0  0  0  0  0  0  0  0  0  0  0  0
   57.0230   26.3950   42.9600 H   0  0  0  0  0  0  0  0  0  0  0  0
   58.6870   26.1580   42.9790 H   0  0  0  0  0  0  0  0  0  0  0  0
   57.5134   27.2641   46.1258 H   0  0  0  0  0  0  0  0  0  0  0  0
   57.2318   25.7697   48.1370 H   0  0  0  0  0  0  0  0  0  0  0  0
   57.6809   21.2985   45.1122 H   0  0  0  0  0  0  0  0  0  0  0  0
   57.8971   23.7416   43.5702 H   0  0  0  0  0  0  0  0  0  0  0  0
   60.0942   27.4904   44.7152 H   0  0  0  0  0  0  0  0  0  0  0  0
   60.4126   29.8476   45.5143 H   0  0  0  0  0  0  0  0  0  0  0  0
   60.2186   31.8160   46.2244 H   0  0  0  0  0  0  0  0  0  0  0  0
   60.8993   33.8521   45.3955 H   0  0  0  0  0  0  0  0  0  0  0  0
   59.3298   34.0667   44.6109 H   0  0  0  0  0  0  0  0  0  0  0  0
   60.2845   35.5876   46.7740 H   0  0  0  0  0  0  0  0  0  0  0  0
   58.5622   35.4564   46.3208 H   0  0  0  0  0  0  0  0  0  0  0  0
   60.6187   35.2708   48.9683 H   0  0  0  0  0  0  0  0  0  0  0  0
   59.9185   33.7907   49.7993 H   0  0  0  0  0  0  0  0  0  0  0  0
   62.2299   34.8310   47.0037 H   0  0  0  0  0  0  0  0  0  0  0  0
   64.2428   33.4900   46.3958 H   0  0  0  0  0  0  0  0  0  0  0  0
   64.6536   31.2849   47.4895 H   0  0  0  0  0  0  0  0  0  0  0  0
   63.0364   30.4060   49.1752 H   0  0  0  0  0  0  0  0  0  0  0  0
   61.0243   31.7424   49.7947 H   0  0  0  0  0  0  0  0  0  0  0  0
   59.1411   32.0961   48.2614 H   0  0  0  0  0  0  0  0  0  0  0  0
   57.6710   32.7421   47.4862 H   0  0  0  0  0  0  0  0  0  0  0  0
  1  2  2  0
  2  3  1  0
  3  4  1  0
  4  5  2  0
  5  6  1  0
  6  7  1  0
  7  8  1  0
  8  9  2  0
  9 10  1  0
 10 11  2  0
 11 12  1  0
 12 13  1  0
 13 14  2  0
 14 15  1  0
 15 16  2  0
  6 17  2  0
 17 18  1  0
 18 19  2  0
 19 20  1  0
 20 21  1  0
 21 22  1  0
 22 23  1  0
 23 24  1  0
 24 25  1  0
 25 26  1  0
 26 27  2  0
 27 28  1  0
 28 29  2  0
 29 30  1  0
 30 31  2  0
 24 32  1  0
 20  2  1  0
 32 21  1  0
 19  4  1  0
 31 26  1  0
 16  8  1  0
 15 11  1  0
  3 33  1  0
  3 34  1  0
  5 35  1  0
  7 36  1  0
  7 37  1  0
  9 38  1  0
 10 39  1  0
 14 40  1  0
 16 41  1  0
 17 42  1  0
 18 43  1  0
 21 44  1  1
 22 45  1  0
 22 46  1  0
 23 47  1  0
 23 48  1  0
 25 49  1  0
 25 50  1  0
 27 51  1  0
 28 52  1  0
 29 53  1  0
 30 54  1  0
 31 55  1  0
 32 56  1  0
 32 57  1  0
M  CHG  2   7   1  12  -1
M  END
>  <UniqueID>  (34) 
31

>  <SMILES>  (34) 
O=C1Cc2cc([NH2+]c3ccc4[n-]ncc4c3)ccc2N1[C@H]1CCN(Cc2ccccc2)C1

>  <Energy>  (34) 
130.80845371322258

>  <Genealogy>  (34) 
O=C1Cc2cc([NH2+]c3ccc4[n-]ncc4c3)ccc2N1C1CCN(Cc2ccccc2)C1 (protonated)
O=C1Cc2cc([NH2+]c3ccc4[n-]ncc4c3)ccc2N1[C@H]1CCN(Cc2ccccc2)C1 (chirality)
O=C1Cc2cc([NH2+]c3ccc4[n-]ncc4c3)ccc2N1[C@H]1CCN(Cc2ccccc2)C1 (3D coordinates assigned)
O=C1Cc2cc([NH2+]c3ccc4[n-]ncc4c3)ccc2N1[C@H]1CCN(Cc2ccccc2)C1 (nonaromatic ring conformer: 130.80845371322258 kcal/mol)

>  <smiles>  (34) 
O=C1Cc2cc(Nc3ccc4[nH]ncc4c3)ccc2N1C1CCN(Cc2ccccc2)C1

>  <score_type>  (34) 
oracle

>  <origin>  (34) 
adg

>  <m_score__min__energy>  (34) 
-10.73

>  <m_primary>  (34) 
energy

$$$$
34:0
     RDKit          3D

 32 35  0  0  0  0  0  0  0  0999 V2000
   57.4110   26.5560   44.5690 N   0  0  0  0  0  0  0  0  0  0  0  0
   57.2320   27.8190   44.7890 C   0  0  0  0  0  0  0  0  0  0  0  0
   56.0610   28.5250   44.9350 N   0  0  0  0  0  0  0  0  0  0  0  0
   56.2610   29.7830   45.1460 N   0  0  0  0  0  0  0  0  0  0  0  0
   57.2240   30.4160   45.2340 C   0  0  0  0  0  0  0  0  0  0  0  0
   57.7230   31.7870   45.4580 C   0  0  0  0  0  0  0  0  0  0  0  0
   57.1190   32.8890   44.9000 C   0  0  0  0  0  0  0  0  0  0  0  0
   57.6350   34.1420   45.1470 C   0  0  0  0  0  0  0  0  0  0  0  0
   58.7480   34.3100   45.9460 C   0  0  0  0  0  0  0  0  0  0  0  0
   59.4680   35.3750   46.3640 N   0  0  0  0  0  0  0  0  0  0  0  0
   60.4760   34.9460   47.1480 C   0  0  0  0  0  0  0  0  0  0  0  0
   60.4000   33.5520   47.2380 C   0  0  0  0  0  0  0  0  0  0  0  0
   61.3310   32.7360   48.0070 C   0  0  0  0  0  0  0  0  0  0  0  0
   60.9300   31.7890   48.9260 C   0  0  0  0  0  0  0  0  0  0  0  0
   61.8480   31.0270   49.6430 C   0  0  0  0  0  0  0  0  0  0  0  0
   63.1790   31.2170   49.4350 N   0  0  0  0  0  0  0  0  0  0  0  0
   63.5710   32.1450   48.5360 C   0  0  0  0  0  0  0  0  0  0  0  0
   62.6860   32.9090   47.8160 C   0  0  0  0  0  0  0  0  0  0  0  0
   59.3140   33.1800   46.4800 C   0  0  0  0  0  0  0  0  0  0  0  0
   58.8180   31.9180   46.2480 C   0  0  0  0  0  0  0  0  0  0  0  0
   58.5350   29.0600   44.9740 S   0  0  0  0  0  0  0  0  0  0  0  0
   56.9550   26.0580   43.7720 H   0  0  0  0  0  0  0  0  0  0  0  0
   55.1420   28.0290   44.8700 H   0  0  0  0  0  0  0  0  0  0  0  0
   56.2310   32.7709   44.2616 H   0  0  0  0  0  0  0  0  0  0  0  0
   57.1521   35.0235   44.7001 H   0  0  0  0  0  0  0  0  0  0  0  0
   59.2690   36.3840   46.1130 H   0  0  0  0  0  0  0  0  0  0  0  0
   61.2298   35.5828   47.6342 H   0  0  0  0  0  0  0  0  0  0  0  0
   59.8549   31.6315   49.0971 H   0  0  0  0  0  0  0  0  0  0  0  0
   61.5008   30.2786   50.3706 H   0  0  0  0  0  0  0  0  0  0  0  0
   64.6483   32.2958   48.3730 H   0  0  0  0  0  0  0  0  0  0  0  0
   63.0543   33.6522   47.0935 H   0  0  0  0  0  0  0  0  0  0  0  0
   59.2988   31.0345   46.6933 H   0  0  0  0  0  0  0  0  0  0  0  0
  1  2  2  3
  2  3  1  0
  3  4  1  0
  4  5  2  0
  5  6  1  0
  6  7  2  0
  7  8  1  0
  8  9  2  0
  9 10  1  0
 10 11  1  0
 11 12  2  0
 12 13  1  0
 13 14  2  0
 14 15  1  0
 15 16  2  0
 16 17  1  0
 17 18  2  0
 12 19  1  0
 19 20  2  0
  5 21  1  0
 21  2  1  0
 20  6  1  0
 19  9  1  0
 18 13  1  0
  1 22  1  0
  3 23  1  0
  7 24  1  0
  8 25  1  0
 10 26  1  0
 11 27  1  0
 14 28  1  0
 15 29  1  0
 17 30  1  0
 18 31  1  0
 20 32  1  0
M  END
>  <smiles>  (35) 
N=c1[nH]nc(-c2ccc3[nH]cc(-c4ccncc4)c3c2)s1

>  <score_type>  (35) 
oracle

>  <origin>  (35) 
adg

>  <m_score__min__energy>  (35) 
-7.5899999999999999

>  <m_primary>  (35) 
energy

$$$$
35:0
     RDKit          3D

 31 32  0  0  0  0  0  0  0  0999 V2000
   55.2050   29.4470   44.7470 O   0  0  0  0  0  0  0  0  0  0  0  0
   56.2720   28.9520   45.1990 C   0  0  0  0  0  0  0  0  0  0  0  0
   56.3640   27.6700   45.6020 N   0  0  0  0  0  0  0  0  0  0  0  0
   57.6450   27.5590   46.0120 C   0  0  0  0  0  0  0  0  0  0  0  0
   58.3040   28.7700   45.8500 C   0  0  0  0  0  0  0  0  0  0  0  0
   57.4190   29.6500   45.3340 N   0  0  0  0  0  0  0  0  0  0  0  0
   57.6440   31.0560   44.9810 C   0  0  0  0  0  0  0  0  0  0  0  0
   58.2470   31.1980   43.5740 C   0  0  0  0  0  0  0  0  0  0  0  0
   57.1980   31.3230   42.4650 C   0  0  0  0  0  0  0  0  0  0  0  0
   57.7740   32.3610   41.1320 Cl  0  0  0  0  0  0  0  0  0  0  0  0
   59.7260   29.1140   46.2430 C   0  0  0  0  0  0  0  0  0  0  0  0
   60.8110   28.1490   45.7270 C   0  0  0  0  0  0  0  0  0  0  0  0
   60.7670   26.7700   46.4080 C   0  0  0  0  0  0  0  0  0  0  0  0
   59.5580   25.9090   45.9830 C   0  0  0  0  0  0  0  0  0  0  0  0
   58.2090   26.3070   46.6080 C   0  0  0  0  0  0  0  0  0  0  0  0
   56.6828   31.5900   45.0128 H   0  0  0  0  0  0  0  0  0  0  0  0
   58.3550   31.4822   45.7041 H   0  0  0  0  0  0  0  0  0  0  0  0
   58.8799   32.0975   43.5565 H   0  0  0  0  0  0  0  0  0  0  0  0
   58.8182   30.2793   43.3745 H   0  0  0  0  0  0  0  0  0  0  0  0
   56.9769   30.3213   42.0678 H   0  0  0  0  0  0  0  0  0  0  0  0
   56.2955   31.7825   42.8944 H   0  0  0  0  0  0  0  0  0  0  0  0
   59.9518   30.1173   45.8525 H   0  0  0  0  0  0  0  0  0  0  0  0
   59.7599   29.0461   47.3404 H   0  0  0  0  0  0  0  0  0  0  0  0
   60.6695   28.0096   44.6451 H   0  0  0  0  0  0  0  0  0  0  0  0
   61.7873   28.5987   45.9606 H   0  0  0  0  0  0  0  0  0  0  0  0
   61.6883   26.2262   46.1521 H   0  0  0  0  0  0  0  0  0  0  0  0
   60.6725   26.9472   47.4895 H   0  0  0  0  0  0  0  0  0  0  0  0
   59.4591   25.9798   44.8897 H   0  0  0  0  0  0  0  0  0  0  0  0
   59.7698   24.8917   46.3440 H   0  0  0  0  0  0  0  0  0  0  0  0
   57.4922   25.4877   46.4499 H   0  0  0  0  0  0  0  0  0  0  0  0
   58.3805   26.4955   47.6781 H   0  0  0  0  0  0  0  0  0  0  0  0
  1  2  2  0
  2  3  1  0
  3  4  1  0
  4  5  2  0
  5  6  1  0
  6  7  1  0
  7  8  1  0
  8  9  1  0
  9 10  1  0
  5 11  1  0
 11 12  1  0
 12 13  1  0
 13 14  1  0
 14 15  1  0
  6  2  1  0
 15  4  1  0
  7 16  1  0
  7 17  1  0
  8 18  1  0
  8 19  1  0
  9 20  1  0
  9 21  1  0
 11 22  1  0
 11 23  1  0
 12 24  1  0
 12 25  1  0
 13 26  1  0
 13 27  1  0
 14 28  1  0
 14 29  1  0
 15 30  1  0
 15 31  1  0
M  CHG  1   3  -1
M  END
>  <UniqueID>  (36) 
32

>  <SMILES>  (36) 
O=c1[n-]c2c(n1CCCCl)CCCCC2

>  <Energy>  (36) 
60.414633350567485

>  <Genealogy>  (36) 
O=c1[n-]c2c(n1CCCCl)CCCCC2 (protonated)
O=c1[n-]c2c(n1CCCCl)CCCCC2 (3D coordinates assigned)
O=c1[n-]c2c(n1CCCCl)CCCCC2 (nonaromatic ring conformer: 60.414633350567485 kcal/mol)

>  <smiles>  (36) 
O=c1[nH]c2c(n1CCCCl)CCCCC2

>  <score_type>  (36) 
oracle

>  <origin>  (36) 
adg

>  <m_score__min__energy>  (36) 
-5.9299999999999997

>  <m_primary>  (36) 
energy

$$$$
36:0
     RDKit          3D

 39 43  0  0  0  0  0  0  0  0999 V2000
   59.9480   36.1110   46.7230 O   0  0  0  0  0  0  0  0  0  0  0  0
   59.6420   34.8960   46.5850 C   0  0  0  0  0  0  0  0  0  0  0  0
   59.1290   34.4470   45.3360 N   0  0  0  0  0  0  0  0  0  0  0  0
   58.6830   33.2450   45.1460 C   0  0  0  0  0  0  0  0  0  0  0  0
   58.1970   32.9290   43.9100 N   0  0  0  0  0  0  0  0  0  0  0  0
   57.6650   31.7080   43.6810 C   0  0  0  0  0  0  0  0  0  0  0  0
   57.0150   31.1410   42.2450 S   0  0  0  0  0  0  0  0  0  0  0  0
   56.5990   29.6260   42.8770 C   0  0  0  0  0  0  0  0  0  0  0  0
   56.9700   29.5680   44.2210 C   0  0  0  0  0  0  0  0  0  0  0  0
   57.5700   30.7520   44.6620 C   0  0  0  0  0  0  0  0  0  0  0  0
   58.0500   31.0220   45.9400 C   0  0  0  0  0  0  0  0  0  0  0  0
   58.6480   32.2840   46.2090 C   0  0  0  0  0  0  0  0  0  0  0  0
   59.1630   32.5850   47.4380 C   0  0  0  0  0  0  0  0  0  0  0  0
   59.0330   31.6120   48.6060 C   0  0  0  0  0  0  0  0  0  0  0  0
   59.7590   32.0780   49.8760 C   0  0  0  0  0  0  0  0  0  0  0  0
   59.4630   33.5420   50.2400 C   0  0  0  0  0  0  0  0  0  0  0  0
   59.2970   34.4790   49.0230 C   0  0  0  0  0  0  0  0  0  0  0  0
   59.8900   33.9120   47.7030 C   0  0  2  0  0  0  0  0  0  0  0  0
   61.4010   33.6840   47.7720 C   0  0  0  0  0  0  0  0  0  0  0  0
   62.0990   33.0150   46.7470 C   0  0  0  0  0  0  0  0  0  0  0  0
   63.4720   32.7970   46.8740 C   0  0  0  0  0  0  0  0  0  0  0  0
   64.1420   33.2230   48.0210 C   0  0  0  0  0  0  0  0  0  0  0  0
   63.4220   33.8560   49.0330 C   0  0  0  0  0  0  0  0  0  0  0  0
   62.0870   34.0630   48.8910 N   0  0  0  0  0  0  0  0  0  0  0  0
   56.1125   28.8146   42.3159 H   0  0  0  0  0  0  0  0  0  0  0  0
   56.8085   28.6889   44.8622 H   0  0  0  0  0  0  0  0  0  0  0  0
   57.9676   30.2662   46.7349 H   0  0  0  0  0  0  0  0  0  0  0  0
   57.9652   31.4903   48.8404 H   0  0  0  0  0  0  0  0  0  0  0  0
   59.5023   30.6675   48.2936 H   0  0  0  0  0  0  0  0  0  0  0  0
   59.4433   31.4388   50.7137 H   0  0  0  0  0  0  0  0  0  0  0  0
   60.8390   32.0013   49.6820 H   0  0  0  0  0  0  0  0  0  0  0  0
   58.5323   33.5699   50.8256 H   0  0  0  0  0  0  0  0  0  0  0  0
   60.3339   33.9087   50.8032 H   0  0  0  0  0  0  0  0  0  0  0  0
   58.2229   34.6601   48.8699 H   0  0  0  0  0  0  0  0  0  0  0  0
   59.8534   35.3998   49.2521 H   0  0  0  0  0  0  0  0  0  0  0  0
   61.5646   32.6662   45.8510 H   0  0  0  0  0  0  0  0  0  0  0  0
   64.0253   32.2896   46.0700 H   0  0  0  0  0  0  0  0  0  0  0  0
   65.2250   33.0614   48.1256 H   0  0  0  0  0  0  0  0  0  0  0  0
   63.9354   34.1882   49.9474 H   0  0  0  0  0  0  0  0  0  0  0  0
  1  2  2  0
  2  3  1  0
  3  4  2  0
  4  5  1  0
  5  6  2  0
  6  7  1  0
  7  8  1  0
  8  9  2  0
  9 10  1  0
 10 11  2  0
 11 12  1  0
 12 13  2  0
 13 14  1  0
 14 15  1  0
 15 16  1  0
 16 17  1  0
 17 18  1  0
 18 19  1  1
 19 20  2  0
 20 21  1  0
 21 22  2  0
 22 23  1  0
 23 24  2  0
 18  2  1  0
 24 19  1  0
 12  4  1  0
 18 13  1  0
 10  6  1  0
  8 25  1  0
  9 26  1  0
 11 27  1  0
 14 28  1  0
 14 29  1  0
 15 30  1  0
 15 31  1  0
 16 32  1  0
 16 33  1  0
 17 34  1  0
 17 35  1  0
 20 36  1  0
 21 37  1  0
 22 38  1  0
 23 39  1  0
M  END
>  <UniqueID>  (37) 
33

>  <SMILES>  (37) 
O=C1N=c2nc3sccc3cc2=C2CCCC[C@]12c1ccccn1

>  <Energy>  (37) 
92.40000886452992

>  <Genealogy>  (37) 
O=C1N=c2nc3sccc3cc2=C2CCCC[C@]12c1ccccn1 (chirality)
O=C1N=c2nc3sccc3cc2=C2CCCC[C@]12c1ccccn1 (3D coordinates assigned)
O=C1N=c2nc3sccc3cc2=C2CCCC[C@]12c1ccccn1 (nonaromatic ring conformer: 92.40000886452992 kcal/mol)

>  <smiles>  (37) 
O=C1N=c2nc3sccc3cc2=C2CCCCC12c1ccccn1

>  <score_type>  (37) 
oracle

>  <origin>  (37) 
adg

>  <m_score__min__energy>  (37) 
-8.7899999999999991

>  <m_primary>  (37) 
energy

$$$$
37:0
     RDKit          3D

 46 47  0  0  0  0  0  0  0  0999 V2000
   57.4900   32.3360   41.2010 C   0  0  0  0  0  0  0  0  0  0  0  0
   57.4050   31.5990   42.5060 C   0  0  0  0  0  0  0  0  0  0  0  0
   56.6430   30.4250   42.6060 C   0  0  0  0  0  0  0  0  0  0  0  0
   56.6030   29.7140   43.8080 C   0  0  0  0  0  0  0  0  0  0  0  0
   57.3260   30.1660   44.9160 C   0  0  0  0  0  0  0  0  0  0  0  0
   58.0910   31.3420   44.8310 C   0  0  0  0  0  0  0  0  0  0  0  0
   58.8750   31.8040   45.9440 N   0  0  0  0  0  0  0  0  0  0  0  0
   58.6240   33.0260   46.6600 C   0  0  0  0  0  0  0  0  0  0  0  0
   58.1370   34.3650   45.8230 S   0  0  0  0  0  0  0  0  0  0  0  0
   59.0920   33.1460   48.0300 N   0  0  1  0  0  0  0  0  0  0  0  0
   59.7340   31.8690   48.4380 C   0  0  0  0  0  0  0  0  0  0  0  0
   59.2910   31.3900   49.8350 C   0  0  0  0  0  0  0  0  0  0  0  0
   58.4830   32.4240   50.5200 N   0  0  0  0  0  0  0  0  0  0  0  0
   57.4820   31.8120   51.4100 C   0  0  0  0  0  0  0  0  0  0  0  0
   59.3610   33.3060   51.3050 C   0  0  0  0  0  0  0  0  0  0  0  0
   59.9890   34.3260   48.1610 C   0  0  0  0  0  0  0  0  0  0  0  0
   61.4340   33.9900   47.9130 C   0  0  0  0  0  0  0  0  0  0  0  0
   62.0380   33.8220   46.6720 C   0  0  0  0  0  0  0  0  0  0  0  0
   63.3810   33.4370   46.7590 C   0  0  0  0  0  0  0  0  0  0  0  0
   63.8320   33.2790   48.0630 C   0  0  0  0  0  0  0  0  0  0  0  0
   62.5590   33.6150   49.1070 S   0  0  0  0  0  0  0  0  0  0  0  0
   58.1450   32.0380   43.6140 C   0  0  0  0  0  0  0  0  0  0  0  0
   57.6141   33.4117   41.3948 H   0  0  0  0  0  0  0  0  0  0  0  0
   58.3513   31.9653   40.6260 H   0  0  0  0  0  0  0  0  0  0  0  0
   56.5669   32.1711   40.6260 H   0  0  0  0  0  0  0  0  0  0  0  0
   56.0756   30.0635   41.7357 H   0  0  0  0  0  0  0  0  0  0  0  0
   56.0012   28.7963   43.8828 H   0  0  0  0  0  0  0  0  0  0  0  0
   57.2960   29.5989   45.8581 H   0  0  0  0  0  0  0  0  0  0  0  0
   59.6840   31.2180   46.2510 H   0  0  0  0  0  0  0  0  0  0  0  0
   58.2420   33.2990   48.6200 H   0  0  0  0  0  0  0  0  0  0  0  0
   59.4715   31.0943   47.7025 H   0  0  0  0  0  0  0  0  0  0  0  0
   60.8189   32.0455   48.4800 H   0  0  0  0  0  0  0  0  0  0  0  0
   58.6886   30.4759   49.7273 H   0  0  0  0  0  0  0  0  0  0  0  0
   60.1893   31.1914   50.4380 H   0  0  0  0  0  0  0  0  0  0  0  0
   57.7675   31.9866   52.4579 H   0  0  0  0  0  0  0  0  0  0  0  0
   56.4969   32.2624   51.2185 H   0  0  0  0  0  0  0  0  0  0  0  0
   57.4339   30.7299   51.2185 H   0  0  0  0  0  0  0  0  0  0  0  0
   59.1894   33.1337   52.3778 H   0  0  0  0  0  0  0  0  0  0  0  0
   60.4115   33.0882   51.0620 H   0  0  0  0  0  0  0  0  0  0  0  0
   59.1384   34.3555   51.0620 H   0  0  0  0  0  0  0  0  0  0  0  0
   59.6754   35.0884   47.4327 H   0  0  0  0  0  0  0  0  0  0  0  0
   59.9067   34.6914   49.1953 H   0  0  0  0  0  0  0  0  0  0  0  0
   61.5132   33.9761   45.7176 H   0  0  0  0  0  0  0  0  0  0  0  0
   64.0190   33.2749   45.8777 H   0  0  0  0  0  0  0  0  0  0  0  0
   64.8489   32.9842   48.3614 H   0  0  0  0  0  0  0  0  0  0  0  0
   58.7736   32.9365   43.5278 H   0  0  0  0  0  0  0  0  0  0  0  0
  1  2  1  0
  2  3  2  0
  3  4  1  0
  4  5  2  0
  5  6  1  0
  6  7  1  0
  7  8  1  0
  8  9  2  0
  8 10  1  0
 10 11  1  0
 11 12  1  0
 12 13  1  0
 13 14  1  0
 13 15  1  0
 10 16  1  0
 16 17  1  0
 17 18  2  0
 18 19  1  0
 19 20  2  0
 20 21  1  0
  6 22  2  0
 22  2  1  0
 21 17  1  0
  1 23  1  0
  1 24  1  0
  1 25  1  0
  3 26  1  0
  4 27  1  0
  5 28  1  0
  7 29  1  0
 10 30  1  1
 11 31  1  0
 11 32  1  0
 12 33  1  0
 12 34  1  0
 14 35  1  0
 14 36  1  0
 14 37  1  0
 15 38  1  0
 15 39  1  0
 15 40  1  0
 16 41  1  0
 16 42  1  0
 18 43  1  0
 19 44  1  0
 20 45  1  0
 22 46  1  0
M  CHG  1  10   1
M  END
>  <UniqueID>  (38) 
34

>  <SMILES>  (38) 
Cc1cccc(NC(=S)[N@@H+](CCN(C)C)Cc2cccs2)c1

>  <Energy>  (38) 
80.14916473754333

>  <Genealogy>  (38) 
Cc1cccc(NC(=S)[NH+](CCN(C)C)Cc2cccs2)c1 (protonated)
Cc1cccc(NC(=S)[N@@H+](CCN(C)C)Cc2cccs2)c1 (chirality)
Cc1cccc(NC(=S)[N@@H+](CCN(C)C)Cc2cccs2)c1 (3D coordinates assigned)
Cc1cccc(NC(=S)[N@@H+](CCN(C)C)Cc2cccs2)c1 (optimized conformer: 80.14916473754333 kcal/mol)

>  <smiles>  (38) 
Cc1cccc(NC(=S)N(CCN(C)C)Cc2cccs2)c1

>  <score_type>  (38) 
oracle

>  <origin>  (38) 
adg

>  <m_score__min__energy>  (38) 
-5.5300000000000002

>  <m_primary>  (38) 
energy

$$$$
38:0
     RDKit          3D

 30 33  0  0  0  0  0  0  0  0999 V2000
   59.2400   32.7090   46.5640 C   0  0  0  0  0  0  0  0  0  0  0  0
   59.7130   31.4000   46.6300 C   0  0  0  0  0  0  0  0  0  0  0  0
   58.7690   30.6450   45.9690 C   0  0  0  0  0  0  0  0  0  0  0  0
   58.6960   29.2820   45.7080 C   0  0  0  0  0  0  0  0  0  0  0  0
   57.5770   28.8090   44.9840 C   0  0  0  0  0  0  0  0  0  0  0  0
   57.4370   27.3640   44.6710 C   0  0  0  0  0  0  0  0  0  0  0  0
   57.8540   26.8590   43.4260 C   0  0  0  0  0  0  0  0  0  0  0  0
   57.7230   25.4990   43.1320 C   0  0  0  0  0  0  0  0  0  0  0  0
   57.1700   24.6160   44.0730 C   0  0  0  0  0  0  0  0  0  0  0  0
   57.0300   23.1790   43.7610 C   0  0  0  0  0  0  0  0  0  0  0  0
   56.0230   22.6500   43.0350 N   0  0  0  0  0  0  0  0  0  0  0  0
   56.2760   21.3520   42.9950 N   0  0  0  0  0  0  0  0  0  0  0  0
   57.3850   21.1060   43.6680 N   0  0  0  0  0  0  0  0  0  0  0  0
   57.8900   22.2230   44.1650 N   0  0  0  0  0  0  0  0  0  0  0  0
   56.7520   25.1190   45.3160 C   0  0  0  0  0  0  0  0  0  0  0  0
   56.8850   26.4780   45.6130 C   0  0  0  0  0  0  0  0  0  0  0  0
   56.5890   29.7420   44.5620 C   0  0  0  0  0  0  0  0  0  0  0  0
   56.7140   31.0730   44.8490 N   0  0  0  0  0  0  0  0  0  0  0  0
   57.7970   31.4980   45.5420 C   0  0  0  0  0  0  0  0  0  0  0  0
   58.0630   32.7640   45.8950 N   0  0  0  0  0  0  0  0  0  0  0  0
   59.7531   33.5805   46.9968 H   0  0  0  0  0  0  0  0  0  0  0  0
   60.6392   31.0462   47.1065 H   0  0  0  0  0  0  0  0  0  0  0  0
   59.4821   28.5942   46.0529 H   0  0  0  0  0  0  0  0  0  0  0  0
   58.2865   27.5398   42.6781 H   0  0  0  0  0  0  0  0  0  0  0  0
   58.0558   25.1174   42.1555 H   0  0  0  0  0  0  0  0  0  0  0  0
   57.8070   20.1600   43.7920 H   0  0  0  0  0  0  0  0  0  0  0  0
   56.3164   24.4377   46.0617 H   0  0  0  0  0  0  0  0  0  0  0  0
   56.5553   26.8576   46.5914 H   0  0  0  0  0  0  0  0  0  0  0  0
   55.7136   29.3880   43.9978 H   0  0  0  0  0  0  0  0  0  0  0  0
   57.4890   33.6140   45.6970 H   0  0  0  0  0  0  0  0  0  0  0  0
  1  2  2  0
  2  3  1  0
  3  4  2  0
  4  5  1  0
  5  6  1  0
  6  7  2  0
  7  8  1  0
  8  9  2  0
  9 10  1  0
 10 11  2  0
 11 12  1  0
 12 13  1  0
 13 14  2  0
  9 15  1  0
 15 16  2  0
  5 17  2  0
 17 18  1  0
 18 19  2  0
 19 20  1  0
 20  1  1  0
 19  3  1  0
 16  6  1  0
 14 10  1  0
  1 21  1  0
  2 22  1  0
  4 23  1  0
  7 24  1  0
  8 25  1  0
 13 26  1  0
 15 27  1  0
 16 28  1  0
 17 29  1  0
 20 30  1  0
M  CHG  2  12  -1  13   1
M  END
>  <UniqueID>  (39) 
35

>  <SMILES>  (39) 
c1cc2cc(-c3ccc(-c4n[n-][nH+]n4)cc3)cnc2[nH]1

>  <Energy>  (39) 
113.19635357868677

>  <Genealogy>  (39) 
c1cc2cc(-c3ccc(-c4n[n-][nH+]n4)cc3)cnc2[nH]1 (protonated)
c1cc2cc(-c3ccc(-c4n[n-][nH+]n4)cc3)cnc2[nH]1 (3D coordinates assigned)
c1cc2cc(-c3ccc(-c4n[n-][nH+]n4)cc3)cnc2[nH]1 (optimized conformer: 113.19635357868677 kcal/mol)

>  <smiles>  (39) 
c1cc2cc(-c3ccc(-c4nn[nH]n4)cc3)cnc2[nH]1

>  <score_type>  (39) 
oracle

>  <origin>  (39) 
adg

>  <m_score__min__energy>  (39) 
-7.96

>  <m_primary>  (39) 
energy

$$$$
39:0
     RDKit          3D

 40 41  0  0  0  0  0  0  0  0999 V2000
   55.5200   29.7180   43.5900 C   0  0  0  0  0  0  0  0  0  0  0  0
   56.6590   30.6380   43.1520 C   0  0  0  0  0  0  0  0  0  0  0  0
   57.1900   31.4870   44.3140 C   0  0  0  0  0  0  0  0  0  0  0  0
   57.8200   30.6360   45.3500 N   0  0  0  0  0  0  0  0  0  0  0  0
   58.6840   31.4500   46.2230 C   0  0  0  0  0  0  0  0  0  0  0  0
   58.5930   29.5330   44.7410 C   0  0  0  0  0  0  0  0  0  0  0  0
   58.2890   28.2450   45.4420 C   0  0  0  0  0  0  0  0  0  0  0  0
   59.1700   27.5450   46.2460 C   0  0  0  0  0  0  0  0  0  0  0  0
   58.5210   26.3800   46.6090 C   0  0  0  0  0  0  0  0  0  0  0  0
   57.2800   26.4280   46.0060 C   0  0  0  0  0  0  0  0  0  0  0  0
   56.0750   25.1570   46.0630 S   0  0  0  0  0  0  0  0  0  0  0  0
   55.9410   24.6620   47.4760 O   0  0  0  0  0  0  0  0  0  0  0  0
   54.7450   25.6970   45.6190 O   0  0  0  0  0  0  0  0  0  0  0  0
   56.5730   23.8500   44.9950 C   0  0  0  0  0  0  0  0  0  0  0  0
   55.8800   23.6330   43.7950 C   0  0  0  0  0  0  0  0  0  0  0  0
   56.2760   22.6090   42.9300 C   0  0  0  0  0  0  0  0  0  0  0  0
   57.3670   21.7980   43.2580 C   0  0  0  0  0  0  0  0  0  0  0  0
   58.0650   22.0130   44.4500 C   0  0  0  0  0  0  0  0  0  0  0  0
   57.6710   23.0370   45.3180 C   0  0  0  0  0  0  0  0  0  0  0  0
   57.1410   27.5580   45.2910 N   0  0  0  0  0  0  0  0  0  0  0  0
   55.4780   29.6840   44.6887 H   0  0  0  0  0  0  0  0  0  0  0  0
   54.5668   30.1026   43.1983 H   0  0  0  0  0  0  0  0  0  0  0  0
   55.6955   28.7052   43.1983 H   0  0  0  0  0  0  0  0  0  0  0  0
   57.4808   30.0227   42.7570 H   0  0  0  0  0  0  0  0  0  0  0  0
   56.2683   31.3205   42.3829 H   0  0  0  0  0  0  0  0  0  0  0  0
   57.9369   32.1967   43.9287 H   0  0  0  0  0  0  0  0  0  0  0  0
   56.3453   32.0249   44.7691 H   0  0  0  0  0  0  0  0  0  0  0  0
   58.4518   31.2312   47.2757 H   0  0  0  0  0  0  0  0  0  0  0  0
   59.7385   31.2095   46.0225 H   0  0  0  0  0  0  0  0  0  0  0  0
   58.5067   32.5169   46.0225 H   0  0  0  0  0  0  0  0  0  0  0  0
   58.3224   29.4420   43.6787 H   0  0  0  0  0  0  0  0  0  0  0  0
   59.6672   29.7503   44.8357 H   0  0  0  0  0  0  0  0  0  0  0  0
   60.1845   27.8537   46.5382 H   0  0  0  0  0  0  0  0  0  0  0  0
   58.9140   25.5765   47.2493 H   0  0  0  0  0  0  0  0  0  0  0  0
   55.0224   24.2705   43.5339 H   0  0  0  0  0  0  0  0  0  0  0  0
   55.7291   22.4409   41.9905 H   0  0  0  0  0  0  0  0  0  0  0  0
   57.6761   20.9906   42.5778 H   0  0  0  0  0  0  0  0  0  0  0  0
   58.9249   21.3764   44.7057 H   0  0  0  0  0  0  0  0  0  0  0  0
   58.2223   23.2054   46.2549 H   0  0  0  0  0  0  0  0  0  0  0  0
   56.3170   27.8320   44.7100 H   0  0  0  0  0  0  0  0  0  0  0  0
  1  2  1  0
  2  3  1  0
  3  4  1  0
  4  5  1  0
  4  6  1  0
  6  7  1  0
  7  8  2  0
  8  9  1  0
  9 10  2  0
 10 11  1  0
 11 12  2  0
 11 13  2  0
 11 14  1  0
 14 15  2  0
 15 16  1  0
 16 17  2  0
 17 18  1  0
 18 19  2  0
 10 20  1  0
 20  7  1  0
 19 14  1  0
  1 21  1  0
  1 22  1  0
  1 23  1  0
  2 24  1  0
  2 25  1  0
  3 26  1  0
  3 27  1  0
  5 28  1  0
  5 29  1  0
  5 30  1  0
  6 31  1  0
  6 32  1  0
  8 33  1  0
  9 34  1  0
 15 35  1  0
 16 36  1  0
 17 37  1  0
 18 38  1  0
 19 39  1  0
 20 40  1  0
M  END
>  <UniqueID>  (40) 
36

>  <SMILES>  (40) 
CCCN(C)Cc1ccc(S(=O)(=O)c2ccccc2)[nH]1

>  <Energy>  (40) 
62.47783779141197

>  <Genealogy>  (40) 
CCCN(C)Cc1ccc(S(=O)(=O)c2ccccc2)[nH]1 (3D coordinates assigned)
CCCN(C)Cc1ccc(S(=O)(=O)c2ccccc2)[nH]1 (optimized conformer: 62.47783779141197 kcal/mol)

>  <smiles>  (40) 
CCCN(C)Cc1ccc(S(=O)(=O)c2ccccc2)[nH]1

>  <score_type>  (40) 
oracle

>  <origin>  (40) 
adg

>  <m_score__min__energy>  (40) 
-7.96

>  <m_primary>  (40) 
energy

$$$$
40:0
     RDKit          3D

 39 41  0  0  0  0  0  0  0  0999 V2000
   57.3620   33.7680   45.7930 C   0  0  0  0  0  0  0  0  0  0  0  0
   58.3400   33.7480   46.9410 C   0  0  0  0  0  0  0  0  0  0  0  0
   59.3020   34.9010   47.0760 C   0  0  0  0  0  0  0  0  0  0  0  0
   58.3680   32.7350   47.8320 C   0  0  0  0  0  0  0  0  0  0  0  0
   59.1270   32.8090   49.1350 C   0  0  0  0  0  0  0  0  0  0  0  0
   58.7650   31.6510   50.0310 C   0  0  0  0  0  0  0  0  0  0  0  0
   57.6780   31.7650   50.9130 C   0  0  0  0  0  0  0  0  0  0  0  0
   57.3460   30.7110   51.7820 C   0  0  0  0  0  0  0  0  0  0  0  0
   56.1610   30.8220   52.7100 C   0  0  1  0  0  0  0  0  0  0  0  0
   55.3240   31.9260   52.3390 O   0  0  0  0  0  0  0  0  0  0  0  0
   54.0500   31.4760   52.0160 C   0  0  0  0  0  0  0  0  0  0  0  0
   52.9650   32.2490   51.6050 C   0  0  0  0  0  0  0  0  0  0  0  0
   51.7530   31.5940   51.3150 C   0  0  0  0  0  0  0  0  0  0  0  0
   50.6500   32.3320   50.9030 O   0  0  0  0  0  0  0  0  0  0  0  0
   51.6540   30.1910   51.4420 C   0  0  0  0  0  0  0  0  0  0  0  0
   52.7640   29.4360   51.8580 C   0  0  0  0  0  0  0  0  0  0  0  0
   53.9480   30.1160   52.1360 C   0  0  0  0  0  0  0  0  0  0  0  0
   55.2430   29.6400   52.5710 C   0  0  0  0  0  0  0  0  0  0  0  0
   55.5420   28.4400   52.8090 O   0  0  0  0  0  0  0  0  0  0  0  0
   58.1100   29.5340   51.7580 C   0  0  0  0  0  0  0  0  0  0  0  0
   59.2030   29.4210   50.8960 C   0  0  0  0  0  0  0  0  0  0  0  0
   59.5390   30.4750   50.0400 C   0  0  0  0  0  0  0  0  0  0  0  0
   60.6420   30.3450   49.2020 O   0  0  0  0  0  0  0  0  0  0  0  0
   56.3350   33.7890   46.1865 H   0  0  0  0  0  0  0  0  0  0  0  0
   57.5372   34.6628   45.1776 H   0  0  0  0  0  0  0  0  0  0  0  0
   57.5005   32.8668   45.1776 H   0  0  0  0  0  0  0  0  0  0  0  0
   59.4765   35.1101   48.1418 H   0  0  0  0  0  0  0  0  0  0  0  0
   60.2553   34.6417   46.5924 H   0  0  0  0  0  0  0  0  0  0  0  0
   58.8761   35.7925   46.5924 H   0  0  0  0  0  0  0  0  0  0  0  0
   57.8131   31.8143   47.5986 H   0  0  0  0  0  0  0  0  0  0  0  0
   60.2065   32.7797   48.9259 H   0  0  0  0  0  0  0  0  0  0  0  0
   58.8617   33.7466   49.6453 H   0  0  0  0  0  0  0  0  0  0  0  0
   57.0803   32.6884   50.9239 H   0  0  0  0  0  0  0  0  0  0  0  0
   56.5884   30.9162   53.7192 H   0  0  0  0  0  0  0  0  0  0  0  0
   53.0535   33.3413   51.5099 H   0  0  0  0  0  0  0  0  0  0  0  0
   50.7034   29.6866   51.2142 H   0  0  0  0  0  0  0  0  0  0  0  0
   52.7001   28.3427   51.9609 H   0  0  0  0  0  0  0  0  0  0  0  0
   57.8468   28.6967   52.4211 H   0  0  0  0  0  0  0  0  0  0  0  0
   59.8025   28.4987   50.8902 H   0  0  0  0  0  0  0  0  0  0  0  0
  1  2  1  0
  2  3  1  0
  2  4  2  3
  4  5  1  0
  5  6  1  0
  6  7  2  0
  7  8  1  0
  8  9  1  0
  9 10  1  0
 10 11  1  0
 11 12  2  0
 12 13  1  0
 13 14  1  0
 13 15  2  0
 15 16  1  0
 16 17  2  0
 17 18  1  0
 18 19  2  0
  8 20  2  0
 20 21  1  0
 21 22  2  0
 22 23  1  0
 22  6  1  0
 18  9  1  0
 17 11  1  0
  1 24  1  0
  1 25  1  0
  1 26  1  0
  3 27  1  0
  3 28  1  0
  3 29  1  0
  4 30  1  0
  5 31  1  0
  5 32  1  0
  7 33  1  0
  9 34  1  1
 12 35  1  0
 15 36  1  0
 16 37  1  0
 20 38  1  0
 21 39  1  0
M  CHG  2  14  -1  23  -1
M  END
>  <UniqueID>  (41) 
37

>  <SMILES>  (41) 
CC(C)=CCc1cc([C@H]2Oc3cc([O-])ccc3C2=O)ccc1[O-]

>  <Energy>  (41) 
61.3286954725264

>  <Genealogy>  (41) 
CC(C)=CCc1cc(C2Oc3cc([O-])ccc3C2=O)ccc1[O-] (protonated)
CC(C)=CCc1cc([C@H]2Oc3cc([O-])ccc3C2=O)ccc1[O-] (chirality)
CC(C)=CCc1cc([C@H]2Oc3cc([O-])ccc3C2=O)ccc1[O-] (3D coordinates assigned)
CC(C)=CCc1cc([C@H]2Oc3cc([O-])ccc3C2=O)ccc1[O-] (nonaromatic ring conformer: 61.3286954725264 kcal/mol)

>  <smiles>  (41) 
CC(C)=CCc1cc(C2Oc3cc(O)ccc3C2=O)ccc1O

>  <score_type>  (41) 
oracle

>  <origin>  (41) 
adg

>  <m_score__min__energy>  (41) 
-10.890000000000001

>  <m_primary>  (41) 
energy

$$$$
41:0
     RDKit          3D

 23 24  0  0  0  0  0  0  0  0999 V2000
   60.2138   35.6087   46.6819 H   0  0  0  0  0  0  0  0  0  0  0  0
   59.4810   34.8720   46.3210 C   0  0  0  0  0  0  0  0  0  0  0  0
   59.2470   34.7320   44.9500 C   0  0  0  0  0  0  0  0  0  0  0  0
   59.8033   35.3520   44.2316 H   0  0  0  0  0  0  0  0  0  0  0  0
   58.3070   33.8050   44.4910 C   0  0  0  0  0  0  0  0  0  0  0  0
   58.1386   33.6864   43.4105 H   0  0  0  0  0  0  0  0  0  0  0  0
   57.5780   33.0260   45.3990 C   0  0  0  0  0  0  0  0  0  0  0  0
   56.6500   32.0550   44.8910 N   0  0  0  0  0  0  0  0  0  0  0  0
   56.9340   30.8500   44.4890 C   0  0  0  0  0  0  0  0  0  0  0  0
   56.1000   29.9040   43.3900 S   0  0  0  0  0  0  0  0  0  0  0  0
   57.1180   28.5930   43.3690 N   0  0  0  0  0  0  0  0  0  0  0  0
   56.9920   27.7180   42.8160 H   0  0  0  0  0  0  0  0  0  0  0  0
   58.1470   28.8820   44.2100 C   0  0  0  0  0  0  0  0  0  0  0  0
   59.2470   27.9060   44.4790 C   0  0  0  0  0  0  0  0  0  0  0  0
   59.3772   27.7905   45.5651 H   0  0  0  0  0  0  0  0  0  0  0  0
   58.9905   26.9329   44.0349 H   0  0  0  0  0  0  0  0  0  0  0  0
   60.1827   28.2765   44.0349 H   0  0  0  0  0  0  0  0  0  0  0  0
   58.0670   30.1380   44.8540 C   0  0  0  0  0  0  0  0  0  0  0  0
   58.8195   30.5092   45.5653 H   0  0  0  0  0  0  0  0  0  0  0  0
   57.8420   33.1470   46.7770 C   0  0  0  0  0  0  0  0  0  0  0  0
   57.3066   32.5099   47.4963 H   0  0  0  0  0  0  0  0  0  0  0  0
   58.7830   34.0750   47.2330 C   0  0  0  0  0  0  0  0  0  0  0  0
   58.9745   34.1782   48.3113 H   0  0  0  0  0  0  0  0  0  0  0  0
  1  2  1  0
  2  3  2  0
  3  4  1  0
  3  5  1  0
  5  6  1  0
  5  7  2  0
  7  8  1  0
  8  9  2  0
  9 10  1  0
 10 11  1  0
 11 12  1  0
 11 13  1  0
 13 14  1  0
 14 15  1  0
 14 16  1  0
 14 17  1  0
 13 18  2  0
 18 19  1  0
  7 20  1  0
 20 21  1  0
 20 22  2  0
 22 23  1  0
 22  2  1  0
 18  9  1  0
M  END
>  <UniqueID>  (42) 
38

>  <SMILES>  (42) 
Cc1c/c(=N/c2ccccc2)s[nH]1

>  <Energy>  (42) 
63.10277836034127

>  <Genealogy>  (42) 
Cc1c/c(=N/c2ccccc2)s[nH]1 (cis-trans isomerization)
Cc1c/c(=N/c2ccccc2)s[nH]1 (3D coordinates assigned)
Cc1c/c(=N/c2ccccc2)s[nH]1 (optimized conformer: 63.10277836034127 kcal/mol)

>  <smiles>  (42) 
Cc1cc(=Nc2ccccc2)s[nH]1

>  <score_type>  (42) 
oracle

>  <origin>  (42) 
adg

>  <m_score__min__energy>  (42) 
-6.4299999999999997

>  <m_primary>  (42) 
energy

$$$$
42:0
     RDKit          3D

 31 33  0  0  0  0  0  0  0  0999 V2000
   63.4490   32.3040   53.0600 C   0  0  0  0  0  0  0  0  0  0  0  0
   63.8100   33.3790   52.2000 O   0  0  0  0  0  0  0  0  0  0  0  0
   63.5160   33.4320   50.8280 C   0  0  0  0  0  0  0  0  0  0  0  0
   62.2450   33.8340   50.3510 C   0  0  0  0  0  0  0  0  0  0  0  0
   62.0160   33.8670   48.9730 C   0  0  0  0  0  0  0  0  0  0  0  0
   60.8220   34.2350   48.3450 C   0  0  0  0  0  0  0  0  0  0  0  0
   60.9070   34.1720   46.9520 C   0  0  0  0  0  0  0  0  0  0  0  0
   59.7920   34.4480   46.0230 C   0  0  0  0  0  0  0  0  0  0  0  0
   59.5340   35.6460   45.7220 O   0  0  0  0  0  0  0  0  0  0  0  0
   58.9530   33.3710   45.4520 C   0  0  0  0  0  0  0  0  0  0  0  0
   58.6180   32.2340   46.2100 C   0  0  0  0  0  0  0  0  0  0  0  0
   57.8390   31.2160   45.6500 C   0  0  0  0  0  0  0  0  0  0  0  0
   57.3970   31.3160   44.3280 C   0  0  0  0  0  0  0  0  0  0  0  0
   56.4210   30.0370   43.6290 Cl  0  0  0  0  0  0  0  0  0  0  0  0
   57.7410   32.4340   43.5620 C   0  0  0  0  0  0  0  0  0  0  0  0
   58.5200   33.4530   44.1180 C   0  0  0  0  0  0  0  0  0  0  0  0
   62.4550   33.6360   46.5160 S   0  0  0  0  0  0  0  0  0  0  0  0
   63.0200   33.5090   48.0900 C   0  0  0  0  0  0  0  0  0  0  0  0
   64.2780   33.1070   48.5240 C   0  0  0  0  0  0  0  0  0  0  0  0
   64.5260   33.0710   49.9060 C   0  0  0  0  0  0  0  0  0  0  0  0
   66.2530   32.5220   50.5220 Br  0  0  0  0  0  0  0  0  0  0  0  0
   63.5555   32.6211   54.1079 H   0  0  0  0  0  0  0  0  0  0  0  0
   62.4048   32.0159   52.8684 H   0  0  0  0  0  0  0  0  0  0  0  0
   64.1077   31.4441   52.8684 H   0  0  0  0  0  0  0  0  0  0  0  0
   61.4488   34.1164   51.0555 H   0  0  0  0  0  0  0  0  0  0  0  0
   59.9155   34.5405   48.8881 H   0  0  0  0  0  0  0  0  0  0  0  0
   58.9704   32.1451   47.2482 H   0  0  0  0  0  0  0  0  0  0  0  0
   57.5736   30.3343   46.2519 H   0  0  0  0  0  0  0  0  0  0  0  0
   57.3980   32.5119   42.5198 H   0  0  0  0  0  0  0  0  0  0  0  0
   58.7958   34.3250   43.5068 H   0  0  0  0  0  0  0  0  0  0  0  0
   65.0594   32.8242   47.8033 H   0  0  0  0  0  0  0  0  0  0  0  0
  1  2  1  0
  2  3  1  0
  3  4  2  0
  4  5  1  0
  5  6  1  0
  6  7  2  0
  7  8  1  0
  8  9  2  0
  8 10  1  0
 10 11  2  0
 11 12  1  0
 12 13  2  0
 13 14  1  0
 13 15  1  0
 15 16  2  0
  7 17  1  0
 17 18  1  0
 18 19  1  0
 19 20  2  0
 20 21  1  0
 20  3  1  0
 18  5  2  0
 16 10  1  0
  1 22  1  0
  1 23  1  0
  1 24  1  0
  4 25  1  0
  6 26  1  0
 11 27  1  0
 12 28  1  0
 15 29  1  0
 16 30  1  0
 19 31  1  0
M  END
>  <UniqueID>  (43) 
39

>  <SMILES>  (43) 
COc1cc2cc(C(=O)c3ccc(Cl)cc3)sc2cc1Br

>  <Energy>  (43) 
68.45689883117242

>  <Genealogy>  (43) 
COc1cc2cc(C(=O)c3ccc(Cl)cc3)sc2cc1Br (3D coordinates assigned)
COc1cc2cc(C(=O)c3ccc(Cl)cc3)sc2cc1Br (optimized conformer: 68.45689883117242 kcal/mol)

>  <smiles>  (43) 
COc1cc2cc(C(=O)c3ccc(Cl)cc3)sc2cc1Br

>  <score_type>  (43) 
oracle

>  <origin>  (43) 
adg

>  <m_score__min__energy>  (43) 
-7.7800000000000002

>  <m_primary>  (43) 
energy

$$$$
43:0
     RDKit          3D

 27 27  0  0  0  0  0  0  0  0999 V2000
   58.1420   27.3530   43.4280 C   0  0  0  0  0  0  0  0  0  0  0  0
   58.4350   28.0340   44.7560 C   0  0  0  0  0  0  0  0  0  0  0  0
   57.2130   28.4410   45.3630 O   0  0  0  0  0  0  0  0  0  0  0  0
   56.4130   29.4620   44.8420 C   0  0  0  0  0  0  0  0  0  0  0  0
   55.1550   29.3600   44.8760 O   0  0  0  0  0  0  0  0  0  0  0  0
   57.0460   30.6630   44.2510 C   0  0  0  0  0  0  0  0  0  0  0  0
   57.1000   30.8230   42.8580 C   0  0  0  0  0  0  0  0  0  0  0  0
   57.6910   31.9650   42.3170 C   0  0  0  0  0  0  0  0  0  0  0  0
   58.2180   32.9190   43.1300 N   0  0  0  0  0  0  0  0  0  0  0  0
   58.1950   32.7900   44.4880 C   0  0  0  0  0  0  0  0  0  0  0  0
   58.7570   33.8810   45.3590 C   0  0  0  0  0  0  0  0  0  0  0  0
   58.1310   33.8370   46.7480 C   0  0  0  0  0  0  0  0  0  0  0  0
   57.5960   31.6620   45.0690 C   0  0  0  0  0  0  0  0  0  0  0  0
   57.7135   26.3570   43.6134 H   0  0  0  0  0  0  0  0  0  0  0  0
   57.4253   27.9597   42.8551 H   0  0  0  0  0  0  0  0  0  0  0  0
   59.0753   27.2498   42.8551 H   0  0  0  0  0  0  0  0  0  0  0  0
   58.9577   27.3306   45.4208 H   0  0  0  0  0  0  0  0  0  0  0  0
   59.0688   28.9162   44.5826 H   0  0  0  0  0  0  0  0  0  0  0  0
   56.6786   30.0521   42.1961 H   0  0  0  0  0  0  0  0  0  0  0  0
   57.7309   32.0946   41.2254 H   0  0  0  0  0  0  0  0  0  0  0  0
   58.6460   33.7670   42.6940 H   0  0  0  0  0  0  0  0  0  0  0  0
   59.8451   33.7470   45.4488 H   0  0  0  0  0  0  0  0  0  0  0  0
   58.5292   34.8538   44.8989 H   0  0  0  0  0  0  0  0  0  0  0  0
   58.9232   33.8927   47.5091 H   0  0  0  0  0  0  0  0  0  0  0  0
   57.4460   34.6892   46.8687 H   0  0  0  0  0  0  0  0  0  0  0  0
   57.5720   32.8974   46.8687 H   0  0  0  0  0  0  0  0  0  0  0  0
   57.5576   31.5609   46.1637 H   0  0  0  0  0  0  0  0  0  0  0  0
  1  2  1  0
  2  3  1  0
  3  4  1  0
  4  5  2  0
  4  6  1  0
  6  7  2  0
  7  8  1  0
  8  9  2  0
  9 10  1  0
 10 11  1  0
 11 12  1  0
 10 13  2  0
 13  6  1  0
  1 14  1  0
  1 15  1  0
  1 16  1  0
  2 17  1  0
  2 18  1  0
  7 19  1  0
  8 20  1  0
  9 21  1  0
 11 22  1  0
 11 23  1  0
 12 24  1  0
 12 25  1  0
 12 26  1  0
 13 27  1  0
M  CHG  1   9   1
M  END
>  <UniqueID>  (44) 
40

>  <SMILES>  (44) 
CCOC(=O)c1cc[nH+]c(CC)c1

>  <Energy>  (44) 
16.816839395853478

>  <Genealogy>  (44) 
CCOC(=O)c1cc[nH+]c(CC)c1 (protonated)
CCOC(=O)c1cc[nH+]c(CC)c1 (3D coordinates assigned)
CCOC(=O)c1cc[nH+]c(CC)c1 (optimized conformer: 16.816839395853478 kcal/mol)

>  <smiles>  (44) 
CCOC(=O)c1ccnc(CC)c1

>  <score_type>  (44) 
oracle

>  <origin>  (44) 
adg

>  <m_score__min__energy>  (44) 
-3.6000000000000001

>  <m_primary>  (44) 
energy

$$$$
44:0
     RDKit          3D

 37 40  0  0  0  0  0  0  0  0999 V2000
   59.4990   35.4420   45.4130 N   0  0  0  0  0  0  0  0  0  0  0  0
   59.1500   34.3490   45.5630 C   0  0  0  0  0  0  0  0  0  0  0  0
   58.7140   32.9870   45.7490 C   0  0  0  0  0  0  0  0  0  0  0  0
   58.8950   32.2570   46.9280 C   0  0  0  0  0  0  0  0  0  0  0  0
   59.5100   32.7110   48.1400 N   0  0  0  0  0  0  0  0  0  0  0  0
   60.5280   33.7130   48.2330 C   0  0  0  0  0  0  0  0  0  0  0  0
   60.1830   34.9230   48.2900 O   0  0  0  0  0  0  0  0  0  0  0  0
   61.9650   33.3650   48.1880 C   0  0  0  0  0  0  0  0  0  0  0  0
   62.6790   32.8750   47.0960 C   0  0  0  0  0  0  0  0  0  0  0  0
   63.9700   32.7040   47.4500 N   0  0  0  0  0  0  0  0  0  0  0  0
   64.0990   33.0670   48.7140 N   0  0  0  0  0  0  0  0  0  0  0  0
   65.2370   33.0410   49.4540 C   0  0  0  0  0  0  0  0  0  0  0  0
   65.1680   33.4570   50.7920 C   0  0  0  0  0  0  0  0  0  0  0  0
   63.9360   33.8820   51.3230 C   0  0  0  0  0  0  0  0  0  0  0  0
   62.7830   33.8940   50.5210 C   0  0  0  0  0  0  0  0  0  0  0  0
   62.9130   33.4760   49.1950 C   0  0  0  0  0  0  0  0  0  0  0  0
   58.3710   30.6760   46.6930 S   0  0  0  0  0  0  0  0  0  0  0  0
   57.8490   30.9140   45.1130 C   0  0  0  0  0  0  0  0  0  0  0  0
   58.1350   32.2200   44.7230 C   0  0  0  0  0  0  0  0  0  0  0  0
   57.7680   32.7400   43.3570 C   0  0  0  0  0  0  0  0  0  0  0  0
   57.5360   31.5910   42.3580 C   0  0  0  0  0  0  0  0  0  0  0  0
   56.6480   30.4910   42.9650 C   0  0  0  0  0  0  0  0  0  0  0  0
   57.3110   29.8580   44.1970 C   0  0  0  0  0  0  0  0  0  0  0  0
   62.2571   32.6615   46.1028 H   0  0  0  0  0  0  0  0  0  0  0  0
   64.7420   32.3510   46.8410 H   0  0  0  0  0  0  0  0  0  0  0  0
   66.1877   32.7028   49.0161 H   0  0  0  0  0  0  0  0  0  0  0  0
   66.0701   33.4510   51.4214 H   0  0  0  0  0  0  0  0  0  0  0  0
   63.8756   34.2067   52.3723 H   0  0  0  0  0  0  0  0  0  0  0  0
   61.8126   34.2209   50.9229 H   0  0  0  0  0  0  0  0  0  0  0  0
   56.8465   33.3353   43.4371 H   0  0  0  0  0  0  0  0  0  0  0  0
   58.6014   33.3553   42.9871 H   0  0  0  0  0  0  0  0  0  0  0  0
   57.0451   31.9919   41.4590 H   0  0  0  0  0  0  0  0  0  0  0  0
   58.5112   31.1491   42.1056 H   0  0  0  0  0  0  0  0  0  0  0  0
   55.6847   30.9311   43.2624 H   0  0  0  0  0  0  0  0  0  0  0  0
   56.4993   29.7067   42.2082 H   0  0  0  0  0  0  0  0  0  0  0  0
   56.5660   29.2564   44.7384 H   0  0  0  0  0  0  0  0  0  0  0  0
   58.1449   29.2237   43.8618 H   0  0  0  0  0  0  0  0  0  0  0  0
  1  2  3  0
  2  3  1  0
  3  4  2  0
  4  5  1  0
  5  6  1  0
  6  7  2  0
  6  8  1  0
  8  9  1  0
  9 10  2  0
 10 11  1  0
 11 12  1  0
 12 13  2  0
 13 14  1  0
 14 15  2  0
 15 16  1  0
  4 17  1  0
 17 18  1  0
 18 19  2  0
 19 20  1  0
 20 21  1  0
 21 22  1  0
 22 23  1  0
 19  3  1  0
 16  8  2  0
 23 18  1  0
 16 11  1  0
  9 24  1  0
 10 25  1  0
 12 26  1  0
 13 27  1  0
 14 28  1  0
 15 29  1  0
 20 30  1  0
 20 31  1  0
 21 32  1  0
 21 33  1  0
 22 34  1  0
 22 35  1  0
 23 36  1  0
 23 37  1  0
M  CHG  2   5  -1  10   1
M  END
>  <UniqueID>  (45) 
41

>  <SMILES>  (45) 
N#Cc1c([N-]C(=O)c2c[nH+]n3ccccc23)sc2c1CCCC2

>  <Energy>  (45) 
108.32920212740507

>  <Genealogy>  (45) 
N#Cc1c([N-]C(=O)c2c[nH+]n3ccccc23)sc2c1CCCC2 (protonated)
N#Cc1c([N-]C(=O)c2c[nH+]n3ccccc23)sc2c1CCCC2 (3D coordinates assigned)
N#Cc1c([N-]C(=O)c2c[nH+]n3ccccc23)sc2c1CCCC2 (nonaromatic ring conformer: 108.32920212740507 kcal/mol)

>  <smiles>  (45) 
N#Cc1c(NC(=O)c2cnn3ccccc23)sc2c1CCCC2

>  <score_type>  (45) 
oracle

>  <origin>  (45) 
adg

>  <m_score__min__energy>  (45) 
-8.1999999999999993

>  <m_primary>  (45) 
energy

$$$$
45:0
     RDKit          3D

 39 42  0  0  0  0  0  0  0  0999 V2000
   60.7841   34.6338   48.0512 H   0  0  0  0  0  0  0  0  0  0  0  0
   60.0070   34.4370   47.2980 C   0  0  0  0  0  0  0  0  0  0  0  0
   58.6720   33.4330   47.4990 S   0  0  0  0  0  0  0  0  0  0  0  0
   58.0410   33.6600   45.9570 C   0  0  0  0  0  0  0  0  0  0  0  0
   56.7550   33.0900   45.4590 C   0  0  0  0  0  0  0  0  0  0  0  0
   56.1464   33.8907   45.0134 H   0  0  0  0  0  0  0  0  0  0  0  0
   56.2045   32.6364   46.2963 H   0  0  0  0  0  0  0  0  0  0  0  0
   57.0360   32.0730   44.4510 N   0  0  0  0  0  0  0  0  0  0  0  0
   57.2820   30.8320   44.7410 C   0  0  0  0  0  0  0  0  0  0  0  0
   57.8230   30.4160   45.9110 N   0  0  0  0  0  0  0  0  0  0  0  0
   57.9120   29.0990   45.8190 N   0  0  0  0  0  0  0  0  0  0  0  0
   58.3920   28.2400   46.7550 C   0  0  0  0  0  0  0  0  0  0  0  0
   58.8810   28.7340   48.0840 C   0  0  0  0  0  0  0  0  0  0  0  0
   58.3540   28.2017   48.8896 H   0  0  0  0  0  0  0  0  0  0  0  0
   59.9621   28.5495   48.1686 H   0  0  0  0  0  0  0  0  0  0  0  0
   58.6855   29.8132   48.1686 H   0  0  0  0  0  0  0  0  0  0  0  0
   58.3680   26.8670   46.4510 C   0  0  0  0  0  0  0  0  0  0  0  0
   58.7315   26.1298   47.1820 H   0  0  0  0  0  0  0  0  0  0  0  0
   57.8710   26.4430   45.1940 C   0  0  0  0  0  0  0  0  0  0  0  0
   57.8470   25.0000   44.8460 C   0  0  0  0  0  0  0  0  0  0  0  0
   56.9900   24.5170   43.8380 C   0  0  0  0  0  0  0  0  0  0  0  0
   56.3286   25.2139   43.3025 H   0  0  0  0  0  0  0  0  0  0  0  0
   56.9750   23.1570   43.5140 C   0  0  0  0  0  0  0  0  0  0  0  0
   56.3024   22.7880   42.7257 H   0  0  0  0  0  0  0  0  0  0  0  0
   57.8120   22.2660   44.1890 C   0  0  0  0  0  0  0  0  0  0  0  0
   57.7978   21.1963   43.9332 H   0  0  0  0  0  0  0  0  0  0  0  0
   58.6670   22.7340   45.1890 C   0  0  0  0  0  0  0  0  0  0  0  0
   59.3264   22.0317   45.7200 H   0  0  0  0  0  0  0  0  0  0  0  0
   58.6870   24.0930   45.5170 C   0  0  0  0  0  0  0  0  0  0  0  0
   59.3639   24.4552   46.3048 H   0  0  0  0  0  0  0  0  0  0  0  0
   57.4160   27.3740   44.2960 N   0  0  0  0  0  0  0  0  0  0  0  0
   57.0240   27.0890   43.3710 H   0  0  0  0  0  0  0  0  0  0  0  0
   57.4450   28.6870   44.6350 C   0  0  0  0  0  0  0  0  0  0  0  0
   57.0210   29.7640   43.8900 C   0  0  0  0  0  0  0  0  0  0  0  0
   56.5866   29.7765   42.8795 H   0  0  0  0  0  0  0  0  0  0  0  0
   58.8580   34.5490   45.2690 C   0  0  0  0  0  0  0  0  0  0  0  0
   58.6585   34.8836   44.2403 H   0  0  0  0  0  0  0  0  0  0  0  0
   59.9600   34.9750   46.0180 C   0  0  0  0  0  0  0  0  0  0  0  0
   60.7184   35.6708   45.6298 H   0  0  0  0  0  0  0  0  0  0  0  0
  1  2  1  0
  2  3  1  0
  3  4  1  0
  4  5  1  0
  5  6  1  0
  5  7  1  0
  5  8  1  0
  8  9  2  0
  9 10  1  0
 10 11  1  0
 11 12  1  0
 12 13  1  0
 13 14  1  0
 13 15  1  0
 13 16  1  0
 12 17  2  0
 17 18  1  0
 17 19  1  0
 19 20  1  0
 20 21  2  0
 21 22  1  0
 21 23  1  0
 23 24  1  0
 23 25  2  0
 25 26  1  0
 25 27  1  0
 27 28  1  0
 27 29  2  0
 29 30  1  0
 19 31  2  0
 31 32  1  0
 31 33  1  0
 33 34  2  0
 34 35  1  0
  4 36  2  0
 36 37  1  0
 36 38  1  0
 38 39  1  0
 38  2  2  0
 34  9  1  0
 33 11  1  0
 29 20  1  0
M  CHG  2  10  -1  31   1
M  END
>  <UniqueID>  (46) 
42

>  <SMILES>  (46) 
Cc1cc(-c2ccccc2)[nH+]c2c/c(=N/Cc3cccs3)[n-]n12

>  <Energy>  (46) 
107.80699516299909

>  <Genealogy>  (46) 
Cc1cc(-c2ccccc2)[nH+]c2cc(=NCc3cccs3)[n-]n12 (protonated)
Cc1cc(-c2ccccc2)[nH+]c2c/c(=N/Cc3cccs3)[n-]n12 (cis-trans isomerization)
Cc1cc(-c2ccccc2)[nH+]c2c/c(=N/Cc3cccs3)[n-]n12 (3D coordinates assigned)
Cc1cc(-c2ccccc2)[nH+]c2c/c(=N/Cc3cccs3)[n-]n12 (optimized conformer: 107.80699516299909 kcal/mol)

>  <smiles>  (46) 
Cc1cc(-c2ccccc2)nc2cc(=NCc3cccs3)[nH]n12

>  <score_type>  (46) 
oracle

>  <origin>  (46) 
adg

>  <m_score__min__energy>  (46) 
-8.1300000000000008

>  <m_primary>  (46) 
energy

$$$$
46:0
     RDKit          3D

 31 33  0  0  0  0  0  0  0  0999 V2000
   55.1370   29.3250   44.7940 O   0  0  0  0  0  0  0  0  0  0  0  0
   56.3530   30.0610   44.3040 S   0  0  0  0  0  0  0  0  0  0  0  0
   56.3550   30.0620   42.8010 O   0  0  0  0  0  0  0  0  0  0  0  0
   56.2730   31.7020   44.8640 N   0  0  0  0  0  0  0  0  0  0  0  0
   57.4000   32.4960   45.2610 C   0  0  0  0  0  0  0  0  0  0  0  0
   57.8920   32.4940   46.5810 C   0  0  0  0  0  0  0  0  0  0  0  0
   59.0000   33.2750   46.9190 C   0  0  0  0  0  0  0  0  0  0  0  0
   59.6240   34.0640   45.9490 C   0  0  0  0  0  0  0  0  0  0  0  0
   59.1410   34.0710   44.6380 C   0  0  0  0  0  0  0  0  0  0  0  0
   58.0340   33.2890   44.2960 C   0  0  0  0  0  0  0  0  0  0  0  0
   57.8310   29.2760   44.8750 C   0  0  0  0  0  0  0  0  0  0  0  0
   59.0720   29.8940   44.6520 C   0  0  0  0  0  0  0  0  0  0  0  0
   60.2530   29.2980   45.0980 C   0  0  0  0  0  0  0  0  0  0  0  0
   60.2160   28.0720   45.7650 C   0  0  0  0  0  0  0  0  0  0  0  0
   58.9890   27.4320   45.9840 C   0  0  0  0  0  0  0  0  0  0  0  0
   58.9260   26.1950   46.6400 C   0  0  0  0  0  0  0  0  0  0  0  0
   57.6930   25.5740   46.8380 C   0  0  0  0  0  0  0  0  0  0  0  0
   56.5300   26.1950   46.3770 C   0  0  0  0  0  0  0  0  0  0  0  0
   56.6020   27.3950   45.7440 N   0  0  0  0  0  0  0  0  0  0  0  0
   57.7880   28.0330   45.5350 C   0  0  0  0  0  0  0  0  0  0  0  0
   57.4024   31.8757   47.3478 H   0  0  0  0  0  0  0  0  0  0  0  0
   59.3819   33.2688   47.9506 H   0  0  0  0  0  0  0  0  0  0  0  0
   60.4953   34.6794   46.2176 H   0  0  0  0  0  0  0  0  0  0  0  0
   59.6321   34.6922   43.8745 H   0  0  0  0  0  0  0  0  0  0  0  0
   57.6583   33.2964   43.2622 H   0  0  0  0  0  0  0  0  0  0  0  0
   59.1140   30.8565   44.1211 H   0  0  0  0  0  0  0  0  0  0  0  0
   61.2176   29.7968   44.9230 H   0  0  0  0  0  0  0  0  0  0  0  0
   61.1492   27.6090   46.1182 H   0  0  0  0  0  0  0  0  0  0  0  0
   59.8483   25.7144   46.9984 H   0  0  0  0  0  0  0  0  0  0  0  0
   57.6370   24.6035   47.3528 H   0  0  0  0  0  0  0  0  0  0  0  0
   55.5534   25.7114   46.5268 H   0  0  0  0  0  0  0  0  0  0  0  0
  1  2  2  0
  2  3  2  0
  2  4  1  0
  4  5  1  0
  5  6  2  0
  6  7  1  0
  7  8  2  0
  8  9  1  0
  9 10  2  0
  2 11  1  0
 11 12  2  0
 12 13  1  0
 13 14  2  0
 14 15  1  0
 15 16  2  0
 16 17  1  0
 17 18  2  0
 18 19  1  0
 19 20  2  0
 10  5  1  0
 20 11  1  0
 20 15  1  0
  6 21  1  0
  7 22  1  0
  8 23  1  0
  9 24  1  0
 10 25  1  0
 12 26  1  0
 13 27  1  0
 14 28  1  0
 16 29  1  0
 17 30  1  0
 18 31  1  0
M  CHG  1   4  -1
M  END
>  <UniqueID>  (47) 
43

>  <SMILES>  (47) 
O=S(=O)([N-]c1ccccc1)c1cccc2cccnc12

>  <Energy>  (47) 
41.31807739138353

>  <Genealogy>  (47) 
O=S(=O)([N-]c1ccccc1)c1cccc2cccnc12 (protonated)
O=S(=O)([N-]c1ccccc1)c1cccc2cccnc12 (3D coordinates assigned)
O=S(=O)([N-]c1ccccc1)c1cccc2cccnc12 (optimized conformer: 41.31807739138353 kcal/mol)

>  <smiles>  (47) 
O=S(=O)(Nc1ccccc1)c1cccc2cccnc12

>  <score_type>  (47) 
oracle

>  <origin>  (47) 
adg

>  <m_score__min__energy>  (47) 
-9.4499999999999993

>  <m_primary>  (47) 
energy

$$$$
47:0
     RDKit          3D

 46 47  0  0  0  0  0  0  0  0999 V2000
   58.5650   34.1520   44.4640 C   0  0  0  0  0  0  0  0  0  0  0  0
   58.5180   32.9680   43.6740 O   0  0  0  0  0  0  0  0  0  0  0  0
   57.8550   31.7880   44.0470 C   0  0  0  0  0  0  0  0  0  0  0  0
   57.0100   31.0920   43.1610 C   0  0  0  0  0  0  0  0  0  0  0  0
   56.3750   29.9180   43.5680 C   0  0  0  0  0  0  0  0  0  0  0  0
   56.5850   29.4070   44.8510 C   0  0  0  0  0  0  0  0  0  0  0  0
   55.9010   28.2110   45.2460 N   0  0  0  0  0  0  0  0  0  0  0  0
   56.4950   26.9650   45.6370 C   0  0  0  0  0  0  0  0  0  0  0  0
   55.8310   26.1900   46.3740 O   0  0  0  0  0  0  0  0  0  0  0  0
   57.8070   26.4850   45.0680 C   0  0  0  0  0  0  0  0  0  0  0  0
   58.8040   26.0050   46.1350 C   0  0  0  0  0  0  0  0  0  0  0  0
   59.9560   26.9330   46.2360 N   0  0  0  0  0  0  0  0  0  0  0  0
   59.8660   28.0300   45.2440 C   0  0  0  0  0  0  0  0  0  0  0  0
   60.7560   29.2110   45.6440 C   0  0  0  0  0  0  0  0  0  0  0  0
   60.3000   29.8160   46.9170 N   0  0  0  0  0  0  0  0  0  0  0  0
   61.4000   30.5520   47.5600 C   0  0  0  0  0  0  0  0  0  0  0  0
   59.6820   28.8410   47.8500 C   0  0  0  0  0  0  0  0  0  0  0  0
   60.1950   27.4090   47.6250 C   0  0  0  0  0  0  0  0  0  0  0  0
   57.3960   30.1160   45.7490 C   0  0  0  0  0  0  0  0  0  0  0  0
   58.0460   31.2990   45.3500 C   0  0  0  0  0  0  0  0  0  0  0  0
   58.8840   32.0160   46.2170 O   0  0  0  0  0  0  0  0  0  0  0  0
   58.4640   32.5980   47.4480 C   0  0  0  0  0  0  0  0  0  0  0  0
   58.5543   33.8820   45.5303 H   0  0  0  0  0  0  0  0  0  0  0  0
   59.4859   34.7086   44.2360 H   0  0  0  0  0  0  0  0  0  0  0  0
   57.6911   34.7799   44.2360 H   0  0  0  0  0  0  0  0  0  0  0  0
   56.8497   31.4759   42.1427 H   0  0  0  0  0  0  0  0  0  0  0  0
   55.7042   29.3911   42.8735 H   0  0  0  0  0  0  0  0  0  0  0  0
   57.6033   25.6495   44.3821 H   0  0  0  0  0  0  0  0  0  0  0  0
   58.2697   27.3429   44.5582 H   0  0  0  0  0  0  0  0  0  0  0  0
   58.2942   25.9559   47.1085 H   0  0  0  0  0  0  0  0  0  0  0  0
   59.1767   25.0110   45.8469 H   0  0  0  0  0  0  0  0  0  0  0  0
   60.1887   27.6536   44.2621 H   0  0  0  0  0  0  0  0  0  0  0  0
   58.8232   28.3775   45.2017 H   0  0  0  0  0  0  0  0  0  0  0  0
   61.7902   28.8565   45.7650 H   0  0  0  0  0  0  0  0  0  0  0  0
   60.6986   29.9746   44.8543 H   0  0  0  0  0  0  0  0  0  0  0  0
   61.2974   30.4834   48.6531 H   0  0  0  0  0  0  0  0  0  0  0  0
   62.3619   30.1149   47.2538 H   0  0  0  0  0  0  0  0  0  0  0  0
   61.3630   31.6079   47.2538 H   0  0  0  0  0  0  0  0  0  0  0  0
   59.9160   29.1421   48.8818 H   0  0  0  0  0  0  0  0  0  0  0  0
   58.5974   28.8417   47.6663 H   0  0  0  0  0  0  0  0  0  0  0  0
   61.2763   27.3855   47.8254 H   0  0  0  0  0  0  0  0  0  0  0  0
   59.6443   26.7443   48.3069 H   0  0  0  0  0  0  0  0  0  0  0  0
   57.5255   29.7437   46.7759 H   0  0  0  0  0  0  0  0  0  0  0  0
   58.8802   32.0212   48.2871 H   0  0  0  0  0  0  0  0  0  0  0  0
   58.8221   33.6366   47.5036 H   0  0  0  0  0  0  0  0  0  0  0  0
   57.3655   32.5854   47.5036 H   0  0  0  0  0  0  0  0  0  0  0  0
  1  2  1  0
  2  3  1  0
  3  4  2  0
  4  5  1  0
  5  6  2  0
  6  7  1  0
  7  8  1  0
  8  9  2  0
  8 10  1  0
 10 11  1  0
 11 12  1  0
 12 13  1  0
 13 14  1  0
 14 15  1  0
 15 16  1  0
 15 17  1  0
 17 18  1  0
  6 19  1  0
 19 20  2  0
 20 21  1  0
 21 22  1  0
 20  3  1  0
 18 12  1  0
  1 23  1  0
  1 24  1  0
  1 25  1  0
  4 26  1  0
  5 27  1  0
 10 28  1  0
 10 29  1  0
 11 30  1  0
 11 31  1  0
 13 32  1  0
 13 33  1  0
 14 34  1  0
 14 35  1  0
 16 36  1  0
 16 37  1  0
 16 38  1  0
 17 39  1  0
 17 40  1  0
 18 41  1  0
 18 42  1  0
 19 43  1  0
 22 44  1  0
 22 45  1  0
 22 46  1  0
M  CHG  1   7  -1
M  END
>  <UniqueID>  (48) 
44

>  <SMILES>  (48) 
COc1ccc([N-]C(=O)CCN2CCN(C)CC2)cc1OC

>  <Energy>  (48) 
61.47706161557284

>  <Genealogy>  (48) 
COc1ccc([N-]C(=O)CCN2CCN(C)CC2)cc1OC (protonated)
COc1ccc([N-]C(=O)CCN2CCN(C)CC2)cc1OC (3D coordinates assigned)
COc1ccc([N-]C(=O)CCN2CCN(C)CC2)cc1OC (nonaromatic ring conformer: 61.47706161557284 kcal/mol)

>  <smiles>  (48) 
COc1ccc(NC(=O)CCN2CCN(C)CC2)cc1OC

>  <score_type>  (48) 
oracle

>  <origin>  (48) 
adg

>  <m_score__min__energy>  (48) 
-8.7699999999999996

>  <m_primary>  (48) 
energy

$$$$
48:0
     RDKit          3D

 45 47  0  0  0  0  0  0  0  0999 V2000
   60.5800   33.4740   51.4710 C   0  0  0  0  0  0  0  0  0  0  0  0
   61.5010   33.8490   50.3900 N   0  0  0  0  0  0  0  0  0  0  0  0
   62.9080   34.1110   50.7180 C   0  0  0  0  0  0  0  0  0  0  0  0
   61.0280   33.9610   49.0230 C   0  0  0  0  0  0  0  0  0  0  0  0
   61.8950   33.7250   47.9350 C   0  0  0  0  0  0  0  0  0  0  0  0
   61.4390   33.8340   46.6180 C   0  0  0  0  0  0  0  0  0  0  0  0
   60.1050   34.1700   46.3550 C   0  0  0  0  0  0  0  0  0  0  0  0
   59.6250   34.3200   44.9360 C   0  0  0  0  0  0  0  0  0  0  0  0
   58.2910   33.5940   44.7390 C   0  0  0  0  0  0  0  0  0  0  0  0
   58.4670   32.1520   44.9010 N   0  0  0  0  0  0  0  0  0  0  0  0
   57.3690   31.2280   44.8140 C   0  0  0  0  0  0  0  0  0  0  0  0
   56.2240   31.6510   44.4930 O   0  0  0  0  0  0  0  0  0  0  0  0
   57.5570   29.7820   45.0800 C   0  0  0  0  0  0  0  0  0  0  0  0
   58.8540   29.2330   45.0850 C   0  0  0  0  0  0  0  0  0  0  0  0
   59.0480   27.8710   45.3320 C   0  0  0  0  0  0  0  0  0  0  0  0
   57.9520   27.0370   45.5590 C   0  0  0  0  0  0  0  0  0  0  0  0
   56.6570   27.5700   45.5530 C   0  0  0  0  0  0  0  0  0  0  0  0
   56.4570   28.9340   45.3120 C   0  0  0  0  0  0  0  0  0  0  0  0
   55.5470   26.7160   45.8350 N   0  0  0  0  0  0  0  0  0  0  0  0
   55.7500   25.3150   46.0220 C   0  0  0  0  0  0  0  0  0  0  0  0
   54.7850   24.5830   46.3640 O   0  0  0  0  0  0  0  0  0  0  0  0
   57.0930   24.7060   45.7300 C   0  0  0  0  0  0  0  0  0  0  0  0
   58.1450   25.6730   45.8140 O   0  0  0  0  0  0  0  0  0  0  0  0
   59.2370   34.4210   47.4270 C   0  0  0  0  0  0  0  0  0  0  0  0
   59.6910   34.3130   48.7440 C   0  0  0  0  0  0  0  0  0  0  0  0
   61.0570   33.6682   52.4430 H   0  0  0  0  0  0  0  0  0  0  0  0
   59.6579   34.0683   51.3898 H   0  0  0  0  0  0  0  0  0  0  0  0
   60.3353   32.4046   51.3898 H   0  0  0  0  0  0  0  0  0  0  0  0
   63.0316   34.1340   51.8108 H   0  0  0  0  0  0  0  0  0  0  0  0
   63.5377   33.3147   50.2945 H   0  0  0  0  0  0  0  0  0  0  0  0
   63.2088   35.0806   50.2945 H   0  0  0  0  0  0  0  0  0  0  0  0
   62.9433   33.4517   48.1256 H   0  0  0  0  0  0  0  0  0  0  0  0
   62.1323   33.6547   45.7830 H   0  0  0  0  0  0  0  0  0  0  0  0
   59.4920   35.3884   44.7103 H   0  0  0  0  0  0  0  0  0  0  0  0
   60.3723   33.8786   44.2602 H   0  0  0  0  0  0  0  0  0  0  0  0
   57.5674   33.9568   45.4839 H   0  0  0  0  0  0  0  0  0  0  0  0
   57.9212   33.7965   43.7230 H   0  0  0  0  0  0  0  0  0  0  0  0
   59.4350   31.7990   45.0650 H   0  0  0  0  0  0  0  0  0  0  0  0
   59.7215   29.8815   44.8929 H   0  0  0  0  0  0  0  0  0  0  0  0
   60.0664   27.4556   45.3475 H   0  0  0  0  0  0  0  0  0  0  0  0
   55.4368   29.3452   45.3038 H   0  0  0  0  0  0  0  0  0  0  0  0
   57.2867   23.9050   46.4586 H   0  0  0  0  0  0  0  0  0  0  0  0
   57.0732   24.3107   44.7037 H   0  0  0  0  0  0  0  0  0  0  0  0
   58.1926   34.7046   47.2301 H   0  0  0  0  0  0  0  0  0  0  0  0
   58.9961   34.5052   49.5747 H   0  0  0  0  0  0  0  0  0  0  0  0
  1  2  1  0
  2  3  1  0
  2  4  1  0
  4  5  2  0
  5  6  1  0
  6  7  2  0
  7  8  1  0
  8  9  1  0
  9 10  1  0
 10 11  1  0
 11 12  2  0
 11 13  1  0
 13 14  2  0
 14 15  1  0
 15 16  2  0
 16 17  1  0
 17 18  2  0
 17 19  1  0
 19 20  1  0
 20 21  2  0
 20 22  1  0
 22 23  1  0
  7 24  1  0
 24 25  2  0
 25  4  1  0
 18 13  1  0
 23 16  1  0
  1 26  1  0
  1 27  1  0
  1 28  1  0
  3 29  1  0
  3 30  1  0
  3 31  1  0
  5 32  1  0
  6 33  1  0
  8 34  1  0
  8 35  1  0
  9 36  1  0
  9 37  1  0
 10 38  1  0
 14 39  1  0
 15 40  1  0
 18 41  1  0
 22 42  1  0
 22 43  1  0
 24 44  1  0
 25 45  1  0
M  CHG  1  19  -1
M  END
>  <UniqueID>  (49) 
45

>  <SMILES>  (49) 
CN(C)c1ccc(CCNC(=O)c2ccc3c(c2)[N-]C(=O)CO3)cc1

>  <Energy>  (49) 
48.052205823629755

>  <Genealogy>  (49) 
CN(C)c1ccc(CCNC(=O)c2ccc3c(c2)[N-]C(=O)CO3)cc1 (protonated)
CN(C)c1ccc(CCNC(=O)c2ccc3c(c2)[N-]C(=O)CO3)cc1 (3D coordinates assigned)
CN(C)c1ccc(CCNC(=O)c2ccc3c(c2)[N-]C(=O)CO3)cc1 (nonaromatic ring conformer: 48.052205823629755 kcal/mol)

>  <smiles>  (49) 
CN(C)c1ccc(CCNC(=O)c2ccc3c(c2)NC(=O)CO3)cc1

>  <score_type>  (49) 
oracle

>  <origin>  (49) 
adg

>  <m_score__min__energy>  (49) 
-10.51

>  <m_primary>  (49) 
energy

$$$$
