0:0
     RDKit          3D

 42 43  0  0  0  0  0  0  0  0999 V2000
   58.7650   29.1240   46.0260 C   0  0  0  0  0  0  0  0  0  0  0  0
   57.6190   28.7700   45.0750 C   0  0  0  0  0  0  0  0  0  0  0  0
   56.4730   29.6850   45.2030 N   0  0  0  0  0  0  0  0  0  0  0  0
   56.2250   30.4410   43.9690 C   0  0  0  0  0  0  0  0  0  0  0  0
   57.5450   31.0060   43.4360 C   0  0  0  0  0  0  0  0  0  0  0  0
   57.9650   32.2820   44.1770 C   0  0  0  0  0  0  0  0  0  0  0  0
   57.4460   32.2970   45.4950 O   0  0  0  0  0  0  0  0  0  0  0  0
   57.1600   33.6190   45.9020 C   0  0  0  0  0  0  0  0  0  0  0  0
   58.4100   34.2230   46.5410 C   0  0  0  0  0  0  0  0  0  0  0  0
   59.2020   33.1710   47.2900 C   0  0  0  0  0  0  0  0  0  0  0  0
   58.4950   32.2810   48.1190 C   0  0  0  0  0  0  0  0  0  0  0  0
   59.1600   31.2960   48.8460 C   0  0  0  0  0  0  0  0  0  0  0  0
   58.4560   30.4460   49.6320 F   0  0  0  0  0  0  0  0  0  0  0  0
   60.5460   31.1830   48.7710 C   0  0  0  0  0  0  0  0  0  0  0  0
   61.2840   32.0650   47.9700 C   0  0  0  0  0  0  0  0  0  0  0  0
   62.6830   31.9500   47.9130 C   0  0  0  0  0  0  0  0  0  0  0  0
   63.4300   32.8290   47.1290 C   0  0  0  0  0  0  0  0  0  0  0  0
   62.7920   33.8290   46.3980 C   0  0  0  0  0  0  0  0  0  0  0  0
   61.4020   33.9580   46.4420 C   0  0  0  0  0  0  0  0  0  0  0  0
   60.6210   33.0770   47.2230 C   0  0  0  0  0  0  0  0  0  0  0  0
   58.4239   29.0186   47.0665 H   0  0  0  0  0  0  0  0  0  0  0  0
   59.6124   28.4457   45.8475 H   0  0  0  0  0  0  0  0  0  0  0  0
   59.0823   30.1620   45.8475 H   0  0  0  0  0  0  0  0  0  0  0  0
   57.9923   28.8157   44.0413 H   0  0  0  0  0  0  0  0  0  0  0  0
   57.2695   27.7603   45.3363 H   0  0  0  0  0  0  0  0  0  0  0  0
   56.6540   30.3570   45.9860 H   0  0  0  0  0  0  0  0  0  0  0  0
   55.7814   29.7745   43.2147 H   0  0  0  0  0  0  0  0  0  0  0  0
   55.5335   31.2696   44.1820 H   0  0  0  0  0  0  0  0  0  0  0  0
   58.3320   30.2476   43.5606 H   0  0  0  0  0  0  0  0  0  0  0  0
   57.4020   31.2605   42.3754 H   0  0  0  0  0  0  0  0  0  0  0  0
   59.0632   32.3270   44.2221 H   0  0  0  0  0  0  0  0  0  0  0  0
   57.5661   33.1509   43.6330 H   0  0  0  0  0  0  0  0  0  0  0  0
   56.8658   34.2187   45.0280 H   0  0  0  0  0  0  0  0  0  0  0  0
   56.3353   33.6141   46.6299 H   0  0  0  0  0  0  0  0  0  0  0  0
   59.0433   34.6557   45.7525 H   0  0  0  0  0  0  0  0  0  0  0  0
   58.0972   34.9991   47.2550 H   0  0  0  0  0  0  0  0  0  0  0  0
   57.4007   32.3641   48.1943 H   0  0  0  0  0  0  0  0  0  0  0  0
   61.0635   30.3985   49.3426 H   0  0  0  0  0  0  0  0  0  0  0  0
   63.1916   31.1631   48.4893 H   0  0  0  0  0  0  0  0  0  0  0  0
   64.5250   32.7326   47.0877 H   0  0  0  0  0  0  0  0  0  0  0  0
   63.3863   34.5207   45.7829 H   0  0  0  0  0  0  0  0  0  0  0  0
   60.9104   34.7535   45.8628 H   0  0  0  0  0  0  0  0  0  0  0  0
  1  2  1  0
  2  3  1  0
  3  4  1  0
  4  5  1  0
  5  6  1  0
  6  7  1  0
  7  8  1  0
  8  9  1  0
  9 10  1  0
 10 11  2  0
 11 12  1  0
 12 13  1  0
 12 14  2  0
 14 15  1  0
 15 16  2  0
 16 17  1  0
 17 18  2  0
 18 19  1  0
 19 20  2  0
 20 10  1  0
 20 15  1  0
  1 21  1  0
  1 22  1  0
  1 23  1  0
  2 24  1  0
  2 25  1  0
  3 26  1  0
  4 27  1  0
  4 28  1  0
  5 29  1  0
  5 30  1  0
  6 31  1  0
  6 32  1  0
  8 33  1  0
  8 34  1  0
  9 35  1  0
  9 36  1  0
 11 37  1  0
 14 38  1  0
 16 39  1  0
 17 40  1  0
 18 41  1  0
 19 42  1  0
M  END
>  <UniqueID>  (1) 
1

>  <SMILES>  (1) 
CCNCCCOCCc1cc(F)cc2ccccc12

>  <Energy>  (1) 
40.912018574781165

>  <Genealogy>  (1) 
CCNCCCOCCc1cc(F)cc2ccccc12 (3D coordinates assigned)
CCNCCCOCCc1cc(F)cc2ccccc12 (optimized conformer: 40.912018574781165 kcal/mol)

>  <smiles>  (1) 
CCNCCCOCCc1cc(F)cc2ccccc12

>  <score_type>  (1) 
oracle

>  <origin>  (1) 
adg

>  <m_score__min__energy>  (1) 
-6.8799999999999999

>  <m_primary>  (1) 
energy

$$$$
1:0
     RDKit          3D

 66 69  0  0  0  0  0  0  0  0999 V2000
   61.4511   31.0372   45.8288 H   0  0  0  0  0  0  0  0  0  0  0  0
   60.7690   30.2890   46.2590 C   0  0  0  0  0  0  0  0  0  0  0  0
   60.2570   29.3250   45.4600 N   0  0  0  0  0  0  0  0  0  0  0  0
   59.4240   28.3720   45.9320 C   0  0  0  0  0  0  0  0  0  0  0  0
   58.9230   27.4070   45.0500 C   0  0  0  0  0  0  0  0  0  0  0  0
   59.2272   27.4198   43.9930 H   0  0  0  0  0  0  0  0  0  0  0  0
   58.0380   26.4280   45.5080 C   0  0  0  0  0  0  0  0  0  0  0  0
   57.3990   25.2340   44.3920 Cl  0  0  0  0  0  0  0  0  0  0  0  0
   57.6550   26.4070   46.8500 C   0  0  0  0  0  0  0  0  0  0  0  0
   56.9553   25.6376   47.2086 H   0  0  0  0  0  0  0  0  0  0  0  0
   58.1580   27.3610   47.7400 C   0  0  0  0  0  0  0  0  0  0  0  0
   57.8580   27.3294   48.7978 H   0  0  0  0  0  0  0  0  0  0  0  0
   59.0490   28.3670   47.2950 C   0  0  0  0  0  0  0  0  0  0  0  0
   59.5450   29.3740   48.1690 C   0  0  0  0  0  0  0  0  0  0  0  0
   59.1190   29.3250   49.4100 N   0  0  0  0  0  0  0  0  0  0  0  0
   59.7370   29.3060   50.7350 C   0  0  0  0  0  0  0  0  0  0  0  0
   60.2182   28.3293   50.8916 H   0  0  0  0  0  0  0  0  0  0  0  0
   60.4775   30.1180   50.7835 H   0  0  0  0  0  0  0  0  0  0  0  0
   58.6950   29.5340   51.8430 C   0  0  0  0  0  0  0  0  0  0  0  0
   58.5766   28.6055   52.4208 H   0  0  0  0  0  0  0  0  0  0  0  0
   59.0473   30.3510   52.4898 H   0  0  0  0  0  0  0  0  0  0  0  0
   57.3940   29.9160   51.2780 N   0  0  0  0  0  0  0  0  0  0  0  0
   57.4140   29.7120   50.2500 H   0  0  0  0  0  0  0  0  0  0  0  0
   57.1140   31.3510   51.4380 C   0  0  0  0  0  0  0  0  0  0  0  0
   56.0881   31.5629   51.1023 H   0  0  0  0  0  0  0  0  0  0  0  0
   57.2207   31.6268   52.4975 H   0  0  0  0  0  0  0  0  0  0  0  0
   58.1000   32.1650   50.6020 C   0  0  0  0  0  0  0  0  0  0  0  0
   58.8523   31.4908   50.1667 H   0  0  0  0  0  0  0  0  0  0  0  0
   57.5534   32.6812   49.7990 H   0  0  0  0  0  0  0  0  0  0  0  0
   58.7710   33.1620   51.4480 N   0  0  0  0  0  0  0  0  0  0  0  0
   58.4870   32.9860   52.4390 H   0  0  0  0  0  0  0  0  0  0  0  0
   60.2350   33.0680   51.3610 C   0  0  0  0  0  0  0  0  0  0  0  0
   60.6798   33.4837   52.2772 H   0  0  0  0  0  0  0  0  0  0  0  0
   60.5184   32.0111   51.2487 H   0  0  0  0  0  0  0  0  0  0  0  0
   60.7490   33.8500   50.1520 C   0  0  0  0  0  0  0  0  0  0  0  0
   61.4452   34.6294   50.4953 H   0  0  0  0  0  0  0  0  0  0  0  0
   61.2615   33.1538   49.4719 H   0  0  0  0  0  0  0  0  0  0  0  0
   59.6410   34.4780   49.4350 N   0  0  0  0  0  0  0  0  0  0  0  0
   59.1110   35.2310   49.9320 H   0  0  0  0  0  0  0  0  0  0  0  0
   59.3280   34.2040   48.0600 C   0  0  0  0  0  0  0  0  0  0  0  0
   58.7510   33.0230   47.7010 N   0  0  0  0  0  0  0  0  0  0  0  0
   58.4180   32.7470   46.4100 C   0  0  0  0  0  0  0  0  0  0  0  0
   57.8090   31.5280   46.0930 C   0  0  0  0  0  0  0  0  0  0  0  0
   57.6099   30.7923   46.8862 H   0  0  0  0  0  0  0  0  0  0  0  0
   57.4520   31.2410   44.7700 C   0  0  0  0  0  0  0  0  0  0  0  0
   56.9817   30.2774   44.5243 H   0  0  0  0  0  0  0  0  0  0  0  0
   57.6930   32.1790   43.7600 C   0  0  0  0  0  0  0  0  0  0  0  0
   57.4057   31.9532   42.7225 H   0  0  0  0  0  0  0  0  0  0  0  0
   58.2980   33.4030   44.0650 C   0  0  0  0  0  0  0  0  0  0  0  0
   58.4844   34.1372   43.2673 H   0  0  0  0  0  0  0  0  0  0  0  0
   58.6690   33.6970   45.3920 C   0  0  0  0  0  0  0  0  0  0  0  0
   59.2730   34.9180   45.7440 C   0  0  0  0  0  0  0  0  0  0  0  0
   59.5170   35.7970   44.8730 O   0  0  0  0  0  0  0  0  0  0  0  0
   59.6020   35.1670   47.0810 C   0  0  0  0  0  0  0  0  0  0  0  0
   60.0757   36.1189   47.3629 H   0  0  0  0  0  0  0  0  0  0  0  0
   60.4490   30.3570   47.6290 C   0  0  0  0  0  0  0  0  0  0  0  0
   61.1530   31.3440   48.4180 N   0  0  0  0  0  0  0  0  0  0  0  0
   60.6330   32.2570   48.3940 H   0  0  0  0  0  0  0  0  0  0  0  0
   61.1740   31.0910   49.4220 H   0  0  0  0  0  0  0  0  0  0  0  0
   62.4920   31.5830   47.8540 C   0  0  0  0  0  0  0  0  0  0  0  0
   62.6834   30.8487   47.0577 H   0  0  0  0  0  0  0  0  0  0  0  0
   63.2350   31.4806   48.6586 H   0  0  0  0  0  0  0  0  0  0  0  0
   62.5960   32.9910   47.2710 C   0  0  0  0  0  0  0  0  0  0  0  0
   62.6501   33.7237   48.0896 H   0  0  0  0  0  0  0  0  0  0  0  0
   63.5021   33.0655   46.6518 H   0  0  0  0  0  0  0  0  0  0  0  0
   61.7107   33.1978   46.6518 H   0  0  0  0  0  0  0  0  0  0  0  0
  1  2  1  0
  2  3  1  0
  3  4  1  0
  4  5  2  0
  5  6  1  0
  5  7  1  0
  7  8  1  0
  7  9  2  0
  9 10  1  0
  9 11  1  0
 11 12  1  0
 11 13  2  0
 13 14  1  0
 14 15  2  0
 15 16  1  0
 16 17  1  0
 16 18  1  0
 16 19  1  0
 19 20  1  0
 19 21  1  0
 19 22  1  0
 22 23  1  0
 22 24  1  0
 24 25  1  0
 24 26  1  0
 24 27  1  0
 27 28  1  0
 27 29  1  0
 27 30  1  0
 30 31  1  0
 30 32  1  0
 32 33  1  0
 32 34  1  0
 32 35  1  0
 35 36  1  0
 35 37  1  0
 35 38  1  0
 38 39  1  0
 38 40  1  0
 40 41  1  0
 41 42  1  0
 42 43  2  0
 43 44  1  0
 43 45  1  0
 45 46  1  0
 45 47  2  0
 47 48  1  0
 47 49  1  0
 49 50  1  0
 49 51  2  0
 51 52  1  0
 52 53  2  0
 52 54  1  0
 54 55  1  0
 14 56  1  0
 56 57  1  0
 57 58  1  0
 57 59  1  0
 57 60  1  0
 60 61  1  0
 60 62  1  0
 60 63  1  0
 63 64  1  0
 63 65  1  0
 63 66  1  0
 56  2  2  0
 13  4  1  0
 54 40  2  0
 51 42  1  0
M  CHG  3   3  -1  41  -1  57   1
M  END
>  <UniqueID>  (2) 
2

>  <SMILES>  (2) 
CC[NH2+]c1c[n-]c2cc(Cl)ccc2/c1=N/CCNCCNCCNc1cc(=O)c2ccccc2[n-]1

>  <Energy>  (2) 
79.21496971452142

>  <Genealogy>  (2) 
CC[NH2+]c1c[n-]c2cc(Cl)ccc2c1=NCCNCCNCCNc1cc(=O)c2ccccc2[n-]1 (protonated)
CC[NH2+]c1c[n-]c2cc(Cl)ccc2/c1=N/CCNCCNCCNc1cc(=O)c2ccccc2[n-]1 (cis-trans isomerization)
CC[NH2+]c1c[n-]c2cc(Cl)ccc2/c1=N/CCNCCNCCNc1cc(=O)c2ccccc2[n-]1 (3D coordinates assigned)
CC[NH2+]c1c[n-]c2cc(Cl)ccc2/c1=N/CCNCCNCCNc1cc(=O)c2ccccc2[n-]1 (optimized conformer: 79.21496971452142 kcal/mol)

>  <smiles>  (2) 
CCNc1c[nH]c2cc(Cl)ccc2c1=NCCNCCNCCNc1cc(=O)c2ccccc2[nH]1

>  <score_type>  (2) 
oracle

>  <origin>  (2) 
adg

>  <m_score__min__energy>  (2) 
-9.3900000000000006

>  <m_primary>  (2) 
energy

$$$$
2:0
     RDKit          3D

 48 51  0  0  0  0  0  0  0  0999 V2000
   62.9960   33.7330   46.7140 C   0  0  0  0  0  0  0  0  0  0  0  0
   63.3990   32.3250   47.1430 C   0  0  0  0  0  0  0  0  0  0  0  0
   62.2740   31.6160   47.6270 O   0  0  0  0  0  0  0  0  0  0  0  0
   62.0420   31.8850   48.9980 C   0  0  0  0  0  0  0  0  0  0  0  0
   60.5770   31.6250   49.3580 C   0  0  0  0  0  0  0  0  0  0  0  0
   60.3910   30.2770   49.7490 O   0  0  0  0  0  0  0  0  0  0  0  0
   59.5640   29.5800   48.8340 C   0  0  0  0  0  0  0  0  0  0  0  0
   60.3070   29.3390   47.5130 C   0  0  0  0  0  0  0  0  0  0  0  0
   59.3600   29.0790   46.4210 N   0  0  0  0  0  0  0  0  0  0  0  0
   58.9770   27.8380   46.0170 C   0  0  0  0  0  0  0  0  0  0  0  0
   59.4160   26.5890   46.4730 C   0  0  0  0  0  0  0  0  0  0  0  0
   58.8430   25.4420   45.8990 C   0  0  0  0  0  0  0  0  0  0  0  0
   57.8550   25.5720   44.9000 C   0  0  0  0  0  0  0  0  0  0  0  0
   57.4510   26.8100   44.4830 N   0  0  0  0  0  0  0  0  0  0  0  0
   58.0190   27.9100   45.0430 C   0  0  0  0  0  0  0  0  0  0  0  0
   57.7820   29.2360   44.8080 C   0  0  0  0  0  0  0  0  0  0  0  0
   56.8690   29.8330   43.9500 C   0  0  0  0  0  0  0  0  0  0  0  0
   56.8010   31.2250   43.9270 C   0  0  0  0  0  0  0  0  0  0  0  0
   57.6620   32.0040   44.7310 C   0  0  0  0  0  0  0  0  0  0  0  0
   57.5770   33.4030   44.6600 C   0  0  0  0  0  0  0  0  0  0  0  0
   58.4390   34.2010   45.4050 C   0  0  0  0  0  0  0  0  0  0  0  0
   59.4060   33.6130   46.2150 C   0  0  0  0  0  0  0  0  0  0  0  0
   59.5080   32.2220   46.3070 C   0  0  0  0  0  0  0  0  0  0  0  0
   58.6210   31.3820   45.5970 C   0  0  0  0  0  0  0  0  0  0  0  0
   58.6330   29.9540   45.6440 C   0  0  0  0  0  0  0  0  0  0  0  0
   62.8189   34.3516   47.6062 H   0  0  0  0  0  0  0  0  0  0  0  0
   63.8028   34.1783   46.1133 H   0  0  0  0  0  0  0  0  0  0  0  0
   62.0758   33.6840   46.1133 H   0  0  0  0  0  0  0  0  0  0  0  0
   63.8208   31.7898   46.2795 H   0  0  0  0  0  0  0  0  0  0  0  0
   64.1478   32.3970   47.9455 H   0  0  0  0  0  0  0  0  0  0  0  0
   62.6852   31.2337   49.6080 H   0  0  0  0  0  0  0  0  0  0  0  0
   62.2735   32.9420   49.1960 H   0  0  0  0  0  0  0  0  0  0  0  0
   60.2861   32.2855   50.1881 H   0  0  0  0  0  0  0  0  0  0  0  0
   59.9537   31.8269   48.4744 H   0  0  0  0  0  0  0  0  0  0  0  0
   59.2778   28.6116   49.2701 H   0  0  0  0  0  0  0  0  0  0  0  0
   58.6678   30.1852   48.6325 H   0  0  0  0  0  0  0  0  0  0  0  0
   60.9044   30.2295   47.2677 H   0  0  0  0  0  0  0  0  0  0  0  0
   60.9588   28.4607   47.6306 H   0  0  0  0  0  0  0  0  0  0  0  0
   60.1849   26.5085   47.2556 H   0  0  0  0  0  0  0  0  0  0  0  0
   59.1644   24.4428   46.2282 H   0  0  0  0  0  0  0  0  0  0  0  0
   57.4070   24.6718   44.4539 H   0  0  0  0  0  0  0  0  0  0  0  0
   56.7180   26.8980   43.7450 H   0  0  0  0  0  0  0  0  0  0  0  0
   56.2171   29.2245   43.3060 H   0  0  0  0  0  0  0  0  0  0  0  0
   56.0681   31.7227   43.2749 H   0  0  0  0  0  0  0  0  0  0  0  0
   56.8232   33.8719   44.0105 H   0  0  0  0  0  0  0  0  0  0  0  0
   58.3564   35.2967   45.3539 H   0  0  0  0  0  0  0  0  0  0  0  0
   60.0966   34.2490   46.7883 H   0  0  0  0  0  0  0  0  0  0  0  0
   60.2888   31.7755   46.9403 H   0  0  0  0  0  0  0  0  0  0  0  0
  1  2  1  0
  2  3  1  0
  3  4  1  0
  4  5  1  0
  5  6  1  0
  6  7  1  0
  7  8  1  0
  8  9  1  0
  9 10  1  0
 10 11  2  0
 11 12  1  0
 12 13  2  0
 13 14  1  0
 14 15  2  0
 15 16  1  0
 16 17  2  0
 17 18  1  0
 18 19  2  0
 19 20  1  0
 20 21  2  0
 21 22  1  0
 22 23  2  0
 23 24  1  0
 24 25  2  0
 25  9  1  0
 15 10  1  0
 25 16  1  0
 24 19  1  0
  1 26  1  0
  1 27  1  0
  1 28  1  0
  2 29  1  0
  2 30  1  0
  4 31  1  0
  4 32  1  0
  5 33  1  0
  5 34  1  0
  7 35  1  0
  7 36  1  0
  8 37  1  0
  8 38  1  0
 11 39  1  0
 12 40  1  0
 13 41  1  0
 14 42  1  0
 17 43  1  0
 18 44  1  0
 20 45  1  0
 21 46  1  0
 22 47  1  0
 23 48  1  0
M  CHG  1  14   1
M  END
>  <UniqueID>  (3) 
3

>  <SMILES>  (3) 
CCOCCOCCn1c2ccc[nH+]c2c2ccc3ccccc3c21

>  <Energy>  (3) 
106.95191450297737

>  <Genealogy>  (3) 
CCOCCOCCn1c2ccc[nH+]c2c2ccc3ccccc3c21 (protonated)
CCOCCOCCn1c2ccc[nH+]c2c2ccc3ccccc3c21 (3D coordinates assigned)
CCOCCOCCn1c2ccc[nH+]c2c2ccc3ccccc3c21 (optimized conformer: 106.95191450297737 kcal/mol)

>  <smiles>  (3) 
CCOCCOCCn1c2cccnc2c2ccc3ccccc3c21

>  <score_type>  (3) 
oracle

>  <origin>  (3) 
adg

>  <m_score__min__energy>  (3) 
-6.1699999999999999

>  <m_primary>  (3) 
energy

$$$$
3:0
     RDKit          3D

 59 62  0  0  0  0  0  0  0  0999 V2000
   62.8200   33.8560   46.5290 C   0  0  0  0  0  0  0  0  0  0  0  0
   63.7700   32.6950   46.8090 C   0  0  0  0  0  0  0  0  0  0  0  0
   63.4670   32.0880   48.1120 N   0  0  0  0  0  0  0  0  0  0  0  0
   64.0140   32.8870   49.2140 C   0  0  0  0  0  0  0  0  0  0  0  0
   63.7800   32.1670   50.5460 C   0  0  0  0  0  0  0  0  0  0  0  0
   62.2910   31.8370   50.7420 C   0  0  0  0  0  0  0  0  0  0  0  0
   61.8380   30.7640   49.8410 N   0  0  0  0  0  0  0  0  0  0  0  0
   60.6050   30.1060   50.3000 C   0  0  0  0  0  0  0  0  0  0  0  0
   60.1040   29.0750   49.2730 C   0  0  0  0  0  0  0  0  0  0  0  0
   60.7940   29.1600   47.9700 N   0  0  0  0  0  0  0  0  0  0  0  0
   59.8640   29.2910   46.8610 C   0  0  0  0  0  0  0  0  0  0  0  0
   59.4860   30.5660   46.4220 C   0  0  0  0  0  0  0  0  0  0  0  0
   58.5730   30.7290   45.3840 C   0  0  0  0  0  0  0  0  0  0  0  0
   58.0110   29.6800   44.7170 N   0  0  0  0  0  0  0  0  0  0  0  0
   57.0750   29.9230   43.6040 C   0  0  0  0  0  0  0  0  0  0  0  0
   58.3360   28.3940   45.1180 C   0  0  0  0  0  0  0  0  0  0  0  0
   57.7440   27.2680   44.4940 C   0  0  0  0  0  0  0  0  0  0  0  0
   58.0670   25.9730   44.8870 C   0  0  0  0  0  0  0  0  0  0  0  0
   58.9790   25.7590   45.9110 C   0  0  0  0  0  0  0  0  0  0  0  0
   59.5770   26.8380   46.5570 C   0  0  0  0  0  0  0  0  0  0  0  0
   59.2760   28.1720   46.1890 C   0  0  0  0  0  0  0  0  0  0  0  0
   58.3790   32.1720   45.2220 C   0  0  0  0  0  0  0  0  0  0  0  0
   57.6290   32.9730   44.5060 O   0  0  0  0  0  0  0  0  0  0  0  0
   57.9120   34.2080   44.9070 C   0  0  0  0  0  0  0  0  0  0  0  0
   58.8860   34.1800   45.9120 C   0  0  0  0  0  0  0  0  0  0  0  0
   59.4030   35.3220   46.7190 C   0  0  0  0  0  0  0  0  0  0  0  0
   59.1460   32.8460   46.0810 C   0  0  0  0  0  0  0  0  0  0  0  0
   59.8880   31.9130   46.9020 C   0  0  0  0  0  0  0  0  0  0  0  0
   60.6990   32.2030   47.8200 O   0  0  0  0  0  0  0  0  0  0  0  0
   62.4712   34.2822   47.4812 H   0  0  0  0  0  0  0  0  0  0  0  0
   63.3471   34.6301   45.9520 H   0  0  0  0  0  0  0  0  0  0  0  0
   61.9569   33.4926   45.9520 H   0  0  0  0  0  0  0  0  0  0  0  0
   63.6572   31.9362   46.0207 H   0  0  0  0  0  0  0  0  0  0  0  0
   64.8024   33.0744   46.8236 H   0  0  0  0  0  0  0  0  0  0  0  0
   62.4260   32.0730   48.2230 H   0  0  0  0  0  0  0  0  0  0  0  0
   65.0940   33.0287   49.0608 H   0  0  0  0  0  0  0  0  0  0  0  0
   63.5104   33.8647   49.2373 H   0  0  0  0  0  0  0  0  0  0  0  0
   64.3596   31.2321   50.5559 H   0  0  0  0  0  0  0  0  0  0  0  0
   64.1018   32.8297   51.3629 H   0  0  0  0  0  0  0  0  0  0  0  0
   62.1326   31.5169   51.7824 H   0  0  0  0  0  0  0  0  0  0  0  0
   61.7102   32.7419   50.5099 H   0  0  0  0  0  0  0  0  0  0  0  0
   61.6820   31.1510   48.8800 H   0  0  0  0  0  0  0  0  0  0  0  0
   60.8057   29.5940   51.2527 H   0  0  0  0  0  0  0  0  0  0  0  0
   59.8284   30.8747   50.4265 H   0  0  0  0  0  0  0  0  0  0  0  0
   60.2614   28.0675   49.6855 H   0  0  0  0  0  0  0  0  0  0  0  0
   59.0405   29.2892   49.0911 H   0  0  0  0  0  0  0  0  0  0  0  0
   61.4660   28.3740   47.8570 H   0  0  0  0  0  0  0  0  0  0  0  0
   61.4070   30.0070   47.9820 H   0  0  0  0  0  0  0  0  0  0  0  0
   56.0845   30.1802   44.0074 H   0  0  0  0  0  0  0  0  0  0  0  0
   57.4468   30.7544   42.9871 H   0  0  0  0  0  0  0  0  0  0  0  0
   56.9954   29.0157   42.9871 H   0  0  0  0  0  0  0  0  0  0  0  0
   57.0156   27.4205   43.6839 H   0  0  0  0  0  0  0  0  0  0  0  0
   57.5974   25.1149   44.3838 H   0  0  0  0  0  0  0  0  0  0  0  0
   59.2307   24.7319   46.2138 H   0  0  0  0  0  0  0  0  0  0  0  0
   60.2963   26.6508   47.3679 H   0  0  0  0  0  0  0  0  0  0  0  0
   57.4475   35.1212   44.5066 H   0  0  0  0  0  0  0  0  0  0  0  0
   59.2986   35.0915   47.7895 H   0  0  0  0  0  0  0  0  0  0  0  0
   60.4641   35.4882   46.4815 H   0  0  0  0  0  0  0  0  0  0  0  0
   58.8277   36.2290   46.4815 H   0  0  0  0  0  0  0  0  0  0  0  0
  1  2  1  0
  2  3  1  0
  3  4  1  0
  4  5  1  0
  5  6  1  0
  6  7  1  0
  7  8  1  0
  8  9  1  0
  9 10  1  0
 10 11  1  0
 11 12  2  0
 12 13  1  0
 13 14  2  0
 14 15  1  0
 14 16  1  0
 16 17  2  0
 17 18  1  0
 18 19  2  0
 19 20  1  0
 20 21  2  0
 13 22  1  0
 22 23  1  0
 23 24  1  0
 24 25  2  0
 25 26  1  0
 25 27  1  0
 27 28  1  0
 28 29  2  0
 21 11  1  0
 27 22  2  0
 28 12  1  0
 21 16  1  0
  1 30  1  0
  1 31  1  0
  1 32  1  0
  2 33  1  0
  2 34  1  0
  3 35  1  0
  4 36  1  0
  4 37  1  0
  5 38  1  0
  5 39  1  0
  6 40  1  0
  6 41  1  0
  7 42  1  0
  8 43  1  0
  8 44  1  0
  9 45  1  0
  9 46  1  0
 10 47  1  0
 10 48  1  0
 15 49  1  0
 15 50  1  0
 15 51  1  0
 17 52  1  0
 18 53  1  0
 19 54  1  0
 20 55  1  0
 24 56  1  0
 26 57  1  0
 26 58  1  0
 26 59  1  0
M  CHG  2  10   1  14   1
M  END
>  <UniqueID>  (4) 
4

>  <SMILES>  (4) 
CCNCCCNCC[NH2+]c1c2c([n+](C)c3ccccc13)-c1occ(C)c1C2=O

>  <Energy>  (4) 
150.9008997556079

>  <Genealogy>  (4) 
CCNCCCNCC[NH2+]c1c2c([n+](C)c3ccccc13)-c1occ(C)c1C2=O (protonated)
CCNCCCNCC[NH2+]c1c2c([n+](C)c3ccccc13)-c1occ(C)c1C2=O (3D coordinates assigned)
CCNCCCNCC[NH2+]c1c2c([n+](C)c3ccccc13)-c1occ(C)c1C2=O (nonaromatic ring conformer: 150.9008997556079 kcal/mol)

>  <smiles>  (4) 
CCNCCCNCCNc1c2c([n+](C)c3ccccc13)-c1occ(C)c1C2=O

>  <score_type>  (4) 
oracle

>  <origin>  (4) 
adg

>  <m_score__min__energy>  (4) 
-3.7999999999999998

>  <m_primary>  (4) 
energy

$$$$
4:0
     RDKit          3D

 47 50  0  0  0  0  0  0  0  0999 V2000
   57.6000   32.3470   41.7540 C   0  0  0  0  0  0  0  0  0  0  0  0
   57.6750   32.1870   43.2020 N   0  0  0  0  0  0  0  0  0  0  0  0
   57.9110   33.1670   44.1050 C   0  0  0  0  0  0  0  0  0  0  0  0
   57.9530   32.6390   45.3930 C   0  0  0  0  0  0  0  0  0  0  0  0
   58.2040   33.4050   46.6720 C   0  0  0  0  0  0  0  0  0  0  0  0
   59.5910   33.2890   47.1920 N   0  0  0  0  0  0  0  0  0  0  0  0
   60.6090   33.6590   46.1850 C   0  0  0  0  0  0  0  0  0  0  0  0
   61.9790   33.8430   46.8560 C   0  0  0  0  0  0  0  0  0  0  0  0
   62.1520   32.8890   47.9600 N   0  0  0  0  0  0  0  0  0  0  0  0
   63.1360   33.1350   48.9830 C   0  0  0  0  0  0  0  0  0  0  0  0
   64.3740   32.4680   48.9560 C   0  0  0  0  0  0  0  0  0  0  0  0
   65.3230   32.6980   49.9560 C   0  0  0  0  0  0  0  0  0  0  0  0
   65.0460   33.5900   50.9940 C   0  0  0  0  0  0  0  0  0  0  0  0
   65.9690   33.8110   51.9630 F   0  0  0  0  0  0  0  0  0  0  0  0
   63.8160   34.2520   51.0350 C   0  0  0  0  0  0  0  0  0  0  0  0
   62.8640   34.0250   50.0390 C   0  0  0  0  0  0  0  0  0  0  0  0
   61.3640   31.6520   47.9510 C   0  0  0  0  0  0  0  0  0  0  0  0
   59.8590   31.9550   47.7920 C   0  0  0  0  0  0  0  0  0  0  0  0
   57.7630   31.2740   45.2430 C   0  0  0  0  0  0  0  0  0  0  0  0
   57.7660   30.2340   46.1740 C   0  0  0  0  0  0  0  0  0  0  0  0
   57.5640   28.9250   45.7020 C   0  0  0  0  0  0  0  0  0  0  0  0
   57.3760   28.6820   44.3250 C   0  0  0  0  0  0  0  0  0  0  0  0
   57.3950   29.7450   43.4050 C   0  0  0  0  0  0  0  0  0  0  0  0
   57.5910   31.0370   43.9000 C   0  0  0  0  0  0  0  0  0  0  0  0
   57.1442   33.3193   41.5157 H   0  0  0  0  0  0  0  0  0  0  0  0
   58.6128   32.3024   41.3272 H   0  0  0  0  0  0  0  0  0  0  0  0
   56.9864   31.5399   41.3272 H   0  0  0  0  0  0  0  0  0  0  0  0
   58.0499   34.2296   43.8569 H   0  0  0  0  0  0  0  0  0  0  0  0
   57.9946   34.4683   46.4835 H   0  0  0  0  0  0  0  0  0  0  0  0
   57.5437   32.9680   47.4356 H   0  0  0  0  0  0  0  0  0  0  0  0
   59.6570   33.9910   47.9700 H   0  0  0  0  0  0  0  0  0  0  0  0
   60.6787   32.8624   45.4296 H   0  0  0  0  0  0  0  0  0  0  0  0
   60.3137   34.6052   45.7080 H   0  0  0  0  0  0  0  0  0  0  0  0
   62.7707   33.6788   46.1102 H   0  0  0  0  0  0  0  0  0  0  0  0
   62.0392   34.8643   47.2601 H   0  0  0  0  0  0  0  0  0  0  0  0
   64.5966   31.7612   48.1431 H   0  0  0  0  0  0  0  0  0  0  0  0
   66.2903   32.1751   49.9253 H   0  0  0  0  0  0  0  0  0  0  0  0
   63.5973   34.9534   51.8536 H   0  0  0  0  0  0  0  0  0  0  0  0
   61.8955   34.5449   50.0799 H   0  0  0  0  0  0  0  0  0  0  0  0
   61.6943   31.0213   47.1125 H   0  0  0  0  0  0  0  0  0  0  0  0
   61.5172   31.1323   48.9083 H   0  0  0  0  0  0  0  0  0  0  0  0
   59.4136   31.1847   47.1453 H   0  0  0  0  0  0  0  0  0  0  0  0
   59.4169   31.9544   48.7992 H   0  0  0  0  0  0  0  0  0  0  0  0
   57.9217   30.4325   47.2447 H   0  0  0  0  0  0  0  0  0  0  0  0
   57.5525   28.0844   46.4114 H   0  0  0  0  0  0  0  0  0  0  0  0
   57.2135   27.6540   43.9688 H   0  0  0  0  0  0  0  0  0  0  0  0
   57.2597   29.5651   42.3283 H   0  0  0  0  0  0  0  0  0  0  0  0
  1  2  1  0
  2  3  1  0
  3  4  2  0
  4  5  1  0
  5  6  1  0
  6  7  1  0
  7  8  1  0
  8  9  1  0
  9 10  1  0
 10 11  2  0
 11 12  1  0
 12 13  2  0
 13 14  1  0
 13 15  1  0
 15 16  2  0
  9 17  1  0
 17 18  1  0
  4 19  1  0
 19 20  2  0
 20 21  1  0
 21 22  2  0
 22 23  1  0
 23 24  2  0
 24  2  1  0
 18  6  1  0
 24 19  1  0
 16 10  1  0
  1 25  1  0
  1 26  1  0
  1 27  1  0
  3 28  1  0
  5 29  1  0
  5 30  1  0
  6 31  1  0
  7 32  1  0
  7 33  1  0
  8 34  1  0
  8 35  1  0
 11 36  1  0
 12 37  1  0
 15 38  1  0
 16 39  1  0
 17 40  1  0
 17 41  1  0
 18 42  1  0
 18 43  1  0
 20 44  1  0
 21 45  1  0
 22 46  1  0
 23 47  1  0
M  CHG  1   6   1
M  END
>  <UniqueID>  (5) 
5

>  <SMILES>  (5) 
Cn1cc(C[NH+]2CCN(c3ccc(F)cc3)CC2)c2ccccc21

>  <Energy>  (5) 
96.09657148810237

>  <Genealogy>  (5) 
Cn1cc(C[NH+]2CCN(c3ccc(F)cc3)CC2)c2ccccc21 (protonated)
Cn1cc(C[NH+]2CCN(c3ccc(F)cc3)CC2)c2ccccc21 (3D coordinates assigned)
Cn1cc(C[NH+]2CCN(c3ccc(F)cc3)CC2)c2ccccc21 (nonaromatic ring conformer: 96.09657148810237 kcal/mol)

>  <smiles>  (5) 
Cn1cc(CN2CCN(c3ccc(F)cc3)CC2)c2ccccc21

>  <score_type>  (5) 
oracle

>  <origin>  (5) 
adg

>  <m_score__min__energy>  (5) 
-5.7000000000000002

>  <m_primary>  (5) 
energy

$$$$
5:0
     RDKit          3D

 78 80  0  0  0  0  0  0  0  0999 V2000
   63.7900   30.1670   51.3050 C   0  0  0  0  0  0  0  0  0  0  0  0
   63.9460   31.4870   50.5510 C   0  0  0  0  0  0  0  0  0  0  0  0
   65.4100   31.7200   50.1690 C   0  0  0  0  0  0  0  0  0  0  0  0
   63.1160   31.4540   49.3490 N   0  0  0  0  0  0  0  0  0  0  0  0
   63.3650   32.2500   48.1900 C   0  0  0  0  0  0  0  0  0  0  0  0
   63.2370   31.7580   47.0350 O   0  0  0  0  0  0  0  0  0  0  0  0
   63.7420   33.6880   48.3510 C   0  0  0  0  0  0  0  0  0  0  0  0
   63.1390   34.2190   49.5810 N   0  0  0  0  0  0  0  0  0  0  0  0
   61.7290   34.5800   49.3770 C   0  0  0  0  0  0  0  0  0  0  0  0
   60.8250   33.5880   50.1150 C   0  0  0  0  0  0  0  0  0  0  0  0
   61.1030   33.5720   51.6240 C   0  0  0  0  0  0  0  0  0  0  0  0
   59.9660   33.0090   52.3700 N   0  0  0  0  0  0  0  0  0  0  0  0
   60.0000   31.5380   52.3860 C   0  0  0  0  0  0  0  0  0  0  0  0
   58.6110   30.9990   52.7360 C   0  0  0  0  0  0  0  0  0  0  0  0
   57.6970   30.8860   51.5060 C   0  0  0  0  0  0  0  0  0  0  0  0
   57.6980   32.1270   50.7180 N   0  0  0  0  0  0  0  0  0  0  0  0
   58.3930   31.9610   49.4340 C   0  0  0  0  0  0  0  0  0  0  0  0
   58.7370   30.4820   49.1960 C   0  0  0  0  0  0  0  0  0  0  0  0
   60.2590   30.1930   49.1760 C   0  0  0  0  0  0  0  0  0  0  0  0
   60.9520   30.8560   48.0540 N   0  0  0  0  0  0  0  0  0  0  0  0
   60.1190   30.9110   46.8570 C   0  0  0  0  0  0  0  0  0  0  0  0
   59.7470   29.7070   46.1950 C   0  0  0  0  0  0  0  0  0  0  0  0
   60.3280   28.4580   46.5320 C   0  0  0  0  0  0  0  0  0  0  0  0
   59.9520   27.2880   45.8800 C   0  0  0  0  0  0  0  0  0  0  0  0
   59.0020   27.3270   44.8690 C   0  0  0  0  0  0  0  0  0  0  0  0
   58.4060   28.5340   44.5200 C   0  0  0  0  0  0  0  0  0  0  0  0
   58.7410   29.7400   45.1890 C   0  0  0  0  0  0  0  0  0  0  0  0
   58.0990   30.9210   44.8920 N   0  0  0  0  0  0  0  0  0  0  0  0
   56.8190   30.8940   44.1480 C   0  0  0  0  0  0  0  0  0  0  0  0
   58.6260   32.1210   45.3220 C   0  0  0  0  0  0  0  0  0  0  0  0
   58.2010   33.3470   44.7490 C   0  0  0  0  0  0  0  0  0  0  0  0
   58.6870   34.5650   45.2080 C   0  0  0  0  0  0  0  0  0  0  0  0
   59.6120   34.5990   46.2350 C   0  0  0  0  0  0  0  0  0  0  0  0
   60.0820   33.4140   46.7960 C   0  0  0  0  0  0  0  0  0  0  0  0
   59.6210   32.1480   46.3430 C   0  0  0  0  0  0  0  0  0  0  0  0
   63.8126   30.3585   52.3880 H   0  0  0  0  0  0  0  0  0  0  0  0
   62.8306   29.7016   51.0349 H   0  0  0  0  0  0  0  0  0  0  0  0
   64.6145   29.4908   51.0349 H   0  0  0  0  0  0  0  0  0  0  0  0
   63.6240   32.3130   51.2022 H   0  0  0  0  0  0  0  0  0  0  0  0
   66.0162   31.8165   51.0818 H   0  0  0  0  0  0  0  0  0  0  0  0
   65.7740   30.8685   49.5754 H   0  0  0  0  0  0  0  0  0  0  0  0
   65.4917   32.6425   49.5754 H   0  0  0  0  0  0  0  0  0  0  0  0
   64.8368   33.7751   48.4125 H   0  0  0  0  0  0  0  0  0  0  0  0
   63.3758   34.2614   47.4867 H   0  0  0  0  0  0  0  0  0  0  0  0
   63.1740   33.4680   50.3140 H   0  0  0  0  0  0  0  0  0  0  0  0
   61.5521   35.5937   49.7658 H   0  0  0  0  0  0  0  0  0  0  0  0
   61.4991   34.5489   48.3018 H   0  0  0  0  0  0  0  0  0  0  0  0
   59.7754   33.8729   49.9500 H   0  0  0  0  0  0  0  0  0  0  0  0
   61.0302   32.5819   49.7204 H   0  0  0  0  0  0  0  0  0  0  0  0
   61.9968   32.9607   51.8175 H   0  0  0  0  0  0  0  0  0  0  0  0
   61.2605   34.6076   51.9596 H   0  0  0  0  0  0  0  0  0  0  0  0
   59.0950   33.2920   51.8660 H   0  0  0  0  0  0  0  0  0  0  0  0
   60.2978   31.1674   51.3941 H   0  0  0  0  0  0  0  0  0  0  0  0
   60.7260   31.1963   53.1384 H   0  0  0  0  0  0  0  0  0  0  0  0
   58.7227   30.0012   53.1855 H   0  0  0  0  0  0  0  0  0  0  0  0
   58.1439   31.7076   53.4358 H   0  0  0  0  0  0  0  0  0  0  0  0
   58.0514   30.0598   50.8721 H   0  0  0  0  0  0  0  0  0  0  0  0
   56.6706   30.6996   51.8548 H   0  0  0  0  0  0  0  0  0  0  0  0
   56.6990   32.3390   50.4960 H   0  0  0  0  0  0  0  0  0  0  0  0
   57.7424   32.3167   48.6215 H   0  0  0  0  0  0  0  0  0  0  0  0
   59.3254   32.5443   49.4558 H   0  0  0  0  0  0  0  0  0  0  0  0
   58.2806   29.8854   49.9996 H   0  0  0  0  0  0  0  0  0  0  0  0
   58.3458   30.2163   48.2028 H   0  0  0  0  0  0  0  0  0  0  0  0
   60.6970   30.5498   50.1198 H   0  0  0  0  0  0  0  0  0  0  0  0
   60.3886   29.1079   49.0508 H   0  0  0  0  0  0  0  0  0  0  0  0
   61.2990   31.7790   48.3790 H   0  0  0  0  0  0  0  0  0  0  0  0
   61.8390   30.3510   47.8400 H   0  0  0  0  0  0  0  0  0  0  0  0
   61.0903   28.4135   47.3238 H   0  0  0  0  0  0  0  0  0  0  0  0
   60.4089   26.3293   46.1666 H   0  0  0  0  0  0  0  0  0  0  0  0
   58.7203   26.4026   44.3434 H   0  0  0  0  0  0  0  0  0  0  0  0
   57.6613   28.5544   43.7107 H   0  0  0  0  0  0  0  0  0  0  0  0
   55.9811   30.8763   44.8605 H   0  0  0  0  0  0  0  0  0  0  0  0
   56.7436   31.7908   43.5154 H   0  0  0  0  0  0  0  0  0  0  0  0
   56.7815   29.9949   43.5154 H   0  0  0  0  0  0  0  0  0  0  0  0
   57.4723   33.3332   43.9251 H   0  0  0  0  0  0  0  0  0  0  0  0
   58.3355   35.5032   44.7539 H   0  0  0  0  0  0  0  0  0  0  0  0
   59.9782   35.5659   46.6106 H   0  0  0  0  0  0  0  0  0  0  0  0
   60.8249   33.4587   47.6060 H   0  0  0  0  0  0  0  0  0  0  0  0
  1  2  1  0
  2  3  1  0
  2  4  1  0
  4  5  1  0
  5  6  2  0
  5  7  1  0
  7  8  1  0
  8  9  1  0
  9 10  1  0
 10 11  1  0
 11 12  1  0
 12 13  1  0
 13 14  1  0
 14 15  1  0
 15 16  1  0
 16 17  1  0
 17 18  1  0
 18 19  1  0
 19 20  1  0
 20 21  1  0
 21 22  2  0
 22 23  1  0
 23 24  2  0
 24 25  1  0
 25 26  2  0
 26 27  1  0
 27 28  2  0
 28 29  1  0
 28 30  1  0
 30 31  2  0
 31 32  1  0
 32 33  2  0
 33 34  1  0
 34 35  2  0
 35 21  1  0
 27 22  1  0
 35 30  1  0
  1 36  1  0
  1 37  1  0
  1 38  1  0
  2 39  1  0
  3 40  1  0
  3 41  1  0
  3 42  1  0
  7 43  1  0
  7 44  1  0
  8 45  1  0
  9 46  1  0
  9 47  1  0
 10 48  1  0
 10 49  1  0
 11 50  1  0
 11 51  1  0
 12 52  1  0
 13 53  1  0
 13 54  1  0
 14 55  1  0
 14 56  1  0
 15 57  1  0
 15 58  1  0
 16 59  1  0
 17 60  1  0
 17 61  1  0
 18 62  1  0
 18 63  1  0
 19 64  1  0
 19 65  1  0
 20 66  1  0
 20 67  1  0
 23 68  1  0
 24 69  1  0
 25 70  1  0
 26 71  1  0
 29 72  1  0
 29 73  1  0
 29 74  1  0
 31 75  1  0
 32 76  1  0
 33 77  1  0
 34 78  1  0
M  CHG  3   4  -1  20   1  28   1
M  END
>  <UniqueID>  (6) 
6

>  <SMILES>  (6) 
CC(C)[N-]C(=O)CNCCCNCCCNCCC[NH2+]c1c2ccccc2[n+](C)c2ccccc12

>  <Energy>  (6) 
84.6901107056914

>  <Genealogy>  (6) 
CC(C)[N-]C(=O)CNCCCNCCCNCCC[NH2+]c1c2ccccc2[n+](C)c2ccccc12 (protonated)
CC(C)[N-]C(=O)CNCCCNCCCNCCC[NH2+]c1c2ccccc2[n+](C)c2ccccc12 (3D coordinates assigned)
CC(C)[N-]C(=O)CNCCCNCCCNCCC[NH2+]c1c2ccccc2[n+](C)c2ccccc12 (optimized conformer: 84.6901107056914 kcal/mol)

>  <smiles>  (6) 
CC(C)NC(=O)CNCCCNCCCNCCCNc1c2ccccc2[n+](C)c2ccccc12

>  <score_type>  (6) 
oracle

>  <origin>  (6) 
adg

>  <m_score__min__energy>  (6) 
-6.1100000000000003

>  <m_primary>  (6) 
energy

$$$$
6:0
     RDKit          3D

 46 48  0  0  0  0  0  0  0  0999 V2000
   60.0460   28.7830   49.0270 C   0  0  0  0  0  0  0  0  0  0  0  0
   60.6240   29.9290   48.3270 N   0  0  0  0  0  0  0  0  0  0  0  0
   61.4980   30.8300   48.8150 C   0  0  0  0  0  0  0  0  0  0  0  0
   62.1440   30.8360   50.4900 S   0  0  0  0  0  0  0  0  0  0  0  0
   61.1730   32.2880   51.0260 C   0  0  0  0  0  0  0  0  0  0  0  0
   59.6720   31.9820   51.0030 C   0  0  0  0  0  0  0  0  0  0  0  0
   58.9700   32.6550   49.8200 C   0  0  0  0  0  0  0  0  0  0  0  0
   59.9380   33.3960   48.9900 N   0  0  0  0  0  0  0  0  0  0  0  0
   59.3330   34.5420   48.2930 C   0  0  0  0  0  0  0  0  0  0  0  0
   58.9260   34.1650   46.8940 C   0  0  0  0  0  0  0  0  0  0  0  0
   59.6930   34.5810   45.7930 C   0  0  0  0  0  0  0  0  0  0  0  0
   59.3140   34.2190   44.4960 C   0  0  0  0  0  0  0  0  0  0  0  0
   58.1660   33.4510   44.2900 C   0  0  0  0  0  0  0  0  0  0  0  0
   57.3980   33.0340   45.3810 C   0  0  0  0  0  0  0  0  0  0  0  0
   56.2730   32.3060   45.1770 F   0  0  0  0  0  0  0  0  0  0  0  0
   57.7850   33.3740   46.6800 C   0  0  0  0  0  0  0  0  0  0  0  0
   61.8510   31.7330   47.8820 N   0  0  0  0  0  0  0  0  0  0  0  0
   61.1880   31.4250   46.7780 N   0  0  0  0  0  0  0  0  0  0  0  0
   60.4330   30.3430   47.0540 C   0  0  0  0  0  0  0  0  0  0  0  0
   59.5330   29.7190   46.0610 C   0  0  0  0  0  0  0  0  0  0  0  0
   60.0170   28.7950   45.1180 C   0  0  0  0  0  0  0  0  0  0  0  0
   59.1420   28.1880   44.2110 C   0  0  0  0  0  0  0  0  0  0  0  0
   57.7780   28.4870   44.2460 C   0  0  0  0  0  0  0  0  0  0  0  0
   57.2850   29.3870   45.1940 C   0  0  0  0  0  0  0  0  0  0  0  0
   58.1560   29.9940   46.1040 C   0  0  0  0  0  0  0  0  0  0  0  0
   60.1247   28.9389   50.1130 H   0  0  0  0  0  0  0  0  0  0  0  0
   58.9873   28.6784   48.7473 H   0  0  0  0  0  0  0  0  0  0  0  0
   60.5912   27.8694   48.7473 H   0  0  0  0  0  0  0  0  0  0  0  0
   61.4690   32.5611   52.0496 H   0  0  0  0  0  0  0  0  0  0  0  0
   61.3725   33.1188   50.3332 H   0  0  0  0  0  0  0  0  0  0  0  0
   59.5321   30.8936   50.9272 H   0  0  0  0  0  0  0  0  0  0  0  0
   59.2297   32.3751   51.9303 H   0  0  0  0  0  0  0  0  0  0  0  0
   58.4821   31.8849   49.2044 H   0  0  0  0  0  0  0  0  0  0  0  0
   58.2237   33.3633   50.2090 H   0  0  0  0  0  0  0  0  0  0  0  0
   60.2990   32.7430   48.2560 H   0  0  0  0  0  0  0  0  0  0  0  0
   58.4442   34.8739   48.8497 H   0  0  0  0  0  0  0  0  0  0  0  0
   60.0755   35.3516   48.2372 H   0  0  0  0  0  0  0  0  0  0  0  0
   60.5935   35.1927   45.9511 H   0  0  0  0  0  0  0  0  0  0  0  0
   59.9213   34.5399   43.6368 H   0  0  0  0  0  0  0  0  0  0  0  0
   57.8659   33.1740   43.2686 H   0  0  0  0  0  0  0  0  0  0  0  0
   57.1941   33.0210   47.5380 H   0  0  0  0  0  0  0  0  0  0  0  0
   61.0887   28.5484   45.0934 H   0  0  0  0  0  0  0  0  0  0  0  0
   59.5287   27.4740   43.4689 H   0  0  0  0  0  0  0  0  0  0  0  0
   57.0924   28.0141   43.5275 H   0  0  0  0  0  0  0  0  0  0  0  0
   56.2101   29.6185   45.2246 H   0  0  0  0  0  0  0  0  0  0  0  0
   57.7608   30.6908   46.8578 H   0  0  0  0  0  0  0  0  0  0  0  0
  1  2  1  0
  2  3  1  0
  3  4  1  0
  4  5  1  0
  5  6  1  0
  6  7  1  0
  7  8  1  0
  8  9  1  0
  9 10  1  0
 10 11  2  0
 11 12  1  0
 12 13  2  0
 13 14  1  0
 14 15  1  0
 14 16  2  0
  3 17  2  0
 17 18  1  0
 18 19  2  0
 19 20  1  0
 20 21  2  0
 21 22  1  0
 22 23  2  0
 23 24  1  0
 24 25  2  0
 19  2  1  0
 25 20  1  0
 16 10  1  0
  1 26  1  0
  1 27  1  0
  1 28  1  0
  5 29  1  0
  5 30  1  0
  6 31  1  0
  6 32  1  0
  7 33  1  0
  7 34  1  0
  8 35  1  0
  9 36  1  0
  9 37  1  0
 11 38  1  0
 12 39  1  0
 13 40  1  0
 16 41  1  0
 21 42  1  0
 22 43  1  0
 23 44  1  0
 24 45  1  0
 25 46  1  0
M  END
>  <UniqueID>  (7) 
7

>  <SMILES>  (7) 
Cn1c(SCCCNCc2cccc(F)c2)nnc1-c1ccccc1

>  <Energy>  (7) 
76.26266076245692

>  <Genealogy>  (7) 
Cn1c(SCCCNCc2cccc(F)c2)nnc1-c1ccccc1 (3D coordinates assigned)
Cn1c(SCCCNCc2cccc(F)c2)nnc1-c1ccccc1 (optimized conformer: 76.26266076245692 kcal/mol)

>  <smiles>  (7) 
Cn1c(SCCCNCc2cccc(F)c2)nnc1-c1ccccc1

>  <score_type>  (7) 
oracle

>  <origin>  (7) 
adg

>  <m_score__min__energy>  (7) 
-8.2899999999999991

>  <m_primary>  (7) 
energy

$$$$
7:0
     RDKit          3D

 36 38  0  0  0  0  0  0  0  0999 V2000
   57.2100   31.2210   42.6730 C   0  0  0  0  0  0  0  0  0  0  0  0
   56.3140   30.3090   43.5030 C   0  0  0  0  0  0  0  0  0  0  0  0
   56.5890   30.4590   44.8970 O   0  0  0  0  0  0  0  0  0  0  0  0
   57.7650   30.0510   45.5550 C   0  0  0  0  0  0  0  0  0  0  0  0
   58.0340   28.6950   45.8210 C   0  0  0  0  0  0  0  0  0  0  0  0
   59.2140   28.3190   46.4560 C   0  0  0  0  0  0  0  0  0  0  0  0
   60.1400   29.2810   46.8530 C   0  0  0  0  0  0  0  0  0  0  0  0
   59.8940   30.6500   46.6340 C   0  0  0  0  0  0  0  0  0  0  0  0
   60.8180   31.6510   47.0420 C   0  0  0  0  0  0  0  0  0  0  0  0
   60.5940   32.9920   46.6670 C   0  0  0  0  0  0  0  0  0  0  0  0
   59.4220   33.3520   46.0060 C   0  0  0  0  0  0  0  0  0  0  0  0
   58.4800   32.3870   45.6590 C   0  0  0  0  0  0  0  0  0  0  0  0
   58.7060   31.0300   45.9470 C   0  0  0  0  0  0  0  0  0  0  0  0
   61.5210   33.9900   46.9840 O   0  0  0  0  0  0  0  0  0  0  0  0
   62.9050   33.9290   46.6230 C   0  0  0  0  0  0  0  0  0  0  0  0
   63.7340   33.0230   47.5420 C   0  0  0  0  0  0  0  0  0  0  0  0
   63.2010   31.6640   47.5510 N   0  0  0  0  0  0  0  0  0  0  0  0
   61.9910   31.3550   47.9160 C   0  0  0  0  0  0  0  0  0  0  0  0
   61.7880   30.8380   49.3100 C   0  0  0  0  0  0  0  0  0  0  0  0
   57.8213   31.8432   43.3432 H   0  0  0  0  0  0  0  0  0  0  0  0
   57.8683   30.6095   42.0384 H   0  0  0  0  0  0  0  0  0  0  0  0
   56.5870   31.8684   42.0384 H   0  0  0  0  0  0  0  0  0  0  0  0
   55.2618   30.5674   43.3132 H   0  0  0  0  0  0  0  0  0  0  0  0
   56.5101   29.2655   43.2154 H   0  0  0  0  0  0  0  0  0  0  0  0
   57.3054   27.9261   45.5244 H   0  0  0  0  0  0  0  0  0  0  0  0
   59.4169   27.2546   46.6457 H   0  0  0  0  0  0  0  0  0  0  0  0
   61.0737   28.9677   47.3430 H   0  0  0  0  0  0  0  0  0  0  0  0
   59.2390   34.4075   45.7560 H   0  0  0  0  0  0  0  0  0  0  0  0
   57.5503   32.6895   45.1548 H   0  0  0  0  0  0  0  0  0  0  0  0
   62.9807   33.5458   45.5947 H   0  0  0  0  0  0  0  0  0  0  0  0
   63.3109   34.9470   46.7178 H   0  0  0  0  0  0  0  0  0  0  0  0
   64.7735   33.0000   47.1830 H   0  0  0  0  0  0  0  0  0  0  0  0
   63.6902   33.4249   48.5650 H   0  0  0  0  0  0  0  0  0  0  0  0
   62.0905   31.6084   50.0345 H   0  0  0  0  0  0  0  0  0  0  0  0
   60.7263   30.5915   49.4587 H   0  0  0  0  0  0  0  0  0  0  0  0
   62.3983   29.9350   49.4587 H   0  0  0  0  0  0  0  0  0  0  0  0
  1  2  1  0
  2  3  1  0
  3  4  1  0
  4  5  2  0
  5  6  1  0
  6  7  2  0
  7  8  1  0
  8  9  2  0
  9 10  1  0
 10 11  2  0
 11 12  1  0
 12 13  2  0
 10 14  1  0
 14 15  1  0
 15 16  1  0
 16 17  1  0
 17 18  2  0
 18 19  1  0
 13  4  1  0
 13  8  1  0
 18  9  1  0
  1 20  1  0
  1 21  1  0
  1 22  1  0
  2 23  1  0
  2 24  1  0
  5 25  1  0
  6 26  1  0
  7 27  1  0
 11 28  1  0
 12 29  1  0
 15 30  1  0
 15 31  1  0
 16 32  1  0
 16 33  1  0
 19 34  1  0
 19 35  1  0
 19 36  1  0
M  END
>  <UniqueID>  (8) 
8

>  <SMILES>  (8) 
CCOc1cccc2c3c(ccc12)OCCN=C3C

>  <Energy>  (8) 
56.247220825214995

>  <Genealogy>  (8) 
CCOc1cccc2c3c(ccc12)OCCN=C3C (3D coordinates assigned)
CCOc1cccc2c3c(ccc12)OCCN=C3C (nonaromatic ring conformer: 56.247220825214995 kcal/mol)

>  <smiles>  (8) 
CCOc1cccc2c3c(ccc12)OCCN=C3C

>  <score_type>  (8) 
oracle

>  <origin>  (8) 
adg

>  <m_score__min__energy>  (8) 
-5.21

>  <m_primary>  (8) 
energy

$$$$
8:0
     RDKit          3D

 52 54  0  0  0  0  0  0  0  0999 V2000
   58.1650   30.7920   50.5950 C   0  0  0  0  0  0  0  0  0  0  0  0
   58.6260   32.2400   50.4840 C   0  0  0  0  0  0  0  0  0  0  0  0
   59.8010   32.3420   49.7160 O   0  0  0  0  0  0  0  0  0  0  0  0
   60.0860   34.0120   49.3640 S   0  0  0  0  0  0  0  0  0  0  0  0
   61.8870   33.8520   49.5590 C   0  0  0  0  0  0  0  0  0  0  0  0
   62.6880   33.8430   47.9230 S   0  0  0  0  0  0  0  0  0  0  0  0
   63.1800   32.0860   47.9960 C   0  0  0  0  0  0  0  0  0  0  0  0
   62.2090   31.2150   47.1950 C   0  0  0  0  0  0  0  0  0  0  0  0
   60.8210   31.3750   47.6630 N   0  0  0  0  0  0  0  0  0  0  0  0
   59.8820   31.1150   46.5870 C   0  0  0  0  0  0  0  0  0  0  0  0
   59.2650   32.1820   45.8880 C   0  0  0  0  0  0  0  0  0  0  0  0
   58.2520   31.9070   44.9470 C   0  0  0  0  0  0  0  0  0  0  0  0
   57.7940   30.6230   44.7640 N   0  0  0  0  0  0  0  0  0  0  0  0
   56.5220   30.3940   44.0490 C   0  0  0  0  0  0  0  0  0  0  0  0
   58.5260   29.5610   45.2530 C   0  0  0  0  0  0  0  0  0  0  0  0
   58.2730   28.2330   44.8240 C   0  0  0  0  0  0  0  0  0  0  0  0
   59.0090   27.1610   45.3210 C   0  0  0  0  0  0  0  0  0  0  0  0
   60.0250   27.3810   46.2400 C   0  0  0  0  0  0  0  0  0  0  0  0
   60.3200   28.6770   46.6640 C   0  0  0  0  0  0  0  0  0  0  0  0
   59.5810   29.7860   46.1840 C   0  0  0  0  0  0  0  0  0  0  0  0
   57.7670   33.0810   44.1070 C   0  0  0  0  0  0  0  0  0  0  0  0
   57.4100   34.2800   45.0000 C   0  0  0  0  0  0  0  0  0  0  0  0
   58.4360   34.5400   46.1280 C   0  0  0  0  0  0  0  0  0  0  0  0
   59.6780   33.6380   46.0470 C   0  0  0  0  0  0  0  0  0  0  0  0
   58.0770   30.5155   51.6560 H   0  0  0  0  0  0  0  0  0  0  0  0
   57.1868   30.6800   50.1045 H   0  0  0  0  0  0  0  0  0  0  0  0
   58.8984   30.1351   50.1045 H   0  0  0  0  0  0  0  0  0  0  0  0
   57.8325   32.8337   50.0066 H   0  0  0  0  0  0  0  0  0  0  0  0
   58.8369   32.6172   51.4956 H   0  0  0  0  0  0  0  0  0  0  0  0
   62.2672   34.7005   50.1468 H   0  0  0  0  0  0  0  0  0  0  0  0
   62.1131   32.9092   50.0787 H   0  0  0  0  0  0  0  0  0  0  0  0
   64.1913   31.9772   47.5772 H   0  0  0  0  0  0  0  0  0  0  0  0
   63.1626   31.7587   49.0460 H   0  0  0  0  0  0  0  0  0  0  0  0
   62.2632   31.5029   46.1347 H   0  0  0  0  0  0  0  0  0  0  0  0
   62.4984   30.1627   47.3328 H   0  0  0  0  0  0  0  0  0  0  0  0
   60.6630   32.3280   48.0550 H   0  0  0  0  0  0  0  0  0  0  0  0
   60.6380   30.7500   48.4780 H   0  0  0  0  0  0  0  0  0  0  0  0
   55.7121   30.2482   44.7790 H   0  0  0  0  0  0  0  0  0  0  0  0
   56.2941   31.2656   43.4178 H   0  0  0  0  0  0  0  0  0  0  0  0
   56.6124   29.4977   43.4178 H   0  0  0  0  0  0  0  0  0  0  0  0
   57.4802   28.0466   44.0846 H   0  0  0  0  0  0  0  0  0  0  0  0
   58.7848   26.1380   44.9846 H   0  0  0  0  0  0  0  0  0  0  0  0
   60.5998   26.5307   46.6356 H   0  0  0  0  0  0  0  0  0  0  0  0
   61.1380   28.8399   47.3812 H   0  0  0  0  0  0  0  0  0  0  0  0
   58.5624   33.3767   43.4071 H   0  0  0  0  0  0  0  0  0  0  0  0
   56.8671   32.7719   43.5551 H   0  0  0  0  0  0  0  0  0  0  0  0
   57.3524   35.1788   44.3685 H   0  0  0  0  0  0  0  0  0  0  0  0
   56.4505   34.0466   45.4846 H   0  0  0  0  0  0  0  0  0  0  0  0
   58.7626   35.5886   46.0667 H   0  0  0  0  0  0  0  0  0  0  0  0
   57.9339   34.3145   47.0804 H   0  0  0  0  0  0  0  0  0  0  0  0
   60.2886   33.9383   45.1827 H   0  0  0  0  0  0  0  0  0  0  0  0
   60.2589   33.7455   46.9749 H   0  0  0  0  0  0  0  0  0  0  0  0
  1  2  1  0
  2  3  1  0
  3  4  1  0
  4  5  1  0
  5  6  1  0
  6  7  1  0
  7  8  1  0
  8  9  1  0
  9 10  1  0
 10 11  2  0
 11 12  1  0
 12 13  2  0
 13 14  1  0
 13 15  1  0
 15 16  2  0
 16 17  1  0
 17 18  2  0
 18 19  1  0
 19 20  2  0
 12 21  1  0
 21 22  1  0
 22 23  1  0
 23 24  1  0
 20 10  1  0
 24 11  1  0
 20 15  1  0
  1 25  1  0
  1 26  1  0
  1 27  1  0
  2 28  1  0
  2 29  1  0
  5 30  1  0
  5 31  1  0
  7 32  1  0
  7 33  1  0
  8 34  1  0
  8 35  1  0
  9 36  1  0
  9 37  1  0
 14 38  1  0
 14 39  1  0
 14 40  1  0
 16 41  1  0
 17 42  1  0
 18 43  1  0
 19 44  1  0
 21 45  1  0
 21 46  1  0
 22 47  1  0
 22 48  1  0
 23 49  1  0
 23 50  1  0
 24 51  1  0
 24 52  1  0
M  CHG  2   9   1  13   1
M  END
>  <UniqueID>  (9) 
9

>  <SMILES>  (9) 
CCOSCSCC[NH2+]c1c2c([n+](C)c3ccccc13)CCCC2

>  <Energy>  (9) 
72.41505016992978

>  <Genealogy>  (9) 
CCOSCSCC[NH2+]c1c2c([n+](C)c3ccccc13)CCCC2 (protonated)
CCOSCSCC[NH2+]c1c2c([n+](C)c3ccccc13)CCCC2 (3D coordinates assigned)
CCOSCSCC[NH2+]c1c2c([n+](C)c3ccccc13)CCCC2 (nonaromatic ring conformer: 72.41505016992978 kcal/mol)

>  <smiles>  (9) 
CCOSCSCCNc1c2c([n+](C)c3ccccc13)CCCC2

>  <score_type>  (9) 
oracle

>  <origin>  (9) 
adg

>  <m_score__min__energy>  (9) 
-3.77

>  <m_primary>  (9) 
energy

$$$$
9:0
     RDKit          3D

 44 47  0  0  0  0  0  0  0  0999 V2000
   57.3920   20.7030   45.3140 C   0  0  0  0  0  0  0  0  0  0  0  0
   56.7180   20.8090   43.9490 C   0  0  0  0  0  0  0  0  0  0  0  0
   55.8650   21.9520   43.8940 O   0  0  0  0  0  0  0  0  0  0  0  0
   56.2260   23.2610   44.2570 C   0  0  0  0  0  0  0  0  0  0  0  0
   57.0400   23.9860   43.3800 C   0  0  0  0  0  0  0  0  0  0  0  0
   57.4350   25.2910   43.6880 C   0  0  0  0  0  0  0  0  0  0  0  0
   57.0270   25.8940   44.8910 C   0  0  0  0  0  0  0  0  0  0  0  0
   57.4270   27.2830   45.2300 C   0  0  0  0  0  0  0  0  0  0  0  0
   58.2290   27.5000   46.3170 N   0  0  0  0  0  0  0  0  0  0  0  0
   58.6360   28.7480   46.6900 C   0  0  0  0  0  0  0  0  0  0  0  0
   59.4570   28.9030   47.8600 N   0  0  0  0  0  0  0  0  0  0  0  0
   60.3070   27.7890   48.2910 C   0  0  0  0  0  0  0  0  0  0  0  0
   60.7900   28.0200   49.7210 C   0  0  0  0  0  0  0  0  0  0  0  0
   59.7050   28.4640   50.5060 O   0  0  0  0  0  0  0  0  0  0  0  0
   59.3680   29.8060   50.1820 C   0  0  0  0  0  0  0  0  0  0  0  0
   59.3950   30.1290   48.6680 C   0  0  0  0  0  0  0  0  0  0  0  0
   58.2280   29.8360   45.9080 C   0  0  0  0  0  0  0  0  0  0  0  0
   58.5710   31.1890   46.0430 C   0  0  0  0  0  0  0  0  0  0  0  0
   57.9980   31.9800   45.0510 C   0  0  0  0  0  0  0  0  0  0  0  0
   58.2270   33.8640   44.8750 Br  0  0  0  0  0  0  0  0  0  0  0  0
   57.0910   31.0200   43.9960 S   0  0  0  0  0  0  0  0  0  0  0  0
   57.4220   29.5920   44.8140 C   0  0  0  0  0  0  0  0  0  0  0  0
   57.0220   28.3450   44.4670 N   0  0  0  0  0  0  0  0  0  0  0  0
   56.2040   25.1670   45.7680 C   0  0  0  0  0  0  0  0  0  0  0  0
   55.8120   23.8620   45.4590 C   0  0  0  0  0  0  0  0  0  0  0  0
   56.6375   20.8217   46.1057 H   0  0  0  0  0  0  0  0  0  0  0  0
   57.8726   19.7182   45.4101 H   0  0  0  0  0  0  0  0  0  0  0  0
   58.1517   21.4927   45.4101 H   0  0  0  0  0  0  0  0  0  0  0  0
   57.4905   20.8974   43.1709 H   0  0  0  0  0  0  0  0  0  0  0  0
   56.1108   19.9068   43.7838 H   0  0  0  0  0  0  0  0  0  0  0  0
   57.3725   23.5244   42.4385 H   0  0  0  0  0  0  0  0  0  0  0  0
   58.0694   25.8501   42.9845 H   0  0  0  0  0  0  0  0  0  0  0  0
   59.7299   26.8535   48.2486 H   0  0  0  0  0  0  0  0  0  0  0  0
   61.1785   27.7219   47.6231 H   0  0  0  0  0  0  0  0  0  0  0  0
   61.1834   27.0794   50.1339 H   0  0  0  0  0  0  0  0  0  0  0  0
   61.5873   28.7778   49.7262 H   0  0  0  0  0  0  0  0  0  0  0  0
   58.3535   30.0053   50.5574 H   0  0  0  0  0  0  0  0  0  0  0  0
   60.1337   30.4418   50.6505 H   0  0  0  0  0  0  0  0  0  0  0  0
   58.4837   30.6858   48.4044 H   0  0  0  0  0  0  0  0  0  0  0  0
   60.2929   30.7285   48.4575 H   0  0  0  0  0  0  0  0  0  0  0  0
   59.2186   31.5805   46.8413 H   0  0  0  0  0  0  0  0  0  0  0  0
   56.4480   28.2160   43.6050 H   0  0  0  0  0  0  0  0  0  0  0  0
   55.8652   25.6298   46.7067 H   0  0  0  0  0  0  0  0  0  0  0  0
   55.1759   23.3016   46.1599 H   0  0  0  0  0  0  0  0  0  0  0  0
  1  2  1  0
  2  3  1  0
  3  4  1  0
  4  5  2  0
  5  6  1  0
  6  7  2  0
  7  8  1  0
  8  9  2  0
  9 10  1  0
 10 11  1  0
 11 12  1  0
 12 13  1  0
 13 14  1  0
 14 15  1  0
 15 16  1  0
 10 17  2  0
 17 18  1  0
 18 19  2  0
 19 20  1  0
 19 21  1  0
 21 22  1  0
 22 23  2  0
  7 24  1  0
 24 25  2  0
 25  4  1  0
 23  8  1  0
 16 11  1  0
 22 17  1  0
  1 26  1  0
  1 27  1  0
  1 28  1  0
  2 29  1  0
  2 30  1  0
  5 31  1  0
  6 32  1  0
 12 33  1  0
 12 34  1  0
 13 35  1  0
 13 36  1  0
 15 37  1  0
 15 38  1  0
 16 39  1  0
 16 40  1  0
 18 41  1  0
 23 42  1  0
 24 43  1  0
 25 44  1  0
M  CHG  1  23   1
M  END
>  <UniqueID>  (10) 
10

>  <SMILES>  (10) 
CCOc1ccc(-c2nc(N3CCOCC3)c3cc(Br)sc3[nH+]2)cc1

>  <Energy>  (10) 
92.52897592534475

>  <Genealogy>  (10) 
CCOc1ccc(-c2nc(N3CCOCC3)c3cc(Br)sc3[nH+]2)cc1 (protonated)
CCOc1ccc(-c2nc(N3CCOCC3)c3cc(Br)sc3[nH+]2)cc1 (3D coordinates assigned)
CCOc1ccc(-c2nc(N3CCOCC3)c3cc(Br)sc3[nH+]2)cc1 (nonaromatic ring conformer: 92.52897592534475 kcal/mol)

>  <smiles>  (10) 
CCOc1ccc(-c2nc(N3CCOCC3)c3cc(Br)sc3n2)cc1

>  <score_type>  (10) 
oracle

>  <origin>  (10) 
adg

>  <m_score__min__energy>  (10) 
-6.0199999999999996

>  <m_primary>  (10) 
energy

$$$$
10:0
     RDKit          3D

 39 40  0  0  0  0  0  0  0  0999 V2000
   63.4110   33.8290   49.7880 C   0  0  0  0  0  0  0  0  0  0  0  0
   64.3540   32.9490   48.9740 C   0  0  0  0  0  0  0  0  0  0  0  0
   63.8250   32.7290   47.6280 N   0  0  0  0  0  0  0  0  0  0  0  0
   62.4310   32.8120   47.2670 C   0  0  0  0  0  0  0  0  0  0  0  0
   62.0120   33.8270   46.3940 C   0  0  0  0  0  0  0  0  0  0  0  0
   60.6710   33.9370   46.0220 C   0  0  0  0  0  0  0  0  0  0  0  0
   59.7240   33.0370   46.5200 C   0  0  0  0  0  0  0  0  0  0  0  0
   58.0030   33.2180   46.0210 S   0  0  0  0  0  0  0  0  0  0  0  0
   58.1430   32.1510   44.5410 C   0  0  0  0  0  0  0  0  0  0  0  0
   57.4620   30.8230   44.7450 C   0  0  0  0  0  0  0  0  0  0  0  0
   56.2010   30.8030   44.7360 O   0  0  0  0  0  0  0  0  0  0  0  0
   58.1980   29.5890   44.9290 N   0  0  0  0  0  0  0  0  0  0  0  0
   57.4850   28.3100   44.7950 C   0  0  0  0  0  0  0  0  0  0  0  0
   58.2040   27.2070   45.5760 C   0  0  0  0  0  0  0  0  0  0  0  0
   59.5730   27.1590   45.2310 O   0  0  0  0  0  0  0  0  0  0  0  0
   60.2060   28.3510   45.6500 C   0  0  0  0  0  0  0  0  0  0  0  0
   59.6670   29.5570   44.8750 C   0  0  0  0  0  0  0  0  0  0  0  0
   60.1320   32.0030   47.3810 C   0  0  0  0  0  0  0  0  0  0  0  0
   58.9840   30.8290   48.0120 Cl  0  0  0  0  0  0  0  0  0  0  0  0
   61.4780   31.8940   47.7510 C   0  0  0  0  0  0  0  0  0  0  0  0
   63.5890   33.6629   50.8607 H   0  0  0  0  0  0  0  0  0  0  0  0
   63.5947   34.8860   49.5452 H   0  0  0  0  0  0  0  0  0  0  0  0
   62.3692   33.5727   49.5452 H   0  0  0  0  0  0  0  0  0  0  0  0
   65.3344   33.4423   48.9003 H   0  0  0  0  0  0  0  0  0  0  0  0
   64.4525   31.9763   49.4781 H   0  0  0  0  0  0  0  0  0  0  0  0
   64.5170   32.4920   46.8800 H   0  0  0  0  0  0  0  0  0  0  0  0
   62.7473   34.5432   45.9987 H   0  0  0  0  0  0  0  0  0  0  0  0
   60.3578   34.7358   45.3336 H   0  0  0  0  0  0  0  0  0  0  0  0
   57.6764   32.6634   43.6867 H   0  0  0  0  0  0  0  0  0  0  0  0
   59.2105   31.9636   44.3532 H   0  0  0  0  0  0  0  0  0  0  0  0
   56.4634   28.4230   45.1868 H   0  0  0  0  0  0  0  0  0  0  0  0
   57.4563   28.0301   43.7316 H   0  0  0  0  0  0  0  0  0  0  0  0
   58.1104   27.4083   46.6534 H   0  0  0  0  0  0  0  0  0  0  0  0
   57.7432   26.2400   45.3258 H   0  0  0  0  0  0  0  0  0  0  0  0
   60.0190   28.5000   46.7237 H   0  0  0  0  0  0  0  0  0  0  0  0
   61.2853   28.2627   45.4568 H   0  0  0  0  0  0  0  0  0  0  0  0
   60.0658   30.4807   45.3197 H   0  0  0  0  0  0  0  0  0  0  0  0
   59.9827   29.4749   43.8245 H   0  0  0  0  0  0  0  0  0  0  0  0
   61.7942   31.0846   48.4254 H   0  0  0  0  0  0  0  0  0  0  0  0
  1  2  1  0
  2  3  1  0
  3  4  1  0
  4  5  2  0
  5  6  1  0
  6  7  2  0
  7  8  1  0
  8  9  1  0
  9 10  1  0
 10 11  2  0
 10 12  1  0
 12 13  1  0
 13 14  1  0
 14 15  1  0
 15 16  1  0
 16 17  1  0
  7 18  1  0
 18 19  1  0
 18 20  2  0
 20  4  1  0
 17 12  1  0
  1 21  1  0
  1 22  1  0
  1 23  1  0
  2 24  1  0
  2 25  1  0
  3 26  1  0
  5 27  1  0
  6 28  1  0
  9 29  1  0
  9 30  1  0
 13 31  1  0
 13 32  1  0
 14 33  1  0
 14 34  1  0
 16 35  1  0
 16 36  1  0
 17 37  1  0
 17 38  1  0
 20 39  1  0
M  END
>  <UniqueID>  (11) 
11

>  <SMILES>  (11) 
CCNc1ccc(SCC(=O)N2CCOCC2)c(Cl)c1

>  <Energy>  (11) 
33.17626771318289

>  <Genealogy>  (11) 
CCNc1ccc(SCC(=O)N2CCOCC2)c(Cl)c1 (3D coordinates assigned)
CCNc1ccc(SCC(=O)N2CCOCC2)c(Cl)c1 (nonaromatic ring conformer: 33.17626771318289 kcal/mol)

>  <smiles>  (11) 
CCNc1ccc(SCC(=O)N2CCOCC2)c(Cl)c1

>  <score_type>  (11) 
oracle

>  <origin>  (11) 
adg

>  <m_score__min__energy>  (11) 
-7.0700000000000003

>  <m_primary>  (11) 
energy

$$$$
11:0
     RDKit          3D

 67 70  0  0  0  0  0  0  0  0999 V2000
   59.4681   27.8801   51.4953 H   0  0  0  0  0  0  0  0  0  0  0  0
   60.0120   28.8230   51.3370 C   0  0  0  0  0  0  0  0  0  0  0  0
   59.5180   29.6640   50.4010 C   0  0  0  0  0  0  0  0  0  0  0  0
   59.5290   29.5020   48.9820 C   0  0  0  0  0  0  0  0  0  0  0  0
   60.3930   28.1900   47.8760 Br  0  0  0  0  0  0  0  0  0  0  0  0
   58.9050   30.6520   48.5330 C   0  0  0  0  0  0  0  0  0  0  0  0
   58.5860   31.4030   49.5600 C   0  0  0  0  0  0  0  0  0  0  0  0
   58.3400   32.6770   49.2220 N   0  0  0  0  0  0  0  0  0  0  0  0
   58.4830   32.6130   47.8610 C   0  0  0  0  0  0  0  0  0  0  0  0
   58.3090   33.6820   47.0680 C   0  0  0  0  0  0  0  0  0  0  0  0
   57.4966   33.6743   46.3264 H   0  0  0  0  0  0  0  0  0  0  0  0
   61.2320   29.0530   52.1810 C   0  0  0  0  0  0  0  0  0  0  0  0
   61.0130   29.8366   52.9213 H   0  0  0  0  0  0  0  0  0  0  0  0
   61.4921   28.1078   52.6799 H   0  0  0  0  0  0  0  0  0  0  0  0
   59.7100   35.3210   45.7900 C   0  0  0  0  0  0  0  0  0  0  0  0
   60.8062   35.2325   45.7693 H   0  0  0  0  0  0  0  0  0  0  0  0
   59.4022   36.3622   45.6135 H   0  0  0  0  0  0  0  0  0  0  0  0
   59.1190   34.4480   44.6870 C   0  0  0  0  0  0  0  0  0  0  0  0
   58.5567   33.6174   45.1385 H   0  0  0  0  0  0  0  0  0  0  0  0
   58.4434   35.0521   44.0636 H   0  0  0  0  0  0  0  0  0  0  0  0
   59.9309   34.0451   44.0636 H   0  0  0  0  0  0  0  0  0  0  0  0
   58.8640   31.3750   47.4030 N   0  0  0  0  0  0  0  0  0  0  0  0
   59.2700   30.9880   46.0470 C   0  0  0  0  0  0  0  0  0  0  0  0
   59.7529   31.8465   45.5573 H   0  0  0  0  0  0  0  0  0  0  0  0
   59.9691   30.1418   46.1186 H   0  0  0  0  0  0  0  0  0  0  0  0
   58.0790   30.5590   45.2280 C   0  0  0  0  0  0  0  0  0  0  0  0
   57.3370   29.4230   45.5980 C   0  0  0  0  0  0  0  0  0  0  0  0
   57.6254   28.8473   46.4898 H   0  0  0  0  0  0  0  0  0  0  0  0
   56.2340   29.0220   44.8370 C   0  0  0  0  0  0  0  0  0  0  0  0
   55.6522   28.1379   45.1370 H   0  0  0  0  0  0  0  0  0  0  0  0
   55.8700   29.7420   43.6970 C   0  0  0  0  0  0  0  0  0  0  0  0
   55.0025   29.4246   43.0997 H   0  0  0  0  0  0  0  0  0  0  0  0
   56.6080   30.8660   43.3150 C   0  0  0  0  0  0  0  0  0  0  0  0
   56.3211   31.4319   42.4164 H   0  0  0  0  0  0  0  0  0  0  0  0
   57.7100   31.2720   44.0730 C   0  0  0  0  0  0  0  0  0  0  0  0
   58.2915   32.1534   43.7648 H   0  0  0  0  0  0  0  0  0  0  0  0
   58.9490   30.8690   50.7320 N   0  0  0  0  0  0  0  0  0  0  0  0
   58.8960   31.5280   52.0370 C   0  0  0  0  0  0  0  0  0  0  0  0
   58.9569   30.7710   52.8328 H   0  0  0  0  0  0  0  0  0  0  0  0
   59.7409   32.2263   52.1297 H   0  0  0  0  0  0  0  0  0  0  0  0
   57.9504   32.0823   52.1297 H   0  0  0  0  0  0  0  0  0  0  0  0
   59.1990   34.8900   47.1700 C   0  0  0  0  0  0  0  0  0  0  0  0
   60.0592   34.6486   47.8117 H   0  0  0  0  0  0  0  0  0  0  0  0
   58.6149   35.7175   47.5990 H   0  0  0  0  0  0  0  0  0  0  0  0
   62.4280   29.4940   51.3250 C   0  0  0  0  0  0  0  0  0  0  0  0
   63.3587   29.2905   51.8749 H   0  0  0  0  0  0  0  0  0  0  0  0
   62.4089   28.9322   50.3795 H   0  0  0  0  0  0  0  0  0  0  0  0
   62.3510   30.9990   51.0040 C   0  0  0  0  0  0  0  0  0  0  0  0
   61.3042   31.2642   50.7944 H   0  0  0  0  0  0  0  0  0  0  0  0
   62.7352   31.5519   51.8739 H   0  0  0  0  0  0  0  0  0  0  0  0
   63.1830   31.3610   49.8260 N   0  0  0  0  0  0  0  0  0  0  0  0
   63.9720   30.6730   49.7750 H   0  0  0  0  0  0  0  0  0  0  0  0
   62.4220   31.2660   48.5410 C   0  0  0  0  0  0  0  0  0  0  0  0
   63.0340   30.7051   47.8193 H   0  0  0  0  0  0  0  0  0  0  0  0
   61.4705   30.7665   48.7757 H   0  0  0  0  0  0  0  0  0  0  0  0
   62.0610   32.6280   47.9120 C   0  0  0  0  0  0  0  0  0  0  0  0
   62.9303   33.0086   47.3557 H   0  0  0  0  0  0  0  0  0  0  0  0
   61.2032   32.4855   47.2383 H   0  0  0  0  0  0  0  0  0  0  0  0
   61.6720   33.6430   48.9850 C   0  0  0  0  0  0  0  0  0  0  0  0
   61.4572   34.6080   48.5026 H   0  0  0  0  0  0  0  0  0  0  0  0
   60.7856   33.2624   49.5136 H   0  0  0  0  0  0  0  0  0  0  0  0
   62.7990   33.8390   50.0140 C   0  0  0  0  0  0  0  0  0  0  0  0
   63.3259   34.7766   49.7831 H   0  0  0  0  0  0  0  0  0  0  0  0
   62.3349   33.8651   51.0110 H   0  0  0  0  0  0  0  0  0  0  0  0
   63.8220   32.6860   50.0100 C   0  0  0  0  0  0  0  0  0  0  0  0
   64.5358   32.8505   49.1893 H   0  0  0  0  0  0  0  0  0  0  0  0
   64.3248   32.6817   50.9884 H   0  0  0  0  0  0  0  0  0  0  0  0
  1  2  1  0
  2  3  2  0
  3  4  1  0
  4  5  1  0
  4  6  2  0
  6  7  1  0
  7  8  2  0
  8  9  1  0
  9 10  2  0
 10 11  1  0
 10 12  1  0
 12 13  1  0
 12 14  1  0
 12 15  1  0
 15 16  1  0
 15 17  1  0
 15 18  1  0
 18 19  1  0
 18 20  1  0
 18 21  1  0
  9 22  1  0
 22 23  1  0
 23 24  1  0
 23 25  1  0
 23 26  1  0
 26 27  2  0
 27 28  1  0
 27 29  1  0
 29 30  1  0
 29 31  2  0
 31 32  1  0
 31 33  1  0
 33 34  1  0
 33 35  2  0
 35 36  1  0
  7 37  1  0
 37 38  1  0
 38 39  1  0
 38 40  1  0
 38 41  1  0
  2 42  1  0
 42 43  1  0
 42 44  1  0
 42 45  1  0
 45 46  1  0
 45 47  1  0
 45 48  1  0
 48 49  1  0
 48 50  1  0
 48 51  1  0
 51 52  1  0
 51 53  1  0
 53 54  1  0
 53 55  1  0
 53 56  1  0
 56 57  1  0
 56 58  1  0
 56 59  1  0
 59 60  1  0
 59 61  1  0
 59 62  1  0
 62 63  1  0
 62 64  1  0
 62 65  1  0
 65 66  1  0
 65 67  1  0
 37  3  1  0
 65 51  1  0
 22  6  1  0
 35 26  1  0
M  CHG  1  51   1
M  END
>  <UniqueID>  (12) 
12

>  <SMILES>  (12) 
CCC/C=c1\nc2c(c(Br)/c(=C\CCC[NH+]3CCCCC3)n2C)n1Cc1ccccc1

>  <Energy>  (12) 
161.35830514501765

>  <Genealogy>  (12) 
CCCC=c1nc2c(c(Br)c(=CCCC[NH+]3CCCCC3)n2C)n1Cc1ccccc1 (protonated)
CCC/C=c1\nc2c(c(Br)/c(=C\CCC[NH+]3CCCCC3)n2C)n1Cc1ccccc1 (cis-trans isomerization)
CCC/C=c1\nc2c(c(Br)/c(=C\CCC[NH+]3CCCCC3)n2C)n1Cc1ccccc1 (3D coordinates assigned)
CCC/C=c1\nc2c(c(Br)/c(=C\CCC[NH+]3CCCCC3)n2C)n1Cc1ccccc1 (nonaromatic ring conformer: 161.35830514501765 kcal/mol)

>  <smiles>  (12) 
CCCC=c1nc2c(c(Br)c(=CCCCN3CCCCC3)n2C)n1Cc1ccccc1

>  <score_type>  (12) 
oracle

>  <origin>  (12) 
adg

>  <m_score__min__energy>  (12) 
-7.4900000000000002

>  <m_primary>  (12) 
energy

$$$$
12:0
     RDKit          3D

 64 67  0  0  0  0  0  0  0  0999 V2000
   56.1720   29.6110   42.8210 C   0  0  0  0  0  0  0  0  0  0  0  0
   55.7100   30.0770   44.2020 C   0  0  0  0  0  0  0  0  0  0  0  0
   56.7220   30.9200   44.8690 N   0  0  0  0  0  0  0  0  0  0  0  0
   57.7700   31.4120   43.9620 C   0  0  0  0  0  0  0  0  0  0  0  0
   58.6440   32.5120   44.5950 C   0  0  0  0  0  0  0  0  0  0  0  0
   57.9610   33.1530   45.7410 N   0  0  0  0  0  0  0  0  0  0  0  0
   58.2930   34.5880   45.8540 C   0  0  0  0  0  0  0  0  0  0  0  0
   59.7650   34.8170   46.2570 C   0  0  0  0  0  0  0  0  0  0  0  0
   60.3180   33.6640   46.9990 N   0  0  0  0  0  0  0  0  0  0  0  0
   61.6050   33.9610   47.6650 C   0  0  0  0  0  0  0  0  0  0  0  0
   62.8450   33.8060   46.7570 C   0  0  0  0  0  0  0  0  0  0  0  0
   63.5100   32.5170   47.0020 N   0  0  0  0  0  0  0  0  0  0  0  0
   62.9330   31.8570   48.1650 C   0  0  0  0  0  0  0  0  0  0  0  0
   61.8670   30.9310   48.0150 C   0  0  0  0  0  0  0  0  0  0  0  0
   61.2380   30.7140   46.7630 C   0  0  0  0  0  0  0  0  0  0  0  0
   60.2660   29.7320   46.6060 C   0  0  0  0  0  0  0  0  0  0  0  0
   59.8970   28.9410   47.6820 C   0  0  0  0  0  0  0  0  0  0  0  0
   60.4580   29.1650   48.9370 C   0  0  0  0  0  0  0  0  0  0  0  0
   61.4080   30.1990   49.1460 C   0  0  0  0  0  0  0  0  0  0  0  0
   61.8870   30.4880   50.4080 N   0  0  0  0  0  0  0  0  0  0  0  0
   61.1960   29.9450   51.6020 C   0  0  0  0  0  0  0  0  0  0  0  0
   62.9710   31.3280   50.5650 C   0  0  0  0  0  0  0  0  0  0  0  0
   63.6290   31.4550   51.8170 C   0  0  0  0  0  0  0  0  0  0  0  0
   64.6600   32.3720   52.0010 C   0  0  0  0  0  0  0  0  0  0  0  0
   65.0670   33.1800   50.9510 C   0  0  0  0  0  0  0  0  0  0  0  0
   64.4830   33.0400   49.6940 C   0  0  0  0  0  0  0  0  0  0  0  0
   63.4660   32.0800   49.4620 C   0  0  0  0  0  0  0  0  0  0  0  0
   59.3170   33.0380   47.8760 C   0  0  0  0  0  0  0  0  0  0  0  0
   58.1830   32.4340   47.0240 C   0  0  0  0  0  0  0  0  0  0  0  0
   56.9423   28.8340   42.9349 H   0  0  0  0  0  0  0  0  0  0  0  0
   55.3152   29.1995   42.2673 H   0  0  0  0  0  0  0  0  0  0  0  0
   56.5909   30.4642   42.2673 H   0  0  0  0  0  0  0  0  0  0  0  0
   54.7827   30.6579   44.0889 H   0  0  0  0  0  0  0  0  0  0  0  0
   55.5475   29.1848   44.8246 H   0  0  0  0  0  0  0  0  0  0  0  0
   56.2960   31.7170   45.4000 H   0  0  0  0  0  0  0  0  0  0  0  0
   58.4169   30.5674   43.6824 H   0  0  0  0  0  0  0  0  0  0  0  0
   57.2690   31.8516   43.0869 H   0  0  0  0  0  0  0  0  0  0  0  0
   59.5856   32.0636   44.9449 H   0  0  0  0  0  0  0  0  0  0  0  0
   58.8370   33.2815   43.8330 H   0  0  0  0  0  0  0  0  0  0  0  0
   58.1128   35.0707   44.8821 H   0  0  0  0  0  0  0  0  0  0  0  0
   57.6569   35.0204   46.6404 H   0  0  0  0  0  0  0  0  0  0  0  0
   60.3627   34.9744   45.3471 H   0  0  0  0  0  0  0  0  0  0  0  0
   59.8058   35.6977   46.9148 H   0  0  0  0  0  0  0  0  0  0  0  0
   61.5726   34.9986   48.0286 H   0  0  0  0  0  0  0  0  0  0  0  0
   61.7158   33.2254   48.4753 H   0  0  0  0  0  0  0  0  0  0  0  0
   62.5303   33.8558   45.7042 H   0  0  0  0  0  0  0  0  0  0  0  0
   63.5524   34.6177   46.9822 H   0  0  0  0  0  0  0  0  0  0  0  0
   63.4530   31.9110   46.1560 H   0  0  0  0  0  0  0  0  0  0  0  0
   64.5390   32.6510   47.1200 H   0  0  0  0  0  0  0  0  0  0  0  0
   61.5240   31.3336   45.9003 H   0  0  0  0  0  0  0  0  0  0  0  0
   59.7893   29.5830   45.6259 H   0  0  0  0  0  0  0  0  0  0  0  0
   59.1605   28.1355   47.5450 H   0  0  0  0  0  0  0  0  0  0  0  0
   60.1591   28.5283   49.7827 H   0  0  0  0  0  0  0  0  0  0  0  0
   61.6818   30.3268   52.5121 H   0  0  0  0  0  0  0  0  0  0  0  0
   60.1418   30.2589   51.5899 H   0  0  0  0  0  0  0  0  0  0  0  0
   61.2517   28.8465   51.5899 H   0  0  0  0  0  0  0  0  0  0  0  0
   63.3181   30.8167   52.6572 H   0  0  0  0  0  0  0  0  0  0  0  0
   65.1524   32.4555   52.9811 H   0  0  0  0  0  0  0  0  0  0  0  0
   65.8526   33.9332   51.1105 H   0  0  0  0  0  0  0  0  0  0  0  0
   64.8165   33.6851   48.8678 H   0  0  0  0  0  0  0  0  0  0  0  0
   59.7947   32.2418   48.4658 H   0  0  0  0  0  0  0  0  0  0  0  0
   58.8988   33.7987   48.5516 H   0  0  0  0  0  0  0  0  0  0  0  0
   58.4361   31.3876   46.7980 H   0  0  0  0  0  0  0  0  0  0  0  0
   57.2557   32.5204   47.6094 H   0  0  0  0  0  0  0  0  0  0  0  0
  1  2  1  0
  2  3  1  0
  3  4  1  0
  4  5  1  0
  5  6  1  0
  6  7  1  0
  7  8  1  0
  8  9  1  0
  9 10  1  0
 10 11  1  0
 11 12  1  0
 12 13  1  0
 13 14  1  0
 14 15  2  0
 15 16  1  0
 16 17  2  0
 17 18  1  0
 18 19  2  0
 19 20  1  0
 20 21  1  0
 20 22  2  0
 22 23  1  0
 23 24  2  0
 24 25  1  0
 25 26  2  0
 26 27  1  0
  9 28  1  0
 28 29  1  0
 29  6  1  0
 27 13  2  0
 19 14  1  0
 27 22  1  0
  1 30  1  0
  1 31  1  0
  1 32  1  0
  2 33  1  0
  2 34  1  0
  3 35  1  0
  4 36  1  0
  4 37  1  0
  5 38  1  0
  5 39  1  0
  7 40  1  0
  7 41  1  0
  8 42  1  0
  8 43  1  0
 10 44  1  0
 10 45  1  0
 11 46  1  0
 11 47  1  0
 12 48  1  0
 12 49  1  0
 15 50  1  0
 16 51  1  0
 17 52  1  0
 18 53  1  0
 21 54  1  0
 21 55  1  0
 21 56  1  0
 23 57  1  0
 24 58  1  0
 25 59  1  0
 26 60  1  0
 28 61  1  0
 28 62  1  0
 29 63  1  0
 29 64  1  0
M  CHG  2  12   1  20   1
M  END
>  <UniqueID>  (13) 
13

>  <SMILES>  (13) 
CCNCCN1CCN(CC[NH2+]c2c3ccccc3[n+](C)c3ccccc23)CC1

>  <Energy>  (13) 
107.75833930705036

>  <Genealogy>  (13) 
CCNCCN1CCN(CC[NH2+]c2c3ccccc3[n+](C)c3ccccc23)CC1 (protonated)
CCNCCN1CCN(CC[NH2+]c2c3ccccc3[n+](C)c3ccccc23)CC1 (3D coordinates assigned)
CCNCCN1CCN(CC[NH2+]c2c3ccccc3[n+](C)c3ccccc23)CC1 (nonaromatic ring conformer: 107.75833930705036 kcal/mol)

>  <smiles>  (13) 
CCNCCN1CCN(CCNc2c3ccccc3[n+](C)c3ccccc23)CC1

>  <score_type>  (13) 
oracle

>  <origin>  (13) 
adg

>  <m_score__min__energy>  (13) 
-5.8300000000000001

>  <m_primary>  (13) 
energy

$$$$
13:0
     RDKit          3D

 57 59  0  0  0  0  0  0  0  0999 V2000
   60.0520   29.1120   48.8030 C   0  0  0  0  0  0  0  0  0  0  0  0
   60.2830   29.5200   47.3510 C   0  0  0  0  0  0  0  0  0  0  0  0
   59.0520   30.0770   46.7720 N   0  0  0  0  0  0  0  0  0  0  0  0
   58.1000   29.0170   46.4120 C   0  0  0  0  0  0  0  0  0  0  0  0
   57.7790   29.0710   44.9140 C   0  0  0  0  0  0  0  0  0  0  0  0
   57.0390   30.3590   44.5340 C   0  0  0  0  0  0  0  0  0  0  0  0
   57.3560   31.3890   45.4510 O   0  0  0  0  0  0  0  0  0  0  0  0
   57.4690   32.6310   44.7850 C   0  0  0  0  0  0  0  0  0  0  0  0
   57.0780   33.7620   45.7350 C   0  0  0  0  0  0  0  0  0  0  0  0
   58.0760   33.9030   46.8970 C   0  0  0  0  0  0  0  0  0  0  0  0
   58.7680   32.6350   47.1980 N   0  0  0  0  0  0  0  0  0  0  0  0
   59.7580   32.7910   48.2590 C   0  0  0  0  0  0  0  0  0  0  0  0
   61.0950   33.1940   47.9730 C   0  0  0  0  0  0  0  0  0  0  0  0
   61.5360   33.4850   46.6540 C   0  0  0  0  0  0  0  0  0  0  0  0
   62.8660   33.7980   46.3880 C   0  0  0  0  0  0  0  0  0  0  0  0
   63.7950   33.8210   47.4150 C   0  0  0  0  0  0  0  0  0  0  0  0
   63.3920   33.5790   48.7230 C   0  0  0  0  0  0  0  0  0  0  0  0
   62.0340   33.3110   49.0400 C   0  0  0  0  0  0  0  0  0  0  0  0
   61.6290   33.1560   50.3480 N   0  0  0  0  0  0  0  0  0  0  0  0
   62.5110   33.6040   51.4520 C   0  0  0  0  0  0  0  0  0  0  0  0
   60.3890   32.6260   50.6330 C   0  0  0  0  0  0  0  0  0  0  0  0
   60.0590   32.1960   51.9450 C   0  0  0  0  0  0  0  0  0  0  0  0
   58.7850   31.7310   52.2560 C   0  0  0  0  0  0  0  0  0  0  0  0
   57.8090   31.6730   51.2730 C   0  0  0  0  0  0  0  0  0  0  0  0
   56.1950   31.1110   51.6760 Cl  0  0  0  0  0  0  0  0  0  0  0  0
   58.1140   32.0390   49.9630 C   0  0  0  0  0  0  0  0  0  0  0  0
   59.4140   32.4860   49.6070 C   0  0  0  0  0  0  0  0  0  0  0  0
   60.4827   29.8728   49.4706 H   0  0  0  0  0  0  0  0  0  0  0  0
   58.9718   29.0271   48.9926 H   0  0  0  0  0  0  0  0  0  0  0  0
   60.5349   28.1420   48.9926 H   0  0  0  0  0  0  0  0  0  0  0  0
   61.0782   30.2789   47.3101 H   0  0  0  0  0  0  0  0  0  0  0  0
   60.5779   28.6313   46.7738 H   0  0  0  0  0  0  0  0  0  0  0  0
   59.3140   30.5790   45.8910 H   0  0  0  0  0  0  0  0  0  0  0  0
   58.5399   28.0380   46.6531 H   0  0  0  0  0  0  0  0  0  0  0  0
   57.1703   29.1650   46.9810 H   0  0  0  0  0  0  0  0  0  0  0  0
   58.7200   29.0209   44.3466 H   0  0  0  0  0  0  0  0  0  0  0  0
   57.1257   28.2191   44.6744 H   0  0  0  0  0  0  0  0  0  0  0  0
   57.3405   30.6670   43.5220 H   0  0  0  0  0  0  0  0  0  0  0  0
   55.9551   30.1734   44.5607 H   0  0  0  0  0  0  0  0  0  0  0  0
   58.5079   32.7748   44.4532 H   0  0  0  0  0  0  0  0  0  0  0  0
   56.7984   32.6393   43.9131 H   0  0  0  0  0  0  0  0  0  0  0  0
   57.0513   34.7066   45.1720 H   0  0  0  0  0  0  0  0  0  0  0  0
   56.0908   33.5263   46.1590 H   0  0  0  0  0  0  0  0  0  0  0  0
   58.8269   34.6606   46.6284 H   0  0  0  0  0  0  0  0  0  0  0  0
   57.5099   34.1982   47.7928 H   0  0  0  0  0  0  0  0  0  0  0  0
   58.0650   31.9160   47.4750 H   0  0  0  0  0  0  0  0  0  0  0  0
   59.1540   32.2200   46.3250 H   0  0  0  0  0  0  0  0  0  0  0  0
   60.8118   33.4625   45.8264 H   0  0  0  0  0  0  0  0  0  0  0  0
   63.1801   34.0277   45.3591 H   0  0  0  0  0  0  0  0  0  0  0  0
   64.8522   34.0309   47.1954 H   0  0  0  0  0  0  0  0  0  0  0  0
   64.1403   33.5954   49.5291 H   0  0  0  0  0  0  0  0  0  0  0  0
   62.0405   33.3650   52.4172 H   0  0  0  0  0  0  0  0  0  0  0  0
   63.4802   33.0889   51.3790 H   0  0  0  0  0  0  0  0  0  0  0  0
   62.6667   34.6905   51.3790 H   0  0  0  0  0  0  0  0  0  0  0  0
   60.8265   32.2311   52.7322 H   0  0  0  0  0  0  0  0  0  0  0  0
   58.5522   31.4094   53.2818 H   0  0  0  0  0  0  0  0  0  0  0  0
   57.3330   31.9805   49.1905 H   0  0  0  0  0  0  0  0  0  0  0  0
  1  2  1  0
  2  3  1  0
  3  4  1  0
  4  5  1  0
  5  6  1  0
  6  7  1  0
  7  8  1  0
  8  9  1  0
  9 10  1  0
 10 11  1  0
 11 12  1  0
 12 13  2  0
 13 14  1  0
 14 15  2  0
 15 16  1  0
 16 17  2  0
 17 18  1  0
 18 19  2  0
 19 20  1  0
 19 21  1  0
 21 22  2  0
 22 23  1  0
 23 24  2  0
 24 25  1  0
 24 26  1  0
 26 27  2  0
 27 12  1  0
 18 13  1  0
 27 21  1  0
  1 28  1  0
  1 29  1  0
  1 30  1  0
  2 31  1  0
  2 32  1  0
  3 33  1  0
  4 34  1  0
  4 35  1  0
  5 36  1  0
  5 37  1  0
  6 38  1  0
  6 39  1  0
  8 40  1  0
  8 41  1  0
  9 42  1  0
  9 43  1  0
 10 44  1  0
 10 45  1  0
 11 46  1  0
 11 47  1  0
 14 48  1  0
 15 49  1  0
 16 50  1  0
 17 51  1  0
 20 52  1  0
 20 53  1  0
 20 54  1  0
 22 55  1  0
 23 56  1  0
 26 57  1  0
M  CHG  2  11   1  19   1
M  END
>  <UniqueID>  (14) 
14

>  <SMILES>  (14) 
CCNCCCOCCC[NH2+]c1c2ccccc2[n+](C)c2ccc(Cl)cc12

>  <Energy>  (14) 
79.81692329513433

>  <Genealogy>  (14) 
CCNCCCOCCC[NH2+]c1c2ccccc2[n+](C)c2ccc(Cl)cc12 (protonated)
CCNCCCOCCC[NH2+]c1c2ccccc2[n+](C)c2ccc(Cl)cc12 (3D coordinates assigned)
CCNCCCOCCC[NH2+]c1c2ccccc2[n+](C)c2ccc(Cl)cc12 (optimized conformer: 79.81692329513433 kcal/mol)

>  <smiles>  (14) 
CCNCCCOCCCNc1c2ccccc2[n+](C)c2ccc(Cl)cc12

>  <score_type>  (14) 
oracle

>  <origin>  (14) 
adg

>  <m_score__min__energy>  (14) 
-3.4500000000000002

>  <m_primary>  (14) 
energy

$$$$
14:0
     RDKit          3D

 50 52  0  0  0  0  0  0  0  0999 V2000
   59.8230   28.5700   45.2530 C   0  0  0  0  0  0  0  0  0  0  0  0
   58.3260   28.6720   45.5520 C   0  0  0  0  0  0  0  0  0  0  0  0
   57.6340   29.3450   44.4450 N   0  0  0  0  0  0  0  0  0  0  0  0
   57.0200   28.6840   43.4730 N   0  0  0  0  0  0  0  0  0  0  0  0
   56.4590   29.5630   42.6260 C   0  0  0  0  0  0  0  0  0  0  0  0
   56.7210   30.8410   43.0800 C   0  0  0  0  0  0  0  0  0  0  0  0
   57.4660   30.6740   44.2390 C   0  0  0  0  0  0  0  0  0  0  0  0
   57.9750   31.7770   45.0950 C   0  0  0  0  0  0  0  0  0  0  0  0
   57.1390   32.8300   45.4820 C   0  0  0  0  0  0  0  0  0  0  0  0
   57.6570   33.8320   46.3040 C   0  0  0  0  0  0  0  0  0  0  0  0
   58.9490   33.7770   46.7130 N   0  0  0  0  0  0  0  0  0  0  0  0
   59.7600   32.7540   46.3330 C   0  0  0  0  0  0  0  0  0  0  0  0
   61.1360   32.7220   46.7660 N   0  0  0  0  0  0  0  0  0  0  0  0
   61.7490   31.4410   47.1570 C   0  0  0  0  0  0  0  0  0  0  0  0
   63.2820   31.5470   47.2000 C   0  0  0  0  0  0  0  0  0  0  0  0
   63.7880   32.7280   48.0720 C   0  0  0  0  0  0  0  0  0  0  0  0
   64.2360   32.2890   49.4860 C   0  0  0  0  0  0  0  0  0  0  0  0
   65.3380   33.1420   49.9960 N   0  0  0  0  0  0  0  0  0  0  0  0
   66.5790   32.3770   50.2040 C   0  0  0  0  0  0  0  0  0  0  0  0
   64.9690   33.7900   51.2650 C   0  0  0  0  0  0  0  0  0  0  0  0
   62.7930   33.9140   48.1210 C   0  0  0  0  0  0  0  0  0  0  0  0
   61.9190   33.9650   46.8690 C   0  0  0  0  0  0  0  0  0  0  0  0
   59.2610   31.7680   45.5340 N   0  0  0  0  0  0  0  0  0  0  0  0
   60.3840   28.5318   46.1984 H   0  0  0  0  0  0  0  0  0  0  0  0
   60.0196   27.6564   44.6728 H   0  0  0  0  0  0  0  0  0  0  0  0
   60.1417   29.4485   44.6728 H   0  0  0  0  0  0  0  0  0  0  0  0
   57.9109   27.6613   45.6795 H   0  0  0  0  0  0  0  0  0  0  0  0
   58.1822   29.2552   46.4736 H   0  0  0  0  0  0  0  0  0  0  0  0
   56.9810   27.6440   43.3840 H   0  0  0  0  0  0  0  0  0  0  0  0
   55.8866   29.3077   41.7220 H   0  0  0  0  0  0  0  0  0  0  0  0
   56.4061   31.7895   42.6206 H   0  0  0  0  0  0  0  0  0  0  0  0
   56.0927   32.8675   45.1446 H   0  0  0  0  0  0  0  0  0  0  0  0
   57.0161   34.6680   46.6208 H   0  0  0  0  0  0  0  0  0  0  0  0
   61.3811   31.1570   48.1540 H   0  0  0  0  0  0  0  0  0  0  0  0
   61.4737   30.6815   46.4104 H   0  0  0  0  0  0  0  0  0  0  0  0
   63.6861   30.6102   47.6113 H   0  0  0  0  0  0  0  0  0  0  0  0
   63.6267   31.7284   46.1713 H   0  0  0  0  0  0  0  0  0  0  0  0
   64.6894   33.0981   47.5617 H   0  0  0  0  0  0  0  0  0  0  0  0
   63.3792   32.3638   50.1718 H   0  0  0  0  0  0  0  0  0  0  0  0
   64.6004   31.2528   49.4267 H   0  0  0  0  0  0  0  0  0  0  0  0
   66.7633   32.2634   51.2825 H   0  0  0  0  0  0  0  0  0  0  0  0
   66.4791   31.3835   49.7424 H   0  0  0  0  0  0  0  0  0  0  0  0
   67.4216   32.9126   49.7424 H   0  0  0  0  0  0  0  0  0  0  0  0
   65.3195   33.1744   52.1065 H   0  0  0  0  0  0  0  0  0  0  0  0
   65.4363   34.7844   51.3184 H   0  0  0  0  0  0  0  0  0  0  0  0
   63.8754   33.8955   51.3184 H   0  0  0  0  0  0  0  0  0  0  0  0
   62.1464   33.8016   49.0037 H   0  0  0  0  0  0  0  0  0  0  0  0
   63.3720   34.8477   48.1754 H   0  0  0  0  0  0  0  0  0  0  0  0
   61.2356   34.8245   46.9336 H   0  0  0  0  0  0  0  0  0  0  0  0
   62.5579   34.0706   45.9798 H   0  0  0  0  0  0  0  0  0  0  0  0
  1  2  1  0
  2  3  1  0
  3  4  1  0
  4  5  2  0
  5  6  1  0
  6  7  2  0
  7  8  1  0
  8  9  2  0
  9 10  1  0
 10 11  2  0
 11 12  1  0
 12 13  1  0
 13 14  1  0
 14 15  1  0
 15 16  1  0
 16 17  1  0
 17 18  1  0
 18 19  1  0
 18 20  1  0
 16 21  1  0
 21 22  1  0
 12 23  2  0
  7  3  1  0
 23  8  1  0
 22 13  1  0
  1 24  1  0
  1 25  1  0
  1 26  1  0
  2 27  1  0
  2 28  1  0
  4 29  1  0
  5 30  1  0
  6 31  1  0
  9 32  1  0
 10 33  1  0
 14 34  1  0
 14 35  1  0
 15 36  1  0
 15 37  1  0
 16 38  1  0
 17 39  1  0
 17 40  1  0
 19 41  1  0
 19 42  1  0
 19 43  1  0
 20 44  1  0
 20 45  1  0
 20 46  1  0
 21 47  1  0
 21 48  1  0
 22 49  1  0
 22 50  1  0
M  CHG  1   4   1
M  END
>  <UniqueID>  (15) 
15

>  <SMILES>  (15) 
CCn1[nH+]ccc1-c1ccnc(N2CCC(CN(C)C)CC2)n1

>  <Energy>  (15) 
85.69990630716096

>  <Genealogy>  (15) 
CCn1[nH+]ccc1-c1ccnc(N2CCC(CN(C)C)CC2)n1 (protonated)
CCn1[nH+]ccc1-c1ccnc(N2CCC(CN(C)C)CC2)n1 (3D coordinates assigned)
CCn1[nH+]ccc1-c1ccnc(N2CCC(CN(C)C)CC2)n1 (nonaromatic ring conformer: 85.69990630716096 kcal/mol)

>  <smiles>  (15) 
CCn1nccc1-c1ccnc(N2CCC(CN(C)C)CC2)n1

>  <score_type>  (15) 
oracle

>  <origin>  (15) 
adg

>  <m_score__min__energy>  (15) 
-6.71

>  <m_primary>  (15) 
energy

$$$$
15:0
     RDKit          3D

 34 36  0  0  0  0  0  0  0  0999 V2000
   62.3120   32.7090   47.3700 C   0  0  0  0  0  0  0  0  0  0  0  0
   60.9830   32.2630   46.9640 N   0  0  0  0  0  0  0  0  0  0  0  0
   60.4610   31.0270   47.1480 C   0  0  0  0  0  0  0  0  0  0  0  0
   59.1570   30.9810   46.6630 C   0  0  0  0  0  0  0  0  0  0  0  0
   58.2320   29.8030   46.7310 C   0  0  0  0  0  0  0  0  0  0  0  0
   58.3010   29.0240   45.4760 N   0  0  0  0  0  0  0  0  0  0  0  0
   57.6600   29.7240   44.3410 C   0  0  0  0  0  0  0  0  0  0  0  0
   56.1480   29.8990   44.5500 C   0  0  0  0  0  0  0  0  0  0  0  0
   55.5290   28.6400   44.9480 N   0  0  0  0  0  0  0  0  0  0  0  0
   56.2650   27.6160   45.6160 C   0  0  0  0  0  0  0  0  0  0  0  0
   55.6550   26.6360   46.1190 O   0  0  0  0  0  0  0  0  0  0  0  0
   57.7680   27.6520   45.6280 C   0  0  0  0  0  0  0  0  0  0  0  0
   58.8860   32.2510   46.1840 C   0  0  0  0  0  0  0  0  0  0  0  0
   57.7320   32.7940   45.6140 C   0  0  0  0  0  0  0  0  0  0  0  0
   57.7610   34.1480   45.2370 C   0  0  0  0  0  0  0  0  0  0  0  0
   58.9230   34.9230   45.4380 C   0  0  0  0  0  0  0  0  0  0  0  0
   60.0700   34.3520   46.0190 C   0  0  0  0  0  0  0  0  0  0  0  0
   60.0180   33.0040   46.3820 C   0  0  0  0  0  0  0  0  0  0  0  0
   62.3724   32.7293   48.4682 H   0  0  0  0  0  0  0  0  0  0  0  0
   63.0684   32.0155   46.9739 H   0  0  0  0  0  0  0  0  0  0  0  0
   62.4969   33.7184   46.9739 H   0  0  0  0  0  0  0  0  0  0  0  0
   60.9904   30.1823   47.6130 H   0  0  0  0  0  0  0  0  0  0  0  0
   58.5247   29.1598   47.5740 H   0  0  0  0  0  0  0  0  0  0  0  0
   57.2025   30.1638   46.8724 H   0  0  0  0  0  0  0  0  0  0  0  0
   58.1202   30.7170   44.2311 H   0  0  0  0  0  0  0  0  0  0  0  0
   57.8089   29.1132   43.4384 H   0  0  0  0  0  0  0  0  0  0  0  0
   55.9775   30.6488   45.3366 H   0  0  0  0  0  0  0  0  0  0  0  0
   55.6977   30.2280   43.6018 H   0  0  0  0  0  0  0  0  0  0  0  0
   58.1236   27.2388   46.5834 H   0  0  0  0  0  0  0  0  0  0  0  0
   58.1244   27.0574   44.7739 H   0  0  0  0  0  0  0  0  0  0  0  0
   56.8301   32.1821   45.4650 H   0  0  0  0  0  0  0  0  0  0  0  0
   56.8710   34.6069   44.7818 H   0  0  0  0  0  0  0  0  0  0  0  0
   58.9320   35.9813   45.1382 H   0  0  0  0  0  0  0  0  0  0  0  0
   60.9796   34.9485   46.1824 H   0  0  0  0  0  0  0  0  0  0  0  0
  1  2  1  0
  2  3  1  0
  3  4  2  0
  4  5  1  0
  5  6  1  0
  6  7  1  0
  7  8  1  0
  8  9  1  0
  9 10  1  0
 10 11  2  0
 10 12  1  0
  4 13  1  0
 13 14  2  0
 14 15  1  0
 15 16  2  0
 16 17  1  0
 17 18  2  0
 18  2  1  0
 12  6  1  0
 18 13  1  0
  1 19  1  0
  1 20  1  0
  1 21  1  0
  3 22  1  0
  5 23  1  0
  5 24  1  0
  7 25  1  0
  7 26  1  0
  8 27  1  0
  8 28  1  0
 12 29  1  0
 12 30  1  0
 14 31  1  0
 15 32  1  0
 16 33  1  0
 17 34  1  0
M  CHG  1   9  -1
M  END
>  <UniqueID>  (16) 
16

>  <SMILES>  (16) 
Cn1cc(CN2CC[N-]C(=O)C2)c2ccccc21

>  <Energy>  (16) 
71.8742154301509

>  <Genealogy>  (16) 
Cn1cc(CN2CC[N-]C(=O)C2)c2ccccc21 (protonated)
Cn1cc(CN2CC[N-]C(=O)C2)c2ccccc21 (3D coordinates assigned)
Cn1cc(CN2CC[N-]C(=O)C2)c2ccccc21 (nonaromatic ring conformer: 71.8742154301509 kcal/mol)

>  <smiles>  (16) 
Cn1cc(CN2CCNC(=O)C2)c2ccccc21

>  <score_type>  (16) 
oracle

>  <origin>  (16) 
adg

>  <m_score__min__energy>  (16) 
-9.0899999999999999

>  <m_primary>  (16) 
energy

$$$$
16:0
     RDKit          3D

 46 48  0  0  0  0  0  0  0  0999 V2000
   63.3830   33.6050   46.7540 C   0  0  0  0  0  0  0  0  0  0  0  0
   62.9090   33.8390   48.1840 C   0  0  0  0  0  0  0  0  0  0  0  0
   62.0670   32.7800   48.6010 O   0  0  0  0  0  0  0  0  0  0  0  0
   62.6390   31.5330   48.2670 C   0  0  0  0  0  0  0  0  0  0  0  0
   61.5170   30.5370   47.9580 C   0  0  0  0  0  0  0  0  0  0  0  0
   60.1750   31.1170   48.1630 N   0  0  0  0  0  0  0  0  0  0  0  0
   59.4160   31.1970   46.9200 C   0  0  0  0  0  0  0  0  0  0  0  0
   59.2510   32.4510   46.2650 C   0  0  0  0  0  0  0  0  0  0  0  0
   59.8280   33.6430   46.7770 C   0  0  0  0  0  0  0  0  0  0  0  0
   59.5980   34.8760   46.1720 C   0  0  0  0  0  0  0  0  0  0  0  0
   58.7850   34.9590   45.0520 C   0  0  0  0  0  0  0  0  0  0  0  0
   58.2320   33.8060   44.5050 C   0  0  0  0  0  0  0  0  0  0  0  0
   58.4880   32.5270   45.0660 C   0  0  0  0  0  0  0  0  0  0  0  0
   58.0010   31.3800   44.4770 N   0  0  0  0  0  0  0  0  0  0  0  0
   57.4990   31.4240   43.0830 C   0  0  0  0  0  0  0  0  0  0  0  0
   58.0200   30.1840   45.1630 C   0  0  0  0  0  0  0  0  0  0  0  0
   57.2740   29.0680   44.7040 C   0  0  0  0  0  0  0  0  0  0  0  0
   57.3570   27.8330   45.3340 C   0  0  0  0  0  0  0  0  0  0  0  0
   58.1850   27.6630   46.4370 C   0  0  0  0  0  0  0  0  0  0  0  0
   58.2720   26.3270   47.1180 C   0  0  0  0  0  0  0  0  0  0  0  0
   58.8700   28.7640   46.9600 C   0  0  0  0  0  0  0  0  0  0  0  0
   58.7780   30.0500   46.3620 C   0  0  0  0  0  0  0  0  0  0  0  0
   64.3693   33.1181   46.7697 H   0  0  0  0  0  0  0  0  0  0  0  0
   62.6633   32.9587   46.2303 H   0  0  0  0  0  0  0  0  0  0  0  0
   63.4585   34.5694   46.2303 H   0  0  0  0  0  0  0  0  0  0  0  0
   63.7817   33.8933   48.8514 H   0  0  0  0  0  0  0  0  0  0  0  0
   62.3449   34.7825   48.2246 H   0  0  0  0  0  0  0  0  0  0  0  0
   63.2840   31.6478   47.3834 H   0  0  0  0  0  0  0  0  0  0  0  0
   63.2429   31.1634   49.1089 H   0  0  0  0  0  0  0  0  0  0  0  0
   61.6072   30.2181   46.9091 H   0  0  0  0  0  0  0  0  0  0  0  0
   61.6237   29.6879   48.6491 H   0  0  0  0  0  0  0  0  0  0  0  0
   59.6740   30.6150   48.9250 H   0  0  0  0  0  0  0  0  0  0  0  0
   60.2730   32.0700   48.5770 H   0  0  0  0  0  0  0  0  0  0  0  0
   60.4694   33.5915   47.6692 H   0  0  0  0  0  0  0  0  0  0  0  0
   60.0617   35.7849   46.5830 H   0  0  0  0  0  0  0  0  0  0  0  0
   58.5771   35.9379   44.5955 H   0  0  0  0  0  0  0  0  0  0  0  0
   57.5834   33.8866   43.6202 H   0  0  0  0  0  0  0  0  0  0  0  0
   56.4032   31.5200   43.0907 H   0  0  0  0  0  0  0  0  0  0  0  0
   57.9390   32.2870   42.5619 H   0  0  0  0  0  0  0  0  0  0  0  0
   57.7822   30.4976   42.5619 H   0  0  0  0  0  0  0  0  0  0  0  0
   56.6157   29.1833   43.8303 H   0  0  0  0  0  0  0  0  0  0  0  0
   56.7647   26.9857   44.9582 H   0  0  0  0  0  0  0  0  0  0  0  0
   58.2627   26.4701   48.2086 H   0  0  0  0  0  0  0  0  0  0  0  0
   57.4123   25.7079   46.8220 H   0  0  0  0  0  0  0  0  0  0  0  0
   59.2048   25.8246   46.8220 H   0  0  0  0  0  0  0  0  0  0  0  0
   59.4949   28.6317   47.8555 H   0  0  0  0  0  0  0  0  0  0  0  0
  1  2  1  0
  2  3  1  0
  3  4  1  0
  4  5  1  0
  5  6  1  0
  6  7  1  0
  7  8  2  0
  8  9  1  0
  9 10  2  0
 10 11  1  0
 11 12  2  0
 12 13  1  0
 13 14  2  0
 14 15  1  0
 14 16  1  0
 16 17  2  0
 17 18  1  0
 18 19  2  0
 19 20  1  0
 19 21  1  0
 21 22  2  0
 22  7  1  0
 13  8  1  0
 22 16  1  0
  1 23  1  0
  1 24  1  0
  1 25  1  0
  2 26  1  0
  2 27  1  0
  4 28  1  0
  4 29  1  0
  5 30  1  0
  5 31  1  0
  6 32  1  0
  6 33  1  0
  9 34  1  0
 10 35  1  0
 11 36  1  0
 12 37  1  0
 15 38  1  0
 15 39  1  0
 15 40  1  0
 17 41  1  0
 18 42  1  0
 20 43  1  0
 20 44  1  0
 20 45  1  0
 21 46  1  0
M  CHG  2   6   1  14   1
M  END
>  <UniqueID>  (17) 
17

>  <SMILES>  (17) 
CCOCC[NH2+]c1c2ccccc2[n+](C)c2ccc(C)cc12

>  <Energy>  (17) 
74.79076969347864

>  <Genealogy>  (17) 
CCOCC[NH2+]c1c2ccccc2[n+](C)c2ccc(C)cc12 (protonated)
CCOCC[NH2+]c1c2ccccc2[n+](C)c2ccc(C)cc12 (3D coordinates assigned)
CCOCC[NH2+]c1c2ccccc2[n+](C)c2ccc(C)cc12 (optimized conformer: 74.79076969347864 kcal/mol)

>  <smiles>  (17) 
CCOCCNc1c2ccccc2[n+](C)c2ccc(C)cc12

>  <score_type>  (17) 
oracle

>  <origin>  (17) 
adg

>  <m_score__min__energy>  (17) 
-4.0300000000000002

>  <m_primary>  (17) 
energy

$$$$
17:0
     RDKit          3D

 32 34  0  0  0  0  0  0  0  0999 V2000
   57.1220   32.3549   42.5770 H   0  0  0  0  0  0  0  0  0  0  0  0
   57.4180   31.7320   43.4340 C   0  0  0  0  0  0  0  0  0  0  0  0
   58.2940   32.2620   44.4190 C   0  0  0  0  0  0  0  0  0  0  0  0
   58.8090   33.5670   44.3520 O   0  0  0  0  0  0  0  0  0  0  0  0
   58.5280   34.6200   45.2740 C   0  0  0  0  0  0  0  0  0  0  0  0
   57.5951   34.3909   45.8100 H   0  0  0  0  0  0  0  0  0  0  0  0
   58.4262   35.5614   44.7143 H   0  0  0  0  0  0  0  0  0  0  0  0
   59.6600   34.7710   46.2830 C   0  0  0  0  0  0  0  0  0  0  0  0
   59.2517   34.7165   47.3030 H   0  0  0  0  0  0  0  0  0  0  0  0
   60.3914   33.9625   46.1372 H   0  0  0  0  0  0  0  0  0  0  0  0
   60.1539   35.7430   46.1372 H   0  0  0  0  0  0  0  0  0  0  0  0
   58.6630   31.4640   45.5160 C   0  0  0  0  0  0  0  0  0  0  0  0
   59.3359   31.8553   46.2932 H   0  0  0  0  0  0  0  0  0  0  0  0
   58.1600   30.1690   45.5990 C   0  0  0  0  0  0  0  0  0  0  0  0
   58.4370   29.0110   46.7850 S   0  0  0  0  0  0  0  0  0  0  0  0
   57.4400   27.8730   46.0090 C   0  0  0  0  0  0  0  0  0  0  0  0
   57.1910   26.6600   46.4140 N   0  0  0  0  0  0  0  0  0  0  0  0
   56.0970   25.8150   46.0250 C   0  0  0  0  0  0  0  0  0  0  0  0
   54.9120   26.2440   45.9940 O   0  0  0  0  0  0  0  0  0  0  0  0
   56.3780   24.4110   45.5890 C   0  0  0  0  0  0  0  0  0  0  0  0
   55.7304   23.9233   46.3325 H   0  0  0  0  0  0  0  0  0  0  0  0
   56.6230   24.2490   44.0960 C   0  0  0  0  0  0  0  0  0  0  0  0
   56.2819   23.3404   43.5782 H   0  0  0  0  0  0  0  0  0  0  0  0
   56.3928   24.8457   43.2010 H   0  0  0  0  0  0  0  0  0  0  0  0
   57.7870   24.1770   45.0670 C   0  0  0  0  0  0  0  0  0  0  0  0
   58.2895   23.2162   45.2525 H   0  0  0  0  0  0  0  0  0  0  0  0
   58.7495   24.7001   45.1666 H   0  0  0  0  0  0  0  0  0  0  0  0
   56.9090   28.3690   44.8660 N   0  0  0  0  0  0  0  0  0  0  0  0
   56.2690   27.8330   44.2350 H   0  0  0  0  0  0  0  0  0  0  0  0
   57.3100   29.6470   44.6390 C   0  0  0  0  0  0  0  0  0  0  0  0
   56.9260   30.4210   43.5430 C   0  0  0  0  0  0  0  0  0  0  0  0
   56.2499   30.0115   42.7780 H   0  0  0  0  0  0  0  0  0  0  0  0
  1  2  1  0
  2  3  2  0
  3  4  1  0
  4  5  1  0
  5  6  1  0
  5  7  1  0
  5  8  1  0
  8  9  1  0
  8 10  1  0
  8 11  1  0
  3 12  1  0
 12 13  1  0
 12 14  2  0
 14 15  1  0
 15 16  1  0
 16 17  2  0
 17 18  1  0
 18 19  2  0
 18 20  1  0
 20 21  1  0
 20 22  1  0
 22 23  1  0
 22 24  1  0
 22 25  1  0
 25 26  1  0
 25 27  1  0
 16 28  1  0
 28 29  1  0
 28 30  1  0
 30 31  2  0
 31 32  1  0
 31  2  1  0
 30 14  1  0
 25 20  1  0
M  END
>  <UniqueID>  (18) 
18

>  <SMILES>  (18) 
CCOc1ccc2[nH]/c(=N/C(=O)C3CC3)sc2c1

>  <Energy>  (18) 
331.8217887447642

>  <Genealogy>  (18) 
CCOc1ccc2[nH]/c(=N/C(=O)C3CC3)sc2c1 (cis-trans isomerization)
CCOc1ccc2[nH]/c(=N/C(=O)C3CC3)sc2c1 (3D coordinates assigned)
CCOc1ccc2[nH]/c(=N/C(=O)C3CC3)sc2c1 (nonaromatic ring conformer: 331.8217887447642 kcal/mol)

>  <smiles>  (18) 
CCOc1ccc2[nH]c(=NC(=O)C3CC3)sc2c1

>  <score_type>  (18) 
oracle

>  <origin>  (18) 
adg

>  <m_score__min__energy>  (18) 
-6.75

>  <m_primary>  (18) 
energy

$$$$
18:0
     RDKit          3D

 51 53  0  0  0  0  0  0  0  0999 V2000
   55.5310   29.7700   44.1350 C   0  0  0  0  0  0  0  0  0  0  0  0
   56.5850   30.3900   43.2210 C   0  0  0  0  0  0  0  0  0  0  0  0
   57.9980   30.1630   43.7710 C   0  0  0  0  0  0  0  0  0  0  0  0
   58.2450   30.9790   44.9810 N   0  0  0  0  0  0  0  0  0  0  0  0
   58.3460   30.4050   46.2330 C   0  0  0  0  0  0  0  0  0  0  0  0
   58.0260   28.6450   46.5120 S   0  0  0  0  0  0  0  0  0  0  0  0
   59.7800   28.1250   46.6150 C   0  0  0  0  0  0  0  0  0  0  0  0
   60.7340   29.3120   46.5200 C   0  0  0  0  0  0  0  0  0  0  0  0
   60.8870   29.9370   47.7940 O   0  0  0  0  0  0  0  0  0  0  0  0
   61.7610   30.9990   48.0930 C   0  0  0  0  0  0  0  0  0  0  0  0
   62.1470   31.9510   47.1270 C   0  0  0  0  0  0  0  0  0  0  0  0
   63.0260   32.9910   47.4600 C   0  0  0  0  0  0  0  0  0  0  0  0
   63.3980   34.0230   46.4350 C   0  0  0  0  0  0  0  0  0  0  0  0
   63.5000   33.1010   48.7730 C   0  0  0  0  0  0  0  0  0  0  0  0
   63.1280   32.1620   49.7360 C   0  0  0  0  0  0  0  0  0  0  0  0
   62.2670   31.1050   49.4030 C   0  0  0  0  0  0  0  0  0  0  0  0
   61.8650   30.1050   50.4510 C   0  0  0  0  0  0  0  0  0  0  0  0
   58.7370   31.1550   47.3000 N   0  0  0  0  0  0  0  0  0  0  0  0
   58.9480   32.4910   47.1920 C   0  0  0  0  0  0  0  0  0  0  0  0
   59.3140   33.2480   48.3180 C   0  0  0  0  0  0  0  0  0  0  0  0
   59.5200   34.6240   48.2020 C   0  0  0  0  0  0  0  0  0  0  0  0
   59.3650   35.2550   46.9660 C   0  0  0  0  0  0  0  0  0  0  0  0
   59.0030   34.5120   45.8390 C   0  0  0  0  0  0  0  0  0  0  0  0
   58.7920   33.1220   45.9460 C   0  0  0  0  0  0  0  0  0  0  0  0
   58.4470   32.3320   44.8380 C   0  0  0  0  0  0  0  0  0  0  0  0
   58.3370   32.8740   43.7010 O   0  0  0  0  0  0  0  0  0  0  0  0
   55.8130   29.9359   45.1852 H   0  0  0  0  0  0  0  0  0  0  0  0
   54.5549   30.2378   43.9392 H   0  0  0  0  0  0  0  0  0  0  0  0
   55.4656   28.6895   43.9392 H   0  0  0  0  0  0  0  0  0  0  0  0
   56.5100   29.9314   42.2240 H   0  0  0  0  0  0  0  0  0  0  0  0
   56.4031   31.4734   43.1641 H   0  0  0  0  0  0  0  0  0  0  0  0
   58.1159   29.0996   44.0265 H   0  0  0  0  0  0  0  0  0  0  0  0
   58.7219   30.4619   42.9986 H   0  0  0  0  0  0  0  0  0  0  0  0
   59.9432   27.6140   47.5753 H   0  0  0  0  0  0  0  0  0  0  0  0
   59.9862   27.4544   45.7678 H   0  0  0  0  0  0  0  0  0  0  0  0
   61.7155   28.9598   46.1700 H   0  0  0  0  0  0  0  0  0  0  0  0
   60.3184   30.0452   45.8130 H   0  0  0  0  0  0  0  0  0  0  0  0
   61.7545   31.8768   46.1021 H   0  0  0  0  0  0  0  0  0  0  0  0
   63.7290   34.9411   46.9425 H   0  0  0  0  0  0  0  0  0  0  0  0
   64.2137   33.6374   45.8058 H   0  0  0  0  0  0  0  0  0  0  0  0
   62.5239   34.2466   45.8058 H   0  0  0  0  0  0  0  0  0  0  0  0
   64.1682   33.9309   49.0465 H   0  0  0  0  0  0  0  0  0  0  0  0
   63.5122   32.2509   50.7629 H   0  0  0  0  0  0  0  0  0  0  0  0
   62.0366   30.5319   51.4501 H   0  0  0  0  0  0  0  0  0  0  0  0
   60.7988   29.8607   50.3349 H   0  0  0  0  0  0  0  0  0  0  0  0
   62.4654   29.1907   50.3349 H   0  0  0  0  0  0  0  0  0  0  0  0
   58.8640   30.6880   48.2270 H   0  0  0  0  0  0  0  0  0  0  0  0
   59.4385   32.7551   49.2935 H   0  0  0  0  0  0  0  0  0  0  0  0
   59.8051   35.2125   49.0865 H   0  0  0  0  0  0  0  0  0  0  0  0
   59.5282   36.3394   46.8792 H   0  0  0  0  0  0  0  0  0  0  0  0
   58.8825   35.0124   44.8669 H   0  0  0  0  0  0  0  0  0  0  0  0
  1  2  1  0
  2  3  1  0
  3  4  1  0
  4  5  1  0
  5  6  1  0
  6  7  1  0
  7  8  1  0
  8  9  1  0
  9 10  1  0
 10 11  2  0
 11 12  1  0
 12 13  1  0
 12 14  2  0
 14 15  1  0
 15 16  2  0
 16 17  1  0
  5 18  2  0
 18 19  1  0
 19 20  2  0
 20 21  1  0
 21 22  2  0
 22 23  1  0
 23 24  2  0
 24 25  1  0
 25 26  2  0
 25  4  1  0
 16 10  1  0
 24 19  1  0
  1 27  1  0
  1 28  1  0
  1 29  1  0
  2 30  1  0
  2 31  1  0
  3 32  1  0
  3 33  1  0
  7 34  1  0
  7 35  1  0
  8 36  1  0
  8 37  1  0
 11 38  1  0
 13 39  1  0
 13 40  1  0
 13 41  1  0
 14 42  1  0
 15 43  1  0
 17 44  1  0
 17 45  1  0
 17 46  1  0
 18 47  1  0
 20 48  1  0
 21 49  1  0
 22 50  1  0
 23 51  1  0
M  CHG  1  18   1
M  END
>  <UniqueID>  (19) 
19

>  <SMILES>  (19) 
CCCn1c(SCCOc2cc(C)ccc2C)[nH+]c2ccccc2c1=O

>  <Energy>  (19) 
53.55840231731429

>  <Genealogy>  (19) 
CCCn1c(SCCOc2cc(C)ccc2C)[nH+]c2ccccc2c1=O (protonated)
CCCn1c(SCCOc2cc(C)ccc2C)[nH+]c2ccccc2c1=O (3D coordinates assigned)
CCCn1c(SCCOc2cc(C)ccc2C)[nH+]c2ccccc2c1=O (optimized conformer: 53.55840231731429 kcal/mol)

>  <smiles>  (19) 
CCCn1c(SCCOc2cc(C)ccc2C)nc2ccccc2c1=O

>  <score_type>  (19) 
oracle

>  <origin>  (19) 
adg

>  <m_score__min__energy>  (19) 
-6.04

>  <m_primary>  (19) 
energy

$$$$
19:0
     RDKit          3D

 54 56  0  0  0  0  0  0  0  0999 V2000
   55.1090   30.7270   52.1010 C   0  0  0  0  0  0  0  0  0  0  0  0
   56.4810   30.1140   52.3280 C   0  0  0  0  0  0  0  0  0  0  0  0
   57.3270   30.4610   51.2510 O   0  0  0  0  0  0  0  0  0  0  0  0
   57.4230   31.8680   51.1250 C   0  0  0  0  0  0  0  0  0  0  0  0
   58.6630   32.4000   51.8540 C   0  0  0  0  0  0  0  0  0  0  0  0
   59.9630   31.8230   51.2690 C   0  0  0  0  0  0  0  0  0  0  0  0
   59.8940   30.3550   51.2070 N   0  0  0  0  0  0  0  0  0  0  0  0
   60.7700   29.7690   50.1750 C   0  0  0  0  0  0  0  0  0  0  0  0
   60.0860   29.4790   48.8200 C   0  0  0  0  0  0  0  0  0  0  0  0
   58.9190   30.3310   48.5340 N   0  0  0  0  0  0  0  0  0  0  0  0
   58.6360   30.9440   47.2570 C   0  0  0  0  0  0  0  0  0  0  0  0
   58.8710   32.3160   47.0420 C   0  0  0  0  0  0  0  0  0  0  0  0
   59.1980   33.1790   48.1090 C   0  0  0  0  0  0  0  0  0  0  0  0
   59.5420   34.5080   47.8750 C   0  0  0  0  0  0  0  0  0  0  0  0
   59.5550   35.0040   46.5780 C   0  0  0  0  0  0  0  0  0  0  0  0
   59.1560   34.1940   45.5160 C   0  0  0  0  0  0  0  0  0  0  0  0
   58.7390   32.8540   45.7330 C   0  0  0  0  0  0  0  0  0  0  0  0
   58.2140   32.0830   44.7120 N   0  0  0  0  0  0  0  0  0  0  0  0
   57.8050   32.7220   43.4400 C   0  0  0  0  0  0  0  0  0  0  0  0
   58.0150   30.7270   44.8980 C   0  0  0  0  0  0  0  0  0  0  0  0
   57.6840   29.8680   43.8170 C   0  0  0  0  0  0  0  0  0  0  0  0
   57.4350   28.5130   44.0230 C   0  0  0  0  0  0  0  0  0  0  0  0
   57.5260   27.9710   45.2970 C   0  0  0  0  0  0  0  0  0  0  0  0
   57.8980   28.7740   46.3700 C   0  0  0  0  0  0  0  0  0  0  0  0
   58.1710   30.1500   46.1890 C   0  0  0  0  0  0  0  0  0  0  0  0
   54.6366   30.9381   53.0717 H   0  0  0  0  0  0  0  0  0  0  0  0
   55.2151   31.6633   51.5335 H   0  0  0  0  0  0  0  0  0  0  0  0
   54.4823   30.0233   51.5335 H   0  0  0  0  0  0  0  0  0  0  0  0
   56.9049   30.4978   53.2677 H   0  0  0  0  0  0  0  0  0  0  0  0
   56.3917   29.0194   52.3910 H   0  0  0  0  0  0  0  0  0  0  0  0
   57.4920   32.1301   50.0589 H   0  0  0  0  0  0  0  0  0  0  0  0
   56.5286   32.3228   51.5757 H   0  0  0  0  0  0  0  0  0  0  0  0
   58.6870   33.4959   51.7618 H   0  0  0  0  0  0  0  0  0  0  0  0
   58.5972   32.0924   52.9081 H   0  0  0  0  0  0  0  0  0  0  0  0
   60.1114   32.2214   50.2545 H   0  0  0  0  0  0  0  0  0  0  0  0
   60.8034   32.1122   51.9171 H   0  0  0  0  0  0  0  0  0  0  0  0
   58.9100   30.0490   51.0520 H   0  0  0  0  0  0  0  0  0  0  0  0
   60.1980   29.9640   52.1300 H   0  0  0  0  0  0  0  0  0  0  0  0
   61.5993   30.4689   49.9949 H   0  0  0  0  0  0  0  0  0  0  0  0
   61.0956   28.7945   50.5678 H   0  0  0  0  0  0  0  0  0  0  0  0
   60.8268   29.6304   48.0211 H   0  0  0  0  0  0  0  0  0  0  0  0
   59.7153   28.4445   48.8699 H   0  0  0  0  0  0  0  0  0  0  0  0
   58.1890   30.3930   49.2780 H   0  0  0  0  0  0  0  0  0  0  0  0
   59.1810   32.7968   49.1403 H   0  0  0  0  0  0  0  0  0  0  0  0
   59.8035   35.1649   48.7177 H   0  0  0  0  0  0  0  0  0  0  0  0
   59.8806   36.0375   46.3884 H   0  0  0  0  0  0  0  0  0  0  0  0
   59.1643   34.5993   44.4934 H   0  0  0  0  0  0  0  0  0  0  0  0
   57.2236   33.6304   43.6563 H   0  0  0  0  0  0  0  0  0  0  0  0
   58.7003   32.9893   42.8595 H   0  0  0  0  0  0  0  0  0  0  0  0
   57.1874   32.0209   42.8595 H   0  0  0  0  0  0  0  0  0  0  0  0
   57.6231   30.2798   42.7988 H   0  0  0  0  0  0  0  0  0  0  0  0
   57.1651   27.8701   43.1722 H   0  0  0  0  0  0  0  0  0  0  0  0
   57.3039   26.9058   45.4585 H   0  0  0  0  0  0  0  0  0  0  0  0
   57.9811   28.3325   47.3741 H   0  0  0  0  0  0  0  0  0  0  0  0
  1  2  1  0
  2  3  1  0
  3  4  1  0
  4  5  1  0
  5  6  1  0
  6  7  1  0
  7  8  1  0
  8  9  1  0
  9 10  1  0
 10 11  1  0
 11 12  2  0
 12 13  1  0
 13 14  2  0
 14 15  1  0
 15 16  2  0
 16 17  1  0
 17 18  2  0
 18 19  1  0
 18 20  1  0
 20 21  2  0
 21 22  1  0
 22 23  2  0
 23 24  1  0
 24 25  2  0
 25 11  1  0
 17 12  1  0
 25 20  1  0
  1 26  1  0
  1 27  1  0
  1 28  1  0
  2 29  1  0
  2 30  1  0
  4 31  1  0
  4 32  1  0
  5 33  1  0
  5 34  1  0
  6 35  1  0
  6 36  1  0
  7 37  1  0
  7 38  1  0
  8 39  1  0
  8 40  1  0
  9 41  1  0
  9 42  1  0
 10 43  1  0
 13 44  1  0
 14 45  1  0
 15 46  1  0
 16 47  1  0
 19 48  1  0
 19 49  1  0
 19 50  1  0
 21 51  1  0
 22 52  1  0
 23 53  1  0
 24 54  1  0
M  CHG  2   7   1  18   1
M  END
>  <UniqueID>  (20) 
20

>  <SMILES>  (20) 
CCOCCC[NH2+]CCNc1c2ccccc2[n+](C)c2ccccc12

>  <Energy>  (20) 
78.21637741986775

>  <Genealogy>  (20) 
CCOCCC[NH2+]CCNc1c2ccccc2[n+](C)c2ccccc12 (protonated)
CCOCCC[NH2+]CCNc1c2ccccc2[n+](C)c2ccccc12 (3D coordinates assigned)
CCOCCC[NH2+]CCNc1c2ccccc2[n+](C)c2ccccc12 (optimized conformer: 78.21637741986775 kcal/mol)

>  <smiles>  (20) 
CCOCCCNCCNc1c2ccccc2[n+](C)c2ccccc12

>  <score_type>  (20) 
oracle

>  <origin>  (20) 
adg

>  <m_score__min__energy>  (20) 
-4.0899999999999999

>  <m_primary>  (20) 
energy

$$$$
20:0
     RDKit          3D

 65 64  0  0  0  0  0  0  0  0999 V2000
   58.3250   26.6780   45.7280 C   0  0  0  0  0  0  0  0  0  0  0  0
   57.2370   27.7530   45.6250 C   0  0  0  0  0  0  0  0  0  0  0  0
   57.7420   29.0470   45.0950 N   0  0  2  0  0  0  0  0  0  0  0  0
   56.7740   29.6470   44.1360 C   0  0  0  0  0  0  0  0  0  0  0  0
   56.7080   31.1910   44.2370 C   0  0  0  0  0  0  0  0  0  0  0  0
   57.4240   31.7070   45.4150 N   0  0  0  0  0  0  0  0  0  0  0  0
   56.9980   33.0660   45.7820 C   0  0  0  0  0  0  0  0  0  0  0  0
   57.7180   34.1020   44.9120 C   0  0  0  0  0  0  0  0  0  0  0  0
   59.2190   34.1930   45.2160 C   0  0  0  0  0  0  0  0  0  0  0  0
   59.7300   32.9140   45.7060 N   0  0  0  0  0  0  0  0  0  0  0  0
   59.1070   28.9600   44.5000 C   0  0  0  0  0  0  0  0  0  0  0  0
   60.2470   29.5360   45.3670 C   0  0  0  0  0  0  0  0  0  0  0  0
   59.7130   30.3960   46.4330 N   0  0  0  0  0  0  0  0  0  0  0  0
   60.6270   30.5190   47.5800 C   0  0  0  0  0  0  0  0  0  0  0  0
   60.4060   31.8430   48.3650 C   0  0  0  0  0  0  0  0  0  0  0  0
   61.5870   32.7730   48.5290 N   0  0  0  0  0  0  0  0  0  0  0  0
   62.4720   32.3570   49.6820 C   0  0  0  0  0  0  0  0  0  0  0  0
   63.9920   32.3970   49.4610 C   0  0  0  0  0  0  0  0  0  0  0  0
   62.3990   32.5740   47.2680 C   0  0  0  0  0  0  0  0  0  0  0  0
   62.9840   33.8460   46.6060 C   0  0  0  0  0  0  0  0  0  0  0  0
   61.1720   34.2260   48.5590 C   0  0  0  0  0  0  0  0  0  0  0  0
   59.6680   34.5480   48.5770 C   0  0  0  0  0  0  0  0  0  0  0  0
   58.5357   26.4699   46.7874 H   0  0  0  0  0  0  0  0  0  0  0  0
   57.9788   25.7575   45.2353 H   0  0  0  0  0  0  0  0  0  0  0  0
   59.2413   27.0353   45.2353 H   0  0  0  0  0  0  0  0  0  0  0  0
   56.4449   27.3861   44.9557 H   0  0  0  0  0  0  0  0  0  0  0  0
   56.8636   27.9395   46.6428 H   0  0  0  0  0  0  0  0  0  0  0  0
   57.8280   29.7030   45.9090 H   0  0  0  0  0  0  0  0  0  0  0  0
   57.0766   29.3742   43.1142 H   0  0  0  0  0  0  0  0  0  0  0  0
   55.7763   29.2559   44.3842 H   0  0  0  0  0  0  0  0  0  0  0  0
   57.1589   31.6239   43.3318 H   0  0  0  0  0  0  0  0  0  0  0  0
   55.6501   31.4759   44.3359 H   0  0  0  0  0  0  0  0  0  0  0  0
   58.4530   31.7090   45.2210 H   0  0  0  0  0  0  0  0  0  0  0  0
   55.9121   33.1586   45.6329 H   0  0  0  0  0  0  0  0  0  0  0  0
   57.2502   33.2474   46.8372 H   0  0  0  0  0  0  0  0  0  0  0  0
   57.5895   33.8240   43.8555 H   0  0  0  0  0  0  0  0  0  0  0  0
   57.2752   35.0846   45.1320 H   0  0  0  0  0  0  0  0  0  0  0  0
   59.7568   34.4673   44.2965 H   0  0  0  0  0  0  0  0  0  0  0  0
   59.3747   34.9551   45.9938 H   0  0  0  0  0  0  0  0  0  0  0  0
   59.6080   32.2010   44.9500 H   0  0  0  0  0  0  0  0  0  0  0  0
   59.1260   32.6130   46.5040 H   0  0  0  0  0  0  0  0  0  0  0  0
   59.3276   27.8990   44.3112 H   0  0  0  0  0  0  0  0  0  0  0  0
   59.0795   29.5757   43.5889 H   0  0  0  0  0  0  0  0  0  0  0  0
   60.8084   28.7062   45.8212 H   0  0  0  0  0  0  0  0  0  0  0  0
   60.9054   30.1399   44.7253 H   0  0  0  0  0  0  0  0  0  0  0  0
   59.5040   31.3460   46.0430 H   0  0  0  0  0  0  0  0  0  0  0  0
   60.4586   29.6711   48.2602 H   0  0  0  0  0  0  0  0  0  0  0  0
   61.6569   30.5223   47.1935 H   0  0  0  0  0  0  0  0  0  0  0  0
   59.6163   32.4047   47.8445 H   0  0  0  0  0  0  0  0  0  0  0  0
   60.1644   31.5202   49.3885 H   0  0  0  0  0  0  0  0  0  0  0  0
   62.2446   33.0220   50.5282 H   0  0  0  0  0  0  0  0  0  0  0  0
   62.2405   31.2938   49.8430 H   0  0  0  0  0  0  0  0  0  0  0  0
   64.5038   32.4105   50.4346 H   0  0  0  0  0  0  0  0  0  0  0  0
   64.3038   31.5067   48.8951 H   0  0  0  0  0  0  0  0  0  0  0  0
   64.2565   33.3024   48.8951 H   0  0  0  0  0  0  0  0  0  0  0  0
   63.2408   31.9105   47.5155 H   0  0  0  0  0  0  0  0  0  0  0  0
   61.6913   32.1658   46.5314 H   0  0  0  0  0  0  0  0  0  0  0  0
   63.3077   34.5499   47.3868 H   0  0  0  0  0  0  0  0  0  0  0  0
   63.8459   33.5705   45.9805 H   0  0  0  0  0  0  0  0  0  0  0  0
   62.2139   34.3211   45.9805 H   0  0  0  0  0  0  0  0  0  0  0  0
   61.6130   34.6734   49.4620 H   0  0  0  0  0  0  0  0  0  0  0  0
   61.5283   34.6329   47.6012 H   0  0  0  0  0  0  0  0  0  0  0  0
   59.3214   34.6222   49.6183 H   0  0  0  0  0  0  0  0  0  0  0  0
   59.4916   35.5043   48.0628 H   0  0  0  0  0  0  0  0  0  0  0  0
   59.1155   33.7478   48.0628 H   0  0  0  0  0  0  0  0  0  0  0  0
  1  2  1  0
  2  3  1  0
  3  4  1  0
  4  5  1  0
  5  6  1  0
  6  7  1  0
  7  8  1  0
  8  9  1  0
  9 10  1  0
  3 11  1  0
 11 12  1  0
 12 13  1  0
 13 14  1  0
 14 15  1  0
 15 16  1  0
 16 17  1  0
 17 18  1  0
 16 19  1  0
 19 20  1  0
 16 21  1  0
 21 22  1  0
  1 23  1  0
  1 24  1  0
  1 25  1  0
  2 26  1  0
  2 27  1  0
  3 28  1  1
  4 29  1  0
  4 30  1  0
  5 31  1  0
  5 32  1  0
  6 33  1  0
  7 34  1  0
  7 35  1  0
  8 36  1  0
  8 37  1  0
  9 38  1  0
  9 39  1  0
 10 40  1  0
 10 41  1  0
 11 42  1  0
 11 43  1  0
 12 44  1  0
 12 45  1  0
 13 46  1  0
 14 47  1  0
 14 48  1  0
 15 49  1  0
 15 50  1  0
 17 51  1  0
 17 52  1  0
 18 53  1  0
 18 54  1  0
 18 55  1  0
 19 56  1  0
 19 57  1  0
 20 58  1  0
 20 59  1  0
 20 60  1  0
 21 61  1  0
 21 62  1  0
 22 63  1  0
 22 64  1  0
 22 65  1  0
M  CHG  2   3   1  16   1
M  END
>  <UniqueID>  (21) 
21

>  <SMILES>  (21) 
CC[N@H+](CCNCCCN)CCNCC[N+](CC)(CC)CC

>  <Energy>  (21) 
88.40461072726428

>  <Genealogy>  (21) 
CC[NH+](CCNCCCN)CCNCC[N+](CC)(CC)CC (protonated)
CC[N@H+](CCNCCCN)CCNCC[N+](CC)(CC)CC (chirality)
CC[N@H+](CCNCCCN)CCNCC[N+](CC)(CC)CC (3D coordinates assigned)
CC[N@H+](CCNCCCN)CCNCC[N+](CC)(CC)CC (optimized conformer: 88.40461072726428 kcal/mol)

>  <smiles>  (21) 
CC[N+](CCNCCCN)CCNCC[N+](CC)(CC)CC

>  <score_type>  (21) 
oracle

>  <origin>  (21) 
adg

>  <m_score__min__energy>  (21) 
-0.47999999999999998

>  <m_primary>  (21) 
energy

$$$$
21:0
     RDKit          3D

 53 55  0  0  0  0  0  0  0  0999 V2000
   58.7851   34.6294   48.0516 H   0  0  0  0  0  0  0  0  0  0  0  0
   59.3020   33.6590   48.0190 C   0  0  0  0  0  0  0  0  0  0  0  0
   58.5410   32.5550   47.9960 C   0  0  0  0  0  0  0  0  0  0  0  0
   57.4752   32.6715   47.7499 H   0  0  0  0  0  0  0  0  0  0  0  0
   59.0380   31.1930   48.2790 C   0  0  0  0  0  0  0  0  0  0  0  0
   59.0990   30.1880   47.3590 N   0  0  0  0  0  0  0  0  0  0  0  0
   58.8430   30.2730   45.9180 C   0  0  0  0  0  0  0  0  0  0  0  0
   59.7460   29.9657   45.3701 H   0  0  0  0  0  0  0  0  0  0  0  0
   58.5816   31.3102   45.6612 H   0  0  0  0  0  0  0  0  0  0  0  0
   57.6810   29.3560   45.5310 C   0  0  0  0  0  0  0  0  0  0  0  0
   57.3032   28.8499   46.4316 H   0  0  0  0  0  0  0  0  0  0  0  0
   58.0395   28.6137   44.8026 H   0  0  0  0  0  0  0  0  0  0  0  0
   56.6340   30.1070   44.9440 O   0  0  0  0  0  0  0  0  0  0  0  0
   57.0270   30.6520   43.6970 C   0  0  0  0  0  0  0  0  0  0  0  0
   56.1904   30.5737   42.9871 H   0  0  0  0  0  0  0  0  0  0  0  0
   57.8954   30.0920   43.3199 H   0  0  0  0  0  0  0  0  0  0  0  0
   57.4150   32.1200   43.8580 C   0  0  0  0  0  0  0  0  0  0  0  0
   56.9184   32.7198   43.0810 H   0  0  0  0  0  0  0  0  0  0  0  0
   58.5050   32.2288   43.7575 H   0  0  0  0  0  0  0  0  0  0  0  0
   57.0070   32.5680   45.1350 O   0  0  0  0  0  0  0  0  0  0  0  0
   57.2340   33.9590   45.2690 C   0  0  0  0  0  0  0  0  0  0  0  0
   57.0607   34.2565   46.3137 H   0  0  0  0  0  0  0  0  0  0  0  0
   56.5444   34.5009   44.6051 H   0  0  0  0  0  0  0  0  0  0  0  0
   58.6690   34.2980   44.8800 C   0  0  0  0  0  0  0  0  0  0  0  0
   59.2715   34.4403   45.7893 H   0  0  0  0  0  0  0  0  0  0  0  0
   59.0918   33.4750   44.2851 H   0  0  0  0  0  0  0  0  0  0  0  0
   58.6788   35.2232   44.2851 H   0  0  0  0  0  0  0  0  0  0  0  0
   59.6460   29.1520   48.0310 C   0  0  0  0  0  0  0  0  0  0  0  0
   59.9680   27.8740   47.5650 C   0  0  0  0  0  0  0  0  0  0  0  0
   59.7863   27.5881   46.5185 H   0  0  0  0  0  0  0  0  0  0  0  0
   60.5320   26.9660   48.4790 C   0  0  0  0  0  0  0  0  0  0  0  0
   60.7930   25.9499   48.1483 H   0  0  0  0  0  0  0  0  0  0  0  0
   60.7660   27.3490   49.8190 C   0  0  0  0  0  0  0  0  0  0  0  0
   61.2029   26.6277   50.5253 H   0  0  0  0  0  0  0  0  0  0  0  0
   60.4440   28.6460   50.2550 C   0  0  0  0  0  0  0  0  0  0  0  0
   60.6232   28.9568   51.2949 H   0  0  0  0  0  0  0  0  0  0  0  0
   59.8890   29.5270   49.3240 C   0  0  0  0  0  0  0  0  0  0  0  0
   59.5310   30.8150   49.4900 N   0  0  0  0  0  0  0  0  0  0  0  0
   59.5570   31.5870   50.7310 C   0  0  0  0  0  0  0  0  0  0  0  0
   59.5339   30.9007   51.5903 H   0  0  0  0  0  0  0  0  0  0  0  0
   60.4760   32.1904   50.7683 H   0  0  0  0  0  0  0  0  0  0  0  0
   58.6807   32.2509   50.7683 H   0  0  0  0  0  0  0  0  0  0  0  0
   60.7840   33.6760   48.0040 C   0  0  0  0  0  0  0  0  0  0  0  0
   61.5400   33.8380   49.1810 C   0  0  0  0  0  0  0  0  0  0  0  0
   61.0298   33.9697   50.1466 H   0  0  0  0  0  0  0  0  0  0  0  0
   62.9380   33.8320   49.1260 C   0  0  0  0  0  0  0  0  0  0  0  0
   63.5242   33.9763   50.0455 H   0  0  0  0  0  0  0  0  0  0  0  0
   63.5910   33.6430   47.9050 C   0  0  0  0  0  0  0  0  0  0  0  0
   64.6902   33.6431   47.8633 H   0  0  0  0  0  0  0  0  0  0  0  0
   62.8480   33.4540   46.7380 C   0  0  0  0  0  0  0  0  0  0  0  0
   63.3626   33.3002   45.7780 H   0  0  0  0  0  0  0  0  0  0  0  0
   61.4510   33.4600   46.7880 C   0  0  0  0  0  0  0  0  0  0  0  0
   60.8706   33.2944   45.8684 H   0  0  0  0  0  0  0  0  0  0  0  0
  1  2  1  0
  2  3  2  0
  3  4  1  0
  3  5  1  0
  5  6  1  0
  6  7  1  0
  7  8  1  0
  7  9  1  0
  7 10  1  0
 10 11  1  0
 10 12  1  0
 10 13  1  0
 13 14  1  0
 14 15  1  0
 14 16  1  0
 14 17  1  0
 17 18  1  0
 17 19  1  0
 17 20  1  0
 20 21  1  0
 21 22  1  0
 21 23  1  0
 21 24  1  0
 24 25  1  0
 24 26  1  0
 24 27  1  0
  6 28  1  0
 28 29  2  0
 29 30  1  0
 29 31  1  0
 31 32  1  0
 31 33  2  0
 33 34  1  0
 33 35  1  0
 35 36  1  0
 35 37  2  0
 37 38  1  0
 38 39  1  0
 39 40  1  0
 39 41  1  0
 39 42  1  0
  2 43  1  0
 43 44  2  0
 44 45  1  0
 44 46  1  0
 46 47  1  0
 46 48  2  0
 48 49  1  0
 48 50  1  0
 50 51  1  0
 50 52  2  0
 52 53  1  0
 38  5  2  0
 52 43  1  0
 37 28  1  0
M  CHG  1  38   1
M  END
>  <UniqueID>  (22) 
22

>  <SMILES>  (22) 
CCOCCOCCn1c(/C=C\c2ccccc2)[n+](C)c2ccccc21

>  <Energy>  (22) 
101.73958762757314

>  <Genealogy>  (22) 
CCOCCOCCn1c(/C=C\c2ccccc2)[n+](C)c2ccccc21 (cis-trans isomerization)
CCOCCOCCn1c(/C=C\c2ccccc2)[n+](C)c2ccccc21 (3D coordinates assigned)
CCOCCOCCn1c(/C=C\c2ccccc2)[n+](C)c2ccccc21 (optimized conformer: 101.73958762757314 kcal/mol)

>  <smiles>  (22) 
CCOCCOCCn1c(C=Cc2ccccc2)[n+](C)c2ccccc21

>  <score_type>  (22) 
oracle

>  <origin>  (22) 
adg

>  <m_score__min__energy>  (22) 
-6.3799999999999999

>  <m_primary>  (22) 
energy

$$$$
22:0
     RDKit          3D

 49 53  0  0  0  0  0  0  0  0999 V2000
   60.7020   26.5530   49.3570 C   0  0  0  0  0  0  0  0  0  0  0  0
   59.8970   27.0450   48.2430 N   0  0  0  0  0  0  0  0  0  0  0  0
   59.0950   26.2940   47.4540 C   0  0  0  0  0  0  0  0  0  0  0  0
   58.4380   27.1300   46.5680 C   0  0  0  0  0  0  0  0  0  0  0  0
   57.4910   26.8790   45.5650 C   0  0  0  0  0  0  0  0  0  0  0  0
   57.0620   25.5460   45.2450 N   0  0  0  0  0  0  0  0  0  0  0  0
   56.0700   24.8700   46.0890 C   0  0  0  0  0  0  0  0  0  0  0  0
   55.1350   24.0290   45.2090 C   0  0  0  0  0  0  0  0  0  0  0  0
   55.8720   23.1900   44.3400 O   0  0  0  0  0  0  0  0  0  0  0  0
   56.6210   23.9760   43.4290 C   0  0  0  0  0  0  0  0  0  0  0  0
   57.6960   24.7820   44.1690 C   0  0  0  0  0  0  0  0  0  0  0  0
   56.9770   27.9510   44.8810 N   0  0  0  0  0  0  0  0  0  0  0  0
   57.3700   29.2390   45.1530 C   0  0  0  0  0  0  0  0  0  0  0  0
   56.8530   30.3290   44.4500 C   0  0  0  0  0  0  0  0  0  0  0  0
   57.2660   31.5880   44.7570 N   0  0  0  0  0  0  0  0  0  0  0  0
   58.1800   31.8230   45.7430 C   0  0  0  0  0  0  0  0  0  0  0  0
   58.5930   33.1720   46.0490 N   0  0  0  0  0  0  0  0  0  0  0  0
   58.6730   33.6110   47.4500 C   0  0  0  0  0  0  0  0  0  0  0  0
   59.6270   34.8020   47.5850 C   0  0  0  0  0  0  0  0  0  0  0  0
   59.2990   35.8160   46.6570 O   0  0  0  0  0  0  0  0  0  0  0  0
   59.5270   35.3430   45.3440 C   0  0  0  0  0  0  0  0  0  0  0  0
   58.5650   34.2000   45.0000 C   0  0  0  0  0  0  0  0  0  0  0  0
   58.6990   30.7720   46.4390 N   0  0  0  0  0  0  0  0  0  0  0  0
   58.3200   29.4990   46.1630 C   0  0  0  0  0  0  0  0  0  0  0  0
   58.8370   28.4100   46.8550 C   0  0  0  0  0  0  0  0  0  0  0  0
   59.7380   28.3430   47.8960 C   0  0  0  0  0  0  0  0  0  0  0  0
   60.2289   26.8421   50.3070 H   0  0  0  0  0  0  0  0  0  0  0  0
   60.7735   25.4567   49.3017 H   0  0  0  0  0  0  0  0  0  0  0  0
   61.7102   26.9894   49.3017 H   0  0  0  0  0  0  0  0  0  0  0  0
   58.9836   25.2010   47.5076 H   0  0  0  0  0  0  0  0  0  0  0  0
   56.5852   24.2148   46.8068 H   0  0  0  0  0  0  0  0  0  0  0  0
   55.4809   25.6216   46.6349 H   0  0  0  0  0  0  0  0  0  0  0  0
   54.4975   23.4067   45.8543 H   0  0  0  0  0  0  0  0  0  0  0  0
   54.5214   24.7097   44.6006 H   0  0  0  0  0  0  0  0  0  0  0  0
   57.1056   23.3154   42.6950 H   0  0  0  0  0  0  0  0  0  0  0  0
   55.9406   24.6750   42.9207 H   0  0  0  0  0  0  0  0  0  0  0  0
   58.4436   24.0963   44.5944 H   0  0  0  0  0  0  0  0  0  0  0  0
   58.1937   25.4689   43.4686 H   0  0  0  0  0  0  0  0  0  0  0  0
   56.2780   27.7770   44.1220 H   0  0  0  0  0  0  0  0  0  0  0  0
   56.1142   30.1700   43.6506 H   0  0  0  0  0  0  0  0  0  0  0  0
   57.6714   33.9086   47.7939 H   0  0  0  0  0  0  0  0  0  0  0  0
   59.0526   32.7798   48.0623 H   0  0  0  0  0  0  0  0  0  0  0  0
   59.5538   35.2088   48.6044 H   0  0  0  0  0  0  0  0  0  0  0  0
   60.6518   34.4573   47.3827 H   0  0  0  0  0  0  0  0  0  0  0  0
   59.3752   36.1680   44.6325 H   0  0  0  0  0  0  0  0  0  0  0  0
   60.5583   34.9658   45.2803 H   0  0  0  0  0  0  0  0  0  0  0  0
   57.5441   34.6000   44.9120 H   0  0  0  0  0  0  0  0  0  0  0  0
   58.8772   33.7460   44.0479 H   0  0  0  0  0  0  0  0  0  0  0  0
   60.2426   29.2003   48.3655 H   0  0  0  0  0  0  0  0  0  0  0  0
  1  2  1  0
  2  3  1  0
  3  4  2  0
  4  5  1  0
  5  6  1  0
  6  7  1  0
  7  8  1  0
  8  9  1  0
  9 10  1  0
 10 11  1  0
  5 12  2  0
 12 13  1  0
 13 14  2  0
 14 15  1  0
 15 16  2  0
 16 17  1  0
 17 18  1  0
 18 19  1  0
 19 20  1  0
 20 21  1  0
 21 22  1  0
 16 23  1  0
 23 24  2  0
 24 25  1  0
 25 26  2  0
 26  2  1  0
 25  4  1  0
 11  6  1  0
 24 13  1  0
 22 17  1  0
  1 27  1  0
  1 28  1  0
  1 29  1  0
  3 30  1  0
  7 31  1  0
  7 32  1  0
  8 33  1  0
  8 34  1  0
 10 35  1  0
 10 36  1  0
 11 37  1  0
 11 38  1  0
 12 39  1  0
 14 40  1  0
 18 41  1  0
 18 42  1  0
 19 43  1  0
 19 44  1  0
 21 45  1  0
 21 46  1  0
 22 47  1  0
 22 48  1  0
 26 49  1  0
M  CHG  1  12   1
M  END
>  <UniqueID>  (23) 
23

>  <SMILES>  (23) 
Cn1cc2c(N3CCOCC3)[nH+]c3cnc(N4CCOCC4)nc3c2c1

>  <Energy>  (23) 
97.80806568441325

>  <Genealogy>  (23) 
Cn1cc2c(N3CCOCC3)[nH+]c3cnc(N4CCOCC4)nc3c2c1 (protonated)
Cn1cc2c(N3CCOCC3)[nH+]c3cnc(N4CCOCC4)nc3c2c1 (3D coordinates assigned)
Cn1cc2c(N3CCOCC3)[nH+]c3cnc(N4CCOCC4)nc3c2c1 (nonaromatic ring conformer: 97.80806568441325 kcal/mol)

>  <smiles>  (23) 
Cn1cc2c(N3CCOCC3)nc3cnc(N4CCOCC4)nc3c2c1

>  <score_type>  (23) 
oracle

>  <origin>  (23) 
adg

>  <m_score__min__energy>  (23) 
-5.6299999999999999

>  <m_primary>  (23) 
energy

$$$$
23:0
     RDKit          3D

 44 45  0  0  1  0  0  0  0  0999 V2000
   57.6450   25.2880   44.5940 C   0  0  0  0  0  0  0  0  0  0  0  0
   57.3010   25.5530   46.0420 C   0  0  0  0  0  0  0  0  0  0  0  0
   57.8540   26.8090   46.4940 N   0  0  0  0  0  0  0  0  0  0  0  0
   58.6720   26.9750   47.5000 N   0  0  0  0  0  0  0  0  0  0  0  0
   59.0150   28.3140   47.6710 C   0  0  0  0  0  0  0  0  0  0  0  0
   59.8350   28.6330   48.8450 C   0  0  0  0  0  0  0  0  0  0  0  0
   58.3410   28.9070   46.6840 C   0  0  0  0  0  0  0  0  0  0  0  0
   58.2220   30.2090   46.2990 C   0  0  0  0  0  0  0  0  0  0  0  0
   59.0140   31.0360   46.7420 N   0  0  0  0  0  0  0  0  0  0  0  0
   59.0840   32.0180   47.6740 C   0  0  0  0  0  0  0  0  0  0  0  0
   57.9850   33.0990   47.5470 C   0  0  0  0  0  0  0  0  0  0  0  0
   58.5480   34.3600   46.9580 C   0  0  0  0  0  0  0  0  0  0  0  0
   58.2770   34.5510   45.5830 N   0  0  0  0  0  0  0  0  0  0  0  0
   57.0180   33.9750   45.1940 C   0  0  0  0  0  0  0  0  0  0  0  0
   59.3610   34.2130   44.7170 C   0  0  0  0  0  0  0  0  0  0  0  0
   57.4200   30.5640   45.2700 N   0  0  0  0  0  0  0  0  0  0  0  0
   56.7140   29.6210   44.5800 C   0  0  0  0  0  0  0  0  0  0  0  0
   55.8520   30.0830   43.4610 C   0  0  0  0  0  0  0  0  0  0  0  0
   56.8200   28.3290   44.9270 N   0  0  0  0  0  0  0  0  0  0  0  0
   57.6030   27.9900   45.9360 C   0  0  0  0  0  0  0  0  0  0  0  0
   58.5154   24.6175   44.5407 H   0  0  0  0  0  0  0  0  0  0  0  0
   56.7869   24.8153   44.0938 H   0  0  0  0  0  0  0  0  0  0  0  0
   57.8831   26.2383   44.0938 H   0  0  0  0  0  0  0  0  0  0  0  0
   56.2068   25.5843   46.1499 H   0  0  0  0  0  0  0  0  0  0  0  0
   57.7307   24.7457   46.6532 H   0  0  0  0  0  0  0  0  0  0  0  0
   59.2665   28.4118   49.7604 H   0  0  0  0  0  0  0  0  0  0  0  0
   60.7523   28.0261   48.8274 H   0  0  0  0  0  0  0  0  0  0  0  0
   60.1010   29.7002   48.8274 H   0  0  0  0  0  0  0  0  0  0  0  0
   58.9983   31.5554   48.6683 H   0  0  0  0  0  0  0  0  0  0  0  0
   60.0460   32.5288   47.5202 H   0  0  0  0  0  0  0  0  0  0  0  0
   57.1821   32.7232   46.8958 H   0  0  0  0  0  0  0  0  0  0  0  0
   57.5900   33.3219   48.5492 H   0  0  0  0  0  0  0  0  0  0  0  0
   58.1262   35.2125   47.5105 H   0  0  0  0  0  0  0  0  0  0  0  0
   59.6414   34.2793   47.0473 H   0  0  0  0  0  0  0  0  0  0  0  0
   56.4419   33.7114   46.0933 H   0  0  0  0  0  0  0  0  0  0  0  0
   56.4509   34.7032   44.5956 H   0  0  0  0  0  0  0  0  0  0  0  0
   57.1982   33.0698   44.5956 H   0  0  0  0  0  0  0  0  0  0  0  0
   60.2397   33.9390   45.3193 H   0  0  0  0  0  0  0  0  0  0  0  0
   59.0718   33.3624   44.0823 H   0  0  0  0  0  0  0  0  0  0  0  0
   59.6065   35.0773   44.0823 H   0  0  0  0  0  0  0  0  0  0  0  0
   54.9511   30.5659   43.8674 H   0  0  0  0  0  0  0  0  0  0  0  0
   56.4077   30.8042   42.8437 H   0  0  0  0  0  0  0  0  0  0  0  0
   55.5592   29.2209   42.8437 H   0  0  0  0  0  0  0  0  0  0  0  0
   56.2710   27.6480   44.3750 H   0  0  0  0  0  0  0  0  0  0  0  0
  1  2  1  0
  2  3  1  0
  3  4  1  0
  4  5  2  0
  5  6  1  0
  5  7  1  0
  7  8  1  0
  8  9  2  0
  9 10  1  0
 10 11  1  0
 11 12  1  0
 12 13  1  0
 13 14  1  0
 13 15  1  0
  8 16  1  0
 16 17  2  0
 17 18  1  0
 17 19  1  0
 19 20  1  0
 20  3  1  0
 20  7  2  0
  1 21  1  0
  1 22  1  0
  1 23  1  0
  2 24  1  0
  2 25  1  0
  6 26  1  0
  6 27  1  0
  6 28  1  0
 10 29  1  0
 10 30  1  0
 11 31  1  0
 11 32  1  0
 12 33  1  0
 12 34  1  0
 14 35  1  0
 14 36  1  0
 14 37  1  0
 15 38  1  0
 15 39  1  0
 15 40  1  0
 18 41  1  0
 18 42  1  0
 18 43  1  0
 19 44  1  0
M  END
>  <smiles>  (24) 
CCn1nc(C)c2c(=NCCCN(C)C)nc(C)[nH]c21

>  <score_type>  (24) 
oracle

>  <origin>  (24) 
adg

>  <m_score__min__energy>  (24) 
-6.0999999999999996

>  <m_primary>  (24) 
energy

$$$$
24:0
     RDKit          3D

 39 41  0  0  0  0  0  0  0  0999 V2000
   58.8950   29.6770   49.5090 C   0  0  0  0  0  0  0  0  0  0  0  0
   59.3820   29.9090   48.1510 N   0  0  0  0  0  0  0  0  0  0  0  0
   59.9350   31.0400   47.6400 C   0  0  0  0  0  0  0  0  0  0  0  0
   60.2880   32.5130   48.6040 S   0  0  0  0  0  0  0  0  0  0  0  0
   58.8570   33.4670   47.9720 C   0  0  0  0  0  0  0  0  0  0  0  0
   59.2770   34.6590   47.1030 C   0  0  0  0  0  0  0  0  0  0  0  0
   59.0860   34.3710   45.6430 C   0  0  0  0  0  0  0  0  0  0  0  0
   59.2930   35.2830   44.7980 O   0  0  0  0  0  0  0  0  0  0  0  0
   58.6220   33.0820   45.2190 N   0  0  0  0  0  0  0  0  0  0  0  0
   58.1180   32.8460   43.8700 C   0  0  0  0  0  0  0  0  0  0  0  0
   57.3750   31.5480   43.8250 C   0  0  0  0  0  0  0  0  0  0  0  0
   57.0170   30.8650   42.6810 C   0  0  0  0  0  0  0  0  0  0  0  0
   56.3960   29.7150   43.1170 C   0  0  0  0  0  0  0  0  0  0  0  0
   56.4170   29.7670   44.4970 C   0  0  0  0  0  0  0  0  0  0  0  0
   57.0100   30.8720   44.8900 O   0  0  0  0  0  0  0  0  0  0  0  0
   60.2030   30.9610   46.3110 N   0  0  0  0  0  0  0  0  0  0  0  0
   59.7740   29.7270   45.9910 C   0  0  0  0  0  0  0  0  0  0  0  0
   59.7900   29.1220   44.7360 C   0  0  0  0  0  0  0  0  0  0  0  0
   59.2600   27.8230   44.6290 C   0  0  0  0  0  0  0  0  0  0  0  0
   58.7300   27.1690   45.7650 C   0  0  0  0  0  0  0  0  0  0  0  0
   58.7280   27.8080   47.0190 C   0  0  0  0  0  0  0  0  0  0  0  0
   59.2700   29.0930   47.0900 C   0  0  0  0  0  0  0  0  0  0  0  0
   59.6429   30.0333   50.2326 H   0  0  0  0  0  0  0  0  0  0  0  0
   57.9515   30.2224   49.6583 H   0  0  0  0  0  0  0  0  0  0  0  0
   58.7240   28.6007   49.6583 H   0  0  0  0  0  0  0  0  0  0  0  0
   58.2262   32.7971   47.3692 H   0  0  0  0  0  0  0  0  0  0  0  0
   58.3133   33.8651   48.8414 H   0  0  0  0  0  0  0  0  0  0  0  0
   58.6682   35.5331   47.3773 H   0  0  0  0  0  0  0  0  0  0  0  0
   60.3452   34.8542   47.2789 H   0  0  0  0  0  0  0  0  0  0  0  0
   58.5650   32.3070   45.9170 H   0  0  0  0  0  0  0  0  0  0  0  0
   57.4404   33.6644   43.5852 H   0  0  0  0  0  0  0  0  0  0  0  0
   58.9645   32.8038   43.1688 H   0  0  0  0  0  0  0  0  0  0  0  0
   57.1908   31.1737   41.6396 H   0  0  0  0  0  0  0  0  0  0  0  0
   55.9695   28.9165   42.4921 H   0  0  0  0  0  0  0  0  0  0  0  0
   56.0004   28.9996   45.1660 H   0  0  0  0  0  0  0  0  0  0  0  0
   60.2028   29.6420   43.8590 H   0  0  0  0  0  0  0  0  0  0  0  0
   59.2580   27.3126   43.6546 H   0  0  0  0  0  0  0  0  0  0  0  0
   58.3166   26.1543   45.6681 H   0  0  0  0  0  0  0  0  0  0  0  0
   58.3147   27.3134   47.9104 H   0  0  0  0  0  0  0  0  0  0  0  0
  1  2  1  0
  2  3  1  0
  3  4  1  0
  4  5  1  0
  5  6  1  0
  6  7  1  0
  7  8  2  0
  7  9  1  0
  9 10  1  0
 10 11  1  0
 11 12  2  0
 12 13  1  0
 13 14  2  0
 14 15  1  0
  3 16  2  0
 16 17  1  0
 17 18  2  0
 18 19  1  0
 19 20  2  0
 20 21  1  0
 21 22  2  0
 22  2  1  0
 15 11  1  0
 22 17  1  0
  1 23  1  0
  1 24  1  0
  1 25  1  0
  5 26  1  0
  5 27  1  0
  6 28  1  0
  6 29  1  0
  9 30  1  0
 10 31  1  0
 10 32  1  0
 12 33  1  0
 13 34  1  0
 14 35  1  0
 18 36  1  0
 19 37  1  0
 20 38  1  0
 21 39  1  0
M  END
>  <UniqueID>  (25) 
24

>  <SMILES>  (25) 
Cn1c(SCCC(=O)NCc2ccco2)nc2ccccc21

>  <Energy>  (25) 
93.39089397630238

>  <Genealogy>  (25) 
Cn1c(SCCC(=O)NCc2ccco2)nc2ccccc21 (3D coordinates assigned)
Cn1c(SCCC(=O)NCc2ccco2)nc2ccccc21 (optimized conformer: 93.39089397630238 kcal/mol)

>  <smiles>  (25) 
Cn1c(SCCC(=O)NCc2ccco2)nc2ccccc21

>  <score_type>  (25) 
oracle

>  <origin>  (25) 
adg

>  <m_score__min__energy>  (25) 
-7.7599999999999998

>  <m_primary>  (25) 
energy

$$$$
25:0
     RDKit          3D

 35 36  0  0  0  0  0  0  0  0999 V2000
   59.6340   29.3610   47.3610 C   0  0  0  0  0  0  0  0  0  0  0  0
   58.6450   28.6800   46.5310 N   0  0  0  0  0  0  0  0  0  0  0  0
   58.6880   27.2670   46.2360 C   0  0  0  0  0  0  0  0  0  0  0  0
   59.8910   26.5410   46.3650 C   0  0  0  0  0  0  0  0  0  0  0  0
   59.9450   25.1850   46.0390 C   0  0  0  0  0  0  0  0  0  0  0  0
   58.8030   24.5260   45.5870 C   0  0  0  0  0  0  0  0  0  0  0  0
   58.8830   22.6710   45.1410 Br  0  0  0  0  0  0  0  0  0  0  0  0
   57.6010   25.2230   45.4600 C   0  0  0  0  0  0  0  0  0  0  0  0
   57.5320   26.5890   45.7720 C   0  0  0  0  0  0  0  0  0  0  0  0
   56.2350   27.2820   45.6250 C   0  0  0  0  0  0  0  0  0  0  0  0
   55.1820   26.6990   45.9940 O   0  0  0  0  0  0  0  0  0  0  0  0
   56.1430   28.6000   45.0660 N   0  0  0  0  0  0  0  0  0  0  0  0
   56.8920   29.0700   43.9040 C   0  0  0  0  0  0  0  0  0  0  0  0
   56.4780   30.4970   43.5340 C   0  0  0  0  0  0  0  0  0  0  0  0
   57.2780   31.4960   44.3160 C   0  0  0  0  0  0  0  0  0  0  0  0
   57.8120   32.6300   43.6870 C   0  0  0  0  0  0  0  0  0  0  0  0
   58.5230   33.5620   44.4470 C   0  0  0  0  0  0  0  0  0  0  0  0
   58.6890   33.3590   45.8180 C   0  0  0  0  0  0  0  0  0  0  0  0
   58.1330   32.2240   46.4120 C   0  0  0  0  0  0  0  0  0  0  0  0
   57.4420   31.3280   45.6570 N   0  0  0  0  0  0  0  0  0  0  0  0
   59.3967   29.1976   48.4226 H   0  0  0  0  0  0  0  0  0  0  0  0
   60.6346   28.9595   47.1429 H   0  0  0  0  0  0  0  0  0  0  0  0
   59.6159   30.4390   47.1429 H   0  0  0  0  0  0  0  0  0  0  0  0
   57.8830   29.2730   46.1340 H   0  0  0  0  0  0  0  0  0  0  0  0
   60.7968   27.0496   46.7267 H   0  0  0  0  0  0  0  0  0  0  0  0
   60.8920   24.6345   46.1391 H   0  0  0  0  0  0  0  0  0  0  0  0
   56.6997   24.6969   45.1122 H   0  0  0  0  0  0  0  0  0  0  0  0
   57.9669   29.0548   44.1370 H   0  0  0  0  0  0  0  0  0  0  0  0
   56.6765   28.4074   43.0528 H   0  0  0  0  0  0  0  0  0  0  0  0
   56.6504   30.6567   42.4594 H   0  0  0  0  0  0  0  0  0  0  0  0
   55.4123   30.6309   43.7713 H   0  0  0  0  0  0  0  0  0  0  0  0
   57.6725   32.7840   42.6068 H   0  0  0  0  0  0  0  0  0  0  0  0
   58.9511   34.4539   43.9660 H   0  0  0  0  0  0  0  0  0  0  0  0
   59.2514   34.0848   46.4237 H   0  0  0  0  0  0  0  0  0  0  0  0
   58.2540   32.0543   47.4921 H   0  0  0  0  0  0  0  0  0  0  0  0
  1  2  1  0
  2  3  1  0
  3  4  2  0
  4  5  1  0
  5  6  2  0
  6  7  1  0
  6  8  1  0
  8  9  2  0
  9 10  1  0
 10 11  2  0
 10 12  1  0
 12 13  1  0
 13 14  1  0
 14 15  1  0
 15 16  2  0
 16 17  1  0
 17 18  2  0
 18 19  1  0
 19 20  2  0
  9  3  1  0
 20 15  1  0
  1 21  1  0
  1 22  1  0
  1 23  1  0
  2 24  1  0
  4 25  1  0
  5 26  1  0
  8 27  1  0
 13 28  1  0
 13 29  1  0
 14 30  1  0
 14 31  1  0
 16 32  1  0
 17 33  1  0
 18 34  1  0
 19 35  1  0
M  CHG  1  12  -1
M  END
>  <UniqueID>  (26) 
25

>  <SMILES>  (26) 
CNc1ccc(Br)cc1C(=O)[N-]CCc1ccccn1

>  <Energy>  (26) 
36.84772970402919

>  <Genealogy>  (26) 
CNc1ccc(Br)cc1C(=O)[N-]CCc1ccccn1 (protonated)
CNc1ccc(Br)cc1C(=O)[N-]CCc1ccccn1 (3D coordinates assigned)
CNc1ccc(Br)cc1C(=O)[N-]CCc1ccccn1 (optimized conformer: 36.84772970402919 kcal/mol)

>  <smiles>  (26) 
CNc1ccc(Br)cc1C(=O)NCCc1ccccn1

>  <score_type>  (26) 
oracle

>  <origin>  (26) 
adg

>  <m_score__min__energy>  (26) 
-8.9800000000000004

>  <m_primary>  (26) 
energy

$$$$
