0:0
     RDKit          3D

 57 60  0  0  0  0  0  0  0  0999 V2000
   55.6460   30.4650   44.1210 C   0  0  0  0  0  0  0  0  0  0  0  0
   56.6130   29.4280   44.5930 C   0  0  0  0  0  0  0  0  0  0  0  0
   57.9850   29.5790   44.3540 C   0  0  0  0  0  0  0  0  0  0  0  0
   58.8780   28.5950   44.7980 C   0  0  0  0  0  0  0  0  0  0  0  0
   60.3570   28.7630   44.5760 C   0  0  0  0  0  0  0  0  0  0  0  0
   61.0560   28.8130   45.8200 O   0  0  0  0  0  0  0  0  0  0  0  0
   60.7610   29.6810   46.8840 C   0  0  0  0  0  0  0  0  0  0  0  0
   59.9150   29.2180   47.8960 C   0  0  0  0  0  0  0  0  0  0  0  0
   59.6040   30.0300   48.9880 C   0  0  0  0  0  0  0  0  0  0  0  0
   60.1360   31.3230   49.0880 C   0  0  0  0  0  0  0  0  0  0  0  0
   60.9610   31.8130   48.0550 C   0  0  0  0  0  0  0  0  0  0  0  0
   61.2860   30.9830   46.9710 C   0  0  0  0  0  0  0  0  0  0  0  0
   61.5710   33.1910   48.1360 C   0  0  0  0  0  0  0  0  0  0  0  0
   60.8170   34.1050   49.0330 N   0  0  1  0  0  0  0  0  0  0  0  0
   59.5780   34.7250   48.4490 C   0  0  0  0  0  0  0  0  0  0  0  0
   59.1250   34.1890   47.1010 C   0  0  0  0  0  0  0  0  0  0  0  0
   58.1270   33.2010   47.0190 C   0  0  0  0  0  0  0  0  0  0  0  0
   57.7040   32.7250   45.7740 C   0  0  0  0  0  0  0  0  0  0  0  0
   58.2550   33.2470   44.6020 C   0  0  0  0  0  0  0  0  0  0  0  0
   59.2350   34.2390   44.6710 C   0  0  0  0  0  0  0  0  0  0  0  0
   59.6680   34.7110   45.9130 C   0  0  0  0  0  0  0  0  0  0  0  0
   60.5670   33.4840   50.3660 C   0  0  2  0  0  0  0  0  0  0  0  0
   61.8740   33.2170   51.1420 C   0  0  0  0  0  0  0  0  0  0  0  0
   59.7300   32.1910   50.2510 C   0  0  0  0  0  0  0  0  0  0  0  0
   58.3810   27.4770   45.4820 C   0  0  0  0  0  0  0  0  0  0  0  0
   57.0020   27.3540   45.6950 C   0  0  0  0  0  0  0  0  0  0  0  0
   56.4520   26.1670   46.4190 C   0  0  0  0  0  0  0  0  0  0  0  0
   56.1610   28.3280   45.2530 N   0  0  0  0  0  0  0  0  0  0  0  0
   55.1853   30.9590   44.9892 H   0  0  0  0  0  0  0  0  0  0  0  0
   56.1773   31.2122   43.5132 H   0  0  0  0  0  0  0  0  0  0  0  0
   54.8636   29.9871   43.5132 H   0  0  0  0  0  0  0  0  0  0  0  0
   58.3592   30.4653   43.8206 H   0  0  0  0  0  0  0  0  0  0  0  0
   60.7315   27.9134   43.9862 H   0  0  0  0  0  0  0  0  0  0  0  0
   60.5269   29.7078   44.0389 H   0  0  0  0  0  0  0  0  0  0  0  0
   59.4908   28.2052   47.8312 H   0  0  0  0  0  0  0  0  0  0  0  0
   58.9362   29.6522   49.7762 H   0  0  0  0  0  0  0  0  0  0  0  0
   61.9572   31.3540   46.1824 H   0  0  0  0  0  0  0  0  0  0  0  0
   62.5998   33.0978   48.5141 H   0  0  0  0  0  0  0  0  0  0  0  0
   61.5442   33.6240   47.1252 H   0  0  0  0  0  0  0  0  0  0  0  0
   61.4670   34.9100   49.2090 H   0  0  0  0  0  0  0  0  0  0  0  0
   58.7569   34.5692   49.1642 H   0  0  0  0  0  0  0  0  0  0  0  0
   59.8346   35.7800   48.2726 H   0  0  0  0  0  0  0  0  0  0  0  0
   57.6768   32.8006   47.9393 H   0  0  0  0  0  0  0  0  0  0  0  0
   56.9367   31.9388   45.7179 H   0  0  0  0  0  0  0  0  0  0  0  0
   57.9166   32.8762   43.6232 H   0  0  0  0  0  0  0  0  0  0  0  0
   59.6669   34.6496   43.7464 H   0  0  0  0  0  0  0  0  0  0  0  0
   60.4378   35.4952   45.9619 H   0  0  0  0  0  0  0  0  0  0  0  0
   59.9830   34.2178   50.9409 H   0  0  0  0  0  0  0  0  0  0  0  0
   61.6736   33.2579   52.2228 H   0  0  0  0  0  0  0  0  0  0  0  0
   62.2602   32.2214   50.8781 H   0  0  0  0  0  0  0  0  0  0  0  0
   62.6198   33.9813   50.8781 H   0  0  0  0  0  0  0  0  0  0  0  0
   59.8514   31.6122   51.1785 H   0  0  0  0  0  0  0  0  0  0  0  0
   58.6849   32.4916   50.0856 H   0  0  0  0  0  0  0  0  0  0  0  0
   59.0693   26.7014   45.8491 H   0  0  0  0  0  0  0  0  0  0  0  0
   56.5282   26.3316   47.5039 H   0  0  0  0  0  0  0  0  0  0  0  0
   55.3966   26.0257   46.1428 H   0  0  0  0  0  0  0  0  0  0  0  0
   57.0265   25.2705   46.1428 H   0  0  0  0  0  0  0  0  0  0  0  0
  1  2  1  0
  2  3  2  0
  3  4  1  0
  4  5  1  0
  5  6  1  0
  6  7  1  0
  7  8  2  0
  8  9  1  0
  9 10  2  0
 10 11  1  0
 11 12  2  0
 11 13  1  0
 13 14  1  0
 14 15  1  0
 15 16  1  0
 16 17  2  0
 17 18  1  0
 18 19  2  0
 19 20  1  0
 20 21  2  0
 14 22  1  0
 22 23  1  0
 22 24  1  0
  4 25  2  0
 25 26  1  0
 26 27  1  0
 26 28  2  0
 28  2  1  0
 12  7  1  0
 21 16  1  0
 24 10  1  0
  1 29  1  0
  1 30  1  0
  1 31  1  0
  3 32  1  0
  5 33  1  0
  5 34  1  0
  8 35  1  0
  9 36  1  0
 12 37  1  0
 13 38  1  0
 13 39  1  0
 14 40  1  1
 15 41  1  0
 15 42  1  0
 17 43  1  0
 18 44  1  0
 19 45  1  0
 20 46  1  0
 21 47  1  0
 22 48  1  1
 23 49  1  0
 23 50  1  0
 23 51  1  0
 24 52  1  0
 24 53  1  0
 25 54  1  0
 27 55  1  0
 27 56  1  0
 27 57  1  0
M  CHG  1  14   1
M  END
>  <UniqueID>  (1) 
1

>  <SMILES>  (1) 
Cc1cc(COc2ccc3c(c2)C[N@@H+](Cc2ccccc2)[C@H](C)C3)cc(C)n1

>  <Energy>  (1) 
68.29703138273234

>  <Genealogy>  (1) 
Cc1cc(COc2ccc3c(c2)C[NH+](Cc2ccccc2)C(C)C3)cc(C)n1 (protonated)
Cc1cc(COc2ccc3c(c2)C[N@@H+](Cc2ccccc2)[C@H](C)C3)cc(C)n1 (chirality)
Cc1cc(COc2ccc3c(c2)C[N@@H+](Cc2ccccc2)[C@H](C)C3)cc(C)n1 (3D coordinates assigned)
Cc1cc(COc2ccc3c(c2)C[N@@H+](Cc2ccccc2)[C@H](C)C3)cc(C)n1 (nonaromatic ring conformer: 68.29703138273234 kcal/mol)

>  <smiles>  (1) 
Cc1cc(COc2ccc3c(c2)CN(Cc2ccccc2)C(C)C3)cc(C)n1

>  <score_type>  (1) 
oracle

>  <origin>  (1) 
adg

>  <m_score__min__energy>  (1) 
-7.1699999999999999

>  <m_primary>  (1) 
energy

$$$$
1:0
     RDKit          3D

 26 27  0  0  0  0  0  0  0  0999 V2000
   57.9570   35.2050   52.0480 H   0  0  0  0  0  0  0  0  0  0  0  0
   57.7820   34.3520   52.5650 O   0  0  0  0  0  0  0  0  0  0  0  0
   57.9100   33.0990   51.9690 C   0  0  0  0  0  0  0  0  0  0  0  0
   58.8930   32.8700   50.9960 C   0  0  0  0  0  0  0  0  0  0  0  0
   59.5790   33.6794   50.7057 H   0  0  0  0  0  0  0  0  0  0  0  0
   59.0010   31.6130   50.3950 C   0  0  0  0  0  0  0  0  0  0  0  0
   59.7671   31.4361   49.6257 H   0  0  0  0  0  0  0  0  0  0  0  0
   58.1370   30.5800   50.7700 C   0  0  0  0  0  0  0  0  0  0  0  0
   58.2117   29.5979   50.2802 H   0  0  0  0  0  0  0  0  0  0  0  0
   57.1730   30.7920   51.7710 C   0  0  0  0  0  0  0  0  0  0  0  0
   56.2490   29.7610   52.1560 N   0  0  0  0  0  0  0  0  0  0  0  0
   55.2310   29.8690   52.9620 C   0  0  0  0  0  0  0  0  0  0  0  0
   55.3066   29.3950   53.9518 H   0  0  0  0  0  0  0  0  0  0  0  0
   53.9790   30.5880   52.6330 C   0  0  0  0  0  0  0  0  0  0  0  0
   53.8070   31.1070   51.3420 C   0  0  0  0  0  0  0  0  0  0  0  0
   54.5908   30.9604   50.5843 H   0  0  0  0  0  0  0  0  0  0  0  0
   52.6440   31.8100   51.0130 C   0  0  0  0  0  0  0  0  0  0  0  0
   52.5093   32.2011   49.9937 H   0  0  0  0  0  0  0  0  0  0  0  0
   51.6530   32.0170   51.9750 C   0  0  0  0  0  0  0  0  0  0  0  0
   50.4980   32.7140   51.6350 O   0  0  0  0  0  0  0  0  0  0  0  0
   51.8270   31.5280   53.2760 C   0  0  0  0  0  0  0  0  0  0  0  0
   50.6000   31.7930   54.5040 Cl  0  0  0  0  0  0  0  0  0  0  0  0
   52.9930   30.8270   53.6070 C   0  0  0  0  0  0  0  0  0  0  0  0
   53.1386   30.4613   54.6342 H   0  0  0  0  0  0  0  0  0  0  0  0
   57.0470   32.0640   52.3440 C   0  0  0  0  0  0  0  0  0  0  0  0
   56.2641   32.2502   53.0939 H   0  0  0  0  0  0  0  0  0  0  0  0
  1  2  1  0
  2  3  1  0
  3  4  2  0
  4  5  1  0
  4  6  1  0
  6  7  1  0
  6  8  2  0
  8  9  1  0
  8 10  1  0
 10 11  1  0
 11 12  2  0
 12 13  1  0
 12 14  1  0
 14 15  2  0
 15 16  1  0
 15 17  1  0
 17 18  1  0
 17 19  2  0
 19 20  1  0
 19 21  1  0
 21 22  1  0
 21 23  2  0
 23 24  1  0
 10 25  2  0
 25 26  1  0
 25  3  1  0
 23 14  1  0
M  CHG  1  20  -1
M  END
>  <UniqueID>  (2) 
2

>  <SMILES>  (2) 
[O-]c1ccc(/C=N\c2cccc(O)c2)cc1Cl

>  <Energy>  (2) 
37.823839054717126

>  <Genealogy>  (2) 
[O-]c1ccc(C=Nc2cccc(O)c2)cc1Cl (protonated)
[O-]c1ccc(/C=N\c2cccc(O)c2)cc1Cl (cis-trans isomerization)
[O-]c1ccc(/C=N\c2cccc(O)c2)cc1Cl (3D coordinates assigned)
[O-]c1ccc(/C=N\c2cccc(O)c2)cc1Cl (optimized conformer: 37.823839054717126 kcal/mol)

>  <smiles>  (2) 
Oc1cccc(N=Cc2ccc(O)c(Cl)c2)c1

>  <score_type>  (2) 
oracle

>  <origin>  (2) 
adg

>  <m_score__min__energy>  (2) 
-9.7300000000000004

>  <m_primary>  (2) 
energy

$$$$
2:0
     RDKit          3D

 37 40  0  0  0  0  0  0  0  0999 V2000
   63.3850   31.8720   49.3590 C   0  0  0  0  0  0  0  0  0  0  0  0
   63.4450   32.1860   47.9980 C   0  0  0  0  0  0  0  0  0  0  0  0
   62.4800   31.6840   47.1200 C   0  0  0  0  0  0  0  0  0  0  0  0
   61.4520   30.8540   47.5960 C   0  0  0  0  0  0  0  0  0  0  0  0
   60.4340   30.3250   46.6580 C   0  0  0  0  0  0  0  0  0  0  0  0
   60.4300   28.9910   46.3790 N   0  0  0  0  0  0  0  0  0  0  0  0
   59.5590   28.4540   45.5270 N   0  0  0  0  0  0  0  0  0  0  0  0
   58.6160   29.2010   44.9030 C   0  0  0  0  0  0  0  0  0  0  0  0
   57.7160   28.5880   44.0240 C   0  0  0  0  0  0  0  0  0  0  0  0
   56.7250   29.3450   43.3960 C   0  0  0  0  0  0  0  0  0  0  0  0
   56.6250   30.7140   43.6480 C   0  0  0  0  0  0  0  0  0  0  0  0
   57.5210   31.3350   44.5240 C   0  0  0  0  0  0  0  0  0  0  0  0
   58.5390   30.5870   45.1540 C   0  0  0  0  0  0  0  0  0  0  0  0
   59.4720   31.1660   46.0470 C   0  0  0  0  0  0  0  0  0  0  0  0
   59.4230   32.6110   46.3770 C   0  0  0  0  0  0  0  0  0  0  0  0
   59.5780   33.5740   45.3660 C   0  0  0  0  0  0  0  0  0  0  0  0
   59.5590   34.9360   45.6840 C   0  0  0  0  0  0  0  0  0  0  0  0
   59.3900   35.3440   47.0110 C   0  0  0  0  0  0  0  0  0  0  0  0
   59.2390   34.3900   48.0220 C   0  0  0  0  0  0  0  0  0  0  0  0
   59.2550   33.0270   47.7080 C   0  0  0  0  0  0  0  0  0  0  0  0
   61.3890   30.5560   48.9690 C   0  0  0  0  0  0  0  0  0  0  0  0
   62.3570   31.0600   49.8430 C   0  0  0  0  0  0  0  0  0  0  0  0
   64.1472   32.2643   50.0483 H   0  0  0  0  0  0  0  0  0  0  0  0
   64.2525   32.8288   47.6176 H   0  0  0  0  0  0  0  0  0  0  0  0
   62.5261   31.9403   46.0513 H   0  0  0  0  0  0  0  0  0  0  0  0
   61.1380   28.3640   46.8230 H   0  0  0  0  0  0  0  0  0  0  0  0
   57.7894   27.5082   43.8275 H   0  0  0  0  0  0  0  0  0  0  0  0
   56.0220   28.8616   42.7016 H   0  0  0  0  0  0  0  0  0  0  0  0
   55.8392   31.3062   43.1562 H   0  0  0  0  0  0  0  0  0  0  0  0
   57.4319   32.4131   44.7234 H   0  0  0  0  0  0  0  0  0  0  0  0
   59.7146   33.2562   44.3218 H   0  0  0  0  0  0  0  0  0  0  0  0
   59.6771   35.6873   44.8892 H   0  0  0  0  0  0  0  0  0  0  0  0
   59.3759   36.4155   47.2594 H   0  0  0  0  0  0  0  0  0  0  0  0
   59.1075   34.7117   49.0656 H   0  0  0  0  0  0  0  0  0  0  0  0
   59.1357   32.2789   48.5056 H   0  0  0  0  0  0  0  0  0  0  0  0
   60.5758   29.9246   49.3564 H   0  0  0  0  0  0  0  0  0  0  0  0
   62.3087   30.8163   50.9146 H   0  0  0  0  0  0  0  0  0  0  0  0
  1  2  2  0
  2  3  1  0
  3  4  2  0
  4  5  1  0
  5  6  2  0
  6  7  1  0
  7  8  2  0
  8  9  1  0
  9 10  2  0
 10 11  1  0
 11 12  2  0
 12 13  1  0
 13 14  2  0
 14 15  1  0
 15 16  2  0
 16 17  1  0
 17 18  2  0
 18 19  1  0
 19 20  2  0
  4 21  1  0
 21 22  2  0
 22  1  1  0
 14  5  1  0
 20 15  1  0
 13  8  1  0
  1 23  1  0
  2 24  1  0
  3 25  1  0
  6 26  1  0
  9 27  1  0
 10 28  1  0
 11 29  1  0
 12 30  1  0
 16 31  1  0
 17 32  1  0
 18 33  1  0
 19 34  1  0
 20 35  1  0
 21 36  1  0
 22 37  1  0
M  CHG  1   6   1
M  END
>  <UniqueID>  (3) 
3

>  <SMILES>  (3) 
c1ccc(-c2[nH+]nc3ccccc3c2-c2ccccc2)cc1

>  <Energy>  (3) 
60.28996671501211

>  <Genealogy>  (3) 
c1ccc(-c2[nH+]nc3ccccc3c2-c2ccccc2)cc1 (protonated)
c1ccc(-c2[nH+]nc3ccccc3c2-c2ccccc2)cc1 (3D coordinates assigned)
c1ccc(-c2[nH+]nc3ccccc3c2-c2ccccc2)cc1 (optimized conformer: 60.28996671501211 kcal/mol)

>  <smiles>  (3) 
c1ccc(-c2nnc3ccccc3c2-c2ccccc2)cc1

>  <score_type>  (3) 
oracle

>  <origin>  (3) 
adg

>  <m_score__min__energy>  (3) 
-6.5

>  <m_primary>  (3) 
energy

$$$$
3:0
     RDKit          3D

 37 39  0  0  0  0  0  0  0  0999 V2000
   60.5079   26.9287   47.9518 H   0  0  0  0  0  0  0  0  0  0  0  0
   59.5390   27.0880   47.4560 C   0  0  0  0  0  0  0  0  0  0  0  0
   59.2810   28.3190   46.7910 C   0  0  0  0  0  0  0  0  0  0  0  0
   60.2610   29.3650   46.7240 N   0  0  0  0  0  0  0  0  0  0  0  0
   60.0210   30.7720   46.8570 C   0  0  0  0  0  0  0  0  0  0  0  0
   60.5090   31.4190   47.8220 O   0  0  0  0  0  0  0  0  0  0  0  0
   59.1530   31.4540   45.8920 C   0  0  0  0  0  0  0  0  0  0  0  0
   58.4230   32.9450   46.0830 S   0  0  0  0  0  0  0  0  0  0  0  0
   57.6240   33.0400   44.6330 N   0  0  0  0  0  0  0  0  0  0  0  0
   57.0090   33.8200   44.3110 H   0  0  0  0  0  0  0  0  0  0  0  0
   57.9160   31.9010   43.9560 C   0  0  0  0  0  0  0  0  0  0  0  0
   57.3250   31.6040   42.6100 C   0  0  0  0  0  0  0  0  0  0  0  0
   58.1335   31.5302   41.8677 H   0  0  0  0  0  0  0  0  0  0  0  0
   56.6337   32.4152   42.3377 H   0  0  0  0  0  0  0  0  0  0  0  0
   56.5510   30.2840   42.6450 C   0  0  0  0  0  0  0  0  0  0  0  0
   57.2612   29.4491   42.5520 H   0  0  0  0  0  0  0  0  0  0  0  0
   55.8342   30.2784   41.8106 H   0  0  0  0  0  0  0  0  0  0  0  0
   55.7750   30.1340   43.9490 C   0  0  0  0  0  0  0  0  0  0  0  0
   56.4592   30.2663   44.8001 H   0  0  0  0  0  0  0  0  0  0  0  0
   54.9826   30.8956   43.9938 H   0  0  0  0  0  0  0  0  0  0  0  0
   55.3235   29.1319   43.9938 H   0  0  0  0  0  0  0  0  0  0  0  0
   58.7600   30.9940   44.6380 C   0  0  0  0  0  0  0  0  0  0  0  0
   59.0735   30.0256   44.2210 H   0  0  0  0  0  0  0  0  0  0  0  0
   58.0530   28.5060   46.1250 C   0  0  0  0  0  0  0  0  0  0  0  0
   57.8415   29.4379   45.5802 H   0  0  0  0  0  0  0  0  0  0  0  0
   57.1150   27.4780   46.1760 C   0  0  0  0  0  0  0  0  0  0  0  0
   55.8930   27.4550   45.6230 N   0  0  0  0  0  0  0  0  0  0  0  0
   55.4380   26.2270   45.9850 C   0  0  0  0  0  0  0  0  0  0  0  0
   54.2600   25.8040   45.6400 N   0  0  0  0  0  0  0  0  0  0  0  0
   53.9570   24.4050   45.3640 C   0  0  0  0  0  0  0  0  0  0  0  0
   53.8392   23.8612   46.3129 H   0  0  0  0  0  0  0  0  0  0  0  0
   53.0238   24.3392   44.7854 H   0  0  0  0  0  0  0  0  0  0  0  0
   54.7794   23.9590   44.7854 H   0  0  0  0  0  0  0  0  0  0  0  0
   56.3060   25.4880   46.7280 N   0  0  0  0  0  0  0  0  0  0  0  0
   57.3600   26.3110   46.8320 C   0  0  0  0  0  0  0  0  0  0  0  0
   58.5650   26.0720   47.4850 C   0  0  0  0  0  0  0  0  0  0  0  0
   58.7504   25.1213   48.0063 H   0  0  0  0  0  0  0  0  0  0  0  0
  1  2  1  0
  2  3  2  0
  3  4  1  0
  4  5  1  0
  5  6  2  0
  5  7  1  0
  7  8  1  0
  8  9  1  0
  9 10  1  0
  9 11  2  0
 11 12  1  0
 12 13  1  0
 12 14  1  0
 12 15  1  0
 15 16  1  0
 15 17  1  0
 15 18  1  0
 18 19  1  0
 18 20  1  0
 18 21  1  0
 11 22  1  0
 22 23  1  0
  3 24  1  0
 24 25  1  0
 24 26  2  0
 26 27  1  0
 27 28  1  0
 28 29  2  0
 29 30  1  0
 30 31  1  0
 30 32  1  0
 30 33  1  0
 28 34  1  0
 34 35  1  0
 35 36  2  0
 36 37  1  0
 36  2  1  0
 22  7  2  0
 35 26  1  0
M  CHG  4   4  -1   9   1  27  -1  34  -1
M  END
>  <UniqueID>  (4) 
4

>  <SMILES>  (4) 
CCCc1cc(C(=O)[N-]c2ccc3[n-]/c(=N\C)[n-]c3c2)s[nH+]1

>  <Energy>  (4) 
101.44999642346525

>  <Genealogy>  (4) 
CCCc1cc(C(=O)[N-]c2ccc3[n-]c(=NC)[n-]c3c2)s[nH+]1 (protonated)
CCCc1cc(C(=O)[N-]c2ccc3[n-]/c(=N\C)[n-]c3c2)s[nH+]1 (cis-trans isomerization)
CCCc1cc(C(=O)[N-]c2ccc3[n-]/c(=N\C)[n-]c3c2)s[nH+]1 (3D coordinates assigned)
CCCc1cc(C(=O)[N-]c2ccc3[n-]/c(=N\C)[n-]c3c2)s[nH+]1 (optimized conformer: 101.44999642346525 kcal/mol)

>  <smiles>  (4) 
CCCc1cc(C(=O)Nc2ccc3[nH]c(=NC)[nH]c3c2)sn1

>  <score_type>  (4) 
oracle

>  <origin>  (4) 
adg

>  <m_score__min__energy>  (4) 
-10.880000000000001

>  <m_primary>  (4) 
energy

$$$$
4:0
     RDKit          3D

 32 34  0  0  0  0  0  0  0  0999 V2000
   56.5820   29.8980   42.7410 C   0  0  0  0  0  0  0  0  0  0  0  0
   56.7210   29.9400   44.1570 O   0  0  0  0  0  0  0  0  0  0  0  0
   57.4020   30.9470   44.8620 C   0  0  0  0  0  0  0  0  0  0  0  0
   56.9500   32.2820   44.8690 C   0  0  0  0  0  0  0  0  0  0  0  0
   57.6160   33.2500   45.6230 C   0  0  0  0  0  0  0  0  0  0  0  0
   58.7380   32.9040   46.3800 C   0  0  0  0  0  0  0  0  0  0  0  0
   59.5810   34.1470   47.3600 S   0  0  0  0  0  0  0  0  0  0  0  0
   59.6410   35.3540   45.9990 C   0  0  0  0  0  0  0  0  0  0  0  0
   59.1990   31.5830   46.3770 C   0  0  0  0  0  0  0  0  0  0  0  0
   58.5530   30.6070   45.6030 C   0  0  0  0  0  0  0  0  0  0  0  0
   59.0760   29.2270   45.6150 C   0  0  0  0  0  0  0  0  0  0  0  0
   60.3930   28.9230   45.6260 N   0  0  0  0  0  0  0  0  0  0  0  0
   60.4920   27.5970   45.6680 N   0  0  0  0  0  0  0  0  0  0  0  0
   59.2340   27.1170   45.6750 C   0  0  0  0  0  0  0  0  0  0  0  0
   58.3370   28.1050   45.6380 N   0  0  0  0  0  0  0  0  0  0  0  0
   56.9440   27.9420   45.6580 N   0  0  0  0  0  0  0  0  0  0  0  0
   56.3900   26.6910   46.0790 C   0  0  0  0  0  0  0  0  0  0  0  0
   55.1460   26.5040   46.0210 O   0  0  0  0  0  0  0  0  0  0  0  0
   57.2860   25.6270   46.6590 C   0  0  0  0  0  0  0  0  0  0  0  0
   58.7790   25.3860   45.6260 S   0  0  0  0  0  0  0  0  0  0  0  0
   55.5586   29.5888   42.4820 H   0  0  0  0  0  0  0  0  0  0  0  0
   56.7802   30.8961   42.3233 H   0  0  0  0  0  0  0  0  0  0  0  0
   57.2998   29.1766   42.3233 H   0  0  0  0  0  0  0  0  0  0  0  0
   56.0668   32.5630   44.2766 H   0  0  0  0  0  0  0  0  0  0  0  0
   57.2558   34.2894   45.6210 H   0  0  0  0  0  0  0  0  0  0  0  0
   59.6916   36.3717   46.4134 H   0  0  0  0  0  0  0  0  0  0  0  0
   60.5309   35.1653   45.3805 H   0  0  0  0  0  0  0  0  0  0  0  0
   58.7368   35.2545   45.3805 H   0  0  0  0  0  0  0  0  0  0  0  0
   60.0733   31.3078   46.9852 H   0  0  0  0  0  0  0  0  0  0  0  0
   56.3130   28.7270   45.3770 H   0  0  0  0  0  0  0  0  0  0  0  0
   57.5943   25.9294   47.6707 H   0  0  0  0  0  0  0  0  0  0  0  0
   56.7274   24.6799   46.6915 H   0  0  0  0  0  0  0  0  0  0  0  0
  1  2  1  0
  2  3  1  0
  3  4  2  0
  4  5  1  0
  5  6  2  0
  6  7  1  0
  7  8  1  0
  6  9  1  0
  9 10  2  0
 10 11  1  0
 11 12  2  0
 12 13  1  0
 13 14  2  0
 14 15  1  0
 15 16  1  0
 16 17  1  0
 17 18  2  0
 17 19  1  0
 19 20  1  0
 10  3  1  0
 15 11  1  0
 20 14  1  0
  1 21  1  0
  1 22  1  0
  1 23  1  0
  4 24  1  0
  5 25  1  0
  8 26  1  0
  8 27  1  0
  8 28  1  0
  9 29  1  0
 16 30  1  0
 19 31  1  0
 19 32  1  0
M  END
>  <UniqueID>  (5) 
5

>  <SMILES>  (5) 
COc1ccc(SC)cc1-c1nnc2n1NC(=O)CS2

>  <Energy>  (5) 
75.45367192772191

>  <Genealogy>  (5) 
COc1ccc(SC)cc1-c1nnc2n1NC(=O)CS2 (3D coordinates assigned)
COc1ccc(SC)cc1-c1nnc2n1NC(=O)CS2 (nonaromatic ring conformer: 75.45367192772191 kcal/mol)

>  <smiles>  (5) 
COc1ccc(SC)cc1-c1nnc2n1NC(=O)CS2

>  <score_type>  (5) 
oracle

>  <origin>  (5) 
adg

>  <m_score__min__energy>  (5) 
-7.0099999999999998

>  <m_primary>  (5) 
energy

$$$$
5:0
     RDKit          3D

 31 31  0  0  0  0  0  0  0  0999 V2000
   54.8650   24.8060   45.5400 C   0  0  0  0  0  0  0  0  0  0  0  0
   55.4230   26.0170   45.9980 O   0  0  0  0  0  0  0  0  0  0  0  0
   56.6180   25.7480   46.7010 C   0  0  0  0  0  0  0  0  0  0  0  0
   57.6840   25.2350   45.7290 C   0  0  0  0  0  0  0  0  0  0  0  0
   58.1370   26.3070   44.7250 C   0  0  0  0  0  0  0  0  0  0  0  0
   57.3850   27.5550   44.8860 N   0  0  0  0  0  0  0  0  0  0  0  0
   58.0000   28.8050   45.2630 C   0  0  0  0  0  0  0  0  0  0  0  0
   59.3410   28.8550   45.6960 C   0  0  0  0  0  0  0  0  0  0  0  0
   59.9280   30.0680   46.0580 C   0  0  0  0  0  0  0  0  0  0  0  0
   59.1910   31.2500   45.9920 C   0  0  0  0  0  0  0  0  0  0  0  0
   59.9340   32.7720   46.4480 Cl  0  0  0  0  0  0  0  0  0  0  0  0
   57.8620   31.2210   45.5650 C   0  0  0  0  0  0  0  0  0  0  0  0
   57.2540   30.0030   45.1970 C   0  0  0  0  0  0  0  0  0  0  0  0
   55.9180   29.9490   44.7680 O   0  0  0  0  0  0  0  0  0  0  0  0
   55.5070   29.7350   43.4200 C   0  0  0  0  0  0  0  0  0  0  0  0
   54.5789   24.1851   46.4017 H   0  0  0  0  0  0  0  0  0  0  0  0
   53.9747   25.0199   44.9305 H   0  0  0  0  0  0  0  0  0  0  0  0
   55.6061   24.2682   44.9305 H   0  0  0  0  0  0  0  0  0  0  0  0
   56.9751   26.6707   47.1817 H   0  0  0  0  0  0  0  0  0  0  0  0
   56.4254   24.9829   47.4676 H   0  0  0  0  0  0  0  0  0  0  0  0
   58.5584   24.9038   46.3085 H   0  0  0  0  0  0  0  0  0  0  0  0
   57.2396   24.4088   45.1547 H   0  0  0  0  0  0  0  0  0  0  0  0
   59.2062   26.5126   44.8817 H   0  0  0  0  0  0  0  0  0  0  0  0
   57.9529   25.9250   43.7100 H   0  0  0  0  0  0  0  0  0  0  0  0
   56.3550   27.5380   44.7150 H   0  0  0  0  0  0  0  0  0  0  0  0
   59.9306   27.9279   45.7490 H   0  0  0  0  0  0  0  0  0  0  0  0
   60.9744   30.0919   46.3962 H   0  0  0  0  0  0  0  0  0  0  0  0
   57.2845   32.1559   45.5152 H   0  0  0  0  0  0  0  0  0  0  0  0
   54.5314   29.2270   43.4104 H   0  0  0  0  0  0  0  0  0  0  0  0
   55.4214   30.7031   42.9047 H   0  0  0  0  0  0  0  0  0  0  0  0
   56.2510   29.1098   42.9047 H   0  0  0  0  0  0  0  0  0  0  0  0
  1  2  1  0
  2  3  1  0
  3  4  1  0
  4  5  1  0
  5  6  1  0
  6  7  1  0
  7  8  2  0
  8  9  1  0
  9 10  2  0
 10 11  1  0
 10 12  1  0
 12 13  2  0
 13 14  1  0
 14 15  1  0
 13  7  1  0
  1 16  1  0
  1 17  1  0
  1 18  1  0
  3 19  1  0
  3 20  1  0
  4 21  1  0
  4 22  1  0
  5 23  1  0
  5 24  1  0
  6 25  1  0
  8 26  1  0
  9 27  1  0
 12 28  1  0
 15 29  1  0
 15 30  1  0
 15 31  1  0
M  END
>  <UniqueID>  (6) 
6

>  <SMILES>  (6) 
COCCCNc1ccc(Cl)cc1OC

>  <Energy>  (6) 
25.556616923091283

>  <Genealogy>  (6) 
COCCCNc1ccc(Cl)cc1OC (3D coordinates assigned)
COCCCNc1ccc(Cl)cc1OC (optimized conformer: 25.556616923091283 kcal/mol)

>  <smiles>  (6) 
COCCCNc1ccc(Cl)cc1OC

>  <score_type>  (6) 
oracle

>  <origin>  (6) 
adg

>  <m_score__min__energy>  (6) 
-6.46

>  <m_primary>  (6) 
energy

$$$$
6:0
     RDKit          3D

 37 38  0  0  0  0  0  0  0  0999 V2000
   51.0310   32.2670   50.0710 N   0  0  0  0  0  0  0  0  0  0  0  0
   51.3320   32.2330   51.4640 C   0  0  0  0  0  0  0  0  0  0  0  0
   50.7160   33.0110   52.2420 O   0  0  0  0  0  0  0  0  0  0  0  0
   52.3510   31.2970   51.9920 C   0  0  0  0  0  0  0  0  0  0  0  0
   52.0220   30.3740   53.0020 C   0  0  0  0  0  0  0  0  0  0  0  0
   52.9930   29.5120   53.5150 C   0  0  0  0  0  0  0  0  0  0  0  0
   54.2990   29.5480   53.0190 C   0  0  0  0  0  0  0  0  0  0  0  0
   54.6350   30.4340   51.9830 C   0  0  0  0  0  0  0  0  0  0  0  0
   55.9620   30.4880   51.4410 N   0  0  0  0  0  0  0  0  0  0  0  0
   57.1980   30.5710   52.1720 C   0  0  0  0  0  0  0  0  0  0  0  0
   57.6370   29.5300   52.7300 O   0  0  0  0  0  0  0  0  0  0  0  0
   57.9720   31.8510   52.3240 C   0  0  0  0  0  0  0  0  0  0  0  0
   58.4280   32.3220   51.0230 N   0  0  0  0  0  0  0  0  0  0  0  0
   59.7550   32.1120   50.5310 C   0  0  0  0  0  0  0  0  0  0  0  0
   60.5320   31.3280   51.1430 O   0  0  0  0  0  0  0  0  0  0  0  0
   60.2060   32.8030   49.3020 C   0  0  0  0  0  0  0  0  0  0  0  0
   59.3120   33.5910   48.5570 C   0  0  0  0  0  0  0  0  0  0  0  0
   59.7440   34.2580   47.4090 C   0  0  0  0  0  0  0  0  0  0  0  0
   61.0690   34.1430   46.9860 C   0  0  0  0  0  0  0  0  0  0  0  0
   61.9780   33.3470   47.7020 C   0  0  0  0  0  0  0  0  0  0  0  0
   63.4210   33.2790   47.2700 C   0  0  0  0  0  0  0  0  0  0  0  0
   63.6220   34.1610   46.2250 F   0  0  0  0  0  0  0  0  0  0  0  0
   64.2710   33.6110   48.3100 F   0  0  0  0  0  0  0  0  0  0  0  0
   63.7340   31.9990   46.8450 F   0  0  0  0  0  0  0  0  0  0  0  0
   61.5430   32.6960   48.8720 C   0  0  0  0  0  0  0  0  0  0  0  0
   53.6680   31.3210   51.4950 C   0  0  0  0  0  0  0  0  0  0  0  0
   50.0460   32.3470   49.7360 H   0  0  0  0  0  0  0  0  0  0  0  0
   50.9935   30.3314   53.3897 H   0  0  0  0  0  0  0  0  0  0  0  0
   52.7291   28.8019   54.3125 H   0  0  0  0  0  0  0  0  0  0  0  0
   55.0651   28.8810   53.4410 H   0  0  0  0  0  0  0  0  0  0  0  0
   57.3250   32.6146   52.7803 H   0  0  0  0  0  0  0  0  0  0  0  0
   58.8466   31.6670   52.9653 H   0  0  0  0  0  0  0  0  0  0  0  0
   58.2647   33.6829   48.8806 H   0  0  0  0  0  0  0  0  0  0  0  0
   59.0375   34.8764   46.8359 H   0  0  0  0  0  0  0  0  0  0  0  0
   61.4036   34.6794   46.0858 H   0  0  0  0  0  0  0  0  0  0  0  0
   62.2558   32.0966   49.4574 H   0  0  0  0  0  0  0  0  0  0  0  0
   53.9406   32.0456   50.7136 H   0  0  0  0  0  0  0  0  0  0  0  0
  1  2  1  0
  2  3  2  0
  2  4  1  0
  4  5  2  0
  5  6  1  0
  6  7  2  0
  7  8  1  0
  8  9  1  0
  9 10  1  0
 10 11  2  0
 10 12  1  0
 12 13  1  0
 13 14  1  0
 14 15  2  0
 14 16  1  0
 16 17  2  0
 17 18  1  0
 18 19  2  0
 19 20  1  0
 20 21  1  0
 21 22  1  0
 21 23  1  0
 21 24  1  0
 20 25  2  0
  8 26  2  0
 26  4  1  0
 25 16  1  0
  1 27  1  0
  5 28  1  0
  6 29  1  0
  7 30  1  0
 12 31  1  0
 12 32  1  0
 17 33  1  0
 18 34  1  0
 19 35  1  0
 25 36  1  0
 26 37  1  0
M  CHG  3   1  -1   9  -1  13  -1
M  END
>  <UniqueID>  (7) 
7

>  <SMILES>  (7) 
[NH-]C(=O)c1cccc([N-]C(=O)C[N-]C(=O)c2cccc(C(F)(F)F)c2)c1

>  <Energy>  (7) 
38.37722279620389

>  <Genealogy>  (7) 
[NH-]C(=O)c1cccc([N-]C(=O)C[N-]C(=O)c2cccc(C(F)(F)F)c2)c1 (protonated)
[NH-]C(=O)c1cccc([N-]C(=O)C[N-]C(=O)c2cccc(C(F)(F)F)c2)c1 (3D coordinates assigned)
[NH-]C(=O)c1cccc([N-]C(=O)C[N-]C(=O)c2cccc(C(F)(F)F)c2)c1 (optimized conformer: 38.37722279620389 kcal/mol)

>  <smiles>  (7) 
NC(=O)c1cccc(NC(=O)CNC(=O)c2cccc(C(F)(F)F)c2)c1

>  <score_type>  (7) 
oracle

>  <origin>  (7) 
adg

>  <m_score__min__energy>  (7) 
-13.16

>  <m_primary>  (7) 
energy

$$$$
7:0
     RDKit          3D

 70 74  0  0  0  0  0  0  0  0999 V2000
   65.6550   33.0810   50.2990 C   0  0  0  0  0  0  0  0  0  0  0  0
   64.2590   33.2560   50.7910 C   0  0  0  0  0  0  0  0  0  0  0  0
   63.9670   34.2650   51.4890 O   0  0  0  0  0  0  0  0  0  0  0  0
   63.3010   32.2780   50.5020 O   0  0  0  0  0  0  0  0  0  0  0  0
   62.0250   32.5590   49.9200 C   0  0  1  0  0  0  0  0  0  0  0  0
   61.9820   31.9740   48.4860 C   0  0  0  0  0  0  0  0  0  0  0  0
   60.6060   31.2970   48.3760 C   0  0  1  0  0  0  0  0  0  0  0  0
   59.5720   32.4010   47.9780 C   0  0  0  0  0  0  0  0  0  0  0  0
   60.4060   30.1760   47.3730 C   0  0  0  0  0  0  0  0  0  0  0  0
   61.1430   30.1020   46.2570 C   0  0  0  0  0  0  0  0  0  0  0  0
   60.7950   29.1620   45.1930 C   0  0  0  0  0  0  0  0  0  0  0  0
   61.6130   28.9530   44.2560 O   0  0  0  0  0  0  0  0  0  0  0  0
   59.4080   28.5700   45.1740 C   0  0  1  0  0  0  0  0  0  0  0  0
   59.2670   27.4680   44.1130 C   0  0  0  0  0  0  0  0  0  0  0  0
   57.9320   26.7790   44.1580 C   0  0  0  0  0  0  0  0  0  0  0  0
   57.6060   26.1070   43.1910 O   0  0  0  0  0  0  0  0  0  0  0  0
   56.9730   26.8800   45.3300 C   0  0  1  0  0  0  0  0  0  0  0  0
   56.5990   25.4870   45.8100 C   0  0  0  0  0  0  0  0  0  0  0  0
   55.7290   25.3690   46.7150 O   0  0  0  0  0  0  0  0  0  0  0  0
   57.2280   24.2560   45.2620 C   0  0  0  0  0  0  0  0  0  0  0  0
   56.5880   23.4640   44.2860 C   0  0  0  0  0  0  0  0  0  0  0  0
   57.2150   22.3220   43.7770 C   0  0  0  0  0  0  0  0  0  0  0  0
   58.4850   21.9570   44.2280 C   0  0  0  0  0  0  0  0  0  0  0  0
   59.1340   22.7370   45.1870 C   0  0  0  0  0  0  0  0  0  0  0  0
   58.5140   23.8810   45.6990 C   0  0  0  0  0  0  0  0  0  0  0  0
   57.4400   27.7840   46.5130 C   0  0  0  0  0  0  0  0  0  0  0  0
   58.9660   28.1050   46.5940 C   0  0  1  0  0  0  0  0  0  0  0  0
   59.7620   26.8640   47.0650 C   0  0  0  0  0  0  0  0  0  0  0  0
   59.2480   29.2340   47.6140 C   0  0  0  0  0  0  0  0  0  0  0  0
   58.6160   29.2580   48.8250 C   0  0  0  0  0  0  0  0  0  0  0  0
   58.9690   30.2180   49.9510 C   0  0  0  0  0  0  0  0  0  0  0  0
   60.4250   30.7060   49.8040 C   0  0  1  0  0  0  0  0  0  0  0  0
   61.3760   29.4820   50.0760 C   0  0  0  0  0  0  0  0  0  0  0  0
   60.8460   31.8950   50.7030 C   0  0  1  0  0  0  0  0  0  0  0  0
   61.1420   31.5370   52.1790 C   0  0  0  0  0  0  0  0  0  0  0  0
   61.6960   32.6370   52.8500 O   0  0  0  0  0  0  0  0  0  0  0  0
   66.3381   32.9954   51.1569 H   0  0  0  0  0  0  0  0  0  0  0  0
   65.7169   32.1681   49.6885 H   0  0  0  0  0  0  0  0  0  0  0  0
   65.9403   33.9504   49.6885 H   0  0  0  0  0  0  0  0  0  0  0  0
   61.9044   33.6522   49.9395 H   0  0  0  0  0  0  0  0  0  0  0  0
   62.0802   32.7748   47.7383 H   0  0  0  0  0  0  0  0  0  0  0  0
   62.8062   31.2693   48.3014 H   0  0  0  0  0  0  0  0  0  0  0  0
   59.1492   32.8524   48.8877 H   0  0  0  0  0  0  0  0  0  0  0  0
   60.0753   33.1775   47.3832 H   0  0  0  0  0  0  0  0  0  0  0  0
   58.7643   31.9495   47.3832 H   0  0  0  0  0  0  0  0  0  0  0  0
   62.0198   30.7558   46.1399 H   0  0  0  0  0  0  0  0  0  0  0  0
   58.7116   29.3675   44.8755 H   0  0  0  0  0  0  0  0  0  0  0  0
   59.3951   27.9201   43.1184 H   0  0  0  0  0  0  0  0  0  0  0  0
   60.0365   26.7099   44.3207 H   0  0  0  0  0  0  0  0  0  0  0  0
   56.0869   27.4020   44.9398 H   0  0  0  0  0  0  0  0  0  0  0  0
   55.5889   23.7464   43.9226 H   0  0  0  0  0  0  0  0  0  0  0  0
   56.7057   21.7092   43.0186 H   0  0  0  0  0  0  0  0  0  0  0  0
   58.9735   21.0561   43.8283 H   0  0  0  0  0  0  0  0  0  0  0  0
   60.1355   22.4509   45.5407 H   0  0  0  0  0  0  0  0  0  0  0  0
   59.0348   24.4936   46.4496 H   0  0  0  0  0  0  0  0  0  0  0  0
   56.9025   28.7404   46.4332 H   0  0  0  0  0  0  0  0  0  0  0  0
   57.2190   27.2054   47.4220 H   0  0  0  0  0  0  0  0  0  0  0  0
   59.7802   26.8357   48.1645 H   0  0  0  0  0  0  0  0  0  0  0  0
   59.2798   25.9523   46.6826 H   0  0  0  0  0  0  0  0  0  0  0  0
   60.7918   26.9221   46.6826 H   0  0  0  0  0  0  0  0  0  0  0  0
   57.8016   28.5387   48.9964 H   0  0  0  0  0  0  0  0  0  0  0  0
   58.2911   31.0836   49.9154 H   0  0  0  0  0  0  0  0  0  0  0  0
   58.8631   29.6948   50.9128 H   0  0  0  0  0  0  0  0  0  0  0  0
   61.4876   29.3384   51.1609 H   0  0  0  0  0  0  0  0  0  0  0  0
   60.9433   28.5750   49.6286 H   0  0  0  0  0  0  0  0  0  0  0  0
   62.3618   29.6771   49.6286 H   0  0  0  0  0  0  0  0  0  0  0  0
   60.0174   32.6013   50.8597 H   0  0  0  0  0  0  0  0  0  0  0  0
   60.2049   31.2446   52.6754 H   0  0  0  0  0  0  0  0  0  0  0  0
   61.8611   30.7051   52.2058 H   0  0  0  0  0  0  0  0  0  0  0  0
   62.4730   32.9380   52.3120 H   0  0  0  0  0  0  0  0  0  0  0  0
  1  2  1  0
  2  3  2  0
  2  4  1  0
  4  5  1  0
  5  6  1  0
  6  7  1  0
  7  8  1  6
  7  9  1  0
  9 10  2  0
 10 11  1  0
 11 12  2  0
 11 13  1  0
 13 14  1  0
 14 15  1  0
 15 16  2  0
 15 17  1  0
 17 18  1  0
 18 19  2  0
 18 20  1  0
 20 21  2  0
 21 22  1  0
 22 23  2  0
 23 24  1  0
 24 25  2  0
 17 26  1  0
 26 27  1  0
 27 28  1  1
 27 29  1  0
 29 30  2  0
 30 31  1  0
 31 32  1  0
 32 33  1  6
 32 34  1  0
 34 35  1  0
 35 36  1  0
 34  5  1  0
 32  7  1  0
 29  9  1  0
 27 13  1  0
 25 20  1  0
  1 37  1  0
  1 38  1  0
  1 39  1  0
  5 40  1  6
  6 41  1  0
  6 42  1  0
  8 43  1  0
  8 44  1  0
  8 45  1  0
 10 46  1  0
 13 47  1  6
 14 48  1  0
 14 49  1  0
 17 50  1  6
 21 51  1  0
 22 52  1  0
 23 53  1  0
 24 54  1  0
 25 55  1  0
 26 56  1  0
 26 57  1  0
 28 58  1  0
 28 59  1  0
 28 60  1  0
 30 61  1  0
 31 62  1  0
 31 63  1  0
 33 64  1  0
 33 65  1  0
 33 66  1  0
 34 67  1  1
 35 68  1  0
 35 69  1  0
 36 70  1  0
M  END
>  <UniqueID>  (8) 
8

>  <SMILES>  (8) 
CC(=O)O[C@H]1C[C@@]2(C)C3=CC(=O)C4CC(=O)C(C(=O)c5ccccc5)CC4(C)C3=CCC2(C)C1CO

>  <Energy>  (8) 
111.32585070346252

>  <Genealogy>  (8) 
CC(=O)O[C@H]1C[C@@]2(C)C3=CC(=O)C4CC(=O)C(C(=O)c5ccccc5)CC4(C)C3=CCC2(C)C1CO (chirality)
CC(=O)O[C@H]1C[C@@]2(C)C3=CC(=O)C4CC(=O)C(C(=O)c5ccccc5)CC4(C)C3=CCC2(C)C1CO (3D coordinates assigned)
CC(=O)O[C@H]1C[C@@]2(C)C3=CC(=O)C4CC(=O)C(C(=O)c5ccccc5)CC4(C)C3=CCC2(C)C1CO (nonaromatic ring conformer: 111.32585070346252 kcal/mol)

>  <smiles>  (8) 
CC(=O)OC1CC2(C)C3=CC(=O)C4CC(=O)C(C(=O)c5ccccc5)CC4(C)C3=CCC2(C)C1CO

>  <score_type>  (8) 
oracle

>  <origin>  (8) 
adg

>  <m_score__min__energy>  (8) 
-9.0700000000000003

>  <m_primary>  (8) 
energy

$$$$
8:0
     RDKit          3D

 35 37  0  0  0  0  0  0  0  0999 V2000
   55.1860   30.0910   45.6270 H   0  0  0  0  0  0  0  0  0  0  0  0
   55.6030   29.6090   44.8160 N   0  0  0  0  0  0  0  0  0  0  0  0
   56.7590   29.0480   44.8820 C   0  0  0  0  0  0  0  0  0  0  0  0
   56.9020   27.7010   45.5500 C   0  0  0  0  0  0  0  0  0  0  0  0
   57.4230   27.8670   46.8200 F   0  0  0  0  0  0  0  0  0  0  0  0
   57.7610   26.9110   44.8080 F   0  0  0  0  0  0  0  0  0  0  0  0
   55.6810   27.0590   45.6520 F   0  0  0  0  0  0  0  0  0  0  0  0
   57.9550   29.7720   44.3180 C   0  0  0  0  0  0  0  0  0  0  0  0
   58.7075   29.0340   44.0031 H   0  0  0  0  0  0  0  0  0  0  0  0
   57.6278   30.3766   43.4593 H   0  0  0  0  0  0  0  0  0  0  0  0
   58.5630   30.6880   45.3490 C   0  0  0  0  0  0  0  0  0  0  0  0
   59.4380   30.3460   46.3900 C   0  0  0  0  0  0  0  0  0  0  0  0
   59.8900   28.9890   46.7490 C   0  0  0  0  0  0  0  0  0  0  0  0
   59.8840   28.5850   48.0950 C   0  0  0  0  0  0  0  0  0  0  0  0
   59.5406   29.2807   48.8747 H   0  0  0  0  0  0  0  0  0  0  0  0
   60.3130   27.3020   48.4460 C   0  0  0  0  0  0  0  0  0  0  0  0
   60.3146   26.9935   49.5018 H   0  0  0  0  0  0  0  0  0  0  0  0
   60.7400   26.4100   47.4580 C   0  0  0  0  0  0  0  0  0  0  0  0
   61.0830   25.4028   47.7372 H   0  0  0  0  0  0  0  0  0  0  0  0
   60.7310   26.7980   46.1160 C   0  0  0  0  0  0  0  0  0  0  0  0
   61.0616   26.0938   45.3383 H   0  0  0  0  0  0  0  0  0  0  0  0
   60.3020   28.0810   45.7600 C   0  0  0  0  0  0  0  0  0  0  0  0
   60.2873   28.3798   44.7015 H   0  0  0  0  0  0  0  0  0  0  0  0
   59.8860   31.4590   47.0180 N   0  0  0  0  0  0  0  0  0  0  0  0
   60.5550   31.5040   47.8200 H   0  0  0  0  0  0  0  0  0  0  0  0
   59.2990   32.4970   46.4020 C   0  0  0  0  0  0  0  0  0  0  0  0
   59.4660   33.8500   46.6920 C   0  0  0  0  0  0  0  0  0  0  0  0
   60.1200   34.1774   47.5137 H   0  0  0  0  0  0  0  0  0  0  0  0
   58.7720   34.7840   45.9010 C   0  0  0  0  0  0  0  0  0  0  0  0
   58.8767   35.8595   46.1066 H   0  0  0  0  0  0  0  0  0  0  0  0
   57.9420   34.3490   44.8450 C   0  0  0  0  0  0  0  0  0  0  0  0
   57.4064   35.0883   44.2313 H   0  0  0  0  0  0  0  0  0  0  0  0
   57.7950   32.9770   44.5720 C   0  0  0  0  0  0  0  0  0  0  0  0
   57.1531   32.6283   43.7496 H   0  0  0  0  0  0  0  0  0  0  0  0
   58.4890   32.0710   45.3770 C   0  0  0  0  0  0  0  0  0  0  0  0
  1  2  1  0
  2  3  2  0
  3  4  1  0
  4  5  1  0
  4  6  1  0
  4  7  1  0
  3  8  1  0
  8  9  1  0
  8 10  1  0
  8 11  1  0
 11 12  2  0
 12 13  1  0
 13 14  2  0
 14 15  1  0
 14 16  1  0
 16 17  1  0
 16 18  2  0
 18 19  1  0
 18 20  1  0
 20 21  1  0
 20 22  2  0
 22 23  1  0
 12 24  1  0
 24 25  1  0
 24 26  1  0
 26 27  2  0
 27 28  1  0
 27 29  1  0
 29 30  1  0
 29 31  2  0
 31 32  1  0
 31 33  1  0
 33 34  1  0
 33 35  2  0
 35 11  1  0
 22 13  1  0
 35 26  1  0
M  END
>  <UniqueID>  (9) 
9

>  <SMILES>  (9) 
[H]/N=C(/Cc1c(-c2ccccc2)[nH]c2ccccc12)C(F)(F)F

>  <Energy>  (9) 
71.59631618002362

>  <Genealogy>  (9) 
[H]/N=C(/Cc1c(-c2ccccc2)[nH]c2ccccc12)C(F)(F)F (cis-trans isomerization)
[H]/N=C(/Cc1c(-c2ccccc2)[nH]c2ccccc12)C(F)(F)F (3D coordinates assigned)
[H]/N=C(/Cc1c(-c2ccccc2)[nH]c2ccccc12)C(F)(F)F (optimized conformer: 71.59631618002362 kcal/mol)

>  <smiles>  (9) 
N=C(Cc1c(-c2ccccc2)[nH]c2ccccc12)C(F)(F)F

>  <score_type>  (9) 
oracle

>  <origin>  (9) 
adg

>  <m_score__min__energy>  (9) 
-6.8399999999999999

>  <m_primary>  (9) 
energy

$$$$
9:0
     RDKit          3D

 54 57  0  0  0  0  0  0  0  0999 V2000
   60.0420   31.1320   52.3420 C   0  0  0  0  0  0  0  0  0  0  0  0
   60.9650   29.9210   52.2040 C   0  0  0  0  0  0  0  0  0  0  0  0
   60.5840   29.1020   51.0320 N   0  0  0  0  0  0  0  0  0  0  0  0
   61.5200   29.2770   49.8850 C   0  0  0  0  0  0  0  0  0  0  0  0
   61.0110   30.2750   48.8300 C   0  0  0  0  0  0  0  0  0  0  0  0
   59.6470   29.9410   48.4150 N   0  0  0  0  0  0  0  0  0  0  0  0
   59.0140   30.6960   47.3710 C   0  0  0  0  0  0  0  0  0  0  0  0
   58.7110   31.9510   47.6010 N   0  0  0  0  0  0  0  0  0  0  0  0
   58.9310   33.0620   46.7050 C   0  0  0  0  0  0  0  0  0  0  0  0
   59.6350   34.1960   47.1630 C   0  0  0  0  0  0  0  0  0  0  0  0
   60.4140   34.2600   48.9160 Br  0  0  0  0  0  0  0  0  0  0  0  0
   59.8090   35.3010   46.3260 C   0  0  0  0  0  0  0  0  0  0  0  0
   59.2790   35.2980   45.0360 C   0  0  0  0  0  0  0  0  0  0  0  0
   58.5690   34.1900   44.5730 C   0  0  0  0  0  0  0  0  0  0  0  0
   58.3810   33.0720   45.4020 C   0  0  0  0  0  0  0  0  0  0  0  0
   57.6170   31.8830   44.8950 C   0  0  0  0  0  0  0  0  0  0  0  0
   58.5050   30.6860   44.9400 C   0  0  0  0  0  0  0  0  0  0  0  0
   58.7470   30.0130   46.0750 C   0  0  0  0  0  0  0  0  0  0  0  0
   58.6770   28.5410   46.0570 C   0  0  0  0  0  0  0  0  0  0  0  0
   57.4350   27.8900   46.0170 C   0  0  0  0  0  0  0  0  0  0  0  0
   57.3730   26.4930   46.0210 C   0  0  0  0  0  0  0  0  0  0  0  0
   58.5530   25.7320   46.0360 C   0  0  0  0  0  0  0  0  0  0  0  0
   58.4920   24.2330   46.0750 C   0  0  0  0  0  0  0  0  0  0  0  0
   59.7950   26.3860   46.0830 C   0  0  0  0  0  0  0  0  0  0  0  0
   59.8560   27.7830   46.0930 C   0  0  0  0  0  0  0  0  0  0  0  0
   58.8540   29.0150   49.2210 C   0  0  0  0  0  0  0  0  0  0  0  0
   59.1470   29.2900   50.6970 C   0  0  0  0  0  0  0  0  0  0  0  0
   59.8774   31.3480   53.4080 H   0  0  0  0  0  0  0  0  0  0  0  0
   60.5066   32.0041   51.8587 H   0  0  0  0  0  0  0  0  0  0  0  0
   59.0779   30.9152   51.8587 H   0  0  0  0  0  0  0  0  0  0  0  0
   62.0010   30.2693   52.0794 H   0  0  0  0  0  0  0  0  0  0  0  0
   60.8754   29.3038   53.1101 H   0  0  0  0  0  0  0  0  0  0  0  0
   62.4832   29.6400   50.2728 H   0  0  0  0  0  0  0  0  0  0  0  0
   61.6142   28.2994   49.3896 H   0  0  0  0  0  0  0  0  0  0  0  0
   61.0200   31.2883   49.2579 H   0  0  0  0  0  0  0  0  0  0  0  0
   61.6697   30.2254   47.9504 H   0  0  0  0  0  0  0  0  0  0  0  0
   58.3220   32.1830   48.5420 H   0  0  0  0  0  0  0  0  0  0  0  0
   60.3669   36.1779   46.6863 H   0  0  0  0  0  0  0  0  0  0  0  0
   59.4211   36.1711   44.3822 H   0  0  0  0  0  0  0  0  0  0  0  0
   58.1545   34.1920   43.5541 H   0  0  0  0  0  0  0  0  0  0  0  0
   56.7346   31.7127   45.5293 H   0  0  0  0  0  0  0  0  0  0  0  0
   57.2864   32.0643   43.8616 H   0  0  0  0  0  0  0  0  0  0  0  0
   58.9789   30.3423   44.0087 H   0  0  0  0  0  0  0  0  0  0  0  0
   56.5073   28.4801   45.9824 H   0  0  0  0  0  0  0  0  0  0  0  0
   56.3958   25.9881   46.0124 H   0  0  0  0  0  0  0  0  0  0  0  0
   58.4782   23.8937   47.1213 H   0  0  0  0  0  0  0  0  0  0  0  0
   57.5791   23.8898   45.5662 H   0  0  0  0  0  0  0  0  0  0  0  0
   59.3740   23.8168   45.5662 H   0  0  0  0  0  0  0  0  0  0  0  0
   60.7235   25.7969   46.1121 H   0  0  0  0  0  0  0  0  0  0  0  0
   60.8321   28.2889   46.1292 H   0  0  0  0  0  0  0  0  0  0  0  0
   57.7837   29.1691   49.0193 H   0  0  0  0  0  0  0  0  0  0  0  0
   59.1143   27.9761   48.9703 H   0  0  0  0  0  0  0  0  0  0  0  0
   58.8631   30.3276   50.9266 H   0  0  0  0  0  0  0  0  0  0  0  0
   58.5655   28.5727   51.2948 H   0  0  0  0  0  0  0  0  0  0  0  0
  1  2  1  0
  2  3  1  0
  3  4  1  0
  4  5  1  0
  5  6  1  0
  6  7  1  0
  7  8  2  0
  8  9  1  0
  9 10  2  0
 10 11  1  0
 10 12  1  0
 12 13  2  0
 13 14  1  0
 14 15  2  0
 15 16  1  0
 16 17  1  0
 17 18  2  0
 18 19  1  0
 19 20  2  0
 20 21  1  0
 21 22  2  0
 22 23  1  0
 22 24  1  0
 24 25  2  0
  6 26  1  0
 26 27  1  0
 27  3  1  0
 18  7  1  0
 25 19  1  0
 15  9  1  0
  1 28  1  0
  1 29  1  0
  1 30  1  0
  2 31  1  0
  2 32  1  0
  4 33  1  0
  4 34  1  0
  5 35  1  0
  5 36  1  0
  8 37  1  0
 12 38  1  0
 13 39  1  0
 14 40  1  0
 16 41  1  0
 16 42  1  0
 17 43  1  0
 20 44  1  0
 21 45  1  0
 23 46  1  0
 23 47  1  0
 23 48  1  0
 24 49  1  0
 25 50  1  0
 26 51  1  0
 26 52  1  0
 27 53  1  0
 27 54  1  0
M  CHG  1   8   1
M  END
>  <UniqueID>  (10) 
10

>  <SMILES>  (10) 
CCN1CCN(C2=[NH+]c3c(Br)cccc3CC=C2c2ccc(C)cc2)CC1

>  <Energy>  (10) 
85.60053937286004

>  <Genealogy>  (10) 
CCN1CCN(C2=[NH+]c3c(Br)cccc3CC=C2c2ccc(C)cc2)CC1 (protonated)
CCN1CCN(C2=[NH+]c3c(Br)cccc3CC=C2c2ccc(C)cc2)CC1 (3D coordinates assigned)
CCN1CCN(C2=[NH+]c3c(Br)cccc3CC=C2c2ccc(C)cc2)CC1 (nonaromatic ring conformer: 85.60053937286004 kcal/mol)

>  <smiles>  (10) 
CCN1CCN(C2=Nc3c(Br)cccc3CC=C2c2ccc(C)cc2)CC1

>  <score_type>  (10) 
oracle

>  <origin>  (10) 
adg

>  <m_score__min__energy>  (10) 
-5.1100000000000003

>  <m_primary>  (10) 
energy

$$$$
10:0
     RDKit          3D

 43 45  0  0  0  0  0  0  0  0999 V2000
   57.7450   25.8690   47.1670 C   0  0  0  0  0  0  0  0  0  0  0  0
   59.1190   26.2130   47.3110 O   0  0  0  0  0  0  0  0  0  0  0  0
   59.6280   27.5160   47.1930 C   0  0  0  0  0  0  0  0  0  0  0  0
   60.2360   28.1830   48.2760 C   0  0  0  0  0  0  0  0  0  0  0  0
   60.7300   29.4800   48.1170 C   0  0  0  0  0  0  0  0  0  0  0  0
   60.6250   30.1230   46.8840 C   0  0  0  0  0  0  0  0  0  0  0  0
   60.0240   29.4720   45.8040 C   0  0  0  0  0  0  0  0  0  0  0  0
   59.5220   28.1640   45.9510 C   0  0  0  0  0  0  0  0  0  0  0  0
   58.9130   27.4770   44.8900 O   0  0  0  0  0  0  0  0  0  0  0  0
   57.7170   27.8930   44.2370 C   0  0  0  0  0  0  0  0  0  0  0  0
   56.6810   28.2860   45.2820 C   0  0  0  0  0  0  0  0  0  0  0  0
   56.1090   29.5830   44.9410 N   0  0  0  0  0  0  0  0  0  0  0  0
   56.7200   30.5430   44.0690 C   0  0  0  0  0  0  0  0  0  0  0  0
   56.5680   30.4150   42.8250 O   0  0  0  0  0  0  0  0  0  0  0  0
   57.4850   31.6970   44.5820 C   0  0  0  0  0  0  0  0  0  0  0  0
   57.8970   32.7310   43.7160 C   0  0  0  0  0  0  0  0  0  0  0  0
   58.6120   33.8290   44.2140 C   0  0  0  0  0  0  0  0  0  0  0  0
   58.8970   33.8900   45.5780 C   0  0  0  0  0  0  0  0  0  0  0  0
   58.4810   32.9000   46.4350 C   0  0  0  0  0  0  0  0  0  0  0  0
   57.7650   31.7940   45.9580 C   0  0  0  0  0  0  0  0  0  0  0  0
   58.8410   33.1230   47.7920 N   0  0  0  0  0  0  0  0  0  0  0  0
   58.5120   32.2140   48.8870 C   0  0  0  0  0  0  0  0  0  0  0  0
   59.5810   34.3660   47.9980 C   0  0  0  0  0  0  0  0  0  0  0  0
   59.7850   35.2130   46.3750 S   0  0  0  0  0  0  0  0  0  0  0  0
   57.2894   25.7549   48.1617 H   0  0  0  0  0  0  0  0  0  0  0  0
   57.2239   26.6644   46.6140 H   0  0  0  0  0  0  0  0  0  0  0  0
   57.6601   24.9219   46.6140 H   0  0  0  0  0  0  0  0  0  0  0  0
   60.3218   27.6800   49.2505 H   0  0  0  0  0  0  0  0  0  0  0  0
   61.2028   29.9952   48.9662 H   0  0  0  0  0  0  0  0  0  0  0  0
   61.0159   31.1439   46.7617 H   0  0  0  0  0  0  0  0  0  0  0  0
   59.9423   29.9835   44.8336 H   0  0  0  0  0  0  0  0  0  0  0  0
   57.9328   28.7569   43.5911 H   0  0  0  0  0  0  0  0  0  0  0  0
   57.3263   27.0671   43.6245 H   0  0  0  0  0  0  0  0  0  0  0  0
   55.8828   27.5296   45.3085 H   0  0  0  0  0  0  0  0  0  0  0  0
   57.1632   28.3478   46.2688 H   0  0  0  0  0  0  0  0  0  0  0  0
   57.6560   32.6756   42.6442 H   0  0  0  0  0  0  0  0  0  0  0  0
   58.9437   34.6313   43.5385 H   0  0  0  0  0  0  0  0  0  0  0  0
   57.4255   31.0103   46.6512 H   0  0  0  0  0  0  0  0  0  0  0  0
   58.6940   32.7169   49.8482 H   0  0  0  0  0  0  0  0  0  0  0  0
   57.4526   31.9260   48.8187 H   0  0  0  0  0  0  0  0  0  0  0  0
   59.1416   31.3146   48.8187 H   0  0  0  0  0  0  0  0  0  0  0  0
   59.0241   35.0176   48.6874 H   0  0  0  0  0  0  0  0  0  0  0  0
   60.5680   34.1455   48.4306 H   0  0  0  0  0  0  0  0  0  0  0  0
  1  2  1  0
  2  3  1  0
  3  4  2  0
  4  5  1  0
  5  6  2  0
  6  7  1  0
  7  8  2  0
  8  9  1  0
  9 10  1  0
 10 11  1  0
 11 12  1  0
 12 13  1  0
 13 14  2  0
 13 15  1  0
 15 16  2  0
 16 17  1  0
 17 18  2  0
 18 19  1  0
 19 20  2  0
 19 21  1  0
 21 22  1  0
 21 23  1  0
 23 24  1  0
  8  3  1  0
 20 15  1  0
 24 18  1  0
  1 25  1  0
  1 26  1  0
  1 27  1  0
  4 28  1  0
  5 29  1  0
  6 30  1  0
  7 31  1  0
 10 32  1  0
 10 33  1  0
 11 34  1  0
 11 35  1  0
 16 36  1  0
 17 37  1  0
 20 38  1  0
 22 39  1  0
 22 40  1  0
 22 41  1  0
 23 42  1  0
 23 43  1  0
M  CHG  1  12  -1
M  END
>  <UniqueID>  (11) 
11

>  <SMILES>  (11) 
COc1ccccc1OCC[N-]C(=O)c1ccc2c(c1)N(C)CS2

>  <Energy>  (11) 
53.95391375882976

>  <Genealogy>  (11) 
COc1ccccc1OCC[N-]C(=O)c1ccc2c(c1)N(C)CS2 (protonated)
COc1ccccc1OCC[N-]C(=O)c1ccc2c(c1)N(C)CS2 (3D coordinates assigned)
COc1ccccc1OCC[N-]C(=O)c1ccc2c(c1)N(C)CS2 (nonaromatic ring conformer: 53.95391375882976 kcal/mol)

>  <smiles>  (11) 
COc1ccccc1OCCNC(=O)c1ccc2c(c1)N(C)CS2

>  <score_type>  (11) 
oracle

>  <origin>  (11) 
adg

>  <m_score__min__energy>  (11) 
-9.8900000000000006

>  <m_primary>  (11) 
energy

$$$$
11:0
     RDKit          3D

 32 34  0  0  1  0  0  0  0  0999 V2000
   59.9810   34.5880   49.2910 N   0  0  0  0  0  0  0  0  0  0  0  0
   59.4870   33.5590   48.6890 C   0  0  0  0  0  0  0  0  0  0  0  0
   59.5320   32.3520   49.2830 N   0  0  0  0  0  0  0  0  0  0  0  0
   59.0150   31.2800   48.6520 C   0  0  0  0  0  0  0  0  0  0  0  0
   58.4410   31.3590   47.4280 N   0  0  0  0  0  0  0  0  0  0  0  0
   58.3880   32.5510   46.8260 C   0  0  0  0  0  0  0  0  0  0  0  0
   58.9120   33.6920   47.4420 C   0  0  0  0  0  0  0  0  0  0  0  0
   58.7180   34.7170   46.6140 N   0  0  0  0  0  0  0  0  0  0  0  0
   58.0960   34.2520   45.5160 C   0  0  0  0  0  0  0  0  0  0  0  0
   57.8850   32.9410   45.6200 N   0  0  0  0  0  0  0  0  0  0  0  0
   57.2400   32.1390   44.6150 C   0  0  1  0  0  0  0  0  0  0  0  0
   57.8370   32.3540   43.2390 C   0  0  0  0  0  0  0  0  0  0  0  0
   57.1040   31.2460   42.4710 C   0  0  0  0  0  0  0  0  0  0  0  0
   56.9970   30.1040   43.4710 C   0  0  2  0  0  0  0  0  0  0  0  0
   55.5330   29.7570   43.7360 C   0  0  0  0  0  0  0  0  0  0  0  0
   55.3290   29.3260   45.0360 O   0  0  0  0  0  0  0  0  0  0  0  0
   57.5080   30.6650   44.8020 C   0  0  0  0  0  0  0  0  0  0  0  0
   59.5680   35.5450   49.2660 H   0  0  0  0  0  0  0  0  0  0  0  0
   59.9670   32.2460   50.2280 H   0  0  0  0  0  0  0  0  0  0  0  0
   59.0609   30.3009   49.1512 H   0  0  0  0  0  0  0  0  0  0  0  0
   57.8027   34.8679   44.6531 H   0  0  0  0  0  0  0  0  0  0  0  0
   56.1819   32.4263   44.7038 H   0  0  0  0  0  0  0  0  0  0  0  0
   57.6035   33.3527   42.8415 H   0  0  0  0  0  0  0  0  0  0  0  0
   58.9351   32.3094   43.1921 H   0  0  0  0  0  0  0  0  0  0  0  0
   56.1054   31.5842   42.1573 H   0  0  0  0  0  0  0  0  0  0  0  0
   57.6314   30.9519   41.5516 H   0  0  0  0  0  0  0  0  0  0  0  0
   57.5432   29.2278   43.0917 H   0  0  0  0  0  0  0  0  0  0  0  0
   54.9182   30.6516   43.5579 H   0  0  0  0  0  0  0  0  0  0  0  0
   55.2499   28.9381   43.0583 H   0  0  0  0  0  0  0  0  0  0  0  0
   55.1580   30.0860   45.6440 H   0  0  0  0  0  0  0  0  0  0  0  0
   56.9456   30.2571   45.6549 H   0  0  0  0  0  0  0  0  0  0  0  0
   58.5568   30.4194   45.0249 H   0  0  0  0  0  0  0  0  0  0  0  0
  1  2  2  3
  2  3  1  0
  3  4  1  0
  4  5  2  0
  5  6  1  0
  6  7  2  0
  7  8  1  0
  8  9  2  0
  9 10  1  0
 10 11  1  0
 11 12  1  0
 12 13  1  0
 13 14  1  0
 14 15  1  0
 15 16  1  0
 14 17  1  0
  7  2  1  0
 17 11  1  0
 10  6  1  0
  1 18  1  0
  3 19  1  0
  4 20  1  0
  9 21  1  0
 11 22  1  6
 12 23  1  0
 12 24  1  0
 13 25  1  0
 13 26  1  0
 14 27  1  6
 15 28  1  0
 15 29  1  0
 16 30  1  0
 17 31  1  0
 17 32  1  0
M  END
>  <smiles>  (12) 
N=c1[nH]cnc2c1ncn2C1CCC(CO)C1

>  <score_type>  (12) 
oracle

>  <origin>  (12) 
adg

>  <m_score__min__energy>  (12) 
-6.8700000000000001

>  <m_primary>  (12) 
energy

$$$$
12:0
     RDKit          3D

 49 53  0  0  0  0  0  0  0  0999 V2000
   55.2900   29.4860   44.6170 O   0  0  0  0  0  0  0  0  0  0  0  0
   56.3240   30.1890   44.4540 C   0  0  0  0  0  0  0  0  0  0  0  0
   57.6530   29.5280   44.2400 C   0  0  0  0  0  0  0  0  0  0  0  0
   57.9040   28.5040   45.2740 N   0  0  0  0  0  0  0  0  0  0  0  0
   57.2200   27.3240   45.1570 C   0  0  0  0  0  0  0  0  0  0  0  0
   57.4050   26.2710   46.0580 C   0  0  0  0  0  0  0  0  0  0  0  0
   56.6480   25.0100   45.8620 C   0  0  0  0  0  0  0  0  0  0  0  0
   55.4770   24.9290   46.3230 O   0  0  0  0  0  0  0  0  0  0  0  0
   57.2170   23.8540   45.1260 C   0  0  0  0  0  0  0  0  0  0  0  0
   56.4890   23.2160   44.1030 C   0  0  0  0  0  0  0  0  0  0  0  0
   57.0330   22.1220   43.4220 C   0  0  0  0  0  0  0  0  0  0  0  0
   58.3040   21.6490   43.7590 C   0  0  0  0  0  0  0  0  0  0  0  0
   59.0300   22.2640   44.7800 C   0  0  0  0  0  0  0  0  0  0  0  0
   58.4910   23.3590   45.4650 C   0  0  0  0  0  0  0  0  0  0  0  0
   58.2760   26.4450   47.1420 C   0  0  0  0  0  0  0  0  0  0  0  0
   58.4150   25.5220   47.9930 O   0  0  0  0  0  0  0  0  0  0  0  0
   58.9710   27.6560   47.2930 C   0  0  0  0  0  0  0  0  0  0  0  0
   59.8580   27.8450   48.3810 C   0  0  0  0  0  0  0  0  0  0  0  0
   60.5040   29.0660   48.4980 C   0  0  0  0  0  0  0  0  0  0  0  0
   60.3080   30.0690   47.6130 C   0  0  0  0  0  0  0  0  0  0  0  0
   59.4520   29.9410   46.5270 C   0  0  0  0  0  0  0  0  0  0  0  0
   58.7650   28.7070   46.3360 C   0  0  0  0  0  0  0  0  0  0  0  0
   61.0680   31.1620   47.9800 O   0  0  0  0  0  0  0  0  0  0  0  0
   61.7920   30.8200   49.1700 C   0  0  0  0  0  0  0  0  0  0  0  0
   61.4000   29.4740   49.4680 O   0  0  0  0  0  0  0  0  0  0  0  0
   56.2580   31.6160   44.5560 N   0  0  0  0  0  0  0  0  0  0  0  0
   57.2990   32.4790   45.0380 C   0  0  0  0  0  0  0  0  0  0  0  0
   58.1350   33.1100   44.1070 C   0  0  0  0  0  0  0  0  0  0  0  0
   59.1470   33.9750   44.5370 C   0  0  0  0  0  0  0  0  0  0  0  0
   59.3190   34.2250   45.9020 C   0  0  0  0  0  0  0  0  0  0  0  0
   60.2920   35.0740   46.3180 F   0  0  0  0  0  0  0  0  0  0  0  0
   58.4760   33.6170   46.8370 C   0  0  0  0  0  0  0  0  0  0  0  0
   57.4650   32.7500   46.4090 C   0  0  0  0  0  0  0  0  0  0  0  0
   57.6621   29.0496   43.2495 H   0  0  0  0  0  0  0  0  0  0  0  0
   58.4408   30.2931   44.3041 H   0  0  0  0  0  0  0  0  0  0  0  0
   56.5045   27.2008   44.3306 H   0  0  0  0  0  0  0  0  0  0  0  0
   55.4856   23.5806   43.8377 H   0  0  0  0  0  0  0  0  0  0  0  0
   56.4597   21.6335   42.6203 H   0  0  0  0  0  0  0  0  0  0  0  0
   58.7325   20.7916   43.2193 H   0  0  0  0  0  0  0  0  0  0  0  0
   60.0283   21.8872   45.0470 H   0  0  0  0  0  0  0  0  0  0  0  0
   59.0658   23.8356   46.2727 H   0  0  0  0  0  0  0  0  0  0  0  0
   60.0299   27.0434   49.1144 H   0  0  0  0  0  0  0  0  0  0  0  0
   59.3068   30.7769   45.8269 H   0  0  0  0  0  0  0  0  0  0  0  0
   62.8762   30.8768   48.9929 H   0  0  0  0  0  0  0  0  0  0  0  0
   61.5722   31.5079   49.9997 H   0  0  0  0  0  0  0  0  0  0  0  0
   57.9947   32.9241   43.0319 H   0  0  0  0  0  0  0  0  0  0  0  0
   59.8071   34.4582   43.8016 H   0  0  0  0  0  0  0  0  0  0  0  0
   58.6078   33.8205   47.9100 H   0  0  0  0  0  0  0  0  0  0  0  0
   56.7980   32.2788   47.1460 H   0  0  0  0  0  0  0  0  0  0  0  0
  1  2  2  0
  2  3  1  0
  3  4  1  0
  4  5  1  0
  5  6  2  0
  6  7  1  0
  7  8  2  0
  7  9  1  0
  9 10  2  0
 10 11  1  0
 11 12  2  0
 12 13  1  0
 13 14  2  0
  6 15  1  0
 15 16  2  0
 15 17  1  0
 17 18  2  0
 18 19  1  0
 19 20  2  0
 20 21  1  0
 21 22  2  0
 20 23  1  0
 23 24  1  0
 24 25  1  0
  2 26  1  0
 26 27  1  0
 27 28  2  0
 28 29  1  0
 29 30  2  0
 30 31  1  0
 30 32  1  0
 32 33  2  0
 22  4  1  0
 33 27  1  0
 14  9  1  0
 22 17  1  0
 25 19  1  0
  3 34  1  0
  3 35  1  0
  5 36  1  0
 10 37  1  0
 11 38  1  0
 12 39  1  0
 13 40  1  0
 14 41  1  0
 18 42  1  0
 21 43  1  0
 24 44  1  0
 24 45  1  0
 28 46  1  0
 29 47  1  0
 32 48  1  0
 33 49  1  0
M  CHG  1  26  -1
M  END
>  <UniqueID>  (13) 
12

>  <SMILES>  (13) 
O=C(Cn1cc(C(=O)c2ccccc2)c(=O)c2cc3c(cc21)OCO3)[N-]c1ccc(F)cc1

>  <Energy>  (13) 
103.62845192949086

>  <Genealogy>  (13) 
O=C(Cn1cc(C(=O)c2ccccc2)c(=O)c2cc3c(cc21)OCO3)[N-]c1ccc(F)cc1 (protonated)
O=C(Cn1cc(C(=O)c2ccccc2)c(=O)c2cc3c(cc21)OCO3)[N-]c1ccc(F)cc1 (3D coordinates assigned)
O=C(Cn1cc(C(=O)c2ccccc2)c(=O)c2cc3c(cc21)OCO3)[N-]c1ccc(F)cc1 (nonaromatic ring conformer: 103.62845192949086 kcal/mol)

>  <smiles>  (13) 
O=C(Cn1cc(C(=O)c2ccccc2)c(=O)c2cc3c(cc21)OCO3)Nc1ccc(F)cc1

>  <score_type>  (13) 
oracle

>  <origin>  (13) 
adg

>  <m_score__min__energy>  (13) 
-10.869999999999999

>  <m_primary>  (13) 
energy

$$$$
13:0
     RDKit          3D

 44 47  0  0  0  0  0  0  0  0999 V2000
   55.2040   25.3020   45.7780 C   0  0  0  0  0  0  0  0  0  0  0  0
   55.4530   26.6870   45.9950 O   0  0  0  0  0  0  0  0  0  0  0  0
   56.6270   27.3500   45.6130 C   0  0  0  0  0  0  0  0  0  0  0  0
   57.8980   26.7520   45.7090 C   0  0  0  0  0  0  0  0  0  0  0  0
   59.0380   27.4560   45.3210 C   0  0  0  0  0  0  0  0  0  0  0  0
   58.9270   28.7580   44.8280 C   0  0  0  0  0  0  0  0  0  0  0  0
   57.6650   29.3670   44.7090 C   0  0  0  0  0  0  0  0  0  0  0  0
   57.5330   30.7550   44.2050 C   0  0  0  0  0  0  0  0  0  0  0  0
   57.0250   30.9430   43.0640 O   0  0  0  0  0  0  0  0  0  0  0  0
   57.9740   31.9310   44.9920 C   0  0  0  0  0  0  0  0  0  0  0  0
   58.1110   33.2080   44.3900 C   0  0  0  0  0  0  0  0  0  0  0  0
   58.5340   34.3150   45.1440 C   0  0  0  0  0  0  0  0  0  0  0  0
   58.7850   34.1130   46.4970 C   0  0  0  0  0  0  0  0  0  0  0  0
   59.2230   35.0340   47.3790 N   0  0  0  0  0  0  0  0  0  0  0  0
   59.3340   34.3910   48.5360 N   0  0  0  0  0  0  0  0  0  0  0  0
   58.9570   33.1090   48.3450 C   0  0  0  0  0  0  0  0  0  0  0  0
   58.9010   32.1210   49.3830 N   0  0  0  0  0  0  0  0  0  0  0  0
   59.8270   31.0070   49.4570 C   0  0  0  0  0  0  0  0  0  0  0  0
   59.7270   30.4820   50.8840 C   0  0  0  0  0  0  0  0  0  0  0  0
   58.4430   31.0770   51.4640 C   0  0  2  0  0  0  0  0  0  0  0  0
   57.3990   30.1460   51.3400 O   0  0  0  0  0  0  0  0  0  0  0  0
   58.1530   32.3130   50.6130 C   0  0  0  0  0  0  0  0  0  0  0  0
   58.6100   32.9080   47.0620 N   0  0  0  0  0  0  0  0  0  0  0  0
   58.2320   31.8020   46.3720 C   0  0  0  0  0  0  0  0  0  0  0  0
   56.5230   28.6570   45.1170 C   0  0  0  0  0  0  0  0  0  0  0  0
   55.1119   24.7898   46.7471 H   0  0  0  0  0  0  0  0  0  0  0  0
   54.2699   25.1820   45.2096 H   0  0  0  0  0  0  0  0  0  0  0  0
   56.0378   24.8642   45.2096 H   0  0  0  0  0  0  0  0  0  0  0  0
   57.9925   25.7250   46.0917 H   0  0  0  0  0  0  0  0  0  0  0  0
   60.0281   26.9839   45.4036 H   0  0  0  0  0  0  0  0  0  0  0  0
   59.8311   29.3098   44.5313 H   0  0  0  0  0  0  0  0  0  0  0  0
   57.8835   33.3327   43.3210 H   0  0  0  0  0  0  0  0  0  0  0  0
   58.6620   35.3049   44.6816 H   0  0  0  0  0  0  0  0  0  0  0  0
   59.6350   34.8330   49.4320 H   0  0  0  0  0  0  0  0  0  0  0  0
   59.5426   30.2235   48.7392 H   0  0  0  0  0  0  0  0  0  0  0  0
   60.8534   31.3150   49.2086 H   0  0  0  0  0  0  0  0  0  0  0  0
   59.6729   29.3833   50.8840 H   0  0  0  0  0  0  0  0  0  0  0  0
   60.6071   30.7656   51.4799 H   0  0  0  0  0  0  0  0  0  0  0  0
   58.5404   31.3302   52.5300 H   0  0  0  0  0  0  0  0  0  0  0  0
   57.4090   29.5990   52.1680 H   0  0  0  0  0  0  0  0  0  0  0  0
   57.0765   32.3895   50.4004 H   0  0  0  0  0  0  0  0  0  0  0  0
   58.4445   33.2405   51.1275 H   0  0  0  0  0  0  0  0  0  0  0  0
   58.1296   30.8299   46.8766 H   0  0  0  0  0  0  0  0  0  0  0  0
   55.5340   29.1333   45.0462 H   0  0  0  0  0  0  0  0  0  0  0  0
  1  2  1  0
  2  3  1  0
  3  4  2  0
  4  5  1  0
  5  6  2  0
  6  7  1  0
  7  8  1  0
  8  9  2  0
  8 10  1  0
 10 11  1  0
 11 12  2  0
 12 13  1  0
 13 14  2  0
 14 15  1  0
 15 16  2  0
 16 17  1  0
 17 18  1  0
 18 19  1  0
 19 20  1  0
 20 21  1  0
 20 22  1  0
 16 23  1  0
 23 24  1  0
  7 25  2  0
 25  3  1  0
 24 10  2  0
 23 13  1  0
 22 17  1  0
  1 26  1  0
  1 27  1  0
  1 28  1  0
  4 29  1  0
  5 30  1  0
  6 31  1  0
 11 32  1  0
 12 33  1  0
 15 34  1  0
 18 35  1  0
 18 36  1  0
 19 37  1  0
 19 38  1  0
 20 39  1  1
 21 40  1  0
 22 41  1  0
 22 42  1  0
 24 43  1  0
 25 44  1  0
M  CHG  1  15   1
M  END
>  <UniqueID>  (14) 
13

>  <SMILES>  (14) 
COc1cccc(C(=O)c2ccc3n[nH+]c(N4CC[C@H](O)C4)n3c2)c1

>  <Energy>  (14) 
100.03266684587099

>  <Genealogy>  (14) 
COc1cccc(C(=O)c2ccc3n[nH+]c(N4CCC(O)C4)n3c2)c1 (protonated)
COc1cccc(C(=O)c2ccc3n[nH+]c(N4CC[C@H](O)C4)n3c2)c1 (chirality)
COc1cccc(C(=O)c2ccc3n[nH+]c(N4CC[C@H](O)C4)n3c2)c1 (3D coordinates assigned)
COc1cccc(C(=O)c2ccc3n[nH+]c(N4CC[C@H](O)C4)n3c2)c1 (nonaromatic ring conformer: 100.03266684587099 kcal/mol)

>  <smiles>  (14) 
COc1cccc(C(=O)c2ccc3nnc(N4CCC(O)C4)n3c2)c1

>  <score_type>  (14) 
oracle

>  <origin>  (14) 
adg

>  <m_score__min__energy>  (14) 
-7.4199999999999999

>  <m_primary>  (14) 
energy

$$$$
14:0
     RDKit          3D

 28 29  0  0  0  0  0  0  0  0999 V2000
   56.6645   33.1870   46.7956 H   0  0  0  0  0  0  0  0  0  0  0  0
   57.3910   33.3290   45.9820 C   0  0  0  0  0  0  0  0  0  0  0  0
   58.3010   34.3050   46.1330 C   0  0  0  0  0  0  0  0  0  0  0  0
   58.0610   35.2898   45.7058 H   0  0  0  0  0  0  0  0  0  0  0  0
   59.5980   34.1640   46.8260 C   0  0  0  0  0  0  0  0  0  0  0  0
   59.6940   34.2810   48.2230 C   0  0  0  0  0  0  0  0  0  0  0  0
   58.7962   34.5098   48.8160 H   0  0  0  0  0  0  0  0  0  0  0  0
   60.9250   34.1080   48.8630 C   0  0  0  0  0  0  0  0  0  0  0  0
   60.9972   34.2294   49.9539 H   0  0  0  0  0  0  0  0  0  0  0  0
   62.0690   33.7800   48.1190 C   0  0  0  0  0  0  0  0  0  0  0  0
   63.3970   33.6320   48.8000 C   0  0  0  0  0  0  0  0  0  0  0  0
   63.2537   33.6480   49.8905 H   0  0  0  0  0  0  0  0  0  0  0  0
   63.8562   32.6771   48.5045 H   0  0  0  0  0  0  0  0  0  0  0  0
   64.0552   34.4624   48.5045 H   0  0  0  0  0  0  0  0  0  0  0  0
   61.9700   33.6480   46.7260 C   0  0  0  0  0  0  0  0  0  0  0  0
   62.8648   33.4051   46.1341 H   0  0  0  0  0  0  0  0  0  0  0  0
   60.7380   33.8240   46.0860 C   0  0  0  0  0  0  0  0  0  0  0  0
   60.6643   33.6947   44.9961 H   0  0  0  0  0  0  0  0  0  0  0  0
   57.2840   32.4290   44.8130 C   0  0  0  0  0  0  0  0  0  0  0  0
   56.5380   31.2890   44.8730 N   0  0  0  0  0  0  0  0  0  0  0  0
   56.3960   30.4630   43.8020 C   0  0  0  0  0  0  0  0  0  0  0  0
   55.7960   29.5453   43.8912 H   0  0  0  0  0  0  0  0  0  0  0  0
   57.0110   30.7790   42.5900 C   0  0  0  0  0  0  0  0  0  0  0  0
   56.9035   30.1126   41.7215 H   0  0  0  0  0  0  0  0  0  0  0  0
   57.7640   31.9500   42.4920 C   0  0  0  0  0  0  0  0  0  0  0  0
   58.2507   32.2148   41.5417 H   0  0  0  0  0  0  0  0  0  0  0  0
   57.8980   32.7850   43.6040 C   0  0  0  0  0  0  0  0  0  0  0  0
   58.4810   33.7150   43.5315 H   0  0  0  0  0  0  0  0  0  0  0  0
  1  2  1  0
  2  3  2  0
  3  4  1  0
  3  5  1  0
  5  6  2  0
  6  7  1  0
  6  8  1  0
  8  9  1  0
  8 10  2  0
 10 11  1  0
 11 12  1  0
 11 13  1  0
 11 14  1  0
 10 15  1  0
 15 16  1  0
 15 17  2  0
 17 18  1  0
  2 19  1  0
 19 20  2  0
 20 21  1  0
 21 22  1  0
 21 23  2  0
 23 24  1  0
 23 25  1  0
 25 26  1  0
 25 27  2  0
 27 28  1  0
 17  5  1  0
 27 19  1  0
M  END
>  <UniqueID>  (15) 
14

>  <SMILES>  (15) 
Cc1ccc(/C=C\c2ccccn2)cc1

>  <Energy>  (15) 
36.37524864756294

>  <Genealogy>  (15) 
Cc1ccc(/C=C\c2ccccn2)cc1 (cis-trans isomerization)
Cc1ccc(/C=C\c2ccccn2)cc1 (3D coordinates assigned)
Cc1ccc(/C=C\c2ccccn2)cc1 (optimized conformer: 36.37524864756294 kcal/mol)

>  <smiles>  (15) 
Cc1ccc(C=Cc2ccccn2)cc1

>  <score_type>  (15) 
oracle

>  <origin>  (15) 
adg

>  <m_score__min__energy>  (15) 
-6.7800000000000002

>  <m_primary>  (15) 
energy

$$$$
15:0
     RDKit          3D

 25 26  0  0  0  0  0  0  0  0999 V2000
   56.7822   29.4425   42.8381 H   0  0  0  0  0  0  0  0  0  0  0  0
   57.0330   29.2310   43.8880 C   0  0  0  0  0  0  0  0  0  0  0  0
   56.6690   30.0630   44.8160 N   0  0  0  0  0  0  0  0  0  0  0  0
   57.3550   31.2860   45.0990 C   0  0  0  0  0  0  0  0  0  0  0  0
   57.7700   31.6520   46.3370 N   0  0  0  0  0  0  0  0  0  0  0  0
   58.3890   32.8600   46.2960 C   0  0  0  0  0  0  0  0  0  0  0  0
   58.9280   33.5090   47.4090 C   0  0  0  0  0  0  0  0  0  0  0  0
   58.8711   33.0506   48.4073 H   0  0  0  0  0  0  0  0  0  0  0  0
   59.5440   34.7580   47.2290 C   0  0  0  0  0  0  0  0  0  0  0  0
   59.9743   35.2842   48.0938 H   0  0  0  0  0  0  0  0  0  0  0  0
   59.6150   35.3430   45.9470 C   0  0  0  0  0  0  0  0  0  0  0  0
   60.2120   36.5500   45.7870 F   0  0  0  0  0  0  0  0  0  0  0  0
   59.0690   34.6800   44.8350 C   0  0  0  0  0  0  0  0  0  0  0  0
   59.1175   35.1257   43.8305 H   0  0  0  0  0  0  0  0  0  0  0  0
   58.4650   33.4430   45.0410 C   0  0  0  0  0  0  0  0  0  0  0  0
   57.7350   32.4330   43.9140 S   0  0  0  0  0  0  0  0  0  0  0  0
   57.7600   28.0370   44.2190 N   0  0  0  0  0  0  0  0  0  0  0  0
   58.1040   27.7370   45.6120 C   0  0  0  0  0  0  0  0  0  0  0  0
   57.4473   28.3097   46.2834 H   0  0  0  0  0  0  0  0  0  0  0  0
   57.9711   26.6612   45.7990 H   0  0  0  0  0  0  0  0  0  0  0  0
   59.1517   28.0150   45.7990 H   0  0  0  0  0  0  0  0  0  0  0  0
   58.1460   27.1330   43.1350 C   0  0  0  0  0  0  0  0  0  0  0  0
   58.5444   26.1999   43.5600 H   0  0  0  0  0  0  0  0  0  0  0  0
   57.2659   26.9071   42.5150 H   0  0  0  0  0  0  0  0  0  0  0  0
   58.9179   27.6124   42.5150 H   0  0  0  0  0  0  0  0  0  0  0  0
  1  2  1  0
  2  3  2  0
  3  4  1  0
  4  5  2  0
  5  6  1  0
  6  7  2  0
  7  8  1  0
  7  9  1  0
  9 10  1  0
  9 11  2  0
 11 12  1  0
 11 13  1  0
 13 14  1  0
 13 15  2  0
 15 16  1  0
  2 17  1  0
 17 18  1  0
 18 19  1  0
 18 20  1  0
 18 21  1  0
 17 22  1  0
 22 23  1  0
 22 24  1  0
 22 25  1  0
 16  4  1  0
 15  6  1  0
M  END
>  <UniqueID>  (16) 
15

>  <SMILES>  (16) 
CN(C)/C=N/c1nc2ccc(F)cc2s1

>  <Energy>  (16) 
55.437685717522875

>  <Genealogy>  (16) 
CN(C)/C=N/c1nc2ccc(F)cc2s1 (cis-trans isomerization)
CN(C)/C=N/c1nc2ccc(F)cc2s1 (3D coordinates assigned)
CN(C)/C=N/c1nc2ccc(F)cc2s1 (optimized conformer: 55.437685717522875 kcal/mol)

>  <smiles>  (16) 
CN(C)C=Nc1nc2ccc(F)cc2s1

>  <score_type>  (16) 
oracle

>  <origin>  (16) 
adg

>  <m_score__min__energy>  (16) 
-5.7800000000000002

>  <m_primary>  (16) 
energy

$$$$
16:0
     RDKit          3D

 72 76  0  0  1  0  0  0  0  0999 V2000
   51.7460   29.7820   49.0220 N   0  0  0  0  0  0  0  0  0  0  0  0
   52.3490   29.8230   50.0880 N   0  0  0  0  0  0  0  0  0  0  0  0
   52.9620   29.8480   51.1610 N   0  0  0  0  0  0  0  0  0  0  0  0
   54.0120   30.8410   51.3450 C   0  0  0  0  0  0  0  0  0  0  0  0
   55.0990   30.1580   52.1890 C   0  0  0  0  0  0  0  0  0  0  0  0
   56.2930   30.3950   51.5500 O   0  0  0  0  0  0  0  0  0  0  0  0
   57.2430   31.0640   52.2640 C   0  0  0  0  0  0  0  0  0  0  0  0
   57.4090   32.5370   51.8630 C   0  0  0  0  0  0  0  0  0  0  0  0
   58.4780   32.7340   51.2510 O   0  0  0  0  0  0  0  0  0  0  0  0
   59.5400   32.9320   50.6360 C   0  0  0  0  0  0  0  0  0  0  0  0
   59.6530   34.1400   49.7000 C   0  0  0  0  0  0  0  0  0  0  0  0
   59.2710   33.8540   48.3450 N   0  0  0  0  0  0  0  0  0  0  0  0
   58.6770   32.7470   47.8780 C   0  0  0  0  0  0  0  0  0  0  0  0
   58.5230   32.8630   46.5160 C   0  0  0  0  0  0  0  0  0  0  0  0
   57.9050   31.9060   45.5450 C   0  0  0  0  0  0  0  0  0  0  0  0
   57.5950   30.7170   46.0500 O   0  0  0  0  0  0  0  0  0  0  0  0
   58.1030   29.4360   46.1170 C   0  0  0  0  0  0  0  0  0  0  0  0
   57.5770   28.3670   45.4990 C   0  0  0  0  0  0  0  0  0  0  0  0
   58.1850   27.1630   45.6440 C   0  0  0  0  0  0  0  0  0  0  0  0
   57.9150   25.8350   45.1120 C   0  0  0  0  0  0  0  0  0  0  0  0
   58.3790   24.6850   45.6210 N   0  0  0  0  0  0  0  0  0  0  0  0
   57.9650   23.6360   44.9010 C   0  0  0  0  0  0  0  0  0  0  0  0
   58.1890   22.2850   45.0410 C   0  0  0  0  0  0  0  0  0  0  0  0
   57.6290   21.4040   44.1360 C   0  0  0  0  0  0  0  0  0  0  0  0
   56.8620   21.9460   43.1240 C   0  0  0  0  0  0  0  0  0  0  0  0
   56.6420   23.2990   42.9910 C   0  0  0  0  0  0  0  0  0  0  0  0
   57.1950   24.1770   43.8870 C   0  0  0  0  0  0  0  0  0  0  0  0
   57.1930   25.5180   44.0570 N   0  0  0  0  0  0  0  0  0  0  0  0
   59.6570   27.4580   46.7500 S   0  0  0  0  0  0  0  0  0  0  0  0
   59.2400   29.2260   46.8700 C   0  0  0  0  0  0  0  0  0  0  0  0
   60.0200   30.1190   47.6380 N   0  0  0  0  0  0  0  0  0  0  0  0
   61.1110   30.5610   47.1480 C   0  0  0  0  0  0  0  0  0  0  0  0
   61.8400   31.6700   47.6500 N   0  0  0  0  0  0  0  0  0  0  0  0
   62.4020   31.6820   48.9750 C   0  0  0  0  0  0  0  0  0  0  0  0
   63.5830   32.5650   49.1660 C   0  0  0  0  0  0  0  0  0  0  0  0
   64.1330   33.1290   47.8690 C   0  0  0  0  0  0  0  0  0  0  0  0
   62.9560   33.8410   47.2190 C   0  0  0  0  0  0  0  0  0  0  0  0
   62.0020   32.7970   46.7520 C   0  0  0  0  0  0  0  0  0  0  0  0
   59.0430   34.0730   46.1750 N   0  0  0  0  0  0  0  0  0  0  0  0
   59.4690   34.6180   47.2840 N   0  0  0  0  0  0  0  0  0  0  0  0
   54.4214   31.1490   50.3716 H   0  0  0  0  0  0  0  0  0  0  0  0
   53.6282   31.7458   51.8389 H   0  0  0  0  0  0  0  0  0  0  0  0
   55.1185   30.5855   53.2023 H   0  0  0  0  0  0  0  0  0  0  0  0
   54.9074   29.0794   52.2887 H   0  0  0  0  0  0  0  0  0  0  0  0
   56.9664   31.0249   53.3279 H   0  0  0  0  0  0  0  0  0  0  0  0
   58.2029   30.5690   52.0554 H   0  0  0  0  0  0  0  0  0  0  0  0
   56.5691   32.8259   51.2141 H   0  0  0  0  0  0  0  0  0  0  0  0
   57.4255   33.1412   52.7821 H   0  0  0  0  0  0  0  0  0  0  0  0
   60.3330   33.0365   51.3912 H   0  0  0  0  0  0  0  0  0  0  0  0
   59.6111   32.0698   49.9567 H   0  0  0  0  0  0  0  0  0  0  0  0
   59.0022   34.9395   50.0836 H   0  0  0  0  0  0  0  0  0  0  0  0
   60.7122   34.4363   49.6814 H   0  0  0  0  0  0  0  0  0  0  0  0
   58.3634   31.8852   48.4855 H   0  0  0  0  0  0  0  0  0  0  0  0
   56.9830   32.3625   45.1556 H   0  0  0  0  0  0  0  0  0  0  0  0
   58.6626   31.7228   44.7688 H   0  0  0  0  0  0  0  0  0  0  0  0
   56.6691   28.4654   44.8858 H   0  0  0  0  0  0  0  0  0  0  0  0
   58.8097   21.9094   45.8679 H   0  0  0  0  0  0  0  0  0  0  0  0
   57.7873   20.3185   44.2181 H   0  0  0  0  0  0  0  0  0  0  0  0
   56.4055   21.2657   42.3900 H   0  0  0  0  0  0  0  0  0  0  0  0
   56.0216   23.6758   42.1645 H   0  0  0  0  0  0  0  0  0  0  0  0
   56.7060   26.2170   43.4580 H   0  0  0  0  0  0  0  0  0  0  0  0
   61.5187   30.0423   46.2678 H   0  0  0  0  0  0  0  0  0  0  0  0
   61.6174   32.0114   49.6720 H   0  0  0  0  0  0  0  0  0  0  0  0
   62.7601   30.6582   49.1583 H   0  0  0  0  0  0  0  0  0  0  0  0
   63.2892   33.4041   49.8137 H   0  0  0  0  0  0  0  0  0  0  0  0
   64.3775   31.9503   49.6143 H   0  0  0  0  0  0  0  0  0  0  0  0
   64.9498   33.8375   48.0711 H   0  0  0  0  0  0  0  0  0  0  0  0
   64.5502   32.3441   47.2211 H   0  0  0  0  0  0  0  0  0  0  0  0
   62.4642   34.4984   47.9511 H   0  0  0  0  0  0  0  0  0  0  0  0
   63.2960   34.4596   46.3754 H   0  0  0  0  0  0  0  0  0  0  0  0
   61.0180   33.2697   46.6166 H   0  0  0  0  0  0  0  0  0  0  0  0
   62.4227   32.3903   45.8205 H   0  0  0  0  0  0  0  0  0  0  0  0
  1  2  2  0
  2  3  2  0
  3  4  1  0
  4  5  1  0
  5  6  1  0
  6  7  1  0
  7  8  1  0
  8  9  1  0
  9 10  1  0
 10 11  1  0
 11 12  1  0
 12 13  1  0
 13 14  2  0
 14 15  1  0
 15 16  1  0
 16 17  1  0
 17 18  1  0
 18 19  2  0
 19 20  1  0
 20 21  2  0
 21 22  1  0
 22 23  2  0
 23 24  1  0
 24 25  2  0
 25 26  1  0
 26 27  2  0
 27 28  1  0
 19 29  1  0
 29 30  1  0
 30 31  1  0
 31 32  2  0
 32 33  1  0
 33 34  1  0
 34 35  1  0
 35 36  1  0
 36 37  1  0
 37 38  1  0
 14 39  1  0
 39 40  2  0
 40 12  1  0
 30 17  2  0
 38 33  1  0
 28 20  1  0
 27 22  1  0
  4 41  1  0
  4 42  1  0
  5 43  1  0
  5 44  1  0
  7 45  1  0
  7 46  1  0
  8 47  1  0
  8 48  1  0
 10 49  1  0
 10 50  1  0
 11 51  1  0
 11 52  1  0
 13 53  1  0
 15 54  1  0
 15 55  1  0
 18 56  1  0
 23 57  1  0
 24 58  1  0
 25 59  1  0
 26 60  1  0
 28 61  1  0
 32 62  1  0
 34 63  1  0
 34 64  1  0
 35 65  1  0
 35 66  1  0
 36 67  1  0
 36 68  1  0
 37 69  1  0
 37 70  1  0
 38 71  1  0
 38 72  1  0
M  CHG  2   1  -1   2   1
M  END
>  <smiles>  (17) 
[N-]=[N+]=NCCOCCOCCn1cc(COc2cc(-c3nc4ccccc4[nH]3)sc2N=CN2CCCCC2)nn1

>  <score_type>  (17) 
oracle

>  <origin>  (17) 
adg

>  <m_score__min__energy>  (17) 
-9.8599999999999994

>  <m_primary>  (17) 
energy

$$$$
17:0
     RDKit          3D

 34 36  0  0  0  0  0  0  0  0999 V2000
   56.8492   32.1800   47.1776 H   0  0  0  0  0  0  0  0  0  0  0  0
   57.4100   32.7280   46.4060 C   0  0  0  0  0  0  0  0  0  0  0  0
   58.1650   33.8510   46.7590 C   0  0  0  0  0  0  0  0  0  0  0  0
   58.1764   34.1966   47.8032 H   0  0  0  0  0  0  0  0  0  0  0  0
   58.9080   34.5390   45.7880 C   0  0  0  0  0  0  0  0  0  0  0  0
   59.6860   35.7660   46.1600 C   0  0  0  0  0  0  0  0  0  0  0  0
   59.7385   35.8487   47.2556 H   0  0  0  0  0  0  0  0  0  0  0  0
   60.7036   35.6937   45.7486 H   0  0  0  0  0  0  0  0  0  0  0  0
   59.1866   36.6556   45.7486 H   0  0  0  0  0  0  0  0  0  0  0  0
   58.8730   34.1010   44.4560 C   0  0  0  0  0  0  0  0  0  0  0  0
   59.4400   34.6443   43.6857 H   0  0  0  0  0  0  0  0  0  0  0  0
   58.1200   32.9760   44.1030 C   0  0  0  0  0  0  0  0  0  0  0  0
   58.1212   32.6232   43.0611 H   0  0  0  0  0  0  0  0  0  0  0  0
   57.3650   32.2960   45.0660 C   0  0  0  0  0  0  0  0  0  0  0  0
   56.6310   31.1260   44.6670 N   0  0  0  0  0  0  0  0  0  0  0  0
   57.0500   29.8950   44.6900 C   0  0  0  0  0  0  0  0  0  0  0  0
   56.2860   28.9480   45.2980 N   0  0  0  0  0  0  0  0  0  0  0  0
   56.6910   27.6530   45.3700 C   0  0  0  0  0  0  0  0  0  0  0  0
   55.8870   26.6940   45.9940 C   0  0  0  0  0  0  0  0  0  0  0  0
   54.9207   26.9902   46.4282 H   0  0  0  0  0  0  0  0  0  0  0  0
   56.3040   25.3580   46.0700 C   0  0  0  0  0  0  0  0  0  0  0  0
   55.4610   24.4350   46.7060 O   0  0  0  0  0  0  0  0  0  0  0  0
   55.9130   23.3960   47.5700 C   0  0  0  0  0  0  0  0  0  0  0  0
   55.7784   23.7053   48.6170 H   0  0  0  0  0  0  0  0  0  0  0  0
   55.3312   22.4820   47.3800 H   0  0  0  0  0  0  0  0  0  0  0  0
   56.9783   23.1986   47.3800 H   0  0  0  0  0  0  0  0  0  0  0  0
   57.5440   24.9890   45.5100 C   0  0  0  0  0  0  0  0  0  0  0  0
   57.8781   23.9424   45.5644 H   0  0  0  0  0  0  0  0  0  0  0  0
   58.3520   25.9440   44.8860 C   0  0  0  0  0  0  0  0  0  0  0  0
   59.3189   25.6486   44.4527 H   0  0  0  0  0  0  0  0  0  0  0  0
   57.9290   27.2780   44.8130 C   0  0  0  0  0  0  0  0  0  0  0  0
   58.7060   28.2650   44.2030 C   0  0  0  0  0  0  0  0  0  0  0  0
   59.6795   28.0066   43.7607 H   0  0  0  0  0  0  0  0  0  0  0  0
   58.2550   29.5450   44.1580 N   0  0  0  0  0  0  0  0  0  0  0  0
  1  2  1  0
  2  3  2  0
  3  4  1  0
  3  5  1  0
  5  6  1  0
  6  7  1  0
  6  8  1  0
  6  9  1  0
  5 10  2  0
 10 11  1  0
 10 12  1  0
 12 13  1  0
 12 14  2  0
 14 15  1  0
 15 16  2  0
 16 17  1  0
 17 18  2  0
 18 19  1  0
 19 20  1  0
 19 21  2  0
 21 22  1  0
 22 23  1  0
 23 24  1  0
 23 25  1  0
 23 26  1  0
 21 27  1  0
 27 28  1  0
 27 29  2  0
 29 30  1  0
 29 31  1  0
 31 32  2  0
 32 33  1  0
 32 34  1  0
 14  2  1  0
 34 16  1  0
 31 18  1  0
M  CHG  1  34  -1
M  END
>  <UniqueID>  (18) 
16

>  <SMILES>  (18) 
COc1ccc2c[n-]/c(=N\c3ccc(C)cc3)nc2c1

>  <Energy>  (18) 
45.09966139209619

>  <Genealogy>  (18) 
COc1ccc2c[n-]c(=Nc3ccc(C)cc3)nc2c1 (protonated)
COc1ccc2c[n-]/c(=N\c3ccc(C)cc3)nc2c1 (cis-trans isomerization)
COc1ccc2c[n-]/c(=N\c3ccc(C)cc3)nc2c1 (3D coordinates assigned)
COc1ccc2c[n-]/c(=N\c3ccc(C)cc3)nc2c1 (optimized conformer: 45.09966139209619 kcal/mol)

>  <smiles>  (18) 
COc1ccc2c[nH]c(=Nc3ccc(C)cc3)nc2c1

>  <score_type>  (18) 
oracle

>  <origin>  (18) 
adg

>  <m_score__min__energy>  (18) 
-8.4499999999999993

>  <m_primary>  (18) 
energy

$$$$
18:0
     RDKit          3D

 53 56  0  0  0  0  0  0  0  0999 V2000
   58.5350   32.0280   52.7740 C   0  0  0  0  0  0  0  0  0  0  0  0
   58.9550   32.9000   51.5950 C   0  0  0  0  0  0  0  0  0  0  0  0
   59.3240   32.0520   50.4100 C   0  0  0  0  0  0  0  0  0  0  0  0
   58.4980   30.6420   49.9950 S   0  0  0  0  0  0  0  0  0  0  0  0
   59.4690   30.2970   48.6810 C   0  0  0  0  0  0  0  0  0  0  0  0
   59.3230   29.2440   47.8470 N   0  0  0  0  0  0  0  0  0  0  0  0
   60.1850   29.0990   46.8050 C   0  0  0  0  0  0  0  0  0  0  0  0
   60.0200   27.9480   45.8640 C   0  0  0  0  0  0  0  0  0  0  0  0
   61.1700   30.0230   46.5970 N   0  0  0  0  0  0  0  0  0  0  0  0
   61.3370   31.0960   47.4270 C   0  0  0  0  0  0  0  0  0  0  0  0
   62.3780   32.0290   47.1350 N   0  0  0  0  0  0  0  0  0  0  0  0
   62.3930   33.4450   46.7160 C   0  0  0  0  0  0  0  0  0  0  0  0
   63.7010   33.7900   47.3430 C   0  0  0  0  0  0  0  0  0  0  0  0
   63.6530   32.3710   47.7930 C   0  0  0  0  0  0  0  0  0  0  0  0
   60.4620   31.2520   48.5230 C   0  0  0  0  0  0  0  0  0  0  0  0
   60.4040   32.2550   49.5280 C   0  0  0  0  0  0  0  0  0  0  0  0
   61.3180   33.4480   49.6500 C   0  0  0  0  0  0  0  0  0  0  0  0
   60.6860   34.6200   49.0310 N   0  0  0  0  0  0  0  0  0  0  0  0
   59.4310   34.2780   48.3420 C   0  0  0  0  0  0  0  0  0  0  0  0
   59.4040   34.7740   46.8880 C   0  0  0  0  0  0  0  0  0  0  0  0
   58.7820   33.7390   45.9900 C   0  0  0  0  0  0  0  0  0  0  0  0
   58.7270   33.9450   44.6010 C   0  0  0  0  0  0  0  0  0  0  0  0
   58.1770   32.9680   43.7660 C   0  0  0  0  0  0  0  0  0  0  0  0
   57.6870   31.7750   44.3070 C   0  0  0  0  0  0  0  0  0  0  0  0
   57.0000   30.5510   43.2570 Cl  0  0  0  0  0  0  0  0  0  0  0  0
   57.7520   31.5580   45.6880 C   0  0  0  0  0  0  0  0  0  0  0  0
   58.3010   32.5330   46.5260 C   0  0  0  0  0  0  0  0  0  0  0  0
   58.7819   32.5406   53.7154 H   0  0  0  0  0  0  0  0  0  0  0  0
   57.4509   31.8470   52.7284 H   0  0  0  0  0  0  0  0  0  0  0  0
   59.0693   31.0676   52.7284 H   0  0  0  0  0  0  0  0  0  0  0  0
   58.1200   33.5611   51.3196 H   0  0  0  0  0  0  0  0  0  0  0  0
   59.8320   33.4946   51.8904 H   0  0  0  0  0  0  0  0  0  0  0  0
   59.8870   27.0200   46.4395 H   0  0  0  0  0  0  0  0  0  0  0  0
   59.1368   28.1162   45.2302 H   0  0  0  0  0  0  0  0  0  0  0  0
   60.9149   27.8613   45.2302 H   0  0  0  0  0  0  0  0  0  0  0  0
   61.8140   29.9090   45.7810 H   0  0  0  0  0  0  0  0  0  0  0  0
   62.4037   33.5628   45.6224 H   0  0  0  0  0  0  0  0  0  0  0  0
   61.5261   34.0584   47.0027 H   0  0  0  0  0  0  0  0  0  0  0  0
   64.5124   34.0400   46.6437 H   0  0  0  0  0  0  0  0  0  0  0  0
   63.8546   34.6455   48.0172 H   0  0  0  0  0  0  0  0  0  0  0  0
   64.4976   31.7780   47.4122 H   0  0  0  0  0  0  0  0  0  0  0  0
   63.7167   32.1911   48.8763 H   0  0  0  0  0  0  0  0  0  0  0  0
   61.5098   33.6547   50.7133 H   0  0  0  0  0  0  0  0  0  0  0  0
   62.2680   33.2333   49.1386 H   0  0  0  0  0  0  0  0  0  0  0  0
   60.5030   35.3450   49.7630 H   0  0  0  0  0  0  0  0  0  0  0  0
   59.3143   33.1842   48.3438 H   0  0  0  0  0  0  0  0  0  0  0  0
   58.6089   34.7733   48.8794 H   0  0  0  0  0  0  0  0  0  0  0  0
   58.8157   35.7018   46.8328 H   0  0  0  0  0  0  0  0  0  0  0  0
   60.4362   34.9593   46.5559 H   0  0  0  0  0  0  0  0  0  0  0  0
   59.1180   34.8781   44.1693 H   0  0  0  0  0  0  0  0  0  0  0  0
   58.1295   33.1380   42.6803 H   0  0  0  0  0  0  0  0  0  0  0  0
   57.3705   30.6187   46.1148 H   0  0  0  0  0  0  0  0  0  0  0  0
   58.3566   32.3550   47.6101 H   0  0  0  0  0  0  0  0  0  0  0  0
  1  2  1  0
  2  3  1  0
  3  4  1  0
  4  5  1  0
  5  6  2  0
  6  7  1  0
  7  8  1  0
  7  9  2  0
  9 10  1  0
 10 11  1  0
 11 12  1  0
 12 13  1  0
 13 14  1  0
 10 15  2  0
 15 16  1  0
 16 17  1  0
 17 18  1  0
 18 19  1  0
 19 20  1  0
 20 21  1  0
 21 22  2  0
 22 23  1  0
 23 24  2  0
 24 25  1  0
 24 26  1  0
 26 27  2  0
 16  3  2  0
 27 21  1  0
 15  5  1  0
 14 11  1  0
  1 28  1  0
  1 29  1  0
  1 30  1  0
  2 31  1  0
  2 32  1  0
  8 33  1  0
  8 34  1  0
  8 35  1  0
  9 36  1  0
 12 37  1  0
 12 38  1  0
 13 39  1  0
 13 40  1  0
 14 41  1  0
 14 42  1  0
 17 43  1  0
 17 44  1  0
 18 45  1  0
 19 46  1  0
 19 47  1  0
 20 48  1  0
 20 49  1  0
 22 50  1  0
 23 51  1  0
 26 52  1  0
 27 53  1  0
M  CHG  1   9   1
M  END
>  <UniqueID>  (19) 
17

>  <SMILES>  (19) 
CCc1sc2nc(C)[nH+]c(N3CCC3)c2c1CNCCc1ccc(Cl)cc1

>  <Energy>  (19) 
133.62952500043056

>  <Genealogy>  (19) 
CCc1sc2nc(C)[nH+]c(N3CCC3)c2c1CNCCc1ccc(Cl)cc1 (protonated)
CCc1sc2nc(C)[nH+]c(N3CCC3)c2c1CNCCc1ccc(Cl)cc1 (3D coordinates assigned)
CCc1sc2nc(C)[nH+]c(N3CCC3)c2c1CNCCc1ccc(Cl)cc1 (nonaromatic ring conformer: 133.62952500043056 kcal/mol)

>  <smiles>  (19) 
CCc1sc2nc(C)nc(N3CCC3)c2c1CNCCc1ccc(Cl)cc1

>  <score_type>  (19) 
oracle

>  <origin>  (19) 
adg

>  <m_score__min__energy>  (19) 
-6.6699999999999999

>  <m_primary>  (19) 
energy

$$$$
19:0
     RDKit          3D

 52 55  0  0  0  0  0  0  0  0999 V2000
   56.7480   20.7250   42.9990 C   0  0  0  0  0  0  0  0  0  0  0  0
   55.9140   21.8780   42.9940 O   0  0  0  0  0  0  0  0  0  0  0  0
   56.0670   22.9740   43.8590 C   0  0  0  0  0  0  0  0  0  0  0  0
   56.9610   24.0250   43.5820 C   0  0  0  0  0  0  0  0  0  0  0  0
   57.0870   25.0980   44.4670 C   0  0  0  0  0  0  0  0  0  0  0  0
   56.3170   25.1450   45.6360 C   0  0  0  0  0  0  0  0  0  0  0  0
   56.4810   26.2880   46.6050 C   0  0  0  0  0  0  0  0  0  0  0  0
   57.7270   26.1070   47.4730 C   0  0  0  0  0  0  0  0  0  0  0  0
   58.9100   25.9560   46.6310 N   0  0  0  0  0  0  0  0  0  0  0  0
   59.5450   27.0140   45.9030 C   0  0  0  0  0  0  0  0  0  0  0  0
   60.7750   26.9190   45.6530 O   0  0  0  0  0  0  0  0  0  0  0  0
   58.8170   28.2200   45.4670 C   0  0  0  0  0  0  0  0  0  0  0  0
   57.8810   28.2520   44.4950 N   0  0  0  0  0  0  0  0  0  0  0  0
   57.4620   29.5000   44.3380 N   0  0  0  0  0  0  0  0  0  0  0  0
   56.4010   29.8730   43.4070 C   0  0  0  0  0  0  0  0  0  0  0  0
   58.1530   30.2980   45.1870 C   0  0  0  0  0  0  0  0  0  0  0  0
   59.0070   29.5110   45.9300 C   0  0  0  0  0  0  0  0  0  0  0  0
   59.8860   30.0250   47.0270 C   0  0  0  0  0  0  0  0  0  0  0  0
   58.9300   31.2380   48.0040 S   0  0  0  0  0  0  0  0  0  0  0  0
   58.5180   32.3090   46.6010 C   0  0  0  0  0  0  0  0  0  0  0  0
   58.6300   33.6950   46.7570 C   0  0  0  0  0  0  0  0  0  0  0  0
   58.2840   34.5510   45.7100 C   0  0  0  0  0  0  0  0  0  0  0  0
   57.8470   34.0250   44.4930 C   0  0  0  0  0  0  0  0  0  0  0  0
   57.7560   32.6410   44.3160 C   0  0  0  0  0  0  0  0  0  0  0  0
   58.0700   31.7680   45.3740 C   0  0  0  0  0  0  0  0  0  0  0  0
   55.4310   24.0940   45.9210 C   0  0  0  0  0  0  0  0  0  0  0  0
   55.3000   23.0070   45.0350 C   0  0  0  0  0  0  0  0  0  0  0  0
   54.4230   21.9420   45.2880 O   0  0  0  0  0  0  0  0  0  0  0  0
   54.1060   21.4470   46.5860 C   0  0  0  0  0  0  0  0  0  0  0  0
   56.9608   20.4309   44.0374 H   0  0  0  0  0  0  0  0  0  0  0  0
   56.2362   19.9000   42.4817 H   0  0  0  0  0  0  0  0  0  0  0  0
   57.6917   20.9528   42.4817 H   0  0  0  0  0  0  0  0  0  0  0  0
   57.5644   24.0012   42.6626 H   0  0  0  0  0  0  0  0  0  0  0  0
   57.7946   25.9104   44.2448 H   0  0  0  0  0  0  0  0  0  0  0  0
   56.5719   27.2270   46.0393 H   0  0  0  0  0  0  0  0  0  0  0  0
   55.6002   26.3137   47.2635 H   0  0  0  0  0  0  0  0  0  0  0  0
   57.8510   26.9885   48.1192 H   0  0  0  0  0  0  0  0  0  0  0  0
   57.6072   25.2037   48.0892 H   0  0  0  0  0  0  0  0  0  0  0  0
   57.5510   27.4440   43.9230 H   0  0  0  0  0  0  0  0  0  0  0  0
   55.5107   30.1860   43.9721 H   0  0  0  0  0  0  0  0  0  0  0  0
   56.7444   30.7043   42.7737 H   0  0  0  0  0  0  0  0  0  0  0  0
   56.1486   29.0097   42.7737 H   0  0  0  0  0  0  0  0  0  0  0  0
   60.2010   29.1921   47.6728 H   0  0  0  0  0  0  0  0  0  0  0  0
   60.7831   30.5005   46.6037 H   0  0  0  0  0  0  0  0  0  0  0  0
   58.9921   34.1117   47.7084 H   0  0  0  0  0  0  0  0  0  0  0  0
   58.3557   35.6404   45.8440 H   0  0  0  0  0  0  0  0  0  0  0  0
   57.5732   34.7018   43.6702 H   0  0  0  0  0  0  0  0  0  0  0  0
   57.4376   32.2328   43.3454 H   0  0  0  0  0  0  0  0  0  0  0  0
   54.8338   24.1197   46.8444 H   0  0  0  0  0  0  0  0  0  0  0  0
   54.5339   22.1152   47.3478 H   0  0  0  0  0  0  0  0  0  0  0  0
   53.0133   21.4062   46.7061 H   0  0  0  0  0  0  0  0  0  0  0  0
   54.5260   20.4375   46.7061 H   0  0  0  0  0  0  0  0  0  0  0  0
  1  2  1  0
  2  3  1  0
  3  4  2  0
  4  5  1  0
  5  6  2  0
  6  7  1  0
  7  8  1  0
  8  9  1  0
  9 10  1  0
 10 11  2  0
 10 12  1  0
 12 13  2  0
 13 14  1  0
 14 15  1  0
 14 16  1  0
 16 17  2  0
 17 18  1  0
 18 19  1  0
 19 20  1  0
 20 21  2  0
 21 22  1  0
 22 23  2  0
 23 24  1  0
 24 25  2  0
  6 26  1  0
 26 27  2  0
 27 28  1  0
 28 29  1  0
 27  3  1  0
 17 12  1  0
 25 20  1  0
 25 16  1  0
  1 30  1  0
  1 31  1  0
  1 32  1  0
  4 33  1  0
  5 34  1  0
  7 35  1  0
  7 36  1  0
  8 37  1  0
  8 38  1  0
 13 39  1  0
 15 40  1  0
 15 41  1  0
 15 42  1  0
 18 43  1  0
 18 44  1  0
 21 45  1  0
 22 46  1  0
 23 47  1  0
 24 48  1  0
 26 49  1  0
 29 50  1  0
 29 51  1  0
 29 52  1  0
M  CHG  2   9  -1  13   1
M  END
>  <UniqueID>  (20) 
18

>  <SMILES>  (20) 
COc1ccc(CC[N-]C(=O)c2[nH+]n(C)c3c2CSc2ccccc2-3)cc1OC

>  <Energy>  (20) 
96.65829898570502

>  <Genealogy>  (20) 
COc1ccc(CC[N-]C(=O)c2[nH+]n(C)c3c2CSc2ccccc2-3)cc1OC (protonated)
COc1ccc(CC[N-]C(=O)c2[nH+]n(C)c3c2CSc2ccccc2-3)cc1OC (3D coordinates assigned)
COc1ccc(CC[N-]C(=O)c2[nH+]n(C)c3c2CSc2ccccc2-3)cc1OC (nonaromatic ring conformer: 96.65829898570502 kcal/mol)

>  <smiles>  (20) 
COc1ccc(CCNC(=O)c2nn(C)c3c2CSc2ccccc2-3)cc1OC

>  <score_type>  (20) 
oracle

>  <origin>  (20) 
adg

>  <m_score__min__energy>  (20) 
-8.9499999999999993

>  <m_primary>  (20) 
energy

$$$$
20:0
     RDKit          3D

 41 43  0  0  0  0  0  0  0  0999 V2000
   56.2430   29.7180   42.4960 C   0  0  0  0  0  0  0  0  0  0  0  0
   56.9520   30.0900   43.7620 C   0  0  0  0  0  0  0  0  0  0  0  0
   56.8940   29.4030   44.9610 C   0  0  0  0  0  0  0  0  0  0  0  0
   56.0930   28.2500   45.2400 N   0  0  0  0  0  0  0  0  0  0  0  0
   56.5960   26.9690   45.6360 C   0  0  0  0  0  0  0  0  0  0  0  0
   55.8810   26.2380   46.3710 O   0  0  0  0  0  0  0  0  0  0  0  0
   57.9150   26.4380   45.1430 C   0  0  0  0  0  0  0  0  0  0  0  0
   58.4190   24.9310   46.0480 S   0  0  0  0  0  0  0  0  0  0  0  0
   57.7440   23.7960   44.8400 C   0  0  0  0  0  0  0  0  0  0  0  0
   58.1970   22.5150   44.7840 N   0  0  0  0  0  0  0  0  0  0  0  0
   57.6960   21.6390   43.8750 C   0  0  0  0  0  0  0  0  0  0  0  0
   56.7060   22.0520   42.9830 C   0  0  0  0  0  0  0  0  0  0  0  0
   56.2570   23.3710   43.0530 C   0  0  0  0  0  0  0  0  0  0  0  0
   56.7830   24.2170   43.9760 N   0  0  0  0  0  0  0  0  0  0  0  0
   57.6470   30.1500   45.8410 C   0  0  0  0  0  0  0  0  0  0  0  0
   57.8050   29.9130   47.0690 O   0  0  0  0  0  0  0  0  0  0  0  0
   58.1630   31.2160   45.1950 N   0  0  0  0  0  0  0  0  0  0  0  0
   59.0230   32.2140   45.7700 C   0  0  0  0  0  0  0  0  0  0  0  0
   58.6890   33.5760   45.6790 C   0  0  0  0  0  0  0  0  0  0  0  0
   59.5320   34.5460   46.2280 C   0  0  0  0  0  0  0  0  0  0  0  0
   60.7150   34.1650   46.8680 C   0  0  0  0  0  0  0  0  0  0  0  0
   61.0570   32.8130   46.9560 C   0  0  0  0  0  0  0  0  0  0  0  0
   60.2170   31.8400   46.4060 C   0  0  0  0  0  0  0  0  0  0  0  0
   57.7250   31.1920   43.9360 N   0  0  0  0  0  0  0  0  0  0  0  0
   58.0250   32.1990   42.9150 C   0  0  0  0  0  0  0  0  0  0  0  0
   55.2933   29.2197   42.7404 H   0  0  0  0  0  0  0  0  0  0  0  0
   56.0402   30.6259   41.9089 H   0  0  0  0  0  0  0  0  0  0  0  0
   56.8748   29.0352   41.9089 H   0  0  0  0  0  0  0  0  0  0  0  0
   57.8252   26.1980   44.0733 H   0  0  0  0  0  0  0  0  0  0  0  0
   58.6798   27.2105   45.3111 H   0  0  0  0  0  0  0  0  0  0  0  0
   58.0704   20.6052   43.8421 H   0  0  0  0  0  0  0  0  0  0  0  0
   56.2893   21.3541   42.2419 H   0  0  0  0  0  0  0  0  0  0  0  0
   55.4782   23.7252   42.3617 H   0  0  0  0  0  0  0  0  0  0  0  0
   57.7604   33.8798   45.1737 H   0  0  0  0  0  0  0  0  0  0  0  0
   59.2644   35.6105   46.1565 H   0  0  0  0  0  0  0  0  0  0  0  0
   61.3764   34.9292   47.3022 H   0  0  0  0  0  0  0  0  0  0  0  0
   61.9885   32.5138   47.4588 H   0  0  0  0  0  0  0  0  0  0  0  0
   60.4930   30.7772   46.4720 H   0  0  0  0  0  0  0  0  0  0  0  0
   58.3064   33.1437   43.4033 H   0  0  0  0  0  0  0  0  0  0  0  0
   58.8577   31.8483   42.2876 H   0  0  0  0  0  0  0  0  0  0  0  0
   57.1361   32.3611   42.2876 H   0  0  0  0  0  0  0  0  0  0  0  0
  1  2  1  0
  2  3  2  0
  3  4  1  0
  4  5  1  0
  5  6  2  0
  5  7  1  0
  7  8  1  0
  8  9  1  0
  9 10  2  0
 10 11  1  0
 11 12  2  0
 12 13  1  0
 13 14  2  0
  3 15  1  0
 15 16  2  0
 15 17  1  0
 17 18  1  0
 18 19  2  0
 19 20  1  0
 20 21  2  0
 21 22  1  0
 22 23  2  0
 17 24  1  0
 24 25  1  0
 24  2  1  0
 14  9  1  0
 23 18  1  0
  1 26  1  0
  1 27  1  0
  1 28  1  0
  7 29  1  0
  7 30  1  0
 11 31  1  0
 12 32  1  0
 13 33  1  0
 19 34  1  0
 20 35  1  0
 21 36  1  0
 22 37  1  0
 23 38  1  0
 25 39  1  0
 25 40  1  0
 25 41  1  0
M  CHG  1   4  -1
M  END
>  <UniqueID>  (21) 
19

>  <SMILES>  (21) 
Cc1c([N-]C(=O)CSc2ncccn2)c(=O)n(-c2ccccc2)n1C

>  <Energy>  (21) 
86.03676513621441

>  <Genealogy>  (21) 
Cc1c([N-]C(=O)CSc2ncccn2)c(=O)n(-c2ccccc2)n1C (protonated)
Cc1c([N-]C(=O)CSc2ncccn2)c(=O)n(-c2ccccc2)n1C (3D coordinates assigned)
Cc1c([N-]C(=O)CSc2ncccn2)c(=O)n(-c2ccccc2)n1C (optimized conformer: 86.03676513621441 kcal/mol)

>  <smiles>  (21) 
Cc1c(NC(=O)CSc2ncccn2)c(=O)n(-c2ccccc2)n1C

>  <score_type>  (21) 
oracle

>  <origin>  (21) 
adg

>  <m_score__min__energy>  (21) 
-9.7699999999999996

>  <m_primary>  (21) 
energy

$$$$
21:0
     RDKit          3D

 28 29  0  0  0  0  0  0  0  0999 V2000
   62.8520   33.5380   47.0970 C   0  0  0  0  0  0  0  0  0  0  0  0
   61.9050   32.6040   47.2120 C   0  0  0  0  0  0  0  0  0  0  0  0
   60.5370   32.9530   47.7330 C   0  0  0  0  0  0  0  0  0  0  0  0
   59.6000   33.2960   46.6000 C   0  0  0  0  0  0  0  0  0  0  0  0
   58.8960   32.2610   45.9570 C   0  0  0  0  0  0  0  0  0  0  0  0
   58.0100   32.5350   44.9040 C   0  0  0  0  0  0  0  0  0  0  0  0
   57.2870   31.4310   44.2390 C   0  0  0  0  0  0  0  0  0  0  0  0
   57.5160   31.0650   43.0250 N   0  0  0  0  0  0  0  0  0  0  0  0
   56.6350   29.9570   42.6860 C   0  0  0  0  0  0  0  0  0  0  0  0
   55.8100   29.7150   43.9560 C   0  0  0  0  0  0  0  0  0  0  0  0
   56.3000   30.6900   44.8590 O   0  0  0  0  0  0  0  0  0  0  0  0
   57.8250   33.8650   44.4960 C   0  0  0  0  0  0  0  0  0  0  0  0
   58.5050   34.9010   45.1350 C   0  0  0  0  0  0  0  0  0  0  0  0
   59.3850   34.6330   46.1890 C   0  0  0  0  0  0  0  0  0  0  0  0
   60.0190   35.7140   46.8050 O   0  0  0  0  0  0  0  0  0  0  0  0
   63.8474   33.2679   46.7145 H   0  0  0  0  0  0  0  0  0  0  0  0
   62.6369   34.5777   47.3847 H   0  0  0  0  0  0  0  0  0  0  0  0
   62.1275   31.5664   46.9223 H   0  0  0  0  0  0  0  0  0  0  0  0
   60.1325   32.0931   48.2870 H   0  0  0  0  0  0  0  0  0  0  0  0
   60.6253   33.8285   48.3931 H   0  0  0  0  0  0  0  0  0  0  0  0
   59.0425   31.2213   46.2849 H   0  0  0  0  0  0  0  0  0  0  0  0
   55.9808   30.2251   41.8433 H   0  0  0  0  0  0  0  0  0  0  0  0
   57.1926   29.0615   42.3742 H   0  0  0  0  0  0  0  0  0  0  0  0
   54.7373   29.8624   43.7621 H   0  0  0  0  0  0  0  0  0  0  0  0
   55.9056   28.6887   44.3401 H   0  0  0  0  0  0  0  0  0  0  0  0
   57.1390   34.0916   43.6666 H   0  0  0  0  0  0  0  0  0  0  0  0
   58.3480   35.9392   44.8072 H   0  0  0  0  0  0  0  0  0  0  0  0
   59.5300   36.5460   47.1090 H   0  0  0  0  0  0  0  0  0  0  0  0
  1  2  2  0
  2  3  1  0
  3  4  1  0
  4  5  2  0
  5  6  1  0
  6  7  1  0
  7  8  2  0
  8  9  1  0
  9 10  1  0
 10 11  1  0
  6 12  2  0
 12 13  1  0
 13 14  2  0
 14 15  1  0
 14  4  1  0
 11  7  1  0
  1 16  1  0
  1 17  1  0
  2 18  1  0
  3 19  1  0
  3 20  1  0
  5 21  1  0
  9 22  1  0
  9 23  1  0
 10 24  1  0
 10 25  1  0
 12 26  1  0
 13 27  1  0
 15 28  1  0
M  END
>  <UniqueID>  (22) 
20

>  <SMILES>  (22) 
C=CCc1cc(C2=NCCO2)ccc1O

>  <Energy>  (22) 
39.28891056165211

>  <Genealogy>  (22) 
C=CCc1cc(C2=NCCO2)ccc1O (3D coordinates assigned)
C=CCc1cc(C2=NCCO2)ccc1O (nonaromatic ring conformer: 39.28891056165211 kcal/mol)

>  <smiles>  (22) 
C=CCc1cc(C2=NCCO2)ccc1O

>  <score_type>  (22) 
oracle

>  <origin>  (22) 
adg

>  <m_score__min__energy>  (22) 
-5.6699999999999999

>  <m_primary>  (22) 
energy

$$$$
22:0
     RDKit          3D

 35 37  0  0  0  0  0  0  0  0999 V2000
   57.3550   27.4440   45.2590 C   0  0  0  0  0  0  0  0  0  0  0  0
   56.5390   28.5990   45.0950 O   0  0  0  0  0  0  0  0  0  0  0  0
   56.9460   29.7830   44.4550 C   0  0  0  0  0  0  0  0  0  0  0  0
   56.6130   30.0410   43.1120 C   0  0  0  0  0  0  0  0  0  0  0  0
   57.0230   31.2220   42.4970 C   0  0  0  0  0  0  0  0  0  0  0  0
   57.7450   32.1720   43.2140 C   0  0  0  0  0  0  0  0  0  0  0  0
   58.0700   31.9570   44.5610 C   0  0  0  0  0  0  0  0  0  0  0  0
   58.7930   33.0310   45.2770 C   0  0  0  0  0  0  0  0  0  0  0  0
   58.5980   34.3890   45.0340 C   0  0  0  0  0  0  0  0  0  0  0  0
   59.6700   35.2400   46.0070 S   0  0  0  0  0  0  0  0  0  0  0  0
   60.3470   33.8580   46.6960 C   0  0  0  0  0  0  0  0  0  0  0  0
   61.4480   33.8230   47.6940 C   0  0  0  0  0  0  0  0  0  0  0  0
   62.7900   33.6090   47.3010 C   0  0  0  0  0  0  0  0  0  0  0  0
   63.1280   33.4570   45.9960 F   0  0  0  0  0  0  0  0  0  0  0  0
   63.8100   33.5770   48.2580 C   0  0  0  0  0  0  0  0  0  0  0  0
   63.5150   33.7590   49.6080 C   0  0  0  0  0  0  0  0  0  0  0  0
   62.1980   33.9760   50.0110 C   0  0  0  0  0  0  0  0  0  0  0  0
   61.1670   34.0090   49.0670 C   0  0  0  0  0  0  0  0  0  0  0  0
   59.8970   34.2050   49.5030 F   0  0  0  0  0  0  0  0  0  0  0  0
   59.7690   32.7470   46.1830 N   0  0  0  0  0  0  0  0  0  0  0  0
   57.7070   30.7290   45.1790 C   0  0  0  0  0  0  0  0  0  0  0  0
   58.1100   30.4130   46.6010 C   0  0  0  0  0  0  0  0  0  0  0  0
   57.4962   27.2441   46.3314 H   0  0  0  0  0  0  0  0  0  0  0  0
   56.8661   26.5795   44.7861 H   0  0  0  0  0  0  0  0  0  0  0  0
   58.3332   27.6160   44.7861 H   0  0  0  0  0  0  0  0  0  0  0  0
   56.0249   29.3051   42.5440 H   0  0  0  0  0  0  0  0  0  0  0  0
   56.7753   31.4044   41.4409 H   0  0  0  0  0  0  0  0  0  0  0  0
   58.0639   33.1010   42.7187 H   0  0  0  0  0  0  0  0  0  0  0  0
   57.8726   34.8251   44.3314 H   0  0  0  0  0  0  0  0  0  0  0  0
   64.8503   33.4073   47.9434 H   0  0  0  0  0  0  0  0  0  0  0  0
   64.3214   33.7314   50.3557 H   0  0  0  0  0  0  0  0  0  0  0  0
   61.9689   34.1220   51.0769 H   0  0  0  0  0  0  0  0  0  0  0  0
   57.4399   30.9384   47.2974 H   0  0  0  0  0  0  0  0  0  0  0  0
   58.0375   29.3285   46.7703 H   0  0  0  0  0  0  0  0  0  0  0  0
   59.1459   30.7421   46.7703 H   0  0  0  0  0  0  0  0  0  0  0  0
  1  2  1  0
  2  3  1  0
  3  4  2  0
  4  5  1  0
  5  6  2  0
  6  7  1  0
  7  8  1  0
  8  9  2  0
  9 10  1  0
 10 11  1  0
 11 12  1  0
 12 13  2  0
 13 14  1  0
 13 15  1  0
 15 16  2  0
 16 17  1  0
 17 18  2  0
 18 19  1  0
 11 20  2  0
  7 21  2  0
 21 22  1  0
 21  3  1  0
 20  8  1  0
 18 12  1  0
  1 23  1  0
  1 24  1  0
  1 25  1  0
  4 26  1  0
  5 27  1  0
  6 28  1  0
  9 29  1  0
 15 30  1  0
 16 31  1  0
 17 32  1  0
 22 33  1  0
 22 34  1  0
 22 35  1  0
M  END
>  <UniqueID>  (23) 
21

>  <SMILES>  (23) 
COc1cccc(-c2csc(-c3c(F)cccc3F)n2)c1C

>  <Energy>  (23) 
77.82325031735625

>  <Genealogy>  (23) 
COc1cccc(-c2csc(-c3c(F)cccc3F)n2)c1C (3D coordinates assigned)
COc1cccc(-c2csc(-c3c(F)cccc3F)n2)c1C (optimized conformer: 77.82325031735625 kcal/mol)

>  <smiles>  (23) 
COc1cccc(-c2csc(-c3c(F)cccc3F)n2)c1C

>  <score_type>  (23) 
oracle

>  <origin>  (23) 
adg

>  <m_score__min__energy>  (23) 
-7.6799999999999997

>  <m_primary>  (23) 
energy

$$$$
23:0
     RDKit          3D

 46 48  0  0  0  0  0  0  0  0999 V2000
   57.1640   33.7620   46.0150 C   0  0  0  0  0  0  0  0  0  0  0  0
   57.3560   32.7980   44.8930 C   0  0  0  0  0  0  0  0  0  0  0  0
   58.0940   33.0310   43.7440 C   0  0  0  0  0  0  0  0  0  0  0  0
   58.0070   31.8710   43.0010 C   0  0  0  0  0  0  0  0  0  0  0  0
   57.2230   31.0080   43.7460 C   0  0  0  0  0  0  0  0  0  0  0  0
   56.8360   29.6130   43.3580 C   0  0  0  0  0  0  0  0  0  0  0  0
   57.8760   28.5750   43.8300 C   0  0  2  0  0  0  0  0  0  0  0  0
   57.7060   27.2970   43.1300 N   0  0  0  0  0  0  0  0  0  0  0  0
   57.7750   28.3830   45.3300 C   0  0  0  0  0  0  0  0  0  0  0  0
   56.8810   27.6080   45.7720 O   0  0  0  0  0  0  0  0  0  0  0  0
   58.6950   29.0060   46.2560 N   0  0  0  0  0  0  0  0  0  0  0  0
   59.0870   28.2880   47.4830 C   0  0  0  0  0  0  0  0  0  0  0  0
   58.8950   29.1930   48.7040 C   0  0  0  0  0  0  0  0  0  0  0  0
   59.4760   30.5270   48.4730 N   0  0  0  0  0  0  0  0  0  0  0  0
   59.4160   31.5150   49.5120 C   0  0  0  0  0  0  0  0  0  0  0  0
   58.3360   31.5160   50.4150 C   0  0  0  0  0  0  0  0  0  0  0  0
   58.2640   32.4760   51.4280 C   0  0  0  0  0  0  0  0  0  0  0  0
   59.2660   33.4450   51.5430 C   0  0  0  0  0  0  0  0  0  0  0  0
   60.3410   33.4540   50.6450 C   0  0  0  0  0  0  0  0  0  0  0  0
   60.4200   32.4930   49.6330 C   0  0  0  0  0  0  0  0  0  0  0  0
   61.4540   32.5330   48.7570 F   0  0  0  0  0  0  0  0  0  0  0  0
   60.0800   30.8630   47.1770 C   0  0  0  0  0  0  0  0  0  0  0  0
   59.1720   30.3860   46.0360 C   0  0  0  0  0  0  0  0  0  0  0  0
   56.8560   31.5840   44.8700 O   0  0  0  0  0  0  0  0  0  0  0  0
   57.2692   33.2339   46.9742 H   0  0  0  0  0  0  0  0  0  0  0  0
   57.9215   34.5569   45.9491 H   0  0  0  0  0  0  0  0  0  0  0  0
   56.1598   34.2061   45.9491 H   0  0  0  0  0  0  0  0  0  0  0  0
   58.6369   33.9502   43.4787 H   0  0  0  0  0  0  0  0  0  0  0  0
   58.4655   31.6737   42.0207 H   0  0  0  0  0  0  0  0  0  0  0  0
   55.8634   29.3742   43.8130 H   0  0  0  0  0  0  0  0  0  0  0  0
   56.7823   29.5669   42.2603 H   0  0  0  0  0  0  0  0  0  0  0  0
   58.8791   28.9560   43.5879 H   0  0  0  0  0  0  0  0  0  0  0  0
   57.0220   27.4370   42.3510 H   0  0  0  0  0  0  0  0  0  0  0  0
   57.2480   26.6240   43.7800 H   0  0  0  0  0  0  0  0  0  0  0  0
   58.4628   27.3891   47.5942 H   0  0  0  0  0  0  0  0  0  0  0  0
   60.1462   28.0002   47.4100 H   0  0  0  0  0  0  0  0  0  0  0  0
   57.8190   29.3000   48.9060 H   0  0  0  0  0  0  0  0  0  0  0  0
   59.4062   28.7336   49.5628 H   0  0  0  0  0  0  0  0  0  0  0  0
   57.5448   30.7574   50.3228 H   0  0  0  0  0  0  0  0  0  0  0  0
   57.4204   32.4696   52.1339 H   0  0  0  0  0  0  0  0  0  0  0  0
   59.2098   34.2012   52.3399 H   0  0  0  0  0  0  0  0  0  0  0  0
   61.1254   34.2197   50.7365 H   0  0  0  0  0  0  0  0  0  0  0  0
   60.2104   31.9530   47.1074 H   0  0  0  0  0  0  0  0  0  0  0  0
   61.0570   30.3645   47.0937 H   0  0  0  0  0  0  0  0  0  0  0  0
   58.3028   31.0568   45.9684 H   0  0  0  0  0  0  0  0  0  0  0  0
   59.7565   30.4016   45.1043 H   0  0  0  0  0  0  0  0  0  0  0  0
  1  2  1  0
  2  3  2  0
  3  4  1  0
  4  5  2  0
  5  6  1  0
  6  7  1  0
  7  8  1  0
  7  9  1  0
  9 10  2  0
  9 11  1  0
 11 12  1  0
 12 13  1  0
 13 14  1  0
 14 15  1  0
 15 16  2  0
 16 17  1  0
 17 18  2  0
 18 19  1  0
 19 20  2  0
 20 21  1  0
 14 22  1  0
 22 23  1  0
  5 24  1  0
 24  2  1  0
 23 11  1  0
 20 15  1  0
  1 25  1  0
  1 26  1  0
  1 27  1  0
  3 28  1  0
  4 29  1  0
  6 30  1  0
  6 31  1  0
  7 32  1  1
  8 33  1  0
  8 34  1  0
 12 35  1  0
 12 36  1  0
 13 37  1  0
 13 38  1  0
 16 39  1  0
 17 40  1  0
 18 41  1  0
 19 42  1  0
 22 43  1  0
 22 44  1  0
 23 45  1  0
 23 46  1  0
M  END
>  <UniqueID>  (24) 
22

>  <SMILES>  (24) 
Cc1ccc(C[C@H](N)C(=O)N2CCN(c3ccccc3F)CC2)o1

>  <Energy>  (24) 
77.12521263109785

>  <Genealogy>  (24) 
Cc1ccc(C[C@H](N)C(=O)N2CCN(c3ccccc3F)CC2)o1 (chirality)
Cc1ccc(C[C@H](N)C(=O)N2CCN(c3ccccc3F)CC2)o1 (3D coordinates assigned)
Cc1ccc(C[C@H](N)C(=O)N2CCN(c3ccccc3F)CC2)o1 (nonaromatic ring conformer: 77.12521263109785 kcal/mol)

>  <smiles>  (24) 
Cc1ccc(CC(N)C(=O)N2CCN(c3ccccc3F)CC2)o1

>  <score_type>  (24) 
oracle

>  <origin>  (24) 
adg

>  <m_score__min__energy>  (24) 
-7.3399999999999999

>  <m_primary>  (24) 
energy

$$$$
24:0
     RDKit          3D

 53 55  0  0  0  0  0  0  0  0999 V2000
   62.8580   31.4240   50.1480 N   0  0  0  0  0  0  0  0  0  0  0  0
   63.6490   32.4550   50.8250 C   0  0  0  0  0  0  0  0  0  0  0  0
   63.5100   33.8270   50.1440 C   0  0  0  0  0  0  0  0  0  0  0  0
   63.0220   33.7190   48.6900 C   0  0  0  0  0  0  0  0  0  0  0  0
   61.7000   33.0580   48.6140 N   0  0  0  0  0  0  0  0  0  0  0  0
   61.5980   32.1910   47.4180 C   0  0  0  0  0  0  0  0  0  0  0  0
   60.9230   30.8830   47.7420 C   0  0  0  0  0  0  0  0  0  0  0  0
   61.3820   30.1930   48.6940 O   0  0  0  0  0  0  0  0  0  0  0  0
   59.7770   30.4050   47.0010 N   0  0  0  0  0  0  0  0  0  0  0  0
   58.7600   29.5620   47.6530 C   0  0  0  0  0  0  0  0  0  0  0  0
   58.1160   28.6060   46.6520 C   0  0  0  0  0  0  0  0  0  0  0  0
   57.5750   29.3740   45.4850 C   0  0  0  0  0  0  0  0  0  0  0  0
   56.3930   28.9660   44.8470 C   0  0  0  0  0  0  0  0  0  0  0  0
   55.9140   29.6700   43.7400 C   0  0  0  0  0  0  0  0  0  0  0  0
   56.6190   30.7740   43.2540 C   0  0  0  0  0  0  0  0  0  0  0  0
   57.8050   31.1760   43.8740 C   0  0  0  0  0  0  0  0  0  0  0  0
   58.2880   30.4850   44.9970 C   0  0  0  0  0  0  0  0  0  0  0  0
   59.6000   30.8980   45.6210 C   0  0  0  0  0  0  0  0  0  0  0  0
   60.5470   33.9880   48.7650 C   0  0  0  0  0  0  0  0  0  0  0  0
   59.6430   34.0710   47.5520 C   0  0  0  0  0  0  0  0  0  0  0  0
   60.0560   34.7650   46.4020 C   0  0  0  0  0  0  0  0  0  0  0  0
   59.2250   34.8320   45.2790 C   0  0  0  0  0  0  0  0  0  0  0  0
   57.9810   34.1970   45.2910 C   0  0  0  0  0  0  0  0  0  0  0  0
   57.5700   33.4870   46.4210 C   0  0  0  0  0  0  0  0  0  0  0  0
   58.3970   33.4170   47.5440 C   0  0  0  0  0  0  0  0  0  0  0  0
   61.8360   31.6190   50.2570 H   0  0  0  0  0  0  0  0  0  0  0  0
   63.0840   30.4800   50.5340 H   0  0  0  0  0  0  0  0  0  0  0  0
   63.0950   31.4300   49.1290 H   0  0  0  0  0  0  0  0  0  0  0  0
   63.3058   32.5391   51.8667 H   0  0  0  0  0  0  0  0  0  0  0  0
   64.7070   32.1576   50.7776 H   0  0  0  0  0  0  0  0  0  0  0  0
   62.7888   34.4315   50.7136 H   0  0  0  0  0  0  0  0  0  0  0  0
   64.5063   34.2929   50.1272 H   0  0  0  0  0  0  0  0  0  0  0  0
   62.9424   34.7295   48.2628 H   0  0  0  0  0  0  0  0  0  0  0  0
   63.7459   33.1134   48.1250 H   0  0  0  0  0  0  0  0  0  0  0  0
   61.0138   32.7135   46.6462 H   0  0  0  0  0  0  0  0  0  0  0  0
   62.6153   31.9757   47.0592 H   0  0  0  0  0  0  0  0  0  0  0  0
   59.2372   28.9769   48.4530 H   0  0  0  0  0  0  0  0  0  0  0  0
   57.9772   30.2149   48.0665 H   0  0  0  0  0  0  0  0  0  0  0  0
   58.8699   27.8877   46.2974 H   0  0  0  0  0  0  0  0  0  0  0  0
   57.2917   28.0692   47.1443 H   0  0  0  0  0  0  0  0  0  0  0  0
   55.8427   28.0896   45.2199 H   0  0  0  0  0  0  0  0  0  0  0  0
   54.9808   29.3550   43.2503 H   0  0  0  0  0  0  0  0  0  0  0  0
   56.2400   31.3274   42.3822 H   0  0  0  0  0  0  0  0  0  0  0  0
   58.3632   32.0382   43.4803 H   0  0  0  0  0  0  0  0  0  0  0  0
   60.4193   30.5029   45.0024 H   0  0  0  0  0  0  0  0  0  0  0  0
   59.6044   31.9970   45.6671 H   0  0  0  0  0  0  0  0  0  0  0  0
   59.9435   33.6508   49.6207 H   0  0  0  0  0  0  0  0  0  0  0  0
   60.9722   34.9925   48.9073 H   0  0  0  0  0  0  0  0  0  0  0  0
   61.0389   35.2586   46.3849 H   0  0  0  0  0  0  0  0  0  0  0  0
   59.5513   35.3851   44.3859 H   0  0  0  0  0  0  0  0  0  0  0  0
   57.3249   34.2562   44.4101 H   0  0  0  0  0  0  0  0  0  0  0  0
   56.5929   32.9819   46.4265 H   0  0  0  0  0  0  0  0  0  0  0  0
   58.0726   32.8474   48.4274 H   0  0  0  0  0  0  0  0  0  0  0  0
  1  2  1  0
  2  3  1  0
  3  4  1  0
  4  5  1  0
  5  6  1  0
  6  7  1  0
  7  8  2  0
  7  9  1  0
  9 10  1  0
 10 11  1  0
 11 12  1  0
 12 13  2  0
 13 14  1  0
 14 15  2  0
 15 16  1  0
 16 17  2  0
 17 18  1  0
  5 19  1  0
 19 20  1  0
 20 21  2  0
 21 22  1  0
 22 23  2  0
 23 24  1  0
 24 25  2  0
 18  9  1  0
 25 20  1  0
 17 12  1  0
  1 26  1  0
  1 27  1  0
  1 28  1  0
  2 29  1  0
  2 30  1  0
  3 31  1  0
  3 32  1  0
  4 33  1  0
  4 34  1  0
  6 35  1  0
  6 36  1  0
 10 37  1  0
 10 38  1  0
 11 39  1  0
 11 40  1  0
 13 41  1  0
 14 42  1  0
 15 43  1  0
 16 44  1  0
 18 45  1  0
 18 46  1  0
 19 47  1  0
 19 48  1  0
 21 49  1  0
 22 50  1  0
 23 51  1  0
 24 52  1  0
 25 53  1  0
M  CHG  1   1   1
M  END
>  <UniqueID>  (25) 
23

>  <SMILES>  (25) 
[NH3+]CCCN(CC(=O)N1CCc2ccccc2C1)Cc1ccccc1

>  <Energy>  (25) 
56.98574606820478

>  <Genealogy>  (25) 
[NH3+]CCCN(CC(=O)N1CCc2ccccc2C1)Cc1ccccc1 (protonated)
[NH3+]CCCN(CC(=O)N1CCc2ccccc2C1)Cc1ccccc1 (3D coordinates assigned)
[NH3+]CCCN(CC(=O)N1CCc2ccccc2C1)Cc1ccccc1 (nonaromatic ring conformer: 56.98574606820478 kcal/mol)

>  <smiles>  (25) 
NCCCN(CC(=O)N1CCc2ccccc2C1)Cc1ccccc1

>  <score_type>  (25) 
oracle

>  <origin>  (25) 
adg

>  <m_score__min__energy>  (25) 
-6.1600000000000001

>  <m_primary>  (25) 
energy

$$$$
25:0
     RDKit          3D

 33 34  0  0  0  0  0  0  0  0999 V2000
   57.0190   24.7910   46.4550 C   0  0  0  0  0  0  0  0  0  0  0  0
   57.6770   24.5190   45.1080 C   0  0  0  0  0  0  0  0  0  0  0  0
   57.7100   25.7390   44.3090 N   0  0  0  0  0  0  0  0  0  0  0  0
   57.7390   26.9970   44.7880 C   0  0  0  0  0  0  0  0  0  0  0  0
   57.8260   27.8480   43.7110 C   0  0  0  0  0  0  0  0  0  0  0  0
   57.8300   29.2810   43.7720 N   0  0  0  0  0  0  0  0  0  0  0  0
   57.4490   30.0360   44.9340 C   0  0  0  0  0  0  0  0  0  0  0  0
   56.7110   29.5110   45.8110 O   0  0  0  0  0  0  0  0  0  0  0  0
   57.8550   31.4530   45.0810 C   0  0  0  0  0  0  0  0  0  0  0  0
   58.2830   31.9160   46.3400 C   0  0  0  0  0  0  0  0  0  0  0  0
   58.6590   33.2480   46.5170 C   0  0  0  0  0  0  0  0  0  0  0  0
   58.6210   34.1330   45.4410 C   0  0  0  0  0  0  0  0  0  0  0  0
   58.2170   33.6890   44.1820 C   0  0  0  0  0  0  0  0  0  0  0  0
   57.8410   32.3440   43.9830 C   0  0  0  0  0  0  0  0  0  0  0  0
   57.4760   31.8650   42.7130 O   0  0  0  0  0  0  0  0  0  0  0  0
   58.0760   32.2750   41.4890 C   0  0  0  0  0  0  0  0  0  0  0  0
   57.8390   27.0390   42.5880 C   0  0  0  0  0  0  0  0  0  0  0  0
   57.7770   25.7520   42.9840 N   0  0  0  0  0  0  0  0  0  0  0  0
   57.7080   24.5062   47.2638 H   0  0  0  0  0  0  0  0  0  0  0  0
   56.7801   25.8616   46.5368 H   0  0  0  0  0  0  0  0  0  0  0  0
   56.0939   24.2016   46.5368 H   0  0  0  0  0  0  0  0  0  0  0  0
   58.7050   24.1632   45.2709 H   0  0  0  0  0  0  0  0  0  0  0  0
   57.0958   23.7541   44.5721 H   0  0  0  0  0  0  0  0  0  0  0  0
   57.7002   27.2906   45.8474 H   0  0  0  0  0  0  0  0  0  0  0  0
   58.0830   29.8030   42.9030 H   0  0  0  0  0  0  0  0  0  0  0  0
   58.3213   31.2212   47.1919 H   0  0  0  0  0  0  0  0  0  0  0  0
   58.9857   33.5999   47.5067 H   0  0  0  0  0  0  0  0  0  0  0  0
   58.9104   35.1844   45.5851 H   0  0  0  0  0  0  0  0  0  0  0  0
   58.1914   34.3933   43.3374 H   0  0  0  0  0  0  0  0  0  0  0  0
   58.9668   32.8837   41.7032 H   0  0  0  0  0  0  0  0  0  0  0  0
   58.3691   31.3875   40.9090 H   0  0  0  0  0  0  0  0  0  0  0  0
   57.3557   32.8706   40.9090 H   0  0  0  0  0  0  0  0  0  0  0  0
   57.8912   27.3881   41.5462 H   0  0  0  0  0  0  0  0  0  0  0  0
  1  2  1  0
  2  3  1  0
  3  4  1  0
  4  5  2  0
  5  6  1  0
  6  7  1  0
  7  8  2  0
  7  9  1  0
  9 10  2  0
 10 11  1  0
 11 12  2  0
 12 13  1  0
 13 14  2  0
 14 15  1  0
 15 16  1  0
  5 17  1  0
 17 18  2  0
 18  3  1  0
 14  9  1  0
  1 19  1  0
  1 20  1  0
  1 21  1  0
  2 22  1  0
  2 23  1  0
  4 24  1  0
  6 25  1  0
 10 26  1  0
 11 27  1  0
 12 28  1  0
 13 29  1  0
 16 30  1  0
 16 31  1  0
 16 32  1  0
 17 33  1  0
M  END
>  <UniqueID>  (26) 
24

>  <SMILES>  (26) 
CCn1cc(NC(=O)c2ccccc2OC)cn1

>  <Energy>  (26) 
65.21612039070922

>  <Genealogy>  (26) 
CCn1cc(NC(=O)c2ccccc2OC)cn1 (3D coordinates assigned)
CCn1cc(NC(=O)c2ccccc2OC)cn1 (optimized conformer: 65.21612039070922 kcal/mol)

>  <smiles>  (26) 
CCn1cc(NC(=O)c2ccccc2OC)cn1

>  <score_type>  (26) 
oracle

>  <origin>  (26) 
adg

>  <m_score__min__energy>  (26) 
-5.9100000000000001

>  <m_primary>  (26) 
energy

$$$$
26:0
     RDKit          3D

 12 12  0  0  0  0  0  0  0  0999 V2000
   57.5350   31.9630   40.8720 F   0  0  0  0  0  0  0  0  0  0  0  0
   57.4290   31.8270   42.2180 C   0  0  0  0  0  0  0  0  0  0  0  0
   56.6440   30.8030   42.7570 C   0  0  0  0  0  0  0  0  0  0  0  0
   56.5350   30.6610   44.1460 C   0  0  0  0  0  0  0  0  0  0  0  0
   55.5230   29.3410   44.8410 S   0  0  0  0  0  0  0  0  0  0  0  0
   57.2110   31.5460   44.9930 C   0  0  0  0  0  0  0  0  0  0  0  0
   57.9960   32.5710   44.4540 C   0  0  0  0  0  0  0  0  0  0  0  0
   58.8440   33.6800   45.5160 Cl  0  0  0  0  0  0  0  0  0  0  0  0
   58.1050   32.7110   43.0650 C   0  0  0  0  0  0  0  0  0  0  0  0
   56.1120   30.1088   42.0899 H   0  0  0  0  0  0  0  0  0  0  0  0
   57.1252   31.4357   46.0841 H   0  0  0  0  0  0  0  0  0  0  0  0
   58.7223   33.5162   42.6401 H   0  0  0  0  0  0  0  0  0  0  0  0
  1  2  1  0
  2  3  2  0
  3  4  1  0
  4  5  1  0
  4  6  2  0
  6  7  1  0
  7  8  1  0
  7  9  2  0
  9  2  1  0
  3 10  1  0
  6 11  1  0
  9 12  1  0
M  CHG  1   5  -1
M  END
>  <UniqueID>  (27) 
25

>  <SMILES>  (27) 
Fc1cc([S-])cc(Cl)c1

>  <Energy>  (27) 
10.49966310519569

>  <Genealogy>  (27) 
Fc1cc([S-])cc(Cl)c1 (protonated)
Fc1cc([S-])cc(Cl)c1 (3D coordinates assigned)
Fc1cc([S-])cc(Cl)c1 (optimized conformer: 10.49966310519569 kcal/mol)

>  <smiles>  (27) 
Fc1cc(S)cc(Cl)c1

>  <score_type>  (27) 
oracle

>  <origin>  (27) 
adg

>  <m_score__min__energy>  (27) 
-6.75

>  <m_primary>  (27) 
energy

$$$$
27:0
     RDKit          3D

 49 52  0  0  0  0  0  0  0  0999 V2000
   59.9780   24.7350   45.9830 C   0  0  0  0  0  0  0  0  0  0  0  0
   58.9950   23.7210   46.1610 O   0  0  0  0  0  0  0  0  0  0  0  0
   58.2010   23.1890   45.1340 C   0  0  0  0  0  0  0  0  0  0  0  0
   58.1130   21.7990   44.9130 C   0  0  0  0  0  0  0  0  0  0  0  0
   57.3410   21.2960   43.8630 C   0  0  0  0  0  0  0  0  0  0  0  0
   56.6500   22.1680   43.0230 C   0  0  0  0  0  0  0  0  0  0  0  0
   56.7220   23.5450   43.2330 C   0  0  0  0  0  0  0  0  0  0  0  0
   57.4880   24.0690   44.2900 C   0  0  0  0  0  0  0  0  0  0  0  0
   57.5370   25.4960   44.4990 N   0  0  0  0  0  0  0  0  0  0  0  0
   57.1830   26.0680   45.8040 C   0  0  0  0  0  0  0  0  0  0  0  0
   56.6030   27.4720   45.6190 C   0  0  0  0  0  0  0  0  0  0  0  0
   57.5510   28.3720   44.9240 N   0  0  0  0  0  0  0  0  0  0  0  0
   56.6940   29.7540   44.2850 S   0  0  0  0  0  0  0  0  0  0  0  0
   56.6580   29.6770   42.7840 O   0  0  0  0  0  0  0  0  0  0  0  0
   55.2790   29.7620   44.7970 O   0  0  0  0  0  0  0  0  0  0  0  0
   57.5100   31.2430   44.7570 C   0  0  0  0  0  0  0  0  0  0  0  0
   57.7900   32.2170   43.7900 C   0  0  0  0  0  0  0  0  0  0  0  0
   58.4580   33.3920   44.1430 C   0  0  0  0  0  0  0  0  0  0  0  0
   58.8590   33.6040   45.4700 C   0  0  0  0  0  0  0  0  0  0  0  0
   59.5330   34.7800   45.8370 C   0  0  0  0  0  0  0  0  0  0  0  0
   59.9300   34.9760   47.1620 C   0  0  0  0  0  0  0  0  0  0  0  0
   59.6610   34.0030   48.1290 C   0  0  0  0  0  0  0  0  0  0  0  0
   58.9910   32.8280   47.7780 C   0  0  0  0  0  0  0  0  0  0  0  0
   58.5850   32.6180   46.4500 C   0  0  0  0  0  0  0  0  0  0  0  0
   57.9130   31.4420   46.0850 C   0  0  0  0  0  0  0  0  0  0  0  0
   58.3700   27.7220   43.8700 C   0  0  0  0  0  0  0  0  0  0  0  0
   57.7790   26.3970   43.3680 C   0  0  0  0  0  0  0  0  0  0  0  0
   60.3215   25.0893   46.9661 H   0  0  0  0  0  0  0  0  0  0  0  0
   60.8309   24.3245   45.4227 H   0  0  0  0  0  0  0  0  0  0  0  0
   59.5412   25.5748   45.4227 H   0  0  0  0  0  0  0  0  0  0  0  0
   58.6562   21.1058   45.5722 H   0  0  0  0  0  0  0  0  0  0  0  0
   57.2782   20.2101   43.6987 H   0  0  0  0  0  0  0  0  0  0  0  0
   56.0473   21.7696   42.1936 H   0  0  0  0  0  0  0  0  0  0  0  0
   56.1748   24.2274   42.5660 H   0  0  0  0  0  0  0  0  0  0  0  0
   56.4350   25.4261   46.2925 H   0  0  0  0  0  0  0  0  0  0  0  0
   58.0863   26.1295   46.4288 H   0  0  0  0  0  0  0  0  0  0  0  0
   55.6798   27.4003   45.0252 H   0  0  0  0  0  0  0  0  0  0  0  0
   56.4010   27.8922   46.6153 H   0  0  0  0  0  0  0  0  0  0  0  0
   57.4820   32.0557   42.7464 H   0  0  0  0  0  0  0  0  0  0  0  0
   58.6701   34.1532   43.3778 H   0  0  0  0  0  0  0  0  0  0  0  0
   59.7488   35.5482   45.0798 H   0  0  0  0  0  0  0  0  0  0  0  0
   60.4562   35.8994   47.4454 H   0  0  0  0  0  0  0  0  0  0  0  0
   59.9779   34.1629   49.1701 H   0  0  0  0  0  0  0  0  0  0  0  0
   58.7812   32.0661   48.5432 H   0  0  0  0  0  0  0  0  0  0  0  0
   57.7016   30.6735   46.8431 H   0  0  0  0  0  0  0  0  0  0  0  0
   58.4523   28.4121   43.0174 H   0  0  0  0  0  0  0  0  0  0  0  0
   59.3491   27.4923   44.3155 H   0  0  0  0  0  0  0  0  0  0  0  0
   56.8290   26.5948   42.8500 H   0  0  0  0  0  0  0  0  0  0  0  0
   58.4901   25.9238   42.6749 H   0  0  0  0  0  0  0  0  0  0  0  0
  1  2  1  0
  2  3  1  0
  3  4  2  0
  4  5  1  0
  5  6  2  0
  6  7  1  0
  7  8  2  0
  8  9  1  0
  9 10  1  0
 10 11  1  0
 11 12  1  0
 12 13  1  0
 13 14  2  0
 13 15  2  0
 13 16  1  0
 16 17  2  0
 17 18  1  0
 18 19  2  0
 19 20  1  0
 20 21  2  0
 21 22  1  0
 22 23  2  0
 23 24  1  0
 24 25  2  0
 12 26  1  0
 26 27  1  0
  8  3  1  0
 27  9  1  0
 25 16  1  0
 24 19  1  0
  1 28  1  0
  1 29  1  0
  1 30  1  0
  4 31  1  0
  5 32  1  0
  6 33  1  0
  7 34  1  0
 10 35  1  0
 10 36  1  0
 11 37  1  0
 11 38  1  0
 17 39  1  0
 18 40  1  0
 20 41  1  0
 21 42  1  0
 22 43  1  0
 23 44  1  0
 25 45  1  0
 26 46  1  0
 26 47  1  0
 27 48  1  0
 27 49  1  0
M  END
>  <UniqueID>  (28) 
26

>  <SMILES>  (28) 
COc1ccccc1N1CCN(S(=O)(=O)c2ccc3ccccc3c2)CC1

>  <Energy>  (28) 
64.65287119708687

>  <Genealogy>  (28) 
COc1ccccc1N1CCN(S(=O)(=O)c2ccc3ccccc3c2)CC1 (3D coordinates assigned)
COc1ccccc1N1CCN(S(=O)(=O)c2ccc3ccccc3c2)CC1 (nonaromatic ring conformer: 64.65287119708687 kcal/mol)

>  <smiles>  (28) 
COc1ccccc1N1CCN(S(=O)(=O)c2ccc3ccccc3c2)CC1

>  <score_type>  (28) 
oracle

>  <origin>  (28) 
adg

>  <m_score__min__energy>  (28) 
-9.4000000000000004

>  <m_primary>  (28) 
energy

$$$$
28:0
     RDKit          3D

 41 44  0  0  0  0  0  0  0  0999 V2000
   53.9350   25.3340   45.6720 O   0  0  0  0  0  0  0  0  0  0  0  0
   55.1260   25.1310   45.9870 N   0  0  0  0  0  0  0  0  0  0  0  0
   55.8490   26.1630   46.5420 O   0  0  0  0  0  0  0  0  0  0  0  0
   55.7760   23.9030   45.6120 C   0  0  0  0  0  0  0  0  0  0  0  0
   55.2430   22.6780   46.0560 C   0  0  0  0  0  0  0  0  0  0  0  0
   55.7960   21.4680   45.6370 C   0  0  0  0  0  0  0  0  0  0  0  0
   56.8850   21.4590   44.7680 C   0  0  0  0  0  0  0  0  0  0  0  0
   57.4400   22.6630   44.3290 C   0  0  0  0  0  0  0  0  0  0  0  0
   56.9100   23.8910   44.7600 C   0  0  0  0  0  0  0  0  0  0  0  0
   57.5930   25.1310   44.3350 C   0  0  0  0  0  0  0  0  0  0  0  0
   57.5090   25.5560   43.0370 N   0  0  0  0  0  0  0  0  0  0  0  0
   58.1280   26.7060   42.6160 C   0  0  0  0  0  0  0  0  0  0  0  0
   58.8590   27.4610   43.4900 N   0  0  0  0  0  0  0  0  0  0  0  0
   58.9610   27.0270   44.7690 C   0  0  0  0  0  0  0  0  0  0  0  0
   58.3620   25.8960   45.2080 C   0  0  0  0  0  0  0  0  0  0  0  0
   58.6140   25.7090   46.5190 N   0  0  0  0  0  0  0  0  0  0  0  0
   59.3820   26.7870   46.8360 C   0  0  0  0  0  0  0  0  0  0  0  0
   59.6140   27.6100   45.7810 N   0  0  0  0  0  0  0  0  0  0  0  0
   60.2830   28.9100   45.7970 C   0  0  0  0  0  0  0  0  0  0  0  0
   59.2880   30.0370   46.1030 C   0  0  0  0  0  0  0  0  0  0  0  0
   58.1350   30.0370   45.1320 C   0  0  0  0  0  0  0  0  0  0  0  0
   56.9770   29.2890   45.4060 C   0  0  0  0  0  0  0  0  0  0  0  0
   55.8850   29.3360   44.5340 C   0  0  0  0  0  0  0  0  0  0  0  0
   55.9400   30.1330   43.3870 C   0  0  0  0  0  0  0  0  0  0  0  0
   57.0850   30.8850   43.1120 C   0  0  0  0  0  0  0  0  0  0  0  0
   58.1790   30.8420   43.9820 C   0  0  0  0  0  0  0  0  0  0  0  0
   54.3817   22.6750   46.7403 H   0  0  0  0  0  0  0  0  0  0  0  0
   55.3711   20.5181   45.9937 H   0  0  0  0  0  0  0  0  0  0  0  0
   57.3081   20.5025   44.4273 H   0  0  0  0  0  0  0  0  0  0  0  0
   58.2981   22.6500   43.6409 H   0  0  0  0  0  0  0  0  0  0  0  0
   58.0352   27.0228   41.5667 H   0  0  0  0  0  0  0  0  0  0  0  0
   59.7756   26.9731   47.8462 H   0  0  0  0  0  0  0  0  0  0  0  0
   61.0661   28.9020   46.5695 H   0  0  0  0  0  0  0  0  0  0  0  0
   60.7221   29.0902   44.8047 H   0  0  0  0  0  0  0  0  0  0  0  0
   58.8967   29.9010   47.1220 H   0  0  0  0  0  0  0  0  0  0  0  0
   59.8163   30.9974   46.0104 H   0  0  0  0  0  0  0  0  0  0  0  0
   56.9296   28.6641   46.3100 H   0  0  0  0  0  0  0  0  0  0  0  0
   54.9825   28.7457   44.7507 H   0  0  0  0  0  0  0  0  0  0  0  0
   55.0813   30.1682   42.7004 H   0  0  0  0  0  0  0  0  0  0  0  0
   57.1260   31.5122   42.2093 H   0  0  0  0  0  0  0  0  0  0  0  0
   59.0763   31.4402   43.7651 H   0  0  0  0  0  0  0  0  0  0  0  0
  1  2  2  0
  2  3  1  0
  2  4  1  0
  4  5  2  0
  5  6  1  0
  6  7  2  0
  7  8  1  0
  8  9  2  0
  9 10  1  0
 10 11  2  0
 11 12  1  0
 12 13  2  0
 13 14  1  0
 14 15  2  0
 15 16  1  0
 16 17  2  0
 17 18  1  0
 18 19  1  0
 19 20  1  0
 20 21  1  0
 21 22  2  0
 22 23  1  0
 23 24  2  0
 24 25  1  0
 25 26  2  0
  9  4  1  0
 15 10  1  0
 26 21  1  0
 18 14  1  0
  5 27  1  0
  6 28  1  0
  7 29  1  0
  8 30  1  0
 12 31  1  0
 17 32  1  0
 19 33  1  0
 19 34  1  0
 20 35  1  0
 20 36  1  0
 22 37  1  0
 23 38  1  0
 24 39  1  0
 25 40  1  0
 26 41  1  0
M  CHG  2   2   1   3  -1
M  END
>  <UniqueID>  (29) 
27

>  <SMILES>  (29) 
O=[N+]([O-])c1ccccc1-c1ncnc2c1ncn2CCc1ccccc1

>  <Energy>  (29) 
92.15577578507975

>  <Genealogy>  (29) 
O=[N+]([O-])c1ccccc1-c1ncnc2c1ncn2CCc1ccccc1 (3D coordinates assigned)
O=[N+]([O-])c1ccccc1-c1ncnc2c1ncn2CCc1ccccc1 (optimized conformer: 92.15577578507975 kcal/mol)

>  <smiles>  (29) 
O=[N+]([O-])c1ccccc1-c1ncnc2c1ncn2CCc1ccccc1

>  <score_type>  (29) 
oracle

>  <origin>  (29) 
adg

>  <m_score__min__energy>  (29) 
-8.9499999999999993

>  <m_primary>  (29) 
energy

$$$$
29:0
     RDKit          3D

 52 55  0  0  0  0  0  0  0  0999 V2000
   56.6420   29.8220   43.4610 C   0  0  0  0  0  0  0  0  0  0  0  0
   56.6370   30.5780   44.6680 O   0  0  0  0  0  0  0  0  0  0  0  0
   57.5040   31.6480   44.9380 C   0  0  0  0  0  0  0  0  0  0  0  0
   57.8250   32.5210   43.8940 C   0  0  0  0  0  0  0  0  0  0  0  0
   58.6810   33.6020   44.1130 C   0  0  0  0  0  0  0  0  0  0  0  0
   59.2260   33.8200   45.3800 C   0  0  0  0  0  0  0  0  0  0  0  0
   58.9200   32.9560   46.4450 C   0  0  0  0  0  0  0  0  0  0  0  0
   59.5010   33.1860   47.7930 C   0  0  0  0  0  0  0  0  0  0  0  0
   60.7960   33.7070   47.9280 C   0  0  0  0  0  0  0  0  0  0  0  0
   61.3650   33.9320   49.1920 C   0  0  0  0  0  0  0  0  0  0  0  0
   60.6110   33.6100   50.3480 C   0  0  0  0  0  0  0  0  0  0  0  0
   59.3050   33.1130   50.2240 C   0  0  0  0  0  0  0  0  0  0  0  0
   58.5870   32.8330   51.3980 O   0  0  0  0  0  0  0  0  0  0  0  0
   57.7930   31.6690   51.6010 C   0  0  0  0  0  0  0  0  0  0  0  0
   58.7580   32.8990   48.9470 C   0  0  0  0  0  0  0  0  0  0  0  0
   61.1240   33.7820   51.6370 O   0  0  0  0  0  0  0  0  0  0  0  0
   62.4130   33.3180   52.0270 C   0  0  0  0  0  0  0  0  0  0  0  0
   63.5240   34.2160   51.4900 C   0  0  0  0  0  0  0  0  0  0  0  0
   63.7370   33.9200   50.0560 N   0  0  0  0  0  0  0  0  0  0  0  0
   63.7110   32.4650   49.7970 C   0  0  0  0  0  0  0  0  0  0  0  0
   64.9260   31.8040   50.3940 C   0  0  0  0  0  0  0  0  0  0  0  0
   64.7930   30.6280   51.1450 C   0  0  0  0  0  0  0  0  0  0  0  0
   65.9240   30.0150   51.6890 C   0  0  0  0  0  0  0  0  0  0  0  0
   67.1790   30.5860   51.4770 C   0  0  0  0  0  0  0  0  0  0  0  0
   67.2940   31.7280   50.7470 N   0  0  0  0  0  0  0  0  0  0  0  0
   66.2090   32.3430   50.2070 C   0  0  0  0  0  0  0  0  0  0  0  0
   62.7290   34.6050   49.2200 C   0  0  0  0  0  0  0  0  0  0  0  0
   58.0550   31.8690   46.2170 C   0  0  0  0  0  0  0  0  0  0  0  0
   56.6491   28.7485   43.7008 H   0  0  0  0  0  0  0  0  0  0  0  0
   55.7423   30.0609   42.8750 H   0  0  0  0  0  0  0  0  0  0  0  0
   57.5385   30.0728   42.8750 H   0  0  0  0  0  0  0  0  0  0  0  0
   57.4001   32.3549   42.8931 H   0  0  0  0  0  0  0  0  0  0  0  0
   58.9267   34.2837   43.2854 H   0  0  0  0  0  0  0  0  0  0  0  0
   59.8994   34.6739   45.5455 H   0  0  0  0  0  0  0  0  0  0  0  0
   61.3780   33.9443   47.0253 H   0  0  0  0  0  0  0  0  0  0  0  0
   57.6718   31.4914   52.6798 H   0  0  0  0  0  0  0  0  0  0  0  0
   56.8049   31.8142   51.1400 H   0  0  0  0  0  0  0  0  0  0  0  0
   58.2888   30.8020   51.1400 H   0  0  0  0  0  0  0  0  0  0  0  0
   57.7364   32.5023   48.8520 H   0  0  0  0  0  0  0  0  0  0  0  0
   62.4682   33.3012   53.1255 H   0  0  0  0  0  0  0  0  0  0  0  0
   62.5551   32.3105   51.6090 H   0  0  0  0  0  0  0  0  0  0  0  0
   63.2348   35.2706   51.6092 H   0  0  0  0  0  0  0  0  0  0  0  0
   64.4532   34.0292   52.0484 H   0  0  0  0  0  0  0  0  0  0  0  0
   62.8052   32.0328   50.2471 H   0  0  0  0  0  0  0  0  0  0  0  0
   63.7103   32.2958   48.7101 H   0  0  0  0  0  0  0  0  0  0  0  0
   63.7978   30.1878   51.3060 H   0  0  0  0  0  0  0  0  0  0  0  0
   65.8261   29.0915   52.2785 H   0  0  0  0  0  0  0  0  0  0  0  0
   68.0767   30.1122   51.9007 H   0  0  0  0  0  0  0  0  0  0  0  0
   66.3363   33.2657   49.6218 H   0  0  0  0  0  0  0  0  0  0  0  0
   62.5995   35.6265   49.6070 H   0  0  0  0  0  0  0  0  0  0  0  0
   63.1103   34.5789   48.1885 H   0  0  0  0  0  0  0  0  0  0  0  0
   57.8069   31.1865   47.0433 H   0  0  0  0  0  0  0  0  0  0  0  0
  1  2  1  0
  2  3  1  0
  3  4  2  0
  4  5  1  0
  5  6  2  0
  6  7  1  0
  7  8  1  0
  8  9  2  0
  9 10  1  0
 10 11  2  0
 11 12  1  0
 12 13  1  0
 13 14  1  0
 12 15  2  0
 11 16  1  0
 16 17  1  0
 17 18  1  0
 18 19  1  0
 19 20  1  0
 20 21  1  0
 21 22  2  0
 22 23  1  0
 23 24  2  0
 24 25  1  0
 25 26  2  0
 19 27  1  0
  7 28  2  0
 28  3  1  0
 15  8  1  0
 26 21  1  0
 27 10  1  0
  1 29  1  0
  1 30  1  0
  1 31  1  0
  4 32  1  0
  5 33  1  0
  6 34  1  0
  9 35  1  0
 14 36  1  0
 14 37  1  0
 14 38  1  0
 15 39  1  0
 17 40  1  0
 17 41  1  0
 18 42  1  0
 18 43  1  0
 20 44  1  0
 20 45  1  0
 22 46  1  0
 23 47  1  0
 24 48  1  0
 26 49  1  0
 27 50  1  0
 27 51  1  0
 28 52  1  0
M  END
>  <UniqueID>  (30) 
28

>  <SMILES>  (30) 
COc1cccc(-c2cc3c(c(OC)c2)OCCN(Cc2cccnc2)C3)c1

>  <Energy>  (30) 
75.70122387479402

>  <Genealogy>  (30) 
COc1cccc(-c2cc3c(c(OC)c2)OCCN(Cc2cccnc2)C3)c1 (3D coordinates assigned)
COc1cccc(-c2cc3c(c(OC)c2)OCCN(Cc2cccnc2)C3)c1 (nonaromatic ring conformer: 75.70122387479402 kcal/mol)

>  <smiles>  (30) 
COc1cccc(-c2cc3c(c(OC)c2)OCCN(Cc2cccnc2)C3)c1

>  <score_type>  (30) 
oracle

>  <origin>  (30) 
adg

>  <m_score__min__energy>  (30) 
-7.2400000000000002

>  <m_primary>  (30) 
energy

$$$$
30:0
     RDKit          3D

 46 49  0  0  0  0  0  0  0  0999 V2000
   57.2480   32.3420   40.7530 C   0  0  0  0  0  0  0  0  0  0  0  0
   57.5100   32.0440   42.1950 C   0  0  0  0  0  0  0  0  0  0  0  0
   57.1350   30.7970   42.7420 C   0  0  0  0  0  0  0  0  0  0  0  0
   57.3400   30.5190   44.1120 C   0  0  0  0  0  0  0  0  0  0  0  0
   56.7750   29.2430   44.6710 C   0  0  0  0  0  0  0  0  0  0  0  0
   57.9930   31.5140   44.8840 C   0  0  0  0  0  0  0  0  0  0  0  0
   58.2730   32.7350   44.3000 C   0  0  0  0  0  0  0  0  0  0  0  0
   58.0460   33.0080   42.9940 N   0  0  0  0  0  0  0  0  0  0  0  0
   58.7760   33.5580   45.2650 C   0  0  0  0  0  0  0  0  0  0  0  0
   59.1890   34.8870   45.2200 C   0  0  0  0  0  0  0  0  0  0  0  0
   59.6450   35.4700   46.4140 C   0  0  0  0  0  0  0  0  0  0  0  0
   59.6690   34.7200   47.6100 C   0  0  0  0  0  0  0  0  0  0  0  0
   59.2460   33.3780   47.6230 C   0  0  0  0  0  0  0  0  0  0  0  0
   58.8090   32.8080   46.4190 C   0  0  0  0  0  0  0  0  0  0  0  0
   58.3720   31.5360   46.2020 N   0  0  0  0  0  0  0  0  0  0  0  0
   58.5160   30.4250   47.1610 C   0  0  0  0  0  0  0  0  0  0  0  0
   59.9350   29.8190   47.1560 C   0  0  0  0  0  0  0  0  0  0  0  0
   60.7580   30.0750   48.4320 C   0  0  0  0  0  0  0  0  0  0  0  0
   61.6500   31.2910   48.3550 C   0  0  0  0  0  0  0  0  0  0  0  0
   61.7410   32.1860   49.4370 C   0  0  0  0  0  0  0  0  0  0  0  0
   62.5450   33.3260   49.3430 C   0  0  0  0  0  0  0  0  0  0  0  0
   63.2490   33.5930   48.1660 C   0  0  0  0  0  0  0  0  0  0  0  0
   63.1400   32.7260   47.0760 C   0  0  0  0  0  0  0  0  0  0  0  0
   62.3380   31.5850   47.1650 C   0  0  0  0  0  0  0  0  0  0  0  0
   56.5235   33.1660   40.6746 H   0  0  0  0  0  0  0  0  0  0  0  0
   58.1884   32.6326   40.2619 H   0  0  0  0  0  0  0  0  0  0  0  0
   56.8394   31.4465   40.2619 H   0  0  0  0  0  0  0  0  0  0  0  0
   56.6784   30.0340   42.0944 H   0  0  0  0  0  0  0  0  0  0  0  0
   56.7933   29.2844   45.7701 H   0  0  0  0  0  0  0  0  0  0  0  0
   55.7379   29.1191   44.3260 H   0  0  0  0  0  0  0  0  0  0  0  0
   57.3804   28.3918   44.3260 H   0  0  0  0  0  0  0  0  0  0  0  0
   59.1592   35.4606   44.2819 H   0  0  0  0  0  0  0  0  0  0  0  0
   59.9851   36.5161   46.4172 H   0  0  0  0  0  0  0  0  0  0  0  0
   60.0217   35.1892   48.5403 H   0  0  0  0  0  0  0  0  0  0  0  0
   59.2579   32.7915   48.5535 H   0  0  0  0  0  0  0  0  0  0  0  0
   58.2966   30.8007   48.1713 H   0  0  0  0  0  0  0  0  0  0  0  0
   57.8137   29.6329   46.8621 H   0  0  0  0  0  0  0  0  0  0  0  0
   59.8407   28.7311   47.0237 H   0  0  0  0  0  0  0  0  0  0  0  0
   60.4771   30.3140   46.3368 H   0  0  0  0  0  0  0  0  0  0  0  0
   60.0606   30.2104   49.2718 H   0  0  0  0  0  0  0  0  0  0  0  0
   61.4177   29.2048   48.5647 H   0  0  0  0  0  0  0  0  0  0  0  0
   61.1773   31.9879   50.3606 H   0  0  0  0  0  0  0  0  0  0  0  0
   62.6235   34.0142   50.1975 H   0  0  0  0  0  0  0  0  0  0  0  0
   63.8887   34.4853   48.0977 H   0  0  0  0  0  0  0  0  0  0  0  0
   63.6864   32.9418   46.1460 H   0  0  0  0  0  0  0  0  0  0  0  0
   62.2446   30.9132   46.2990 H   0  0  0  0  0  0  0  0  0  0  0  0
  1  2  1  0
  2  3  2  0
  3  4  1  0
  4  5  1  0
  4  6  2  0
  6  7  1  0
  7  8  2  0
  7  9  1  0
  9 10  2  0
 10 11  1  0
 11 12  2  0
 12 13  1  0
 13 14  2  0
 14 15  1  0
 15 16  1  0
 16 17  1  0
 17 18  1  0
 18 19  1  0
 19 20  2  0
 20 21  1  0
 21 22  2  0
 22 23  1  0
 23 24  2  0
  8  2  1  0
 14  9  1  0
 24 19  1  0
 15  6  1  0
  1 25  1  0
  1 26  1  0
  1 27  1  0
  3 28  1  0
  5 29  1  0
  5 30  1  0
  5 31  1  0
 10 32  1  0
 11 33  1  0
 12 34  1  0
 13 35  1  0
 16 36  1  0
 16 37  1  0
 17 38  1  0
 17 39  1  0
 18 40  1  0
 18 41  1  0
 20 42  1  0
 21 43  1  0
 22 44  1  0
 23 45  1  0
 24 46  1  0
M  END
>  <UniqueID>  (31) 
29

>  <SMILES>  (31) 
Cc1cc(C)c2c(n1)c1ccccc1n2CCCc1ccccc1

>  <Energy>  (31) 
94.42867714769199

>  <Genealogy>  (31) 
Cc1cc(C)c2c(n1)c1ccccc1n2CCCc1ccccc1 (3D coordinates assigned)
Cc1cc(C)c2c(n1)c1ccccc1n2CCCc1ccccc1 (optimized conformer: 94.42867714769199 kcal/mol)

>  <smiles>  (31) 
Cc1cc(C)c2c(n1)c1ccccc1n2CCCc1ccccc1

>  <score_type>  (31) 
oracle

>  <origin>  (31) 
adg

>  <m_score__min__energy>  (31) 
-8.5899999999999999

>  <m_primary>  (31) 
energy

$$$$
31:0
     RDKit          3D

 38 40  0  0  0  0  0  0  0  0999 V2000
   60.3450   34.7699   48.3541 H   0  0  0  0  0  0  0  0  0  0  0  0
   59.8310   34.0440   47.7070 C   0  0  0  0  0  0  0  0  0  0  0  0
   58.6290   34.3910   47.0850 C   0  0  0  0  0  0  0  0  0  0  0  0
   58.1996   35.3918   47.2398 H   0  0  0  0  0  0  0  0  0  0  0  0
   57.9710   33.4680   46.2660 C   0  0  0  0  0  0  0  0  0  0  0  0
   57.0320   33.7498   45.7672 H   0  0  0  0  0  0  0  0  0  0  0  0
   58.5050   32.1820   46.0780 C   0  0  0  0  0  0  0  0  0  0  0  0
   57.8140   31.2230   45.1890 C   0  0  0  0  0  0  0  0  0  0  0  0
   57.3660   30.0610   45.7310 N   0  0  0  0  0  0  0  0  0  0  0  0
   56.6970   29.1320   45.0060 C   0  0  0  0  0  0  0  0  0  0  0  0
   56.3040   28.0440   45.6120 N   0  0  0  0  0  0  0  0  0  0  0  0
   57.0810   26.9740   46.2560 C   0  0  0  0  0  0  0  0  0  0  0  0
   56.3186   26.4141   46.8175 H   0  0  0  0  0  0  0  0  0  0  0  0
   58.1470   27.4970   47.2180 C   0  0  0  0  0  0  0  0  0  0  0  0
   58.4891   28.4958   46.9093 H   0  0  0  0  0  0  0  0  0  0  0  0
   57.7627   27.5975   48.2438 H   0  0  0  0  0  0  0  0  0  0  0  0
   59.2850   26.4930   47.1320 C   0  0  0  0  0  0  0  0  0  0  0  0
   60.2507   26.9981   47.2810 H   0  0  0  0  0  0  0  0  0  0  0  0
   59.1950   25.7189   47.9083 H   0  0  0  0  0  0  0  0  0  0  0  0
   59.2160   25.8880   45.7360 C   0  0  0  0  0  0  0  0  0  0  0  0
   59.8919   26.4269   45.0558 H   0  0  0  0  0  0  0  0  0  0  0  0
   59.5244   24.8322   45.7475 H   0  0  0  0  0  0  0  0  0  0  0  0
   57.7700   26.0320   45.2640 C   0  0  0  0  0  0  0  0  0  0  0  0
   57.7416   26.4599   44.2510 H   0  0  0  0  0  0  0  0  0  0  0  0
   57.2647   25.0557   45.2257 H   0  0  0  0  0  0  0  0  0  0  0  0
   56.4510   29.3670   43.6830 N   0  0  0  0  0  0  0  0  0  0  0  0
   55.9270   28.6860   43.0960 H   0  0  0  0  0  0  0  0  0  0  0  0
   56.8890   30.5050   43.0800 C   0  0  0  0  0  0  0  0  0  0  0  0
   56.6430   30.6910   41.8560 O   0  0  0  0  0  0  0  0  0  0  0  0
   57.6130   31.4650   43.8110 C   0  0  0  0  0  0  0  0  0  0  0  0
   58.1380   32.7060   43.1290 C   0  0  0  0  0  0  0  0  0  0  0  0
   58.4479   33.4386   43.8887 H   0  0  0  0  0  0  0  0  0  0  0  0
   59.0014   32.4417   42.5008 H   0  0  0  0  0  0  0  0  0  0  0  0
   57.3471   33.1416   42.5008 H   0  0  0  0  0  0  0  0  0  0  0  0
   59.7250   31.8480   46.6900 C   0  0  0  0  0  0  0  0  0  0  0  0
   60.1664   30.8539   46.5259 H   0  0  0  0  0  0  0  0  0  0  0  0
   60.3800   32.7750   47.5070 C   0  0  0  0  0  0  0  0  0  0  0  0
   61.3290   32.5045   47.9929 H   0  0  0  0  0  0  0  0  0  0  0  0
  1  2  1  0
  2  3  2  0
  3  4  1  0
  3  5  1  0
  5  6  1  0
  5  7  2  0
  7  8  1  0
  8  9  1  0
  9 10  1  0
 10 11  2  0
 11 12  1  0
 12 13  1  0
 12 14  1  0
 14 15  1  0
 14 16  1  0
 14 17  1  0
 17 18  1  0
 17 19  1  0
 17 20  1  0
 20 21  1  0
 20 22  1  0
 20 23  1  0
 23 24  1  0
 23 25  1  0
 10 26  1  0
 26 27  1  0
 26 28  1  0
 28 29  2  0
 28 30  1  0
 30 31  1  0
 31 32  1  0
 31 33  1  0
 31 34  1  0
  7 35  1  0
 35 36  1  0
 35 37  2  0
 37 38  1  0
 37  2  1  0
 30  8  2  0
 23 12  1  0
M  CHG  1   9  -1
M  END
>  <UniqueID>  (32) 
30

>  <SMILES>  (32) 
Cc1c(-c2ccccc2)[n-]/c(=N/C2CCCC2)[nH]c1=O

>  <Energy>  (32) 
53.527608724442814

>  <Genealogy>  (32) 
Cc1c(-c2ccccc2)[n-]c(=NC2CCCC2)[nH]c1=O (protonated)
Cc1c(-c2ccccc2)[n-]/c(=N/C2CCCC2)[nH]c1=O (cis-trans isomerization)
Cc1c(-c2ccccc2)[n-]/c(=N/C2CCCC2)[nH]c1=O (3D coordinates assigned)
Cc1c(-c2ccccc2)[n-]/c(=N/C2CCCC2)[nH]c1=O (nonaromatic ring conformer: 53.527608724442814 kcal/mol)

>  <smiles>  (32) 
Cc1c(-c2ccccc2)[nH]c(=NC2CCCC2)[nH]c1=O

>  <score_type>  (32) 
oracle

>  <origin>  (32) 
adg

>  <m_score__min__energy>  (32) 
-9.0899999999999999

>  <m_primary>  (32) 
energy

$$$$
32:0
     RDKit          3D

 41 43  0  0  0  0  0  0  0  0999 V2000
   60.3550   27.0430   46.3880 C   0  0  0  0  0  0  0  0  0  0  0  0
   58.7060   27.3020   47.1170 S   0  0  0  0  0  0  0  0  0  0  0  0
   58.5040   28.9440   46.4050 C   0  0  0  0  0  0  0  0  0  0  0  0
   57.9650   29.0380   45.1090 C   0  0  0  0  0  0  0  0  0  0  0  0
   57.8130   30.2940   44.5300 C   0  0  0  0  0  0  0  0  0  0  0  0
   58.1650   31.4310   45.1960 C   0  0  0  0  0  0  0  0  0  0  0  0
   58.7080   31.3810   46.4830 C   0  0  0  0  0  0  0  0  0  0  0  0
   58.8700   30.1260   47.1150 C   0  0  0  0  0  0  0  0  0  0  0  0
   59.4180   30.0520   48.5260 C   0  0  0  0  0  0  0  0  0  0  0  0
   60.6300   29.3860   48.5220 F   0  0  0  0  0  0  0  0  0  0  0  0
   59.6170   31.3110   49.0660 F   0  0  0  0  0  0  0  0  0  0  0  0
   58.5270   29.3740   49.3380 F   0  0  0  0  0  0  0  0  0  0  0  0
   57.9560   32.5840   44.3960 N   0  0  0  0  0  0  0  0  0  0  0  0
   57.9450   33.9420   44.8620 C   0  0  0  0  0  0  0  0  0  0  0  0
   56.8630   34.5860   44.8940 O   0  0  0  0  0  0  0  0  0  0  0  0
   59.1590   34.6080   45.2260 N   0  0  0  0  0  0  0  0  0  0  0  0
   59.9120   34.3670   46.4220 C   0  0  0  0  0  0  0  0  0  0  0  0
   59.3060   34.6000   47.6620 C   0  0  0  0  0  0  0  0  0  0  0  0
   60.0040   34.3490   48.8460 C   0  0  0  0  0  0  0  0  0  0  0  0
   61.3110   33.8590   48.8000 C   0  0  0  0  0  0  0  0  0  0  0  0
   61.9380   33.6200   47.5650 C   0  0  0  0  0  0  0  0  0  0  0  0
   63.3260   33.0360   47.5100 C   0  0  0  0  0  0  0  0  0  0  0  0
   64.1230   33.5840   48.5020 F   0  0  0  0  0  0  0  0  0  0  0  0
   63.2920   31.6640   47.6930 F   0  0  0  0  0  0  0  0  0  0  0  0
   63.8880   33.3120   46.2780 F   0  0  0  0  0  0  0  0  0  0  0  0
   61.2170   33.8440   46.3790 C   0  0  0  0  0  0  0  0  0  0  0  0
   57.4070   32.1590   43.1060 C   0  0  0  0  0  0  0  0  0  0  0  0
   57.3080   30.6160   43.1670 C   0  0  0  0  0  0  0  0  0  0  0  0
   61.0970   26.9265   47.1917 H   0  0  0  0  0  0  0  0  0  0  0  0
   60.3426   26.1358   45.7660 H   0  0  0  0  0  0  0  0  0  0  0  0
   60.6213   27.9103   45.7660 H   0  0  0  0  0  0  0  0  0  0  0  0
   57.6680   28.1315   44.5612 H   0  0  0  0  0  0  0  0  0  0  0  0
   59.0057   32.3063   46.9980 H   0  0  0  0  0  0  0  0  0  0  0  0
   58.2755   34.9825   47.7045 H   0  0  0  0  0  0  0  0  0  0  0  0
   59.5228   34.5378   49.8170 H   0  0  0  0  0  0  0  0  0  0  0  0
   61.8530   33.6589   49.7360 H   0  0  0  0  0  0  0  0  0  0  0  0
   61.6777   33.6081   45.4084 H   0  0  0  0  0  0  0  0  0  0  0  0
   56.4109   32.5993   42.9517 H   0  0  0  0  0  0  0  0  0  0  0  0
   58.0438   32.4874   42.2713 H   0  0  0  0  0  0  0  0  0  0  0  0
   56.2670   30.2828   43.0436 H   0  0  0  0  0  0  0  0  0  0  0  0
   57.8759   30.1163   42.3684 H   0  0  0  0  0  0  0  0  0  0  0  0
  1  2  1  0
  2  3  1  0
  3  4  2  0
  4  5  1  0
  5  6  2  0
  6  7  1  0
  7  8  2  0
  8  9  1  0
  9 10  1  0
  9 11  1  0
  9 12  1  0
  6 13  1  0
 13 14  1  0
 14 15  2  0
 14 16  1  0
 16 17  1  0
 17 18  2  0
 18 19  1  0
 19 20  2  0
 20 21  1  0
 21 22  1  0
 22 23  1  0
 22 24  1  0
 22 25  1  0
 21 26  2  0
 13 27  1  0
 27 28  1  0
  8  3  1  0
 26 17  1  0
 28  5  1  0
  1 29  1  0
  1 30  1  0
  1 31  1  0
  4 32  1  0
  7 33  1  0
 18 34  1  0
 19 35  1  0
 20 36  1  0
 26 37  1  0
 27 38  1  0
 27 39  1  0
 28 40  1  0
 28 41  1  0
M  CHG  1  16  -1
M  END
>  <UniqueID>  (33) 
31

>  <SMILES>  (33) 
CSc1cc2c(cc1C(F)(F)F)N(C(=O)[N-]c1cccc(C(F)(F)F)c1)CC2

>  <Energy>  (33) 
62.21153916370238

>  <Genealogy>  (33) 
CSc1cc2c(cc1C(F)(F)F)N(C(=O)[N-]c1cccc(C(F)(F)F)c1)CC2 (protonated)
CSc1cc2c(cc1C(F)(F)F)N(C(=O)[N-]c1cccc(C(F)(F)F)c1)CC2 (3D coordinates assigned)
CSc1cc2c(cc1C(F)(F)F)N(C(=O)[N-]c1cccc(C(F)(F)F)c1)CC2 (nonaromatic ring conformer: 62.21153916370238 kcal/mol)

>  <smiles>  (33) 
CSc1cc2c(cc1C(F)(F)F)N(C(=O)Nc1cccc(C(F)(F)F)c1)CC2

>  <score_type>  (33) 
oracle

>  <origin>  (33) 
adg

>  <m_score__min__energy>  (33) 
-8.7599999999999998

>  <m_primary>  (33) 
energy

$$$$
33:0
     RDKit          3D

 37 39  0  0  0  0  0  0  0  0999 V2000
   54.4360   30.4370   44.6510 H   0  0  0  0  0  0  0  0  0  0  0  0
   55.1430   30.1020   43.9580 N   0  0  0  0  0  0  0  0  0  0  0  0
   56.1270   29.3400   44.3110 C   0  0  0  0  0  0  0  0  0  0  0  0
   55.9410   28.3710   45.2500 N   0  0  0  0  0  0  0  0  0  0  0  0
   56.9510   27.5500   45.6430 C   0  0  0  0  0  0  0  0  0  0  0  0
   56.7667   26.7814   46.4081 H   0  0  0  0  0  0  0  0  0  0  0  0
   58.2270   27.6800   45.0760 C   0  0  0  0  0  0  0  0  0  0  0  0
   59.3630   26.8030   45.5350 C   0  0  0  0  0  0  0  0  0  0  0  0
   59.0127   26.1545   46.3515 H   0  0  0  0  0  0  0  0  0  0  0  0
   59.7064   26.1925   44.6868 H   0  0  0  0  0  0  0  0  0  0  0  0
   60.4830   27.6220   46.0150 N   0  0  0  0  0  0  0  0  0  0  0  0
   61.1700   27.0190   46.5270 H   0  0  0  0  0  0  0  0  0  0  0  0
   60.9790   28.0560   45.2010 H   0  0  0  0  0  0  0  0  0  0  0  0
   59.9980   28.6570   46.8950 C   0  0  0  0  0  0  0  0  0  0  0  0
   59.7290   28.3730   48.2440 C   0  0  0  0  0  0  0  0  0  0  0  0
   59.8628   27.3498   48.6251 H   0  0  0  0  0  0  0  0  0  0  0  0
   59.2930   29.3820   49.1030 C   0  0  0  0  0  0  0  0  0  0  0  0
   59.0774   29.1494   50.1563 H   0  0  0  0  0  0  0  0  0  0  0  0
   59.1290   30.6870   48.6310 C   0  0  0  0  0  0  0  0  0  0  0  0
   58.7829   31.4763   49.3145 H   0  0  0  0  0  0  0  0  0  0  0  0
   59.4040   30.9970   47.2870 C   0  0  0  0  0  0  0  0  0  0  0  0
   59.2380   32.3860   46.7840 C   0  0  0  0  0  0  0  0  0  0  0  0
   58.1460   32.7260   45.9680 C   0  0  0  0  0  0  0  0  0  0  0  0
   57.4019   31.9635   45.6942 H   0  0  0  0  0  0  0  0  0  0  0  0
   58.0100   34.0380   45.5060 C   0  0  0  0  0  0  0  0  0  0  0  0
   57.1572   34.3085   44.8661 H   0  0  0  0  0  0  0  0  0  0  0  0
   58.9280   34.9800   45.8450 N   0  0  0  0  0  0  0  0  0  0  0  0
   59.9950   34.6830   46.6320 C   0  0  0  0  0  0  0  0  0  0  0  0
   60.7230   35.4670   46.8879 H   0  0  0  0  0  0  0  0  0  0  0  0
   60.1700   33.3850   47.1170 C   0  0  0  0  0  0  0  0  0  0  0  0
   61.0325   33.1454   47.7562 H   0  0  0  0  0  0  0  0  0  0  0  0
   59.8430   29.9740   46.4270 C   0  0  0  0  0  0  0  0  0  0  0  0
   60.0677   30.2071   45.3757 H   0  0  0  0  0  0  0  0  0  0  0  0
   58.4410   28.6830   44.1200 C   0  0  0  0  0  0  0  0  0  0  0  0
   59.4388   28.8157   43.6764 H   0  0  0  0  0  0  0  0  0  0  0  0
   57.3890   29.5130   43.7310 C   0  0  0  0  0  0  0  0  0  0  0  0
   57.5500   30.2961   42.9755 H   0  0  0  0  0  0  0  0  0  0  0  0
  1  2  1  0
  2  3  2  0
  3  4  1  0
  4  5  1  0
  5  6  1  0
  5  7  2  0
  7  8  1  0
  8  9  1  0
  8 10  1  0
  8 11  1  0
 11 12  1  0
 11 13  1  0
 11 14  1  0
 14 15  2  0
 15 16  1  0
 15 17  1  0
 17 18  1  0
 17 19  2  0
 19 20  1  0
 19 21  1  0
 21 22  1  0
 22 23  2  0
 23 24  1  0
 23 25  1  0
 25 26  1  0
 25 27  2  0
 27 28  1  0
 28 29  1  0
 28 30  2  0
 30 31  1  0
 21 32  2  0
 32 33  1  0
  7 34  1  0
 34 35  1  0
 34 36  2  0
 36 37  1  0
 36  3  1  0
 32 14  1  0
 30 22  1  0
M  CHG  2   4  -1  11   1
M  END
>  <UniqueID>  (34) 
32

>  <SMILES>  (34) 
[H]/N=c1/ccc(C[NH2+]c2cccc(-c3ccncc3)c2)c[n-]1

>  <Energy>  (34) 
46.356895557180145

>  <Genealogy>  (34) 
N=c1ccc(C[NH2+]c2cccc(-c3ccncc3)c2)c[n-]1 (protonated)
[H]/N=c1/ccc(C[NH2+]c2cccc(-c3ccncc3)c2)c[n-]1 (cis-trans isomerization)
[H]/N=c1/ccc(C[NH2+]c2cccc(-c3ccncc3)c2)c[n-]1 (3D coordinates assigned)
[H]/N=c1/ccc(C[NH2+]c2cccc(-c3ccncc3)c2)c[n-]1 (optimized conformer: 46.356895557180145 kcal/mol)

>  <smiles>  (34) 
N=c1ccc(CNc2cccc(-c3ccncc3)c2)c[nH]1

>  <score_type>  (34) 
oracle

>  <origin>  (34) 
adg

>  <m_score__min__energy>  (34) 
-8

>  <m_primary>  (34) 
energy

$$$$
34:0
     RDKit          3D

 49 51  0  0  0  0  0  0  0  0999 V2000
   57.5389   33.6288   43.6352 H   0  0  0  0  0  0  0  0  0  0  0  0
   57.7520   32.8440   44.3760 C   0  0  0  0  0  0  0  0  0  0  0  0
   57.7710   33.2100   45.8080 C   0  0  0  0  0  0  0  0  0  0  0  0
   56.6690   33.4360   46.3760 O   0  0  0  0  0  0  0  0  0  0  0  0
   59.0190   33.3060   46.6020 C   0  0  0  0  0  0  0  0  0  0  0  0
   60.2030   33.7560   45.9950 C   0  0  0  0  0  0  0  0  0  0  0  0
   60.2024   34.0208   44.9273 H   0  0  0  0  0  0  0  0  0  0  0  0
   61.3820   33.8700   46.7370 C   0  0  0  0  0  0  0  0  0  0  0  0
   62.3037   34.2182   46.2479 H   0  0  0  0  0  0  0  0  0  0  0  0
   61.3980   33.5430   48.1030 C   0  0  0  0  0  0  0  0  0  0  0  0
   62.6130   33.6720   48.8640 N   0  0  0  0  0  0  0  0  0  0  0  0
   63.8540   33.0630   48.3700 C   0  0  0  0  0  0  0  0  0  0  0  0
   63.6528   32.0248   48.0674 H   0  0  0  0  0  0  0  0  0  0  0  0
   64.2185   33.6436   47.5097 H   0  0  0  0  0  0  0  0  0  0  0  0
   64.9240   33.0710   49.4630 C   0  0  0  0  0  0  0  0  0  0  0  0
   65.6783   32.3007   49.2444 H   0  0  0  0  0  0  0  0  0  0  0  0
   65.4092   34.0577   49.4962 H   0  0  0  0  0  0  0  0  0  0  0  0
   64.3200   32.7990   50.7100 O   0  0  0  0  0  0  0  0  0  0  0  0
   63.5790   33.9260   51.1470 C   0  0  0  0  0  0  0  0  0  0  0  0
   62.9578   33.6223   52.0025 H   0  0  0  0  0  0  0  0  0  0  0  0
   64.3079   34.7059   51.4123 H   0  0  0  0  0  0  0  0  0  0  0  0
   62.6540   34.5240   50.0600 C   0  0  0  0  0  0  0  0  0  0  0  0
   61.6367   34.6179   50.4677 H   0  0  0  0  0  0  0  0  0  0  0  0
   63.0507   35.5084   49.7707 H   0  0  0  0  0  0  0  0  0  0  0  0
   60.2090   33.1190   48.7170 C   0  0  0  0  0  0  0  0  0  0  0  0
   60.2047   32.8756   49.7897 H   0  0  0  0  0  0  0  0  0  0  0  0
   59.0300   33.0040   47.9740 C   0  0  0  0  0  0  0  0  0  0  0  0
   58.1039   32.6745   48.4676 H   0  0  0  0  0  0  0  0  0  0  0  0
   57.9830   31.5980   43.9410 C   0  0  0  0  0  0  0  0  0  0  0  0
   57.9948   31.4121   42.8569 H   0  0  0  0  0  0  0  0  0  0  0  0
   58.2230   30.4610   44.8580 C   0  0  0  0  0  0  0  0  0  0  0  0
   59.5400   30.2160   45.2720 C   0  0  0  0  0  0  0  0  0  0  0  0
   60.3534   30.8611   44.9084 H   0  0  0  0  0  0  0  0  0  0  0  0
   59.8300   29.1630   46.1400 C   0  0  0  0  0  0  0  0  0  0  0  0
   60.8671   28.9894   46.4630 H   0  0  0  0  0  0  0  0  0  0  0  0
   58.8040   28.3240   46.6030 C   0  0  0  0  0  0  0  0  0  0  0  0
   59.0430   27.2580   47.4830 O   0  0  0  0  0  0  0  0  0  0  0  0
   60.2130   27.1240   48.2850 C   0  0  0  0  0  0  0  0  0  0  0  0
   59.9341   27.1559   49.3486 H   0  0  0  0  0  0  0  0  0  0  0  0
   60.7019   26.1640   48.0628 H   0  0  0  0  0  0  0  0  0  0  0  0
   60.9063   27.9486   48.0628 H   0  0  0  0  0  0  0  0  0  0  0  0
   57.4920   28.5470   46.1730 C   0  0  0  0  0  0  0  0  0  0  0  0
   56.6855   27.8897   46.5303 H   0  0  0  0  0  0  0  0  0  0  0  0
   57.1880   29.6010   45.2890 C   0  0  0  0  0  0  0  0  0  0  0  0
   55.8840   29.7970   44.8020 O   0  0  0  0  0  0  0  0  0  0  0  0
   55.5080   29.7170   43.4310 C   0  0  0  0  0  0  0  0  0  0  0  0
   54.4345   29.4886   43.3579 H   0  0  0  0  0  0  0  0  0  0  0  0
   55.7126   30.6788   42.9380 H   0  0  0  0  0  0  0  0  0  0  0  0
   56.0864   28.9218   42.9380 H   0  0  0  0  0  0  0  0  0  0  0  0
  1  2  1  0
  2  3  1  0
  3  4  2  0
  3  5  1  0
  5  6  2  0
  6  7  1  0
  6  8  1  0
  8  9  1  0
  8 10  2  0
 10 11  1  0
 11 12  1  0
 12 13  1  0
 12 14  1  0
 12 15  1  0
 15 16  1  0
 15 17  1  0
 15 18  1  0
 18 19  1  0
 19 20  1  0
 19 21  1  0
 19 22  1  0
 22 23  1  0
 22 24  1  0
 10 25  1  0
 25 26  1  0
 25 27  2  0
 27 28  1  0
  2 29  2  0
 29 30  1  0
 29 31  1  0
 31 32  2  0
 32 33  1  0
 32 34  1  0
 34 35  1  0
 34 36  2  0
 36 37  1  0
 37 38  1  0
 38 39  1  0
 38 40  1  0
 38 41  1  0
 36 42  1  0
 42 43  1  0
 42 44  2  0
 44 45  1  0
 45 46  1  0
 46 47  1  0
 46 48  1  0
 46 49  1  0
 27  5  1  0
 44 31  1  0
 22 11  1  0
M  END
>  <UniqueID>  (35) 
33

>  <SMILES>  (35) 
COc1ccc(/C=C/C(=O)c2ccc(N3CCOCC3)cc2)c(OC)c1

>  <Energy>  (35) 
69.19590209974952

>  <Genealogy>  (35) 
COc1ccc(/C=C/C(=O)c2ccc(N3CCOCC3)cc2)c(OC)c1 (cis-trans isomerization)
COc1ccc(/C=C/C(=O)c2ccc(N3CCOCC3)cc2)c(OC)c1 (3D coordinates assigned)
COc1ccc(/C=C/C(=O)c2ccc(N3CCOCC3)cc2)c(OC)c1 (nonaromatic ring conformer: 69.19590209974952 kcal/mol)

>  <smiles>  (35) 
COc1ccc(C=CC(=O)c2ccc(N3CCOCC3)cc2)c(OC)c1

>  <score_type>  (35) 
oracle

>  <origin>  (35) 
adg

>  <m_score__min__energy>  (35) 
-7.6399999999999997

>  <m_primary>  (35) 
energy

$$$$
35:0
     RDKit          3D

 68 72  0  0  0  0  0  0  0  0999 V2000
   58.9060   31.6420   51.7670 C   0  0  0  0  0  0  0  0  0  0  0  0
   59.7500   32.8830   51.4600 C   0  0  0  0  0  0  0  0  0  0  0  0
   58.9800   34.1850   51.7020 C   0  0  0  0  0  0  0  0  0  0  0  0
   60.3060   32.8330   50.0960 N   0  0  0  0  0  0  0  0  0  0  0  0
   59.6040   32.5920   48.9560 C   0  0  0  0  0  0  0  0  0  0  0  0
   58.3630   32.3750   48.9380 O   0  0  0  0  0  0  0  0  0  0  0  0
   60.3730   32.5960   47.8400 N   0  0  0  0  0  0  0  0  0  0  0  0
   59.9450   32.2910   46.4730 C   0  0  0  0  0  0  0  0  0  0  0  0
   59.5750   30.8370   46.3650 C   0  0  0  0  0  0  0  0  0  0  0  0
   60.2970   29.8590   46.9630 N   0  0  0  0  0  0  0  0  0  0  0  0
   59.6400   28.7270   46.6680 C   0  0  0  0  0  0  0  0  0  0  0  0
   59.9780   27.4250   47.0200 C   0  0  0  0  0  0  0  0  0  0  0  0
   59.1450   26.3880   46.5640 C   0  0  0  0  0  0  0  0  0  0  0  0
   57.9980   26.6710   45.7770 C   0  0  0  0  0  0  0  0  0  0  0  0
   57.1410   25.5680   45.2750 C   0  0  0  0  0  0  0  0  0  0  0  0
   57.6880   24.6010   44.4210 C   0  0  0  0  0  0  0  0  0  0  0  0
   56.8980   23.5580   43.9480 C   0  0  0  0  0  0  0  0  0  0  0  0
   55.5610   23.4810   44.3320 C   0  0  0  0  0  0  0  0  0  0  0  0
   55.0190   24.4180   45.1670 N   0  0  0  0  0  0  0  0  0  0  0  0
   53.6000   24.3210   45.5340 C   0  0  0  0  0  0  0  0  0  0  0  0
   55.7790   25.4630   45.6300 C   0  0  0  0  0  0  0  0  0  0  0  0
   55.2540   26.3470   46.3640 O   0  0  0  0  0  0  0  0  0  0  0  0
   57.6920   28.0110   45.4430 C   0  0  0  0  0  0  0  0  0  0  0  0
   58.5410   29.0160   45.9110 C   0  0  0  0  0  0  0  0  0  0  0  0
   58.4830   30.3500   45.7060 N   0  0  0  0  0  0  0  0  0  0  0  0
   57.4970   31.0920   44.9120 C   0  0  0  0  0  0  0  0  0  0  0  0
   58.1260   32.3050   44.2040 C   0  0  0  0  0  0  0  0  0  0  0  0
   57.3910   33.6310   44.4780 C   0  0  0  0  0  0  0  0  0  0  0  0
   57.6630   34.1760   45.8820 C   0  0  0  0  0  0  0  0  0  0  0  0
   56.9140   33.4480   46.8160 O   0  0  0  0  0  0  0  0  0  0  0  0
   61.6180   32.8330   48.2970 C   0  0  0  0  0  0  0  0  0  0  0  0
   62.8120   32.9160   47.5760 C   0  0  0  0  0  0  0  0  0  0  0  0
   63.9960   33.1640   48.2900 C   0  0  0  0  0  0  0  0  0  0  0  0
   63.9650   33.3190   49.6920 C   0  0  0  0  0  0  0  0  0  0  0  0
   62.7510   33.2270   50.3950 C   0  0  0  0  0  0  0  0  0  0  0  0
   61.5820   32.9820   49.6630 C   0  0  0  0  0  0  0  0  0  0  0  0
   58.8209   31.5168   52.8565 H   0  0  0  0  0  0  0  0  0  0  0  0
   57.9029   31.7641   51.3325 H   0  0  0  0  0  0  0  0  0  0  0  0
   59.3882   30.7539   51.3325 H   0  0  0  0  0  0  0  0  0  0  0  0
   60.5929   32.8757   52.1667 H   0  0  0  0  0  0  0  0  0  0  0  0
   58.8791   34.3556   52.7840 H   0  0  0  0  0  0  0  0  0  0  0  0
   59.5271   35.0243   51.2479 H   0  0  0  0  0  0  0  0  0  0  0  0
   57.9809   34.1100   51.2479 H   0  0  0  0  0  0  0  0  0  0  0  0
   59.0720   32.9095   46.2175 H   0  0  0  0  0  0  0  0  0  0  0  0
   60.7700   32.5074   45.7783 H   0  0  0  0  0  0  0  0  0  0  0  0
   61.1720   29.9580   47.5250 H   0  0  0  0  0  0  0  0  0  0  0  0
   60.8660   27.2136   47.6338 H   0  0  0  0  0  0  0  0  0  0  0  0
   59.3849   25.3455   46.8201 H   0  0  0  0  0  0  0  0  0  0  0  0
   58.7450   24.6667   44.1237 H   0  0  0  0  0  0  0  0  0  0  0  0
   57.3259   22.7997   43.2758 H   0  0  0  0  0  0  0  0  0  0  0  0
   54.9346   22.6572   43.9592 H   0  0  0  0  0  0  0  0  0  0  0  0
   53.5043   24.3145   46.6298 H   0  0  0  0  0  0  0  0  0  0  0  0
   53.0553   25.1840   45.1235 H   0  0  0  0  0  0  0  0  0  0  0  0
   53.1778   23.3919   45.1235 H   0  0  0  0  0  0  0  0  0  0  0  0
   56.8103   28.2544   44.8320 H   0  0  0  0  0  0  0  0  0  0  0  0
   57.0718   30.4185   44.1533 H   0  0  0  0  0  0  0  0  0  0  0  0
   56.7181   31.4620   45.5950 H   0  0  0  0  0  0  0  0  0  0  0  0
   59.1660   32.4069   44.5475 H   0  0  0  0  0  0  0  0  0  0  0  0
   58.0581   32.1170   43.1223 H   0  0  0  0  0  0  0  0  0  0  0  0
   57.7228   34.3766   43.7404 H   0  0  0  0  0  0  0  0  0  0  0  0
   56.3113   33.4355   44.4001 H   0  0  0  0  0  0  0  0  0  0  0  0
   58.7339   34.0773   46.1131 H   0  0  0  0  0  0  0  0  0  0  0  0
   57.3758   35.2369   45.9268 H   0  0  0  0  0  0  0  0  0  0  0  0
   57.2230   33.7480   47.7100 H   0  0  0  0  0  0  0  0  0  0  0  0
   62.8244   32.7910   46.4832 H   0  0  0  0  0  0  0  0  0  0  0  0
   64.9531   33.2378   47.7528 H   0  0  0  0  0  0  0  0  0  0  0  0
   64.8988   33.5135   50.2398 H   0  0  0  0  0  0  0  0  0  0  0  0
   62.7200   33.3440   51.4883 H   0  0  0  0  0  0  0  0  0  0  0  0
  1  2  1  0
  2  3  1  0
  2  4  1  0
  4  5  1  0
  5  6  2  0
  5  7  1  0
  7  8  1  0
  8  9  1  0
  9 10  2  0
 10 11  1  0
 11 12  2  0
 12 13  1  0
 13 14  2  0
 14 15  1  0
 15 16  2  0
 16 17  1  0
 17 18  2  0
 18 19  1  0
 19 20  1  0
 19 21  1  0
 21 22  2  0
 14 23  1  0
 23 24  2  0
 24 25  1  0
 25 26  1  0
 26 27  1  0
 27 28  1  0
 28 29  1  0
 29 30  1  0
  7 31  1  0
 31 32  2  0
 32 33  1  0
 33 34  2  0
 34 35  1  0
 35 36  2  0
 36  4  1  0
 25  9  1  0
 36 31  1  0
 24 11  1  0
 21 15  1  0
  1 37  1  0
  1 38  1  0
  1 39  1  0
  2 40  1  0
  3 41  1  0
  3 42  1  0
  3 43  1  0
  8 44  1  0
  8 45  1  0
 10 46  1  0
 12 47  1  0
 13 48  1  0
 16 49  1  0
 17 50  1  0
 18 51  1  0
 20 52  1  0
 20 53  1  0
 20 54  1  0
 23 55  1  0
 26 56  1  0
 26 57  1  0
 27 58  1  0
 27 59  1  0
 28 60  1  0
 28 61  1  0
 29 62  1  0
 29 63  1  0
 30 64  1  0
 32 65  1  0
 33 66  1  0
 34 67  1  0
 35 68  1  0
M  CHG  1  10   1
M  END
>  <UniqueID>  (36) 
34

>  <SMILES>  (36) 
CC(C)n1c(=O)n(Cc2[nH+]c3ccc(-c4cccn(C)c4=O)cc3n2CCCCO)c2ccccc21

>  <Energy>  (36) 
152.5780402908546

>  <Genealogy>  (36) 
CC(C)n1c(=O)n(Cc2[nH+]c3ccc(-c4cccn(C)c4=O)cc3n2CCCCO)c2ccccc21 (protonated)
CC(C)n1c(=O)n(Cc2[nH+]c3ccc(-c4cccn(C)c4=O)cc3n2CCCCO)c2ccccc21 (3D coordinates assigned)
CC(C)n1c(=O)n(Cc2[nH+]c3ccc(-c4cccn(C)c4=O)cc3n2CCCCO)c2ccccc21 (optimized conformer: 152.5780402908546 kcal/mol)

>  <smiles>  (36) 
CC(C)n1c(=O)n(Cc2nc3ccc(-c4cccn(C)c4=O)cc3n2CCCCO)c2ccccc21

>  <score_type>  (36) 
oracle

>  <origin>  (36) 
adg

>  <m_score__min__energy>  (36) 
-9.1400000000000006

>  <m_primary>  (36) 
energy

$$$$
36:0
     RDKit          3D

 32 34  0  0  0  0  0  0  0  0999 V2000
   58.4680   32.6410   42.2690 O   0  0  0  0  0  0  0  0  0  0  0  0
   58.0520   32.5430   43.4540 C   0  0  0  0  0  0  0  0  0  0  0  0
   57.1100   31.6690   43.8720 N   0  0  0  0  0  0  0  0  0  0  0  0
   56.4070   30.6690   43.0700 C   0  0  0  0  0  0  0  0  0  0  0  0
   56.2430   29.3410   43.8320 C   0  0  2  0  0  0  0  0  0  0  0  0
   55.6110   29.6140   45.0560 O   0  0  0  0  0  0  0  0  0  0  0  0
   57.5940   28.6460   44.1090 C   0  0  0  0  0  0  0  0  0  0  0  0
   58.3030   29.2530   45.2350 N   0  0  0  0  0  0  0  0  0  0  0  0
   59.4920   29.8830   45.1810 C   0  0  0  0  0  0  0  0  0  0  0  0
   59.8270   30.2840   46.4560 C   0  0  0  0  0  0  0  0  0  0  0  0
   58.7850   29.8460   47.2490 C   0  0  0  0  0  0  0  0  0  0  0  0
   57.8710   29.2150   46.4850 N   0  0  0  0  0  0  0  0  0  0  0  0
   56.9300   31.8460   45.1790 N   0  0  0  0  0  0  0  0  0  0  0  0
   57.7630   32.8520   45.5220 C   0  0  0  0  0  0  0  0  0  0  0  0
   57.9110   33.4210   46.7840 C   0  0  0  0  0  0  0  0  0  0  0  0
   57.1940   32.9770   47.8460 F   0  0  0  0  0  0  0  0  0  0  0  0
   58.8260   34.4810   46.9140 C   0  0  0  0  0  0  0  0  0  0  0  0
   59.5560   34.9360   45.7960 C   0  0  0  0  0  0  0  0  0  0  0  0
   59.3640   34.3230   44.5480 C   0  0  0  0  0  0  0  0  0  0  0  0
   58.4710   33.3050   44.4740 N   0  0  0  0  0  0  0  0  0  0  0  0
   55.4108   31.0564   42.8102 H   0  0  0  0  0  0  0  0  0  0  0  0
   57.0022   30.4743   42.1656 H   0  0  0  0  0  0  0  0  0  0  0  0
   55.6464   28.6597   43.2076 H   0  0  0  0  0  0  0  0  0  0  0  0
   56.2680   30.1000   45.6200 H   0  0  0  0  0  0  0  0  0  0  0  0
   57.4078   27.5861   44.3367 H   0  0  0  0  0  0  0  0  0  0  0  0
   58.2224   28.7567   43.2130 H   0  0  0  0  0  0  0  0  0  0  0  0
   60.0927   30.0490   44.2746 H   0  0  0  0  0  0  0  0  0  0  0  0
   60.7265   30.8324   46.7724 H   0  0  0  0  0  0  0  0  0  0  0  0
   58.7119   29.9899   48.3371 H   0  0  0  0  0  0  0  0  0  0  0  0
   58.9734   34.9584   47.8940 H   0  0  0  0  0  0  0  0  0  0  0  0
   60.2708   35.7655   45.9015 H   0  0  0  0  0  0  0  0  0  0  0  0
   59.9195   34.6573   43.6593 H   0  0  0  0  0  0  0  0  0  0  0  0
  1  2  2  0
  2  3  1  0
  3  4  1  0
  4  5  1  0
  5  6  1  0
  5  7  1  0
  7  8  1  0
  8  9  1  0
  9 10  2  0
 10 11  1  0
 11 12  2  0
  3 13  1  0
 13 14  2  0
 14 15  1  0
 15 16  1  0
 15 17  2  0
 17 18  1  0
 18 19  2  0
 19 20  1  0
 20  2  1  0
 12  8  1  0
 20 14  1  0
  4 21  1  0
  4 22  1  0
  5 23  1  6
  6 24  1  0
  7 25  1  0
  7 26  1  0
  9 27  1  0
 10 28  1  0
 11 29  1  0
 17 30  1  0
 18 31  1  0
 19 32  1  0
M  END
>  <UniqueID>  (37) 
35

>  <SMILES>  (37) 
O=c1n(C[C@H](O)Cn2cccn2)nc2c(F)cccn12

>  <Energy>  (37) 
101.60222490334601

>  <Genealogy>  (37) 
O=c1n(C[C@H](O)Cn2cccn2)nc2c(F)cccn12 (chirality)
O=c1n(C[C@H](O)Cn2cccn2)nc2c(F)cccn12 (3D coordinates assigned)
O=c1n(C[C@H](O)Cn2cccn2)nc2c(F)cccn12 (optimized conformer: 101.60222490334601 kcal/mol)

>  <smiles>  (37) 
O=c1n(CC(O)Cn2cccn2)nc2c(F)cccn12

>  <score_type>  (37) 
oracle

>  <origin>  (37) 
adg

>  <m_score__min__energy>  (37) 
-6.8099999999999996

>  <m_primary>  (37) 
energy

$$$$
37:0
     RDKit          3D

 45 48  0  0  0  0  0  0  0  0999 V2000
   54.7829   29.6173   43.5971 H   0  0  0  0  0  0  0  0  0  0  0  0
   55.8100   29.9010   43.8700 C   0  0  0  0  0  0  0  0  0  0  0  0
   56.6460   29.3890   45.2360 S   0  0  0  0  0  0  0  0  0  0  0  0
   58.0780   30.2110   44.9080 C   0  0  0  0  0  0  0  0  0  0  0  0
   59.2510   30.2480   45.8130 C   0  0  0  0  0  0  0  0  0  0  0  0
   60.2810   29.4630   45.6720 N   0  0  0  0  0  0  0  0  0  0  0  0
   60.4460   28.4070   44.6780 C   0  0  0  0  0  0  0  0  0  0  0  0
   60.3833   28.8381   43.6679 H   0  0  0  0  0  0  0  0  0  0  0  0
   61.4275   27.9269   44.8050 H   0  0  0  0  0  0  0  0  0  0  0  0
   59.3570   27.3910   44.8600 C   0  0  0  0  0  0  0  0  0  0  0  0
   59.2270   26.6920   46.0680 C   0  0  0  0  0  0  0  0  0  0  0  0
   59.9465   26.8625   46.8824 H   0  0  0  0  0  0  0  0  0  0  0  0
   58.1860   25.7810   46.2370 C   0  0  0  0  0  0  0  0  0  0  0  0
   58.0834   25.2244   47.1802 H   0  0  0  0  0  0  0  0  0  0  0  0
   57.2740   25.5810   45.1980 C   0  0  0  0  0  0  0  0  0  0  0  0
   56.4529   24.8592   45.3192 H   0  0  0  0  0  0  0  0  0  0  0  0
   57.4000   26.2780   44.0360 N   0  0  0  0  0  0  0  0  0  0  0  0
   56.7060   26.1220   43.2680 H   0  0  0  0  0  0  0  0  0  0  0  0
   58.4070   27.1750   43.8490 C   0  0  0  0  0  0  0  0  0  0  0  0
   58.4765   27.7321   42.9031 H   0  0  0  0  0  0  0  0  0  0  0  0
   59.1960   31.1170   47.0100 C   0  0  0  0  0  0  0  0  0  0  0  0
   59.0140   30.5140   48.2740 C   0  0  0  0  0  0  0  0  0  0  0  0
   58.9060   29.1140   48.3460 O   0  0  0  0  0  0  0  0  0  0  0  0
   59.8950   28.2500   48.9020 C   0  0  0  0  0  0  0  0  0  0  0  0
   59.8448   28.2939   50.0000 H   0  0  0  0  0  0  0  0  0  0  0  0
   59.7106   27.2185   48.5674 H   0  0  0  0  0  0  0  0  0  0  0  0
   60.8924   28.5712   48.5674 H   0  0  0  0  0  0  0  0  0  0  0  0
   58.9270   31.3190   49.4220 C   0  0  0  0  0  0  0  0  0  0  0  0
   58.7951   30.8489   50.4077 H   0  0  0  0  0  0  0  0  0  0  0  0
   59.0060   32.7070   49.3250 C   0  0  0  0  0  0  0  0  0  0  0  0
   58.9223   33.3237   50.2320 H   0  0  0  0  0  0  0  0  0  0  0  0
   59.1910   33.3210   48.0820 C   0  0  0  0  0  0  0  0  0  0  0  0
   59.2800   34.7200   47.9980 C   0  0  0  0  0  0  0  0  0  0  0  0
   59.1870   35.3305   48.9083 H   0  0  0  0  0  0  0  0  0  0  0  0
   59.4860   35.3390   46.7640 C   0  0  0  0  0  0  0  0  0  0  0  0
   59.5499   36.4355   46.7038 H   0  0  0  0  0  0  0  0  0  0  0  0
   59.6110   34.5700   45.6070 C   0  0  0  0  0  0  0  0  0  0  0  0
   59.7797   35.0625   44.6380 H   0  0  0  0  0  0  0  0  0  0  0  0
   59.5230   33.1780   45.6730 C   0  0  0  0  0  0  0  0  0  0  0  0
   59.6306   32.5808   44.7555 H   0  0  0  0  0  0  0  0  0  0  0  0
   59.2970   32.5300   46.9080 C   0  0  0  0  0  0  0  0  0  0  0  0
   57.9040   30.9280   43.7260 C   0  0  0  0  0  0  0  0  0  0  0  0
   58.6805   31.5743   43.2909 H   0  0  0  0  0  0  0  0  0  0  0  0
   56.6420   30.7440   43.1470 C   0  0  0  0  0  0  0  0  0  0  0  0
   56.3381   31.2240   42.2050 H   0  0  0  0  0  0  0  0  0  0  0  0
  1  2  1  0
  2  3  1  0
  3  4  1  0
  4  5  1  0
  5  6  2  0
  6  7  1  0
  7  8  1  0
  7  9  1  0
  7 10  1  0
 10 11  2  0
 11 12  1  0
 11 13  1  0
 13 14  1  0
 13 15  2  0
 15 16  1  0
 15 17  1  0
 17 18  1  0
 17 19  2  0
 19 20  1  0
  5 21  1  0
 21 22  2  0
 22 23  1  0
 23 24  1  0
 24 25  1  0
 24 26  1  0
 24 27  1  0
 22 28  1  0
 28 29  1  0
 28 30  2  0
 30 31  1  0
 30 32  1  0
 32 33  2  0
 33 34  1  0
 33 35  1  0
 35 36  1  0
 35 37  2  0
 37 38  1  0
 37 39  1  0
 39 40  1  0
 39 41  2  0
  4 42  2  0
 42 43  1  0
 42 44  1  0
 44 45  1  0
 44  2  2  0
 19 10  1  0
 41 21  1  0
 41 32  1  0
M  CHG  1  17   1
M  END
>  <UniqueID>  (38) 
36

>  <SMILES>  (38) 
COc1ccc2ccccc2c1/C(=N/Cc1ccc[nH+]c1)c1cccs1

>  <Energy>  (38) 
89.43195579373796

>  <Genealogy>  (38) 
COc1ccc2ccccc2c1C(=NCc1ccc[nH+]c1)c1cccs1 (protonated)
COc1ccc2ccccc2c1/C(=N/Cc1ccc[nH+]c1)c1cccs1 (cis-trans isomerization)
COc1ccc2ccccc2c1/C(=N/Cc1ccc[nH+]c1)c1cccs1 (3D coordinates assigned)
COc1ccc2ccccc2c1/C(=N/Cc1ccc[nH+]c1)c1cccs1 (optimized conformer: 89.43195579373796 kcal/mol)

>  <smiles>  (38) 
COc1ccc2ccccc2c1C(=NCc1cccnc1)c1cccs1

>  <score_type>  (38) 
oracle

>  <origin>  (38) 
adg

>  <m_score__min__energy>  (38) 
-6.5899999999999999

>  <m_primary>  (38) 
energy

$$$$
38:0
     RDKit          3D

 40 41  0  0  0  0  0  0  0  0999 V2000
   61.1400   30.0810   47.8950 C   0  0  0  0  0  0  0  0  0  0  0  0
   60.5080   30.3790   46.5980 N   0  0  0  0  0  0  0  0  0  0  0  0
   60.7620   29.2680   45.6620 C   0  0  0  0  0  0  0  0  0  0  0  0
   59.0580   30.5920   46.7840 C   0  0  0  0  0  0  0  0  0  0  0  0
   58.6010   31.8730   46.1220 C   0  0  0  0  0  0  0  0  0  0  0  0
   58.1430   31.8370   44.7960 C   0  0  0  0  0  0  0  0  0  0  0  0
   57.7000   33.0030   44.1680 C   0  0  0  0  0  0  0  0  0  0  0  0
   57.7170   34.2050   44.8710 C   0  0  0  0  0  0  0  0  0  0  0  0
   58.1590   34.2340   46.1540 N   0  0  0  0  0  0  0  0  0  0  0  0
   58.6060   33.1190   46.7940 C   0  0  0  0  0  0  0  0  0  0  0  0
   59.0420   33.2360   48.1570 N   0  0  0  0  0  0  0  0  0  0  0  0
   58.5150   32.3390   49.1860 C   0  0  0  0  0  0  0  0  0  0  0  0
   60.0560   34.2340   48.5080 C   0  0  0  0  0  0  0  0  0  0  0  0
   61.4160   33.7530   48.0800 C   0  0  0  0  0  0  0  0  0  0  0  0
   61.8160   33.8520   46.7400 C   0  0  0  0  0  0  0  0  0  0  0  0
   63.1110   33.4660   46.3780 C   0  0  0  0  0  0  0  0  0  0  0  0
   63.9790   33.0060   47.3220 N   0  0  0  0  0  0  0  0  0  0  0  0
   63.6170   32.9100   48.6310 C   0  0  0  0  0  0  0  0  0  0  0  0
   62.3330   33.2860   49.0340 C   0  0  0  0  0  0  0  0  0  0  0  0
   60.4715   30.3962   48.7097 H   0  0  0  0  0  0  0  0  0  0  0  0
   61.3272   28.9998   47.9719 H   0  0  0  0  0  0  0  0  0  0  0  0
   62.0933   30.6245   47.9719 H   0  0  0  0  0  0  0  0  0  0  0  0
   60.9719   28.3501   46.2307 H   0  0  0  0  0  0  0  0  0  0  0  0
   59.8762   29.1124   45.0286 H   0  0  0  0  0  0  0  0  0  0  0  0
   61.6274   29.5128   45.0286 H   0  0  0  0  0  0  0  0  0  0  0  0
   58.5119   29.7456   46.3418 H   0  0  0  0  0  0  0  0  0  0  0  0
   58.8537   30.6665   47.8623 H   0  0  0  0  0  0  0  0  0  0  0  0
   58.1329   30.8836   44.2474 H   0  0  0  0  0  0  0  0  0  0  0  0
   57.3413   32.9723   43.1286 H   0  0  0  0  0  0  0  0  0  0  0  0
   57.3724   35.1306   44.3867 H   0  0  0  0  0  0  0  0  0  0  0  0
   58.7524   32.7430   50.1812 H   0  0  0  0  0  0  0  0  0  0  0  0
   57.4238   32.2548   49.0752 H   0  0  0  0  0  0  0  0  0  0  0  0
   58.9726   31.3449   49.0752 H   0  0  0  0  0  0  0  0  0  0  0  0
   59.8271   35.1817   47.9985 H   0  0  0  0  0  0  0  0  0  0  0  0
   60.0519   34.3876   49.5972 H   0  0  0  0  0  0  0  0  0  0  0  0
   61.1172   34.2302   45.9793 H   0  0  0  0  0  0  0  0  0  0  0  0
   63.4296   33.5341   45.3274 H   0  0  0  0  0  0  0  0  0  0  0  0
   64.9450   32.7230   47.0360 H   0  0  0  0  0  0  0  0  0  0  0  0
   64.3372   32.5355   49.3733 H   0  0  0  0  0  0  0  0  0  0  0  0
   62.0428   33.2163   50.0927 H   0  0  0  0  0  0  0  0  0  0  0  0
  1  2  1  0
  2  3  1  0
  2  4  1  0
  4  5  1  0
  5  6  2  0
  6  7  1  0
  7  8  2  0
  8  9  1  0
  9 10  2  0
 10 11  1  0
 11 12  1  0
 11 13  1  0
 13 14  1  0
 14 15  2  0
 15 16  1  0
 16 17  2  0
 17 18  1  0
 18 19  2  0
 10  5  1  0
 19 14  1  0
  1 20  1  0
  1 21  1  0
  1 22  1  0
  3 23  1  0
  3 24  1  0
  3 25  1  0
  4 26  1  0
  4 27  1  0
  6 28  1  0
  7 29  1  0
  8 30  1  0
 12 31  1  0
 12 32  1  0
 12 33  1  0
 13 34  1  0
 13 35  1  0
 15 36  1  0
 16 37  1  0
 17 38  1  0
 18 39  1  0
 19 40  1  0
M  CHG  1  17   1
M  END
>  <UniqueID>  (39) 
37

>  <SMILES>  (39) 
CN(C)Cc1cccnc1N(C)Cc1cc[nH+]cc1

>  <Energy>  (39) 
42.62630455281902

>  <Genealogy>  (39) 
CN(C)Cc1cccnc1N(C)Cc1cc[nH+]cc1 (protonated)
CN(C)Cc1cccnc1N(C)Cc1cc[nH+]cc1 (3D coordinates assigned)
CN(C)Cc1cccnc1N(C)Cc1cc[nH+]cc1 (optimized conformer: 42.62630455281902 kcal/mol)

>  <smiles>  (39) 
CN(C)Cc1cccnc1N(C)Cc1ccncc1

>  <score_type>  (39) 
oracle

>  <origin>  (39) 
adg

>  <m_score__min__energy>  (39) 
-4.8700000000000001

>  <m_primary>  (39) 
energy

$$$$
39:0
     RDKit          3D

 32 34  0  0  0  0  0  0  0  0999 V2000
   57.0200   34.5000   44.8980 C   0  0  0  0  0  0  0  0  0  0  0  0
   58.2910   33.8330   44.5700 N   0  0  0  0  0  0  0  0  0  0  0  0
   58.1650   32.8960   43.4370 C   0  0  0  0  0  0  0  0  0  0  0  0
   57.4160   31.6090   43.8100 C   0  0  0  0  0  0  0  0  0  0  0  0
   57.9670   31.0300   45.0410 N   0  0  0  0  0  0  0  0  0  0  0  0
   57.9890   29.6020   45.2440 C   0  0  0  0  0  0  0  0  0  0  0  0
   59.2090   28.8690   45.1900 C   0  0  0  0  0  0  0  0  0  0  0  0
   59.2060   27.4780   45.3910 C   0  0  0  0  0  0  0  0  0  0  0  0
   57.9820   26.8690   45.6340 C   0  0  0  0  0  0  0  0  0  0  0  0
   57.6430   25.5530   45.8610 C   0  0  0  0  0  0  0  0  0  0  0  0
   56.2590   25.5610   46.0320 C   0  0  0  0  0  0  0  0  0  0  0  0
   55.7650   26.8160   45.9150 N   0  0  0  0  0  0  0  0  0  0  0  0
   56.8300   27.5950   45.6730 C   0  0  0  0  0  0  0  0  0  0  0  0
   56.8140   28.9370   45.4830 N   0  0  0  0  0  0  0  0  0  0  0  0
   58.1870   31.9210   46.1860 C   0  0  0  0  0  0  0  0  0  0  0  0
   58.9190   33.1940   45.7440 C   0  0  0  0  0  0  0  0  0  0  0  0
   56.9081   34.5587   45.9907 H   0  0  0  0  0  0  0  0  0  0  0  0
   57.0185   35.5151   44.4742 H   0  0  0  0  0  0  0  0  0  0  0  0
   56.1838   33.9245   44.4742 H   0  0  0  0  0  0  0  0  0  0  0  0
   57.6185   33.3979   42.6249 H   0  0  0  0  0  0  0  0  0  0  0  0
   59.1816   32.6102   43.1289 H   0  0  0  0  0  0  0  0  0  0  0  0
   56.3520   31.8416   43.9644 H   0  0  0  0  0  0  0  0  0  0  0  0
   57.5314   30.8816   42.9929 H   0  0  0  0  0  0  0  0  0  0  0  0
   60.1556   29.3927   44.9906 H   0  0  0  0  0  0  0  0  0  0  0  0
   60.1376   26.8941   45.3571 H   0  0  0  0  0  0  0  0  0  0  0  0
   58.3174   24.6848   45.8991 H   0  0  0  0  0  0  0  0  0  0  0  0
   55.6504   24.6674   46.2348 H   0  0  0  0  0  0  0  0  0  0  0  0
   54.7680   27.1130   45.9960 H   0  0  0  0  0  0  0  0  0  0  0  0
   57.2155   32.1954   46.6229 H   0  0  0  0  0  0  0  0  0  0  0  0
   58.8037   31.3968   46.9309 H   0  0  0  0  0  0  0  0  0  0  0  0
   58.9151   33.9103   46.5788 H   0  0  0  0  0  0  0  0  0  0  0  0
   59.9421   32.9075   45.4592 H   0  0  0  0  0  0  0  0  0  0  0  0
  1  2  1  0
  2  3  1  0
  3  4  1  0
  4  5  1  0
  5  6  1  0
  6  7  2  0
  7  8  1  0
  8  9  2  0
  9 10  1  0
 10 11  2  0
 11 12  1  0
 12 13  1  0
 13 14  2  0
  5 15  1  0
 15 16  1  0
 16  2  1  0
 14  6  1  0
 13  9  1  0
  1 17  1  0
  1 18  1  0
  1 19  1  0
  3 20  1  0
  3 21  1  0
  4 22  1  0
  4 23  1  0
  7 24  1  0
  8 25  1  0
 10 26  1  0
 11 27  1  0
 12 28  1  0
 15 29  1  0
 15 30  1  0
 16 31  1  0
 16 32  1  0
M  END
>  <UniqueID>  (40) 
38

>  <SMILES>  (40) 
CN1CCN(c2ccc3cc[nH]c3n2)CC1

>  <Energy>  (40) 
73.18268431840374

>  <Genealogy>  (40) 
CN1CCN(c2ccc3cc[nH]c3n2)CC1 (3D coordinates assigned)
CN1CCN(c2ccc3cc[nH]c3n2)CC1 (nonaromatic ring conformer: 73.18268431840374 kcal/mol)

>  <smiles>  (40) 
CN1CCN(c2ccc3cc[nH]c3n2)CC1

>  <score_type>  (40) 
oracle

>  <origin>  (40) 
adg

>  <m_score__min__energy>  (40) 
-6.2999999999999998

>  <m_primary>  (40) 
energy

$$$$
40:0
     RDKit          3D

 47 50  0  0  0  0  0  0  0  0999 V2000
   54.9380   30.4570   52.7700 C   0  0  0  0  0  0  0  0  0  0  0  0
   56.0550   31.2140   53.2210 O   0  0  0  0  0  0  0  0  0  0  0  0
   57.1840   31.5020   52.4390 C   0  0  0  0  0  0  0  0  0  0  0  0
   57.7430   30.4700   51.6760 C   0  0  0  0  0  0  0  0  0  0  0  0
   58.8790   30.6980   50.8930 C   0  0  0  0  0  0  0  0  0  0  0  0
   59.4730   31.9720   50.8530 C   0  0  0  0  0  0  0  0  0  0  0  0
   60.7000   32.2240   50.0570 C   0  0  0  0  0  0  0  0  0  0  0  0
   60.5610   32.5480   48.8010 N   0  0  0  0  0  0  0  0  0  0  0  0
   61.6620   32.8290   47.9780 N   0  0  0  0  0  0  0  0  0  0  0  0
   61.7120   33.5940   46.8740 C   0  0  0  0  0  0  0  0  0  0  0  0
   60.5300   34.2460   46.2170 C   0  0  0  0  0  0  0  0  0  0  0  0
   59.6120   33.2180   45.6090 C   0  0  0  0  0  0  0  0  0  0  0  0
   59.6100   31.9000   46.0950 C   0  0  0  0  0  0  0  0  0  0  0  0
   58.7190   30.9570   45.5710 C   0  0  0  0  0  0  0  0  0  0  0  0
   57.8170   31.3220   44.5640 C   0  0  0  0  0  0  0  0  0  0  0  0
   56.6790   30.1490   43.9090 S   0  0  0  0  0  0  0  0  0  0  0  0
   57.4480   28.5460   43.8610 C   0  0  0  0  0  0  0  0  0  0  0  0
   55.4500   30.0830   44.7720 O   0  0  0  0  0  0  0  0  0  0  0  0
   56.2750   30.5600   42.5220 O   0  0  0  0  0  0  0  0  0  0  0  0
   57.8260   32.6330   44.0680 C   0  0  0  0  0  0  0  0  0  0  0  0
   58.7180   33.5760   44.5880 C   0  0  0  0  0  0  0  0  0  0  0  0
   62.9960   33.8200   46.5120 N   0  0  0  0  0  0  0  0  0  0  0  0
   63.7530   33.1750   47.3940 N   0  0  0  0  0  0  0  0  0  0  0  0
   62.9340   32.5760   48.2730 C   0  0  0  0  0  0  0  0  0  0  0  0
   63.4060   31.5930   49.6810 S   0  0  0  0  0  0  0  0  0  0  0  0
   62.0680   32.2860   50.7250 C   0  0  0  0  0  0  0  0  0  0  0  0
   58.9050   33.0100   51.6130 C   0  0  0  0  0  0  0  0  0  0  0  0
   57.7710   32.7790   52.3980 C   0  0  0  0  0  0  0  0  0  0  0  0
   54.3780   30.0775   53.6374 H   0  0  0  0  0  0  0  0  0  0  0  0
   54.2823   31.0976   52.1620 H   0  0  0  0  0  0  0  0  0  0  0  0
   55.2901   29.6106   52.1620 H   0  0  0  0  0  0  0  0  0  0  0  0
   57.2843   29.4703   51.6925 H   0  0  0  0  0  0  0  0  0  0  0  0
   59.3109   29.8752   50.3044 H   0  0  0  0  0  0  0  0  0  0  0  0
   59.9739   34.8237   46.9700 H   0  0  0  0  0  0  0  0  0  0  0  0
   60.8953   34.9055   45.4160 H   0  0  0  0  0  0  0  0  0  0  0  0
   60.3115   31.6082   46.8905 H   0  0  0  0  0  0  0  0  0  0  0  0
   58.7271   29.9250   45.9515 H   0  0  0  0  0  0  0  0  0  0  0  0
   57.6186   28.1903   44.8878 H   0  0  0  0  0  0  0  0  0  0  0  0
   56.7907   27.8397   43.3327 H   0  0  0  0  0  0  0  0  0  0  0  0
   58.4103   28.6166   43.3327 H   0  0  0  0  0  0  0  0  0  0  0  0
   57.1291   32.9209   43.2671 H   0  0  0  0  0  0  0  0  0  0  0  0
   58.7190   34.6034   44.1950 H   0  0  0  0  0  0  0  0  0  0  0  0
   64.7950   33.1550   47.3890 H   0  0  0  0  0  0  0  0  0  0  0  0
   62.0255   31.7158   51.6647 H   0  0  0  0  0  0  0  0  0  0  0  0
   62.3018   33.3467   50.8989 H   0  0  0  0  0  0  0  0  0  0  0  0
   59.3568   34.0127   51.5898 H   0  0  0  0  0  0  0  0  0  0  0  0
   57.3361   33.6004   52.9863 H   0  0  0  0  0  0  0  0  0  0  0  0
  1  2  1  0
  2  3  1  0
  3  4  2  0
  4  5  1  0
  5  6  2  0
  6  7  1  0
  7  8  2  0
  8  9  1  0
  9 10  1  0
 10 11  1  0
 11 12  1  0
 12 13  2  0
 13 14  1  0
 14 15  2  0
 15 16  1  0
 16 17  1  0
 16 18  2  0
 16 19  2  0
 15 20  1  0
 20 21  2  0
 10 22  2  0
 22 23  1  0
 23 24  2  0
 24 25  1  0
 25 26  1  0
  6 27  1  0
 27 28  2  0
 28  3  1  0
 26  7  1  0
 24  9  1  0
 21 12  1  0
  1 29  1  0
  1 30  1  0
  1 31  1  0
  4 32  1  0
  5 33  1  0
 11 34  1  0
 11 35  1  0
 13 36  1  0
 14 37  1  0
 17 38  1  0
 17 39  1  0
 17 40  1  0
 20 41  1  0
 21 42  1  0
 23 43  1  0
 26 44  1  0
 26 45  1  0
 27 46  1  0
 28 47  1  0
M  CHG  1  23   1
M  END
>  <UniqueID>  (41) 
39

>  <SMILES>  (41) 
COc1ccc(C2=Nn3c(Cc4ccc(S(C)(=O)=O)cc4)n[nH+]c3SC2)cc1

>  <Energy>  (41) 
91.95800795370536

>  <Genealogy>  (41) 
COc1ccc(C2=Nn3c(Cc4ccc(S(C)(=O)=O)cc4)n[nH+]c3SC2)cc1 (protonated)
COc1ccc(C2=Nn3c(Cc4ccc(S(C)(=O)=O)cc4)n[nH+]c3SC2)cc1 (3D coordinates assigned)
COc1ccc(C2=Nn3c(Cc4ccc(S(C)(=O)=O)cc4)n[nH+]c3SC2)cc1 (nonaromatic ring conformer: 91.95800795370536 kcal/mol)

>  <smiles>  (41) 
COc1ccc(C2=Nn3c(Cc4ccc(S(C)(=O)=O)cc4)nnc3SC2)cc1

>  <score_type>  (41) 
oracle

>  <origin>  (41) 
adg

>  <m_score__min__energy>  (41) 
-8.4700000000000006

>  <m_primary>  (41) 
energy

$$$$
41:0
     RDKit          3D

 30 32  0  0  0  0  0  0  0  0999 V2000
   62.5240   31.1200   49.5900 F   0  0  0  0  0  0  0  0  0  0  0  0
   61.5110   30.5320   48.9060 C   0  0  0  0  0  0  0  0  0  0  0  0
   60.5600   29.7680   49.5880 C   0  0  0  0  0  0  0  0  0  0  0  0
   59.5140   29.1620   48.8850 C   0  0  0  0  0  0  0  0  0  0  0  0
   59.4220   29.3030   47.4900 C   0  0  0  0  0  0  0  0  0  0  0  0
   58.3070   28.6940   46.7370 C   0  0  0  0  0  0  0  0  0  0  0  0
   57.8480   27.4550   46.9940 N   0  0  0  0  0  0  0  0  0  0  0  0
   56.8990   27.2570   46.0560 C   0  0  0  0  0  0  0  0  0  0  0  0
   56.0820   26.0110   45.9770 C   0  0  0  0  0  0  0  0  0  0  0  0
   54.7370   26.3340   45.9600 F   0  0  0  0  0  0  0  0  0  0  0  0
   56.3490   25.2150   47.0740 F   0  0  0  0  0  0  0  0  0  0  0  0
   56.7160   28.3090   45.2320 N   0  0  0  0  0  0  0  0  0  0  0  0
   57.6090   29.2220   45.6600 C   0  0  0  0  0  0  0  0  0  0  0  0
   57.6900   30.5880   45.1050 C   0  0  0  0  0  0  0  0  0  0  0  0
   57.7200   30.7920   43.7160 C   0  0  0  0  0  0  0  0  0  0  0  0
   57.7700   32.0940   43.2130 C   0  0  0  0  0  0  0  0  0  0  0  0
   57.7810   33.1790   44.0910 C   0  0  0  0  0  0  0  0  0  0  0  0
   57.7370   32.9430   45.4660 C   0  0  0  0  0  0  0  0  0  0  0  0
   57.6870   31.6680   45.9360 N   0  0  0  0  0  0  0  0  0  0  0  0
   60.3680   30.0940   46.8170 C   0  0  0  0  0  0  0  0  0  0  0  0
   61.4130   30.6980   47.5220 C   0  0  0  0  0  0  0  0  0  0  0  0
   60.6343   29.6433   50.6784 H   0  0  0  0  0  0  0  0  0  0  0  0
   58.7598   28.5722   49.4266 H   0  0  0  0  0  0  0  0  0  0  0  0
   56.3375   25.4674   45.0554 H   0  0  0  0  0  0  0  0  0  0  0  0
   57.7042   29.9329   43.0293 H   0  0  0  0  0  0  0  0  0  0  0  0
   57.8007   32.2641   42.1267 H   0  0  0  0  0  0  0  0  0  0  0  0
   57.8238   34.2078   43.7040 H   0  0  0  0  0  0  0  0  0  0  0  0
   57.7428   33.7886   46.1695 H   0  0  0  0  0  0  0  0  0  0  0  0
   60.2860   30.2388   45.7297 H   0  0  0  0  0  0  0  0  0  0  0  0
   62.1587   31.3044   46.9870 H   0  0  0  0  0  0  0  0  0  0  0  0
  1  2  1  0
  2  3  2  0
  3  4  1  0
  4  5  2  0
  5  6  1  0
  6  7  1  0
  7  8  2  0
  8  9  1  0
  9 10  1  0
  9 11  1  0
  8 12  1  0
 12 13  1  0
 13 14  1  0
 14 15  2  0
 15 16  1  0
 16 17  2  0
 17 18  1  0
 18 19  2  0
  5 20  1  0
 20 21  2  0
 21  2  1  0
 13  6  2  0
 19 14  1  0
  3 22  1  0
  4 23  1  0
  9 24  1  0
 15 25  1  0
 16 26  1  0
 17 27  1  0
 18 28  1  0
 20 29  1  0
 21 30  1  0
M  CHG  1  12  -1
M  END
>  <UniqueID>  (42) 
40

>  <SMILES>  (42) 
Fc1ccc(-c2nc(C(F)F)[n-]c2-c2ccccn2)cc1

>  <Energy>  (42) 
66.22693577507916

>  <Genealogy>  (42) 
Fc1ccc(-c2nc(C(F)F)[n-]c2-c2ccccn2)cc1 (protonated)
Fc1ccc(-c2nc(C(F)F)[n-]c2-c2ccccn2)cc1 (3D coordinates assigned)
Fc1ccc(-c2nc(C(F)F)[n-]c2-c2ccccn2)cc1 (optimized conformer: 66.22693577507916 kcal/mol)

>  <smiles>  (42) 
Fc1ccc(-c2nc(C(F)F)[nH]c2-c2ccccn2)cc1

>  <score_type>  (42) 
oracle

>  <origin>  (42) 
adg

>  <m_score__min__energy>  (42) 
-7.25

>  <m_primary>  (42) 
energy

$$$$
42:0
     RDKit          3D

 43 45  0  0  0  0  0  0  0  0999 V2000
   57.6500   32.3540   41.2850 C   0  0  0  0  0  0  0  0  0  0  0  0
   58.0550   32.0700   42.5240 C   0  0  0  0  0  0  0  0  0  0  0  0
   58.2530   33.1590   43.5410 C   0  0  0  0  0  0  0  0  0  0  0  0
   58.2960   32.6020   44.9050 N   0  0  0  0  0  0  0  0  0  0  0  0
   57.5460   31.5570   45.3950 C   0  0  0  0  0  0  0  0  0  0  0  0
   56.4880   31.0170   44.8520 N   0  0  0  0  0  0  0  0  0  0  0  0
   56.3040   29.7070   44.3090 C   0  0  0  0  0  0  0  0  0  0  0  0
   55.3440   28.9870   44.6940 O   0  0  0  0  0  0  0  0  0  0  0  0
   57.3290   29.1370   43.3850 C   0  0  0  0  0  0  0  0  0  0  0  0
   57.7710   27.4540   43.9260 S   0  0  0  0  0  0  0  0  0  0  0  0
   58.8900   28.0290   45.2000 C   0  0  0  0  0  0  0  0  0  0  0  0
   58.7240   27.6110   46.5250 C   0  0  0  0  0  0  0  0  0  0  0  0
   59.6080   28.0750   47.5020 C   0  0  0  0  0  0  0  0  0  0  0  0
   60.6390   28.9480   47.1480 C   0  0  0  0  0  0  0  0  0  0  0  0
   60.7700   29.3450   45.8140 C   0  0  0  0  0  0  0  0  0  0  0  0
   59.9000   28.8820   44.8770 N   0  0  0  0  0  0  0  0  0  0  0  0
   58.1350   30.9930   46.8730 S   0  0  0  0  0  0  0  0  0  0  0  0
   59.3360   32.1540   46.9400 C   0  0  0  0  0  0  0  0  0  0  0  0
   60.2830   32.3450   47.9410 C   0  0  0  0  0  0  0  0  0  0  0  0
   61.2250   33.3870   47.7990 C   0  0  0  0  0  0  0  0  0  0  0  0
   62.2470   33.6060   48.8610 C   0  0  0  0  0  0  0  0  0  0  0  0
   62.4620   34.7760   49.2840 O   0  0  0  0  0  0  0  0  0  0  0  0
   63.0650   32.4860   49.4360 C   0  0  0  0  0  0  0  0  0  0  0  0
   64.7950   32.9050   49.3860 Cl  0  0  0  0  0  0  0  0  0  0  0  0
   61.1690   34.2060   46.6440 C   0  0  0  0  0  0  0  0  0  0  0  0
   60.2040   33.9890   45.6480 C   0  0  0  0  0  0  0  0  0  0  0  0
   59.2780   32.9450   45.8010 C   0  0  0  0  0  0  0  0  0  0  0  0
   57.5101   31.5449   40.5531 H   0  0  0  0  0  0  0  0  0  0  0  0
   57.4560   33.3973   40.9953 H   0  0  0  0  0  0  0  0  0  0  0  0
   58.2468   31.0240   42.8053 H   0  0  0  0  0  0  0  0  0  0  0  0
   59.2005   33.6778   43.3336 H   0  0  0  0  0  0  0  0  0  0  0  0
   57.4086   33.8608   43.4740 H   0  0  0  0  0  0  0  0  0  0  0  0
   56.9206   29.0980   42.3644 H   0  0  0  0  0  0  0  0  0  0  0  0
   58.2267   29.7726   43.3983 H   0  0  0  0  0  0  0  0  0  0  0  0
   57.9071   26.9252   46.7941 H   0  0  0  0  0  0  0  0  0  0  0  0
   59.4923   27.7536   48.5476 H   0  0  0  0  0  0  0  0  0  0  0  0
   61.3400   29.3190   47.9102 H   0  0  0  0  0  0  0  0  0  0  0  0
   61.5775   30.0325   45.5220 H   0  0  0  0  0  0  0  0  0  0  0  0
   60.2976   31.6950   48.8283 H   0  0  0  0  0  0  0  0  0  0  0  0
   62.7625   32.3127   50.4793 H   0  0  0  0  0  0  0  0  0  0  0  0
   62.8974   31.5755   48.8420 H   0  0  0  0  0  0  0  0  0  0  0  0
   61.8936   35.0252   46.5260 H   0  0  0  0  0  0  0  0  0  0  0  0
   60.1736   34.6313   44.7555 H   0  0  0  0  0  0  0  0  0  0  0  0
  1  2  2  0
  2  3  1  0
  3  4  1  0
  4  5  1  0
  5  6  2  3
  6  7  1  0
  7  8  2  0
  7  9  1  0
  9 10  1  0
 10 11  1  0
 11 12  2  0
 12 13  1  0
 13 14  2  0
 14 15  1  0
 15 16  2  0
  5 17  1  0
 17 18  1  0
 18 19  2  0
 19 20  1  0
 20 21  1  0
 21 22  2  0
 21 23  1  0
 23 24  1  0
 20 25  2  0
 25 26  1  0
 26 27  2  0
 27  4  1  0
 16 11  1  0
 27 18  1  0
  1 28  1  0
  1 29  1  0
  2 30  1  0
  3 31  1  0
  3 32  1  0
  9 33  1  0
  9 34  1  0
 12 35  1  0
 13 36  1  0
 14 37  1  0
 15 38  1  0
 19 39  1  0
 23 40  1  0
 23 41  1  0
 25 42  1  0
 26 43  1  0
M  END
>  <UniqueID>  (43) 
41

>  <SMILES>  (43) 
C=CCn1c(=NC(=O)CSc2ccccn2)sc2cc(C(=O)CCl)ccc21

>  <Energy>  (43) 
89.57126289841295

>  <Genealogy>  (43) 
C=CCn1c(=NC(=O)CSc2ccccn2)sc2cc(C(=O)CCl)ccc21 (3D coordinates assigned)
C=CCn1c(=NC(=O)CSc2ccccn2)sc2cc(C(=O)CCl)ccc21 (optimized conformer: 89.57126289841295 kcal/mol)

>  <smiles>  (43) 
C=CCn1c(=NC(=O)CSc2ccccn2)sc2cc(C(=O)CCl)ccc21

>  <score_type>  (43) 
oracle

>  <origin>  (43) 
adg

>  <m_score__min__energy>  (43) 
-8.9800000000000004

>  <m_primary>  (43) 
energy

$$$$
43:0
     RDKit          3D

 41 42  0  0  0  0  0  0  0  0999 V2000
   57.3460   31.9330   41.8140 C   0  0  0  0  0  0  0  0  0  0  0  0
   58.1400   32.7260   42.8480 C   0  0  0  0  0  0  0  0  0  0  0  0
   57.6980   32.3880   44.2110 N   0  0  0  0  0  0  0  0  0  0  0  0
   57.1700   33.4720   45.0570 C   0  0  0  0  0  0  0  0  0  0  0  0
   57.4440   33.2030   46.5410 C   0  0  0  0  0  0  0  0  0  0  0  0
   58.9100   33.1960   46.8560 C   0  0  0  0  0  0  0  0  0  0  0  0
   59.5090   32.5050   47.9030 C   0  0  0  0  0  0  0  0  0  0  0  0
   60.9020   32.6420   47.9270 C   0  0  0  0  0  0  0  0  0  0  0  0
   61.3940   33.4310   46.8950 C   0  0  0  0  0  0  0  0  0  0  0  0
   62.8180   33.8350   46.7130 C   0  0  0  0  0  0  0  0  0  0  0  0
   60.1060   33.9710   45.9580 S   0  0  0  0  0  0  0  0  0  0  0  0
   57.7190   31.0260   44.7100 C   0  0  0  0  0  0  0  0  0  0  0  0
   56.6560   30.5140   45.1530 O   0  0  0  0  0  0  0  0  0  0  0  0
   58.9740   30.1890   44.7550 C   0  0  0  0  0  0  0  0  0  0  0  0
   58.8180   29.0240   45.7050 C   0  0  0  0  0  0  0  0  0  0  0  0
   59.0350   29.2250   47.0800 C   0  0  0  0  0  0  0  0  0  0  0  0
   58.9230   28.1620   47.9800 C   0  0  0  0  0  0  0  0  0  0  0  0
   58.5900   26.8890   47.5210 C   0  0  0  0  0  0  0  0  0  0  0  0
   58.3580   26.6750   46.1620 C   0  0  0  0  0  0  0  0  0  0  0  0
   58.4660   27.7310   45.2490 C   0  0  0  0  0  0  0  0  0  0  0  0
   58.1460   27.3390   43.3980 Br  0  0  0  0  0  0  0  0  0  0  0  0
   56.6580   31.2458   42.3282 H   0  0  0  0  0  0  0  0  0  0  0  0
   56.7691   32.6262   41.1842 H   0  0  0  0  0  0  0  0  0  0  0  0
   58.0385   31.3553   41.1842 H   0  0  0  0  0  0  0  0  0  0  0  0
   59.2086   32.4865   42.7446 H   0  0  0  0  0  0  0  0  0  0  0  0
   57.9725   33.7996   42.6768 H   0  0  0  0  0  0  0  0  0  0  0  0
   57.6516   34.4182   44.7693 H   0  0  0  0  0  0  0  0  0  0  0  0
   56.0815   33.5292   44.9094 H   0  0  0  0  0  0  0  0  0  0  0  0
   56.9573   33.9878   47.1387 H   0  0  0  0  0  0  0  0  0  0  0  0
   57.0427   32.2077   46.7827 H   0  0  0  0  0  0  0  0  0  0  0  0
   58.9458   31.9110   48.6378 H   0  0  0  0  0  0  0  0  0  0  0  0
   61.5430   32.1718   48.6872 H   0  0  0  0  0  0  0  0  0  0  0  0
   63.2899   33.9689   47.6976 H   0  0  0  0  0  0  0  0  0  0  0  0
   63.3524   33.0530   46.1536 H   0  0  0  0  0  0  0  0  0  0  0  0
   62.8621   34.7811   46.1536 H   0  0  0  0  0  0  0  0  0  0  0  0
   59.1854   29.8042   43.7464 H   0  0  0  0  0  0  0  0  0  0  0  0
   59.8021   30.8202   45.1097 H   0  0  0  0  0  0  0  0  0  0  0  0
   59.2951   30.2277   47.4501 H   0  0  0  0  0  0  0  0  0  0  0  0
   59.0980   28.3303   49.0529 H   0  0  0  0  0  0  0  0  0  0  0  0
   58.5100   26.0523   48.2307 H   0  0  0  0  0  0  0  0  0  0  0  0
   58.0884   25.6699   45.8054 H   0  0  0  0  0  0  0  0  0  0  0  0
  1  2  1  0
  2  3  1  0
  3  4  1  0
  4  5  1  0
  5  6  1  0
  6  7  2  0
  7  8  1  0
  8  9  2  0
  9 10  1  0
  9 11  1  0
  3 12  1  0
 12 13  2  0
 12 14  1  0
 14 15  1  0
 15 16  2  0
 16 17  1  0
 17 18  2  0
 18 19  1  0
 19 20  2  0
 20 21  1  0
 11  6  1  0
 20 15  1  0
  1 22  1  0
  1 23  1  0
  1 24  1  0
  2 25  1  0
  2 26  1  0
  4 27  1  0
  4 28  1  0
  5 29  1  0
  5 30  1  0
  7 31  1  0
  8 32  1  0
 10 33  1  0
 10 34  1  0
 10 35  1  0
 14 36  1  0
 14 37  1  0
 16 38  1  0
 17 39  1  0
 18 40  1  0
 19 41  1  0
M  END
>  <UniqueID>  (44) 
42

>  <SMILES>  (44) 
CCN(CCc1ccc(C)s1)C(=O)Cc1ccccc1Br

>  <Energy>  (44) 
55.4198107994791

>  <Genealogy>  (44) 
CCN(CCc1ccc(C)s1)C(=O)Cc1ccccc1Br (3D coordinates assigned)
CCN(CCc1ccc(C)s1)C(=O)Cc1ccccc1Br (optimized conformer: 55.4198107994791 kcal/mol)

>  <smiles>  (44) 
CCN(CCc1ccc(C)s1)C(=O)Cc1ccccc1Br

>  <score_type>  (44) 
oracle

>  <origin>  (44) 
adg

>  <m_score__min__energy>  (44) 
-7.9000000000000004

>  <m_primary>  (44) 
energy

$$$$
44:0
     RDKit          3D

 34 36  0  0  0  0  0  0  0  0999 V2000
   57.1480   29.6500   44.8690 C   0  0  0  0  0  0  0  0  0  0  0  0
   57.7290   28.7880   45.9840 C   0  0  0  0  0  0  0  0  0  0  0  0
   58.8010   29.5310   46.7170 C   0  0  0  0  0  0  0  0  0  0  0  0
   58.8990   29.6590   48.0980 C   0  0  0  0  0  0  0  0  0  0  0  0
   59.9570   30.4810   48.5000 C   0  0  0  0  0  0  0  0  0  0  0  0
   60.6700   31.0210   47.4360 C   0  0  0  0  0  0  0  0  0  0  0  0
   61.8260   31.9290   47.5160 C   0  0  0  0  0  0  0  0  0  0  0  0
   63.0660   31.5860   47.1150 N   0  0  0  0  0  0  0  0  0  0  0  0
   63.7840   32.6860   47.2830 N   0  0  0  0  0  0  0  0  0  0  0  0
   63.0370   33.6770   47.7410 N   0  0  0  0  0  0  0  0  0  0  0  0
   61.8040   33.2260   47.8990 N   0  0  0  0  0  0  0  0  0  0  0  0
   60.6660   34.0750   48.2590 C   0  0  0  0  0  0  0  0  0  0  0  0
   59.6190   34.0560   47.1740 C   0  0  0  0  0  0  0  0  0  0  0  0
   58.3600   33.4750   47.4060 C   0  0  0  0  0  0  0  0  0  0  0  0
   57.4030   33.4390   46.3880 C   0  0  0  0  0  0  0  0  0  0  0  0
   57.6870   33.9940   45.1380 C   0  0  0  0  0  0  0  0  0  0  0  0
   58.9290   34.5920   44.9060 C   0  0  0  0  0  0  0  0  0  0  0  0
   59.8910   34.6260   45.9190 C   0  0  0  0  0  0  0  0  0  0  0  0
   60.0080   30.4530   45.9980 S   0  0  0  0  0  0  0  0  0  0  0  0
   56.5843   30.4864   45.3080 H   0  0  0  0  0  0  0  0  0  0  0  0
   57.9650   30.0448   44.2472 H   0  0  0  0  0  0  0  0  0  0  0  0
   56.4755   29.0408   44.2472 H   0  0  0  0  0  0  0  0  0  0  0  0
   56.9281   28.5197   46.6887 H   0  0  0  0  0  0  0  0  0  0  0  0
   58.1648   27.8802   45.5412 H   0  0  0  0  0  0  0  0  0  0  0  0
   58.2143   29.1643   48.8026 H   0  0  0  0  0  0  0  0  0  0  0  0
   60.2007   30.6804   49.5540 H   0  0  0  0  0  0  0  0  0  0  0  0
   64.8010   32.7660   47.0640 H   0  0  0  0  0  0  0  0  0  0  0  0
   60.2221   33.7051   49.1950 H   0  0  0  0  0  0  0  0  0  0  0  0
   61.0230   35.1076   48.3862 H   0  0  0  0  0  0  0  0  0  0  0  0
   58.1273   33.0472   48.3923 H   0  0  0  0  0  0  0  0  0  0  0  0
   56.4239   32.9725   46.5716 H   0  0  0  0  0  0  0  0  0  0  0  0
   56.9339   33.9605   44.3369 H   0  0  0  0  0  0  0  0  0  0  0  0
   59.1495   35.0366   43.9243 H   0  0  0  0  0  0  0  0  0  0  0  0
   60.8655   35.1011   45.7330 H   0  0  0  0  0  0  0  0  0  0  0  0
  1  2  1  0
  2  3  1  0
  3  4  2  0
  4  5  1  0
  5  6  2  0
  6  7  1  0
  7  8  2  0
  8  9  1  0
  9 10  2  0
 10 11  1  0
 11 12  1  0
 12 13  1  0
 13 14  2  0
 14 15  1  0
 15 16  2  0
 16 17  1  0
 17 18  2  0
  6 19  1  0
 19  3  1  0
 11  7  1  0
 18 13  1  0
  1 20  1  0
  1 21  1  0
  1 22  1  0
  2 23  1  0
  2 24  1  0
  4 25  1  0
  5 26  1  0
  9 27  1  0
 12 28  1  0
 12 29  1  0
 14 30  1  0
 15 31  1  0
 16 32  1  0
 17 33  1  0
 18 34  1  0
M  CHG  1   9   1
M  END
>  <UniqueID>  (45) 
43

>  <SMILES>  (45) 
CCc1ccc(-c2n[nH+]nn2Cc2ccccc2)s1

>  <Energy>  (45) 
99.56853244442594

>  <Genealogy>  (45) 
CCc1ccc(-c2n[nH+]nn2Cc2ccccc2)s1 (protonated)
CCc1ccc(-c2n[nH+]nn2Cc2ccccc2)s1 (3D coordinates assigned)
CCc1ccc(-c2n[nH+]nn2Cc2ccccc2)s1 (optimized conformer: 99.56853244442594 kcal/mol)

>  <smiles>  (45) 
CCc1ccc(-c2nnnn2Cc2ccccc2)s1

>  <score_type>  (45) 
oracle

>  <origin>  (45) 
adg

>  <m_score__min__energy>  (45) 
-6.25

>  <m_primary>  (45) 
energy

$$$$
45:0
     RDKit          3D

 40 43  0  0  0  0  0  0  0  0999 V2000
   59.0560   34.9910   46.4860 O   0  0  0  0  0  0  0  0  0  0  0  0
   59.6290   33.8800   46.6550 C   0  0  0  0  0  0  0  0  0  0  0  0
   61.0000   33.8610   47.2150 C   0  0  0  0  0  0  0  0  0  0  0  0
   62.0940   33.8380   46.3340 C   0  0  0  0  0  0  0  0  0  0  0  0
   63.3990   33.8020   46.8270 C   0  0  0  0  0  0  0  0  0  0  0  0
   63.6290   33.7830   48.2020 C   0  0  0  0  0  0  0  0  0  0  0  0
   62.5520   33.8030   49.0960 C   0  0  0  0  0  0  0  0  0  0  0  0
   62.8930   33.7870   50.8220 Cl  0  0  0  0  0  0  0  0  0  0  0  0
   61.2320   33.8410   48.6100 C   0  0  0  0  0  0  0  0  0  0  0  0
   59.8870   33.9170   49.7510 Cl  0  0  0  0  0  0  0  0  0  0  0  0
   58.9270   32.6610   46.3360 N   0  0  0  0  0  0  0  0  0  0  0  0
   58.5250   31.7270   47.4130 C   0  0  0  0  0  0  0  0  0  0  0  0
   58.7330   30.2620   46.9960 C   0  0  0  0  0  0  0  0  0  0  0  0
   58.1540   30.0520   45.6340 C   0  0  0  0  0  0  0  0  0  0  0  0
   58.0870   31.0440   44.6980 C   0  0  0  0  0  0  0  0  0  0  0  0
   57.8090   30.4750   43.5120 N   0  0  0  0  0  0  0  0  0  0  0  0
   57.7310   29.1660   43.7070 N   0  0  0  0  0  0  0  0  0  0  0  0
   57.9350   28.8870   44.9880 N   0  0  0  0  0  0  0  0  0  0  0  0
   58.0100   27.5570   45.5170 C   0  0  0  0  0  0  0  0  0  0  0  0
   59.2600   26.9370   45.6680 C   0  0  0  0  0  0  0  0  0  0  0  0
   59.3460   25.6390   46.1780 C   0  0  0  0  0  0  0  0  0  0  0  0
   58.1830   24.9460   46.5280 C   0  0  0  0  0  0  0  0  0  0  0  0
   56.9320   25.5470   46.3580 C   0  0  0  0  0  0  0  0  0  0  0  0
   55.8060   24.8630   46.6780 F   0  0  0  0  0  0  0  0  0  0  0  0
   56.8420   26.8480   45.8500 C   0  0  0  0  0  0  0  0  0  0  0  0
   55.6200   27.3970   45.6340 F   0  0  0  0  0  0  0  0  0  0  0  0
   58.4360   32.4750   44.9540 C   0  0  0  0  0  0  0  0  0  0  0  0
   61.9207   33.8484   45.2478 H   0  0  0  0  0  0  0  0  0  0  0  0
   64.2488   33.7886   46.1287 H   0  0  0  0  0  0  0  0  0  0  0  0
   64.6596   33.7522   48.5854 H   0  0  0  0  0  0  0  0  0  0  0  0
   59.1296   31.9329   48.3086 H   0  0  0  0  0  0  0  0  0  0  0  0
   57.4551   31.8783   47.6191 H   0  0  0  0  0  0  0  0  0  0  0  0
   59.8089   30.0339   46.9776 H   0  0  0  0  0  0  0  0  0  0  0  0
   58.2332   29.5980   47.7166 H   0  0  0  0  0  0  0  0  0  0  0  0
   57.7210   30.9500   42.5870 H   0  0  0  0  0  0  0  0  0  0  0  0
   60.1761   27.4753   45.3836 H   0  0  0  0  0  0  0  0  0  0  0  0
   60.3291   25.1620   46.3042 H   0  0  0  0  0  0  0  0  0  0  0  0
   58.2523   23.9274   46.9373 H   0  0  0  0  0  0  0  0  0  0  0  0
   59.2207   32.7858   44.2485 H   0  0  0  0  0  0  0  0  0  0  0  0
   57.5317   33.0863   44.8179 H   0  0  0  0  0  0  0  0  0  0  0  0
  1  2  2  0
  2  3  1  0
  3  4  2  0
  4  5  1  0
  5  6  2  0
  6  7  1  0
  7  8  1  0
  7  9  2  0
  9 10  1  0
  2 11  1  0
 11 12  1  0
 12 13  1  0
 13 14  1  0
 14 15  2  0
 15 16  1  0
 16 17  2  0
 17 18  1  0
 18 19  1  0
 19 20  2  0
 20 21  1  0
 21 22  2  0
 22 23  1  0
 23 24  1  0
 23 25  2  0
 25 26  1  0
 15 27  1  0
  9  3  1  0
 27 11  1  0
 18 14  1  0
 25 19  1  0
  4 28  1  0
  5 29  1  0
  6 30  1  0
 12 31  1  0
 12 32  1  0
 13 33  1  0
 13 34  1  0
 16 35  1  0
 20 36  1  0
 21 37  1  0
 22 38  1  0
 27 39  1  0
 27 40  1  0
M  CHG  1  16   1
M  END
>  <UniqueID>  (46) 
44

>  <SMILES>  (46) 
O=C(c1cccc(Cl)c1Cl)N1CCc2c([nH+]nn2-c2cccc(F)c2F)C1

>  <Energy>  (46) 
98.83910450874515

>  <Genealogy>  (46) 
O=C(c1cccc(Cl)c1Cl)N1CCc2c([nH+]nn2-c2cccc(F)c2F)C1 (protonated)
O=C(c1cccc(Cl)c1Cl)N1CCc2c([nH+]nn2-c2cccc(F)c2F)C1 (3D coordinates assigned)
O=C(c1cccc(Cl)c1Cl)N1CCc2c([nH+]nn2-c2cccc(F)c2F)C1 (nonaromatic ring conformer: 98.83910450874515 kcal/mol)

>  <smiles>  (46) 
O=C(c1cccc(Cl)c1Cl)N1CCc2c(nnn2-c2cccc(F)c2F)C1

>  <score_type>  (46) 
oracle

>  <origin>  (46) 
adg

>  <m_score__min__energy>  (46) 
-7.2800000000000002

>  <m_primary>  (46) 
energy

$$$$
46:0
     RDKit          3D

 52 55  0  0  0  0  0  0  0  0999 V2000
   57.7680   32.0470   42.0590 C   0  0  0  0  0  0  0  0  0  0  0  0
   57.1020   31.1190   43.0710 C   0  0  0  0  0  0  0  0  0  0  0  0
   57.8090   31.1660   44.3670 N   0  0  0  0  0  0  0  0  0  0  0  0
   58.2350   32.3950   44.7970 C   0  0  0  0  0  0  0  0  0  0  0  0
   58.9230   32.5500   46.0020 C   0  0  0  0  0  0  0  0  0  0  0  0
   59.4840   34.1510   46.4970 S   0  0  0  0  0  0  0  0  0  0  0  0
   59.5580   35.0750   45.3140 O   0  0  0  0  0  0  0  0  0  0  0  0
   58.5160   34.7370   47.4870 O   0  0  0  0  0  0  0  0  0  0  0  0
   61.0840   34.0000   47.2120 C   0  0  0  0  0  0  0  0  0  0  0  0
   62.1780   33.6570   46.4040 C   0  0  0  0  0  0  0  0  0  0  0  0
   63.4500   33.5170   46.9670 C   0  0  0  0  0  0  0  0  0  0  0  0
   63.6350   33.7160   48.3390 C   0  0  0  0  0  0  0  0  0  0  0  0
   62.5470   34.0510   49.1490 C   0  0  0  0  0  0  0  0  0  0  0  0
   61.2720   34.1910   48.5890 C   0  0  0  0  0  0  0  0  0  0  0  0
   59.1860   31.4250   46.7880 C   0  0  0  0  0  0  0  0  0  0  0  0
   59.8280   31.5520   47.8670 O   0  0  0  0  0  0  0  0  0  0  0  0
   58.7310   30.1620   46.3740 C   0  0  0  0  0  0  0  0  0  0  0  0
   58.9680   29.0200   47.1600 C   0  0  0  0  0  0  0  0  0  0  0  0
   58.5030   27.7700   46.7600 C   0  0  0  0  0  0  0  0  0  0  0  0
   58.7720   26.6840   47.5270 F   0  0  0  0  0  0  0  0  0  0  0  0
   57.7840   27.6350   45.5670 C   0  0  0  0  0  0  0  0  0  0  0  0
   57.2960   26.3460   45.1560 N   0  0  0  0  0  0  0  0  0  0  0  0
   56.2930   25.6420   45.9650 C   0  0  0  0  0  0  0  0  0  0  0  0
   56.7270   24.1910   46.2300 C   0  0  0  0  0  0  0  0  0  0  0  0
   57.4810   23.5430   45.0480 C   0  0  0  0  0  0  0  0  0  0  0  0
   57.2920   24.3100   43.7340 C   0  0  0  0  0  0  0  0  0  0  0  0
   57.7670   25.7610   43.8930 C   0  0  0  0  0  0  0  0  0  0  0  0
   57.5470   28.7630   44.7690 C   0  0  0  0  0  0  0  0  0  0  0  0
   58.0210   30.0440   45.1480 C   0  0  0  0  0  0  0  0  0  0  0  0
   58.3290   32.8287   42.5921 H   0  0  0  0  0  0  0  0  0  0  0  0
   58.4572   31.4669   41.4277 H   0  0  0  0  0  0  0  0  0  0  0  0
   56.9978   32.5143   41.4277 H   0  0  0  0  0  0  0  0  0  0  0  0
   56.0583   31.4340   43.2175 H   0  0  0  0  0  0  0  0  0  0  0  0
   57.1395   30.0897   42.6849 H   0  0  0  0  0  0  0  0  0  0  0  0
   58.0301   33.2810   44.1781 H   0  0  0  0  0  0  0  0  0  0  0  0
   62.0348   33.4978   45.3250 H   0  0  0  0  0  0  0  0  0  0  0  0
   64.3063   33.2500   46.3302 H   0  0  0  0  0  0  0  0  0  0  0  0
   64.6369   33.6088   48.7802 H   0  0  0  0  0  0  0  0  0  0  0  0
   62.6927   34.2049   50.2284 H   0  0  0  0  0  0  0  0  0  0  0  0
   60.4163   34.4511   49.2294 H   0  0  0  0  0  0  0  0  0  0  0  0
   59.5275   29.1155   48.1022 H   0  0  0  0  0  0  0  0  0  0  0  0
   56.1734   26.1640   46.9258 H   0  0  0  0  0  0  0  0  0  0  0  0
   55.3406   25.6306   45.4148 H   0  0  0  0  0  0  0  0  0  0  0  0
   57.3867   24.1810   47.1101 H   0  0  0  0  0  0  0  0  0  0  0  0
   55.8097   23.6045   46.3866 H   0  0  0  0  0  0  0  0  0  0  0  0
   58.5541   23.5151   45.2880 H   0  0  0  0  0  0  0  0  0  0  0  0
   57.0697   22.5328   44.9052 H   0  0  0  0  0  0  0  0  0  0  0  0
   57.8768   23.8213   42.9408 H   0  0  0  0  0  0  0  0  0  0  0  0
   56.2244   24.3093   43.4688 H   0  0  0  0  0  0  0  0  0  0  0  0
   58.8667   25.7809   43.8779 H   0  0  0  0  0  0  0  0  0  0  0  0
   57.3535   26.3527   43.0630 H   0  0  0  0  0  0  0  0  0  0  0  0
   56.9827   28.6519   43.8313 H   0  0  0  0  0  0  0  0  0  0  0  0
  1  2  1  0
  2  3  1  0
  3  4  1  0
  4  5  2  0
  5  6  1  0
  6  7  2  0
  6  8  2  0
  6  9  1  0
  9 10  2  0
 10 11  1  0
 11 12  2  0
 12 13  1  0
 13 14  2  0
  5 15  1  0
 15 16  2  0
 15 17  1  0
 17 18  2  0
 18 19  1  0
 19 20  1  0
 19 21  2  0
 21 22  1  0
 22 23  1  0
 23 24  1  0
 24 25  1  0
 25 26  1  0
 26 27  1  0
 21 28  1  0
 28 29  2  0
 29  3  1  0
 14  9  1  0
 29 17  1  0
 27 22  1  0
  1 30  1  0
  1 31  1  0
  1 32  1  0
  2 33  1  0
  2 34  1  0
  4 35  1  0
 10 36  1  0
 11 37  1  0
 12 38  1  0
 13 39  1  0
 14 40  1  0
 18 41  1  0
 23 42  1  0
 23 43  1  0
 24 44  1  0
 24 45  1  0
 25 46  1  0
 25 47  1  0
 26 48  1  0
 26 49  1  0
 27 50  1  0
 27 51  1  0
 28 52  1  0
M  END
>  <UniqueID>  (47) 
45

>  <SMILES>  (47) 
CCn1cc(S(=O)(=O)c2ccccc2)c(=O)c2cc(F)c(N3CCCCC3)cc21

>  <Energy>  (47) 
70.80133932797222

>  <Genealogy>  (47) 
CCn1cc(S(=O)(=O)c2ccccc2)c(=O)c2cc(F)c(N3CCCCC3)cc21 (3D coordinates assigned)
CCn1cc(S(=O)(=O)c2ccccc2)c(=O)c2cc(F)c(N3CCCCC3)cc21 (nonaromatic ring conformer: 70.80133932797222 kcal/mol)

>  <smiles>  (47) 
CCn1cc(S(=O)(=O)c2ccccc2)c(=O)c2cc(F)c(N3CCCCC3)cc21

>  <score_type>  (47) 
oracle

>  <origin>  (47) 
adg

>  <m_score__min__energy>  (47) 
-8.9900000000000002

>  <m_primary>  (47) 
energy

$$$$
47:0
     RDKit          3D

 35 37  0  0  0  0  0  0  0  0999 V2000
   59.6410   34.2650   48.0590 C   0  0  0  0  0  0  0  0  0  0  0  0
   59.0920   33.6330   46.8580 N   0  0  0  0  0  0  0  0  0  0  0  0
   58.7200   34.4090   45.7950 C   0  0  0  0  0  0  0  0  0  0  0  0
   58.1590   33.8330   44.6530 C   0  0  0  0  0  0  0  0  0  0  0  0
   57.9660   32.4500   44.6040 C   0  0  0  0  0  0  0  0  0  0  0  0
   57.3960   31.8420   43.4760 C   0  0  0  0  0  0  0  0  0  0  0  0
   57.2030   30.4590   43.4460 C   0  0  0  0  0  0  0  0  0  0  0  0
   57.5910   29.6590   44.5310 C   0  0  0  0  0  0  0  0  0  0  0  0
   57.3570   28.2420   44.4790 N   0  0  0  0  0  0  0  0  0  0  0  0
   58.3470   27.2530   44.8220 C   0  0  0  0  0  0  0  0  0  0  0  0
   59.5250   27.6120   45.0970 O   0  0  0  0  0  0  0  0  0  0  0  0
   58.0140   25.8080   44.8500 C   0  0  0  0  0  0  0  0  0  0  0  0
   58.2880   25.0110   45.9780 C   0  0  0  0  0  0  0  0  0  0  0  0
   57.9590   23.6520   45.9810 C   0  0  0  0  0  0  0  0  0  0  0  0
   57.3490   23.0750   44.8660 C   0  0  0  0  0  0  0  0  0  0  0  0
   57.0590   23.8580   43.7470 C   0  0  0  0  0  0  0  0  0  0  0  0
   57.3850   25.2170   43.7380 C   0  0  0  0  0  0  0  0  0  0  0  0
   58.1410   30.2690   45.6730 C   0  0  0  0  0  0  0  0  0  0  0  0
   58.3380   31.6590   45.7100 C   0  0  0  0  0  0  0  0  0  0  0  0
   58.8930   32.2810   46.8370 C   0  0  0  0  0  0  0  0  0  0  0  0
   59.2206   33.7810   48.9528 H   0  0  0  0  0  0  0  0  0  0  0  0
   60.7355   34.1554   48.0633 H   0  0  0  0  0  0  0  0  0  0  0  0
   59.3794   35.3334   48.0633 H   0  0  0  0  0  0  0  0  0  0  0  0
   58.8642   35.4986   45.8400 H   0  0  0  0  0  0  0  0  0  0  0  0
   57.8713   34.4633   43.7986 H   0  0  0  0  0  0  0  0  0  0  0  0
   57.1001   32.4560   42.6126 H   0  0  0  0  0  0  0  0  0  0  0  0
   56.7422   29.9925   42.5628 H   0  0  0  0  0  0  0  0  0  0  0  0
   56.4270   27.9310   44.1210 H   0  0  0  0  0  0  0  0  0  0  0  0
   58.7638   25.4602   46.8622 H   0  0  0  0  0  0  0  0  0  0  0  0
   58.1816   23.0358   46.8646 H   0  0  0  0  0  0  0  0  0  0  0  0
   57.0970   22.0043   44.8689 H   0  0  0  0  0  0  0  0  0  0  0  0
   56.5729   23.4043   42.8707 H   0  0  0  0  0  0  0  0  0  0  0  0
   57.1483   25.8293   42.8554 H   0  0  0  0  0  0  0  0  0  0  0  0
   58.4183   29.6539   46.5418 H   0  0  0  0  0  0  0  0  0  0  0  0
   59.1708   31.6755   47.7123 H   0  0  0  0  0  0  0  0  0  0  0  0
  1  2  1  0
  2  3  2  0
  3  4  1  0
  4  5  2  0
  5  6  1  0
  6  7  2  0
  7  8  1  0
  8  9  1  0
  9 10  1  0
 10 11  2  0
 10 12  1  0
 12 13  2  0
 13 14  1  0
 14 15  2  0
 15 16  1  0
 16 17  2  0
  8 18  2  0
 18 19  1  0
 19 20  2  0
 20  2  1  0
 19  5  1  0
 17 12  1  0
  1 21  1  0
  1 22  1  0
  1 23  1  0
  3 24  1  0
  4 25  1  0
  6 26  1  0
  7 27  1  0
  9 28  1  0
 13 29  1  0
 14 30  1  0
 15 31  1  0
 16 32  1  0
 17 33  1  0
 18 34  1  0
 20 35  1  0
M  CHG  1   2   1
M  END
>  <UniqueID>  (48) 
46

>  <SMILES>  (48) 
C[n+]1ccc2ccc(NC(=O)c3ccccc3)cc2c1

>  <Energy>  (48) 
47.94947396408213

>  <Genealogy>  (48) 
C[n+]1ccc2ccc(NC(=O)c3ccccc3)cc2c1 (3D coordinates assigned)
C[n+]1ccc2ccc(NC(=O)c3ccccc3)cc2c1 (optimized conformer: 47.94947396408213 kcal/mol)

>  <smiles>  (48) 
C[n+]1ccc2ccc(NC(=O)c3ccccc3)cc2c1

>  <score_type>  (48) 
oracle

>  <origin>  (48) 
adg

>  <m_score__min__energy>  (48) 
-5.5499999999999998

>  <m_primary>  (48) 
energy

$$$$
