0:0
     RDKit          3D

 74 77  0  0  0  0  0  0  0  0999 V2000
   57.7900   32.0450   43.8140 C   0  0  0  0  0  0  0  0  0  0  0  0
   56.8950   30.8430   43.7520 C   0  0  0  0  0  0  0  0  0  0  0  0
   56.4160   30.4890   42.6430 O   0  0  0  0  0  0  0  0  0  0  0  0
   56.5390   30.1010   44.9240 N   0  0  0  0  0  0  0  0  0  0  0  0
   56.0940   28.7030   44.9300 C   0  0  0  0  0  0  0  0  0  0  0  0
   57.1610   27.7070   45.5120 C   0  0  0  0  0  0  0  0  0  0  0  0
   58.1520   28.5090   46.3290 N   0  0  0  0  0  0  0  0  0  0  0  0
   58.7590   27.7850   47.4790 C   0  0  0  0  0  0  0  0  0  0  0  0
   59.9780   28.5090   48.0890 C   0  0  0  0  0  0  0  0  0  0  0  0
   59.8800   29.9530   47.8530 N   0  0  0  0  0  0  0  0  0  0  0  0
   59.6470   30.8470   48.9680 C   0  0  0  0  0  0  0  0  0  0  0  0
   58.9120   30.4550   49.9190 O   0  0  0  0  0  0  0  0  0  0  0  0
   60.2470   32.2390   49.0740 C   0  0  2  0  0  0  0  0  0  0  0  0
   59.2360   33.3460   48.7700 C   0  0  0  0  0  0  0  0  0  0  0  0
   59.8860   34.3270   47.8820 N   0  0  0  0  0  0  0  0  0  0  0  0
   58.9340   34.9580   46.9300 C   0  0  0  0  0  0  0  0  0  0  0  0
   57.7910   33.9890   46.5700 C   0  0  0  0  0  0  0  0  0  0  0  0
   59.6510   35.3510   45.6240 C   0  0  0  0  0  0  0  0  0  0  0  0
   60.9720   33.5990   47.2060 C   0  0  0  0  0  0  0  0  0  0  0  0
   61.4490   32.4990   48.1560 C   0  0  1  0  0  0  0  0  0  0  0  0
   62.6760   32.9160   48.9590 C   0  0  0  0  0  0  0  0  0  0  0  0
   62.5730   33.7670   50.0800 C   0  0  0  0  0  0  0  0  0  0  0  0
   63.7090   34.1010   50.8270 C   0  0  0  0  0  0  0  0  0  0  0  0
   64.9560   33.5750   50.4790 C   0  0  0  0  0  0  0  0  0  0  0  0
   66.3850   33.9920   51.4150 Cl  0  0  0  0  0  0  0  0  0  0  0  0
   65.0640   32.7050   49.3900 C   0  0  0  0  0  0  0  0  0  0  0  0
   63.9350   32.3750   48.6350 C   0  0  0  0  0  0  0  0  0  0  0  0
   59.7230   30.4020   46.4620 C   0  0  0  0  0  0  0  0  0  0  0  0
   59.1780   29.2710   45.5740 C   0  0  0  0  0  0  0  0  0  0  0  0
   57.9070   27.0150   44.3060 C   0  0  0  0  0  0  0  0  0  0  0  0
   58.1470   25.4990   44.4800 C   0  0  0  0  0  0  0  0  0  0  0  0
   56.8710   24.7020   44.8000 C   0  0  0  0  0  0  0  0  0  0  0  0
   55.8170   25.4940   45.5900 C   0  0  0  0  0  0  0  0  0  0  0  0
   56.4360   26.6380   46.4090 C   0  0  0  0  0  0  0  0  0  0  0  0
   57.9832   32.3045   44.8654 H   0  0  0  0  0  0  0  0  0  0  0  0
   58.7420   31.8196   43.3111 H   0  0  0  0  0  0  0  0  0  0  0  0
   57.3012   32.8924   43.3111 H   0  0  0  0  0  0  0  0  0  0  0  0
   55.1815   28.6309   45.5400 H   0  0  0  0  0  0  0  0  0  0  0  0
   55.9203   28.4147   43.8828 H   0  0  0  0  0  0  0  0  0  0  0  0
   57.9943   27.6713   48.2615 H   0  0  0  0  0  0  0  0  0  0  0  0
   59.1152   26.8160   47.0993 H   0  0  0  0  0  0  0  0  0  0  0  0
   60.0088   28.3192   49.1721 H   0  0  0  0  0  0  0  0  0  0  0  0
   60.8951   28.1294   47.6148 H   0  0  0  0  0  0  0  0  0  0  0  0
   60.5769   32.2668   50.1230 H   0  0  0  0  0  0  0  0  0  0  0  0
   58.3536   32.9187   48.2713 H   0  0  0  0  0  0  0  0  0  0  0  0
   58.9103   33.8317   49.7017 H   0  0  0  0  0  0  0  0  0  0  0  0
   58.5262   35.8522   47.4240 H   0  0  0  0  0  0  0  0  0  0  0  0
   57.3343   33.6018   47.4927 H   0  0  0  0  0  0  0  0  0  0  0  0
   57.0307   34.5219   45.9801 H   0  0  0  0  0  0  0  0  0  0  0  0
   58.1922   33.1517   45.9801 H   0  0  0  0  0  0  0  0  0  0  0  0
   60.5925   35.8670   45.8636 H   0  0  0  0  0  0  0  0  0  0  0  0
   59.8679   34.4457   45.0380 H   0  0  0  0  0  0  0  0  0  0  0  0
   59.0045   36.0209   45.0380 H   0  0  0  0  0  0  0  0  0  0  0  0
   60.6005   33.1532   46.2715 H   0  0  0  0  0  0  0  0  0  0  0  0
   61.7985   34.2805   46.9562 H   0  0  0  0  0  0  0  0  0  0  0  0
   61.7658   31.6005   47.6061 H   0  0  0  0  0  0  0  0  0  0  0  0
   61.5918   34.1714   50.3694 H   0  0  0  0  0  0  0  0  0  0  0  0
   63.6198   34.7784   51.6891 H   0  0  0  0  0  0  0  0  0  0  0  0
   66.0427   32.2779   49.1259 H   0  0  0  0  0  0  0  0  0  0  0  0
   64.0307   31.6877   47.7815 H   0  0  0  0  0  0  0  0  0  0  0  0
   59.0223   31.2495   46.4349 H   0  0  0  0  0  0  0  0  0  0  0  0
   60.7089   30.7034   46.0785 H   0  0  0  0  0  0  0  0  0  0  0  0
   58.7249   29.7003   44.6682 H   0  0  0  0  0  0  0  0  0  0  0  0
   59.9997   28.5989   45.2857 H   0  0  0  0  0  0  0  0  0  0  0  0
   57.3035   27.1645   43.3986 H   0  0  0  0  0  0  0  0  0  0  0  0
   58.9011   27.4821   44.2463 H   0  0  0  0  0  0  0  0  0  0  0  0
   58.5764   25.1063   43.5465 H   0  0  0  0  0  0  0  0  0  0  0  0
   58.8244   25.3779   45.3382 H   0  0  0  0  0  0  0  0  0  0  0  0
   56.4194   24.3776   43.8509 H   0  0  0  0  0  0  0  0  0  0  0  0
   57.1758   23.8581   45.4363 H   0  0  0  0  0  0  0  0  0  0  0  0
   55.0907   25.9194   44.8818 H   0  0  0  0  0  0  0  0  0  0  0  0
   55.3345   24.8003   46.2942 H   0  0  0  0  0  0  0  0  0  0  0  0
   55.6360   27.1382   46.9745 H   0  0  0  0  0  0  0  0  0  0  0  0
   57.1922   26.1969   47.0750 H   0  0  0  0  0  0  0  0  0  0  0  0
  1  2  1  0
  2  3  2  0
  2  4  1  0
  4  5  1  0
  5  6  1  0
  6  7  1  0
  7  8  1  0
  8  9  1  0
  9 10  1  0
 10 11  1  0
 11 12  2  0
 11 13  1  0
 13 14  1  0
 14 15  1  0
 15 16  1  0
 16 17  1  0
 16 18  1  0
 15 19  1  0
 19 20  1  0
 20 21  1  0
 21 22  2  0
 22 23  1  0
 23 24  2  0
 24 25  1  0
 24 26  1  0
 26 27  2  0
 10 28  1  0
 28 29  1  0
  6 30  1  0
 30 31  1  0
 31 32  1  0
 32 33  1  0
 33 34  1  0
 34  6  1  0
 29  7  1  0
 20 13  1  0
 27 21  1  0
  1 35  1  0
  1 36  1  0
  1 37  1  0
  5 38  1  0
  5 39  1  0
  8 40  1  0
  8 41  1  0
  9 42  1  0
  9 43  1  0
 13 44  1  1
 14 45  1  0
 14 46  1  0
 16 47  1  0
 17 48  1  0
 17 49  1  0
 17 50  1  0
 18 51  1  0
 18 52  1  0
 18 53  1  0
 19 54  1  0
 19 55  1  0
 20 56  1  6
 22 57  1  0
 23 58  1  0
 26 59  1  0
 27 60  1  0
 28 61  1  0
 28 62  1  0
 29 63  1  0
 29 64  1  0
 30 65  1  0
 30 66  1  0
 31 67  1  0
 31 68  1  0
 32 69  1  0
 32 70  1  0
 33 71  1  0
 33 72  1  0
 34 73  1  0
 34 74  1  0
M  CHG  1   4  -1
M  END
>  <UniqueID>  (1) 
1

>  <SMILES>  (1) 
CC(=O)[N-]CC1(N2CCN(C(=O)[C@@H]3CN(C(C)C)C[C@H]3c3ccc(Cl)cc3)CC2)CCCCC1

>  <Energy>  (1) 
109.29780255245193

>  <Genealogy>  (1) 
CC(=O)[N-]CC1(N2CCN(C(=O)C3CN(C(C)C)CC3c3ccc(Cl)cc3)CC2)CCCCC1 (protonated)
CC(=O)[N-]CC1(N2CCN(C(=O)[C@@H]3CN(C(C)C)C[C@H]3c3ccc(Cl)cc3)CC2)CCCCC1 (chirality)
CC(=O)[N-]CC1(N2CCN(C(=O)[C@@H]3CN(C(C)C)C[C@H]3c3ccc(Cl)cc3)CC2)CCCCC1 (3D coordinates assigned)
CC(=O)[N-]CC1(N2CCN(C(=O)[C@@H]3CN(C(C)C)C[C@H]3c3ccc(Cl)cc3)CC2)CCCCC1 (nonaromatic ring conformer: 109.29780255245193 kcal/mol)

>  <smiles>  (1) 
CC(=O)NCC1(N2CCN(C(=O)C3CN(C(C)C)CC3c3ccc(Cl)cc3)CC2)CCCCC1

>  <score_type>  (1) 
oracle

>  <origin>  (1) 
adg

>  <m_score__min__energy>  (1) 
-11.92

>  <m_primary>  (1) 
energy

$$$$
1:0
     RDKit          3D

 35 37  0  0  0  0  0  0  0  0999 V2000
   56.7690   27.8100   45.5930 C   0  0  0  0  0  0  0  0  0  0  0  0
   56.0450   28.9240   45.0820 O   0  0  0  0  0  0  0  0  0  0  0  0
   56.6330   30.0320   44.4530 C   0  0  0  0  0  0  0  0  0  0  0  0
   56.4570   30.1800   43.0730 C   0  0  0  0  0  0  0  0  0  0  0  0
   57.0210   31.2650   42.4000 C   0  0  0  0  0  0  0  0  0  0  0  0
   57.7700   32.2130   43.1000 C   0  0  0  0  0  0  0  0  0  0  0  0
   57.9610   32.0860   44.4880 C   0  0  0  0  0  0  0  0  0  0  0  0
   58.7560   33.0940   45.2300 C   0  0  0  0  0  0  0  0  0  0  0  0
   58.4660   34.4240   45.1630 N   0  0  0  0  0  0  0  0  0  0  0  0
   59.5940   35.1600   46.1320 S   0  0  0  0  0  0  0  0  0  0  0  0
   60.4120   33.7910   46.6070 C   0  0  0  0  0  0  0  0  0  0  0  0
   61.5810   33.7080   47.5090 C   0  0  0  0  0  0  0  0  0  0  0  0
   62.8520   33.4260   46.9890 C   0  0  0  0  0  0  0  0  0  0  0  0
   63.9480   33.3490   47.8480 C   0  0  0  0  0  0  0  0  0  0  0  0
   63.7890   33.5480   49.1830 N   0  0  0  0  0  0  0  0  0  0  0  0
   62.5720   33.8250   49.7300 C   0  0  0  0  0  0  0  0  0  0  0  0
   62.4880   34.0180   51.1170 O   0  0  0  0  0  0  0  0  0  0  0  0
   61.4750   33.4620   51.9490 C   0  0  0  0  0  0  0  0  0  0  0  0
   61.4430   33.9090   48.8920 C   0  0  0  0  0  0  0  0  0  0  0  0
   59.8200   32.7290   46.0170 N   0  0  0  0  0  0  0  0  0  0  0  0
   57.3880   30.9890   45.1590 C   0  0  0  0  0  0  0  0  0  0  0  0
   56.7526   27.8352   46.6926 H   0  0  0  0  0  0  0  0  0  0  0  0
   56.3039   26.8775   45.2406 H   0  0  0  0  0  0  0  0  0  0  0  0
   57.8100   27.8564   45.2406 H   0  0  0  0  0  0  0  0  0  0  0  0
   55.8700   29.4361   42.5144 H   0  0  0  0  0  0  0  0  0  0  0  0
   56.8750   31.3735   41.3151 H   0  0  0  0  0  0  0  0  0  0  0  0
   58.2134   33.0644   42.5629 H   0  0  0  0  0  0  0  0  0  0  0  0
   62.9842   33.2662   45.9087 H   0  0  0  0  0  0  0  0  0  0  0  0
   64.9461   33.1261   47.4430 H   0  0  0  0  0  0  0  0  0  0  0  0
   64.6260   33.4860   49.8060 H   0  0  0  0  0  0  0  0  0  0  0  0
   61.7454   33.6104   53.0049 H   0  0  0  0  0  0  0  0  0  0  0  0
   60.5164   33.9604   51.7424 H   0  0  0  0  0  0  0  0  0  0  0  0
   61.3807   32.3857   51.7424 H   0  0  0  0  0  0  0  0  0  0  0  0
   60.4546   34.1317   49.3203 H   0  0  0  0  0  0  0  0  0  0  0  0
   57.5311   30.8782   46.2440 H   0  0  0  0  0  0  0  0  0  0  0  0
  1  2  1  0
  2  3  1  0
  3  4  2  0
  4  5  1  0
  5  6  2  0
  6  7  1  0
  7  8  1  0
  8  9  2  0
  9 10  1  0
 10 11  1  0
 11 12  1  0
 12 13  2  0
 13 14  1  0
 14 15  2  0
 15 16  1  0
 16 17  1  0
 17 18  1  0
 16 19  2  0
 11 20  2  0
  7 21  2  0
 21  3  1  0
 20  8  1  0
 19 12  1  0
  1 22  1  0
  1 23  1  0
  1 24  1  0
  4 25  1  0
  5 26  1  0
  6 27  1  0
 13 28  1  0
 14 29  1  0
 15 30  1  0
 18 31  1  0
 18 32  1  0
 18 33  1  0
 19 34  1  0
 21 35  1  0
M  CHG  1  15   1
M  END
>  <UniqueID>  (2) 
2

>  <SMILES>  (2) 
COc1cccc(-c2nsc(-c3cc[nH+]c(OC)c3)n2)c1

>  <Energy>  (2) 
74.71414031837243

>  <Genealogy>  (2) 
COc1cccc(-c2nsc(-c3cc[nH+]c(OC)c3)n2)c1 (protonated)
COc1cccc(-c2nsc(-c3cc[nH+]c(OC)c3)n2)c1 (3D coordinates assigned)
COc1cccc(-c2nsc(-c3cc[nH+]c(OC)c3)n2)c1 (optimized conformer: 74.71414031837243 kcal/mol)

>  <smiles>  (2) 
COc1cccc(-c2nsc(-c3ccnc(OC)c3)n2)c1

>  <score_type>  (2) 
oracle

>  <origin>  (2) 
adg

>  <m_score__min__energy>  (2) 
-5.96

>  <m_primary>  (2) 
energy

$$$$
2:0
     RDKit          3D

 46 48  0  0  0  0  0  0  0  0999 V2000
   63.7540   33.1920   46.9860 C   0  0  0  0  0  0  0  0  0  0  0  0
   62.2450   33.4430   47.0970 C   0  0  0  0  0  0  0  0  0  0  0  0
   61.6350   32.7100   48.2410 N   0  0  0  0  0  0  0  0  0  0  0  0
   62.6270   31.7750   48.8400 C   0  0  0  0  0  0  0  0  0  0  0  0
   61.9640   30.7220   49.7360 C   0  0  0  0  0  0  0  0  0  0  0  0
   61.1440   33.6710   49.2660 C   0  0  0  0  0  0  0  0  0  0  0  0
   59.7450   34.2210   48.9240 C   0  0  0  0  0  0  0  0  0  0  0  0
   58.9440   33.2020   48.2430 N   0  0  0  0  0  0  0  0  0  0  0  0
   58.6700   33.2350   46.8310 C   0  0  0  0  0  0  0  0  0  0  0  0
   58.5010   34.4910   46.2210 C   0  0  0  0  0  0  0  0  0  0  0  0
   58.1280   34.5940   44.8850 C   0  0  0  0  0  0  0  0  0  0  0  0
   57.9010   33.4470   44.1380 C   0  0  0  0  0  0  0  0  0  0  0  0
   58.0740   32.1880   44.7170 C   0  0  0  0  0  0  0  0  0  0  0  0
   57.7700   30.8190   43.7870 S   0  0  0  0  0  0  0  0  0  0  0  0
   58.0410   29.3970   44.6350 C   0  0  0  0  0  0  0  0  0  0  0  0
   57.8110   28.1610   44.0200 C   0  0  0  0  0  0  0  0  0  0  0  0
   58.0440   26.9790   44.7210 C   0  0  0  0  0  0  0  0  0  0  0  0
   58.5160   27.0320   46.0310 C   0  0  0  0  0  0  0  0  0  0  0  0
   58.7520   28.2650   46.6470 C   0  0  0  0  0  0  0  0  0  0  0  0
   58.5130   29.4840   45.9640 C   0  0  0  0  0  0  0  0  0  0  0  0
   58.7570   30.7320   46.6260 C   0  0  0  0  0  0  0  0  0  0  0  0
   59.2640   30.6690   47.7790 O   0  0  0  0  0  0  0  0  0  0  0  0
   58.4910   32.0340   46.0660 C   0  0  0  0  0  0  0  0  0  0  0  0
   64.1888   33.1197   47.9938 H   0  0  0  0  0  0  0  0  0  0  0  0
   63.9304   32.2522   46.4423 H   0  0  0  0  0  0  0  0  0  0  0  0
   64.2251   34.0241   46.4423 H   0  0  0  0  0  0  0  0  0  0  0  0
   62.0745   34.5208   47.2356 H   0  0  0  0  0  0  0  0  0  0  0  0
   61.7733   33.0785   46.1725 H   0  0  0  0  0  0  0  0  0  0  0  0
   60.8200   32.1520   47.8860 H   0  0  0  0  0  0  0  0  0  0  0  0
   63.1647   31.2620   48.0290 H   0  0  0  0  0  0  0  0  0  0  0  0
   63.3131   32.3658   49.4647 H   0  0  0  0  0  0  0  0  0  0  0  0
   62.1284   30.9830   50.7919 H   0  0  0  0  0  0  0  0  0  0  0  0
   60.8840   30.6923   49.5295 H   0  0  0  0  0  0  0  0  0  0  0  0
   62.4041   29.7352   49.5295 H   0  0  0  0  0  0  0  0  0  0  0  0
   61.0955   33.1584   50.2381 H   0  0  0  0  0  0  0  0  0  0  0  0
   61.8430   34.5198   49.2962 H   0  0  0  0  0  0  0  0  0  0  0  0
   59.2368   34.5195   49.8528 H   0  0  0  0  0  0  0  0  0  0  0  0
   59.8578   35.0883   48.2569 H   0  0  0  0  0  0  0  0  0  0  0  0
   58.5270   32.4380   48.8220 H   0  0  0  0  0  0  0  0  0  0  0  0
   58.6663   35.4056   46.8094 H   0  0  0  0  0  0  0  0  0  0  0  0
   58.0130   35.5846   44.4207 H   0  0  0  0  0  0  0  0  0  0  0  0
   57.5842   33.5295   43.0878 H   0  0  0  0  0  0  0  0  0  0  0  0
   57.4462   28.1224   42.9830 H   0  0  0  0  0  0  0  0  0  0  0  0
   57.8558   26.0071   44.2414 H   0  0  0  0  0  0  0  0  0  0  0  0
   58.7039   26.0994   46.5832 H   0  0  0  0  0  0  0  0  0  0  0  0
   59.1298   28.2894   47.6798 H   0  0  0  0  0  0  0  0  0  0  0  0
  1  2  1  0
  2  3  1  0
  3  4  1  0
  4  5  1  0
  3  6  1  0
  6  7  1  0
  7  8  1  0
  8  9  1  0
  9 10  2  0
 10 11  1  0
 11 12  2  0
 12 13  1  0
 13 14  1  0
 14 15  1  0
 15 16  2  0
 16 17  1  0
 17 18  2  0
 18 19  1  0
 19 20  2  0
 20 21  1  0
 21 22  2  0
 21 23  1  0
 23  9  1  0
 23 13  2  0
 20 15  1  0
  1 24  1  0
  1 25  1  0
  1 26  1  0
  2 27  1  0
  2 28  1  0
  3 29  1  0
  4 30  1  0
  4 31  1  0
  5 32  1  0
  5 33  1  0
  5 34  1  0
  6 35  1  0
  6 36  1  0
  7 37  1  0
  7 38  1  0
  8 39  1  0
 10 40  1  0
 11 41  1  0
 12 42  1  0
 16 43  1  0
 17 44  1  0
 18 45  1  0
 19 46  1  0
M  CHG  1   3   1
M  END
>  <UniqueID>  (3) 
3

>  <SMILES>  (3) 
CC[NH+](CC)CCNc1cccc2sc3ccccc3c(=O)c12

>  <Energy>  (3) 
67.9509704768471

>  <Genealogy>  (3) 
CC[NH+](CC)CCNc1cccc2sc3ccccc3c(=O)c12 (protonated)
CC[NH+](CC)CCNc1cccc2sc3ccccc3c(=O)c12 (3D coordinates assigned)
CC[NH+](CC)CCNc1cccc2sc3ccccc3c(=O)c12 (optimized conformer: 67.9509704768471 kcal/mol)

>  <smiles>  (3) 
CCN(CC)CCNc1cccc2sc3ccccc3c(=O)c12

>  <score_type>  (3) 
oracle

>  <origin>  (3) 
adg

>  <m_score__min__energy>  (3) 
-6.3399999999999999

>  <m_primary>  (3) 
energy

$$$$
3:0
     RDKit          3D

 45 47  0  0  0  0  0  0  0  0999 V2000
   59.0610   25.1200   46.0060 C   0  0  0  0  0  0  0  0  0  0  0  0
   59.9260   26.2400   46.1610 O   0  0  0  0  0  0  0  0  0  0  0  0
   59.5010   27.5770   46.1820 C   0  0  0  0  0  0  0  0  0  0  0  0
   59.2020   28.2860   45.0040 C   0  0  0  0  0  0  0  0  0  0  0  0
   58.7800   29.6220   45.0610 C   0  0  0  0  0  0  0  0  0  0  0  0
   58.4870   30.3000   43.9200 N   0  0  0  0  0  0  0  0  0  0  0  0
   58.0680   31.5980   43.9450 C   0  0  0  0  0  0  0  0  0  0  0  0
   57.7670   32.2770   42.6290 C   0  0  0  0  0  0  0  0  0  0  0  0
   57.9600   32.2650   45.1490 N   0  0  0  0  0  0  0  0  0  0  0  0
   57.5050   33.6710   45.2090 C   0  0  0  0  0  0  0  0  0  0  0  0
   58.6970   34.6270   45.0780 C   0  0  0  0  0  0  0  0  0  0  0  0
   59.6580   34.4360   46.2200 C   0  0  0  0  0  0  0  0  0  0  0  0
   59.2890   34.8000   47.5250 C   0  0  0  0  0  0  0  0  0  0  0  0
   60.1710   34.5910   48.5900 C   0  0  0  0  0  0  0  0  0  0  0  0
   61.4200   34.0070   48.3610 C   0  0  0  0  0  0  0  0  0  0  0  0
   61.7880   33.6300   47.0670 C   0  0  0  0  0  0  0  0  0  0  0  0
   60.9100   33.8380   45.9990 C   0  0  0  0  0  0  0  0  0  0  0  0
   58.2330   31.6020   46.3220 C   0  0  0  0  0  0  0  0  0  0  0  0
   58.1030   32.1960   47.4310 O   0  0  0  0  0  0  0  0  0  0  0  0
   58.6540   30.2630   46.3030 C   0  0  0  0  0  0  0  0  0  0  0  0
   58.9510   29.5560   47.4820 C   0  0  0  0  0  0  0  0  0  0  0  0
   59.3740   28.2140   47.4260 C   0  0  0  0  0  0  0  0  0  0  0  0
   59.6790   27.4790   48.5820 O   0  0  0  0  0  0  0  0  0  0  0  0
   60.7300   27.7980   49.4900 C   0  0  0  0  0  0  0  0  0  0  0  0
   58.7692   24.7422   46.9970 H   0  0  0  0  0  0  0  0  0  0  0  0
   58.1619   25.4252   45.4506 H   0  0  0  0  0  0  0  0  0  0  0  0
   59.5835   24.3272   45.4506 H   0  0  0  0  0  0  0  0  0  0  0  0
   59.3003   27.7872   44.0285 H   0  0  0  0  0  0  0  0  0  0  0  0
   58.5830   29.8110   43.0000 H   0  0  0  0  0  0  0  0  0  0  0  0
   57.3279   33.2674   42.8194 H   0  0  0  0  0  0  0  0  0  0  0  0
   58.6981   32.3929   42.0548 H   0  0  0  0  0  0  0  0  0  0  0  0
   57.0559   31.6649   42.0548 H   0  0  0  0  0  0  0  0  0  0  0  0
   56.7986   33.8583   44.3869 H   0  0  0  0  0  0  0  0  0  0  0  0
   57.0139   33.8451   46.1778 H   0  0  0  0  0  0  0  0  0  0  0  0
   59.2180   34.4272   44.1300 H   0  0  0  0  0  0  0  0  0  0  0  0
   58.3249   35.6620   45.0974 H   0  0  0  0  0  0  0  0  0  0  0  0
   58.3030   35.2510   47.7102 H   0  0  0  0  0  0  0  0  0  0  0  0
   59.8814   34.8866   49.6092 H   0  0  0  0  0  0  0  0  0  0  0  0
   62.1132   33.8442   49.1995 H   0  0  0  0  0  0  0  0  0  0  0  0
   62.7704   33.1686   46.8881 H   0  0  0  0  0  0  0  0  0  0  0  0
   61.2003   33.5326   44.9829 H   0  0  0  0  0  0  0  0  0  0  0  0
   58.8520   30.0559   48.4568 H   0  0  0  0  0  0  0  0  0  0  0  0
   60.3681   27.6882   50.5229 H   0  0  0  0  0  0  0  0  0  0  0  0
   61.5774   27.1166   49.3240 H   0  0  0  0  0  0  0  0  0  0  0  0
   61.0557   28.8355   49.3240 H   0  0  0  0  0  0  0  0  0  0  0  0
  1  2  1  0
  2  3  1  0
  3  4  2  0
  4  5  1  0
  5  6  1  0
  6  7  2  0
  7  8  1  0
  7  9  1  0
  9 10  1  0
 10 11  1  0
 11 12  1  0
 12 13  2  0
 13 14  1  0
 14 15  2  0
 15 16  1  0
 16 17  2  0
  9 18  1  0
 18 19  2  0
 18 20  1  0
 20 21  1  0
 21 22  2  0
 22 23  1  0
 23 24  1  0
 22  3  1  0
 20  5  2  0
 17 12  1  0
  1 25  1  0
  1 26  1  0
  1 27  1  0
  4 28  1  0
  6 29  1  0
  8 30  1  0
  8 31  1  0
  8 32  1  0
 10 33  1  0
 10 34  1  0
 11 35  1  0
 11 36  1  0
 13 37  1  0
 14 38  1  0
 15 39  1  0
 16 40  1  0
 17 41  1  0
 21 42  1  0
 24 43  1  0
 24 44  1  0
 24 45  1  0
M  CHG  1   6   1
M  END
>  <UniqueID>  (4) 
4

>  <SMILES>  (4) 
COc1cc2[nH+]c(C)n(CCc3ccccc3)c(=O)c2cc1OC

>  <Energy>  (4) 
52.150113209274714

>  <Genealogy>  (4) 
COc1cc2[nH+]c(C)n(CCc3ccccc3)c(=O)c2cc1OC (protonated)
COc1cc2[nH+]c(C)n(CCc3ccccc3)c(=O)c2cc1OC (3D coordinates assigned)
COc1cc2[nH+]c(C)n(CCc3ccccc3)c(=O)c2cc1OC (optimized conformer: 52.150113209274714 kcal/mol)

>  <smiles>  (4) 
COc1cc2nc(C)n(CCc3ccccc3)c(=O)c2cc1OC

>  <score_type>  (4) 
oracle

>  <origin>  (4) 
adg

>  <m_score__min__energy>  (4) 
-5.7300000000000004

>  <m_primary>  (4) 
energy

$$$$
4:0
     RDKit          3D

 32 34  0  0  0  0  0  0  0  0999 V2000
   57.3770   28.3790   45.0140 C   0  0  0  0  0  0  0  0  0  0  0  0
   55.8820   29.4010   44.8390 S   0  0  0  0  0  0  0  0  0  0  0  0
   56.7270   30.6870   43.9160 C   0  0  0  0  0  0  0  0  0  0  0  0
   56.8000   30.6390   42.5090 C   0  0  0  0  0  0  0  0  0  0  0  0
   57.4720   31.6550   41.7900 C   0  0  0  0  0  0  0  0  0  0  0  0
   58.0790   32.7290   42.4700 C   0  0  0  0  0  0  0  0  0  0  0  0
   57.9900   32.7440   43.8590 C   0  0  0  0  0  0  0  0  0  0  0  0
   58.4710   33.6230   44.7020 O   0  0  0  0  0  0  0  0  0  0  0  0
   58.1210   33.1960   45.9060 C   0  0  0  0  0  0  0  0  0  0  0  0
   58.4980   33.8950   47.1720 C   0  0  0  0  0  0  0  0  0  0  0  0
   59.9180   33.5610   47.5350 C   0  0  0  0  0  0  0  0  0  0  0  0
   60.6390   32.6170   46.7840 C   0  0  0  0  0  0  0  0  0  0  0  0
   61.9710   32.3340   47.1010 C   0  0  0  0  0  0  0  0  0  0  0  0
   62.5950   32.9980   48.1600 C   0  0  0  0  0  0  0  0  0  0  0  0
   61.8890   33.9490   48.9030 C   0  0  0  0  0  0  0  0  0  0  0  0
   60.5560   34.2340   48.5910 C   0  0  0  0  0  0  0  0  0  0  0  0
   57.4170   32.0380   45.8670 N   0  0  0  0  0  0  0  0  0  0  0  0
   57.3420   31.7650   44.5550 C   0  0  0  0  0  0  0  0  0  0  0  0
   57.5959   28.2293   46.0816 H   0  0  0  0  0  0  0  0  0  0  0  0
   57.2126   27.4034   44.5331 H   0  0  0  0  0  0  0  0  0  0  0  0
   58.2263   28.8863   44.5331 H   0  0  0  0  0  0  0  0  0  0  0  0
   56.3309   29.8052   41.9662 H   0  0  0  0  0  0  0  0  0  0  0  0
   57.5209   31.6061   40.6922 H   0  0  0  0  0  0  0  0  0  0  0  0
   58.6039   33.5264   41.9235 H   0  0  0  0  0  0  0  0  0  0  0  0
   58.4031   34.9818   47.0312 H   0  0  0  0  0  0  0  0  0  0  0  0
   57.8294   33.5662   47.9812 H   0  0  0  0  0  0  0  0  0  0  0  0
   60.1536   32.0989   45.9438 H   0  0  0  0  0  0  0  0  0  0  0  0
   62.5283   31.5876   46.5159 H   0  0  0  0  0  0  0  0  0  0  0  0
   63.6424   32.7725   48.4094 H   0  0  0  0  0  0  0  0  0  0  0  0
   62.3828   34.4737   49.7341 H   0  0  0  0  0  0  0  0  0  0  0  0
   60.0053   34.9871   49.1737 H   0  0  0  0  0  0  0  0  0  0  0  0
   57.0330   31.4900   46.6680 H   0  0  0  0  0  0  0  0  0  0  0  0
  1  2  1  0
  2  3  1  0
  3  4  2  0
  4  5  1  0
  5  6  2  0
  6  7  1  0
  7  8  1  0
  8  9  1  0
  9 10  1  0
 10 11  1  0
 11 12  2  0
 12 13  1  0
 13 14  2  0
 14 15  1  0
 15 16  2  0
  9 17  2  0
 17 18  1  0
 18  3  1  0
 18  7  2  0
 16 11  1  0
  1 19  1  0
  1 20  1  0
  1 21  1  0
  4 22  1  0
  5 23  1  0
  6 24  1  0
 10 25  1  0
 10 26  1  0
 12 27  1  0
 13 28  1  0
 14 29  1  0
 15 30  1  0
 16 31  1  0
 17 32  1  0
M  CHG  1  17   1
M  END
>  <UniqueID>  (5) 
5

>  <SMILES>  (5) 
CSc1cccc2oc(Cc3ccccc3)[nH+]c12

>  <Energy>  (5) 
66.79388748523232

>  <Genealogy>  (5) 
CSc1cccc2oc(Cc3ccccc3)[nH+]c12 (protonated)
CSc1cccc2oc(Cc3ccccc3)[nH+]c12 (3D coordinates assigned)
CSc1cccc2oc(Cc3ccccc3)[nH+]c12 (optimized conformer: 66.79388748523232 kcal/mol)

>  <smiles>  (5) 
CSc1cccc2oc(Cc3ccccc3)nc12

>  <score_type>  (5) 
oracle

>  <origin>  (5) 
adg

>  <m_score__min__energy>  (5) 
-5.3899999999999997

>  <m_primary>  (5) 
energy

$$$$
5:0
     RDKit          3D

 58 62  0  0  0  0  0  0  0  0999 V2000
   58.9670   21.8320   44.5260 C   0  0  0  0  0  0  0  0  0  0  0  0
   58.9840   22.7330   45.6290 O   0  0  0  0  0  0  0  0  0  0  0  0
   58.5960   24.0800   45.5600 C   0  0  0  0  0  0  0  0  0  0  0  0
   57.5580   24.4250   44.6960 C   0  0  0  0  0  0  0  0  0  0  0  0
   57.1340   25.7480   44.5880 C   0  0  0  0  0  0  0  0  0  0  0  0
   57.7460   26.7640   45.3410 C   0  0  0  0  0  0  0  0  0  0  0  0
   58.8070   26.4300   46.2320 C   0  0  0  0  0  0  0  0  0  0  0  0
   59.2120   25.0840   46.3280 C   0  0  0  0  0  0  0  0  0  0  0  0
   59.4510   27.4140   47.1560 C   0  0  0  0  0  0  0  0  0  0  0  0
   59.7670   27.0200   48.3130 O   0  0  0  0  0  0  0  0  0  0  0  0
   59.7550   28.7760   46.7780 N   0  0  0  0  0  0  0  0  0  0  0  0
   60.2790   29.6990   47.7890 C   0  0  0  0  0  0  0  0  0  0  0  0
   59.5240   29.2480   45.4120 C   0  0  0  0  0  0  0  0  0  0  0  0
   58.0540   29.2770   45.1670 C   0  0  0  0  0  0  0  0  0  0  0  0
   57.2030   30.3610   44.9930 C   0  0  0  0  0  0  0  0  0  0  0  0
   57.5270   31.7970   44.9970 C   0  0  0  0  0  0  0  0  0  0  0  0
   58.7810   32.2780   45.1480 N   0  0  0  0  0  0  0  0  0  0  0  0
   58.5760   33.6090   45.0620 C   0  0  0  0  0  0  0  0  0  0  0  0
   59.6750   34.6370   45.1230 C   0  0  0  0  0  0  0  0  0  0  0  0
   60.2880   34.7610   46.4650 N   0  0  0  0  0  0  0  0  0  0  0  0
   61.4320   33.8460   46.6930 C   0  0  0  0  0  0  0  0  0  0  0  0
   61.0670   32.6990   47.6470 C   0  0  0  0  0  0  0  0  0  0  0  0
   60.6420   33.2100   48.9710 N   0  0  0  0  0  0  0  0  0  0  0  0
   59.8260   32.2030   49.6690 C   0  0  0  0  0  0  0  0  0  0  0  0
   59.9500   34.5220   48.9160 C   0  0  0  0  0  0  0  0  0  0  0  0
   59.2870   34.7740   47.5540 C   0  0  0  0  0  0  0  0  0  0  0  0
   57.2770   33.9010   44.8770 N   0  0  0  0  0  0  0  0  0  0  0  0
   56.6560   32.7650   44.8390 O   0  0  0  0  0  0  0  0  0  0  0  0
   55.9300   29.8330   44.8580 C   0  0  0  0  0  0  0  0  0  0  0  0
   55.9740   28.4910   44.9570 N   0  0  0  0  0  0  0  0  0  0  0  0
   57.2610   28.1510   45.1650 C   0  0  0  0  0  0  0  0  0  0  0  0
   58.9475   20.7971   44.8982 H   0  0  0  0  0  0  0  0  0  0  0  0
   58.0722   22.0185   43.9140 H   0  0  0  0  0  0  0  0  0  0  0  0
   59.8682   21.9846   43.9140 H   0  0  0  0  0  0  0  0  0  0  0  0
   57.0688   23.6454   44.0936 H   0  0  0  0  0  0  0  0  0  0  0  0
   56.3097   26.0001   43.9046 H   0  0  0  0  0  0  0  0  0  0  0  0
   60.0257   24.8133   47.0169 H   0  0  0  0  0  0  0  0  0  0  0  0
   60.0569   29.3078   48.7928 H   0  0  0  0  0  0  0  0  0  0  0  0
   61.3677   29.7975   47.6664 H   0  0  0  0  0  0  0  0  0  0  0  0
   59.8056   30.6843   47.6664 H   0  0  0  0  0  0  0  0  0  0  0  0
   59.9406   30.2591   45.2928 H   0  0  0  0  0  0  0  0  0  0  0  0
   60.0142   28.5763   44.6919 H   0  0  0  0  0  0  0  0  0  0  0  0
   60.4592   34.3525   44.4060 H   0  0  0  0  0  0  0  0  0  0  0  0
   59.2240   35.6104   44.8799 H   0  0  0  0  0  0  0  0  0  0  0  0
   61.7445   33.4202   45.7281 H   0  0  0  0  0  0  0  0  0  0  0  0
   62.2458   34.4259   47.1529 H   0  0  0  0  0  0  0  0  0  0  0  0
   60.2440   32.1164   47.2075 H   0  0  0  0  0  0  0  0  0  0  0  0
   61.9586   32.0706   47.7890 H   0  0  0  0  0  0  0  0  0  0  0  0
   59.9323   32.3342   50.7560 H   0  0  0  0  0  0  0  0  0  0  0  0
   58.7702   32.3266   49.3863 H   0  0  0  0  0  0  0  0  0  0  0  0
   60.1658   31.1957   49.3863 H   0  0  0  0  0  0  0  0  0  0  0  0
   59.1753   34.5464   49.6966 H   0  0  0  0  0  0  0  0  0  0  0  0
   60.7040   35.3072   49.0739 H   0  0  0  0  0  0  0  0  0  0  0  0
   58.5413   33.9874   47.3662 H   0  0  0  0  0  0  0  0  0  0  0  0
   58.8072   35.7636   47.5763 H   0  0  0  0  0  0  0  0  0  0  0  0
   56.8340   34.8400   44.7780 H   0  0  0  0  0  0  0  0  0  0  0  0
   55.0166   30.4235   44.6939 H   0  0  0  0  0  0  0  0  0  0  0  0
   55.1520   27.8480   44.9140 H   0  0  0  0  0  0  0  0  0  0  0  0
  1  2  1  0
  2  3  1  0
  3  4  2  0
  4  5  1  0
  5  6  2  0
  6  7  1  0
  7  8  2  0
  7  9  1  0
  9 10  2  0
  9 11  1  0
 11 12  1  0
 11 13  1  0
 13 14  1  0
 14 15  1  0
 15 16  1  0
 16 17  2  0
 17 18  1  0
 18 19  1  0
 19 20  1  0
 20 21  1  0
 21 22  1  0
 22 23  1  0
 23 24  1  0
 23 25  1  0
 25 26  1  0
 18 27  2  0
 27 28  1  0
 15 29  2  0
 29 30  1  0
 30 31  1  0
  8  3  1  0
 31 14  2  0
 31  6  1  0
 28 16  1  0
 26 20  1  0
  1 32  1  0
  1 33  1  0
  1 34  1  0
  4 35  1  0
  5 36  1  0
  8 37  1  0
 12 38  1  0
 12 39  1  0
 12 40  1  0
 13 41  1  0
 13 42  1  0
 19 43  1  0
 19 44  1  0
 21 45  1  0
 21 46  1  0
 22 47  1  0
 22 48  1  0
 24 49  1  0
 24 50  1  0
 24 51  1  0
 25 52  1  0
 25 53  1  0
 26 54  1  0
 26 55  1  0
 27 56  1  0
 29 57  1  0
 30 58  1  0
M  CHG  1  27   1
M  END
>  <UniqueID>  (6) 
6

>  <SMILES>  (6) 
COc1ccc2c(c1)C(=O)N(C)Cc1c(-c3nc(CN4CCN(C)CC4)[nH+]o3)c[nH]c1-2

>  <Energy>  (6) 
145.15990182315815

>  <Genealogy>  (6) 
COc1ccc2c(c1)C(=O)N(C)Cc1c(-c3nc(CN4CCN(C)CC4)[nH+]o3)c[nH]c1-2 (protonated)
COc1ccc2c(c1)C(=O)N(C)Cc1c(-c3nc(CN4CCN(C)CC4)[nH+]o3)c[nH]c1-2 (3D coordinates assigned)
COc1ccc2c(c1)C(=O)N(C)Cc1c(-c3nc(CN4CCN(C)CC4)[nH+]o3)c[nH]c1-2 (nonaromatic ring conformer: 145.15990182315815 kcal/mol)

>  <smiles>  (6) 
COc1ccc2c(c1)C(=O)N(C)Cc1c(-c3nc(CN4CCN(C)CC4)no3)c[nH]c1-2

>  <score_type>  (6) 
oracle

>  <origin>  (6) 
adg

>  <m_score__min__energy>  (6) 
-7.7199999999999998

>  <m_primary>  (6) 
energy

$$$$
6:0
     RDKit          3D

 56 58  0  0  0  0  0  0  0  0999 V2000
   57.7510   30.7520   44.1620 C   0  0  0  0  0  0  0  0  0  0  0  0
   56.6360   30.0900   44.8610 N   0  0  0  0  0  0  0  0  0  0  0  0
   55.4610   30.0390   43.9780 C   0  0  0  0  0  0  0  0  0  0  0  0
   57.0160   28.7270   45.2960 C   0  0  0  0  0  0  0  0  0  0  0  0
   58.4810   28.4110   44.9510 C   0  0  0  0  0  0  0  0  0  0  0  0
   59.4130   28.4530   46.1800 C   0  0  0  0  0  0  0  0  0  0  0  0
   60.4490   29.5850   46.0910 C   0  0  0  0  0  0  0  0  0  0  0  0
   60.4210   30.5680   47.2860 C   0  0  0  0  0  0  0  0  0  0  0  0
   59.1570   30.6300   48.0750 N   0  0  1  0  0  0  0  0  0  0  0  0
   59.2770   29.9120   49.3610 C   0  0  0  0  0  0  0  0  0  0  0  0
   58.6290   31.9790   48.2370 C   0  0  0  0  0  0  0  0  0  0  0  0
   58.0680   32.2990   49.3230 O   0  0  0  0  0  0  0  0  0  0  0  0
   58.7350   33.0090   47.1490 C   0  0  0  0  0  0  0  0  0  0  0  0
   57.7060   33.1480   46.1920 C   0  0  0  0  0  0  0  0  0  0  0  0
   57.7840   34.1190   45.1910 C   0  0  0  0  0  0  0  0  0  0  0  0
   58.8810   34.9730   45.1240 C   0  0  0  0  0  0  0  0  0  0  0  0
   59.9100   34.8570   46.0550 C   0  0  0  0  0  0  0  0  0  0  0  0
   59.8550   33.8840   47.0620 C   0  0  0  0  0  0  0  0  0  0  0  0
   60.9580   33.7880   47.9690 N   0  0  0  0  0  0  0  0  0  0  0  0
   60.9110   34.1650   49.5930 S   0  0  0  0  0  0  0  0  0  0  0  0
   62.5140   33.8610   49.9440 C   0  0  0  0  0  0  0  0  0  0  0  0
   63.2040   33.9600   51.1480 C   0  0  0  0  0  0  0  0  0  0  0  0
   64.5710   33.6410   51.1470 C   0  0  0  0  0  0  0  0  0  0  0  0
   65.2110   33.2360   49.9580 C   0  0  0  0  0  0  0  0  0  0  0  0
   64.4890   33.1470   48.7540 C   0  0  0  0  0  0  0  0  0  0  0  0
   63.1280   33.4650   48.7610 C   0  0  0  0  0  0  0  0  0  0  0  0
   62.2400   33.4460   47.6660 C   0  0  0  0  0  0  0  0  0  0  0  0
   62.6030   33.1570   46.4960 O   0  0  0  0  0  0  0  0  0  0  0  0
   58.4517   31.1680   44.9009 H   0  0  0  0  0  0  0  0  0  0  0  0
   58.2755   30.0189   43.5316 H   0  0  0  0  0  0  0  0  0  0  0  0
   57.3584   31.5634   43.5316 H   0  0  0  0  0  0  0  0  0  0  0  0
   54.5460   29.9993   44.5872 H   0  0  0  0  0  0  0  0  0  0  0  0
   55.4401   30.9371   43.3432 H   0  0  0  0  0  0  0  0  0  0  0  0
   55.5180   29.1425   43.3432 H   0  0  0  0  0  0  0  0  0  0  0  0
   56.8808   28.6490   46.3849 H   0  0  0  0  0  0  0  0  0  0  0  0
   56.3747   28.0058   44.7681 H   0  0  0  0  0  0  0  0  0  0  0  0
   58.5279   27.4044   44.5099 H   0  0  0  0  0  0  0  0  0  0  0  0
   58.8275   29.1838   44.2490 H   0  0  0  0  0  0  0  0  0  0  0  0
   58.8017   28.6036   47.0820 H   0  0  0  0  0  0  0  0  0  0  0  0
   59.9603   27.4996   46.2188 H   0  0  0  0  0  0  0  0  0  0  0  0
   61.4504   29.1326   46.0402 H   0  0  0  0  0  0  0  0  0  0  0  0
   60.1994   30.1713   45.1944 H   0  0  0  0  0  0  0  0  0  0  0  0
   61.2291   30.2789   47.9740 H   0  0  0  0  0  0  0  0  0  0  0  0
   60.5316   31.5674   46.8399 H   0  0  0  0  0  0  0  0  0  0  0  0
   58.4390   30.0780   47.5520 H   0  0  0  0  0  0  0  0  0  0  0  0
   59.1580   30.6240   50.1910 H   0  0  0  0  0  0  0  0  0  0  0  0
   58.4953   29.1407   49.4246 H   0  0  0  0  0  0  0  0  0  0  0  0
   60.2670   29.4368   49.4246 H   0  0  0  0  0  0  0  0  0  0  0  0
   56.8312   32.4826   46.2354 H   0  0  0  0  0  0  0  0  0  0  0  0
   56.9743   34.2092   44.4519 H   0  0  0  0  0  0  0  0  0  0  0  0
   58.9351   35.7389   44.3363 H   0  0  0  0  0  0  0  0  0  0  0  0
   60.7741   35.5354   45.9995 H   0  0  0  0  0  0  0  0  0  0  0  0
   62.6953   34.2777   52.0701 H   0  0  0  0  0  0  0  0  0  0  0  0
   65.1475   33.7076   52.0815 H   0  0  0  0  0  0  0  0  0  0  0  0
   66.2825   32.9878   49.9718 H   0  0  0  0  0  0  0  0  0  0  0  0
   64.9862   32.8330   47.8244 H   0  0  0  0  0  0  0  0  0  0  0  0
  1  2  1  0
  2  3  1  0
  2  4  1  0
  4  5  1  0
  5  6  1  0
  6  7  1  0
  7  8  1  0
  8  9  1  0
  9 10  1  0
  9 11  1  0
 11 12  2  0
 11 13  1  0
 13 14  2  0
 14 15  1  0
 15 16  2  0
 16 17  1  0
 17 18  2  0
 18 19  1  0
 19 20  1  0
 20 21  1  0
 21 22  2  0
 22 23  1  0
 23 24  2  0
 24 25  1  0
 25 26  2  0
 26 27  1  0
 27 28  2  0
 18 13  1  0
 27 19  1  0
 26 21  1  0
  1 29  1  0
  1 30  1  0
  1 31  1  0
  3 32  1  0
  3 33  1  0
  3 34  1  0
  4 35  1  0
  4 36  1  0
  5 37  1  0
  5 38  1  0
  6 39  1  0
  6 40  1  0
  7 41  1  0
  7 42  1  0
  8 43  1  0
  8 44  1  0
  9 45  1  6
 10 46  1  0
 10 47  1  0
 10 48  1  0
 14 49  1  0
 15 50  1  0
 16 51  1  0
 17 52  1  0
 22 53  1  0
 23 54  1  0
 24 55  1  0
 25 56  1  0
M  CHG  1   9   1
M  END
>  <UniqueID>  (7) 
7

>  <SMILES>  (7) 
CN(C)CCCCC[N@@H+](C)C(=O)c1ccccc1-n1sc2ccccc2c1=O

>  <Energy>  (7) 
114.12889041981398

>  <Genealogy>  (7) 
CN(C)CCCCC[NH+](C)C(=O)c1ccccc1-n1sc2ccccc2c1=O (protonated)
CN(C)CCCCC[N@@H+](C)C(=O)c1ccccc1-n1sc2ccccc2c1=O (chirality)
CN(C)CCCCC[N@@H+](C)C(=O)c1ccccc1-n1sc2ccccc2c1=O (3D coordinates assigned)
CN(C)CCCCC[N@@H+](C)C(=O)c1ccccc1-n1sc2ccccc2c1=O (optimized conformer: 114.12889041981398 kcal/mol)

>  <smiles>  (7) 
CN(C)CCCCCN(C)C(=O)c1ccccc1-n1sc2ccccc2c1=O

>  <score_type>  (7) 
oracle

>  <origin>  (7) 
adg

>  <m_score__min__energy>  (7) 
-6.8499999999999996

>  <m_primary>  (7) 
energy

$$$$
7:0
     RDKit          3D

 50 52  0  0  1  0  0  0  0  0999 V2000
   58.9970   29.2440   44.5110 C   0  0  0  0  0  0  0  0  0  0  0  0
   58.3450   30.5280   44.1180 C   0  0  0  0  0  0  0  0  0  0  0  0
   57.1760   30.8730   44.9370 N   0  0  0  0  0  0  0  0  0  0  0  0
   56.0030   30.2390   44.3620 C   0  0  0  0  0  0  0  0  0  0  0  0
   56.2740   30.0170   42.8890 C   0  0  0  0  0  0  0  0  0  0  0  0
   57.0610   32.3030   44.8480 C   0  0  0  0  0  0  0  0  0  0  0  0
   57.4490   33.0590   46.1000 C   0  0  0  0  0  0  0  0  0  0  0  0
   58.9230   33.0320   46.0780 N   0  0  0  0  0  0  0  0  0  0  0  0
   59.5400   32.1190   46.7170 C   0  0  0  0  0  0  0  0  0  0  0  0
   58.9510   31.0020   47.1340 N   0  0  0  0  0  0  0  0  0  0  0  0
   59.7140   30.1120   47.8010 C   0  0  0  0  0  0  0  0  0  0  0  0
   59.1830   29.0220   48.2250 N   0  0  0  0  0  0  0  0  0  0  0  0
   59.0130   27.8430   47.4540 C   0  0  0  0  0  0  0  0  0  0  0  0
   57.7880   27.3980   46.9940 C   0  0  0  0  0  0  0  0  0  0  0  0
   57.7690   26.2260   46.2400 C   0  0  0  0  0  0  0  0  0  0  0  0
   58.9330   25.5240   45.9540 C   0  0  0  0  0  0  0  0  0  0  0  0
   60.1560   25.9730   46.4160 C   0  0  0  0  0  0  0  0  0  0  0  0
   60.1860   27.1310   47.1640 C   0  0  0  0  0  0  0  0  0  0  0  0
   61.0230   30.3110   48.0560 N   0  0  0  0  0  0  0  0  0  0  0  0
   61.6320   31.4170   47.6520 C   0  0  0  0  0  0  0  0  0  0  0  0
   62.9720   31.6900   47.8790 C   0  0  0  0  0  0  0  0  0  0  0  0
   63.5340   32.8730   47.4240 C   0  0  0  0  0  0  0  0  0  0  0  0
   62.8090   33.8270   46.7340 C   0  0  0  0  0  0  0  0  0  0  0  0
   61.4780   33.5480   46.5130 C   0  0  0  0  0  0  0  0  0  0  0  0
   60.8990   32.3590   46.9650 C   0  0  0  0  0  0  0  0  0  0  0  0
   59.0335   29.1721   45.6080 H   0  0  0  0  0  0  0  0  0  0  0  0
   58.4182   28.4002   44.1073 H   0  0  0  0  0  0  0  0  0  0  0  0
   60.0198   29.2135   44.1073 H   0  0  0  0  0  0  0  0  0  0  0  0
   59.0853   31.3361   44.2121 H   0  0  0  0  0  0  0  0  0  0  0  0
   57.9876   30.4033   43.0852 H   0  0  0  0  0  0  0  0  0  0  0  0
   55.8174   29.2749   44.8581 H   0  0  0  0  0  0  0  0  0  0  0  0
   55.1159   30.8750   44.4985 H   0  0  0  0  0  0  0  0  0  0  0  0
   57.1201   29.3239   42.7722 H   0  0  0  0  0  0  0  0  0  0  0  0
   55.3802   29.5881   42.4123 H   0  0  0  0  0  0  0  0  0  0  0  0
   56.5185   30.9777   42.4123 H   0  0  0  0  0  0  0  0  0  0  0  0
   57.7093   32.6463   44.0283 H   0  0  0  0  0  0  0  0  0  0  0  0
   55.9943   32.5140   44.6819 H   0  0  0  0  0  0  0  0  0  0  0  0
   57.0745   34.0927   46.0666 H   0  0  0  0  0  0  0  0  0  0  0  0
   57.0268   32.6169   47.0145 H   0  0  0  0  0  0  0  0  0  0  0  0
   57.9270   30.8040   46.9540 H   0  0  0  0  0  0  0  0  0  0  0  0
   56.8618   27.9488   47.2149 H   0  0  0  0  0  0  0  0  0  0  0  0
   56.8080   25.8473   45.8618 H   0  0  0  0  0  0  0  0  0  0  0  0
   58.8811   24.6030   45.3548 H   0  0  0  0  0  0  0  0  0  0  0  0
   61.0810   25.4210   46.1928 H   0  0  0  0  0  0  0  0  0  0  0  0
   61.1497   27.5040   47.5410 H   0  0  0  0  0  0  0  0  0  0  0  0
   61.5590   29.5800   48.5800 H   0  0  0  0  0  0  0  0  0  0  0  0
   63.5932   30.9636   48.4235 H   0  0  0  0  0  0  0  0  0  0  0  0
   64.6001   33.0602   47.6199 H   0  0  0  0  0  0  0  0  0  0  0  0
   63.2710   34.7604   46.3799 H   0  0  0  0  0  0  0  0  0  0  0  0
   60.8581   34.2762   45.9695 H   0  0  0  0  0  0  0  0  0  0  0  0
  1  2  1  0
  2  3  1  0
  3  4  1  0
  4  5  1  0
  3  6  1  0
  6  7  1  0
  7  8  1  0
  8  9  2  0
  9 10  1  0
 10 11  1  0
 11 12  2  0
 12 13  1  0
 13 14  2  0
 14 15  1  0
 15 16  2  0
 16 17  1  0
 17 18  2  0
 11 19  1  0
 19 20  1  0
 20 21  2  0
 21 22  1  0
 22 23  2  0
 23 24  1  0
 24 25  2  0
 25  9  1  0
 18 13  1  0
 25 20  1  0
  1 26  1  0
  1 27  1  0
  1 28  1  0
  2 29  1  0
  2 30  1  0
  4 31  1  0
  4 32  1  0
  5 33  1  0
  5 34  1  0
  5 35  1  0
  6 36  1  0
  6 37  1  0
  7 38  1  0
  7 39  1  0
 10 40  1  0
 14 41  1  0
 15 42  1  0
 16 43  1  0
 17 44  1  0
 18 45  1  0
 19 46  1  0
 21 47  1  0
 22 48  1  0
 23 49  1  0
 24 50  1  0
M  END
>  <smiles>  (8) 
CCN(CC)CCN=c1[nH]c(=Nc2ccccc2)[nH]c2ccccc12

>  <score_type>  (8) 
oracle

>  <origin>  (8) 
adg

>  <m_score__min__energy>  (8) 
-7.7199999999999998

>  <m_primary>  (8) 
energy

$$$$
8:0
     RDKit          3D

 35 37  0  0  1  0  0  0  0  0999 V2000
   64.0860   32.8750   48.6240 C   0  0  0  0  0  0  0  0  0  0  0  0
   62.7760   33.3740   48.1500 C   0  0  0  0  0  0  0  0  0  0  0  0
   61.8610   33.7550   49.1060 C   0  0  0  0  0  0  0  0  0  0  0  0
   60.6430   34.2170   48.6500 C   0  0  0  0  0  0  0  0  0  0  0  0
   60.3710   34.2890   47.2980 C   0  0  0  0  0  0  0  0  0  0  0  0
   59.0200   34.8040   46.8080 C   0  0  0  0  0  0  0  0  0  0  0  0
   58.1400   33.6890   47.0180 N   0  0  0  0  0  0  0  0  0  0  0  0
   58.3020   32.5140   46.5680 C   0  0  0  0  0  0  0  0  0  0  0  0
   58.6710   31.5300   47.4620 C   0  0  0  0  0  0  0  0  0  0  0  0
   58.8670   30.2280   47.0490 C   0  0  0  0  0  0  0  0  0  0  0  0
   59.2660   29.1380   47.9830 C   0  0  0  0  0  0  0  0  0  0  0  0
   58.6750   29.9880   45.7350 N   0  0  0  0  0  0  0  0  0  0  0  0
   58.3130   30.9730   44.8810 C   0  0  0  0  0  0  0  0  0  0  0  0
   58.0920   30.8670   43.5650 N   0  0  0  0  0  0  0  0  0  0  0  0
   57.7590   32.0970   43.1540 C   0  0  0  0  0  0  0  0  0  0  0  0
   57.7720   32.9920   44.2330 C   0  0  0  0  0  0  0  0  0  0  0  0
   58.1190   32.2520   45.2770 N   0  0  0  0  0  0  0  0  0  0  0  0
   61.3330   33.8900   46.3710 C   0  0  0  0  0  0  0  0  0  0  0  0
   62.5560   33.4240   46.8010 C   0  0  0  0  0  0  0  0  0  0  0  0
   64.1002   32.8696   49.7239 H   0  0  0  0  0  0  0  0  0  0  0  0
   64.2461   31.8529   48.2502 H   0  0  0  0  0  0  0  0  0  0  0  0
   64.8855   33.5315   48.2502 H   0  0  0  0  0  0  0  0  0  0  0  0
   62.0896   33.6941   50.1803 H   0  0  0  0  0  0  0  0  0  0  0  0
   59.8776   34.5325   49.3742 H   0  0  0  0  0  0  0  0  0  0  0  0
   58.6958   35.6766   47.3941 H   0  0  0  0  0  0  0  0  0  0  0  0
   59.0437   35.1398   45.7608 H   0  0  0  0  0  0  0  0  0  0  0  0
   58.8114   31.7878   48.5221 H   0  0  0  0  0  0  0  0  0  0  0  0
   59.1407   29.4803   49.0209 H   0  0  0  0  0  0  0  0  0  0  0  0
   58.6325   28.2557   47.8089 H   0  0  0  0  0  0  0  0  0  0  0  0
   60.3194   28.8732   47.8089 H   0  0  0  0  0  0  0  0  0  0  0  0
   58.1590   30.0090   42.9610 H   0  0  0  0  0  0  0  0  0  0  0  0
   57.5105   32.3669   42.1170 H   0  0  0  0  0  0  0  0  0  0  0  0
   57.5449   34.0682   44.2170 H   0  0  0  0  0  0  0  0  0  0  0  0
   61.1150   33.9474   45.2943 H   0  0  0  0  0  0  0  0  0  0  0  0
   63.3276   33.1037   46.0854 H   0  0  0  0  0  0  0  0  0  0  0  0
  1  2  1  0
  2  3  2  0
  3  4  1  0
  4  5  2  0
  5  6  1  0
  6  7  1  0
  7  8  2  0
  8  9  1  0
  9 10  2  0
 10 11  1  0
 10 12  1  0
 12 13  2  0
 13 14  1  0
 14 15  1  0
 15 16  2  0
 16 17  1  0
  5 18  1  0
 18 19  2  0
 19  2  1  0
 17  8  1  0
 17 13  1  0
  1 20  1  0
  1 21  1  0
  1 22  1  0
  3 23  1  0
  4 24  1  0
  6 25  1  0
  6 26  1  0
  9 27  1  0
 11 28  1  0
 11 29  1  0
 11 30  1  0
 14 31  1  0
 15 32  1  0
 16 33  1  0
 18 34  1  0
 19 35  1  0
M  END
>  <smiles>  (9) 
Cc1ccc(CN=c2cc(C)nc3[nH]ccn23)cc1

>  <score_type>  (9) 
oracle

>  <origin>  (9) 
adg

>  <m_score__min__energy>  (9) 
-6.7800000000000002

>  <m_primary>  (9) 
energy

$$$$
9:0
     RDKit          3D

 34 35  0  0  0  0  0  0  0  0999 V2000
   60.7430   27.8330   49.7230 C   0  0  0  0  0  0  0  0  0  0  0  0
   60.5380   27.3800   48.3890 O   0  0  0  0  0  0  0  0  0  0  0  0
   59.4480   27.7480   47.5850 C   0  0  0  0  0  0  0  0  0  0  0  0
   59.2380   29.0710   47.1610 C   0  0  0  0  0  0  0  0  0  0  0  0
   58.1410   29.3870   46.3560 C   0  0  0  0  0  0  0  0  0  0  0  0
   57.2300   28.3880   45.9630 C   0  0  0  0  0  0  0  0  0  0  0  0
   56.1270   28.6750   45.1430 O   0  0  0  0  0  0  0  0  0  0  0  0
   56.1280   29.6350   44.0920 C   0  0  0  0  0  0  0  0  0  0  0  0
   57.4330   27.0650   46.4000 C   0  0  0  0  0  0  0  0  0  0  0  0
   56.3100   25.7800   45.9390 S   0  0  0  0  0  0  0  0  0  0  0  0
   56.4130   24.6190   46.8870 O   0  0  0  0  0  0  0  0  0  0  0  0
   54.9100   26.3250   45.9820 O   0  0  0  0  0  0  0  0  0  0  0  0
   56.6480   25.2190   44.3310 N   0  0  0  0  0  0  0  0  0  0  0  0
   56.8440   23.8370   43.9820 C   0  0  0  0  0  0  0  0  0  0  0  0
   57.9260   23.1360   44.5340 C   0  0  0  0  0  0  0  0  0  0  0  0
   58.1320   21.7920   44.2150 C   0  0  0  0  0  0  0  0  0  0  0  0
   57.2490   21.1560   43.3420 C   0  0  0  0  0  0  0  0  0  0  0  0
   56.2030   21.8420   42.8130 N   0  0  0  0  0  0  0  0  0  0  0  0
   55.9810   23.1510   43.1070 C   0  0  0  0  0  0  0  0  0  0  0  0
   58.5460   26.7550   47.1960 C   0  0  0  0  0  0  0  0  0  0  0  0
   60.3951   27.0643   50.4288 H   0  0  0  0  0  0  0  0  0  0  0  0
   61.8144   28.0220   49.8855 H   0  0  0  0  0  0  0  0  0  0  0  0
   60.1779   28.7626   49.8855 H   0  0  0  0  0  0  0  0  0  0  0  0
   59.9405   29.8613   47.4643 H   0  0  0  0  0  0  0  0  0  0  0  0
   57.9876   30.4252   46.0263 H   0  0  0  0  0  0  0  0  0  0  0  0
   56.1291   30.6480   44.5207 H   0  0  0  0  0  0  0  0  0  0  0  0
   57.0260   29.4985   43.4716 H   0  0  0  0  0  0  0  0  0  0  0  0
   55.2297   29.5004   43.4716 H   0  0  0  0  0  0  0  0  0  0  0  0
   56.7180   25.9450   43.5830 H   0  0  0  0  0  0  0  0  0  0  0  0
   58.6158   23.6472   45.2216 H   0  0  0  0  0  0  0  0  0  0  0  0
   58.9806   21.2413   44.6471 H   0  0  0  0  0  0  0  0  0  0  0  0
   57.4001   20.0979   43.0819 H   0  0  0  0  0  0  0  0  0  0  0  0
   55.1240   23.6756   42.6594 H   0  0  0  0  0  0  0  0  0  0  0  0
   58.7105   25.7161   47.5180 H   0  0  0  0  0  0  0  0  0  0  0  0
  1  2  1  0
  2  3  1  0
  3  4  2  0
  4  5  1  0
  5  6  2  0
  6  7  1  0
  7  8  1  0
  6  9  1  0
  9 10  1  0
 10 11  2  0
 10 12  2  0
 10 13  1  0
 13 14  1  0
 14 15  2  0
 15 16  1  0
 16 17  2  0
 17 18  1  0
 18 19  2  0
  9 20  2  0
 20  3  1  0
 19 14  1  0
  1 21  1  0
  1 22  1  0
  1 23  1  0
  4 24  1  0
  5 25  1  0
  8 26  1  0
  8 27  1  0
  8 28  1  0
 13 29  1  0
 15 30  1  0
 16 31  1  0
 17 32  1  0
 19 33  1  0
 20 34  1  0
M  END
>  <UniqueID>  (10) 
8

>  <SMILES>  (10) 
COc1ccc(OC)c(S(=O)(=O)Nc2cccnc2)c1

>  <Energy>  (10) 
37.49920340646417

>  <Genealogy>  (10) 
COc1ccc(OC)c(S(=O)(=O)Nc2cccnc2)c1 (3D coordinates assigned)
COc1ccc(OC)c(S(=O)(=O)Nc2cccnc2)c1 (optimized conformer: 37.49920340646417 kcal/mol)

>  <smiles>  (10) 
COc1ccc(OC)c(S(=O)(=O)Nc2cccnc2)c1

>  <score_type>  (10) 
oracle

>  <origin>  (10) 
adg

>  <m_score__min__energy>  (10) 
-7.0700000000000003

>  <m_primary>  (10) 
energy

$$$$
10:0
     RDKit          3D

 38 40  0  0  1  0  0  0  0  0999 V2000
   56.6950   23.5280   48.0410 C   0  0  0  0  0  0  0  0  0  0  0  0
   57.4880   23.9110   46.9260 O   0  0  0  0  0  0  0  0  0  0  0  0
   57.6190   25.2700   46.6700 C   0  0  0  0  0  0  0  0  0  0  0  0
   58.8420   25.8850   46.8400 C   0  0  0  0  0  0  0  0  0  0  0  0
   59.0020   27.2310   46.5940 C   0  0  0  0  0  0  0  0  0  0  0  0
   60.2000   27.8140   46.7650 N   0  0  0  0  0  0  0  0  0  0  0  0
   60.3040   29.1330   46.5110 C   0  0  0  0  0  0  0  0  0  0  0  0
   59.2670   29.8870   46.0970 N   0  0  0  0  0  0  0  0  0  0  0  0
   58.0880   29.3050   45.9310 C   0  0  0  0  0  0  0  0  0  0  0  0
   57.0960   30.0370   45.5320 N   0  0  0  0  0  0  0  0  0  0  0  0
   57.2200   30.7690   44.3000 C   0  0  0  0  0  0  0  0  0  0  0  0
   57.9240   31.9490   44.2360 C   0  0  0  0  0  0  0  0  0  0  0  0
   57.9870   32.5840   42.9960 C   0  0  0  0  0  0  0  0  0  0  0  0
   57.3480   31.9970   41.9190 C   0  0  0  0  0  0  0  0  0  0  0  0
   57.3850   32.6380   40.5680 C   0  0  0  0  0  0  0  0  0  0  0  0
   56.6650   30.8410   42.0100 N   0  0  0  0  0  0  0  0  0  0  0  0
   56.5890   30.2010   43.2060 C   0  0  0  0  0  0  0  0  0  0  0  0
   57.8990   27.9490   46.1720 C   0  0  0  0  0  0  0  0  0  0  0  0
   56.6530   27.3650   45.9890 C   0  0  0  0  0  0  0  0  0  0  0  0
   56.5250   26.0150   46.2450 C   0  0  0  0  0  0  0  0  0  0  0  0
   55.3310   25.3210   46.0980 O   0  0  0  0  0  0  0  0  0  0  0  0
   55.0840   24.3510   45.1170 C   0  0  0  0  0  0  0  0  0  0  0  0
   57.2232   23.7831   48.9715 H   0  0  0  0  0  0  0  0  0  0  0  0
   55.7333   24.0609   48.0073 H   0  0  0  0  0  0  0  0  0  0  0  0
   56.5145   22.4434   48.0073 H   0  0  0  0  0  0  0  0  0  0  0  0
   59.7039   25.2907   47.1776 H   0  0  0  0  0  0  0  0  0  0  0  0
   61.0370   27.2540   47.0880 H   0  0  0  0  0  0  0  0  0  0  0  0
   61.2821   29.6174   46.6481 H   0  0  0  0  0  0  0  0  0  0  0  0
   58.4157   32.3731   45.1239 H   0  0  0  0  0  0  0  0  0  0  0  0
   58.5332   33.5314   42.8771 H   0  0  0  0  0  0  0  0  0  0  0  0
   57.4480   33.7303   40.6820 H   0  0  0  0  0  0  0  0  0  0  0  0
   58.2637   32.2758   40.0142 H   0  0  0  0  0  0  0  0  0  0  0  0
   56.4704   32.3793   40.0142 H   0  0  0  0  0  0  0  0  0  0  0  0
   56.0389   29.2534   43.3031 H   0  0  0  0  0  0  0  0  0  0  0  0
   55.7928   27.9609   45.6498 H   0  0  0  0  0  0  0  0  0  0  0  0
   54.8402   23.3938   45.6010 H   0  0  0  0  0  0  0  0  0  0  0  0
   54.2386   24.6706   44.4900 H   0  0  0  0  0  0  0  0  0  0  0  0
   55.9793   24.2273   44.4900 H   0  0  0  0  0  0  0  0  0  0  0  0
  1  2  1  0
  2  3  1  0
  3  4  2  0
  4  5  1  0
  5  6  1  0
  6  7  1  0
  7  8  2  0
  8  9  1  0
  9 10  2  0
 10 11  1  0
 11 12  2  0
 12 13  1  0
 13 14  2  0
 14 15  1  0
 14 16  1  0
 16 17  2  0
  9 18  1  0
 18 19  1  0
 19 20  2  0
 20 21  1  0
 21 22  1  0
 20  3  1  0
 18  5  2  0
 17 11  1  0
  1 23  1  0
  1 24  1  0
  1 25  1  0
  4 26  1  0
  6 27  1  0
  7 28  1  0
 12 29  1  0
 13 30  1  0
 15 31  1  0
 15 32  1  0
 15 33  1  0
 17 34  1  0
 19 35  1  0
 22 36  1  0
 22 37  1  0
 22 38  1  0
M  END
>  <smiles>  (11) 
COc1cc2[nH]cnc(=Nc3ccc(C)nc3)c2cc1OC

>  <score_type>  (11) 
oracle

>  <origin>  (11) 
adg

>  <m_score__min__energy>  (11) 
-6.54

>  <m_primary>  (11) 
energy

$$$$
11:0
     RDKit          3D

 37 39  0  0  1  0  0  0  0  0999 V2000
   57.1520   34.4160   44.9340 C   0  0  0  0  0  0  0  0  0  0  0  0
   58.5600   34.3060   45.2610 N   0  0  0  0  0  0  0  0  0  0  0  0
   58.9990   33.1870   45.6850 C   0  0  0  0  0  0  0  0  0  0  0  0
   58.3950   31.9930   45.3250 C   0  0  0  0  0  0  0  0  0  0  0  0
   58.9320   30.8150   45.8270 C   0  0  0  0  0  0  0  0  0  0  0  0
   58.3600   29.4880   45.5020 C   0  0  0  0  0  0  0  0  0  0  0  0
   57.8150   29.3990   44.1780 N   0  0  0  0  0  0  0  0  0  0  0  0
   56.4100   29.4220   43.9070 C   0  0  0  0  0  0  0  0  0  0  0  0
   55.9570   29.3290   42.5580 N   0  0  0  0  0  0  0  0  0  0  0  0
   55.6300   29.5250   44.8890 O   0  0  0  0  0  0  0  0  0  0  0  0
   60.0010   30.8570   46.6340 N   0  0  0  0  0  0  0  0  0  0  0  0
   60.5540   32.0210   46.9600 C   0  0  0  0  0  0  0  0  0  0  0  0
   61.7070   32.0800   47.8280 C   0  0  0  0  0  0  0  0  0  0  0  0
   62.0860   31.4490   48.9600 C   0  0  0  0  0  0  0  0  0  0  0  0
   63.2560   31.7440   49.5360 C   0  0  0  0  0  0  0  0  0  0  0  0
   63.8100   31.1880   50.7140 C   0  0  0  0  0  0  0  0  0  0  0  0
   65.0320   31.6100   51.1670 C   0  0  0  0  0  0  0  0  0  0  0  0
   65.8030   32.5710   50.5480 C   0  0  0  0  0  0  0  0  0  0  0  0
   65.2630   33.1210   49.3900 C   0  0  0  0  0  0  0  0  0  0  0  0
   64.0610   32.6960   48.9580 C   0  0  0  0  0  0  0  0  0  0  0  0
   63.1330   33.2520   47.4730 S   0  0  0  0  0  0  0  0  0  0  0  0
   60.0670   33.1820   46.4950 N   0  0  0  0  0  0  0  0  0  0  0  0
   56.5626   34.4620   45.8617 H   0  0  0  0  0  0  0  0  0  0  0  0
   56.9824   35.3301   44.3461 H   0  0  0  0  0  0  0  0  0  0  0  0
   56.8425   33.5393   44.3461 H   0  0  0  0  0  0  0  0  0  0  0  0
   57.5173   31.9788   44.6621 H   0  0  0  0  0  0  0  0  0  0  0  0
   59.1552   28.7344   45.6007 H   0  0  0  0  0  0  0  0  0  0  0  0
   57.5285   29.3183   46.2019 H   0  0  0  0  0  0  0  0  0  0  0  0
   58.4880   29.3130   43.3720 H   0  0  0  0  0  0  0  0  0  0  0  0
   56.0980   28.3770   42.1060 H   0  0  0  0  0  0  0  0  0  0  0  0
   55.5190   30.1280   42.0450 H   0  0  0  0  0  0  0  0  0  0  0  0
   60.4010   29.9760   47.0100 H   0  0  0  0  0  0  0  0  0  0  0  0
   61.4298   30.6895   49.4100 H   0  0  0  0  0  0  0  0  0  0  0  0
   63.2574   30.4145   51.2675 H   0  0  0  0  0  0  0  0  0  0  0  0
   65.4246   31.1513   52.0865 H   0  0  0  0  0  0  0  0  0  0  0  0
   66.7809   32.8823   50.9439 H   0  0  0  0  0  0  0  0  0  0  0  0
   65.8122   33.8947   48.8334 H   0  0  0  0  0  0  0  0  0  0  0  0
  1  2  1  0
  2  3  2  0
  3  4  1  0
  4  5  2  0
  5  6  1  0
  6  7  1  0
  7  8  1  0
  8  9  1  0
  8 10  2  0
  5 11  1  0
 11 12  1  0
 12 13  1  0
 13 14  2  0
 14 15  1  0
 15 16  2  0
 16 17  1  0
 17 18  2  0
 18 19  1  0
 19 20  2  0
 20 21  1  0
 12 22  2  0
 22  3  1  0
 21 13  1  0
 20 15  1  0
  1 23  1  0
  1 24  1  0
  1 25  1  0
  4 26  1  0
  6 27  1  0
  6 28  1  0
  7 29  1  0
  9 30  1  0
  9 31  1  0
 11 32  1  0
 14 33  1  0
 16 34  1  0
 17 35  1  0
 18 36  1  0
 19 37  1  0
M  END
>  <smiles>  (12) 
CN=c1cc(CNC(N)=O)[nH]c(-c2cc3ccccc3s2)n1

>  <score_type>  (12) 
oracle

>  <origin>  (12) 
adg

>  <m_score__min__energy>  (12) 
-7.5599999999999996

>  <m_primary>  (12) 
energy

$$$$
12:0
     RDKit          3D

 47 49  0  0  0  0  0  0  0  0999 V2000
   57.7210   31.7480   42.2280 C   0  0  0  0  0  0  0  0  0  0  0  0
   57.8480   32.1540   43.6620 C   0  0  0  0  0  0  0  0  0  0  0  0
   58.1290   33.4060   44.0700 N   0  0  0  0  0  0  0  0  0  0  0  0
   58.2340   33.4120   45.3900 N   0  0  0  0  0  0  0  0  0  0  0  0
   58.6210   34.5930   46.1640 C   0  0  0  0  0  0  0  0  0  0  0  0
   59.8310   34.2900   47.0040 C   0  0  0  0  0  0  0  0  0  0  0  0
   61.0230   33.8520   46.4090 C   0  0  0  0  0  0  0  0  0  0  0  0
   62.1520   33.5950   47.1920 C   0  0  0  0  0  0  0  0  0  0  0  0
   62.1120   33.7750   48.5880 C   0  0  0  0  0  0  0  0  0  0  0  0
   63.2830   33.5170   49.3990 N   0  0  0  0  0  0  0  0  0  0  0  0
   63.2220   33.7340   50.8590 C   0  0  0  0  0  0  0  0  0  0  0  0
   64.5940   33.9510   51.4410 C   0  0  0  0  0  0  0  0  0  0  0  0
   65.6450   33.2940   50.9430 C   0  0  0  0  0  0  0  0  0  0  0  0
   65.4530   32.3550   49.7910 C   0  0  0  0  0  0  0  0  0  0  0  0
   64.5030   32.9800   48.7620 C   0  0  0  0  0  0  0  0  0  0  0  0
   60.9130   34.2170   49.1770 C   0  0  0  0  0  0  0  0  0  0  0  0
   59.7850   34.4710   48.3930 C   0  0  0  0  0  0  0  0  0  0  0  0
   58.0300   32.1560   45.8540 C   0  0  0  0  0  0  0  0  0  0  0  0
   58.1730   31.7320   47.2860 C   0  0  0  0  0  0  0  0  0  0  0  0
   57.8050   31.3180   44.7680 C   0  0  0  0  0  0  0  0  0  0  0  0
   57.5490   29.8390   44.7820 C   0  0  0  0  0  0  0  0  0  0  0  0
   56.0790   29.5710   44.8150 C   0  0  0  0  0  0  0  0  0  0  0  0
   55.2640   30.4740   44.4880 O   0  0  0  0  0  0  0  0  0  0  0  0
   55.6040   28.3400   45.2450 O   0  0  0  0  0  0  0  0  0  0  0  0
   57.3930   30.6996   42.1714 H   0  0  0  0  0  0  0  0  0  0  0  0
   56.9811   32.3911   41.7290 H   0  0  0  0  0  0  0  0  0  0  0  0
   58.6955   31.8548   41.7290 H   0  0  0  0  0  0  0  0  0  0  0  0
   58.2690   34.2390   43.4550 H   0  0  0  0  0  0  0  0  0  0  0  0
   58.8543   35.4184   45.4753 H   0  0  0  0  0  0  0  0  0  0  0  0
   57.7884   34.8783   46.8238 H   0  0  0  0  0  0  0  0  0  0  0  0
   61.0698   33.7098   45.3192 H   0  0  0  0  0  0  0  0  0  0  0  0
   63.0800   33.2490   46.7134 H   0  0  0  0  0  0  0  0  0  0  0  0
   62.6025   34.6197   51.0634 H   0  0  0  0  0  0  0  0  0  0  0  0
   62.7870   32.8370   51.3240 H   0  0  0  0  0  0  0  0  0  0  0  0
   64.7308   34.6518   52.2777 H   0  0  0  0  0  0  0  0  0  0  0  0
   66.6454   33.4413   51.3759 H   0  0  0  0  0  0  0  0  0  0  0  0
   66.4252   32.1561   49.3164 H   0  0  0  0  0  0  0  0  0  0  0  0
   65.0198   31.4133   50.1592 H   0  0  0  0  0  0  0  0  0  0  0  0
   65.0255   33.7989   48.2459 H   0  0  0  0  0  0  0  0  0  0  0  0
   64.2019   32.1950   48.0526 H   0  0  0  0  0  0  0  0  0  0  0  0
   60.8634   34.3640   50.2660 H   0  0  0  0  0  0  0  0  0  0  0  0
   58.8549   34.8152   48.8688 H   0  0  0  0  0  0  0  0  0  0  0  0
   57.8916   32.5664   47.9453 H   0  0  0  0  0  0  0  0  0  0  0  0
   57.5151   30.8724   47.4813 H   0  0  0  0  0  0  0  0  0  0  0  0
   59.2172   31.4464   47.4813 H   0  0  0  0  0  0  0  0  0  0  0  0
   57.9808   29.3867   43.8770 H   0  0  0  0  0  0  0  0  0  0  0  0
   58.0141   29.4022   45.6780 H   0  0  0  0  0  0  0  0  0  0  0  0
  1  2  1  0
  2  3  2  0
  3  4  1  0
  4  5  1  0
  5  6  1  0
  6  7  2  0
  7  8  1  0
  8  9  2  0
  9 10  1  0
 10 11  1  0
 11 12  1  0
 12 13  2  0
 13 14  1  0
 14 15  1  0
  9 16  1  0
 16 17  2  0
  4 18  1  0
 18 19  1  0
 18 20  2  0
 20 21  1  0
 21 22  1  0
 22 23  2  0
 22 24  1  0
 20  2  1  0
 17  6  1  0
 15 10  1  0
  1 25  1  0
  1 26  1  0
  1 27  1  0
  3 28  1  0
  5 29  1  0
  5 30  1  0
  7 31  1  0
  8 32  1  0
 11 33  1  0
 11 34  1  0
 12 35  1  0
 13 36  1  0
 14 37  1  0
 14 38  1  0
 15 39  1  0
 15 40  1  0
 16 41  1  0
 17 42  1  0
 19 43  1  0
 19 44  1  0
 19 45  1  0
 21 46  1  0
 21 47  1  0
M  CHG  2   3   1  24  -1
M  END
>  <UniqueID>  (13) 
9

>  <SMILES>  (13) 
Cc1[nH+]n(Cc2ccc(N3CC=CCC3)cc2)c(C)c1CC(=O)[O-]

>  <Energy>  (13) 
76.07762164307634

>  <Genealogy>  (13) 
Cc1[nH+]n(Cc2ccc(N3CC=CCC3)cc2)c(C)c1CC(=O)[O-] (protonated)
Cc1[nH+]n(Cc2ccc(N3CC=CCC3)cc2)c(C)c1CC(=O)[O-] (3D coordinates assigned)
Cc1[nH+]n(Cc2ccc(N3CC=CCC3)cc2)c(C)c1CC(=O)[O-] (nonaromatic ring conformer: 76.07762164307634 kcal/mol)

>  <smiles>  (13) 
Cc1nn(Cc2ccc(N3CC=CCC3)cc2)c(C)c1CC(=O)O

>  <score_type>  (13) 
oracle

>  <origin>  (13) 
adg

>  <m_score__min__energy>  (13) 
-9.7100000000000009

>  <m_primary>  (13) 
energy

$$$$
13:0
     RDKit          3D

 43 47  0  0  0  0  0  0  0  0999 V2000
   55.8400   25.6240   45.6420 C   0  0  0  0  0  0  0  0  0  0  0  0
   56.0510   27.0330   45.6250 O   0  0  0  0  0  0  0  0  0  0  0  0
   57.1750   27.6860   46.1530 C   0  0  0  0  0  0  0  0  0  0  0  0
   58.1300   26.9760   46.9060 C   0  0  0  0  0  0  0  0  0  0  0  0
   59.2470   27.6190   47.4330 C   0  0  0  0  0  0  0  0  0  0  0  0
   59.4390   28.9860   47.2230 C   0  0  0  0  0  0  0  0  0  0  0  0
   60.5580   29.6310   47.7590 C   0  0  0  0  0  0  0  0  0  0  0  0
   60.7440   31.0090   47.5500 C   0  0  0  0  0  0  0  0  0  0  0  0
   59.8440   31.7030   46.7750 N   0  0  0  0  0  0  0  0  0  0  0  0
   58.7340   31.0890   46.2630 C   0  0  0  0  0  0  0  0  0  0  0  0
   58.5030   29.7180   46.4670 C   0  0  0  0  0  0  0  0  0  0  0  0
   57.3620   29.0770   45.9280 C   0  0  0  0  0  0  0  0  0  0  0  0
   56.4590   29.8650   45.1830 O   0  0  0  0  0  0  0  0  0  0  0  0
   56.2760   29.8520   43.7720 C   0  0  0  0  0  0  0  0  0  0  0  0
   60.0120   33.1510   46.5570 C   0  0  0  0  0  0  0  0  0  0  0  0
   61.4890   33.5180   46.3850 C   0  0  0  0  0  0  0  0  0  0  0  0
   62.2910   32.9760   47.5320 C   0  0  0  0  0  0  0  0  0  0  0  0
   63.4200   33.6790   48.0020 C   0  0  0  0  0  0  0  0  0  0  0  0
   64.1380   33.1290   49.0580 C   0  0  0  0  0  0  0  0  0  0  0  0
   63.7860   31.9530   49.6300 C   0  0  0  0  0  0  0  0  0  0  0  0
   62.6900   31.2150   49.1910 C   0  0  0  0  0  0  0  0  0  0  0  0
   61.9340   31.7220   48.1030 C   0  0  0  0  0  0  0  0  0  0  0  0
   64.6630   31.6590   50.6560 O   0  0  0  0  0  0  0  0  0  0  0  0
   65.6290   32.7170   50.7300 C   0  0  0  0  0  0  0  0  0  0  0  0
   65.2570   33.6340   49.6910 O   0  0  0  0  0  0  0  0  0  0  0  0
   55.7875   25.2736   46.6834 H   0  0  0  0  0  0  0  0  0  0  0  0
   54.8965   25.3883   45.1279 H   0  0  0  0  0  0  0  0  0  0  0  0
   56.6730   25.1223   45.1279 H   0  0  0  0  0  0  0  0  0  0  0  0
   57.9917   25.8987   47.0802 H   0  0  0  0  0  0  0  0  0  0  0  0
   59.9822   27.0469   48.0180 H   0  0  0  0  0  0  0  0  0  0  0  0
   61.2934   29.0599   48.3447 H   0  0  0  0  0  0  0  0  0  0  0  0
   58.0098   31.6786   45.6816 H   0  0  0  0  0  0  0  0  0  0  0  0
   55.2030   29.7758   43.5421 H   0  0  0  0  0  0  0  0  0  0  0  0
   56.6781   30.7810   43.3415 H   0  0  0  0  0  0  0  0  0  0  0  0
   56.8054   28.9892   43.3415 H   0  0  0  0  0  0  0  0  0  0  0  0
   59.4618   33.4435   45.6505 H   0  0  0  0  0  0  0  0  0  0  0  0
   59.6212   33.6832   47.4368 H   0  0  0  0  0  0  0  0  0  0  0  0
   61.8635   33.0888   45.4440 H   0  0  0  0  0  0  0  0  0  0  0  0
   61.5879   34.6133   46.3617 H   0  0  0  0  0  0  0  0  0  0  0  0
   63.7232   34.6334   47.5469 H   0  0  0  0  0  0  0  0  0  0  0  0
   62.4179   30.2651   49.6744 H   0  0  0  0  0  0  0  0  0  0  0  0
   65.5884   33.2094   51.7128 H   0  0  0  0  0  0  0  0  0  0  0  0
   66.6572   32.3467   50.6051 H   0  0  0  0  0  0  0  0  0  0  0  0
  1  2  1  0
  2  3  1  0
  3  4  2  0
  4  5  1  0
  5  6  2  0
  6  7  1  0
  7  8  2  0
  8  9  1  0
  9 10  2  0
 10 11  1  0
 11 12  2  0
 12 13  1  0
 13 14  1  0
  9 15  1  0
 15 16  1  0
 16 17  1  0
 17 18  2  0
 18 19  1  0
 19 20  2  0
 20 21  1  0
 21 22  2  0
 20 23  1  0
 23 24  1  0
 24 25  1  0
 12  3  1  0
 22 17  1  0
 11  6  1  0
 25 19  1  0
 22  8  1  0
  1 26  1  0
  1 27  1  0
  1 28  1  0
  4 29  1  0
  5 30  1  0
  7 31  1  0
 10 32  1  0
 14 33  1  0
 14 34  1  0
 14 35  1  0
 15 36  1  0
 15 37  1  0
 16 38  1  0
 16 39  1  0
 18 40  1  0
 21 41  1  0
 24 42  1  0
 24 43  1  0
M  CHG  1   9   1
M  END
>  <UniqueID>  (14) 
10

>  <SMILES>  (14) 
COc1ccc2cc3[n+](cc2c1OC)CCc1cc2c(cc1-3)OCO2

>  <Energy>  (14) 
89.00520608263898

>  <Genealogy>  (14) 
COc1ccc2cc3[n+](cc2c1OC)CCc1cc2c(cc1-3)OCO2 (3D coordinates assigned)
COc1ccc2cc3[n+](cc2c1OC)CCc1cc2c(cc1-3)OCO2 (nonaromatic ring conformer: 89.00520608263898 kcal/mol)

>  <smiles>  (14) 
COc1ccc2cc3[n+](cc2c1OC)CCc1cc2c(cc1-3)OCO2

>  <score_type>  (14) 
oracle

>  <origin>  (14) 
adg

>  <m_score__min__energy>  (14) 
-5.9800000000000004

>  <m_primary>  (14) 
energy

$$$$
14:0
     RDKit          3D

 35 37  0  0  0  0  0  0  0  0999 V2000
   58.1630   27.1360   43.2980 C   0  0  0  0  0  0  0  0  0  0  0  0
   57.9600   27.7970   44.5430 O   0  0  0  0  0  0  0  0  0  0  0  0
   58.0530   29.1850   44.7280 C   0  0  0  0  0  0  0  0  0  0  0  0
   57.3950   30.1040   43.8880 C   0  0  0  0  0  0  0  0  0  0  0  0
   57.5210   31.4770   44.1130 C   0  0  0  0  0  0  0  0  0  0  0  0
   58.3040   31.9590   45.1760 C   0  0  0  0  0  0  0  0  0  0  0  0
   58.4520   33.3790   45.3910 N   0  0  0  0  0  0  0  0  0  0  0  0
   57.2710   34.2150   45.6130 C   0  0  0  0  0  0  0  0  0  0  0  0
   59.7530   34.0270   45.1760 C   0  0  0  0  0  0  0  0  0  0  0  0
   60.5730   33.9720   46.4330 C   0  0  0  0  0  0  0  0  0  0  0  0
   60.0000   34.3020   47.6810 C   0  0  0  0  0  0  0  0  0  0  0  0
   60.7610   34.1990   48.8520 C   0  0  0  0  0  0  0  0  0  0  0  0
   62.0800   33.7640   48.7600 C   0  0  0  0  0  0  0  0  0  0  0  0
   62.9040   33.6250   49.8320 N   0  0  0  0  0  0  0  0  0  0  0  0
   64.2830   33.0840   49.0850 S   0  0  0  0  0  0  0  0  0  0  0  0
   63.9030   33.0130   47.4790 N   0  0  0  0  0  0  0  0  0  0  0  0
   62.6180   33.4340   47.4890 C   0  0  0  0  0  0  0  0  0  0  0  0
   61.8650   33.5380   46.3660 N   0  0  0  0  0  0  0  0  0  0  0  0
   58.9560   31.0380   46.0120 C   0  0  0  0  0  0  0  0  0  0  0  0
   58.8310   29.6640   45.7870 C   0  0  0  0  0  0  0  0  0  0  0  0
   58.4814   26.0991   43.4810 H   0  0  0  0  0  0  0  0  0  0  0  0
   57.2236   27.1355   42.7257 H   0  0  0  0  0  0  0  0  0  0  0  0
   58.9407   27.6628   42.7257 H   0  0  0  0  0  0  0  0  0  0  0  0
   56.7799   29.7396   43.0520 H   0  0  0  0  0  0  0  0  0  0  0  0
   57.0027   32.1874   43.4522 H   0  0  0  0  0  0  0  0  0  0  0  0
   57.1036   34.3335   46.6937 H   0  0  0  0  0  0  0  0  0  0  0  0
   57.4299   35.2029   45.1561 H   0  0  0  0  0  0  0  0  0  0  0  0
   56.3921   33.7368   45.1561 H   0  0  0  0  0  0  0  0  0  0  0  0
   60.2894   33.5064   44.3690 H   0  0  0  0  0  0  0  0  0  0  0  0
   59.5891   35.0791   44.8998 H   0  0  0  0  0  0  0  0  0  0  0  0
   58.9546   34.6403   47.7332 H   0  0  0  0  0  0  0  0  0  0  0  0
   60.3239   34.4574   49.8278 H   0  0  0  0  0  0  0  0  0  0  0  0
   64.4910   32.7210   46.6690 H   0  0  0  0  0  0  0  0  0  0  0  0
   59.5695   31.4004   46.8500 H   0  0  0  0  0  0  0  0  0  0  0  0
   59.3488   28.9537   46.4483 H   0  0  0  0  0  0  0  0  0  0  0  0
  1  2  1  0
  2  3  1  0
  3  4  2  0
  4  5  1  0
  5  6  2  0
  6  7  1  0
  7  8  1  0
  7  9  1  0
  9 10  1  0
 10 11  1  0
 11 12  2  0
 12 13  1  0
 13 14  2  0
 14 15  1  0
 15 16  1  0
 16 17  2  0
 17 18  1  0
  6 19  1  0
 19 20  2  0
 20  3  1  0
 18 10  2  0
 17 13  1  0
  1 21  1  0
  1 22  1  0
  1 23  1  0
  4 24  1  0
  5 25  1  0
  8 26  1  0
  8 27  1  0
  8 28  1  0
  9 29  1  0
  9 30  1  0
 11 31  1  0
 12 32  1  0
 16 33  1  0
 19 34  1  0
 20 35  1  0
M  CHG  1  16   1
M  END
>  <UniqueID>  (15) 
11

>  <SMILES>  (15) 
COc1ccc(N(C)Cc2ccc3ns[nH+]c3n2)cc1

>  <Energy>  (15) 
78.7367630949765

>  <Genealogy>  (15) 
COc1ccc(N(C)Cc2ccc3ns[nH+]c3n2)cc1 (protonated)
COc1ccc(N(C)Cc2ccc3ns[nH+]c3n2)cc1 (3D coordinates assigned)
COc1ccc(N(C)Cc2ccc3ns[nH+]c3n2)cc1 (optimized conformer: 78.7367630949765 kcal/mol)

>  <smiles>  (15) 
COc1ccc(N(C)Cc2ccc3nsnc3n2)cc1

>  <score_type>  (15) 
oracle

>  <origin>  (15) 
adg

>  <m_score__min__energy>  (15) 
-5.6799999999999997

>  <m_primary>  (15) 
energy

$$$$
15:0
     RDKit          3D

 42 45  0  0  0  0  0  0  0  0999 V2000
   58.1660   27.4750   43.3820 C   0  0  0  0  0  0  0  0  0  0  0  0
   58.5210   27.9070   44.7800 C   0  0  0  0  0  0  0  0  0  0  0  0
   59.5000   27.1850   45.4860 C   0  0  0  0  0  0  0  0  0  0  0  0
   59.8650   27.5600   46.7800 C   0  0  0  0  0  0  0  0  0  0  0  0
   59.2590   28.6600   47.3850 C   0  0  0  0  0  0  0  0  0  0  0  0
   58.2920   29.3940   46.6960 C   0  0  0  0  0  0  0  0  0  0  0  0
   57.9170   29.0350   45.3900 C   0  0  0  0  0  0  0  0  0  0  0  0
   56.6900   30.0010   44.5540 S   0  0  0  0  0  0  0  0  0  0  0  0
   57.0310   30.0860   43.0920 O   0  0  0  0  0  0  0  0  0  0  0  0
   55.3460   29.3540   44.7370 O   0  0  0  0  0  0  0  0  0  0  0  0
   56.6430   31.6060   45.2120 N   0  0  0  0  0  0  0  0  0  0  0  0
   57.7690   32.4850   45.3370 C   0  0  0  0  0  0  0  0  0  0  0  0
   57.7970   33.6460   44.5570 C   0  0  0  0  0  0  0  0  0  0  0  0
   58.8730   34.5300   44.6440 C   0  0  0  0  0  0  0  0  0  0  0  0
   59.9320   34.2620   45.5130 C   0  0  0  0  0  0  0  0  0  0  0  0
   59.9270   33.1030   46.3100 C   0  0  0  0  0  0  0  0  0  0  0  0
   61.0630   32.8360   47.2270 C   0  0  0  0  0  0  0  0  0  0  0  0
   61.1140   31.8750   48.2360 C   0  0  0  0  0  0  0  0  0  0  0  0
   62.3170   31.9790   48.8150 N   0  0  0  0  0  0  0  0  0  0  0  0
   62.8550   31.2740   49.8410 C   0  0  0  0  0  0  0  0  0  0  0  0
   64.1560   31.5960   50.2550 C   0  0  0  0  0  0  0  0  0  0  0  0
   64.8550   32.6300   49.6000 C   0  0  0  0  0  0  0  0  0  0  0  0
   64.2560   33.3330   48.5420 C   0  0  0  0  0  0  0  0  0  0  0  0
   62.9610   32.9680   48.1750 C   0  0  0  0  0  0  0  0  0  0  0  0
   62.2320   33.5260   47.1900 N   0  0  0  0  0  0  0  0  0  0  0  0
   58.8370   32.2160   46.2130 C   0  0  0  0  0  0  0  0  0  0  0  0
   57.4682   26.6258   43.4267 H   0  0  0  0  0  0  0  0  0  0  0  0
   57.6913   28.3120   42.8490 H   0  0  0  0  0  0  0  0  0  0  0  0
   59.0791   27.1716   42.8490 H   0  0  0  0  0  0  0  0  0  0  0  0
   59.9826   26.3165   45.0139 H   0  0  0  0  0  0  0  0  0  0  0  0
   60.6313   26.9871   47.3227 H   0  0  0  0  0  0  0  0  0  0  0  0
   59.5433   28.9501   48.4072 H   0  0  0  0  0  0  0  0  0  0  0  0
   57.8191   30.2614   47.1797 H   0  0  0  0  0  0  0  0  0  0  0  0
   56.9653   33.8634   43.8706 H   0  0  0  0  0  0  0  0  0  0  0  0
   58.8868   35.4402   44.0264 H   0  0  0  0  0  0  0  0  0  0  0  0
   60.7774   34.9630   45.5750 H   0  0  0  0  0  0  0  0  0  0  0  0
   60.3173   31.1660   48.5053 H   0  0  0  0  0  0  0  0  0  0  0  0
   62.2869   30.4719   50.3349 H   0  0  0  0  0  0  0  0  0  0  0  0
   64.6266   31.0464   51.0835 H   0  0  0  0  0  0  0  0  0  0  0  0
   65.8756   32.8878   49.9194 H   0  0  0  0  0  0  0  0  0  0  0  0
   64.7890   34.1423   48.0216 H   0  0  0  0  0  0  0  0  0  0  0  0
   58.8205   31.3041   46.8280 H   0  0  0  0  0  0  0  0  0  0  0  0
  1  2  1  0
  2  3  2  0
  3  4  1  0
  4  5  2  0
  5  6  1  0
  6  7  2  0
  7  8  1  0
  8  9  2  0
  8 10  2  0
  8 11  1  0
 11 12  1  0
 12 13  2  0
 13 14  1  0
 14 15  2  0
 15 16  1  0
 16 17  1  0
 17 18  2  0
 18 19  1  0
 19 20  1  0
 20 21  2  0
 21 22  1  0
 22 23  2  0
 23 24  1  0
 24 25  2  0
 16 26  2  0
  7  2  1  0
 26 12  1  0
 25 17  1  0
 24 19  1  0
  1 27  1  0
  1 28  1  0
  1 29  1  0
  3 30  1  0
  4 31  1  0
  5 32  1  0
  6 33  1  0
 13 34  1  0
 14 35  1  0
 15 36  1  0
 18 37  1  0
 20 38  1  0
 21 39  1  0
 22 40  1  0
 23 41  1  0
 26 42  1  0
M  CHG  1  11  -1
M  END
>  <UniqueID>  (16) 
12

>  <SMILES>  (16) 
Cc1ccccc1S(=O)(=O)[N-]c1cccc(-c2cn3ccccc3n2)c1

>  <Energy>  (16) 
88.23959028462195

>  <Genealogy>  (16) 
Cc1ccccc1S(=O)(=O)[N-]c1cccc(-c2cn3ccccc3n2)c1 (protonated)
Cc1ccccc1S(=O)(=O)[N-]c1cccc(-c2cn3ccccc3n2)c1 (3D coordinates assigned)
Cc1ccccc1S(=O)(=O)[N-]c1cccc(-c2cn3ccccc3n2)c1 (optimized conformer: 88.23959028462195 kcal/mol)

>  <smiles>  (16) 
Cc1ccccc1S(=O)(=O)Nc1cccc(-c2cn3ccccc3n2)c1

>  <score_type>  (16) 
oracle

>  <origin>  (16) 
adg

>  <m_score__min__energy>  (16) 
-10.52

>  <m_primary>  (16) 
energy

$$$$
16:0
     RDKit          3D

 55 57  0  0  0  0  0  0  0  0999 V2000
   55.7746   31.3707   44.2845 H   0  0  0  0  0  0  0  0  0  0  0  0
   56.8610   31.2690   44.4240 C   0  0  0  0  0  0  0  0  0  0  0  0
   57.4130   30.0780   44.1520 C   0  0  0  0  0  0  0  0  0  0  0  0
   57.2784   29.6777   43.1363 H   0  0  0  0  0  0  0  0  0  0  0  0
   58.2080   29.2390   45.1330 C   0  0  0  0  0  0  0  0  0  0  0  0
   59.0602   28.7933   44.5991 H   0  0  0  0  0  0  0  0  0  0  0  0
   57.5237   28.4780   45.5363 H   0  0  0  0  0  0  0  0  0  0  0  0
   58.7280   30.0100   46.2840 N   0  0  0  0  0  0  0  0  0  0  0  0
   60.1130   30.4750   46.0900 C   0  0  0  0  0  0  0  0  0  0  0  0
   60.1912   30.9842   45.1181 H   0  0  0  0  0  0  0  0  0  0  0  0
   60.7873   29.6064   46.1182 H   0  0  0  0  0  0  0  0  0  0  0  0
   60.5150   31.4550   47.2100 C   0  0  0  0  0  0  0  0  0  0  0  0
   60.5913   32.4676   46.7870 H   0  0  0  0  0  0  0  0  0  0  0  0
   61.4800   31.1260   47.6229 H   0  0  0  0  0  0  0  0  0  0  0  0
   59.5240   31.4680   48.3090 N   0  0  0  0  0  0  0  0  0  0  0  0
   60.0290   32.2690   49.4440 C   0  0  0  0  0  0  0  0  0  0  0  0
   60.5841   31.6115   50.1292 H   0  0  0  0  0  0  0  0  0  0  0  0
   59.1711   32.7266   49.9584 H   0  0  0  0  0  0  0  0  0  0  0  0
   60.9430   33.3670   48.9670 C   0  0  0  0  0  0  0  0  0  0  0  0
   60.4480   34.4810   48.6470 O   0  0  0  0  0  0  0  0  0  0  0  0
   62.4040   33.1770   48.8370 C   0  0  0  0  0  0  0  0  0  0  0  0
   63.2570   32.8250   49.8700 C   0  0  0  0  0  0  0  0  0  0  0  0
   62.9580   32.6288   50.9102 H   0  0  0  0  0  0  0  0  0  0  0  0
   64.5130   32.7630   49.3890 N   0  0  0  0  0  0  0  0  0  0  0  0
   65.7190   32.5000   50.1670 C   0  0  0  0  0  0  0  0  0  0  0  0
   65.8575   33.3038   50.9051 H   0  0  0  0  0  0  0  0  0  0  0  0
   66.5827   32.4608   49.4869 H   0  0  0  0  0  0  0  0  0  0  0  0
   65.5980   31.1660   50.8930 C   0  0  0  0  0  0  0  0  0  0  0  0
   65.6135   31.3371   51.9795 H   0  0  0  0  0  0  0  0  0  0  0  0
   64.6521   30.6800   50.6118 H   0  0  0  0  0  0  0  0  0  0  0  0
   66.4410   30.5177   50.6118 H   0  0  0  0  0  0  0  0  0  0  0  0
   64.5080   33.0810   48.1050 N   0  0  0  0  0  0  0  0  0  0  0  0
   65.3590   33.1420   47.5020 H   0  0  0  0  0  0  0  0  0  0  0  0
   63.2410   33.3420   47.7300 C   0  0  0  0  0  0  0  0  0  0  0  0
   62.8690   33.7800   46.3480 C   0  0  0  0  0  0  0  0  0  0  0  0
   62.1580   34.6172   46.4076 H   0  0  0  0  0  0  0  0  0  0  0  0
   63.7724   34.1038   45.8103 H   0  0  0  0  0  0  0  0  0  0  0  0
   62.4033   32.9409   45.8103 H   0  0  0  0  0  0  0  0  0  0  0  0
   59.2170   30.0850   48.7280 C   0  0  0  0  0  0  0  0  0  0  0  0
   58.5192   30.1113   49.5779 H   0  0  0  0  0  0  0  0  0  0  0  0
   60.1534   29.5868   49.0195 H   0  0  0  0  0  0  0  0  0  0  0  0
   58.5750   29.2970   47.5700 C   0  0  0  0  0  0  0  0  0  0  0  0
   57.5036   29.1620   47.7794 H   0  0  0  0  0  0  0  0  0  0  0  0
   59.0820   28.3241   47.4896 H   0  0  0  0  0  0  0  0  0  0  0  0
   57.6020   32.4520   44.8960 C   0  0  0  0  0  0  0  0  0  0  0  0
   57.4440   32.8810   46.2230 C   0  0  0  0  0  0  0  0  0  0  0  0
   56.7580   32.3441   46.8947 H   0  0  0  0  0  0  0  0  0  0  0  0
   58.1560   33.9890   46.6940 C   0  0  0  0  0  0  0  0  0  0  0  0
   58.0118   34.3355   47.7280 H   0  0  0  0  0  0  0  0  0  0  0  0
   59.0510   34.6570   45.8520 C   0  0  0  0  0  0  0  0  0  0  0  0
   59.6028   35.5343   46.2207 H   0  0  0  0  0  0  0  0  0  0  0  0
   59.2440   34.2100   44.5430 C   0  0  0  0  0  0  0  0  0  0  0  0
   59.9582   34.7275   43.8856 H   0  0  0  0  0  0  0  0  0  0  0  0
   58.5310   33.1060   44.0670 C   0  0  0  0  0  0  0  0  0  0  0  0
   58.6971   32.7474   43.0404 H   0  0  0  0  0  0  0  0  0  0  0  0
  1  2  1  0
  2  3  2  0
  3  4  1  0
  3  5  1  0
  5  6  1  0
  5  7  1  0
  5  8  1  0
  8  9  1  0
  9 10  1  0
  9 11  1  0
  9 12  1  0
 12 13  1  0
 12 14  1  0
 12 15  1  0
 15 16  1  0
 16 17  1  0
 16 18  1  0
 16 19  1  0
 19 20  2  0
 19 21  1  0
 21 22  2  0
 22 23  1  0
 22 24  1  0
 24 25  1  0
 25 26  1  0
 25 27  1  0
 25 28  1  0
 28 29  1  0
 28 30  1  0
 28 31  1  0
 24 32  1  0
 32 33  1  0
 32 34  2  0
 34 35  1  0
 35 36  1  0
 35 37  1  0
 35 38  1  0
 15 39  1  0
 39 40  1  0
 39 41  1  0
 39 42  1  0
 42 43  1  0
 42 44  1  0
  2 45  1  0
 45 46  2  0
 46 47  1  0
 46 48  1  0
 48 49  1  0
 48 50  2  0
 50 51  1  0
 50 52  1  0
 52 53  1  0
 52 54  2  0
 54 55  1  0
 42  8  1  0
 54 45  1  0
 34 21  1  0
M  CHG  1  32   1
M  END
>  <UniqueID>  (17) 
13

>  <SMILES>  (17) 
CCn1cc(C(=O)CN2CCN(C/C=C\c3ccccc3)CC2)c(C)[nH+]1

>  <Energy>  (17) 
100.26423771025559

>  <Genealogy>  (17) 
CCn1cc(C(=O)CN2CCN(CC=Cc3ccccc3)CC2)c(C)[nH+]1 (protonated)
CCn1cc(C(=O)CN2CCN(C/C=C\c3ccccc3)CC2)c(C)[nH+]1 (cis-trans isomerization)
CCn1cc(C(=O)CN2CCN(C/C=C\c3ccccc3)CC2)c(C)[nH+]1 (3D coordinates assigned)
CCn1cc(C(=O)CN2CCN(C/C=C\c3ccccc3)CC2)c(C)[nH+]1 (nonaromatic ring conformer: 100.26423771025559 kcal/mol)

>  <smiles>  (17) 
CCn1cc(C(=O)CN2CCN(CC=Cc3ccccc3)CC2)c(C)n1

>  <score_type>  (17) 
oracle

>  <origin>  (17) 
adg

>  <m_score__min__energy>  (17) 
-7.1200000000000001

>  <m_primary>  (17) 
energy

$$$$
17:0
     RDKit          3D

 37 40  0  0  0  0  0  0  0  0999 V2000
   55.1890   25.5230   45.6320 C   0  0  0  0  0  0  0  0  0  0  0  0
   55.9670   26.6580   45.9990 O   0  0  0  0  0  0  0  0  0  0  0  0
   57.3630   26.6530   46.1570 C   0  0  0  0  0  0  0  0  0  0  0  0
   58.0450   25.5180   46.6410 C   0  0  0  0  0  0  0  0  0  0  0  0
   59.4390   25.5170   46.7420 C   0  0  0  0  0  0  0  0  0  0  0  0
   60.1680   26.6430   46.3610 C   0  0  0  0  0  0  0  0  0  0  0  0
   59.5080   27.7770   45.8890 C   0  0  0  0  0  0  0  0  0  0  0  0
   58.1040   27.8030   45.7990 C   0  0  0  0  0  0  0  0  0  0  0  0
   57.4440   29.0320   45.2990 C   0  0  0  0  0  0  0  0  0  0  0  0
   56.2450   28.9780   44.5760 C   0  0  0  0  0  0  0  0  0  0  0  0
   55.6690   30.1750   44.1510 C   0  0  0  0  0  0  0  0  0  0  0  0
   56.2640   31.3580   44.4500 N   0  0  0  0  0  0  0  0  0  0  0  0
   57.4180   31.4050   45.1690 C   0  0  0  0  0  0  0  0  0  0  0  0
   58.0240   32.6770   45.4710 N   0  0  0  0  0  0  0  0  0  0  0  0
   58.1600   33.7020   44.5870 C   0  0  0  0  0  0  0  0  0  0  0  0
   58.7910   34.7930   45.1760 C   0  0  0  0  0  0  0  0  0  0  0  0
   59.0380   34.3950   46.4660 C   0  0  0  0  0  0  0  0  0  0  0  0
   59.6300   35.0940   47.4650 N   0  0  0  0  0  0  0  0  0  0  0  0
   59.7690   34.5100   48.6920 C   0  0  0  0  0  0  0  0  0  0  0  0
   59.2980   33.1980   48.9160 C   0  0  0  0  0  0  0  0  0  0  0  0
   58.6840   32.4840   47.8720 C   0  0  0  0  0  0  0  0  0  0  0  0
   58.5690   33.1190   46.6290 C   0  0  0  0  0  0  0  0  0  0  0  0
   57.9920   30.2450   45.5830 N   0  0  0  0  0  0  0  0  0  0  0  0
   54.8376   25.0103   46.5396 H   0  0  0  0  0  0  0  0  0  0  0  0
   54.3234   25.8488   45.0365 H   0  0  0  0  0  0  0  0  0  0  0  0
   55.8051   24.8332   45.0365 H   0  0  0  0  0  0  0  0  0  0  0  0
   57.4755   24.6262   46.9415 H   0  0  0  0  0  0  0  0  0  0  0  0
   59.9616   24.6270   47.1225 H   0  0  0  0  0  0  0  0  0  0  0  0
   61.2656   26.6366   46.4329 H   0  0  0  0  0  0  0  0  0  0  0  0
   60.0901   28.6592   45.5843 H   0  0  0  0  0  0  0  0  0  0  0  0
   55.7686   28.0130   44.3486 H   0  0  0  0  0  0  0  0  0  0  0  0
   54.7328   30.1605   43.5737 H   0  0  0  0  0  0  0  0  0  0  0  0
   57.8159   33.6721   43.5426 H   0  0  0  0  0  0  0  0  0  0  0  0
   59.0371   35.7592   44.7114 H   0  0  0  0  0  0  0  0  0  0  0  0
   60.2507   35.0652   49.5104 H   0  0  0  0  0  0  0  0  0  0  0  0
   59.4114   32.7345   49.9071 H   0  0  0  0  0  0  0  0  0  0  0  0
   58.3070   31.4622   48.0261 H   0  0  0  0  0  0  0  0  0  0  0  0
  1  2  1  0
  2  3  1  0
  3  4  2  0
  4  5  1  0
  5  6  2  0
  6  7  1  0
  7  8  2  0
  8  9  1  0
  9 10  2  0
 10 11  1  0
 11 12  2  0
 12 13  1  0
 13 14  1  0
 14 15  1  0
 15 16  2  0
 16 17  1  0
 17 18  2  0
 18 19  1  0
 19 20  2  0
 20 21  1  0
 21 22  2  0
 13 23  2  0
  8  3  1  0
 23  9  1  0
 22 14  1  0
 22 17  1  0
  1 24  1  0
  1 25  1  0
  1 26  1  0
  4 27  1  0
  5 28  1  0
  6 29  1  0
  7 30  1  0
 10 31  1  0
 11 32  1  0
 15 33  1  0
 16 34  1  0
 19 35  1  0
 20 36  1  0
 21 37  1  0
M  END
>  <UniqueID>  (18) 
14

>  <SMILES>  (18) 
COc1ccccc1-c1ccnc(-n2ccc3ncccc32)n1

>  <Energy>  (18) 
86.32329091135306

>  <Genealogy>  (18) 
COc1ccccc1-c1ccnc(-n2ccc3ncccc32)n1 (3D coordinates assigned)
COc1ccccc1-c1ccnc(-n2ccc3ncccc32)n1 (optimized conformer: 86.32329091135306 kcal/mol)

>  <smiles>  (18) 
COc1ccccc1-c1ccnc(-n2ccc3ncccc32)n1

>  <score_type>  (18) 
oracle

>  <origin>  (18) 
adg

>  <m_score__min__energy>  (18) 
-7.5300000000000002

>  <m_primary>  (18) 
energy

$$$$
18:0
     RDKit          3D

 45 47  0  0  0  0  0  0  0  0999 V2000
   59.7810   33.8510   50.2830 C   0  0  0  0  0  0  0  0  0  0  0  0
   60.4970   34.5560   49.1360 C   0  0  0  0  0  0  0  0  0  0  0  0
   60.6830   33.6380   48.0070 N   0  0  0  0  0  0  0  0  0  0  0  0
   61.7220   32.8040   47.7410 C   0  0  0  0  0  0  0  0  0  0  0  0
   63.0060   32.7530   48.4650 C   0  0  0  0  0  0  0  0  0  0  0  0
   64.1640   33.4630   48.2040 C   0  0  0  0  0  0  0  0  0  0  0  0
   65.1060   33.0810   49.0360 O   0  0  0  0  0  0  0  0  0  0  0  0
   64.6210   32.1450   49.8200 C   0  0  0  0  0  0  0  0  0  0  0  0
   65.4070   31.4520   50.8810 C   0  0  0  0  0  0  0  0  0  0  0  0
   63.3060   31.8830   49.4930 C   0  0  0  0  0  0  0  0  0  0  0  0
   61.4190   31.9370   46.7530 N   0  0  0  0  0  0  0  0  0  0  0  0
   60.1840   32.2200   46.3740 N   0  0  0  0  0  0  0  0  0  0  0  0
   59.7380   33.2330   47.1330 C   0  0  0  0  0  0  0  0  0  0  0  0
   58.0670   33.8870   47.0330 S   0  0  0  0  0  0  0  0  0  0  0  0
   57.8730   33.5470   45.2460 C   0  0  0  0  0  0  0  0  0  0  0  0
   57.0180   32.3010   44.9980 C   0  0  0  0  0  0  0  0  0  0  0  0
   57.8590   31.1840   44.5050 N   0  0  0  0  0  0  0  0  0  0  0  0
   58.0640   30.1350   45.5320 C   0  0  0  0  0  0  0  0  0  0  0  0
   57.0100   29.0110   45.4450 C   0  0  0  0  0  0  0  0  0  0  0  0
   55.8150   29.4910   44.8680 O   0  0  0  0  0  0  0  0  0  0  0  0
   56.0250   29.8100   43.5020 C   0  0  0  0  0  0  0  0  0  0  0  0
   57.3330   30.6000   43.2570 C   0  0  0  0  0  0  0  0  0  0  0  0
   60.1647   34.2288   51.2422 H   0  0  0  0  0  0  0  0  0  0  0  0
   58.7008   34.0478   50.2171 H   0  0  0  0  0  0  0  0  0  0  0  0
   59.9610   32.7678   50.2171 H   0  0  0  0  0  0  0  0  0  0  0  0
   59.8956   35.4166   48.8079 H   0  0  0  0  0  0  0  0  0  0  0  0
   61.4832   34.8950   49.4860 H   0  0  0  0  0  0  0  0  0  0  0  0
   64.2782   34.2280   47.4219 H   0  0  0  0  0  0  0  0  0  0  0  0
   65.0468   31.7696   51.8706 H   0  0  0  0  0  0  0  0  0  0  0  0
   65.2830   30.3639   50.7775 H   0  0  0  0  0  0  0  0  0  0  0  0
   66.4710   31.7113   50.7775 H   0  0  0  0  0  0  0  0  0  0  0  0
   62.6393   31.1392   49.9537 H   0  0  0  0  0  0  0  0  0  0  0  0
   59.6560   31.7060   45.6350 H   0  0  0  0  0  0  0  0  0  0  0  0
   57.3898   34.4122   44.7686 H   0  0  0  0  0  0  0  0  0  0  0  0
   58.8713   33.3693   44.8196 H   0  0  0  0  0  0  0  0  0  0  0  0
   56.5334   32.0013   45.9389 H   0  0  0  0  0  0  0  0  0  0  0  0
   56.2581   32.5364   44.2383 H   0  0  0  0  0  0  0  0  0  0  0  0
   59.0622   29.6945   45.3924 H   0  0  0  0  0  0  0  0  0  0  0  0
   57.9668   30.6096   46.5196 H   0  0  0  0  0  0  0  0  0  0  0  0
   57.4059   28.1919   44.8267 H   0  0  0  0  0  0  0  0  0  0  0  0
   56.7922   28.6512   46.4614 H   0  0  0  0  0  0  0  0  0  0  0  0
   56.0687   28.8735   42.9266 H   0  0  0  0  0  0  0  0  0  0  0  0
   55.1900   30.4511   43.1829 H   0  0  0  0  0  0  0  0  0  0  0  0
   58.0874   29.9189   42.8364 H   0  0  0  0  0  0  0  0  0  0  0  0
   57.1120   31.4219   42.5601 H   0  0  0  0  0  0  0  0  0  0  0  0
  1  2  1  0
  2  3  1  0
  3  4  1  0
  4  5  1  0
  5  6  2  0
  6  7  1  0
  7  8  1  0
  8  9  1  0
  8 10  2  0
  4 11  2  0
 11 12  1  0
 12 13  2  0
 13 14  1  0
 14 15  1  0
 15 16  1  0
 16 17  1  0
 17 18  1  0
 18 19  1  0
 19 20  1  0
 20 21  1  0
 21 22  1  0
 13  3  1  0
 22 17  1  0
 10  5  1  0
  1 23  1  0
  1 24  1  0
  1 25  1  0
  2 26  1  0
  2 27  1  0
  6 28  1  0
  9 29  1  0
  9 30  1  0
  9 31  1  0
 10 32  1  0
 12 33  1  0
 15 34  1  0
 15 35  1  0
 16 36  1  0
 16 37  1  0
 18 38  1  0
 18 39  1  0
 19 40  1  0
 19 41  1  0
 21 42  1  0
 21 43  1  0
 22 44  1  0
 22 45  1  0
M  CHG  1  12   1
M  END
>  <UniqueID>  (19) 
15

>  <SMILES>  (19) 
CCn1c(-c2coc(C)c2)n[nH+]c1SCCN1CCOCC1

>  <Energy>  (19) 
113.39263934482675

>  <Genealogy>  (19) 
CCn1c(-c2coc(C)c2)n[nH+]c1SCCN1CCOCC1 (protonated)
CCn1c(-c2coc(C)c2)n[nH+]c1SCCN1CCOCC1 (3D coordinates assigned)
CCn1c(-c2coc(C)c2)n[nH+]c1SCCN1CCOCC1 (nonaromatic ring conformer: 113.39263934482675 kcal/mol)

>  <smiles>  (19) 
CCn1c(SCCN2CCOCC2)nnc1-c1coc(C)c1

>  <score_type>  (19) 
oracle

>  <origin>  (19) 
adg

>  <m_score__min__energy>  (19) 
-6.0300000000000002

>  <m_primary>  (19) 
energy

$$$$
19:0
     RDKit          3D

 30 31  0  0  0  0  0  0  0  0999 V2000
   59.7090   33.8400   50.6400 C   0  0  0  0  0  0  0  0  0  0  0  0
   59.6420   34.5820   49.3790 N   0  0  0  0  0  0  0  0  0  0  0  0
   60.7830   34.2680   48.5510 C   0  0  0  0  0  0  0  0  0  0  0  0
   62.0630   34.1910   49.1340 C   0  0  0  0  0  0  0  0  0  0  0  0
   63.1760   33.8440   48.3660 C   0  0  0  0  0  0  0  0  0  0  0  0
   63.0280   33.5620   47.0070 C   0  0  0  0  0  0  0  0  0  0  0  0
   61.7670   33.6270   46.4130 C   0  0  0  0  0  0  0  0  0  0  0  0
   60.6410   33.9760   47.1720 C   0  0  0  0  0  0  0  0  0  0  0  0
   59.3620   34.0500   46.5280 N   0  0  0  0  0  0  0  0  0  0  0  0
   58.2730   33.1490   46.8510 C   0  0  0  0  0  0  0  0  0  0  0  0
   57.1800   33.4580   45.8390 C   0  0  0  0  0  0  0  0  0  0  0  0
   57.8730   34.1860   44.6880 C   0  0  0  0  0  0  0  0  0  0  0  0
   59.1720   34.7380   45.2640 C   0  0  0  0  0  0  0  0  0  0  0  0
   59.6455   34.5435   51.4832 H   0  0  0  0  0  0  0  0  0  0  0  0
   58.8714   33.1288   50.6919 H   0  0  0  0  0  0  0  0  0  0  0  0
   60.6604   33.2904   50.6919 H   0  0  0  0  0  0  0  0  0  0  0  0
   58.7470   34.3540   48.8940 H   0  0  0  0  0  0  0  0  0  0  0  0
   59.6310   35.6080   49.5900 H   0  0  0  0  0  0  0  0  0  0  0  0
   62.1869   34.4065   50.2055 H   0  0  0  0  0  0  0  0  0  0  0  0
   64.1709   33.7928   48.8325 H   0  0  0  0  0  0  0  0  0  0  0  0
   63.9062   33.2883   46.4037 H   0  0  0  0  0  0  0  0  0  0  0  0
   61.6556   33.4029   45.3419 H   0  0  0  0  0  0  0  0  0  0  0  0
   58.5988   32.1025   46.7582 H   0  0  0  0  0  0  0  0  0  0  0  0
   57.9233   33.2839   47.8852 H   0  0  0  0  0  0  0  0  0  0  0  0
   56.7162   32.5275   45.4799 H   0  0  0  0  0  0  0  0  0  0  0  0
   56.3794   34.0690   46.2813 H   0  0  0  0  0  0  0  0  0  0  0  0
   58.0857   33.4867   43.8659 H   0  0  0  0  0  0  0  0  0  0  0  0
   57.2406   34.9872   44.2780 H   0  0  0  0  0  0  0  0  0  0  0  0
   60.0118   34.5313   44.5843 H   0  0  0  0  0  0  0  0  0  0  0  0
   59.1270   35.8290   45.3972 H   0  0  0  0  0  0  0  0  0  0  0  0
  1  2  1  0
  2  3  1  0
  3  4  2  0
  4  5  1  0
  5  6  2  0
  6  7  1  0
  7  8  2  0
  8  9  1  0
  9 10  1  0
 10 11  1  0
 11 12  1  0
 12 13  1  0
  8  3  1  0
 13  9  1  0
  1 14  1  0
  1 15  1  0
  1 16  1  0
  2 17  1  0
  2 18  1  0
  4 19  1  0
  5 20  1  0
  6 21  1  0
  7 22  1  0
 10 23  1  0
 10 24  1  0
 11 25  1  0
 11 26  1  0
 12 27  1  0
 12 28  1  0
 13 29  1  0
 13 30  1  0
M  CHG  1   2   1
M  END
>  <UniqueID>  (20) 
16

>  <SMILES>  (20) 
C[NH2+]c1ccccc1N1CCCC1

>  <Energy>  (20) 
35.302887792129226

>  <Genealogy>  (20) 
C[NH2+]c1ccccc1N1CCCC1 (protonated)
C[NH2+]c1ccccc1N1CCCC1 (3D coordinates assigned)
C[NH2+]c1ccccc1N1CCCC1 (nonaromatic ring conformer: 35.302887792129226 kcal/mol)

>  <smiles>  (20) 
CNc1ccccc1N1CCCC1

>  <score_type>  (20) 
oracle

>  <origin>  (20) 
adg

>  <m_score__min__energy>  (20) 
-4.1600000000000001

>  <m_primary>  (20) 
energy

$$$$
20:0
     RDKit          3D

 37 39  0  0  0  0  0  0  0  0999 V2000
   56.3660   29.9470   42.6240 C   0  0  0  0  0  0  0  0  0  0  0  0
   57.3780   30.9390   43.0300 N   0  0  0  0  0  0  0  0  0  0  0  0
   57.5260   31.9510   41.9730 C   0  0  0  0  0  0  0  0  0  0  0  0
   56.9930   31.5900   44.3000 C   0  0  0  0  0  0  0  0  0  0  0  0
   58.1120   31.4870   45.3030 C   0  0  0  0  0  0  0  0  0  0  0  0
   58.7960   30.3390   45.7280 C   0  0  0  0  0  0  0  0  0  0  0  0
   58.4760   28.9430   45.3760 C   0  0  0  0  0  0  0  0  0  0  0  0
   57.7710   28.1360   46.2840 C   0  0  0  0  0  0  0  0  0  0  0  0
   57.4550   26.8160   45.9540 C   0  0  0  0  0  0  0  0  0  0  0  0
   57.8270   26.2930   44.7120 C   0  0  0  0  0  0  0  0  0  0  0  0
   57.3940   24.4880   44.2640 Br  0  0  0  0  0  0  0  0  0  0  0  0
   58.5120   27.0970   43.7950 C   0  0  0  0  0  0  0  0  0  0  0  0
   58.8300   28.4190   44.1220 C   0  0  0  0  0  0  0  0  0  0  0  0
   59.8610   30.6780   46.4930 N   0  0  0  0  0  0  0  0  0  0  0  0
   59.8590   32.0200   46.5610 C   0  0  0  0  0  0  0  0  0  0  0  0
   60.7800   32.8330   47.2190 C   0  0  0  0  0  0  0  0  0  0  0  0
   60.6100   34.2260   47.1280 C   0  0  0  0  0  0  0  0  0  0  0  0
   59.5400   34.7700   46.3840 C   0  0  0  0  0  0  0  0  0  0  0  0
   58.6280   33.9250   45.7260 C   0  0  0  0  0  0  0  0  0  0  0  0
   58.8140   32.5470   45.8460 C   0  0  0  0  0  0  0  0  0  0  0  0
   55.9103   29.5003   43.5200 H   0  0  0  0  0  0  0  0  0  0  0  0
   55.5876   30.4416   42.0245 H   0  0  0  0  0  0  0  0  0  0  0  0
   56.8450   29.1588   42.0245 H   0  0  0  0  0  0  0  0  0  0  0  0
   57.6707   32.9407   42.4307 H   0  0  0  0  0  0  0  0  0  0  0  0
   58.3977   31.7046   41.3489 H   0  0  0  0  0  0  0  0  0  0  0  0
   56.6203   31.9645   41.3489 H   0  0  0  0  0  0  0  0  0  0  0  0
   56.7721   32.6509   44.1111 H   0  0  0  0  0  0  0  0  0  0  0  0
   56.1035   31.0850   44.7046 H   0  0  0  0  0  0  0  0  0  0  0  0
   57.4666   28.5450   47.2587 H   0  0  0  0  0  0  0  0  0  0  0  0
   56.9117   26.1860   46.6737 H   0  0  0  0  0  0  0  0  0  0  0  0
   58.8010   26.6888   42.8153 H   0  0  0  0  0  0  0  0  0  0  0  0
   59.3596   29.0511   43.3940 H   0  0  0  0  0  0  0  0  0  0  0  0
   60.5520   30.0300   46.9330 H   0  0  0  0  0  0  0  0  0  0  0  0
   61.6132   32.3990   47.7912 H   0  0  0  0  0  0  0  0  0  0  0  0
   61.3156   34.8968   47.6401 H   0  0  0  0  0  0  0  0  0  0  0  0
   59.4190   35.8614   46.3186 H   0  0  0  0  0  0  0  0  0  0  0  0
   57.7957   34.3367   45.1363 H   0  0  0  0  0  0  0  0  0  0  0  0
  1  2  1  0
  2  3  1  0
  2  4  1  0
  4  5  1  0
  5  6  2  0
  6  7  1  0
  7  8  2  0
  8  9  1  0
  9 10  2  0
 10 11  1  0
 10 12  1  0
 12 13  2  0
  6 14  1  0
 14 15  1  0
 15 16  2  0
 16 17  1  0
 17 18  2  0
 18 19  1  0
 19 20  2  0
 20  5  1  0
 13  7  1  0
 20 15  1  0
  1 21  1  0
  1 22  1  0
  1 23  1  0
  3 24  1  0
  3 25  1  0
  3 26  1  0
  4 27  1  0
  4 28  1  0
  8 29  1  0
  9 30  1  0
 12 31  1  0
 13 32  1  0
 14 33  1  0
 16 34  1  0
 17 35  1  0
 18 36  1  0
 19 37  1  0
M  END
>  <UniqueID>  (21) 
17

>  <SMILES>  (21) 
CN(C)Cc1c(-c2ccc(Br)cc2)[nH]c2ccccc12

>  <Energy>  (21) 
75.79520077857647

>  <Genealogy>  (21) 
CN(C)Cc1c(-c2ccc(Br)cc2)[nH]c2ccccc12 (3D coordinates assigned)
CN(C)Cc1c(-c2ccc(Br)cc2)[nH]c2ccccc12 (optimized conformer: 75.79520077857647 kcal/mol)

>  <smiles>  (21) 
CN(C)Cc1c(-c2ccc(Br)cc2)[nH]c2ccccc12

>  <score_type>  (21) 
oracle

>  <origin>  (21) 
adg

>  <m_score__min__energy>  (21) 
-7.0599999999999996

>  <m_primary>  (21) 
energy

$$$$
21:0
     RDKit          3D

 49 52  0  0  0  0  0  0  0  0999 V2000
   58.0650   25.7736   43.4041 H   0  0  0  0  0  0  0  0  0  0  0  0
   58.1430   26.6540   44.0590 C   0  0  0  0  0  0  0  0  0  0  0  0
   58.6150   26.5120   45.3660 C   0  0  0  0  0  0  0  0  0  0  0  0
   58.9141   25.5200   45.7353 H   0  0  0  0  0  0  0  0  0  0  0  0
   58.7090   27.6250   46.2070 C   0  0  0  0  0  0  0  0  0  0  0  0
   59.3560   27.4150   47.8290 Cl  0  0  0  0  0  0  0  0  0  0  0  0
   58.3110   28.8940   45.7390 C   0  0  0  0  0  0  0  0  0  0  0  0
   58.4140   30.0540   46.5800 N   0  0  0  0  0  0  0  0  0  0  0  0
   59.4410   30.8590   46.6690 C   0  0  0  0  0  0  0  0  0  0  0  0
   60.7030   30.3950   47.0610 C   0  0  0  0  0  0  0  0  0  0  0  0
   60.8455   29.3305   47.2986 H   0  0  0  0  0  0  0  0  0  0  0  0
   61.7740   31.2720   47.1510 C   0  0  0  0  0  0  0  0  0  0  0  0
   62.7579   30.8867   47.4569 H   0  0  0  0  0  0  0  0  0  0  0  0
   61.6380   32.6040   46.8690 N   0  0  0  0  0  0  0  0  0  0  0  0
   62.8630   33.4250   47.0000 C   0  0  0  0  0  0  0  0  0  0  0  0
   63.6789   32.9373   46.4464 H   0  0  0  0  0  0  0  0  0  0  0  0
   62.6492   34.4241   46.5924 H   0  0  0  0  0  0  0  0  0  0  0  0
   63.2900   33.5910   48.4760 C   0  0  0  0  0  0  0  0  0  0  0  0
   63.8257   34.5463   48.5776 H   0  0  0  0  0  0  0  0  0  0  0  0
   62.3729   33.5588   49.0825 H   0  0  0  0  0  0  0  0  0  0  0  0
   64.1730   32.5040   48.9650 N   0  0  0  0  0  0  0  0  0  0  0  0
   64.5690   32.0000   48.1380 H   0  0  0  0  0  0  0  0  0  0  0  0
   63.4330   31.5140   49.7990 C   0  0  0  0  0  0  0  0  0  0  0  0
   62.3535   31.6570   49.6432 H   0  0  0  0  0  0  0  0  0  0  0  0
   63.7540   30.5080   49.4908 H   0  0  0  0  0  0  0  0  0  0  0  0
   63.7410   31.6670   51.3000 C   0  0  0  0  0  0  0  0  0  0  0  0
   63.4234   32.6695   51.6226 H   0  0  0  0  0  0  0  0  0  0  0  0
   63.1952   30.8729   51.8306 H   0  0  0  0  0  0  0  0  0  0  0  0
   65.1190   31.5100   51.6020 O   0  0  0  0  0  0  0  0  0  0  0  0
   65.9860   32.0390   50.6060 C   0  0  0  0  0  0  0  0  0  0  0  0
   66.8426   32.5108   51.1097 H   0  0  0  0  0  0  0  0  0  0  0  0
   66.2803   31.1960   49.9635 H   0  0  0  0  0  0  0  0  0  0  0  0
   65.3300   33.0850   49.6890 C   0  0  0  0  0  0  0  0  0  0  0  0
   64.9842   33.9324   50.2992 H   0  0  0  0  0  0  0  0  0  0  0  0
   66.0735   33.4206   48.9510 H   0  0  0  0  0  0  0  0  0  0  0  0
   60.4020   33.1110   46.4980 C   0  0  0  0  0  0  0  0  0  0  0  0
   60.1980   34.4870   46.2240 C   0  0  0  0  0  0  0  0  0  0  0  0
   61.0442   35.1851   46.3048 H   0  0  0  0  0  0  0  0  0  0  0  0
   58.9440   34.9710   45.8540 C   0  0  0  0  0  0  0  0  0  0  0  0
   58.8108   36.0430   45.6464 H   0  0  0  0  0  0  0  0  0  0  0  0
   57.8610   34.1060   45.7460 C   0  0  0  0  0  0  0  0  0  0  0  0
   56.6450   34.5860   45.3840 F   0  0  0  0  0  0  0  0  0  0  0  0
   58.0220   32.7490   46.0120 C   0  0  0  0  0  0  0  0  0  0  0  0
   57.1598   32.0715   45.9252 H   0  0  0  0  0  0  0  0  0  0  0  0
   59.2800   32.2330   46.3920 C   0  0  0  0  0  0  0  0  0  0  0  0
   57.8580   29.0340   44.4160 C   0  0  0  0  0  0  0  0  0  0  0  0
   57.3800   30.6070   43.7910 Cl  0  0  0  0  0  0  0  0  0  0  0  0
   57.7700   27.9130   43.5830 C   0  0  0  0  0  0  0  0  0  0  0  0
   57.4062   28.0236   42.5508 H   0  0  0  0  0  0  0  0  0  0  0  0
  1  2  1  0
  2  3  2  0
  3  4  1  0
  3  5  1  0
  5  6  1  0
  5  7  2  0
  7  8  1  0
  8  9  2  0
  9 10  1  0
 10 11  1  0
 10 12  2  0
 12 13  1  0
 12 14  1  0
 14 15  1  0
 15 16  1  0
 15 17  1  0
 15 18  1  0
 18 19  1  0
 18 20  1  0
 18 21  1  0
 21 22  1  0
 21 23  1  0
 23 24  1  0
 23 25  1  0
 23 26  1  0
 26 27  1  0
 26 28  1  0
 26 29  1  0
 29 30  1  0
 30 31  1  0
 30 32  1  0
 30 33  1  0
 33 34  1  0
 33 35  1  0
 14 36  1  0
 36 37  2  0
 37 38  1  0
 37 39  1  0
 39 40  1  0
 39 41  2  0
 41 42  1  0
 41 43  1  0
 43 44  1  0
 43 45  2  0
  7 46  1  0
 46 47  1  0
 46 48  2  0
 48 49  1  0
 48  2  1  0
 45  9  1  0
 33 21  1  0
 45 36  1  0
M  CHG  1  21   1
M  END
>  <UniqueID>  (22) 
18

>  <SMILES>  (22) 
Fc1ccc2c(c1)/c(=N/c1c(Cl)cccc1Cl)ccn2CC[NH+]1CCOCC1

>  <Energy>  (22) 
89.26753220224461

>  <Genealogy>  (22) 
Fc1ccc2c(c1)c(=Nc1c(Cl)cccc1Cl)ccn2CC[NH+]1CCOCC1 (protonated)
Fc1ccc2c(c1)/c(=N/c1c(Cl)cccc1Cl)ccn2CC[NH+]1CCOCC1 (cis-trans isomerization)
Fc1ccc2c(c1)/c(=N/c1c(Cl)cccc1Cl)ccn2CC[NH+]1CCOCC1 (3D coordinates assigned)
Fc1ccc2c(c1)/c(=N/c1c(Cl)cccc1Cl)ccn2CC[NH+]1CCOCC1 (nonaromatic ring conformer: 89.26753220224461 kcal/mol)

>  <smiles>  (22) 
Fc1ccc2c(c1)c(=Nc1c(Cl)cccc1Cl)ccn2CCN1CCOCC1

>  <score_type>  (22) 
oracle

>  <origin>  (22) 
adg

>  <m_score__min__energy>  (22) 
-7.1500000000000004

>  <m_primary>  (22) 
energy

$$$$
22:0
     RDKit          3D

 48 51  0  0  0  0  0  0  0  0999 V2000
   59.9881   36.1287   46.7328 H   0  0  0  0  0  0  0  0  0  0  0  0
   59.3800   35.2520   46.4650 C   0  0  0  0  0  0  0  0  0  0  0  0
   58.8910   34.4090   47.4670 C   0  0  0  0  0  0  0  0  0  0  0  0
   59.1235   34.6161   48.5220 H   0  0  0  0  0  0  0  0  0  0  0  0
   58.1060   33.3020   47.1280 C   0  0  0  0  0  0  0  0  0  0  0  0
   57.7363   32.6297   47.9163 H   0  0  0  0  0  0  0  0  0  0  0  0
   57.7880   33.0460   45.7820 C   0  0  0  0  0  0  0  0  0  0  0  0
   57.0350   31.8830   45.4030 N   0  0  0  0  0  0  0  0  0  0  0  0
   57.4960   30.6990   45.1070 C   0  0  0  0  0  0  0  0  0  0  0  0
   56.8110   29.6080   45.5460 N   0  0  0  0  0  0  0  0  0  0  0  0
   57.2360   28.3450   45.2860 C   0  0  0  0  0  0  0  0  0  0  0  0
   56.5140   27.2380   45.7380 C   0  0  0  0  0  0  0  0  0  0  0  0
   55.5888   27.3772   46.3165 H   0  0  0  0  0  0  0  0  0  0  0  0
   56.9820   25.9410   45.4460 C   0  0  0  0  0  0  0  0  0  0  0  0
   56.2530   24.7300   45.9050 C   0  0  0  0  0  0  0  0  0  0  0  0
   54.9950   24.3940   45.3820 C   0  0  0  0  0  0  0  0  0  0  0  0
   54.5362   25.0411   44.6199 H   0  0  0  0  0  0  0  0  0  0  0  0
   54.3090   23.2420   45.8160 C   0  0  0  0  0  0  0  0  0  0  0  0
   53.0490   22.9150   45.2920 O   0  0  0  0  0  0  0  0  0  0  0  0
   52.0420   23.8560   44.9320 C   0  0  0  0  0  0  0  0  0  0  0  0
   51.5913   24.2772   45.8428 H   0  0  0  0  0  0  0  0  0  0  0  0
   52.4918   24.6650   44.3376 H   0  0  0  0  0  0  0  0  0  0  0  0
   51.2653   23.3525   44.3376 H   0  0  0  0  0  0  0  0  0  0  0  0
   54.9090   22.4050   46.7920 C   0  0  0  0  0  0  0  0  0  0  0  0
   54.3070   21.2360   47.2950 O   0  0  0  0  0  0  0  0  0  0  0  0
   54.5940   19.8970   46.9060 C   0  0  0  0  0  0  0  0  0  0  0  0
   54.7273   19.2750   47.8034 H   0  0  0  0  0  0  0  0  0  0  0  0
   53.7600   19.5024   46.3070 H   0  0  0  0  0  0  0  0  0  0  0  0
   55.5164   19.8789   46.3070 H   0  0  0  0  0  0  0  0  0  0  0  0
   56.1740   22.7320   47.3050 C   0  0  0  0  0  0  0  0  0  0  0  0
   56.7400   21.8770   48.2650 O   0  0  0  0  0  0  0  0  0  0  0  0
   56.2790   21.7470   49.6060 C   0  0  0  0  0  0  0  0  0  0  0  0
   57.1003   21.9786   50.3001 H   0  0  0  0  0  0  0  0  0  0  0  0
   55.4465   22.4454   49.7769 H   0  0  0  0  0  0  0  0  0  0  0  0
   55.9341   20.7166   49.7769 H   0  0  0  0  0  0  0  0  0  0  0  0
   56.8390   23.8870   46.8580 C   0  0  0  0  0  0  0  0  0  0  0  0
   57.8324   24.1320   47.2618 H   0  0  0  0  0  0  0  0  0  0  0  0
   58.1400   25.7970   44.7400 N   0  0  0  0  0  0  0  0  0  0  0  0
   58.8610   26.8590   44.2920 C   0  0  0  0  0  0  0  0  0  0  0  0
   59.7889   26.6962   43.7241 H   0  0  0  0  0  0  0  0  0  0  0  0
   58.4200   28.1550   44.5550 C   0  0  0  0  0  0  0  0  0  0  0  0
   59.1230   29.2360   44.1290 N   0  0  0  0  0  0  0  0  0  0  0  0
   58.6940   30.5000   44.3880 C   0  0  0  0  0  0  0  0  0  0  0  0
   59.2783   31.3640   44.0385 H   0  0  0  0  0  0  0  0  0  0  0  0
   58.3130   33.8750   44.7820 C   0  0  0  0  0  0  0  0  0  0  0  0
   58.1077   33.6543   43.7241 H   0  0  0  0  0  0  0  0  0  0  0  0
   59.0970   34.9820   45.1230 C   0  0  0  0  0  0  0  0  0  0  0  0
   59.4910   35.6404   44.3348 H   0  0  0  0  0  0  0  0  0  0  0  0
  1  2  1  0
  2  3  2  0
  3  4  1  0
  3  5  1  0
  5  6  1  0
  5  7  2  0
  7  8  1  0
  8  9  2  0
  9 10  1  0
 10 11  1  0
 11 12  2  0
 12 13  1  0
 12 14  1  0
 14 15  1  0
 15 16  2  0
 16 17  1  0
 16 18  1  0
 18 19  1  0
 19 20  1  0
 20 21  1  0
 20 22  1  0
 20 23  1  0
 18 24  2  0
 24 25  1  0
 25 26  1  0
 26 27  1  0
 26 28  1  0
 26 29  1  0
 24 30  1  0
 30 31  1  0
 31 32  1  0
 32 33  1  0
 32 34  1  0
 32 35  1  0
 30 36  2  0
 36 37  1  0
 14 38  2  0
 38 39  1  0
 39 40  1  0
 39 41  2  0
 41 42  1  0
 42 43  2  0
 43 44  1  0
  7 45  1  0
 45 46  1  0
 45 47  2  0
 47 48  1  0
 47  2  1  0
 43  9  1  0
 41 11  1  0
 36 15  1  0
M  CHG  1  10  -1
M  END
>  <UniqueID>  (23) 
19

>  <SMILES>  (23) 
COc1cc(-c2cc3[n-]/c(=N/c4ccccc4)cnc3cn2)cc(OC)c1OC

>  <Energy>  (23) 
72.59609486079073

>  <Genealogy>  (23) 
COc1cc(-c2cc3[n-]c(=Nc4ccccc4)cnc3cn2)cc(OC)c1OC (protonated)
COc1cc(-c2cc3[n-]/c(=N/c4ccccc4)cnc3cn2)cc(OC)c1OC (cis-trans isomerization)
COc1cc(-c2cc3[n-]/c(=N/c4ccccc4)cnc3cn2)cc(OC)c1OC (3D coordinates assigned)
COc1cc(-c2cc3[n-]/c(=N/c4ccccc4)cnc3cn2)cc(OC)c1OC (optimized conformer: 72.59609486079073 kcal/mol)

>  <smiles>  (23) 
COc1cc(-c2cc3[nH]c(=Nc4ccccc4)cnc3cn2)cc(OC)c1OC

>  <score_type>  (23) 
oracle

>  <origin>  (23) 
adg

>  <m_score__min__energy>  (23) 
-8.6300000000000008

>  <m_primary>  (23) 
energy

$$$$
23:0
     RDKit          3D

 38 40  0  0  0  0  0  0  0  0999 V2000
   58.1960   28.9520   46.3950 C   0  0  0  0  0  0  0  0  0  0  0  0
   57.3180   29.9910   45.9740 O   0  0  0  0  0  0  0  0  0  0  0  0
   57.6940   31.1050   45.2060 C   0  0  0  0  0  0  0  0  0  0  0  0
   58.3600   32.1980   45.7980 C   0  0  0  0  0  0  0  0  0  0  0  0
   58.7240   33.3210   45.0410 C   0  0  0  0  0  0  0  0  0  0  0  0
   59.4280   34.4650   45.6630 C   0  0  0  0  0  0  0  0  0  0  0  0
   59.2990   35.6110   45.1540 O   0  0  0  0  0  0  0  0  0  0  0  0
   60.2590   34.3150   46.8750 C   0  0  0  0  0  0  0  0  0  0  0  0
   59.8180   34.4670   48.1860 C   0  0  0  0  0  0  0  0  0  0  0  0
   60.7610   34.2280   49.1360 N   0  0  0  0  0  0  0  0  0  0  0  0
   61.9600   33.8680   48.6150 C   0  0  0  0  0  0  0  0  0  0  0  0
   63.1690   33.5480   49.4130 C   0  0  0  0  0  0  0  0  0  0  0  0
   64.1290   32.6340   48.9430 C   0  0  0  0  0  0  0  0  0  0  0  0
   65.2580   32.3540   49.7170 C   0  0  0  0  0  0  0  0  0  0  0  0
   65.4300   32.9630   50.9190 N   0  0  0  0  0  0  0  0  0  0  0  0
   64.5230   33.8530   51.4010 C   0  0  0  0  0  0  0  0  0  0  0  0
   63.3820   34.1630   50.6590 C   0  0  0  0  0  0  0  0  0  0  0  0
   61.8770   33.8410   46.9300 S   0  0  0  0  0  0  0  0  0  0  0  0
   58.4530   33.3340   43.6680 C   0  0  0  0  0  0  0  0  0  0  0  0
   57.7980   32.2590   43.0640 C   0  0  0  0  0  0  0  0  0  0  0  0
   57.4400   32.3420   41.1850 Br  0  0  0  0  0  0  0  0  0  0  0  0
   57.4080   31.1400   43.8160 C   0  0  0  0  0  0  0  0  0  0  0  0
   56.7460   30.1050   43.1270 O   0  0  0  0  0  0  0  0  0  0  0  0
   57.1220   28.7330   43.0920 C   0  0  0  0  0  0  0  0  0  0  0  0
   58.2242   28.9187   47.4941 H   0  0  0  0  0  0  0  0  0  0  0  0
   57.8350   27.9877   46.0080 H   0  0  0  0  0  0  0  0  0  0  0  0
   59.2070   29.1471   46.0080 H   0  0  0  0  0  0  0  0  0  0  0  0
   58.5980   32.1692   46.8716 H   0  0  0  0  0  0  0  0  0  0  0  0
   58.7867   34.7579   48.4345 H   0  0  0  0  0  0  0  0  0  0  0  0
   60.5620   34.3340   50.1540 H   0  0  0  0  0  0  0  0  0  0  0  0
   63.9915   32.1412   47.9692 H   0  0  0  0  0  0  0  0  0  0  0  0
   66.0096   31.6385   49.3520 H   0  0  0  0  0  0  0  0  0  0  0  0
   64.6884   34.3302   52.3782 H   0  0  0  0  0  0  0  0  0  0  0  0
   62.6511   34.8870   51.0485 H   0  0  0  0  0  0  0  0  0  0  0  0
   58.7585   34.1981   43.0598 H   0  0  0  0  0  0  0  0  0  0  0  0
   57.2256   28.3549   44.1198 H   0  0  0  0  0  0  0  0  0  0  0  0
   56.3493   28.1544   42.5646 H   0  0  0  0  0  0  0  0  0  0  0  0
   58.0817   28.6292   42.5646 H   0  0  0  0  0  0  0  0  0  0  0  0
  1  2  1  0
  2  3  1  0
  3  4  2  0
  4  5  1  0
  5  6  1  0
  6  7  2  0
  6  8  1  0
  8  9  2  0
  9 10  1  0
 10 11  2  0
 11 12  1  0
 12 13  2  0
 13 14  1  0
 14 15  2  0
 15 16  1  0
 16 17  2  0
 11 18  1  0
  5 19  2  0
 19 20  1  0
 20 21  1  0
 20 22  2  0
 22 23  1  0
 23 24  1  0
 22  3  1  0
 18  8  1  0
 17 12  1  0
  1 25  1  0
  1 26  1  0
  1 27  1  0
  4 28  1  0
  9 29  1  0
 10 30  1  0
 13 31  1  0
 14 32  1  0
 16 33  1  0
 17 34  1  0
 19 35  1  0
 24 36  1  0
 24 37  1  0
 24 38  1  0
M  CHG  1  10   1
M  END
>  <UniqueID>  (24) 
20

>  <SMILES>  (24) 
COc1cc(C(=O)c2c[nH+]c(-c3ccncc3)s2)cc(Br)c1OC

>  <Energy>  (24) 
79.59314812444207

>  <Genealogy>  (24) 
COc1cc(C(=O)c2c[nH+]c(-c3ccncc3)s2)cc(Br)c1OC (protonated)
COc1cc(C(=O)c2c[nH+]c(-c3ccncc3)s2)cc(Br)c1OC (3D coordinates assigned)
COc1cc(C(=O)c2c[nH+]c(-c3ccncc3)s2)cc(Br)c1OC (optimized conformer: 79.59314812444207 kcal/mol)

>  <smiles>  (24) 
COc1cc(C(=O)c2cnc(-c3ccncc3)s2)cc(Br)c1OC

>  <score_type>  (24) 
oracle

>  <origin>  (24) 
adg

>  <m_score__min__energy>  (24) 
-6.0599999999999996

>  <m_primary>  (24) 
energy

$$$$
24:0
     RDKit          3D

 37 39  0  0  0  0  0  0  0  0999 V2000
   58.1000   31.9050   50.6800 C   0  0  0  0  0  0  0  0  0  0  0  0
   59.6140   31.8700   50.5030 C   0  0  0  0  0  0  0  0  0  0  0  0
   60.1000   33.1100   49.7930 C   0  0  0  0  0  0  0  0  0  0  0  0
   59.5580   34.1780   50.0450 O   0  0  0  0  0  0  0  0  0  0  0  0
   61.2000   33.0490   48.8430 N   0  0  1  0  0  0  0  0  0  0  0  0
   61.2240   31.7500   48.1210 C   0  0  0  0  0  0  0  0  0  0  0  0
   60.0360   31.5540   47.1500 C   0  0  0  0  0  0  0  0  0  0  0  0
   59.7700   32.8160   46.3880 C   0  0  0  0  0  0  0  0  0  0  0  0
   60.2300   34.0390   46.8020 C   0  0  0  0  0  0  0  0  0  0  0  0
   59.6350   34.9990   46.0130 C   0  0  0  0  0  0  0  0  0  0  0  0
   58.7890   34.4010   45.1500 N   0  0  0  0  0  0  0  0  0  0  0  0
   58.8580   33.0690   45.3720 C   0  0  0  0  0  0  0  0  0  0  0  0
   58.0090   32.0840   44.6720 C   0  0  0  0  0  0  0  0  0  0  0  0
   57.8270   32.1710   43.2850 C   0  0  0  0  0  0  0  0  0  0  0  0
   57.0300   31.2360   42.6240 C   0  0  0  0  0  0  0  0  0  0  0  0
   56.4300   30.2100   43.3550 C   0  0  0  0  0  0  0  0  0  0  0  0
   56.6320   30.1240   44.6960 N   0  0  0  0  0  0  0  0  0  0  0  0
   57.4000   31.0250   45.3640 C   0  0  0  0  0  0  0  0  0  0  0  0
   61.2050   34.2190   47.9270 C   0  0  0  0  0  0  0  0  0  0  0  0
   57.8563   31.9106   51.7526 H   0  0  0  0  0  0  0  0  0  0  0  0
   57.6965   32.8127   50.2075 H   0  0  0  0  0  0  0  0  0  0  0  0
   57.6550   31.0169   50.2075 H   0  0  0  0  0  0  0  0  0  0  0  0
   60.0913   31.8105   51.4922 H   0  0  0  0  0  0  0  0  0  0  0  0
   59.8776   30.9908   49.8968 H   0  0  0  0  0  0  0  0  0  0  0  0
   62.0980   33.1000   49.3800 H   0  0  0  0  0  0  0  0  0  0  0  0
   62.1579   31.6917   47.5427 H   0  0  0  0  0  0  0  0  0  0  0  0
   61.1501   30.9590   48.8818 H   0  0  0  0  0  0  0  0  0  0  0  0
   60.2760   30.7470   46.4421 H   0  0  0  0  0  0  0  0  0  0  0  0
   59.1395   31.2929   47.7315 H   0  0  0  0  0  0  0  0  0  0  0  0
   59.8206   36.0813   46.0769 H   0  0  0  0  0  0  0  0  0  0  0  0
   58.1840   34.8870   44.4510 H   0  0  0  0  0  0  0  0  0  0  0  0
   58.3133   32.9777   42.7168 H   0  0  0  0  0  0  0  0  0  0  0  0
   56.8761   31.3069   41.5371 H   0  0  0  0  0  0  0  0  0  0  0  0
   55.7937   29.4711   42.8459 H   0  0  0  0  0  0  0  0  0  0  0  0
   57.5447   30.9241   46.4498 H   0  0  0  0  0  0  0  0  0  0  0  0
   62.2150   34.3415   47.5088 H   0  0  0  0  0  0  0  0  0  0  0  0
   60.9091   35.1091   48.5017 H   0  0  0  0  0  0  0  0  0  0  0  0
  1  2  1  0
  2  3  1  0
  3  4  2  0
  3  5  1  0
  5  6  1  0
  6  7  1  0
  7  8  1  0
  8  9  1  0
  9 10  2  0
 10 11  1  0
 11 12  1  0
 12 13  1  0
 13 14  2  0
 14 15  1  0
 15 16  2  0
 16 17  1  0
 17 18  2  0
  9 19  1  0
 19  5  1  0
 12  8  2  0
 18 13  1  0
  1 20  1  0
  1 21  1  0
  1 22  1  0
  2 23  1  0
  2 24  1  0
  5 25  1  1
  6 26  1  0
  6 27  1  0
  7 28  1  0
  7 29  1  0
 10 30  1  0
 11 31  1  0
 14 32  1  0
 15 33  1  0
 16 34  1  0
 18 35  1  0
 19 36  1  0
 19 37  1  0
M  CHG  1   5   1
M  END
>  <UniqueID>  (25) 
21

>  <SMILES>  (25) 
CCC(=O)[N@H+]1CCc2c(c[nH]c2-c2cccnc2)C1

>  <Energy>  (25) 
73.75875933781599

>  <Genealogy>  (25) 
CCC(=O)[NH+]1CCc2c(c[nH]c2-c2cccnc2)C1 (protonated)
CCC(=O)[N@H+]1CCc2c(c[nH]c2-c2cccnc2)C1 (chirality)
CCC(=O)[N@H+]1CCc2c(c[nH]c2-c2cccnc2)C1 (3D coordinates assigned)
CCC(=O)[N@H+]1CCc2c(c[nH]c2-c2cccnc2)C1 (nonaromatic ring conformer: 73.75875933781599 kcal/mol)

>  <smiles>  (25) 
CCC(=O)N1CCc2c(c[nH]c2-c2cccnc2)C1

>  <score_type>  (25) 
oracle

>  <origin>  (25) 
adg

>  <m_score__min__energy>  (25) 
-5.21

>  <m_primary>  (25) 
energy

$$$$
25:0
     RDKit          3D

 29 30  0  0  0  0  0  0  0  0999 V2000
   63.1730   33.2430   47.4100 C   0  0  0  0  0  0  0  0  0  0  0  0
   61.7340   33.6430   47.4680 C   0  0  0  0  0  0  0  0  0  0  0  0
   61.0820   33.8170   48.6920 C   0  0  0  0  0  0  0  0  0  0  0  0
   59.7560   34.1860   48.6270 C   0  0  0  0  0  0  0  0  0  0  0  0
   59.0770   34.3820   47.4460 C   0  0  0  0  0  0  0  0  0  0  0  0
   59.7090   34.2140   46.2550 C   0  0  0  0  0  0  0  0  0  0  0  0
   59.1150   34.4040   44.9190 C   0  0  0  0  0  0  0  0  0  0  0  0
   57.4460   33.7390   44.8380 S   0  0  0  0  0  0  0  0  0  0  0  0
   57.4420   31.9720   44.8940 C   0  0  0  0  0  0  0  0  0  0  0  0
   56.3760   31.1890   44.7260 N   0  0  0  0  0  0  0  0  0  0  0  0
   56.3770   29.8460   44.7740 C   0  0  0  0  0  0  0  0  0  0  0  0
   55.2890   29.1720   44.5950 N   0  0  0  0  0  0  0  0  0  0  0  0
   57.5840   29.2170   45.0180 C   0  0  0  0  0  0  0  0  0  0  0  0
   58.7230   30.0030   45.1990 C   0  0  0  0  0  0  0  0  0  0  0  0
   60.2700   29.2320   45.5100 Cl  0  0  0  0  0  0  0  0  0  0  0  0
   58.6390   31.3590   45.1350 N   0  0  0  0  0  0  0  0  0  0  0  0
   61.0510   33.8400   46.2960 C   0  0  0  0  0  0  0  0  0  0  0  0
   63.5648   33.1341   48.4321 H   0  0  0  0  0  0  0  0  0  0  0  0
   63.2661   32.2849   46.8776 H   0  0  0  0  0  0  0  0  0  0  0  0
   63.7472   34.0156   46.8776 H   0  0  0  0  0  0  0  0  0  0  0  0
   61.5978   33.6679   49.6521 H   0  0  0  0  0  0  0  0  0  0  0  0
   59.2102   34.3319   49.5708 H   0  0  0  0  0  0  0  0  0  0  0  0
   58.0173   34.6762   47.4664 H   0  0  0  0  0  0  0  0  0  0  0  0
   59.0823   35.4799   44.6923 H   0  0  0  0  0  0  0  0  0  0  0  0
   59.7358   33.8676   44.1862 H   0  0  0  0  0  0  0  0  0  0  0  0
   55.1550   28.1990   44.8800 H   0  0  0  0  0  0  0  0  0  0  0  0
   57.6452   28.1199   45.0684 H   0  0  0  0  0  0  0  0  0  0  0  0
   59.5150   31.9220   45.2750 H   0  0  0  0  0  0  0  0  0  0  0  0
   61.5858   33.6965   45.3456 H   0  0  0  0  0  0  0  0  0  0  0  0
  1  2  1  0
  2  3  2  0
  3  4  1  0
  4  5  2  0
  5  6  1  0
  6  7  1  0
  7  8  1  0
  8  9  1  0
  9 10  2  0
 10 11  1  0
 11 12  2  3
 11 13  1  0
 13 14  2  0
 14 15  1  0
 14 16  1  0
  6 17  2  0
 17  2  1  0
 16  9  1  0
  1 18  1  0
  1 19  1  0
  1 20  1  0
  3 21  1  0
  4 22  1  0
  5 23  1  0
  7 24  1  0
  7 25  1  0
 12 26  1  0
 13 27  1  0
 16 28  1  0
 17 29  1  0
M  END
>  <smiles>  (26) 
Cc1cccc(CSc2nc(=N)cc(Cl)[nH]2)c1

>  <score_type>  (26) 
oracle

>  <origin>  (26) 
adg

>  <m_score__min__energy>  (26) 
-7.7300000000000004

>  <m_primary>  (26) 
energy

$$$$
26:0
     RDKit          3D

 39 42  0  0  0  0  0  0  0  0999 V2000
   60.7010   30.0880   48.0040 C   0  0  0  0  0  0  0  0  0  0  0  0
   60.9160   31.4180   48.7180 C   0  0  0  0  0  0  0  0  0  0  0  0
   60.8480   32.5590   47.7470 C   0  0  0  0  0  0  0  0  0  0  0  0
   61.9260   33.1950   47.2500 N   0  0  0  0  0  0  0  0  0  0  0  0
   61.5130   34.0750   46.3470 N   0  0  0  0  0  0  0  0  0  0  0  0
   60.1710   33.9490   46.3050 C   0  0  0  0  0  0  0  0  0  0  0  0
   59.7230   33.0270   47.1710 N   0  0  0  0  0  0  0  0  0  0  0  0
   58.3420   32.5730   47.2940 C   0  0  0  0  0  0  0  0  0  0  0  0
   57.3880   33.5170   46.5300 C   0  0  0  0  0  0  0  0  0  0  0  0
   57.9570   34.0290   45.2590 N   0  0  0  0  0  0  0  0  0  0  0  0
   57.8770   33.0950   44.1120 C   0  0  0  0  0  0  0  0  0  0  0  0
   57.4930   31.6950   44.4960 C   0  0  0  0  0  0  0  0  0  0  0  0
   58.3740   30.7410   44.8560 N   0  0  0  0  0  0  0  0  0  0  0  0
   57.5510   29.6950   45.0780 C   0  0  0  0  0  0  0  0  0  0  0  0
   58.0220   28.3620   45.4690 C   0  0  0  0  0  0  0  0  0  0  0  0
   59.3470   27.9550   45.5440 C   0  0  0  0  0  0  0  0  0  0  0  0
   59.4930   26.6320   45.9810 C   0  0  0  0  0  0  0  0  0  0  0  0
   58.2870   25.9990   46.2520 C   0  0  0  0  0  0  0  0  0  0  0  0
   57.0390   27.0860   45.9490 S   0  0  0  0  0  0  0  0  0  0  0  0
   56.2550   30.0000   44.8740 N   0  0  0  0  0  0  0  0  0  0  0  0
   56.2620   31.2470   44.5180 O   0  0  0  0  0  0  0  0  0  0  0  0
   59.2560   34.7230   45.4140 C   0  0  0  0  0  0  0  0  0  0  0  0
   60.5718   29.2888   48.7487 H   0  0  0  0  0  0  0  0  0  0  0  0
   59.8014   30.1512   47.3741 H   0  0  0  0  0  0  0  0  0  0  0  0
   61.5747   29.8645   47.3741 H   0  0  0  0  0  0  0  0  0  0  0  0
   60.1357   31.5476   49.4824 H   0  0  0  0  0  0  0  0  0  0  0  0
   61.9116   31.4110   49.1857 H   0  0  0  0  0  0  0  0  0  0  0  0
   62.9260   33.0240   47.4980 H   0  0  0  0  0  0  0  0  0  0  0  0
   58.2567   31.5586   46.8773 H   0  0  0  0  0  0  0  0  0  0  0  0
   58.0628   32.5727   48.3580 H   0  0  0  0  0  0  0  0  0  0  0  0
   56.4631   32.9673   46.3013 H   0  0  0  0  0  0  0  0  0  0  0  0
   57.2057   34.3873   47.1775 H   0  0  0  0  0  0  0  0  0  0  0  0
   57.1274   33.4784   43.4042 H   0  0  0  0  0  0  0  0  0  0  0  0
   58.8835   33.0417   43.6715 H   0  0  0  0  0  0  0  0  0  0  0  0
   60.1961   28.6052   45.2865 H   0  0  0  0  0  0  0  0  0  0  0  0
   60.4704   26.1411   46.0984 H   0  0  0  0  0  0  0  0  0  0  0  0
   58.1680   24.9638   46.6045 H   0  0  0  0  0  0  0  0  0  0  0  0
   59.7251   34.8342   44.4253 H   0  0  0  0  0  0  0  0  0  0  0  0
   59.0757   35.7091   45.8669 H   0  0  0  0  0  0  0  0  0  0  0  0
  1  2  1  0
  2  3  1  0
  3  4  2  0
  4  5  1  0
  5  6  2  0
  6  7  1  0
  7  8  1  0
  8  9  1  0
  9 10  1  0
 10 11  1  0
 11 12  1  0
 12 13  2  0
 13 14  1  0
 14 15  1  0
 15 16  2  0
 16 17  1  0
 17 18  2  0
 18 19  1  0
 14 20  2  0
 20 21  1  0
 10 22  1  0
  7  3  1  0
 21 12  1  0
 22  6  1  0
 19 15  1  0
  1 23  1  0
  1 24  1  0
  1 25  1  0
  2 26  1  0
  2 27  1  0
  4 28  1  0
  8 29  1  0
  8 30  1  0
  9 31  1  0
  9 32  1  0
 11 33  1  0
 11 34  1  0
 16 35  1  0
 17 36  1  0
 18 37  1  0
 22 38  1  0
 22 39  1  0
M  CHG  1   4   1
M  END
>  <UniqueID>  (27) 
22

>  <SMILES>  (27) 
CCc1[nH+]nc2n1CCN(Cc1nc(-c3cccs3)no1)C2

>  <Energy>  (27) 
137.3433190462553

>  <Genealogy>  (27) 
CCc1[nH+]nc2n1CCN(Cc1nc(-c3cccs3)no1)C2 (protonated)
CCc1[nH+]nc2n1CCN(Cc1nc(-c3cccs3)no1)C2 (3D coordinates assigned)
CCc1[nH+]nc2n1CCN(Cc1nc(-c3cccs3)no1)C2 (nonaromatic ring conformer: 137.3433190462553 kcal/mol)

>  <smiles>  (27) 
CCc1nnc2n1CCN(Cc1nc(-c3cccs3)no1)C2

>  <score_type>  (27) 
oracle

>  <origin>  (27) 
adg

>  <m_score__min__energy>  (27) 
-6.46

>  <m_primary>  (27) 
energy

$$$$
27:0
     RDKit          3D

 54 57  0  0  0  0  0  0  0  0999 V2000
   58.2519   31.6340   47.1239 H   0  0  0  0  0  0  0  0  0  0  0  0
   59.0290   32.3090   46.7360 C   0  0  0  0  0  0  0  0  0  0  0  0
   58.7110   33.1090   45.6990 C   0  0  0  0  0  0  0  0  0  0  0  0
   59.2260   34.4580   45.6170 C   0  0  0  0  0  0  0  0  0  0  0  0
   59.6370   35.5380   45.5510 N   0  0  0  0  0  0  0  0  0  0  0  0
   57.8400   32.6240   44.6060 C   0  0  0  0  0  0  0  0  0  0  0  0
   58.1630   32.8060   43.4000 O   0  0  0  0  0  0  0  0  0  0  0  0
   56.6300   31.9240   44.9190 N   0  0  0  0  0  0  0  0  0  0  0  0
   56.3520   30.5600   44.4790 C   0  0  0  0  0  0  0  0  0  0  0  0
   55.3347   30.3339   44.8312 H   0  0  0  0  0  0  0  0  0  0  0  0
   56.4790   30.4460   42.9710 C   0  0  0  0  0  0  0  0  0  0  0  0
   55.5299   30.7101   42.4816 H   0  0  0  0  0  0  0  0  0  0  0  0
   57.2411   31.1285   42.5668 H   0  0  0  0  0  0  0  0  0  0  0  0
   56.8240   28.9880   42.7170 C   0  0  0  0  0  0  0  0  0  0  0  0
   55.9070   28.4016   42.5578 H   0  0  0  0  0  0  0  0  0  0  0  0
   57.4472   28.8751   41.8176 H   0  0  0  0  0  0  0  0  0  0  0  0
   57.5550   28.4980   43.9640 C   0  0  0  0  0  0  0  0  0  0  0  0
   57.1275   27.5425   44.3021 H   0  0  0  0  0  0  0  0  0  0  0  0
   58.6225   28.3338   43.7555 H   0  0  0  0  0  0  0  0  0  0  0  0
   57.3660   29.5680   45.0390 C   0  0  0  0  0  0  0  0  0  0  0  0
   56.9840   29.1144   45.9654 H   0  0  0  0  0  0  0  0  0  0  0  0
   58.3176   30.0627   45.2835 H   0  0  0  0  0  0  0  0  0  0  0  0
   60.3620   32.2820   47.3870 C   0  0  0  0  0  0  0  0  0  0  0  0
   61.3040   31.2650   47.1270 C   0  0  0  0  0  0  0  0  0  0  0  0
   61.0600   30.2430   46.1960 O   0  0  0  0  0  0  0  0  0  0  0  0
   60.3400   29.0690   46.4630 C   0  0  0  0  0  0  0  0  0  0  0  0
   59.5140   29.0280   47.5910 C   0  0  0  0  0  0  0  0  0  0  0  0
   59.4566   29.9004   48.2586 H   0  0  0  0  0  0  0  0  0  0  0  0
   58.7610   27.8850   47.8750 C   0  0  0  0  0  0  0  0  0  0  0  0
   58.1037   27.8697   48.7569 H   0  0  0  0  0  0  0  0  0  0  0  0
   58.8370   26.7600   47.0460 C   0  0  0  0  0  0  0  0  0  0  0  0
   58.0580   25.6390   47.3700 O   0  0  0  0  0  0  0  0  0  0  0  0
   56.9610   25.1710   46.5920 C   0  0  0  0  0  0  0  0  0  0  0  0
   56.1574   24.8282   47.2603 H   0  0  0  0  0  0  0  0  0  0  0  0
   56.5867   25.9878   45.9574 H   0  0  0  0  0  0  0  0  0  0  0  0
   57.2915   24.3356   45.9574 H   0  0  0  0  0  0  0  0  0  0  0  0
   59.6860   26.7900   45.9240 C   0  0  0  0  0  0  0  0  0  0  0  0
   59.7595   25.9090   45.2695 H   0  0  0  0  0  0  0  0  0  0  0  0
   60.4370   27.9350   45.6370 C   0  0  0  0  0  0  0  0  0  0  0  0
   61.1050   27.9483   44.7631 H   0  0  0  0  0  0  0  0  0  0  0  0
   62.4750   31.2490   47.8110 N   0  0  0  0  0  0  0  0  0  0  0  0
   63.1480   30.4700   47.6230 H   0  0  0  0  0  0  0  0  0  0  0  0
   62.7970   32.2280   48.7000 C   0  0  0  0  0  0  0  0  0  0  0  0
   64.0300   32.1770   49.3690 C   0  0  0  0  0  0  0  0  0  0  0  0
   64.7265   31.3468   49.1804 H   0  0  0  0  0  0  0  0  0  0  0  0
   64.3680   33.1810   50.2720 C   0  0  0  0  0  0  0  0  0  0  0  0
   65.3328   33.1474   50.7992 H   0  0  0  0  0  0  0  0  0  0  0  0
   63.4820   34.2260   50.5050 C   0  0  0  0  0  0  0  0  0  0  0  0
   63.7413   35.0239   51.2165 H   0  0  0  0  0  0  0  0  0  0  0  0
   62.2610   34.2560   49.8300 C   0  0  0  0  0  0  0  0  0  0  0  0
   61.5591   35.0824   50.0155 H   0  0  0  0  0  0  0  0  0  0  0  0
   61.9230   33.2680   48.9370 N   0  0  0  0  0  0  0  0  0  0  0  0
   60.7130   33.3000   48.2870 C   0  0  0  0  0  0  0  0  0  0  0  0
   59.8960   34.2410   48.5030 O   0  0  0  0  0  0  0  0  0  0  0  0
  1  2  1  0
  2  3  2  0
  3  4  1  0
  4  5  3  0
  3  6  1  0
  6  7  2  0
  6  8  1  0
  8  9  1  0
  9 10  1  0
  9 11  1  0
 11 12  1  0
 11 13  1  0
 11 14  1  0
 14 15  1  0
 14 16  1  0
 14 17  1  0
 17 18  1  0
 17 19  1  0
 17 20  1  0
 20 21  1  0
 20 22  1  0
  2 23  1  0
 23 24  2  0
 24 25  1  0
 25 26  1  0
 26 27  2  0
 27 28  1  0
 27 29  1  0
 29 30  1  0
 29 31  2  0
 31 32  1  0
 32 33  1  0
 33 34  1  0
 33 35  1  0
 33 36  1  0
 31 37  1  0
 37 38  1  0
 37 39  2  0
 39 40  1  0
 24 41  1  0
 41 42  1  0
 41 43  2  0
 43 44  1  0
 44 45  1  0
 44 46  2  0
 46 47  1  0
 46 48  1  0
 48 49  1  0
 48 50  2  0
 50 51  1  0
 50 52  1  0
 52 53  1  0
 53 54  2  0
 20  9  1  0
 53 23  1  0
 39 26  1  0
 52 43  1  0
M  CHG  2   8  -1  41   1
M  END
>  <UniqueID>  (28) 
23

>  <SMILES>  (28) 
COc1ccc(Oc2[nH+]c3ccccn3c(=O)c2/C=C(\C#N)C(=O)[N-]C2CCCC2)cc1

>  <Energy>  (28) 
74.06566268478278

>  <Genealogy>  (28) 
COc1ccc(Oc2[nH+]c3ccccn3c(=O)c2C=C(C#N)C(=O)[N-]C2CCCC2)cc1 (protonated)
COc1ccc(Oc2[nH+]c3ccccn3c(=O)c2/C=C(\C#N)C(=O)[N-]C2CCCC2)cc1 (cis-trans isomerization)
COc1ccc(Oc2[nH+]c3ccccn3c(=O)c2/C=C(\C#N)C(=O)[N-]C2CCCC2)cc1 (3D coordinates assigned)
COc1ccc(Oc2[nH+]c3ccccn3c(=O)c2/C=C(\C#N)C(=O)[N-]C2CCCC2)cc1 (nonaromatic ring conformer: 74.06566268478278 kcal/mol)

>  <smiles>  (28) 
COc1ccc(Oc2nc3ccccn3c(=O)c2C=C(C#N)C(=O)NC2CCCC2)cc1

>  <score_type>  (28) 
oracle

>  <origin>  (28) 
adg

>  <m_score__min__energy>  (28) 
-8.2699999999999996

>  <m_primary>  (28) 
energy

$$$$
28:0
     RDKit          3D

 37 37  0  0  0  0  0  0  0  0999 V2000
   58.5780   31.6450   47.5430 C   0  0  0  0  0  0  0  0  0  0  0  0
   58.9400   32.9700   46.9000 C   0  0  0  0  0  0  0  0  0  0  0  0
   58.1890   33.4510   45.7890 C   0  0  0  0  0  0  0  0  0  0  0  0
   57.0150   32.6990   45.2040 C   0  0  0  0  0  0  0  0  0  0  0  0
   57.5410   31.7290   43.8040 S   0  0  0  0  0  0  0  0  0  0  0  0
   58.9650   30.9070   44.1440 O   0  0  0  0  0  0  0  0  0  0  0  0
   56.2700   30.5800   43.3260 C   0  0  0  0  0  0  0  0  0  0  0  0
   56.4270   29.3070   44.0940 C   0  0  0  0  0  0  0  0  0  0  0  0
   55.5180   28.9470   44.8900 O   0  0  0  0  0  0  0  0  0  0  0  0
   57.6270   28.5330   43.9630 N   0  0  0  0  0  0  0  0  0  0  0  0
   57.8410   27.2740   44.6770 C   0  0  0  0  0  0  0  0  0  0  0  0
   57.8420   27.4990   46.1890 C   0  0  0  0  0  0  0  0  0  0  0  0
   58.9140   26.8400   46.7630 F   0  0  0  0  0  0  0  0  0  0  0  0
   57.9530   28.8520   46.4520 F   0  0  0  0  0  0  0  0  0  0  0  0
   56.6670   27.0300   46.7490 F   0  0  0  0  0  0  0  0  0  0  0  0
   58.5580   34.6560   45.1740 C   0  0  0  0  0  0  0  0  0  0  0  0
   59.6230   35.4050   45.6560 C   0  0  0  0  0  0  0  0  0  0  0  0
   60.3300   34.9760   46.7750 C   0  0  0  0  0  0  0  0  0  0  0  0
   59.9900   33.7780   47.4320 C   0  0  0  0  0  0  0  0  0  0  0  0
   60.7790   33.3690   48.6640 C   0  0  0  0  0  0  0  0  0  0  0  0
   59.9390   33.2640   49.7580 F   0  0  0  0  0  0  0  0  0  0  0  0
   61.7570   34.2980   48.9780 F   0  0  0  0  0  0  0  0  0  0  0  0
   61.3970   32.1530   48.4370 F   0  0  0  0  0  0  0  0  0  0  0  0
   58.6064   31.7488   48.6377 H   0  0  0  0  0  0  0  0  0  0  0  0
   57.5661   31.3493   47.2288 H   0  0  0  0  0  0  0  0  0  0  0  0
   59.2989   30.8759   47.2288 H   0  0  0  0  0  0  0  0  0  0  0  0
   56.5926   32.0321   45.9700 H   0  0  0  0  0  0  0  0  0  0  0  0
   56.2541   33.4218   44.8743 H   0  0  0  0  0  0  0  0  0  0  0  0
   59.1270   30.3500   43.3410 H   0  0  0  0  0  0  0  0  0  0  0  0
   55.2832   31.0166   43.5396 H   0  0  0  0  0  0  0  0  0  0  0  0
   56.3554   30.3691   42.2498 H   0  0  0  0  0  0  0  0  0  0  0  0
   58.4070   28.9080   43.3780 H   0  0  0  0  0  0  0  0  0  0  0  0
   57.0354   26.5713   44.4178 H   0  0  0  0  0  0  0  0  0  0  0  0
   58.8179   26.8636   44.3816 H   0  0  0  0  0  0  0  0  0  0  0  0
   57.9962   35.0125   44.2981 H   0  0  0  0  0  0  0  0  0  0  0  0
   59.9086   36.3400   45.1519 H   0  0  0  0  0  0  0  0  0  0  0  0
   61.1671   35.5819   47.1520 H   0  0  0  0  0  0  0  0  0  0  0  0
  1  2  1  0
  2  3  2  0
  3  4  1  0
  4  5  1  0
  5  6  1  1
  5  7  1  0
  7  8  1  0
  8  9  2  0
  8 10  1  0
 10 11  1  0
 11 12  1  0
 12 13  1  0
 12 14  1  0
 12 15  1  0
  3 16  1  0
 16 17  2  0
 17 18  1  0
 18 19  2  0
 19 20  1  0
 20 21  1  0
 20 22  1  0
 20 23  1  0
 19  2  1  0
  1 24  1  0
  1 25  1  0
  1 26  1  0
  4 27  1  0
  4 28  1  0
  6 29  1  0
  7 30  1  0
  7 31  1  0
 10 32  1  0
 11 33  1  0
 11 34  1  0
 16 35  1  0
 17 36  1  0
 18 37  1  0
M  CHG  1   5   1
M  END
>  <UniqueID>  (29) 
24

>  <SMILES>  (29) 
Cc1c(C[S@@+](O)CC(=O)NCC(F)(F)F)cccc1C(F)(F)F

>  <Energy>  (29) 
28.13077345359059

>  <Genealogy>  (29) 
Cc1c(C[S+](O)CC(=O)NCC(F)(F)F)cccc1C(F)(F)F (protonated)
Cc1c(C[S@@+](O)CC(=O)NCC(F)(F)F)cccc1C(F)(F)F (chirality)
Cc1c(C[S@@+](O)CC(=O)NCC(F)(F)F)cccc1C(F)(F)F (3D coordinates assigned)
Cc1c(C[S@@+](O)CC(=O)NCC(F)(F)F)cccc1C(F)(F)F (optimized conformer: 28.13077345359059 kcal/mol)

>  <smiles>  (29) 
Cc1c(C[S+]([O-])CC(=O)NCC(F)(F)F)cccc1C(F)(F)F

>  <score_type>  (29) 
oracle

>  <origin>  (29) 
adg

>  <m_score__min__energy>  (29) 
-4.5899999999999999

>  <m_primary>  (29) 
energy

$$$$
29:0
     RDKit          3D

 33 34  0  0  0  0  0  0  0  0999 V2000
   57.0190   33.9130   45.5050 C   0  0  0  0  0  0  0  0  0  0  0  0
   57.2880   32.4510   45.3710 C   0  0  0  0  0  0  0  0  0  0  0  0
   56.5420   31.6130   44.6230 N   0  0  0  0  0  0  0  0  0  0  0  0
   57.0380   30.3930   44.7930 N   0  0  0  0  0  0  0  0  0  0  0  0
   58.0750   30.5030   45.6460 C   0  0  0  0  0  0  0  0  0  0  0  0
   58.9930   29.0900   46.2680 S   0  0  0  0  0  0  0  0  0  0  0  0
   58.2760   27.8780   45.1010 C   0  0  0  0  0  0  0  0  0  0  0  0
   56.9500   27.3050   45.6120 C   0  0  0  0  0  0  0  0  0  0  0  0
   55.8770   28.1370   45.2680 O   0  0  0  0  0  0  0  0  0  0  0  0
   58.2670   31.7870   46.0080 N   0  0  0  0  0  0  0  0  0  0  0  0
   59.1690   32.3090   46.9540 N   0  0  0  0  0  0  0  0  0  0  0  0
   60.1950   33.2420   46.5900 C   0  0  0  0  0  0  0  0  0  0  0  0
   60.0510   33.9460   45.5540 O   0  0  0  0  0  0  0  0  0  0  0  0
   61.4030   33.4120   47.4320 C   0  0  0  0  0  0  0  0  0  0  0  0
   61.3100   34.0470   48.6860 C   0  0  0  0  0  0  0  0  0  0  0  0
   62.4490   34.2210   49.4790 C   0  0  0  0  0  0  0  0  0  0  0  0
   63.6910   33.7700   49.0300 C   0  0  0  0  0  0  0  0  0  0  0  0
   63.7990   33.1460   47.7860 C   0  0  0  0  0  0  0  0  0  0  0  0
   62.6650   32.9690   46.9880 C   0  0  0  0  0  0  0  0  0  0  0  0
   56.9698   34.1806   46.5708 H   0  0  0  0  0  0  0  0  0  0  0  0
   57.8278   34.4805   45.0215 H   0  0  0  0  0  0  0  0  0  0  0  0
   56.0612   34.1554   45.0215 H   0  0  0  0  0  0  0  0  0  0  0  0
   58.0996   28.3756   44.1360 H   0  0  0  0  0  0  0  0  0  0  0  0
   58.9876   27.0459   44.9952 H   0  0  0  0  0  0  0  0  0  0  0  0
   56.7920   26.3117   45.1665 H   0  0  0  0  0  0  0  0  0  0  0  0
   56.9993   27.2326   46.7085 H   0  0  0  0  0  0  0  0  0  0  0  0
   56.0700   28.4930   44.3610 H   0  0  0  0  0  0  0  0  0  0  0  0
   58.9950   32.1290   47.9680 H   0  0  0  0  0  0  0  0  0  0  0  0
   60.3348   34.4086   49.0441 H   0  0  0  0  0  0  0  0  0  0  0  0
   62.3656   34.7144   50.4586 H   0  0  0  0  0  0  0  0  0  0  0  0
   64.5849   33.9062   49.6564 H   0  0  0  0  0  0  0  0  0  0  0  0
   64.7790   32.7926   47.4327 H   0  0  0  0  0  0  0  0  0  0  0  0
   62.7583   32.4806   46.0068 H   0  0  0  0  0  0  0  0  0  0  0  0
  1  2  1  0
  2  3  2  0
  3  4  1  0
  4  5  2  0
  5  6  1  0
  6  7  1  0
  7  8  1  0
  8  9  1  0
  5 10  1  0
 10 11  1  0
 11 12  1  0
 12 13  2  0
 12 14  1  0
 14 15  2  0
 15 16  1  0
 16 17  2  0
 17 18  1  0
 18 19  2  0
 10  2  1  0
 19 14  1  0
  1 20  1  0
  1 21  1  0
  1 22  1  0
  7 23  1  0
  7 24  1  0
  8 25  1  0
  8 26  1  0
  9 27  1  0
 11 28  1  0
 15 29  1  0
 16 30  1  0
 17 31  1  0
 18 32  1  0
 19 33  1  0
M  END
>  <UniqueID>  (30) 
25

>  <SMILES>  (30) 
Cc1nnc(SCCO)n1NC(=O)c1ccccc1

>  <Energy>  (30) 
68.3399406123798

>  <Genealogy>  (30) 
Cc1nnc(SCCO)n1NC(=O)c1ccccc1 (3D coordinates assigned)
Cc1nnc(SCCO)n1NC(=O)c1ccccc1 (optimized conformer: 68.3399406123798 kcal/mol)

>  <smiles>  (30) 
Cc1nnc(SCCO)n1NC(=O)c1ccccc1

>  <score_type>  (30) 
oracle

>  <origin>  (30) 
adg

>  <m_score__min__energy>  (30) 
-7.9100000000000001

>  <m_primary>  (30) 
energy

$$$$
30:0
     RDKit          3D

 64 68  0  0  0  0  0  0  0  0999 V2000
   57.3040   28.5490   44.9260 C   0  0  0  0  0  0  0  0  0  0  0  0
   57.0780   29.8070   45.5520 O   0  0  0  0  0  0  0  0  0  0  0  0
   57.5530   31.0400   45.0630 C   0  0  0  0  0  0  0  0  0  0  0  0
   57.2730   31.4850   43.7530 C   0  0  0  0  0  0  0  0  0  0  0  0
   57.7890   32.7050   43.2970 C   0  0  0  0  0  0  0  0  0  0  0  0
   58.5800   33.4920   44.1380 C   0  0  0  0  0  0  0  0  0  0  0  0
   58.8550   33.0670   45.4410 C   0  0  0  0  0  0  0  0  0  0  0  0
   58.3430   31.8460   45.9070 C   0  0  0  0  0  0  0  0  0  0  0  0
   58.6400   31.4230   47.2450 N   0  0  0  0  0  0  0  0  0  0  0  0
   58.3990   32.3340   48.3660 C   0  0  0  0  0  0  0  0  0  0  0  0
   58.5220   31.5880   49.6990 C   0  0  0  0  0  0  0  0  0  0  0  0
   59.8190   30.8660   49.7880 N   0  0  0  0  0  0  0  0  0  0  0  0
   59.9550   30.1670   51.1070 C   0  0  1  0  0  0  0  0  0  0  0  0
   61.0660   30.7690   52.0050 C   0  0  0  0  0  0  0  0  0  0  0  0
   62.1730   31.2880   51.2000 N   0  0  0  0  0  0  0  0  0  0  0  0
   61.8730   32.9460   50.7880 S   0  0  0  0  0  0  0  0  0  0  0  0
   60.4390   33.2780   51.0960 O   0  0  0  0  0  0  0  0  0  0  0  0
   62.7600   33.8320   51.6170 O   0  0  0  0  0  0  0  0  0  0  0  0
   62.2150   33.2430   49.0840 C   0  0  0  0  0  0  0  0  0  0  0  0
   61.2580   33.8890   48.2840 C   0  0  0  0  0  0  0  0  0  0  0  0
   61.5290   34.1370   46.9300 C   0  0  0  0  0  0  0  0  0  0  0  0
   62.7570   33.7490   46.3750 C   0  0  0  0  0  0  0  0  0  0  0  0
   63.7160   33.1150   47.1740 C   0  0  0  0  0  0  0  0  0  0  0  0
   63.4470   32.8610   48.5250 C   0  0  0  0  0  0  0  0  0  0  0  0
   58.6670   30.1740   51.9010 C   0  0  0  0  0  0  0  0  0  0  0  0
   58.5340   30.6440   53.2100 C   0  0  0  0  0  0  0  0  0  0  0  0
   57.2040   30.4580   53.5010 C   0  0  0  0  0  0  0  0  0  0  0  0
   56.4750   30.7370   54.6560 C   0  0  0  0  0  0  0  0  0  0  0  0
   55.1020   30.4210   54.6540 C   0  0  0  0  0  0  0  0  0  0  0  0
   54.4970   29.8510   53.5090 C   0  0  0  0  0  0  0  0  0  0  0  0
   55.2600   29.5940   52.3540 C   0  0  0  0  0  0  0  0  0  0  0  0
   56.6180   29.9070   52.3890 C   0  0  0  0  0  0  0  0  0  0  0  0
   57.5050   29.7430   51.4360 O   0  0  0  0  0  0  0  0  0  0  0  0
   60.0210   29.9130   48.6430 C   0  0  0  0  0  0  0  0  0  0  0  0
   58.9850   30.0250   47.5020 C   0  0  0  0  0  0  0  0  0  0  0  0
   57.4429   27.7759   45.6961 H   0  0  0  0  0  0  0  0  0  0  0  0
   56.4379   28.2906   44.2990 H   0  0  0  0  0  0  0  0  0  0  0  0
   58.2059   28.6082   44.2990 H   0  0  0  0  0  0  0  0  0  0  0  0
   56.6474   30.8717   43.0878 H   0  0  0  0  0  0  0  0  0  0  0  0
   57.5708   33.0444   42.2737 H   0  0  0  0  0  0  0  0  0  0  0  0
   58.9868   34.4471   43.7743 H   0  0  0  0  0  0  0  0  0  0  0  0
   59.4740   33.6908   46.1026 H   0  0  0  0  0  0  0  0  0  0  0  0
   59.1386   33.1477   48.3368 H   0  0  0  0  0  0  0  0  0  0  0  0
   57.3817   32.7434   48.2797 H   0  0  0  0  0  0  0  0  0  0  0  0
   58.4563   32.3125   50.5241 H   0  0  0  0  0  0  0  0  0  0  0  0
   57.7064   30.8529   49.7657 H   0  0  0  0  0  0  0  0  0  0  0  0
   60.5720   31.5960   49.7340 H   0  0  0  0  0  0  0  0  0  0  0  0
   60.2255   29.1353   50.8379 H   0  0  0  0  0  0  0  0  0  0  0  0
   60.6403   31.5895   52.6013 H   0  0  0  0  0  0  0  0  0  0  0  0
   61.4536   29.9747   52.6599 H   0  0  0  0  0  0  0  0  0  0  0  0
   60.2967   34.2002   48.7189 H   0  0  0  0  0  0  0  0  0  0  0  0
   60.7766   34.6369   46.3023 H   0  0  0  0  0  0  0  0  0  0  0  0
   62.9666   33.9426   45.3127 H   0  0  0  0  0  0  0  0  0  0  0  0
   64.6817   32.8160   46.7404 H   0  0  0  0  0  0  0  0  0  0  0  0
   64.2017   32.3614   49.1501 H   0  0  0  0  0  0  0  0  0  0  0  0
   59.3152   31.0663   53.8591 H   0  0  0  0  0  0  0  0  0  0  0  0
   56.9546   31.1877   55.5374 H   0  0  0  0  0  0  0  0  0  0  0  0
   54.4954   30.6191   55.5500 H   0  0  0  0  0  0  0  0  0  0  0  0
   53.4244   29.6073   53.5213 H   0  0  0  0  0  0  0  0  0  0  0  0
   54.7998   29.1606   51.4538 H   0  0  0  0  0  0  0  0  0  0  0  0
   61.0178   30.0997   48.2169 H   0  0  0  0  0  0  0  0  0  0  0  0
   59.9042   28.9030   49.0628 H   0  0  0  0  0  0  0  0  0  0  0  0
   59.4080   29.5845   46.5871 H   0  0  0  0  0  0  0  0  0  0  0  0
   58.0732   29.4875   47.8015 H   0  0  0  0  0  0  0  0  0  0  0  0
  1  2  1  0
  2  3  1  0
  3  4  2  0
  4  5  1  0
  5  6  2  0
  6  7  1  0
  7  8  2  0
  8  9  1  0
  9 10  1  0
 10 11  1  0
 11 12  1  0
 12 13  1  0
 13 14  1  0
 14 15  1  0
 15 16  1  0
 16 17  2  0
 16 18  2  0
 16 19  1  0
 19 20  2  0
 20 21  1  0
 21 22  2  0
 22 23  1  0
 23 24  2  0
 13 25  1  0
 25 26  2  0
 26 27  1  0
 27 28  2  0
 28 29  1  0
 29 30  2  0
 30 31  1  0
 31 32  2  0
 32 33  1  0
 12 34  1  0
 34 35  1  0
  8  3  1  0
 35  9  1  0
 24 19  1  0
 33 25  1  0
 32 27  1  0
  1 36  1  0
  1 37  1  0
  1 38  1  0
  4 39  1  0
  5 40  1  0
  6 41  1  0
  7 42  1  0
 10 43  1  0
 10 44  1  0
 11 45  1  0
 11 46  1  0
 12 47  1  0
 13 48  1  6
 14 49  1  0
 14 50  1  0
 20 51  1  0
 21 52  1  0
 22 53  1  0
 23 54  1  0
 24 55  1  0
 26 56  1  0
 28 57  1  0
 29 58  1  0
 30 59  1  0
 31 60  1  0
 34 61  1  0
 34 62  1  0
 35 63  1  0
 35 64  1  0
M  CHG  2  12   1  15  -1
M  END
>  <UniqueID>  (31) 
26

>  <SMILES>  (31) 
COc1ccccc1N1CC[NH+]([C@@H](C[N-]S(=O)(=O)c2ccccc2)c2cc3ccccc3o2)CC1

>  <Energy>  (31) 
116.65161737168647

>  <Genealogy>  (31) 
COc1ccccc1N1CC[NH+](C(C[N-]S(=O)(=O)c2ccccc2)c2cc3ccccc3o2)CC1 (protonated)
COc1ccccc1N1CC[NH+]([C@@H](C[N-]S(=O)(=O)c2ccccc2)c2cc3ccccc3o2)CC1 (chirality)
COc1ccccc1N1CC[NH+]([C@@H](C[N-]S(=O)(=O)c2ccccc2)c2cc3ccccc3o2)CC1 (3D coordinates assigned)
COc1ccccc1N1CC[NH+]([C@@H](C[N-]S(=O)(=O)c2ccccc2)c2cc3ccccc3o2)CC1 (nonaromatic ring conformer: 116.65161737168647 kcal/mol)

>  <smiles>  (31) 
COc1ccccc1N1CCN(C(CNS(=O)(=O)c2ccccc2)c2cc3ccccc3o2)CC1

>  <score_type>  (31) 
oracle

>  <origin>  (31) 
adg

>  <m_score__min__energy>  (31) 
-8.2799999999999994

>  <m_primary>  (31) 
energy

$$$$
31:0
     RDKit          3D

 52 55  0  0  1  0  0  0  0  0999 V2000
   57.3940   32.1800   41.3360 C   0  0  0  0  0  0  0  0  0  0  0  0
   57.1270   31.4950   42.5450 O   0  0  0  0  0  0  0  0  0  0  0  0
   57.5610   32.0580   43.7460 C   0  0  0  0  0  0  0  0  0  0  0  0
   58.1930   33.2950   43.7450 C   0  0  0  0  0  0  0  0  0  0  0  0
   58.6300   33.8700   44.9250 C   0  0  0  0  0  0  0  0  0  0  0  0
   59.2290   35.0580   44.8680 N   0  0  0  0  0  0  0  0  0  0  0  0
   59.6620   35.6290   46.0250 C   0  0  0  0  0  0  0  0  0  0  0  0
   59.4680   34.9750   47.1870 N   0  0  0  0  0  0  0  0  0  0  0  0
   58.8650   33.7810   47.2620 C   0  0  0  0  0  0  0  0  0  0  0  0
   58.6990   33.1910   48.3810 N   0  0  0  0  0  0  0  0  0  0  0  0
   59.7190   32.3730   48.9780 C   0  0  0  0  0  0  0  0  0  0  0  0
   59.4590   31.3900   49.8850 C   0  0  0  0  0  0  0  0  0  0  0  0
   60.5400   30.6680   50.3900 C   0  0  0  0  0  0  0  0  0  0  0  0
   61.8150   30.9620   49.9660 C   0  0  0  0  0  0  0  0  0  0  0  0
   62.8880   30.2570   50.4560 F   0  0  0  0  0  0  0  0  0  0  0  0
   62.1060   31.9440   49.0550 C   0  0  0  0  0  0  0  0  0  0  0  0
   63.7320   32.3050   48.5270 Cl  0  0  0  0  0  0  0  0  0  0  0  0
   61.0210   32.6630   48.5540 C   0  0  0  0  0  0  0  0  0  0  0  0
   58.4160   33.1730   46.1070 C   0  0  0  0  0  0  0  0  0  0  0  0
   57.7920   31.9480   46.1310 C   0  0  0  0  0  0  0  0  0  0  0  0
   57.3590   31.3840   44.9330 C   0  0  0  0  0  0  0  0  0  0  0  0
   56.7260   30.1620   44.8690 O   0  0  0  0  0  0  0  0  0  0  0  0
   57.3090   28.9590   44.4340 C   0  0  0  0  0  0  0  0  0  0  0  0
   57.9360   28.3220   45.6610 C   0  0  0  0  0  0  0  0  0  0  0  0
   59.2900   27.8990   45.4710 N   0  0  0  0  0  0  0  0  0  0  0  0
   59.7520   27.3320   46.7460 C   0  0  0  0  0  0  0  0  0  0  0  0
   59.9690   28.4150   47.7760 C   0  0  0  0  0  0  0  0  0  0  0  0
   60.7840   29.4360   47.3210 O   0  0  0  0  0  0  0  0  0  0  0  0
   60.3120   30.0270   46.1540 C   0  0  0  0  0  0  0  0  0  0  0  0
   60.1850   28.9620   45.0910 C   0  0  0  0  0  0  0  0  0  0  0  0
   57.7850   33.1831   41.5616 H   0  0  0  0  0  0  0  0  0  0  0  0
   58.1391   31.6185   40.7533 H   0  0  0  0  0  0  0  0  0  0  0  0
   56.4655   32.2709   40.7533 H   0  0  0  0  0  0  0  0  0  0  0  0
   58.3481   33.8244   42.7933 H   0  0  0  0  0  0  0  0  0  0  0  0
   60.1623   36.6086   46.0118 H   0  0  0  0  0  0  0  0  0  0  0  0
   59.7900   35.3920   48.0920 H   0  0  0  0  0  0  0  0  0  0  0  0
   58.4302   31.1730   50.2083 H   0  0  0  0  0  0  0  0  0  0  0  0
   60.3736   29.8664   51.1247 H   0  0  0  0  0  0  0  0  0  0  0  0
   61.1899   33.4644   47.8197 H   0  0  0  0  0  0  0  0  0  0  0  0
   57.6367   31.4203   47.0836 H   0  0  0  0  0  0  0  0  0  0  0  0
   56.5412   28.2949   44.0102 H   0  0  0  0  0  0  0  0  0  0  0  0
   58.0586   29.1385   43.6492 H   0  0  0  0  0  0  0  0  0  0  0  0
   57.9148   29.0556   46.4804 H   0  0  0  0  0  0  0  0  0  0  0  0
   57.3494   27.4188   45.8850 H   0  0  0  0  0  0  0  0  0  0  0  0
   58.9957   26.6265   47.1204 H   0  0  0  0  0  0  0  0  0  0  0  0
   60.7088   26.8175   46.5732 H   0  0  0  0  0  0  0  0  0  0  0  0
   58.9921   28.8409   48.0485 H   0  0  0  0  0  0  0  0  0  0  0  0
   60.4699   27.9532   48.6396 H   0  0  0  0  0  0  0  0  0  0  0  0
   59.3285   30.4827   46.3411 H   0  0  0  0  0  0  0  0  0  0  0  0
   61.0099   30.8091   45.8204 H   0  0  0  0  0  0  0  0  0  0  0  0
   59.8060   29.4283   44.1696 H   0  0  0  0  0  0  0  0  0  0  0  0
   61.1814   28.5198   44.9440 H   0  0  0  0  0  0  0  0  0  0  0  0
  1  2  1  0
  2  3  1  0
  3  4  2  0
  4  5  1  0
  5  6  1  0
  6  7  2  0
  7  8  1  0
  8  9  1  0
  9 10  2  0
 10 11  1  0
 11 12  2  0
 12 13  1  0
 13 14  2  0
 14 15  1  0
 14 16  1  0
 16 17  1  0
 16 18  2  0
  9 19  1  0
 19 20  1  0
 20 21  2  0
 21 22  1  0
 22 23  1  0
 23 24  1  0
 24 25  1  0
 25 26  1  0
 26 27  1  0
 27 28  1  0
 28 29  1  0
 29 30  1  0
 21  3  1  0
 30 25  1  0
 19  5  2  0
 18 11  1  0
  1 31  1  0
  1 32  1  0
  1 33  1  0
  4 34  1  0
  7 35  1  0
  8 36  1  0
 12 37  1  0
 13 38  1  0
 18 39  1  0
 20 40  1  0
 23 41  1  0
 23 42  1  0
 24 43  1  0
 24 44  1  0
 26 45  1  0
 26 46  1  0
 27 47  1  0
 27 48  1  0
 29 49  1  0
 29 50  1  0
 30 51  1  0
 30 52  1  0
M  END
>  <smiles>  (32) 
COc1cc2nc[nH]c(=Nc3ccc(F)c(Cl)c3)c2cc1OCCN1CCOCC1

>  <score_type>  (32) 
oracle

>  <origin>  (32) 
adg

>  <m_score__min__energy>  (32) 
-7.7800000000000002

>  <m_primary>  (32) 
energy

$$$$
32:0
     RDKit          3D

 64 65  0  0  0  0  0  0  0  0999 V2000
   63.0650   33.7540   49.4680 Br  0  0  0  0  0  0  0  0  0  0  0  0
   61.5860   33.9170   48.2720 C   0  0  0  0  0  0  0  0  0  0  0  0
   60.3300   34.2970   48.7540 C   0  0  0  0  0  0  0  0  0  0  0  0
   59.2450   34.4090   47.8770 C   0  0  0  0  0  0  0  0  0  0  0  0
   59.4100   34.1370   46.5080 C   0  0  0  0  0  0  0  0  0  0  0  0
   58.2520   34.2690   45.5540 C   0  0  0  0  0  0  0  0  0  0  0  0
   58.5030   33.4630   44.2670 C   0  0  0  0  0  0  0  0  0  0  0  0
   58.1820   32.0310   44.4240 N   0  0  0  0  0  0  0  0  0  0  0  0
   57.3650   31.5120   43.3060 C   0  0  0  0  0  0  0  0  0  0  0  0
   56.3510   30.4410   43.7640 C   0  0  0  0  0  0  0  0  0  0  0  0
   56.6290   29.9080   45.1110 N   0  0  0  0  0  0  0  0  0  0  0  0
   56.8630   28.4540   45.1450 C   0  0  0  0  0  0  0  0  0  0  0  0
   58.3100   28.0820   44.7990 C   0  0  0  0  0  0  0  0  0  0  0  0
   59.1020   29.2990   44.5910 N   0  0  0  0  0  0  0  0  0  0  0  0
   60.3570   29.2960   45.3630 C   0  0  0  0  0  0  0  0  0  0  0  0
   60.4260   30.4200   46.4130 C   0  0  0  0  0  0  0  0  0  0  0  0
   59.0940   30.9850   46.6640 N   0  0  0  0  0  0  0  0  0  0  0  0
   58.8970   31.2040   48.1030 C   0  0  0  0  0  0  0  0  0  0  0  0
   59.2820   29.9510   48.9080 C   0  0  0  0  0  0  0  0  0  0  0  0
   59.9060   30.2500   50.2820 C   0  0  0  0  0  0  0  0  0  0  0  0
   59.1790   31.3450   51.0160 C   0  0  0  0  0  0  0  0  0  0  0  0
   59.8400   32.5360   51.3600 C   0  0  0  0  0  0  0  0  0  0  0  0
   59.1530   33.5520   52.0350 C   0  0  0  0  0  0  0  0  0  0  0  0
   57.8030   33.3870   52.3600 C   0  0  0  0  0  0  0  0  0  0  0  0
   57.1390   32.2070   52.0180 C   0  0  0  0  0  0  0  0  0  0  0  0
   57.8240   31.1880   51.3500 C   0  0  0  0  0  0  0  0  0  0  0  0
   60.6770   33.7630   46.0310 C   0  0  0  0  0  0  0  0  0  0  0  0
   61.7580   33.6540   46.9110 C   0  0  0  0  0  0  0  0  0  0  0  0
   60.1941   34.5085   49.8249 H   0  0  0  0  0  0  0  0  0  0  0  0
   58.2593   34.7111   48.2607 H   0  0  0  0  0  0  0  0  0  0  0  0
   57.3399   33.8939   46.0413 H   0  0  0  0  0  0  0  0  0  0  0  0
   58.1375   35.3298   45.2865 H   0  0  0  0  0  0  0  0  0  0  0  0
   57.8775   33.8785   43.4632 H   0  0  0  0  0  0  0  0  0  0  0  0
   59.5739   33.5407   44.0280 H   0  0  0  0  0  0  0  0  0  0  0  0
   59.0780   31.4940   44.5030 H   0  0  0  0  0  0  0  0  0  0  0  0
   57.6520   31.9220   45.3210 H   0  0  0  0  0  0  0  0  0  0  0  0
   56.8138   32.3493   42.8531 H   0  0  0  0  0  0  0  0  0  0  0  0
   58.0472   31.0401   42.5836 H   0  0  0  0  0  0  0  0  0  0  0  0
   55.3470   30.8904   43.7674 H   0  0  0  0  0  0  0  0  0  0  0  0
   56.4279   29.5994   43.0599 H   0  0  0  0  0  0  0  0  0  0  0  0
   57.4140   30.4090   45.5870 H   0  0  0  0  0  0  0  0  0  0  0  0
   56.6361   28.0841   46.1558 H   0  0  0  0  0  0  0  0  0  0  0  0
   56.2103   27.9934   44.3888 H   0  0  0  0  0  0  0  0  0  0  0  0
   58.7448   27.5006   45.6254 H   0  0  0  0  0  0  0  0  0  0  0  0
   58.3192   27.4818   43.8772 H   0  0  0  0  0  0  0  0  0  0  0  0
   58.5300   30.1330   44.8530 H   0  0  0  0  0  0  0  0  0  0  0  0
   60.4474   28.3290   45.8795 H   0  0  0  0  0  0  0  0  0  0  0  0
   61.1790   29.4627   44.6512 H   0  0  0  0  0  0  0  0  0  0  0  0
   60.8267   30.0113   47.3523 H   0  0  0  0  0  0  0  0  0  0  0  0
   61.0800   31.2179   46.0313 H   0  0  0  0  0  0  0  0  0  0  0  0
   58.3880   30.2840   46.3410 H   0  0  0  0  0  0  0  0  0  0  0  0
   59.5241   32.0473   48.4279 H   0  0  0  0  0  0  0  0  0  0  0  0
   57.8341   31.4234   48.2823 H   0  0  0  0  0  0  0  0  0  0  0  0
   58.3744   29.3497   49.0650 H   0  0  0  0  0  0  0  0  0  0  0  0
   60.0480   29.4223   48.3218 H   0  0  0  0  0  0  0  0  0  0  0  0
   59.8741   29.3347   50.8913 H   0  0  0  0  0  0  0  0  0  0  0  0
   60.9397   30.5870   50.1149 H   0  0  0  0  0  0  0  0  0  0  0  0
   60.8999   32.6705   51.0983 H   0  0  0  0  0  0  0  0  0  0  0  0
   59.6753   34.4803   52.3098 H   0  0  0  0  0  0  0  0  0  0  0  0
   57.2631   34.1881   52.8860 H   0  0  0  0  0  0  0  0  0  0  0  0
   56.0769   32.0795   52.2743 H   0  0  0  0  0  0  0  0  0  0  0  0
   57.2991   30.2585   51.0846 H   0  0  0  0  0  0  0  0  0  0  0  0
   60.8194   33.5549   44.9603 H   0  0  0  0  0  0  0  0  0  0  0  0
   62.7473   33.3601   46.5303 H   0  0  0  0  0  0  0  0  0  0  0  0
  1  2  1  0
  2  3  2  0
  3  4  1  0
  4  5  2  0
  5  6  1  0
  6  7  1  0
  7  8  1  0
  8  9  1  0
  9 10  1  0
 10 11  1  0
 11 12  1  0
 12 13  1  0
 13 14  1  0
 14 15  1  0
 15 16  1  0
 16 17  1  0
 17 18  1  0
 18 19  1  0
 19 20  1  0
 20 21  1  0
 21 22  2  0
 22 23  1  0
 23 24  2  0
 24 25  1  0
 25 26  2  0
  5 27  1  0
 27 28  2  0
 28  2  1  0
 26 21  1  0
  3 29  1  0
  4 30  1  0
  6 31  1  0
  6 32  1  0
  7 33  1  0
  7 34  1  0
  8 35  1  0
  8 36  1  0
  9 37  1  0
  9 38  1  0
 10 39  1  0
 10 40  1  0
 11 41  1  0
 12 42  1  0
 12 43  1  0
 13 44  1  0
 13 45  1  0
 14 46  1  0
 15 47  1  0
 15 48  1  0
 16 49  1  0
 16 50  1  0
 17 51  1  0
 18 52  1  0
 18 53  1  0
 19 54  1  0
 19 55  1  0
 20 56  1  0
 20 57  1  0
 22 58  1  0
 23 59  1  0
 24 60  1  0
 25 61  1  0
 26 62  1  0
 27 63  1  0
 28 64  1  0
M  CHG  1   8   1
M  END
>  <UniqueID>  (33) 
27

>  <SMILES>  (33) 
Brc1ccc(CC[NH2+]CCNCCNCCNCCCc2ccccc2)cc1

>  <Energy>  (33) 
52.91447159198571

>  <Genealogy>  (33) 
Brc1ccc(CC[NH2+]CCNCCNCCNCCCc2ccccc2)cc1 (protonated)
Brc1ccc(CC[NH2+]CCNCCNCCNCCCc2ccccc2)cc1 (3D coordinates assigned)
Brc1ccc(CC[NH2+]CCNCCNCCNCCCc2ccccc2)cc1 (optimized conformer: 52.91447159198571 kcal/mol)

>  <smiles>  (33) 
Brc1ccc(CCNCCNCCNCCNCCCc2ccccc2)cc1

>  <score_type>  (33) 
oracle

>  <origin>  (33) 
adg

>  <m_score__min__energy>  (33) 
-4.7000000000000002

>  <m_primary>  (33) 
energy

$$$$
33:0
     RDKit          3D

 54 57  0  0  0  0  0  0  0  0999 V2000
   59.5700   34.8960   47.8620 C   0  0  0  0  0  0  0  0  0  0  0  0
   59.0130   34.2180   46.6140 C   0  0  0  0  0  0  0  0  0  0  0  0
   60.0090   33.2370   45.9780 C   0  0  0  0  0  0  0  0  0  0  0  0
   59.5390   31.8490   46.0860 N   0  0  0  0  0  0  0  0  0  0  0  0
   60.1800   30.8070   46.6890 C   0  0  0  0  0  0  0  0  0  0  0  0
   61.4600   30.9290   47.4740 C   0  0  0  0  0  0  0  0  0  0  0  0
   61.1840   31.0580   48.9200 N   0  0  0  0  0  0  0  0  0  0  0  0
   60.8520   29.7430   49.5300 C   0  0  0  0  0  0  0  0  0  0  0  0
   59.3510   29.5560   49.7860 C   0  0  0  0  0  0  0  0  0  0  0  0
   58.8400   30.6510   50.6190 N   0  0  0  0  0  0  0  0  0  0  0  0
   57.6970   30.4510   51.4810 C   0  0  0  0  0  0  0  0  0  0  0  0
   57.6320   29.3370   52.3400 C   0  0  0  0  0  0  0  0  0  0  0  0
   56.5240   29.1450   53.1710 C   0  0  0  0  0  0  0  0  0  0  0  0
   55.4700   30.0600   53.1560 C   0  0  0  0  0  0  0  0  0  0  0  0
   55.5200   31.1690   52.3080 C   0  0  0  0  0  0  0  0  0  0  0  0
   56.6260   31.3660   51.4740 C   0  0  0  0  0  0  0  0  0  0  0  0
   59.5030   31.9590   50.5490 C   0  0  0  0  0  0  0  0  0  0  0  0
   60.1880   32.1280   49.1900 C   0  0  0  0  0  0  0  0  0  0  0  0
   59.4870   29.6460   46.6040 N   0  0  0  0  0  0  0  0  0  0  0  0
   58.3790   29.9710   45.9170 C   0  0  0  0  0  0  0  0  0  0  0  0
   58.4010   31.2970   45.6030 C   0  0  0  0  0  0  0  0  0  0  0  0
   57.3260   31.8570   44.9150 C   0  0  0  0  0  0  0  0  0  0  0  0
   57.2880   33.0770   44.6130 O   0  0  0  0  0  0  0  0  0  0  0  0
   56.2910   31.0380   44.5760 N   0  0  0  0  0  0  0  0  0  0  0  0
   56.2860   29.7060   44.8960 C   0  0  0  0  0  0  0  0  0  0  0  0
   55.2960   29.0040   44.5580 O   0  0  0  0  0  0  0  0  0  0  0  0
   57.3460   29.1480   45.5780 N   0  0  0  0  0  0  0  0  0  0  0  0
   57.3750   27.7290   45.9590 C   0  0  0  0  0  0  0  0  0  0  0  0
   59.1653   34.4034   48.7584 H   0  0  0  0  0  0  0  0  0  0  0  0
   60.6671   34.8166   47.8637 H   0  0  0  0  0  0  0  0  0  0  0  0
   59.2792   35.9569   47.8637 H   0  0  0  0  0  0  0  0  0  0  0  0
   58.1027   33.6657   46.8901 H   0  0  0  0  0  0  0  0  0  0  0  0
   58.8029   35.0045   45.8743 H   0  0  0  0  0  0  0  0  0  0  0  0
   60.1322   33.4913   44.9149 H   0  0  0  0  0  0  0  0  0  0  0  0
   60.9663   33.3205   46.5133 H   0  0  0  0  0  0  0  0  0  0  0  0
   62.0735   30.0320   47.3035 H   0  0  0  0  0  0  0  0  0  0  0  0
   61.9932   31.8302   47.1372 H   0  0  0  0  0  0  0  0  0  0  0  0
   61.1925   28.9471   48.8513 H   0  0  0  0  0  0  0  0  0  0  0  0
   61.3575   29.6990   50.5060 H   0  0  0  0  0  0  0  0  0  0  0  0
   58.8162   29.5503   48.8248 H   0  0  0  0  0  0  0  0  0  0  0  0
   59.1917   28.6017   50.3093 H   0  0  0  0  0  0  0  0  0  0  0  0
   58.4593   28.6123   52.3574 H   0  0  0  0  0  0  0  0  0  0  0  0
   56.4829   28.2712   53.8379 H   0  0  0  0  0  0  0  0  0  0  0  0
   54.6001   29.9078   53.8118 H   0  0  0  0  0  0  0  0  0  0  0  0
   54.6882   31.8888   52.2959 H   0  0  0  0  0  0  0  0  0  0  0  0
   56.6594   32.2412   50.8084 H   0  0  0  0  0  0  0  0  0  0  0  0
   58.7544   32.7541   50.6808 H   0  0  0  0  0  0  0  0  0  0  0  0
   60.2598   32.0228   51.3447 H   0  0  0  0  0  0  0  0  0  0  0  0
   59.4207   32.1032   48.4022 H   0  0  0  0  0  0  0  0  0  0  0  0
   60.7232   33.0890   49.2016 H   0  0  0  0  0  0  0  0  0  0  0  0
   59.7490   28.7190   47.0090 H   0  0  0  0  0  0  0  0  0  0  0  0
   57.3767   27.6438   47.0557 H   0  0  0  0  0  0  0  0  0  0  0  0
   56.4870   27.2222   45.5532 H   0  0  0  0  0  0  0  0  0  0  0  0
   58.2829   27.2589   45.5532 H   0  0  0  0  0  0  0  0  0  0  0  0
  1  2  1  0
  2  3  1  0
  3  4  1  0
  4  5  1  0
  5  6  1  0
  6  7  1  0
  7  8  1  0
  8  9  1  0
  9 10  1  0
 10 11  1  0
 11 12  2  0
 12 13  1  0
 13 14  2  0
 14 15  1  0
 15 16  2  0
 10 17  1  0
 17 18  1  0
  5 19  2  0
 19 20  1  0
 20 21  2  0
 21 22  1  0
 22 23  2  0
 22 24  1  0
 24 25  1  0
 25 26  2  0
 25 27  1  0
 27 28  1  0
 21  4  1  0
 18  7  1  0
 27 20  1  0
 16 11  1  0
  1 29  1  0
  1 30  1  0
  1 31  1  0
  2 32  1  0
  2 33  1  0
  3 34  1  0
  3 35  1  0
  6 36  1  0
  6 37  1  0
  8 38  1  0
  8 39  1  0
  9 40  1  0
  9 41  1  0
 12 42  1  0
 13 43  1  0
 14 44  1  0
 15 45  1  0
 16 46  1  0
 17 47  1  0
 17 48  1  0
 18 49  1  0
 18 50  1  0
 19 51  1  0
 28 52  1  0
 28 53  1  0
 28 54  1  0
M  CHG  2  19   1  24  -1
M  END
>  <UniqueID>  (34) 
28

>  <SMILES>  (34) 
CCCn1c(CN2CCN(c3ccccc3)CC2)[nH+]c2c1c(=O)[n-]c(=O)n2C

>  <Energy>  (34) 
106.79336576436852

>  <Genealogy>  (34) 
CCCn1c(CN2CCN(c3ccccc3)CC2)[nH+]c2c1c(=O)[n-]c(=O)n2C (protonated)
CCCn1c(CN2CCN(c3ccccc3)CC2)[nH+]c2c1c(=O)[n-]c(=O)n2C (3D coordinates assigned)
CCCn1c(CN2CCN(c3ccccc3)CC2)[nH+]c2c1c(=O)[n-]c(=O)n2C (nonaromatic ring conformer: 106.79336576436852 kcal/mol)

>  <smiles>  (34) 
CCCn1c(CN2CCN(c3ccccc3)CC2)nc2c1c(=O)[nH]c(=O)n2C

>  <score_type>  (34) 
oracle

>  <origin>  (34) 
adg

>  <m_score__min__energy>  (34) 
-8.2400000000000002

>  <m_primary>  (34) 
energy

$$$$
34:0
     RDKit          3D

 46 47  0  0  0  0  0  0  0  0999 V2000
   63.3920   34.1800   46.3900 C   0  0  0  0  0  0  0  0  0  0  0  0
   63.2600   32.8210   46.7440 O   0  0  0  0  0  0  0  0  0  0  0  0
   63.6250   32.6230   48.0980 C   0  0  0  0  0  0  0  0  0  0  0  0
   62.6100   31.7220   48.8030 C   0  0  0  0  0  0  0  0  0  0  0  0
   61.4970   31.4020   47.9130 N   0  0  0  0  0  0  0  0  0  0  0  0
   60.8280   30.1310   47.9330 C   0  0  0  0  0  0  0  0  0  0  0  0
   61.2890   29.1890   48.6330 O   0  0  0  0  0  0  0  0  0  0  0  0
   59.6020   29.9250   47.1340 C   0  0  0  0  0  0  0  0  0  0  0  0
   58.9040   28.6900   47.1600 C   0  0  0  0  0  0  0  0  0  0  0  0
   57.7410   28.5210   46.3860 C   0  0  0  0  0  0  0  0  0  0  0  0
   57.3290   29.6070   45.6270 C   0  0  0  0  0  0  0  0  0  0  0  0
   56.2630   29.6910   44.8090 N   0  0  0  0  0  0  0  0  0  0  0  0
   56.2810   30.9260   44.3020 N   0  0  0  0  0  0  0  0  0  0  0  0
   57.3520   31.5660   44.8270 C   0  0  0  0  0  0  0  0  0  0  0  0
   57.7610   32.9660   44.4930 C   0  0  0  0  0  0  0  0  0  0  0  0
   59.1140   33.2280   45.0000 N   0  0  0  0  0  0  0  0  0  0  0  0
   59.3520   34.6690   45.2130 C   0  0  0  0  0  0  0  0  0  0  0  0
   59.7540   35.0010   46.6630 C   0  0  0  0  0  0  0  0  0  0  0  0
   59.7720   33.7970   47.5210 N   0  0  0  0  0  0  0  0  0  0  0  0
   60.4950   34.0780   48.7720 C   0  0  0  0  0  0  0  0  0  0  0  0
   58.4030   33.3540   47.8410 C   0  0  0  0  0  0  0  0  0  0  0  0
   58.0180   30.7460   45.6490 N   0  0  0  0  0  0  0  0  0  0  0  0
   59.1240   30.9420   46.3590 N   0  0  0  0  0  0  0  0  0  0  0  0
   63.4515   34.7923   47.3019 H   0  0  0  0  0  0  0  0  0  0  0  0
   64.3077   34.3169   45.7960 H   0  0  0  0  0  0  0  0  0  0  0  0
   62.5198   34.4906   45.7960 H   0  0  0  0  0  0  0  0  0  0  0  0
   64.6176   32.1508   48.1395 H   0  0  0  0  0  0  0  0  0  0  0  0
   63.6461   33.5985   48.6059 H   0  0  0  0  0  0  0  0  0  0  0  0
   63.1067   30.7896   49.1095 H   0  0  0  0  0  0  0  0  0  0  0  0
   62.2175   32.2528   49.6829 H   0  0  0  0  0  0  0  0  0  0  0  0
   61.2060   32.1210   47.2140 H   0  0  0  0  0  0  0  0  0  0  0  0
   59.2723   27.8638   47.7858 H   0  0  0  0  0  0  0  0  0  0  0  0
   57.1845   27.5722   46.3828 H   0  0  0  0  0  0  0  0  0  0  0  0
   57.7491   33.0984   43.4011 H   0  0  0  0  0  0  0  0  0  0  0  0
   57.0571   33.6695   44.9616 H   0  0  0  0  0  0  0  0  0  0  0  0
   59.2580   32.6970   45.8920 H   0  0  0  0  0  0  0  0  0  0  0  0
   60.1599   34.9946   44.5412 H   0  0  0  0  0  0  0  0  0  0  0  0
   58.4089   35.1946   45.0027 H   0  0  0  0  0  0  0  0  0  0  0  0
   60.7582   35.4499   46.6594 H   0  0  0  0  0  0  0  0  0  0  0  0
   59.0084   35.6989   47.0716 H   0  0  0  0  0  0  0  0  0  0  0  0
   59.8536   33.8287   49.6301 H   0  0  0  0  0  0  0  0  0  0  0  0
   61.4112   33.4705   48.8104 H   0  0  0  0  0  0  0  0  0  0  0  0
   60.7605   35.1448   48.8104 H   0  0  0  0  0  0  0  0  0  0  0  0
   58.2767   33.3131   48.9330 H   0  0  0  0  0  0  0  0  0  0  0  0
   57.6788   34.0637   47.4144 H   0  0  0  0  0  0  0  0  0  0  0  0
   58.2319   32.3546   47.4144 H   0  0  0  0  0  0  0  0  0  0  0  0
  1  2  1  0
  2  3  1  0
  3  4  1  0
  4  5  1  0
  5  6  1  0
  6  7  2  0
  6  8  1  0
  8  9  1  0
  9 10  2  0
 10 11  1  0
 11 12  2  0
 12 13  1  0
 13 14  2  0
 14 15  1  0
 15 16  1  0
 16 17  1  0
 17 18  1  0
 18 19  1  0
 19 20  1  0
 19 21  1  0
 14 22  1  0
 22 23  1  0
 23  8  2  0
 22 11  1  0
  1 24  1  0
  1 25  1  0
  1 26  1  0
  3 27  1  0
  3 28  1  0
  4 29  1  0
  4 30  1  0
  5 31  1  0
  9 32  1  0
 10 33  1  0
 15 34  1  0
 15 35  1  0
 16 36  1  0
 17 37  1  0
 17 38  1  0
 18 39  1  0
 18 40  1  0
 20 41  1  0
 20 42  1  0
 20 43  1  0
 21 44  1  0
 21 45  1  0
 21 46  1  0
M  END
>  <UniqueID>  (35) 
29

>  <SMILES>  (35) 
COCCNC(=O)c1ccc2nnc(CNCCN(C)C)n2n1

>  <Energy>  (35) 
83.66723245806833

>  <Genealogy>  (35) 
COCCNC(=O)c1ccc2nnc(CNCCN(C)C)n2n1 (3D coordinates assigned)
COCCNC(=O)c1ccc2nnc(CNCCN(C)C)n2n1 (optimized conformer: 83.66723245806833 kcal/mol)

>  <smiles>  (35) 
COCCNC(=O)c1ccc2nnc(CNCCN(C)C)n2n1

>  <score_type>  (35) 
oracle

>  <origin>  (35) 
adg

>  <m_score__min__energy>  (35) 
-6.0999999999999996

>  <m_primary>  (35) 
energy

$$$$
35:0
     RDKit          3D

 25 26  0  0  0  0  0  0  0  0999 V2000
   59.4760   32.9060   49.4120 C   0  0  0  0  0  0  0  0  0  0  0  0
   59.2080   33.8520   48.3830 O   0  0  0  0  0  0  0  0  0  0  0  0
   58.8150   33.5150   47.0790 C   0  0  0  0  0  0  0  0  0  0  0  0
   58.5110   34.5510   46.1880 C   0  0  0  0  0  0  0  0  0  0  0  0
   58.1220   34.2680   44.8770 C   0  0  0  0  0  0  0  0  0  0  0  0
   58.0240   32.9430   44.4450 C   0  0  0  0  0  0  0  0  0  0  0  0
   58.3090   31.8860   45.3280 C   0  0  0  0  0  0  0  0  0  0  0  0
   58.2360   30.5170   44.8870 N   0  0  0  0  0  0  0  0  0  0  0  0
   59.3560   29.7880   44.8990 N   0  0  0  0  0  0  0  0  0  0  0  0
   59.3700   28.4930   44.4980 C   0  0  0  0  0  0  0  0  0  0  0  0
   58.1830   27.9130   44.0660 C   0  0  0  0  0  0  0  0  0  0  0  0
   58.1650   26.7130   43.6820 O   0  0  0  0  0  0  0  0  0  0  0  0
   57.0430   28.6500   44.0640 N   0  0  0  0  0  0  0  0  0  0  0  0
   57.0570   29.9460   44.4790 C   0  0  0  0  0  0  0  0  0  0  0  0
   55.9780   30.6010   44.5060 O   0  0  0  0  0  0  0  0  0  0  0  0
   58.7170   32.1800   46.6400 C   0  0  0  0  0  0  0  0  0  0  0  0
   59.3407   33.3837   50.3936 H   0  0  0  0  0  0  0  0  0  0  0  0
   58.7831   32.0568   49.3189 H   0  0  0  0  0  0  0  0  0  0  0  0
   60.5114   32.5464   49.3189 H   0  0  0  0  0  0  0  0  0  0  0  0
   58.5791   35.5965   46.5232 H   0  0  0  0  0  0  0  0  0  0  0  0
   57.8923   35.0900   44.1831 H   0  0  0  0  0  0  0  0  0  0  0  0
   57.7226   32.7255   43.4097 H   0  0  0  0  0  0  0  0  0  0  0  0
   60.3038   27.9118   44.5142 H   0  0  0  0  0  0  0  0  0  0  0  0
   56.1450   28.2160   43.7510 H   0  0  0  0  0  0  0  0  0  0  0  0
   58.9622   31.3599   47.3309 H   0  0  0  0  0  0  0  0  0  0  0  0
  1  2  1  0
  2  3  1  0
  3  4  2  0
  4  5  1  0
  5  6  2  0
  6  7  1  0
  7  8  1  0
  8  9  1  0
  9 10  2  0
 10 11  1  0
 11 12  2  0
 11 13  1  0
 13 14  1  0
 14 15  2  0
  7 16  2  0
 16  3  1  0
 14  8  1  0
  1 17  1  0
  1 18  1  0
  1 19  1  0
  4 20  1  0
  5 21  1  0
  6 22  1  0
 10 23  1  0
 13 24  1  0
 16 25  1  0
M  END
>  <UniqueID>  (36) 
30

>  <SMILES>  (36) 
COc1cccc(-n2ncc(=O)[nH]c2=O)c1

>  <Energy>  (36) 
33.624998070561126

>  <Genealogy>  (36) 
COc1cccc(-n2ncc(=O)[nH]c2=O)c1 (3D coordinates assigned)
COc1cccc(-n2ncc(=O)[nH]c2=O)c1 (optimized conformer: 33.624998070561126 kcal/mol)

>  <smiles>  (36) 
COc1cccc(-n2ncc(=O)[nH]c2=O)c1

>  <score_type>  (36) 
oracle

>  <origin>  (36) 
adg

>  <m_score__min__energy>  (36) 
-5.8300000000000001

>  <m_primary>  (36) 
energy

$$$$
36:0
     RDKit          3D

 44 47  0  0  0  0  0  0  0  0999 V2000
   59.1840   23.3530   45.6370 C   0  0  0  0  0  0  0  0  0  0  0  0
   58.4540   24.6630   45.6170 C   0  0  0  0  0  0  0  0  0  0  0  0
   57.0530   24.6780   45.6080 C   0  0  0  0  0  0  0  0  0  0  0  0
   56.3610   25.8910   45.6070 C   0  0  0  0  0  0  0  0  0  0  0  0
   57.0570   27.1060   45.6130 C   0  0  0  0  0  0  0  0  0  0  0  0
   56.3060   28.3290   45.6200 N   0  0  0  0  0  0  0  0  0  0  0  0
   56.4890   29.6180   44.4770 S   0  0  0  0  0  0  0  0  0  0  0  0
   55.1490   30.2560   44.2360 O   0  0  0  0  0  0  0  0  0  0  0  0
   57.0020   29.0600   43.1790 O   0  0  0  0  0  0  0  0  0  0  0  0
   57.6490   30.7940   45.0880 C   0  0  0  0  0  0  0  0  0  0  0  0
   58.6570   30.3800   45.9620 C   0  0  0  0  0  0  0  0  0  0  0  0
   59.5840   31.2970   46.4610 C   0  0  0  0  0  0  0  0  0  0  0  0
   59.5230   32.6540   46.0810 C   0  0  0  0  0  0  0  0  0  0  0  0
   60.4450   33.6220   46.5540 C   0  0  0  0  0  0  0  0  0  0  0  0
   61.6070   33.2810   47.4010 C   0  0  0  0  0  0  0  0  0  0  0  0
   62.9180   33.4200   46.9120 C   0  0  0  0  0  0  0  0  0  0  0  0
   64.0120   33.1320   47.7330 C   0  0  0  0  0  0  0  0  0  0  0  0
   63.8070   32.7190   49.0540 C   0  0  0  0  0  0  0  0  0  0  0  0
   65.1810   32.3610   50.0840 Cl  0  0  0  0  0  0  0  0  0  0  0  0
   62.5060   32.5980   49.5550 C   0  0  0  0  0  0  0  0  0  0  0  0
   61.4100   32.8850   48.7340 C   0  0  0  0  0  0  0  0  0  0  0  0
   60.2780   34.9290   46.2100 N   0  0  0  0  0  0  0  0  0  0  0  0
   59.2700   35.3480   45.4010 C   0  0  0  0  0  0  0  0  0  0  0  0
   58.3610   34.4300   44.8830 C   0  0  0  0  0  0  0  0  0  0  0  0
   58.4780   33.0760   45.2210 C   0  0  0  0  0  0  0  0  0  0  0  0
   57.5570   32.1430   44.7220 C   0  0  0  0  0  0  0  0  0  0  0  0
   58.4640   27.0920   45.6270 C   0  0  0  0  0  0  0  0  0  0  0  0
   59.1550   25.8770   45.6310 C   0  0  0  0  0  0  0  0  0  0  0  0
   59.3557   23.0448   46.6789 H   0  0  0  0  0  0  0  0  0  0  0  0
   58.5813   22.5895   45.1234 H   0  0  0  0  0  0  0  0  0  0  0  0
   60.1504   23.4639   45.1234 H   0  0  0  0  0  0  0  0  0  0  0  0
   56.4955   23.7298   45.6017 H   0  0  0  0  0  0  0  0  0  0  0  0
   55.2610   25.8920   45.6015 H   0  0  0  0  0  0  0  0  0  0  0  0
   58.7209   29.3229   46.2595 H   0  0  0  0  0  0  0  0  0  0  0  0
   60.3674   30.9589   47.1553 H   0  0  0  0  0  0  0  0  0  0  0  0
   63.0835   33.7571   45.8781 H   0  0  0  0  0  0  0  0  0  0  0  0
   65.0348   33.2301   47.3403 H   0  0  0  0  0  0  0  0  0  0  0  0
   62.3449   32.2771   50.5947 H   0  0  0  0  0  0  0  0  0  0  0  0
   60.3890   32.8001   49.1345 H   0  0  0  0  0  0  0  0  0  0  0  0
   59.1721   36.4156   45.1548 H   0  0  0  0  0  0  0  0  0  0  0  0
   57.5561   34.7658   44.2126 H   0  0  0  0  0  0  0  0  0  0  0  0
   56.7590   32.4722   44.0402 H   0  0  0  0  0  0  0  0  0  0  0  0
   59.0218   28.0401   45.6348 H   0  0  0  0  0  0  0  0  0  0  0  0
   60.2549   25.8734   45.6452 H   0  0  0  0  0  0  0  0  0  0  0  0
  1  2  1  0
  2  3  2  0
  3  4  1  0
  4  5  2  0
  5  6  1  0
  6  7  1  0
  7  8  2  0
  7  9  2  0
  7 10  1  0
 10 11  2  0
 11 12  1  0
 12 13  2  0
 13 14  1  0
 14 15  1  0
 15 16  2  0
 16 17  1  0
 17 18  2  0
 18 19  1  0
 18 20  1  0
 20 21  2  0
 14 22  2  0
 22 23  1  0
 23 24  2  0
 24 25  1  0
 25 26  2  0
  5 27  1  0
 27 28  2  0
 28  2  1  0
 26 10  1  0
 25 13  1  0
 21 15  1  0
  1 29  1  0
  1 30  1  0
  1 31  1  0
  3 32  1  0
  4 33  1  0
 11 34  1  0
 12 35  1  0
 16 36  1  0
 17 37  1  0
 20 38  1  0
 21 39  1  0
 23 40  1  0
 24 41  1  0
 26 42  1  0
 27 43  1  0
 28 44  1  0
M  CHG  1   6  -1
M  END
>  <UniqueID>  (37) 
31

>  <SMILES>  (37) 
Cc1ccc([N-]S(=O)(=O)c2ccc3c(-c4ccc(Cl)cc4)nccc3c2)cc1

>  <Energy>  (37) 
63.00114450552123

>  <Genealogy>  (37) 
Cc1ccc([N-]S(=O)(=O)c2ccc3c(-c4ccc(Cl)cc4)nccc3c2)cc1 (protonated)
Cc1ccc([N-]S(=O)(=O)c2ccc3c(-c4ccc(Cl)cc4)nccc3c2)cc1 (3D coordinates assigned)
Cc1ccc([N-]S(=O)(=O)c2ccc3c(-c4ccc(Cl)cc4)nccc3c2)cc1 (optimized conformer: 63.00114450552123 kcal/mol)

>  <smiles>  (37) 
Cc1ccc(NS(=O)(=O)c2ccc3c(-c4ccc(Cl)cc4)nccc3c2)cc1

>  <score_type>  (37) 
oracle

>  <origin>  (37) 
adg

>  <m_score__min__energy>  (37) 
-11.59

>  <m_primary>  (37) 
energy

$$$$
37:0
     RDKit          3D

 50 52  0  0  0  0  0  0  0  0999 V2000
   57.3900   21.3180   43.3110 C   0  0  0  0  0  0  0  0  0  0  0  0
   57.9310   21.9650   44.5960 C   0  0  0  0  0  0  0  0  0  0  0  0
   57.4780   23.3590   44.7990 N   0  0  0  0  0  0  0  0  0  0  0  0
   56.7350   23.9040   43.6380 C   0  0  0  0  0  0  0  0  0  0  0  0
   57.4350   25.1580   43.1340 C   0  0  0  0  0  0  0  0  0  0  0  0
   56.7890   23.5630   46.0930 C   0  0  0  0  0  0  0  0  0  0  0  0
   57.4350   24.7130   46.8770 C   0  0  0  0  0  0  0  0  0  0  0  0
   58.2310   25.5720   45.9980 N   0  0  0  0  0  0  0  0  0  0  0  0
   58.1540   27.0100   45.9660 C   0  0  0  0  0  0  0  0  0  0  0  0
   56.9710   27.6200   45.5330 C   0  0  0  0  0  0  0  0  0  0  0  0
   56.8370   29.0130   45.4940 C   0  0  0  0  0  0  0  0  0  0  0  0
   55.5830   29.5080   45.1230 O   0  0  0  0  0  0  0  0  0  0  0  0
   57.9450   29.8350   45.8490 C   0  0  0  0  0  0  0  0  0  0  0  0
   57.9690   31.2460   45.7360 C   0  0  0  0  0  0  0  0  0  0  0  0
   57.0150   31.8910   45.2310 O   0  0  0  0  0  0  0  0  0  0  0  0
   59.0940   31.9560   46.1580 C   0  0  0  0  0  0  0  0  0  0  0  0
   60.2020   31.2620   46.6610 C   0  0  0  0  0  0  0  0  0  0  0  0
   61.4240   31.9660   47.1250 C   0  0  0  0  0  0  0  0  0  0  0  0
   62.2820   31.3330   48.0450 C   0  0  0  0  0  0  0  0  0  0  0  0
   63.4340   31.9790   48.5040 C   0  0  0  0  0  0  0  0  0  0  0  0
   63.7400   33.2660   48.0570 C   0  0  0  0  0  0  0  0  0  0  0  0
   62.8920   33.9110   47.1550 C   0  0  0  0  0  0  0  0  0  0  0  0
   61.7390   33.2700   46.6920 C   0  0  0  0  0  0  0  0  0  0  0  0
   60.1750   29.9340   46.7030 O   0  0  0  0  0  0  0  0  0  0  0  0
   59.1280   29.2100   46.3200 C   0  0  0  0  0  0  0  0  0  0  0  0
   59.2200   27.8180   46.3840 C   0  0  0  0  0  0  0  0  0  0  0  0
   56.7048   20.4985   43.5735 H   0  0  0  0  0  0  0  0  0  0  0  0
   56.8500   22.0724   42.7199 H   0  0  0  0  0  0  0  0  0  0  0  0
   58.2280   20.9201   42.7199 H   0  0  0  0  0  0  0  0  0  0  0  0
   57.5973   21.3634   45.4543 H   0  0  0  0  0  0  0  0  0  0  0  0
   59.0267   21.9944   44.5032 H   0  0  0  0  0  0  0  0  0  0  0  0
   56.7055   23.1524   42.8354 H   0  0  0  0  0  0  0  0  0  0  0  0
   55.7080   24.1536   43.9430 H   0  0  0  0  0  0  0  0  0  0  0  0
   57.7710   25.7600   43.9912 H   0  0  0  0  0  0  0  0  0  0  0  0
   58.3042   24.8724   42.5233 H   0  0  0  0  0  0  0  0  0  0  0  0
   56.7357   25.7479   42.5233 H   0  0  0  0  0  0  0  0  0  0  0  0
   55.7321   23.8031   45.9052 H   0  0  0  0  0  0  0  0  0  0  0  0
   56.8716   22.6406   46.6865 H   0  0  0  0  0  0  0  0  0  0  0  0
   56.6439   25.3156   47.3471 H   0  0  0  0  0  0  0  0  0  0  0  0
   58.1007   24.2834   47.6401 H   0  0  0  0  0  0  0  0  0  0  0  0
   58.9340   25.1000   45.3840 H   0  0  0  0  0  0  0  0  0  0  0  0
   56.1268   26.9901   45.2159 H   0  0  0  0  0  0  0  0  0  0  0  0
   55.2900   30.4670   45.2270 H   0  0  0  0  0  0  0  0  0  0  0  0
   59.1105   33.0541   46.0960 H   0  0  0  0  0  0  0  0  0  0  0  0
   62.0438   30.3215   48.4057 H   0  0  0  0  0  0  0  0  0  0  0  0
   64.1001   31.4727   49.2182 H   0  0  0  0  0  0  0  0  0  0  0  0
   64.6489   33.7714   48.4155 H   0  0  0  0  0  0  0  0  0  0  0  0
   63.1317   34.9267   46.8074 H   0  0  0  0  0  0  0  0  0  0  0  0
   61.0732   33.7867   45.9851 H   0  0  0  0  0  0  0  0  0  0  0  0
   60.1393   27.3506   46.7667 H   0  0  0  0  0  0  0  0  0  0  0  0
  1  2  1  0
  2  3  1  0
  3  4  1  0
  4  5  1  0
  3  6  1  0
  6  7  1  0
  7  8  1  0
  8  9  1  0
  9 10  2  0
 10 11  1  0
 11 12  1  0
 11 13  2  0
 13 14  1  0
 14 15  2  0
 14 16  1  0
 16 17  2  0
 17 18  1  0
 18 19  2  0
 19 20  1  0
 20 21  2  0
 21 22  1  0
 22 23  2  0
 17 24  1  0
 24 25  1  0
 25 26  2  0
 26  9  1  0
 25 13  1  0
 23 18  1  0
  1 27  1  0
  1 28  1  0
  1 29  1  0
  2 30  1  0
  2 31  1  0
  4 32  1  0
  4 33  1  0
  5 34  1  0
  5 35  1  0
  5 36  1  0
  6 37  1  0
  6 38  1  0
  7 39  1  0
  7 40  1  0
  8 41  1  0
 10 42  1  0
 12 43  1  0
 16 44  1  0
 19 45  1  0
 20 46  1  0
 21 47  1  0
 22 48  1  0
 23 49  1  0
 26 50  1  0
M  END
>  <UniqueID>  (38) 
32

>  <SMILES>  (38) 
CCN(CC)CCNc1cc(O)c2c(=O)cc(-c3ccccc3)oc2c1

>  <Energy>  (38) 
65.92985507061431

>  <Genealogy>  (38) 
CCN(CC)CCNc1cc(O)c2c(=O)cc(-c3ccccc3)oc2c1 (3D coordinates assigned)
CCN(CC)CCNc1cc(O)c2c(=O)cc(-c3ccccc3)oc2c1 (optimized conformer: 65.92985507061431 kcal/mol)

>  <smiles>  (38) 
CCN(CC)CCNc1cc(O)c2c(=O)cc(-c3ccccc3)oc2c1

>  <score_type>  (38) 
oracle

>  <origin>  (38) 
adg

>  <m_score__min__energy>  (38) 
-7.3399999999999999

>  <m_primary>  (38) 
energy

$$$$
38:0
     RDKit          3D

 28 29  0  0  0  0  0  0  0  0999 V2000
   63.4160   32.7710   47.6370 C   0  0  0  0  0  0  0  0  0  0  0  0
   62.2230   32.1410   48.0940 O   0  0  0  0  0  0  0  0  0  0  0  0
   61.1620   31.7150   47.2770 C   0  0  0  0  0  0  0  0  0  0  0  0
   61.2450   30.5100   46.5630 C   0  0  0  0  0  0  0  0  0  0  0  0
   60.1960   30.0680   45.7390 C   0  0  0  0  0  0  0  0  0  0  0  0
   58.9920   30.8210   45.6750 C   0  0  0  0  0  0  0  0  0  0  0  0
   58.9170   32.0590   46.3820 C   0  0  0  0  0  0  0  0  0  0  0  0
   57.3930   33.2480   46.3160 Br  0  0  0  0  0  0  0  0  0  0  0  0
   59.9960   32.5030   47.1710 C   0  0  0  0  0  0  0  0  0  0  0  0
   59.8400   33.7400   47.8310 O   0  0  0  0  0  0  0  0  0  0  0  0
   60.0270   34.0030   49.2180 C   0  0  0  0  0  0  0  0  0  0  0  0
   57.9440   30.3160   44.9400 N   0  0  0  0  0  0  0  0  0  0  0  0
   56.7300   30.9600   44.8700 O   0  0  0  0  0  0  0  0  0  0  0  0
   58.0710   29.1320   44.2800 C   0  0  0  0  0  0  0  0  0  0  0  0
   56.9850   28.5880   43.5230 N   0  0  0  0  0  0  0  0  0  0  0  0
   59.2410   28.4580   44.3270 N   0  0  0  0  0  0  0  0  0  0  0  0
   60.2870   28.9020   45.0160 N   0  0  0  0  0  0  0  0  0  0  0  0
   61.4460   28.1510   44.9320 O   0  0  0  0  0  0  0  0  0  0  0  0
   64.0173   33.0885   48.5016 H   0  0  0  0  0  0  0  0  0  0  0  0
   63.9954   32.0613   47.0282 H   0  0  0  0  0  0  0  0  0  0  0  0
   63.1566   33.6497   47.0282 H   0  0  0  0  0  0  0  0  0  0  0  0
   62.1536   29.8962   46.6504 H   0  0  0  0  0  0  0  0  0  0  0  0
   59.4898   33.2475   49.8101 H   0  0  0  0  0  0  0  0  0  0  0  0
   61.0998   33.9619   49.4576 H   0  0  0  0  0  0  0  0  0  0  0  0
   59.6358   35.0028   49.4576 H   0  0  0  0  0  0  0  0  0  0  0  0
   57.0520   27.6580   43.0530 H   0  0  0  0  0  0  0  0  0  0  0  0
   56.0940   29.1240   43.4300 H   0  0  0  0  0  0  0  0  0  0  0  0
   62.0380   28.1160   44.1150 H   0  0  0  0  0  0  0  0  0  0  0  0
  1  2  1  0
  2  3  1  0
  3  4  2  0
  4  5  1  0
  5  6  2  0
  6  7  1  0
  7  8  1  0
  7  9  2  0
  9 10  1  0
 10 11  1  0
  6 12  1  0
 12 13  1  0
 12 14  2  0
 14 15  1  0
 14 16  1  0
 16 17  2  0
 17 18  1  0
  9  3  1  0
 17  5  1  0
  1 19  1  0
  1 20  1  0
  1 21  1  0
  4 22  1  0
 11 23  1  0
 11 24  1  0
 11 25  1  0
 15 26  1  0
 15 27  1  0
 18 28  1  0
M  CHG  3  12   1  13  -1  17   1
M  END
>  <UniqueID>  (39) 
33

>  <SMILES>  (39) 
COc1cc2c(c(Br)c1OC)[n+]([O-])c(N)n[n+]2O

>  <Energy>  (39) 
47.13662705399214

>  <Genealogy>  (39) 
COc1cc2c(c(Br)c1OC)[n+]([O-])c(N)n[n+]2O (protonated)
COc1cc2c(c(Br)c1OC)[n+]([O-])c(N)n[n+]2O (3D coordinates assigned)
COc1cc2c(c(Br)c1OC)[n+]([O-])c(N)n[n+]2O (optimized conformer: 47.13662705399214 kcal/mol)

>  <smiles>  (39) 
COc1cc2c(c(Br)c1OC)[n+]([O-])c(N)n[n+]2[O-]

>  <score_type>  (39) 
oracle

>  <origin>  (39) 
adg

>  <m_score__min__energy>  (39) 
-4.1399999999999997

>  <m_primary>  (39) 
energy

$$$$
39:0
     RDKit          3D

 51 52  0  0  0  0  0  0  0  0999 V2000
   64.4860   31.6030   50.5270 C   0  0  0  0  0  0  0  0  0  0  0  0
   63.4320   31.8680   49.4420 C   0  0  0  0  0  0  0  0  0  0  0  0
   63.6640   33.0860   48.6200 N   0  0  0  0  0  0  0  0  0  0  0  0
   63.6080   32.8510   47.1570 C   0  0  0  0  0  0  0  0  0  0  0  0
   63.3010   34.1310   46.3790 C   0  0  0  0  0  0  0  0  0  0  0  0
   62.7980   34.2250   48.9970 C   0  0  0  0  0  0  0  0  0  0  0  0
   61.7940   33.8430   50.0520 C   0  0  0  0  0  0  0  0  0  0  0  0
   62.2140   33.5510   51.2050 O   0  0  0  0  0  0  0  0  0  0  0  0
   60.3800   33.7540   49.7640 N   0  0  0  0  0  0  0  0  0  0  0  0
   59.6230   32.6580   50.3960 C   0  0  0  0  0  0  0  0  0  0  0  0
   59.2270   31.5430   49.4200 C   0  0  0  0  0  0  0  0  0  0  0  0
   60.0890   31.5320   48.1460 C   0  0  0  0  0  0  0  0  0  0  0  0
   59.6740   32.5340   47.1440 N   0  0  0  0  0  0  0  0  0  0  0  0
   58.8740   32.1250   46.0090 C   0  0  0  0  0  0  0  0  0  0  0  0
   58.8050   32.9330   44.8610 C   0  0  0  0  0  0  0  0  0  0  0  0
   58.0160   32.5400   43.7830 C   0  0  0  0  0  0  0  0  0  0  0  0
   57.2870   31.3580   43.8510 C   0  0  0  0  0  0  0  0  0  0  0  0
   57.3600   30.5620   45.0050 C   0  0  0  0  0  0  0  0  0  0  0  0
   56.5630   29.3170   45.0980 C   0  0  0  0  0  0  0  0  0  0  0  0
   55.1650   29.3330   44.8200 N   0  0  0  0  0  0  0  0  0  0  0  0
   57.1150   28.2260   45.4090 O   0  0  0  0  0  0  0  0  0  0  0  0
   58.1630   30.9550   46.0420 N   0  0  0  0  0  0  0  0  0  0  0  0
   60.1240   33.9320   47.2690 C   0  0  0  0  0  0  0  0  0  0  0  0
   59.7870   34.5250   48.6530 C   0  0  0  0  0  0  0  0  0  0  0  0
   64.0270   31.7184   51.5200 H   0  0  0  0  0  0  0  0  0  0  0  0
   64.8740   30.5794   50.4191 H   0  0  0  0  0  0  0  0  0  0  0  0
   65.3120   32.3214   50.4191 H   0  0  0  0  0  0  0  0  0  0  0  0
   63.4126   30.9999   48.7667 H   0  0  0  0  0  0  0  0  0  0  0  0
   62.4822   32.0327   49.9718 H   0  0  0  0  0  0  0  0  0  0  0  0
   64.5798   32.4580   46.8236 H   0  0  0  0  0  0  0  0  0  0  0  0
   62.7979   32.1332   46.9605 H   0  0  0  0  0  0  0  0  0  0  0  0
   63.1043   34.9511   47.0852 H   0  0  0  0  0  0  0  0  0  0  0  0
   64.1623   34.3909   45.7460 H   0  0  0  0  0  0  0  0  0  0  0  0
   62.4155   33.9719   45.7460 H   0  0  0  0  0  0  0  0  0  0  0  0
   63.4291   35.0382   49.3848 H   0  0  0  0  0  0  0  0  0  0  0  0
   62.2456   34.5440   48.1008 H   0  0  0  0  0  0  0  0  0  0  0  0
   60.2440   32.2198   51.1912 H   0  0  0  0  0  0  0  0  0  0  0  0
   58.6904   33.0925   50.7851 H   0  0  0  0  0  0  0  0  0  0  0  0
   59.3394   30.5742   49.9288 H   0  0  0  0  0  0  0  0  0  0  0  0
   58.1862   31.7249   49.1141 H   0  0  0  0  0  0  0  0  0  0  0  0
   61.1321   31.7352   48.4299 H   0  0  0  0  0  0  0  0  0  0  0  0
   59.9675   30.5419   47.6823 H   0  0  0  0  0  0  0  0  0  0  0  0
   59.3731   33.8738   44.8142 H   0  0  0  0  0  0  0  0  0  0  0  0
   57.9695   33.1642   42.8784 H   0  0  0  0  0  0  0  0  0  0  0  0
   56.6562   31.0482   43.0048 H   0  0  0  0  0  0  0  0  0  0  0  0
   54.4620   29.4150   45.5890 H   0  0  0  0  0  0  0  0  0  0  0  0
   58.2460   30.3360   46.8790 H   0  0  0  0  0  0  0  0  0  0  0  0
   61.2135   33.9690   47.1223 H   0  0  0  0  0  0  0  0  0  0  0  0
   59.6000   34.5275   46.5069 H   0  0  0  0  0  0  0  0  0  0  0  0
   60.1692   35.5555   48.6967 H   0  0  0  0  0  0  0  0  0  0  0  0
   58.6939   34.4907   48.7715 H   0  0  0  0  0  0  0  0  0  0  0  0
  1  2  1  0
  2  3  1  0
  3  4  1  0
  4  5  1  0
  3  6  1  0
  6  7  1  0
  7  8  2  0
  7  9  1  0
  9 10  1  0
 10 11  1  0
 11 12  1  0
 12 13  1  0
 13 14  1  0
 14 15  2  0
 15 16  1  0
 16 17  2  0
 17 18  1  0
 18 19  1  0
 19 20  1  0
 19 21  2  0
 18 22  2  0
 13 23  1  0
 23 24  1  0
 24  9  1  0
 22 14  1  0
  1 25  1  0
  1 26  1  0
  1 27  1  0
  2 28  1  0
  2 29  1  0
  4 30  1  0
  4 31  1  0
  5 32  1  0
  5 33  1  0
  5 34  1  0
  6 35  1  0
  6 36  1  0
 10 37  1  0
 10 38  1  0
 11 39  1  0
 11 40  1  0
 12 41  1  0
 12 42  1  0
 15 43  1  0
 16 44  1  0
 17 45  1  0
 20 46  1  0
 22 47  1  0
 23 48  1  0
 23 49  1  0
 24 50  1  0
 24 51  1  0
M  CHG  2  20  -1  22   1
M  END
>  <UniqueID>  (40) 
34

>  <SMILES>  (40) 
CCN(CC)CC(=O)N1CCCN(c2cccc(C([NH-])=O)[nH+]2)CC1

>  <Energy>  (40) 
61.30789098235848

>  <Genealogy>  (40) 
CCN(CC)CC(=O)N1CCCN(c2cccc(C([NH-])=O)[nH+]2)CC1 (protonated)
CCN(CC)CC(=O)N1CCCN(c2cccc(C([NH-])=O)[nH+]2)CC1 (3D coordinates assigned)
CCN(CC)CC(=O)N1CCCN(c2cccc(C([NH-])=O)[nH+]2)CC1 (nonaromatic ring conformer: 61.30789098235848 kcal/mol)

>  <smiles>  (40) 
CCN(CC)CC(=O)N1CCCN(c2cccc(C(N)=O)n2)CC1

>  <score_type>  (40) 
oracle

>  <origin>  (40) 
adg

>  <m_score__min__energy>  (40) 
-6.5300000000000002

>  <m_primary>  (40) 
energy

$$$$
40:0
     RDKit          3D

 42 43  0  0  0  0  0  0  0  0999 V2000
   56.3270   23.2180   43.0620 C   0  0  0  0  0  0  0  0  0  0  0  0
   55.4670   23.3680   43.8930 C   0  0  0  0  0  0  0  0  0  0  0  0
   54.4100   23.5510   44.8950 C   0  0  0  0  0  0  0  0  0  0  0  0
   54.8460   23.0750   46.2930 C   0  0  0  0  0  0  0  0  0  0  0  0
   54.5500   21.5860   46.5670 C   0  0  0  0  0  0  0  0  0  0  0  0
   55.3950   20.5930   45.7420 C   0  0  0  0  0  0  0  0  0  0  0  0
   56.8340   20.4200   46.2600 C   0  0  0  0  0  0  0  0  0  0  0  0
   57.7410   21.5360   45.8440 C   0  0  0  0  0  0  0  0  0  0  0  0
   58.6530   21.4630   44.8590 N   0  0  0  0  0  0  0  0  0  0  0  0
   59.2550   22.6370   44.7830 N   0  0  0  0  0  0  0  0  0  0  0  0
   58.6690   23.3960   45.7290 C   0  0  0  0  0  0  0  0  0  0  0  0
   59.0950   25.1070   46.0440 S   0  0  0  0  0  0  0  0  0  0  0  0
   57.7160   25.7860   45.0610 C   0  0  0  0  0  0  0  0  0  0  0  0
   56.6350   26.2810   45.9670 C   0  0  0  0  0  0  0  0  0  0  0  0
   56.3530   25.6390   47.0140 O   0  0  0  0  0  0  0  0  0  0  0  0
   55.9020   27.4610   45.6200 N   0  0  0  0  0  0  0  0  0  0  0  0
   56.4860   28.7090   45.2220 C   0  0  0  0  0  0  0  0  0  0  0  0
   55.8480   29.5590   44.3000 C   0  0  0  0  0  0  0  0  0  0  0  0
   56.4110   30.7990   43.9810 C   0  0  0  0  0  0  0  0  0  0  0  0
   57.6070   31.2020   44.5830 C   0  0  0  0  0  0  0  0  0  0  0  0
   58.3060   32.7620   44.1910 Cl  0  0  0  0  0  0  0  0  0  0  0  0
   58.2380   30.3650   45.5090 C   0  0  0  0  0  0  0  0  0  0  0  0
   57.6770   29.1260   45.8290 C   0  0  0  0  0  0  0  0  0  0  0  0
   57.7390   22.7320   46.3810 O   0  0  0  0  0  0  0  0  0  0  0  0
   57.1119   23.0811   42.3036 H   0  0  0  0  0  0  0  0  0  0  0  0
   54.1535   24.6193   44.9484 H   0  0  0  0  0  0  0  0  0  0  0  0
   53.5440   22.9466   44.5870 H   0  0  0  0  0  0  0  0  0  0  0  0
   55.9296   23.2365   46.3915 H   0  0  0  0  0  0  0  0  0  0  0  0
   54.2642   23.6559   47.0238 H   0  0  0  0  0  0  0  0  0  0  0  0
   54.7377   21.3909   47.6332 H   0  0  0  0  0  0  0  0  0  0  0  0
   53.5035   21.4201   46.2716 H   0  0  0  0  0  0  0  0  0  0  0  0
   54.8979   19.6120   45.7655 H   0  0  0  0  0  0  0  0  0  0  0  0
   55.4687   21.0042   44.7244 H   0  0  0  0  0  0  0  0  0  0  0  0
   56.8089   20.3792   47.3590 H   0  0  0  0  0  0  0  0  0  0  0  0
   57.2321   19.4915   45.8249 H   0  0  0  0  0  0  0  0  0  0  0  0
   58.8600   20.6440   44.2450 H   0  0  0  0  0  0  0  0  0  0  0  0
   58.0842   26.6193   44.4446 H   0  0  0  0  0  0  0  0  0  0  0  0
   57.3099   24.9938   44.4148 H   0  0  0  0  0  0  0  0  0  0  0  0
   54.9041   29.2476   43.8289 H   0  0  0  0  0  0  0  0  0  0  0  0
   55.9121   31.4582   43.2554 H   0  0  0  0  0  0  0  0  0  0  0  0
   59.1770   30.6825   45.9859 H   0  0  0  0  0  0  0  0  0  0  0  0
   58.1741   28.4740   46.5624 H   0  0  0  0  0  0  0  0  0  0  0  0
  1  2  3  0
  2  3  1  0
  3  4  1  0
  4  5  1  0
  5  6  1  0
  6  7  1  0
  7  8  1  0
  8  9  2  0
  9 10  1  0
 10 11  2  0
 11 12  1  0
 12 13  1  0
 13 14  1  0
 14 15  2  0
 14 16  1  0
 16 17  1  0
 17 18  2  0
 18 19  1  0
 19 20  2  0
 20 21  1  0
 20 22  1  0
 22 23  2  0
 11 24  1  0
 24  8  1  0
 23 17  1  0
  1 25  1  0
  3 26  1  0
  3 27  1  0
  4 28  1  0
  4 29  1  0
  5 30  1  0
  5 31  1  0
  6 32  1  0
  6 33  1  0
  7 34  1  0
  7 35  1  0
  9 36  1  0
 13 37  1  0
 13 38  1  0
 18 39  1  0
 19 40  1  0
 22 41  1  0
 23 42  1  0
M  CHG  2   9   1  16  -1
M  END
>  <UniqueID>  (41) 
35

>  <SMILES>  (41) 
C#CCCCCCc1[nH+]nc(SCC(=O)[N-]c2ccc(Cl)cc2)o1

>  <Energy>  (41) 
64.87929915958134

>  <Genealogy>  (41) 
C#CCCCCCc1[nH+]nc(SCC(=O)[N-]c2ccc(Cl)cc2)o1 (protonated)
C#CCCCCCc1[nH+]nc(SCC(=O)[N-]c2ccc(Cl)cc2)o1 (3D coordinates assigned)
C#CCCCCCc1[nH+]nc(SCC(=O)[N-]c2ccc(Cl)cc2)o1 (optimized conformer: 64.87929915958134 kcal/mol)

>  <smiles>  (41) 
C#CCCCCCc1nnc(SCC(=O)Nc2ccc(Cl)cc2)o1

>  <score_type>  (41) 
oracle

>  <origin>  (41) 
adg

>  <m_score__min__energy>  (41) 
-7.75

>  <m_primary>  (41) 
energy

$$$$
41:0
     RDKit          3D

 43 45  0  0  1  0  0  0  0  0999 V2000
   52.8160   23.4650   45.8330 C   0  0  0  0  0  0  0  0  0  0  0  0
   54.1520   24.0950   45.7390 C   0  0  0  0  0  0  0  0  0  0  0  0
   55.2900   23.4360   45.4480 N   0  0  0  0  0  0  0  0  0  0  0  0
   56.2880   24.3320   45.4530 C   0  0  0  0  0  0  0  0  0  0  0  0
   57.7010   23.9690   45.1720 C   0  0  0  0  0  0  0  0  0  0  0  0
   55.7850   25.5580   45.7440 N   0  0  0  0  0  0  0  0  0  0  0  0
   56.5190   26.7700   45.8450 C   0  0  0  0  0  0  0  0  0  0  0  0
   57.7140   26.7490   46.4670 N   0  0  0  0  0  0  0  0  0  0  0  0
   58.4270   27.8840   46.5790 C   0  0  0  0  0  0  0  0  0  0  0  0
   59.6270   27.8160   47.2270 C   0  0  0  0  0  0  0  0  0  0  0  0
   60.3350   28.9940   47.3440 C   0  0  0  0  0  0  0  0  0  0  0  0
   59.9210   30.2000   46.8660 C   0  0  0  0  0  0  0  0  0  0  0  0
   58.6790   30.2690   46.1960 C   0  0  0  0  0  0  0  0  0  0  0  0
   57.9980   29.1010   46.0840 C   0  0  0  0  0  0  0  0  0  0  0  0
   56.7850   29.0950   45.4500 C   0  0  0  0  0  0  0  0  0  0  0  0
   56.3800   30.0860   44.8160 N   0  0  0  0  0  0  0  0  0  0  0  0
   56.7940   30.6860   43.6380 C   0  0  0  0  0  0  0  0  0  0  0  0
   57.3940   32.0510   43.6950 C   0  0  0  0  0  0  0  0  0  0  0  0
   57.9870   32.4460   42.6740 O   0  0  0  0  0  0  0  0  0  0  0  0
   57.2680   32.8110   44.8620 N   0  0  0  0  0  0  0  0  0  0  0  0
   57.7460   34.1150   45.1280 C   0  0  0  0  0  0  0  0  0  0  0  0
   59.1830   34.3020   45.4530 C   0  0  0  0  0  0  0  0  0  0  0  0
   59.6270   34.4530   47.3090 Br  0  0  0  0  0  0  0  0  0  0  0  0
   56.0820   27.9440   45.3510 N   0  0  0  0  0  0  0  0  0  0  0  0
   54.4760   25.3680   45.9120 N   0  0  0  0  0  0  0  0  0  0  0  0
   52.5446   23.3370   46.8913 H   0  0  0  0  0  0  0  0  0  0  0  0
   52.0722   24.1072   45.3388 H   0  0  0  0  0  0  0  0  0  0  0  0
   52.8383   22.4825   45.3388 H   0  0  0  0  0  0  0  0  0  0  0  0
   58.2397   23.8306   46.1210 H   0  0  0  0  0  0  0  0  0  0  0  0
   57.7313   23.0339   44.5935 H   0  0  0  0  0  0  0  0  0  0  0  0
   58.1782   24.7737   44.5935 H   0  0  0  0  0  0  0  0  0  0  0  0
   60.0100   26.8691   47.6353 H   0  0  0  0  0  0  0  0  0  0  0  0
   61.3050   28.9565   47.8613 H   0  0  0  0  0  0  0  0  0  0  0  0
   60.5395   31.1000   46.9985 H   0  0  0  0  0  0  0  0  0  0  0  0
   58.2876   31.2132   45.7895 H   0  0  0  0  0  0  0  0  0  0  0  0
   57.5448   30.0223   43.1844 H   0  0  0  0  0  0  0  0  0  0  0  0
   55.8614   30.8305   43.0729 H   0  0  0  0  0  0  0  0  0  0  0  0
   56.7340   32.3290   45.6650 H   0  0  0  0  0  0  0  0  0  0  0  0
   57.5351   34.7239   44.2365 H   0  0  0  0  0  0  0  0  0  0  0  0
   57.2262   34.4031   46.0536 H   0  0  0  0  0  0  0  0  0  0  0  0
   59.7323   33.4397   45.0472 H   0  0  0  0  0  0  0  0  0  0  0  0
   59.4582   35.2698   45.0084 H   0  0  0  0  0  0  0  0  0  0  0  0
   55.1510   27.9170   44.8770 H   0  0  0  0  0  0  0  0  0  0  0  0
  1  2  1  0
  2  3  1  0
  3  4  2  0
  4  5  1  0
  4  6  1  0
  6  7  1  0
  7  8  2  0
  8  9  1  0
  9 10  2  0
 10 11  1  0
 11 12  2  0
 12 13  1  0
 13 14  2  0
 14 15  1  0
 15 16  2  0
 16 17  1  0
 17 18  1  0
 18 19  2  0
 18 20  1  0
 20 21  1  0
 21 22  1  0
 22 23  1  0
 15 24  1  0
  6 25  1  0
 25  2  2  0
 24  7  1  0
 14  9  1  0
  1 26  1  0
  1 27  1  0
  1 28  1  0
  5 29  1  0
  5 30  1  0
  5 31  1  0
 10 32  1  0
 11 33  1  0
 12 34  1  0
 13 35  1  0
 17 36  1  0
 17 37  1  0
 20 38  1  0
 21 39  1  0
 21 40  1  0
 22 41  1  0
 22 42  1  0
 24 43  1  0
M  END
>  <smiles>  (42) 
Cc1nc(C)n(-c2nc3ccccc3c(=NCC(=O)NCCBr)[nH]2)n1

>  <score_type>  (42) 
oracle

>  <origin>  (42) 
adg

>  <m_score__min__energy>  (42) 
-8.3499999999999996

>  <m_primary>  (42) 
energy

$$$$
42:0
     RDKit          3D

 40 43  0  0  0  0  0  0  0  0999 V2000
   56.2650   29.7490   42.7470 C   0  0  0  0  0  0  0  0  0  0  0  0
   56.1430   29.7790   44.2690 C   0  0  0  0  0  0  0  0  0  0  0  0
   57.4680   29.7510   44.9040 N   0  0  0  0  0  0  0  0  0  0  0  0
   58.2550   28.6570   45.1290 C   0  0  0  0  0  0  0  0  0  0  0  0
   57.9060   27.2630   44.7820 C   0  0  0  0  0  0  0  0  0  0  0  0
   57.9850   26.8070   43.4600 C   0  0  0  0  0  0  0  0  0  0  0  0
   57.6670   25.4830   43.1460 C   0  0  0  0  0  0  0  0  0  0  0  0
   57.2720   24.5840   44.1550 C   0  0  0  0  0  0  0  0  0  0  0  0
   56.9300   23.1750   43.8420 C   0  0  0  0  0  0  0  0  0  0  0  0
   57.5440   22.0370   44.3340 C   0  0  0  0  0  0  0  0  0  0  0  0
   56.8610   20.9980   43.7420 C   0  0  0  0  0  0  0  0  0  0  0  0
   55.8960   21.4910   42.9450 N   0  0  0  0  0  0  0  0  0  0  0  0
   55.9380   22.8140   43.0040 N   0  0  0  0  0  0  0  0  0  0  0  0
   57.2150   25.0410   45.4830 C   0  0  0  0  0  0  0  0  0  0  0  0
   57.5340   26.3660   45.7930 C   0  0  0  0  0  0  0  0  0  0  0  0
   59.4090   29.0080   45.8250 C   0  0  0  0  0  0  0  0  0  0  0  0
   59.3040   30.3620   46.0100 C   0  0  0  0  0  0  0  0  0  0  0  0
   60.1490   31.1910   46.6620 N   0  0  0  0  0  0  0  0  0  0  0  0
   59.8200   32.5100   46.7660 C   0  0  0  0  0  0  0  0  0  0  0  0
   58.6460   32.9900   46.2300 N   0  0  0  0  0  0  0  0  0  0  0  0
   58.3050   34.4080   46.3890 C   0  0  0  0  0  0  0  0  0  0  0  0
   57.7750   32.1390   45.5870 C   0  0  0  0  0  0  0  0  0  0  0  0
   56.6780   32.5640   45.1360 O   0  0  0  0  0  0  0  0  0  0  0  0
   58.1340   30.7920   45.4620 C   0  0  0  0  0  0  0  0  0  0  0  0
   57.2980   29.4950   42.4669 H   0  0  0  0  0  0  0  0  0  0  0  0
   55.5780   28.9930   42.3389 H   0  0  0  0  0  0  0  0  0  0  0  0
   56.0069   30.7374   42.3389 H   0  0  0  0  0  0  0  0  0  0  0  0
   55.6192   30.6983   44.5699 H   0  0  0  0  0  0  0  0  0  0  0  0
   55.5801   28.8912   44.5931 H   0  0  0  0  0  0  0  0  0  0  0  0
   58.2998   27.4964   42.6628 H   0  0  0  0  0  0  0  0  0  0  0  0
   57.7257   25.1405   42.1023 H   0  0  0  0  0  0  0  0  0  0  0  0
   58.3867   21.9760   45.0384 H   0  0  0  0  0  0  0  0  0  0  0  0
   57.0720   19.9296   43.8970 H   0  0  0  0  0  0  0  0  0  0  0  0
   56.9168   24.3499   46.2852 H   0  0  0  0  0  0  0  0  0  0  0  0
   57.4929   26.7074   46.8379 H   0  0  0  0  0  0  0  0  0  0  0  0
   60.2237   28.3458   46.1533 H   0  0  0  0  0  0  0  0  0  0  0  0
   60.5016   33.2000   47.2851 H   0  0  0  0  0  0  0  0  0  0  0  0
   58.2461   34.6531   47.4597 H   0  0  0  0  0  0  0  0  0  0  0  0
   59.0799   35.0270   45.9132 H   0  0  0  0  0  0  0  0  0  0  0  0
   57.3334   34.6070   45.9132 H   0  0  0  0  0  0  0  0  0  0  0  0
  1  2  1  0
  2  3  1  0
  3  4  1  0
  4  5  1  0
  5  6  2  0
  6  7  1  0
  7  8  2  0
  8  9  1  0
  9 10  1  0
 10 11  2  0
 11 12  1  0
 12 13  1  0
  8 14  1  0
 14 15  2  0
  4 16  2  0
 16 17  1  0
 17 18  1  0
 18 19  2  0
 19 20  1  0
 20 21  1  0
 20 22  1  0
 22 23  2  0
 22 24  1  0
 24  3  1  0
 15  5  1  0
 24 17  2  0
 13  9  2  0
  1 25  1  0
  1 26  1  0
  1 27  1  0
  2 28  1  0
  2 29  1  0
  6 30  1  0
  7 31  1  0
 10 32  1  0
 11 33  1  0
 14 34  1  0
 15 35  1  0
 16 36  1  0
 19 37  1  0
 21 38  1  0
 21 39  1  0
 21 40  1  0
M  CHG  1  12  -1
M  END
>  <UniqueID>  (43) 
36

>  <SMILES>  (43) 
CCn1c(-c2ccc(-c3cc[n-]n3)cc2)cc2ncn(C)c(=O)c21

>  <Energy>  (43) 
117.8248391270642

>  <Genealogy>  (43) 
CCn1c(-c2ccc(-c3cc[n-]n3)cc2)cc2ncn(C)c(=O)c21 (protonated)
CCn1c(-c2ccc(-c3cc[n-]n3)cc2)cc2ncn(C)c(=O)c21 (3D coordinates assigned)
CCn1c(-c2ccc(-c3cc[n-]n3)cc2)cc2ncn(C)c(=O)c21 (optimized conformer: 117.8248391270642 kcal/mol)

>  <smiles>  (43) 
CCn1c(-c2ccc(-c3cc[nH]n3)cc2)cc2ncn(C)c(=O)c21

>  <score_type>  (43) 
oracle

>  <origin>  (43) 
adg

>  <m_score__min__energy>  (43) 
-9.2799999999999994

>  <m_primary>  (43) 
energy

$$$$
43:0
     RDKit          3D

 56 60  0  0  0  0  0  0  0  0999 V2000
   59.6460   35.3320   46.6620 C   0  0  0  0  0  0  0  0  0  0  0  0
   59.3400   33.9720   47.1060 N   0  0  0  0  0  0  0  0  0  0  0  0
   58.8850   32.9390   46.3610 C   0  0  0  0  0  0  0  0  0  0  0  0
   58.6510   32.8900   44.9840 C   0  0  0  0  0  0  0  0  0  0  0  0
   58.1570   31.6890   44.4450 C   0  0  0  0  0  0  0  0  0  0  0  0
   57.9030   30.5770   45.2780 C   0  0  0  0  0  0  0  0  0  0  0  0
   58.1370   30.6540   46.6630 C   0  0  0  0  0  0  0  0  0  0  0  0
   58.6320   31.8580   47.1740 C   0  0  0  0  0  0  0  0  0  0  0  0
   58.9090   32.2060   48.4500 N   0  0  0  0  0  0  0  0  0  0  0  0
   58.8020   31.5210   49.6240 C   0  0  0  0  0  0  0  0  0  0  0  0
   58.4000   30.3260   49.6440 O   0  0  0  0  0  0  0  0  0  0  0  0
   59.1480   32.1830   50.8240 C   0  0  0  0  0  0  0  0  0  0  0  0
   59.0120   31.4980   52.1600 C   0  0  0  0  0  0  0  0  0  0  0  0
   59.8220   30.1890   52.1770 C   0  0  0  0  0  0  0  0  0  0  0  0
   61.1060   30.3320   52.9140 N   0  0  0  0  0  0  0  0  0  0  0  0
   62.1760   29.5140   52.2970 C   0  0  0  0  0  0  0  0  0  0  0  0
   62.4930   29.9820   50.8690 C   0  0  0  0  0  0  0  0  0  0  0  0
   62.4870   31.4460   50.7900 N   0  0  0  0  0  0  0  0  0  0  0  0
   62.7100   32.0810   49.5200 C   0  0  0  0  0  0  0  0  0  0  0  0
   63.5010   33.2400   49.4400 C   0  0  0  0  0  0  0  0  0  0  0  0
   63.7230   33.8600   48.2070 C   0  0  0  0  0  0  0  0  0  0  0  0
   63.1540   33.3310   47.0450 C   0  0  0  0  0  0  0  0  0  0  0  0
   63.3690   33.9340   45.8510 F   0  0  0  0  0  0  0  0  0  0  0  0
   62.3600   32.1840   47.1170 C   0  0  0  0  0  0  0  0  0  0  0  0
   62.1350   31.5580   48.3480 C   0  0  0  0  0  0  0  0  0  0  0  0
   61.3310   30.4670   48.4000 F   0  0  0  0  0  0  0  0  0  0  0  0
   62.5650   32.2320   52.0230 C   0  0  0  0  0  0  0  0  0  0  0  0
   61.5140   31.7620   53.0540 C   0  0  0  0  0  0  0  0  0  0  0  0
   59.5610   33.5320   50.7630 C   0  0  0  0  0  0  0  0  0  0  0  0
   59.6550   34.2000   49.5360 C   0  0  0  0  0  0  0  0  0  0  0  0
   59.3240   33.4930   48.3780 C   0  0  0  0  0  0  0  0  0  0  0  0
   59.7918   35.9799   47.5389 H   0  0  0  0  0  0  0  0  0  0  0  0
   60.5644   35.3222   46.0566 H   0  0  0  0  0  0  0  0  0  0  0  0
   58.8119   35.7165   46.0566 H   0  0  0  0  0  0  0  0  0  0  0  0
   58.8468   33.7622   44.3430 H   0  0  0  0  0  0  0  0  0  0  0  0
   57.9665   31.6147   43.3642 H   0  0  0  0  0  0  0  0  0  0  0  0
   57.5193   29.6436   44.8404 H   0  0  0  0  0  0  0  0  0  0  0  0
   57.9374   29.7961   47.3219 H   0  0  0  0  0  0  0  0  0  0  0  0
   59.3863   32.1661   52.9496 H   0  0  0  0  0  0  0  0  0  0  0  0
   57.9515   31.2636   52.3344 H   0  0  0  0  0  0  0  0  0  0  0  0
   59.2203   29.4064   52.6623 H   0  0  0  0  0  0  0  0  0  0  0  0
   60.0581   29.9246   51.1357 H   0  0  0  0  0  0  0  0  0  0  0  0
   60.9690   29.9450   53.8780 H   0  0  0  0  0  0  0  0  0  0  0  0
   63.0859   29.5956   52.9097 H   0  0  0  0  0  0  0  0  0  0  0  0
   61.8275   28.4718   52.2481 H   0  0  0  0  0  0  0  0  0  0  0  0
   63.4863   29.6088   50.5789 H   0  0  0  0  0  0  0  0  0  0  0  0
   61.7235   29.5880   50.1888 H   0  0  0  0  0  0  0  0  0  0  0  0
   63.9478   33.6615   50.3526 H   0  0  0  0  0  0  0  0  0  0  0  0
   64.3459   34.7649   48.1511 H   0  0  0  0  0  0  0  0  0  0  0  0
   61.9098   31.7712   46.2022 H   0  0  0  0  0  0  0  0  0  0  0  0
   63.5692   32.1188   52.4575 H   0  0  0  0  0  0  0  0  0  0  0  0
   62.3646   33.2853   51.7774 H   0  0  0  0  0  0  0  0  0  0  0  0
   61.9337   31.9026   54.0610 H   0  0  0  0  0  0  0  0  0  0  0  0
   60.6106   32.3641   52.8768 H   0  0  0  0  0  0  0  0  0  0  0  0
   59.8122   34.0652   51.6918 H   0  0  0  0  0  0  0  0  0  0  0  0
   59.9797   35.2498   49.4857 H   0  0  0  0  0  0  0  0  0  0  0  0
  1  2  1  0
  2  3  1  0
  3  4  2  0
  4  5  1  0
  5  6  2  0
  6  7  1  0
  7  8  2  0
  8  9  1  0
  9 10  1  0
 10 11  2  0
 10 12  1  0
 12 13  1  0
 13 14  1  0
 14 15  1  0
 15 16  1  0
 16 17  1  0
 17 18  1  0
 18 19  1  0
 19 20  2  0
 20 21  1  0
 21 22  2  0
 22 23  1  0
 22 24  1  0
 24 25  2  0
 25 26  1  0
 18 27  1  0
 27 28  1  0
 12 29  2  0
 29 30  1  0
 30 31  2  0
 31  2  1  0
  8  3  1  0
 31  9  1  0
 28 15  1  0
 25 19  1  0
  1 32  1  0
  1 33  1  0
  1 34  1  0
  4 35  1  0
  5 36  1  0
  6 37  1  0
  7 38  1  0
 13 39  1  0
 13 40  1  0
 14 41  1  0
 14 42  1  0
 15 43  1  0
 16 44  1  0
 16 45  1  0
 17 46  1  0
 17 47  1  0
 20 48  1  0
 21 49  1  0
 24 50  1  0
 27 51  1  0
 27 52  1  0
 28 53  1  0
 28 54  1  0
 29 55  1  0
 30 56  1  0
M  CHG  1  15   1
M  END
>  <UniqueID>  (44) 
37

>  <SMILES>  (44) 
Cn1c2ccccc2n2c(=O)c(CC[NH+]3CCN(c4ccc(F)cc4F)CC3)ccc12

>  <Energy>  (44) 
121.60797839978918

>  <Genealogy>  (44) 
Cn1c2ccccc2n2c(=O)c(CC[NH+]3CCN(c4ccc(F)cc4F)CC3)ccc12 (protonated)
Cn1c2ccccc2n2c(=O)c(CC[NH+]3CCN(c4ccc(F)cc4F)CC3)ccc12 (3D coordinates assigned)
Cn1c2ccccc2n2c(=O)c(CC[NH+]3CCN(c4ccc(F)cc4F)CC3)ccc12 (nonaromatic ring conformer: 121.60797839978918 kcal/mol)

>  <smiles>  (44) 
Cn1c2ccccc2n2c(=O)c(CCN3CCN(c4ccc(F)cc4F)CC3)ccc12

>  <score_type>  (44) 
oracle

>  <origin>  (44) 
adg

>  <m_score__min__energy>  (44) 
-7.8700000000000001

>  <m_primary>  (44) 
energy

$$$$
44:0
     RDKit          3D

 51 54  0  0  0  0  0  0  0  0999 V2000
   58.1320   27.0890   43.1840 C   0  0  0  0  0  0  0  0  0  0  0  0
   58.3700   28.2270   44.1350 C   0  0  0  0  0  0  0  0  0  0  0  0
   59.0670   28.0140   45.3260 C   0  0  0  0  0  0  0  0  0  0  0  0
   59.2710   29.0560   46.2480 C   0  0  0  0  0  0  0  0  0  0  0  0
   60.0450   28.7280   47.5020 C   0  0  0  0  0  0  0  0  0  0  0  0
   58.7430   30.3580   45.9680 C   0  0  0  0  0  0  0  0  0  0  0  0
   58.8910   31.4780   46.8340 C   0  0  0  0  0  0  0  0  0  0  0  0
   59.5270   31.3570   47.9170 O   0  0  0  0  0  0  0  0  0  0  0  0
   58.3440   32.7030   46.5150 N   0  0  0  0  0  0  0  0  0  0  0  0
   58.4840   33.8070   47.4920 C   0  0  0  0  0  0  0  0  0  0  0  0
   59.7290   34.6050   47.2110 C   0  0  0  0  0  0  0  0  0  0  0  0
   59.6350   35.7570   46.7090 O   0  0  0  0  0  0  0  0  0  0  0  0
   61.0260   34.0590   47.4890 N   0  0  0  0  0  0  0  0  0  0  0  0
   61.9120   33.8140   46.3420 C   0  0  0  0  0  0  0  0  0  0  0  0
   63.3710   33.6990   46.7810 C   0  0  0  0  0  0  0  0  0  0  0  0
   63.5140   32.6310   47.8640 C   0  0  0  0  0  0  0  0  0  0  0  0
   62.6000   32.9180   49.0240 C   0  0  0  0  0  0  0  0  0  0  0  0
   62.9300   32.4440   50.3040 C   0  0  0  0  0  0  0  0  0  0  0  0
   62.0760   32.6740   51.3830 C   0  0  0  0  0  0  0  0  0  0  0  0
   60.8820   33.3710   51.1940 C   0  0  0  0  0  0  0  0  0  0  0  0
   60.5330   33.8330   49.9230 C   0  0  0  0  0  0  0  0  0  0  0  0
   61.3770   33.5990   48.8170 C   0  0  0  0  0  0  0  0  0  0  0  0
   57.6470   32.8730   45.3360 C   0  0  0  0  0  0  0  0  0  0  0  0
   57.0500   34.2010   44.9350 C   0  0  0  0  0  0  0  0  0  0  0  0
   57.4880   31.7980   44.4590 C   0  0  0  0  0  0  0  0  0  0  0  0
   58.0230   30.5480   44.7640 C   0  0  0  0  0  0  0  0  0  0  0  0
   57.8360   29.4880   43.8670 C   0  0  0  0  0  0  0  0  0  0  0  0
   57.9395   26.1685   43.7546 H   0  0  0  0  0  0  0  0  0  0  0  0
   57.2620   27.3164   42.5505 H   0  0  0  0  0  0  0  0  0  0  0  0
   59.0202   26.9487   42.5505 H   0  0  0  0  0  0  0  0  0  0  0  0
   59.4640   27.0123   45.5472 H   0  0  0  0  0  0  0  0  0  0  0  0
   59.4398   28.9845   48.3840 H   0  0  0  0  0  0  0  0  0  0  0  0
   60.2791   27.6533   47.5178 H   0  0  0  0  0  0  0  0  0  0  0  0
   60.9800   29.3072   47.5178 H   0  0  0  0  0  0  0  0  0  0  0  0
   57.6070   34.4672   47.4204 H   0  0  0  0  0  0  0  0  0  0  0  0
   58.5557   33.3801   48.5033 H   0  0  0  0  0  0  0  0  0  0  0  0
   61.6109   32.8771   45.8506 H   0  0  0  0  0  0  0  0  0  0  0  0
   61.8244   34.6633   45.6485 H   0  0  0  0  0  0  0  0  0  0  0  0
   63.9903   33.4232   45.9148 H   0  0  0  0  0  0  0  0  0  0  0  0
   63.7011   34.6670   47.1860 H   0  0  0  0  0  0  0  0  0  0  0  0
   63.2583   31.6495   47.4381 H   0  0  0  0  0  0  0  0  0  0  0  0
   64.5528   32.6337   48.2257 H   0  0  0  0  0  0  0  0  0  0  0  0
   63.8670   31.8883   50.4568 H   0  0  0  0  0  0  0  0  0  0  0  0
   62.3443   32.3054   52.3841 H   0  0  0  0  0  0  0  0  0  0  0  0
   60.2141   33.5570   52.0480 H   0  0  0  0  0  0  0  0  0  0  0  0
   59.5915   34.3843   49.7831 H   0  0  0  0  0  0  0  0  0  0  0  0
   56.7921   34.7746   45.8375 H   0  0  0  0  0  0  0  0  0  0  0  0
   57.7807   34.7661   44.3377 H   0  0  0  0  0  0  0  0  0  0  0  0
   56.1423   34.0296   44.3377 H   0  0  0  0  0  0  0  0  0  0  0  0
   56.9352   31.9393   43.5185 H   0  0  0  0  0  0  0  0  0  0  0  0
   57.2627   29.6515   42.9426 H   0  0  0  0  0  0  0  0  0  0  0  0
  1  2  1  0
  2  3  2  0
  3  4  1  0
  4  5  1  0
  4  6  2  0
  6  7  1  0
  7  8  2  0
  7  9  1  0
  9 10  1  0
 10 11  1  0
 11 12  2  0
 11 13  1  0
 13 14  1  0
 14 15  1  0
 15 16  1  0
 16 17  1  0
 17 18  2  0
 18 19  1  0
 19 20  2  0
 20 21  1  0
 21 22  2  0
  9 23  1  0
 23 24  1  0
 23 25  2  0
 25 26  1  0
 26 27  2  0
 27  2  1  0
 26  6  1  0
 22 13  1  0
 22 17  1  0
  1 28  1  0
  1 29  1  0
  1 30  1  0
  3 31  1  0
  5 32  1  0
  5 33  1  0
  5 34  1  0
 10 35  1  0
 10 36  1  0
 14 37  1  0
 14 38  1  0
 15 39  1  0
 15 40  1  0
 16 41  1  0
 16 42  1  0
 18 43  1  0
 19 44  1  0
 20 45  1  0
 21 46  1  0
 24 47  1  0
 24 48  1  0
 24 49  1  0
 25 50  1  0
 27 51  1  0
M  END
>  <UniqueID>  (45) 
38

>  <SMILES>  (45) 
Cc1cc(C)c2c(=O)n(CC(=O)N3CCCc4ccccc43)c(C)cc2c1

>  <Energy>  (45) 
72.72357375592264

>  <Genealogy>  (45) 
Cc1cc(C)c2c(=O)n(CC(=O)N3CCCc4ccccc43)c(C)cc2c1 (3D coordinates assigned)
Cc1cc(C)c2c(=O)n(CC(=O)N3CCCc4ccccc43)c(C)cc2c1 (nonaromatic ring conformer: 72.72357375592264 kcal/mol)

>  <smiles>  (45) 
Cc1cc(C)c2c(=O)n(CC(=O)N3CCCc4ccccc43)c(C)cc2c1

>  <score_type>  (45) 
oracle

>  <origin>  (45) 
adg

>  <m_score__min__energy>  (45) 
-8.8599999999999994

>  <m_primary>  (45) 
energy

$$$$
45:0
     RDKit          3D

 56 58  0  0  1  0  0  0  0  0999 V2000
   58.1250   33.7210   46.2190 C   0  0  0  0  0  0  0  0  0  0  0  0
   59.3480   33.5360   46.9240 N   0  0  0  0  0  0  0  0  0  0  0  0
   60.1960   32.4850   46.4570 C   0  0  0  0  0  0  0  0  0  0  0  0
   60.6790   31.5980   47.5920 C   0  0  0  0  0  0  0  0  0  0  0  0
   59.5340   31.2980   48.3910 N   0  0  0  0  0  0  0  0  0  0  0  0
   59.7020   30.1470   49.2430 C   0  0  0  0  0  0  0  0  0  0  0  0
   60.7190   29.2030   48.7010 C   0  0  0  0  0  0  0  0  0  0  0  0
   60.1760   27.9050   48.3730 N   0  0  0  0  0  0  0  0  0  0  0  0
   59.2470   27.6820   47.5330 C   0  0  0  0  0  0  0  0  0  0  0  0
   58.9450   28.6070   46.5520 C   0  0  0  0  0  0  0  0  0  0  0  0
   57.9340   28.3900   45.6160 C   0  0  0  0  0  0  0  0  0  0  0  0
   57.6210   29.3540   44.5910 C   0  0  0  0  0  0  0  0  0  0  0  0
   56.6480   29.1510   43.6210 C   0  0  0  0  0  0  0  0  0  0  0  0
   56.3600   30.0900   42.6470 C   0  0  0  0  0  0  0  0  0  0  0  0
   57.0300   31.2860   42.5900 C   0  0  0  0  0  0  0  0  0  0  0  0
   58.0010   31.5120   43.5410 C   0  0  0  0  0  0  0  0  0  0  0  0
   58.2910   30.5620   44.5250 C   0  0  0  0  0  0  0  0  0  0  0  0
   57.2830   27.2040   45.7530 N   0  0  0  0  0  0  0  0  0  0  0  0
   57.5990   26.3180   46.7190 C   0  0  0  0  0  0  0  0  0  0  0  0
   56.9460   25.2080   46.7990 N   0  0  0  0  0  0  0  0  0  0  0  0
   57.0680   24.1730   45.8080 C   0  0  0  0  0  0  0  0  0  0  0  0
   55.9320   24.2880   44.8180 C   0  0  0  0  0  0  0  0  0  0  0  0
   54.7140   24.8680   45.4470 C   0  0  0  0  0  0  0  0  0  0  0  0
   53.6690   24.1730   45.4990 O   0  0  0  0  0  0  0  0  0  0  0  0
   54.6770   26.1500   45.9840 O   0  0  0  0  0  0  0  0  0  0  0  0
   58.5700   26.5270   47.6200 N   0  0  0  0  0  0  0  0  0  0  0  0
   59.2040   32.4760   49.1630 C   0  0  0  0  0  0  0  0  0  0  0  0
   59.3090   33.7030   48.3320 C   0  0  0  0  0  0  0  0  0  0  0  0
   57.3023   33.8455   46.9385 H   0  0  0  0  0  0  0  0  0  0  0  0
   58.1982   34.6183   45.5869 H   0  0  0  0  0  0  0  0  0  0  0  0
   57.9296   32.8422   45.5869 H   0  0  0  0  0  0  0  0  0  0  0  0
   59.6355   31.8690   45.7384 H   0  0  0  0  0  0  0  0  0  0  0  0
   61.0774   32.9434   45.9848 H   0  0  0  0  0  0  0  0  0  0  0  0
   61.1149   30.6713   47.1904 H   0  0  0  0  0  0  0  0  0  0  0  0
   61.4562   32.1015   48.1857 H   0  0  0  0  0  0  0  0  0  0  0  0
   60.0245   30.4849   50.2389 H   0  0  0  0  0  0  0  0  0  0  0  0
   58.7390   29.6183   49.2983 H   0  0  0  0  0  0  0  0  0  0  0  0
   61.1514   29.6412   47.7894 H   0  0  0  0  0  0  0  0  0  0  0  0
   61.4742   29.0514   49.4863 H   0  0  0  0  0  0  0  0  0  0  0  0
   59.5199   29.5438   46.5078 H   0  0  0  0  0  0  0  0  0  0  0  0
   56.0843   28.2065   43.6275 H   0  0  0  0  0  0  0  0  0  0  0  0
   55.5786   29.8737   41.9036 H   0  0  0  0  0  0  0  0  0  0  0  0
   56.8012   32.0340   41.8165 H   0  0  0  0  0  0  0  0  0  0  0  0
   58.5596   32.4595   43.5258 H   0  0  0  0  0  0  0  0  0  0  0  0
   59.0732   30.7814   45.2667 H   0  0  0  0  0  0  0  0  0  0  0  0
   56.5230   26.9460   45.1140 H   0  0  0  0  0  0  0  0  0  0  0  0
   58.0269   24.2818   45.2802 H   0  0  0  0  0  0  0  0  0  0  0  0
   57.0293   23.1891   46.2983 H   0  0  0  0  0  0  0  0  0  0  0  0
   56.2472   24.9355   43.9865 H   0  0  0  0  0  0  0  0  0  0  0  0
   55.6858   23.2782   44.4579 H   0  0  0  0  0  0  0  0  0  0  0  0
   55.1360   26.3330   46.8480 H   0  0  0  0  0  0  0  0  0  0  0  0
   58.7730   25.8150   48.3460 H   0  0  0  0  0  0  0  0  0  0  0  0
   58.1744   32.3831   49.5390 H   0  0  0  0  0  0  0  0  0  0  0  0
   59.9136   32.5572   49.9996 H   0  0  0  0  0  0  0  0  0  0  0  0
   58.4395   34.3351   48.5654 H   0  0  0  0  0  0  0  0  0  0  0  0
   60.2865   34.1357   48.5913 H   0  0  0  0  0  0  0  0  0  0  0  0
  1  2  1  0
  2  3  1  0
  3  4  1  0
  4  5  1  0
  5  6  1  0
  6  7  1  0
  7  8  1  0
  8  9  2  0
  9 10  1  0
 10 11  2  0
 11 12  1  0
 12 13  2  0
 13 14  1  0
 14 15  2  0
 15 16  1  0
 16 17  2  0
 11 18  1  0
 18 19  1  0
 19 20  2  0
 20 21  1  0
 21 22  1  0
 22 23  1  0
 23 24  2  0
 23 25  1  0
 19 26  1  0
  5 27  1  0
 27 28  1  0
 28  2  1  0
 26  9  1  0
 17 12  1  0
  1 29  1  0
  1 30  1  0
  1 31  1  0
  3 32  1  0
  3 33  1  0
  4 34  1  0
  4 35  1  0
  6 36  1  0
  6 37  1  0
  7 38  1  0
  7 39  1  0
 10 40  1  0
 13 41  1  0
 14 42  1  0
 15 43  1  0
 16 44  1  0
 17 45  1  0
 18 46  1  0
 21 47  1  0
 21 48  1  0
 22 49  1  0
 22 50  1  0
 25 51  1  0
 26 52  1  0
 27 53  1  0
 27 54  1  0
 28 55  1  0
 28 56  1  0
M  END
>  <smiles>  (46) 
CN1CCN(CCN=c2cc(-c3ccccc3)[nH]c(=NCCC(=O)O)[nH]2)CC1

>  <score_type>  (46) 
oracle

>  <origin>  (46) 
adg

>  <m_score__min__energy>  (46) 
-9.4000000000000004

>  <m_primary>  (46) 
energy

$$$$
46:0
     RDKit          3D

 42 43  0  0  0  0  0  0  0  0999 V2000
   58.9480   29.8930   47.9520 C   0  0  0  0  0  0  0  0  0  0  0  0
   58.5210   30.6500   46.7260 C   0  0  0  0  0  0  0  0  0  0  0  0
   58.8710   32.0040   46.5860 C   0  0  0  0  0  0  0  0  0  0  0  0
   58.4600   32.7270   45.4610 C   0  0  0  0  0  0  0  0  0  0  0  0
   58.9510   34.5640   45.2760 Br  0  0  0  0  0  0  0  0  0  0  0  0
   57.6920   32.1070   44.4730 C   0  0  0  0  0  0  0  0  0  0  0  0
   57.3220   30.7650   44.6070 C   0  0  0  0  0  0  0  0  0  0  0  0
   56.2780   29.9430   43.2290 Br  0  0  0  0  0  0  0  0  0  0  0  0
   57.7230   30.0360   45.7400 C   0  0  0  0  0  0  0  0  0  0  0  0
   57.3400   28.6990   45.8770 O   0  0  0  0  0  0  0  0  0  0  0  0
   58.0970   27.6480   45.2910 C   0  0  0  0  0  0  0  0  0  0  0  0
   57.7420   26.3610   45.9540 C   0  0  0  0  0  0  0  0  0  0  0  0
   58.6320   25.7020   46.5560 O   0  0  0  0  0  0  0  0  0  0  0  0
   56.3820   25.9150   45.9520 N   0  0  0  0  0  0  0  0  0  0  0  0
   55.9160   24.7410   46.6820 C   0  0  0  0  0  0  0  0  0  0  0  0
   56.0840   23.4730   45.8240 C   0  0  0  0  0  0  0  0  0  0  0  0
   57.1390   23.6160   44.7830 N   0  0  0  0  0  0  0  0  0  0  0  0
   56.5480   23.8990   43.4480 C   0  0  0  0  0  0  0  0  0  0  0  0
   56.2810   22.6170   42.6290 C   0  0  0  0  0  0  0  0  0  0  0  0
   56.1040   21.5040   43.4770 O   0  0  0  0  0  0  0  0  0  0  0  0
   57.3190   21.1970   44.1390 C   0  0  0  0  0  0  0  0  0  0  0  0
   58.0420   22.4470   44.6990 C   0  0  0  0  0  0  0  0  0  0  0  0
   58.6365   30.4452   48.8509 H   0  0  0  0  0  0  0  0  0  0  0  0
   58.4777   28.8986   47.9512 H   0  0  0  0  0  0  0  0  0  0  0  0
   60.0423   29.7811   47.9512 H   0  0  0  0  0  0  0  0  0  0  0  0
   59.4710   32.4976   47.3647 H   0  0  0  0  0  0  0  0  0  0  0  0
   57.3769   32.6763   43.5861 H   0  0  0  0  0  0  0  0  0  0  0  0
   57.8682   27.5841   44.2170 H   0  0  0  0  0  0  0  0  0  0  0  0
   59.1707   27.8479   45.4220 H   0  0  0  0  0  0  0  0  0  0  0  0
   56.5020   24.6331   47.6067 H   0  0  0  0  0  0  0  0  0  0  0  0
   54.8504   24.8703   46.9224 H   0  0  0  0  0  0  0  0  0  0  0  0
   56.3529   22.6351   46.4841 H   0  0  0  0  0  0  0  0  0  0  0  0
   55.1300   23.2948   45.3062 H   0  0  0  0  0  0  0  0  0  0  0  0
   57.7220   24.4470   45.0430 H   0  0  0  0  0  0  0  0  0  0  0  0
   55.5953   24.4300   43.5906 H   0  0  0  0  0  0  0  0  0  0  0  0
   57.2730   24.5064   42.8863 H   0  0  0  0  0  0  0  0  0  0  0  0
   55.3719   22.7581   42.0259 H   0  0  0  0  0  0  0  0  0  0  0  0
   57.1486   22.4287   41.9795 H   0  0  0  0  0  0  0  0  0  0  0  0
   57.0993   20.5165   44.9749 H   0  0  0  0  0  0  0  0  0  0  0  0
   57.9884   20.7376   43.3968 H   0  0  0  0  0  0  0  0  0  0  0  0
   58.4208   22.2173   45.7059 H   0  0  0  0  0  0  0  0  0  0  0  0
   58.8644   22.7004   44.0138 H   0  0  0  0  0  0  0  0  0  0  0  0
  1  2  1  0
  2  3  2  0
  3  4  1  0
  4  5  1  0
  4  6  2  0
  6  7  1  0
  7  8  1  0
  7  9  2  0
  9 10  1  0
 10 11  1  0
 11 12  1  0
 12 13  2  0
 12 14  1  0
 14 15  1  0
 15 16  1  0
 16 17  1  0
 17 18  1  0
 18 19  1  0
 19 20  1  0
 20 21  1  0
 21 22  1  0
  9  2  1  0
 22 17  1  0
  1 23  1  0
  1 24  1  0
  1 25  1  0
  3 26  1  0
  6 27  1  0
 11 28  1  0
 11 29  1  0
 15 30  1  0
 15 31  1  0
 16 32  1  0
 16 33  1  0
 17 34  1  0
 18 35  1  0
 18 36  1  0
 19 37  1  0
 19 38  1  0
 21 39  1  0
 21 40  1  0
 22 41  1  0
 22 42  1  0
M  CHG  2  14  -1  17   1
M  END
>  <UniqueID>  (47) 
39

>  <SMILES>  (47) 
Cc1cc(Br)cc(Br)c1OCC(=O)[N-]CC[NH+]1CCOCC1

>  <Energy>  (47) 
56.09969149702986

>  <Genealogy>  (47) 
Cc1cc(Br)cc(Br)c1OCC(=O)[N-]CC[NH+]1CCOCC1 (protonated)
Cc1cc(Br)cc(Br)c1OCC(=O)[N-]CC[NH+]1CCOCC1 (3D coordinates assigned)
Cc1cc(Br)cc(Br)c1OCC(=O)[N-]CC[NH+]1CCOCC1 (nonaromatic ring conformer: 56.09969149702986 kcal/mol)

>  <smiles>  (47) 
Cc1cc(Br)cc(Br)c1OCC(=O)NCCN1CCOCC1

>  <score_type>  (47) 
oracle

>  <origin>  (47) 
adg

>  <m_score__min__energy>  (47) 
-7.4100000000000001

>  <m_primary>  (47) 
energy

$$$$
47:0
     RDKit          3D

 76 79  0  0  0  0  0  0  0  0999 V2000
   54.2057   30.1075   44.0354 H   0  0  0  0  0  0  0  0  0  0  0  0
   55.2420   29.8910   44.3340 C   0  0  0  0  0  0  0  0  0  0  0  0
   55.5440   28.7010   44.9130 N   0  0  0  0  0  0  0  0  0  0  0  0
   56.8130   28.3910   45.2930 C   0  0  0  0  0  0  0  0  0  0  0  0
   57.0730   27.1520   45.8890 C   0  0  0  0  0  0  0  0  0  0  0  0
   56.2530   26.4357   46.0455 H   0  0  0  0  0  0  0  0  0  0  0  0
   58.3720   26.8220   46.2860 C   0  0  0  0  0  0  0  0  0  0  0  0
   58.5707   25.8478   46.7567 H   0  0  0  0  0  0  0  0  0  0  0  0
   59.4180   27.7250   46.0870 C   0  0  0  0  0  0  0  0  0  0  0  0
   60.4390   27.4577   46.3971 H   0  0  0  0  0  0  0  0  0  0  0  0
   59.1730   28.9680   45.4950 C   0  0  0  0  0  0  0  0  0  0  0  0
   60.0017   29.6751   45.3427 H   0  0  0  0  0  0  0  0  0  0  0  0
   57.8660   29.3190   45.0920 C   0  0  0  0  0  0  0  0  0  0  0  0
   57.5740   30.5700   44.5010 C   0  0  0  0  0  0  0  0  0  0  0  0
   58.5320   31.4480   44.3390 N   0  0  0  0  0  0  0  0  0  0  0  0
   58.5090   32.8660   44.7040 C   0  0  0  0  0  0  0  0  0  0  0  0
   57.5012   33.2690   44.5250 H   0  0  0  0  0  0  0  0  0  0  0  0
   59.2480   33.4019   44.0903 H   0  0  0  0  0  0  0  0  0  0  0  0
   58.8710   33.0500   46.1900 C   0  0  0  0  0  0  0  0  0  0  0  0
   58.6201   34.0793   46.4859 H   0  0  0  0  0  0  0  0  0  0  0  0
   59.9460   32.8406   46.2925 H   0  0  0  0  0  0  0  0  0  0  0  0
   58.1200   32.0710   47.1280 C   0  0  0  0  0  0  0  0  0  0  0  0
   57.2932   31.6182   46.5611 H   0  0  0  0  0  0  0  0  0  0  0  0
   57.7774   32.6636   47.9891 H   0  0  0  0  0  0  0  0  0  0  0  0
   58.9570   30.9810   47.6740 N   0  0  0  0  0  0  0  0  0  0  0  0
   58.5150   30.4590   48.9910 C   0  0  0  0  0  0  0  0  0  0  0  0
   58.2069   29.4104   48.8664 H   0  0  0  0  0  0  0  0  0  0  0  0
   57.6851   31.0944   49.3337 H   0  0  0  0  0  0  0  0  0  0  0  0
   59.6180   30.5220   50.0690 C   0  0  0  0  0  0  0  0  0  0  0  0
   59.2750   29.9699   50.9564 H   0  0  0  0  0  0  0  0  0  0  0  0
   59.8011   31.5826   50.2962 H   0  0  0  0  0  0  0  0  0  0  0  0
   60.8990   29.9340   49.6100 N   0  0  0  0  0  0  0  0  0  0  0  0
   61.2200   28.6070   50.1780 C   0  0  0  0  0  0  0  0  0  0  0  0
   62.2831   28.3974   49.9885 H   0  0  0  0  0  0  0  0  0  0  0  0
   60.5523   27.8816   49.6902 H   0  0  0  0  0  0  0  0  0  0  0  0
   60.9660   28.4970   51.7000 C   0  0  0  0  0  0  0  0  0  0  0  0
   61.4337   27.5737   52.0726 H   0  0  0  0  0  0  0  0  0  0  0  0
   59.8783   28.4852   51.8636 H   0  0  0  0  0  0  0  0  0  0  0  0
   61.5490   29.6930   52.4670 C   0  0  0  0  0  0  0  0  0  0  0  0
   61.7996   29.3697   53.4881 H   0  0  0  0  0  0  0  0  0  0  0  0
   60.7913   30.4904   52.4716 H   0  0  0  0  0  0  0  0  0  0  0  0
   62.8190   30.2550   51.8000 C   0  0  0  0  0  0  0  0  0  0  0  0
   63.2009   29.5110   51.0854 H   0  0  0  0  0  0  0  0  0  0  0  0
   63.5496   30.4641   52.5953 H   0  0  0  0  0  0  0  0  0  0  0  0
   62.5670   31.5180   51.0790 N   0  0  0  0  0  0  0  0  0  0  0  0
   62.4580   32.2880   51.7800 H   0  0  0  0  0  0  0  0  0  0  0  0
   61.6590   31.4450   50.5620 H   0  0  0  0  0  0  0  0  0  0  0  0
   63.6290   31.8900   50.1230 C   0  0  0  0  0  0  0  0  0  0  0  0
   64.0998   30.9713   49.7431 H   0  0  0  0  0  0  0  0  0  0  0  0
   64.3531   32.5235   50.6562 H   0  0  0  0  0  0  0  0  0  0  0  0
   63.0970   32.6850   48.9490 C   0  0  0  0  0  0  0  0  0  0  0  0
   63.7620   32.6280   47.7110 C   0  0  0  0  0  0  0  0  0  0  0  0
   64.6593   32.0012   47.6019 H   0  0  0  0  0  0  0  0  0  0  0  0
   63.2920   33.3610   46.6190 C   0  0  0  0  0  0  0  0  0  0  0  0
   63.8195   33.3104   45.6551 H   0  0  0  0  0  0  0  0  0  0  0  0
   62.1530   34.1580   46.7500 C   0  0  0  0  0  0  0  0  0  0  0  0
   61.7822   34.7318   45.8878 H   0  0  0  0  0  0  0  0  0  0  0  0
   61.4830   34.2280   47.9750 C   0  0  0  0  0  0  0  0  0  0  0  0
   60.5836   34.8540   48.0709 H   0  0  0  0  0  0  0  0  0  0  0  0
   61.9530   33.5010   49.0890 C   0  0  0  0  0  0  0  0  0  0  0  0
   61.3100   33.5610   50.3370 O   0  0  0  0  0  0  0  0  0  0  0  0
   59.9270   33.8500   50.5270 C   0  0  0  0  0  0  0  0  0  0  0  0
   59.3278   33.2638   49.8147 H   0  0  0  0  0  0  0  0  0  0  0  0
   59.7478   34.9221   50.3581 H   0  0  0  0  0  0  0  0  0  0  0  0
   59.5280   33.4840   51.9490 C   0  0  0  0  0  0  0  0  0  0  0  0
   60.1461   34.0510   52.6607 H   0  0  0  0  0  0  0  0  0  0  0  0
   58.4676   33.7301   52.1072 H   0  0  0  0  0  0  0  0  0  0  0  0
   59.6819   32.4064   52.1072 H   0  0  0  0  0  0  0  0  0  0  0  0
   61.1700   30.0420   48.1580 C   0  0  0  0  0  0  0  0  0  0  0  0
   60.8561   29.1111   47.6631 H   0  0  0  0  0  0  0  0  0  0  0  0
   62.2474   30.2103   48.0138 H   0  0  0  0  0  0  0  0  0  0  0  0
   60.4070   31.2160   47.5450 C   0  0  0  0  0  0  0  0  0  0  0  0
   60.6702   31.3088   46.4810 H   0  0  0  0  0  0  0  0  0  0  0  0
   60.6764   32.1434   48.0716 H   0  0  0  0  0  0  0  0  0  0  0  0
   56.2410   30.8410   44.1160 C   0  0  0  0  0  0  0  0  0  0  0  0
   55.9907   31.8024   43.6437 H   0  0  0  0  0  0  0  0  0  0  0  0
  1  2  1  0
  2  3  1  0
  3  4  1  0
  4  5  2  0
  5  6  1  0
  5  7  1  0
  7  8  1  0
  7  9  2  0
  9 10  1  0
  9 11  1  0
 11 12  1  0
 11 13  2  0
 13 14  1  0
 14 15  2  0
 15 16  1  0
 16 17  1  0
 16 18  1  0
 16 19  1  0
 19 20  1  0
 19 21  1  0
 19 22  1  0
 22 23  1  0
 22 24  1  0
 22 25  1  0
 25 26  1  0
 26 27  1  0
 26 28  1  0
 26 29  1  0
 29 30  1  0
 29 31  1  0
 29 32  1  0
 32 33  1  0
 33 34  1  0
 33 35  1  0
 33 36  1  0
 36 37  1  0
 36 38  1  0
 36 39  1  0
 39 40  1  0
 39 41  1  0
 39 42  1  0
 42 43  1  0
 42 44  1  0
 42 45  1  0
 45 46  1  0
 45 47  1  0
 45 48  1  0
 48 49  1  0
 48 50  1  0
 48 51  1  0
 51 52  2  0
 52 53  1  0
 52 54  1  0
 54 55  1  0
 54 56  2  0
 56 57  1  0
 56 58  1  0
 58 59  1  0
 58 60  2  0
 60 61  1  0
 61 62  1  0
 62 63  1  0
 62 64  1  0
 62 65  1  0
 65 66  1  0
 65 67  1  0
 65 68  1  0
 32 69  1  0
 69 70  1  0
 69 71  1  0
 69 72  1  0
 72 73  1  0
 72 74  1  0
 14 75  1  0
 75 76  1  0
 75  2  2  0
 13  4  1  0
 72 25  1  0
 60 51  1  0
M  CHG  2   3  -1  45   1
M  END
>  <UniqueID>  (48) 
40

>  <SMILES>  (48) 
CCOc1ccccc1C[NH2+]CCCCN1CCN(CCC/N=c2\cc[n-]c3ccccc23)CC1

>  <Energy>  (48) 
98.56429478644557

>  <Genealogy>  (48) 
CCOc1ccccc1C[NH2+]CCCCN1CCN(CCCN=c2cc[n-]c3ccccc23)CC1 (protonated)
CCOc1ccccc1C[NH2+]CCCCN1CCN(CCC/N=c2\cc[n-]c3ccccc23)CC1 (cis-trans isomerization)
CCOc1ccccc1C[NH2+]CCCCN1CCN(CCC/N=c2\cc[n-]c3ccccc23)CC1 (3D coordinates assigned)
CCOc1ccccc1C[NH2+]CCCCN1CCN(CCC/N=c2\cc[n-]c3ccccc23)CC1 (nonaromatic ring conformer: 98.56429478644557 kcal/mol)

>  <smiles>  (48) 
CCOc1ccccc1CNCCCCN1CCN(CCCN=c2cc[nH]c3ccccc23)CC1

>  <score_type>  (48) 
oracle

>  <origin>  (48) 
adg

>  <m_score__min__energy>  (48) 
-8.5800000000000001

>  <m_primary>  (48) 
energy

$$$$
48:0
     RDKit          3D

 43 46  0  0  0  0  0  0  0  0999 V2000
   55.8490   25.9210   45.9930 C   0  0  0  0  0  0  0  0  0  0  0  0
   55.8630   27.2940   45.6210 O   0  0  0  0  0  0  0  0  0  0  0  0
   57.0130   27.9980   45.2340 C   0  0  0  0  0  0  0  0  0  0  0  0
   58.0950   27.3770   44.5820 C   0  0  0  0  0  0  0  0  0  0  0  0
   59.2180   28.1240   44.2130 C   0  0  0  0  0  0  0  0  0  0  0  0
   59.2760   29.4900   44.4950 C   0  0  0  0  0  0  0  0  0  0  0  0
   58.2130   30.1160   45.1610 C   0  0  0  0  0  0  0  0  0  0  0  0
   58.2670   31.5630   45.4410 C   0  0  0  0  0  0  0  0  0  0  0  0
   57.3560   32.3880   44.7630 C   0  0  0  0  0  0  0  0  0  0  0  0
   57.4470   33.7740   44.8580 C   0  0  0  0  0  0  0  0  0  0  0  0
   58.4630   34.3590   45.6070 C   0  0  0  0  0  0  0  0  0  0  0  0
   59.3810   33.5650   46.3090 C   0  0  0  0  0  0  0  0  0  0  0  0
   59.2450   32.1470   46.2930 C   0  0  0  0  0  0  0  0  0  0  0  0
   60.2650   31.3370   47.0850 C   0  0  2  0  0  0  0  0  0  0  0  0
   59.8330   30.0090   47.7070 C   0  0  0  0  0  0  0  0  0  0  0  0
   60.7950   29.8290   48.8860 C   0  0  0  0  0  0  0  0  0  0  0  0
   61.5260   31.1680   49.0200 C   0  0  0  0  0  0  0  0  0  0  0  0
   60.7390   32.1160   48.2330 N   0  0  1  0  0  0  0  0  0  0  0  0
   61.4650   33.3070   47.7800 C   0  0  0  0  0  0  0  0  0  0  0  0
   60.4750   34.2700   47.0980 C   0  0  0  0  0  0  0  0  0  0  0  0
   57.0790   29.3700   45.5130 C   0  0  0  0  0  0  0  0  0  0  0  0
   55.8482   25.8383   47.0899 H   0  0  0  0  0  0  0  0  0  0  0  0
   54.9459   25.4407   45.5884 H   0  0  0  0  0  0  0  0  0  0  0  0
   56.7421   25.4224   45.5884 H   0  0  0  0  0  0  0  0  0  0  0  0
   58.0570   26.2999   44.3619 H   0  0  0  0  0  0  0  0  0  0  0  0
   60.0581   27.6339   43.6991 H   0  0  0  0  0  0  0  0  0  0  0  0
   60.1570   30.0760   44.1942 H   0  0  0  0  0  0  0  0  0  0  0  0
   56.5624   31.9350   44.1506 H   0  0  0  0  0  0  0  0  0  0  0  0
   56.7133   34.4085   44.3392 H   0  0  0  0  0  0  0  0  0  0  0  0
   58.5469   35.4550   45.6489 H   0  0  0  0  0  0  0  0  0  0  0  0
   61.0011   31.1097   46.2998 H   0  0  0  0  0  0  0  0  0  0  0  0
   58.7909   30.0599   48.0555 H   0  0  0  0  0  0  0  0  0  0  0  0
   59.8718   29.1722   46.9941 H   0  0  0  0  0  0  0  0  0  0  0  0
   60.2377   29.6006   49.8065 H   0  0  0  0  0  0  0  0  0  0  0  0
   61.4935   28.9954   48.7214 H   0  0  0  0  0  0  0  0  0  0  0  0
   61.5663   31.4815   50.0736 H   0  0  0  0  0  0  0  0  0  0  0  0
   62.5660   31.1052   48.6673 H   0  0  0  0  0  0  0  0  0  0  0  0
   59.9220   32.4160   48.8230 H   0  0  0  0  0  0  0  0  0  0  0  0
   61.9293   33.8062   48.6433 H   0  0  0  0  0  0  0  0  0  0  0  0
   62.2494   33.0145   47.0665 H   0  0  0  0  0  0  0  0  0  0  0  0
   60.0001   34.8874   47.8747 H   0  0  0  0  0  0  0  0  0  0  0  0
   61.0532   34.8703   46.3801 H   0  0  0  0  0  0  0  0  0  0  0  0
   56.2337   29.8660   46.0125 H   0  0  0  0  0  0  0  0  0  0  0  0
  1  2  1  0
  2  3  1  0
  3  4  2  0
  4  5  1  0
  5  6  2  0
  6  7  1  0
  7  8  1  0
  8  9  2  0
  9 10  1  0
 10 11  2  0
 11 12  1  0
 12 13  2  0
 13 14  1  0
 14 15  1  0
 15 16  1  0
 16 17  1  0
 17 18  1  0
 18 19  1  0
 19 20  1  0
  7 21  2  0
 21  3  1  0
 13  8  1  0
 18 14  1  0
 20 12  1  0
  1 22  1  0
  1 23  1  0
  1 24  1  0
  4 25  1  0
  5 26  1  0
  6 27  1  0
  9 28  1  0
 10 29  1  0
 11 30  1  0
 14 31  1  6
 15 32  1  0
 15 33  1  0
 16 34  1  0
 16 35  1  0
 17 36  1  0
 17 37  1  0
 18 38  1  1
 19 39  1  0
 19 40  1  0
 20 41  1  0
 20 42  1  0
 21 43  1  0
M  CHG  1  18   1
M  END
>  <UniqueID>  (49) 
41

>  <SMILES>  (49) 
COc1cccc(-c2cccc3c2[C@@H]2CCC[N@H+]2CC3)c1

>  <Energy>  (49) 
67.54182696601899

>  <Genealogy>  (49) 
COc1cccc(-c2cccc3c2C2CCC[NH+]2CC3)c1 (protonated)
COc1cccc(-c2cccc3c2[C@@H]2CCC[N@H+]2CC3)c1 (chirality)
COc1cccc(-c2cccc3c2[C@@H]2CCC[N@H+]2CC3)c1 (3D coordinates assigned)
COc1cccc(-c2cccc3c2[C@@H]2CCC[N@H+]2CC3)c1 (nonaromatic ring conformer: 67.54182696601899 kcal/mol)

>  <smiles>  (49) 
COc1cccc(-c2cccc3c2C2CCCN2CC3)c1

>  <score_type>  (49) 
oracle

>  <origin>  (49) 
adg

>  <m_score__min__energy>  (49) 
-6.2400000000000002

>  <m_primary>  (49) 
energy

$$$$
