0:0
     RDKit          3D

 30 31  0  0  0  0  0  0  0  0999 V2000
   57.8690   32.3410   42.1130 C   0  0  0  0  0  0  0  0  0  0  0  0
   57.8920   32.6360   43.5780 C   0  0  0  0  0  0  0  0  0  0  0  0
   58.2300   33.8060   44.0720 O   0  0  0  0  0  0  0  0  0  0  0  0
   58.1500   33.7520   45.3820 C   0  0  0  0  0  0  0  0  0  0  0  0
   57.7400   32.4940   45.7750 C   0  0  0  0  0  0  0  0  0  0  0  0
   57.5730   31.7660   44.6120 C   0  0  0  0  0  0  0  0  0  0  0  0
   57.1240   30.3610   44.5120 C   0  0  0  0  0  0  0  0  0  0  0  0
   55.9570   30.0520   44.8740 O   0  0  0  0  0  0  0  0  0  0  0  0
   57.9970   29.3550   43.9710 N   0  0  0  0  0  0  0  0  0  0  0  0
   57.7900   27.9420   44.1390 C   0  0  0  0  0  0  0  0  0  0  0  0
   57.4970   27.3870   45.3970 C   0  0  0  0  0  0  0  0  0  0  0  0
   57.3230   26.0070   45.5400 C   0  0  0  0  0  0  0  0  0  0  0  0
   57.4540   25.1560   44.4260 C   0  0  0  0  0  0  0  0  0  0  0  0
   57.2870   23.7650   44.5150 O   0  0  0  0  0  0  0  0  0  0  0  0
   56.2520   23.0290   43.8700 C   0  0  0  0  0  0  0  0  0  0  0  0
   55.1230   23.8210   43.7780 F   0  0  0  0  0  0  0  0  0  0  0  0
   56.6530   22.6700   42.5950 F   0  0  0  0  0  0  0  0  0  0  0  0
   57.7650   25.7080   43.1790 C   0  0  0  0  0  0  0  0  0  0  0  0
   57.9400   27.0880   43.0370 C   0  0  0  0  0  0  0  0  0  0  0  0
   57.7843   31.2551   41.9589 H   0  0  0  0  0  0  0  0  0  0  0  0
   57.0074   32.8452   41.6509 H   0  0  0  0  0  0  0  0  0  0  0  0
   58.7983   32.7056   41.6509 H   0  0  0  0  0  0  0  0  0  0  0  0
   58.3760   34.5850   46.0640 H   0  0  0  0  0  0  0  0  0  0  0  0
   57.5789   32.1422   46.8047 H   0  0  0  0  0  0  0  0  0  0  0  0
   58.7670   29.6600   43.3340 H   0  0  0  0  0  0  0  0  0  0  0  0
   57.4040   28.0430   46.2750 H   0  0  0  0  0  0  0  0  0  0  0  0
   57.0828   25.5845   46.5268 H   0  0  0  0  0  0  0  0  0  0  0  0
   56.0342   22.1226   44.4540 H   0  0  0  0  0  0  0  0  0  0  0  0
   57.8728   25.0513   42.3031 H   0  0  0  0  0  0  0  0  0  0  0  0
   58.1974   27.5070   42.0530 H   0  0  0  0  0  0  0  0  0  0  0  0
  1  2  1  0
  2  3  1  0
  3  4  1  0
  4  5  2  0
  5  6  1  0
  6  7  1  0
  7  8  2  0
  7  9  1  0
  9 10  1  0
 10 11  2  0
 11 12  1  0
 12 13  2  0
 13 14  1  0
 14 15  1  0
 15 16  1  0
 15 17  1  0
 13 18  1  0
 18 19  2  0
  6  2  2  0
 19 10  1  0
  1 20  1  0
  1 21  1  0
  1 22  1  0
  4 23  1  0
  5 24  1  0
  9 25  1  0
 11 26  1  0
 12 27  1  0
 15 28  1  0
 18 29  1  0
 19 30  1  0
M  END
>  <UniqueID>  (1) 
1

>  <SMILES>  (1) 
Cc1occc1C(=O)Nc1ccc(OC(F)F)cc1

>  <Energy>  (1) 
59.225833322589224

>  <Genealogy>  (1) 
Cc1occc1C(=O)Nc1ccc(OC(F)F)cc1 (3D coordinates assigned)
Cc1occc1C(=O)Nc1ccc(OC(F)F)cc1 (optimized conformer: 59.225833322589224 kcal/mol)

>  <smiles>  (1) 
Cc1occc1C(=O)Nc1ccc(OC(F)F)cc1

>  <score_type>  (1) 
oracle

>  <origin>  (1) 
adg

>  <m_score__min__energy>  (1) 
-5.8300000000000001

>  <m_primary>  (1) 
energy

$$$$
1:0
     RDKit          3D

 29 32  0  0  0  0  0  0  0  0999 V2000
   57.1220   28.2460   45.5390 S   0  0  0  0  0  0  0  0  0  0  0  0
   57.8120   29.7180   45.7120 C   0  0  0  0  0  0  0  0  0  0  0  0
   57.1700   30.8350   45.2670 N   0  0  0  0  0  0  0  0  0  0  0  0
   57.7150   32.0870   45.3810 C   0  0  0  0  0  0  0  0  0  0  0  0
   57.0200   33.1920   44.8760 C   0  0  0  0  0  0  0  0  0  0  0  0
   57.5900   34.4650   44.9320 C   0  0  0  0  0  0  0  0  0  0  0  0
   58.8650   34.6420   45.4770 C   0  0  0  0  0  0  0  0  0  0  0  0
   59.5730   33.5510   45.9910 C   0  0  0  0  0  0  0  0  0  0  0  0
   58.9960   32.2680   45.9820 C   0  0  0  0  0  0  0  0  0  0  0  0
   59.6180   31.1070   46.4840 C   0  0  0  0  0  0  0  0  0  0  0  0
   59.0530   29.8770   46.3190 C   0  0  0  0  0  0  0  0  0  0  0  0
   59.8660   28.9380   46.8390 N   0  0  0  0  0  0  0  0  0  0  0  0
   60.9080   29.5990   47.3320 N   0  0  0  0  0  0  0  0  0  0  0  0
   60.7850   30.9080   47.1360 N   0  0  0  0  0  0  0  0  0  0  0  0
   61.6770   31.8600   47.7230 C   0  0  0  0  0  0  0  0  0  0  0  0
   62.9210   32.1290   47.1280 C   0  0  0  0  0  0  0  0  0  0  0  0
   63.7720   33.0900   47.6830 C   0  0  0  0  0  0  0  0  0  0  0  0
   63.3790   33.7980   48.8220 C   0  0  0  0  0  0  0  0  0  0  0  0
   62.1310   33.5530   49.4020 C   0  0  0  0  0  0  0  0  0  0  0  0
   61.2770   32.5920   48.8500 C   0  0  0  0  0  0  0  0  0  0  0  0
   56.0219   33.0569   44.4338 H   0  0  0  0  0  0  0  0  0  0  0  0
   57.0339   35.3320   44.5459 H   0  0  0  0  0  0  0  0  0  0  0  0
   59.3143   35.6458   45.5017 H   0  0  0  0  0  0  0  0  0  0  0  0
   60.5826   33.6963   46.4029 H   0  0  0  0  0  0  0  0  0  0  0  0
   63.2263   31.5825   46.2235 H   0  0  0  0  0  0  0  0  0  0  0  0
   64.7512   33.2887   47.2228 H   0  0  0  0  0  0  0  0  0  0  0  0
   64.0521   34.5484   49.2623 H   0  0  0  0  0  0  0  0  0  0  0  0
   61.8198   34.1167   50.2939 H   0  0  0  0  0  0  0  0  0  0  0  0
   60.2902   32.4104   49.3009 H   0  0  0  0  0  0  0  0  0  0  0  0
  1  2  2  0
  2  3  1  0
  3  4  1  0
  4  5  2  0
  5  6  1  0
  6  7  2  0
  7  8  1  0
  8  9  2  0
  9 10  1  0
 10 11  2  0
 11 12  1  0
 12 13  2  0
 13 14  1  0
 14 15  1  0
 15 16  2  0
 16 17  1  0
 17 18  2  0
 18 19  1  0
 19 20  2  0
 11  2  1  0
 20 15  1  0
  9  4  1  0
 14 10  1  0
  5 21  1  0
  6 22  1  0
  7 23  1  0
  8 24  1  0
 16 25  1  0
 17 26  1  0
 18 27  1  0
 19 28  1  0
 20 29  1  0
M  CHG  1   3  -1
M  END
>  <UniqueID>  (2) 
2

>  <SMILES>  (2) 
S=c1[n-]c2ccccc2c2c1nnn2-c1ccccc1

>  <Energy>  (2) 
92.7581757832896

>  <Genealogy>  (2) 
S=c1[n-]c2ccccc2c2c1nnn2-c1ccccc1 (protonated)
S=c1[n-]c2ccccc2c2c1nnn2-c1ccccc1 (3D coordinates assigned)
S=c1[n-]c2ccccc2c2c1nnn2-c1ccccc1 (optimized conformer: 92.7581757832896 kcal/mol)

>  <smiles>  (2) 
S=c1[nH]c2ccccc2c2c1nnn2-c1ccccc1

>  <score_type>  (2) 
oracle

>  <origin>  (2) 
adg

>  <m_score__min__energy>  (2) 
-8.6099999999999994

>  <m_primary>  (2) 
energy

$$$$
2:0
     RDKit          3D

 39 41  0  0  0  0  0  0  0  0999 V2000
   54.8030   25.9620   45.6270 O   0  0  0  0  0  0  0  0  0  0  0  0
   56.1610   25.4250   45.9790 S   0  0  0  0  0  0  0  0  0  0  0  0
   56.1990   25.0060   47.4340 O   0  0  0  0  0  0  0  0  0  0  0  0
   56.5660   24.1140   44.9240 C   0  0  0  0  0  0  0  0  0  0  0  0
   57.6840   23.3450   45.2610 C   0  0  0  0  0  0  0  0  0  0  0  0
   58.0800   22.2830   44.4800 C   0  0  0  0  0  0  0  0  0  0  0  0
   57.3490   21.9680   43.3290 C   0  0  0  0  0  0  0  0  0  0  0  0
   56.2430   22.7350   43.0020 C   0  0  0  0  0  0  0  0  0  0  0  0
   55.8380   23.8030   43.7820 C   0  0  0  0  0  0  0  0  0  0  0  0
   57.2910   26.7320   45.7330 C   0  0  0  0  0  0  0  0  0  0  0  0
   57.1950   27.9140   45.3970 N   0  0  0  0  0  0  0  0  0  0  0  0
   58.1180   28.7710   45.2550 N   0  0  0  0  0  0  0  0  0  0  0  0
   57.9270   30.1460   44.8550 C   0  0  0  0  0  0  0  0  0  0  0  0
   57.6070   30.4840   43.5560 C   0  0  0  0  0  0  0  0  0  0  0  0
   57.4180   31.7860   43.1460 C   0  0  0  0  0  0  0  0  0  0  0  0
   57.5640   32.7730   44.1130 C   0  0  0  0  0  0  0  0  0  0  0  0
   57.8830   32.4600   45.4200 C   0  0  0  0  0  0  0  0  0  0  0  0
   58.0710   31.1470   45.8210 C   0  0  0  0  0  0  0  0  0  0  0  0
   59.3830   28.3200   45.5080 C   0  0  0  0  0  0  0  0  0  0  0  0
   60.6120   28.9560   45.4580 N   0  0  0  0  0  0  0  0  0  0  0  0
   61.0290   30.0210   46.3780 C   0  0  0  0  0  0  0  0  0  0  0  0
   60.7140   29.6580   47.8050 C   0  0  0  0  0  0  0  0  0  0  0  0
   61.4870   30.3900   48.6790 F   0  0  0  0  0  0  0  0  0  0  0  0
   59.4000   30.0270   48.0230 F   0  0  0  0  0  0  0  0  0  0  0  0
   60.7830   28.3080   48.0380 F   0  0  0  0  0  0  0  0  0  0  0  0
   59.1030   26.5680   45.9640 S   0  0  0  0  0  0  0  0  0  0  0  0
   58.2573   23.5931   46.1664 H   0  0  0  0  0  0  0  0  0  0  0  0
   58.9623   21.6878   44.7578 H   0  0  0  0  0  0  0  0  0  0  0  0
   57.6488   21.1225   42.6924 H   0  0  0  0  0  0  0  0  0  0  0  0
   55.6703   22.4877   42.0960 H   0  0  0  0  0  0  0  0  0  0  0  0
   54.9546   24.3961   43.5030 H   0  0  0  0  0  0  0  0  0  0  0  0
   57.4979   29.6785   42.8149 H   0  0  0  0  0  0  0  0  0  0  0  0
   57.1640   32.0318   42.1043 H   0  0  0  0  0  0  0  0  0  0  0  0
   57.4224   33.8269   43.8315 H   0  0  0  0  0  0  0  0  0  0  0  0
   57.9899   33.2693   46.1573 H   0  0  0  0  0  0  0  0  0  0  0  0
   58.3246   30.9007   46.8626 H   0  0  0  0  0  0  0  0  0  0  0  0
   61.3020   28.6670   44.7190 H   0  0  0  0  0  0  0  0  0  0  0  0
   62.1131   30.1781   46.2781 H   0  0  0  0  0  0  0  0  0  0  0  0
   60.4803   30.9392   46.1215 H   0  0  0  0  0  0  0  0  0  0  0  0
  1  2  2  0
  2  3  2  0
  2  4  1  0
  4  5  2  0
  5  6  1  0
  6  7  2  0
  7  8  1  0
  8  9  2  0
  2 10  1  0
 10 11  2  0
 11 12  1  0
 12 13  1  0
 13 14  2  0
 14 15  1  0
 15 16  2  0
 16 17  1  0
 17 18  2  0
 12 19  2  0
 19 20  1  0
 20 21  1  0
 21 22  1  0
 22 23  1  0
 22 24  1  0
 22 25  1  0
 19 26  1  0
  9  4  1  0
 26 10  1  0
 18 13  1  0
  5 27  1  0
  6 28  1  0
  7 29  1  0
  8 30  1  0
  9 31  1  0
 14 32  1  0
 15 33  1  0
 16 34  1  0
 17 35  1  0
 18 36  1  0
 20 37  1  0
 21 38  1  0
 21 39  1  0
M  CHG  1  12   1
M  END
>  <smiles>  (3) 
O=S(=O)(c1ccccc1)c1n[n+](-c2ccccc2)c(NCC(F)(F)F)s1

>  <score_type>  (3) 
oracle

>  <origin>  (3) 
adg

>  <m_score__min__energy>  (3) 
-6.6600000000000001

>  <m_primary>  (3) 
energy

$$$$
3:0
     RDKit          3D

 47 49  0  0  0  0  0  0  0  0999 V2000
   56.8730   30.8530   42.5960 C   0  0  0  0  0  0  0  0  0  0  0  0
   56.7240   29.5140   43.1480 N   0  0  0  0  0  0  0  0  0  0  0  0
   56.3470   29.2510   44.5040 C   0  0  0  0  0  0  0  0  0  0  0  0
   55.1400   29.3760   44.8420 O   0  0  0  0  0  0  0  0  0  0  0  0
   57.3420   28.8400   45.5150 C   0  0  0  0  0  0  0  0  0  0  0  0
   57.1850   27.5940   46.1360 C   0  0  0  0  0  0  0  0  0  0  0  0
   56.1030   26.7780   45.7620 O   0  0  0  0  0  0  0  0  0  0  0  0
   56.1750   25.3670   45.5840 C   0  0  0  0  0  0  0  0  0  0  0  0
   58.1070   27.1950   47.1060 C   0  0  0  0  0  0  0  0  0  0  0  0
   59.1750   28.0240   47.4400 C   0  0  0  0  0  0  0  0  0  0  0  0
   59.9760   27.6350   48.3340 O   0  0  0  0  0  0  0  0  0  0  0  0
   59.3470   29.2370   46.8140 N   0  0  0  0  0  0  0  0  0  0  0  0
   58.4440   29.6670   45.8660 C   0  0  0  0  0  0  0  0  0  0  0  0
   58.5900   31.0550   45.2570 C   0  0  0  0  0  0  0  0  0  0  0  0
   58.3290   32.1490   46.3030 C   0  0  0  0  0  0  0  0  0  0  0  0
   59.4840   32.4070   47.1840 N   0  0  0  0  0  0  0  0  0  0  0  0
   60.3940   33.5170   46.8360 C   0  0  0  0  0  0  0  0  0  0  0  0
   61.7020   33.4580   47.5810 C   0  0  0  0  0  0  0  0  0  0  0  0
   61.8130   33.9910   48.8720 C   0  0  0  0  0  0  0  0  0  0  0  0
   63.0320   33.9270   49.5500 C   0  0  0  0  0  0  0  0  0  0  0  0
   64.1330   33.3400   48.9260 C   0  0  0  0  0  0  0  0  0  0  0  0
   64.0170   32.8380   47.6660 N   0  0  0  0  0  0  0  0  0  0  0  0
   62.8390   32.8890   46.9860 C   0  0  0  0  0  0  0  0  0  0  0  0
   60.0120   31.3060   48.0120 C   0  0  0  0  0  0  0  0  0  0  0  0
   60.4880   30.0990   47.1920 C   0  0  0  0  0  0  0  0  0  0  0  0
   56.9540   31.5810   43.4167 H   0  0  0  0  0  0  0  0  0  0  0  0
   57.7814   30.8955   41.9772 H   0  0  0  0  0  0  0  0  0  0  0  0
   55.9961   31.0942   41.9772 H   0  0  0  0  0  0  0  0  0  0  0  0
   56.2001   24.8742   46.5671 H   0  0  0  0  0  0  0  0  0  0  0  0
   55.2933   25.0226   45.0237 H   0  0  0  0  0  0  0  0  0  0  0  0
   57.0872   25.1142   45.0237 H   0  0  0  0  0  0  0  0  0  0  0  0
   57.9893   26.2232   47.6077 H   0  0  0  0  0  0  0  0  0  0  0  0
   59.6113   31.1695   44.8648 H   0  0  0  0  0  0  0  0  0  0  0  0
   57.8510   31.1611   44.4491 H   0  0  0  0  0  0  0  0  0  0  0  0
   58.0773   33.0814   45.7765 H   0  0  0  0  0  0  0  0  0  0  0  0
   57.5062   31.7964   46.9423 H   0  0  0  0  0  0  0  0  0  0  0  0
   60.6025   33.4747   45.7568 H   0  0  0  0  0  0  0  0  0  0  0  0
   59.8943   34.4550   47.1199 H   0  0  0  0  0  0  0  0  0  0  0  0
   60.9406   34.4595   49.3510 H   0  0  0  0  0  0  0  0  0  0  0  0
   63.1233   34.3358   50.5671 H   0  0  0  0  0  0  0  0  0  0  0  0
   65.0968   33.2827   49.4532 H   0  0  0  0  0  0  0  0  0  0  0  0
   64.8500   32.4030   47.2100 H   0  0  0  0  0  0  0  0  0  0  0  0
   62.7777   32.4825   45.9657 H   0  0  0  0  0  0  0  0  0  0  0  0
   60.8621   31.6868   48.5971 H   0  0  0  0  0  0  0  0  0  0  0  0
   59.1881   30.9582   48.6524 H   0  0  0  0  0  0  0  0  0  0  0  0
   60.9870   30.4573   46.2795 H   0  0  0  0  0  0  0  0  0  0  0  0
   61.1865   29.5102   47.8048 H   0  0  0  0  0  0  0  0  0  0  0  0
  1  2  1  0
  2  3  1  0
  3  4  2  0
  3  5  1  0
  5  6  1  0
  6  7  1  0
  7  8  1  0
  6  9  2  0
  9 10  1  0
 10 11  2  0
 10 12  1  0
 12 13  1  0
 13 14  1  0
 14 15  1  0
 15 16  1  0
 16 17  1  0
 17 18  1  0
 18 19  2  0
 19 20  1  0
 20 21  2  0
 21 22  1  0
 22 23  2  0
 16 24  1  0
 24 25  1  0
 13  5  2  0
 23 18  1  0
 25 12  1  0
  1 26  1  0
  1 27  1  0
  1 28  1  0
  8 29  1  0
  8 30  1  0
  8 31  1  0
  9 32  1  0
 14 33  1  0
 14 34  1  0
 15 35  1  0
 15 36  1  0
 17 37  1  0
 17 38  1  0
 19 39  1  0
 20 40  1  0
 21 41  1  0
 22 42  1  0
 23 43  1  0
 24 44  1  0
 24 45  1  0
 25 46  1  0
 25 47  1  0
M  CHG  2   2  -1  22   1
M  END
>  <UniqueID>  (4) 
3

>  <SMILES>  (4) 
C[N-]C(=O)c1c(OC)cc(=O)n2c1CCN(Cc1ccc[nH+]c1)CC2

>  <Energy>  (4) 
73.72334407822464

>  <Genealogy>  (4) 
C[N-]C(=O)c1c(OC)cc(=O)n2c1CCN(Cc1ccc[nH+]c1)CC2 (protonated)
C[N-]C(=O)c1c(OC)cc(=O)n2c1CCN(Cc1ccc[nH+]c1)CC2 (3D coordinates assigned)
C[N-]C(=O)c1c(OC)cc(=O)n2c1CCN(Cc1ccc[nH+]c1)CC2 (nonaromatic ring conformer: 73.72334407822464 kcal/mol)

>  <smiles>  (4) 
CNC(=O)c1c(OC)cc(=O)n2c1CCN(Cc1cccnc1)CC2

>  <score_type>  (4) 
oracle

>  <origin>  (4) 
adg

>  <m_score__min__energy>  (4) 
-6.1299999999999999

>  <m_primary>  (4) 
energy

$$$$
4:0
     RDKit          3D

 57 61  0  0  1  0  0  0  0  0999 V2000
   58.3950   31.7150   50.6120 C   0  0  0  0  0  0  0  0  0  0  0  0
   59.6910   30.9470   50.4450 C   0  0  0  0  0  0  0  0  0  0  0  0
   59.8680   30.4720   49.0410 C   0  0  0  0  0  0  0  0  0  0  0  0
   60.9320   30.9720   48.3000 C   0  0  0  0  0  0  0  0  0  0  0  0
   61.0800   30.5250   47.0150 C   0  0  0  0  0  0  0  0  0  0  0  0
   60.1760   29.6070   46.5160 C   0  0  0  0  0  0  0  0  0  0  0  0
   59.1190   29.1100   47.2510 C   0  0  0  0  0  0  0  0  0  0  0  0
   58.1630   28.1440   46.7260 C   0  0  0  0  0  0  0  0  0  0  0  0
   57.9700   26.9350   47.2840 N   0  0  0  0  0  0  0  0  0  0  0  0
   57.0450   26.2460   46.5970 C   0  0  0  0  0  0  0  0  0  0  0  0
   56.6080   24.8770   46.9640 C   0  0  0  0  0  0  0  0  0  0  0  0
   57.0670   23.7090   46.1400 C   0  0  0  0  0  0  0  0  0  0  0  0
   55.6200   24.1750   46.1310 C   0  0  0  0  0  0  0  0  0  0  0  0
   56.6510   27.0400   45.5890 N   0  0  0  0  0  0  0  0  0  0  0  0
   57.3240   28.2260   45.6390 C   0  0  0  0  0  0  0  0  0  0  0  0
   57.1560   29.3390   44.7240 C   0  0  0  0  0  0  0  0  0  0  0  0
   56.7980   29.2410   43.4120 C   0  0  0  0  0  0  0  0  0  0  0  0
   56.6500   30.3310   42.5730 C   0  0  0  0  0  0  0  0  0  0  0  0
   56.8830   31.5410   43.1290 N   0  0  0  0  0  0  0  0  0  0  0  0
   57.2320   31.6310   44.4150 C   0  0  0  0  0  0  0  0  0  0  0  0
   57.4370   32.8070   44.8930 N   0  0  0  0  0  0  0  0  0  0  0  0
   58.5830   33.1970   45.6800 C   0  0  0  0  0  0  0  0  0  0  0  0
   59.3320   34.3750   45.1560 C   0  0  0  0  0  0  0  0  0  0  0  0
   59.6580   35.3570   46.2720 C   0  0  0  0  0  0  0  0  0  0  0  0
   60.2370   34.5570   47.4340 C   0  0  0  0  0  0  0  0  0  0  0  0
   59.1360   33.7380   48.0840 C   0  0  0  0  0  0  0  0  0  0  0  0
   58.0490   33.4260   47.1000 C   0  0  0  0  0  0  0  0  0  0  0  0
   57.3800   30.5840   45.2400 N   0  0  0  0  0  0  0  0  0  0  0  0
   59.0210   29.5920   48.5260 N   0  0  0  0  0  0  0  0  0  0  0  0
   58.1798   31.8425   51.6832 H   0  0  0  0  0  0  0  0  0  0  0  0
   58.4902   32.7026   50.1370 H   0  0  0  0  0  0  0  0  0  0  0  0
   57.5745   31.1573   50.1370 H   0  0  0  0  0  0  0  0  0  0  0  0
   60.5326   31.6043   50.7088 H   0  0  0  0  0  0  0  0  0  0  0  0
   59.6590   30.0679   51.1055 H   0  0  0  0  0  0  0  0  0  0  0  0
   61.6318   31.7026   48.7318 H   0  0  0  0  0  0  0  0  0  0  0  0
   61.9067   30.8913   46.3885 H   0  0  0  0  0  0  0  0  0  0  0  0
   60.3052   29.2549   45.4819 H   0  0  0  0  0  0  0  0  0  0  0  0
   56.6640   25.1373   48.0313 H   0  0  0  0  0  0  0  0  0  0  0  0
   57.7067   23.8685   45.2595 H   0  0  0  0  0  0  0  0  0  0  0  0
   57.5883   22.7609   46.3386 H   0  0  0  0  0  0  0  0  0  0  0  0
   55.2065   24.6660   45.2377 H   0  0  0  0  0  0  0  0  0  0  0  0
   54.6483   23.6944   46.3177 H   0  0  0  0  0  0  0  0  0  0  0  0
   55.9240   26.7530   44.8820 H   0  0  0  0  0  0  0  0  0  0  0  0
   56.6166   28.2385   42.9972 H   0  0  0  0  0  0  0  0  0  0  0  0
   56.3603   30.2199   41.5177 H   0  0  0  0  0  0  0  0  0  0  0  0
   56.7920   32.4160   42.5550 H   0  0  0  0  0  0  0  0  0  0  0  0
   59.3425   32.4021   45.6455 H   0  0  0  0  0  0  0  0  0  0  0  0
   60.2696   34.0292   44.6963 H   0  0  0  0  0  0  0  0  0  0  0  0
   58.7030   34.8868   44.4127 H   0  0  0  0  0  0  0  0  0  0  0  0
   60.3946   36.0942   45.9199 H   0  0  0  0  0  0  0  0  0  0  0  0
   58.7537   35.8981   46.5875 H   0  0  0  0  0  0  0  0  0  0  0  0
   61.0225   33.8838   47.0601 H   0  0  0  0  0  0  0  0  0  0  0  0
   60.6669   35.2466   48.1754 H   0  0  0  0  0  0  0  0  0  0  0  0
   59.5621   32.7963   48.4604 H   0  0  0  0  0  0  0  0  0  0  0  0
   58.7048   34.3222   48.9103 H   0  0  0  0  0  0  0  0  0  0  0  0
   57.5260   32.5163   47.4302 H   0  0  0  0  0  0  0  0  0  0  0  0
   57.3738   34.2937   47.0649 H   0  0  0  0  0  0  0  0  0  0  0  0
  1  2  1  0
  2  3  1  0
  3  4  2  0
  4  5  1  0
  5  6  2  0
  6  7  1  0
  7  8  1  0
  8  9  1  0
  9 10  2  0
 10 11  1  0
 11 12  1  0
 12 13  1  0
 10 14  1  0
 14 15  1  0
 15 16  1  0
 16 17  1  0
 17 18  2  0
 18 19  1  0
 19 20  1  0
 20 21  2  0
 21 22  1  0
 22 23  1  0
 23 24  1  0
 24 25  1  0
 25 26  1  0
 26 27  1  0
 20 28  1  0
  7 29  2  0
 29  3  1  0
 15  8  2  0
 28 16  2  0
 13 11  1  0
 27 22  1  0
  1 30  1  0
  1 31  1  0
  1 32  1  0
  2 33  1  0
  2 34  1  0
  4 35  1  0
  5 36  1  0
  6 37  1  0
 11 38  1  0
 12 39  1  0
 12 40  1  0
 13 41  1  0
 13 42  1  0
 14 43  1  0
 17 44  1  0
 18 45  1  0
 19 46  1  0
 22 47  1  0
 23 48  1  0
 23 49  1  0
 24 50  1  0
 24 51  1  0
 25 52  1  0
 25 53  1  0
 26 54  1  0
 26 55  1  0
 27 56  1  0
 27 57  1  0
M  END
>  <smiles>  (5) 
CCc1cccc(-c2nc(C3CC3)[nH]c2-c2cc[nH]c(=NC3CCCCC3)n2)n1

>  <score_type>  (5) 
oracle

>  <origin>  (5) 
adg

>  <m_score__min__energy>  (5) 
-9.0899999999999999

>  <m_primary>  (5) 
energy

$$$$
5:0
     RDKit          3D

 45 47  0  0  0  0  0  0  0  0999 V2000
   56.4230   30.5580   52.2430 C   0  0  0  0  0  0  0  0  0  0  0  0
   57.3840   30.4350   51.1990 O   0  0  0  0  0  0  0  0  0  0  0  0
   58.3430   31.4100   50.8850 C   0  0  0  0  0  0  0  0  0  0  0  0
   58.3070   32.7070   51.4320 C   0  0  0  0  0  0  0  0  0  0  0  0
   59.2880   33.6410   51.0900 C   0  0  0  0  0  0  0  0  0  0  0  0
   60.3080   33.2970   50.2010 C   0  0  0  0  0  0  0  0  0  0  0  0
   60.3500   32.0120   49.6390 C   0  0  0  0  0  0  0  0  0  0  0  0
   61.4470   31.6290   48.6830 C   0  0  0  0  0  0  0  0  0  0  0  0
   60.9440   31.5370   47.3490 O   0  0  0  0  0  0  0  0  0  0  0  0
   60.0110   32.4060   46.7610 C   0  0  0  0  0  0  0  0  0  0  0  0
   60.2390   33.7970   46.6990 C   0  0  0  0  0  0  0  0  0  0  0  0
   59.2810   34.6500   46.1500 C   0  0  0  0  0  0  0  0  0  0  0  0
   58.0850   34.1320   45.6580 C   0  0  0  0  0  0  0  0  0  0  0  0
   57.8460   32.7580   45.7030 C   0  0  0  0  0  0  0  0  0  0  0  0
   58.8070   31.8800   46.2370 C   0  0  0  0  0  0  0  0  0  0  0  0
   58.4970   30.4250   46.2630 C   0  0  0  0  0  0  0  0  0  0  0  0
   58.1730   29.9040   47.3670 O   0  0  0  0  0  0  0  0  0  0  0  0
   58.4620   29.6270   45.0490 N   0  0  1  0  0  0  0  0  0  0  0  0
   58.3750   28.1730   45.3250 C   0  0  0  0  0  0  0  0  0  0  0  0
   57.0340   27.7550   45.9520 C   0  0  0  0  0  0  0  0  0  0  0  0
   55.9100   28.3510   45.2440 N   0  0  0  0  0  0  0  0  0  0  0  0
   56.0360   29.5660   44.5070 C   0  0  0  0  0  0  0  0  0  0  0  0
   55.0020   30.1500   44.0900 O   0  0  0  0  0  0  0  0  0  0  0  0
   57.3950   30.0870   44.1310 C   0  0  0  0  0  0  0  0  0  0  0  0
   59.3680   31.0720   49.9950 C   0  0  0  0  0  0  0  0  0  0  0  0
   56.9296   30.4932   53.2172 H   0  0  0  0  0  0  0  0  0  0  0  0
   55.9126   31.5288   52.1590 H   0  0  0  0  0  0  0  0  0  0  0  0
   55.6846   29.7470   52.1590 H   0  0  0  0  0  0  0  0  0  0  0  0
   57.5042   32.9856   52.1305 H   0  0  0  0  0  0  0  0  0  0  0  0
   59.2566   34.6517   51.5230 H   0  0  0  0  0  0  0  0  0  0  0  0
   61.0807   34.0352   49.9405 H   0  0  0  0  0  0  0  0  0  0  0  0
   62.2395   32.3911   48.7185 H   0  0  0  0  0  0  0  0  0  0  0  0
   61.8477   30.6482   48.9786 H   0  0  0  0  0  0  0  0  0  0  0  0
   61.1806   34.2128   47.0870 H   0  0  0  0  0  0  0  0  0  0  0  0
   59.4703   35.7327   46.1056 H   0  0  0  0  0  0  0  0  0  0  0  0
   57.3277   34.8074   45.2333 H   0  0  0  0  0  0  0  0  0  0  0  0
   56.8970   32.3574   45.3172 H   0  0  0  0  0  0  0  0  0  0  0  0
   59.3580   29.7840   44.5320 H   0  0  0  0  0  0  0  0  0  0  0  0
   58.5027   27.6289   44.3775 H   0  0  0  0  0  0  0  0  0  0  0  0
   59.1653   27.9299   46.0505 H   0  0  0  0  0  0  0  0  0  0  0  0
   56.9444   26.6595   45.9089 H   0  0  0  0  0  0  0  0  0  0  0  0
   57.0136   28.1066   46.9941 H   0  0  0  0  0  0  0  0  0  0  0  0
   57.6341   29.7425   43.1141 H   0  0  0  0  0  0  0  0  0  0  0  0
   57.3567   31.1846   44.1926 H   0  0  0  0  0  0  0  0  0  0  0  0
   59.4057   30.0586   49.5689 H   0  0  0  0  0  0  0  0  0  0  0  0
  1  2  1  0
  2  3  1  0
  3  4  2  0
  4  5  1  0
  5  6  2  0
  6  7  1  0
  7  8  1  0
  8  9  1  0
  9 10  1  0
 10 11  2  0
 11 12  1  0
 12 13  2  0
 13 14  1  0
 14 15  2  0
 15 16  1  0
 16 17  2  0
 16 18  1  0
 18 19  1  0
 19 20  1  0
 20 21  1  0
 21 22  1  0
 22 23  2  0
 22 24  1  0
  7 25  2  0
 25  3  1  0
 15 10  1  0
 24 18  1  0
  1 26  1  0
  1 27  1  0
  1 28  1  0
  4 29  1  0
  5 30  1  0
  6 31  1  0
  8 32  1  0
  8 33  1  0
 11 34  1  0
 12 35  1  0
 13 36  1  0
 14 37  1  0
 18 38  1  6
 19 39  1  0
 19 40  1  0
 20 41  1  0
 20 42  1  0
 24 43  1  0
 24 44  1  0
 25 45  1  0
M  CHG  2  18   1  21  -1
M  END
>  <UniqueID>  (6) 
4

>  <SMILES>  (6) 
COc1cccc(COc2ccccc2C(=O)[N@H+]2CC[N-]C(=O)C2)c1

>  <Energy>  (6) 
57.18005058163263

>  <Genealogy>  (6) 
COc1cccc(COc2ccccc2C(=O)[NH+]2CC[N-]C(=O)C2)c1 (protonated)
COc1cccc(COc2ccccc2C(=O)[N@H+]2CC[N-]C(=O)C2)c1 (chirality)
COc1cccc(COc2ccccc2C(=O)[N@H+]2CC[N-]C(=O)C2)c1 (3D coordinates assigned)
COc1cccc(COc2ccccc2C(=O)[N@H+]2CC[N-]C(=O)C2)c1 (nonaromatic ring conformer: 57.18005058163263 kcal/mol)

>  <smiles>  (6) 
COc1cccc(COc2ccccc2C(=O)N2CCNC(=O)C2)c1

>  <score_type>  (6) 
oracle

>  <origin>  (6) 
adg

>  <m_score__min__energy>  (6) 
-8.0800000000000001

>  <m_primary>  (6) 
energy

$$$$
6:0
     RDKit          3D

 59 62  0  0  0  0  0  0  0  0999 V2000
   54.7620   29.6440   43.5970 O   0  0  0  0  0  0  0  0  0  0  0  0
   55.8150   29.8380   44.2590 C   0  0  0  0  0  0  0  0  0  0  0  0
   56.1070   28.9820   45.3700 N   0  0  0  0  0  0  0  0  0  0  0  0
   56.7420   27.6690   45.2710 C   0  0  0  0  0  0  0  0  0  0  0  0
   58.2430   27.8050   45.2710 C   0  0  0  0  0  0  0  0  0  0  0  0
   58.8720   28.8000   44.5000 C   0  0  0  0  0  0  0  0  0  0  0  0
   60.2600   28.9560   44.5510 C   0  0  0  0  0  0  0  0  0  0  0  0
   61.0310   28.1160   45.3590 C   0  0  0  0  0  0  0  0  0  0  0  0
   60.4150   27.1150   46.1160 C   0  0  0  0  0  0  0  0  0  0  0  0
   59.0250   26.9600   46.0740 C   0  0  0  0  0  0  0  0  0  0  0  0
   56.6950   30.9590   43.8950 C   0  0  0  0  0  0  0  0  0  0  0  0
   57.1590   31.0990   42.5800 C   0  0  0  0  0  0  0  0  0  0  0  0
   58.0310   32.1400   42.2510 C   0  0  0  0  0  0  0  0  0  0  0  0
   58.4500   33.0410   43.2330 C   0  0  0  0  0  0  0  0  0  0  0  0
   57.9860   32.9140   44.5500 C   0  0  0  0  0  0  0  0  0  0  0  0
   58.5380   34.0270   45.8030 S   0  0  0  0  0  0  0  0  0  0  0  0
   58.9210   35.3330   45.1610 O   0  0  0  0  0  0  0  0  0  0  0  0
   57.4130   34.2940   46.7630 O   0  0  0  0  0  0  0  0  0  0  0  0
   59.9060   33.3850   46.6800 N   0  0  0  0  0  0  0  0  0  0  0  0
   59.8880   33.8580   48.0730 C   0  0  0  0  0  0  0  0  0  0  0  0
   60.9910   33.1560   48.8930 C   0  0  0  0  0  0  0  0  0  0  0  0
   62.2420   32.9180   48.1270 N   0  0  0  0  0  0  0  0  0  0  0  0
   62.4440   31.4950   47.7740 C   0  0  0  0  0  0  0  0  0  0  0  0
   61.3230   30.6460   48.3150 C   0  0  0  0  0  0  0  0  0  0  0  0
   61.4020   30.0920   49.6040 C   0  0  0  0  0  0  0  0  0  0  0  0
   60.3480   29.3220   50.1070 C   0  0  0  0  0  0  0  0  0  0  0  0
   59.2090   29.1020   49.3270 C   0  0  0  0  0  0  0  0  0  0  0  0
   59.1210   29.6520   48.0450 C   0  0  0  0  0  0  0  0  0  0  0  0
   60.1730   30.4230   47.5400 C   0  0  0  0  0  0  0  0  0  0  0  0
   62.3760   33.8230   46.9650 C   0  0  0  0  0  0  0  0  0  0  0  0
   61.1740   33.7340   45.9970 C   0  0  0  0  0  0  0  0  0  0  0  0
   57.0990   31.8780   44.8750 C   0  0  0  0  0  0  0  0  0  0  0  0
   56.4347   27.0531   46.1290 H   0  0  0  0  0  0  0  0  0  0  0  0
   56.4288   27.1933   44.3299 H   0  0  0  0  0  0  0  0  0  0  0  0
   58.2696   29.4569   43.8553 H   0  0  0  0  0  0  0  0  0  0  0  0
   60.7464   29.7415   43.9540 H   0  0  0  0  0  0  0  0  0  0  0  0
   62.1230   28.2425   45.3994 H   0  0  0  0  0  0  0  0  0  0  0  0
   61.0235   26.4487   46.7451 H   0  0  0  0  0  0  0  0  0  0  0  0
   58.5432   26.1729   46.6726 H   0  0  0  0  0  0  0  0  0  0  0  0
   56.8361   30.3879   41.8053 H   0  0  0  0  0  0  0  0  0  0  0  0
   58.3883   32.2503   41.2165 H   0  0  0  0  0  0  0  0  0  0  0  0
   59.1457   33.8522   42.9723 H   0  0  0  0  0  0  0  0  0  0  0  0
   59.7910   32.3450   46.6820 H   0  0  0  0  0  0  0  0  0  0  0  0
   60.0600   34.9444   48.0893 H   0  0  0  0  0  0  0  0  0  0  0  0
   58.9092   33.6239   48.5170 H   0  0  0  0  0  0  0  0  0  0  0  0
   61.2305   33.7846   49.7633 H   0  0  0  0  0  0  0  0  0  0  0  0
   60.5986   32.1704   49.1838 H   0  0  0  0  0  0  0  0  0  0  0  0
   62.4755   31.3959   46.6789 H   0  0  0  0  0  0  0  0  0  0  0  0
   63.3911   31.1527   48.2164 H   0  0  0  0  0  0  0  0  0  0  0  0
   62.2967   30.2646   50.2203 H   0  0  0  0  0  0  0  0  0  0  0  0
   60.4155   28.8897   51.1162 H   0  0  0  0  0  0  0  0  0  0  0  0
   58.3810   28.4954   49.7226 H   0  0  0  0  0  0  0  0  0  0  0  0
   58.2237   29.4783   47.4328 H   0  0  0  0  0  0  0  0  0  0  0  0
   60.0995   30.8565   46.5317 H   0  0  0  0  0  0  0  0  0  0  0  0
   62.4565   34.8569   47.3318 H   0  0  0  0  0  0  0  0  0  0  0  0
   63.2741   33.5175   46.4081 H   0  0  0  0  0  0  0  0  0  0  0  0
   61.0492   34.7086   45.5024 H   0  0  0  0  0  0  0  0  0  0  0  0
   61.3909   32.9325   45.2755 H   0  0  0  0  0  0  0  0  0  0  0  0
   56.7182   31.7854   45.9028 H   0  0  0  0  0  0  0  0  0  0  0  0
  1  2  2  0
  2  3  1  0
  3  4  1  0
  4  5  1  0
  5  6  2  0
  6  7  1  0
  7  8  2  0
  8  9  1  0
  9 10  2  0
  2 11  1  0
 11 12  2  0
 12 13  1  0
 13 14  2  0
 14 15  1  0
 15 16  1  0
 16 17  2  0
 16 18  2  0
 16 19  1  0
 19 20  1  0
 20 21  1  0
 21 22  1  0
 22 23  1  0
 23 24  1  0
 24 25  2  0
 25 26  1  0
 26 27  2  0
 27 28  1  0
 28 29  2  0
 22 30  1  0
 30 31  1  0
 15 32  2  0
 10  5  1  0
 32 11  1  0
 31 19  1  0
 29 24  1  0
  4 33  1  0
  4 34  1  0
  6 35  1  0
  7 36  1  0
  8 37  1  0
  9 38  1  0
 10 39  1  0
 12 40  1  0
 13 41  1  0
 14 42  1  0
 19 43  1  0
 20 44  1  0
 20 45  1  0
 21 46  1  0
 21 47  1  0
 23 48  1  0
 23 49  1  0
 25 50  1  0
 26 51  1  0
 27 52  1  0
 28 53  1  0
 29 54  1  0
 30 55  1  0
 30 56  1  0
 31 57  1  0
 31 58  1  0
 32 59  1  0
M  CHG  2   3  -1  19   1
M  END
>  <UniqueID>  (7) 
5

>  <SMILES>  (7) 
O=C([N-]Cc1ccccc1)c1cccc(S(=O)(=O)[NH+]2CCN(Cc3ccccc3)CC2)c1

>  <Energy>  (7) 
74.4813487453439

>  <Genealogy>  (7) 
O=C([N-]Cc1ccccc1)c1cccc(S(=O)(=O)[NH+]2CCN(Cc3ccccc3)CC2)c1 (protonated)
O=C([N-]Cc1ccccc1)c1cccc(S(=O)(=O)[NH+]2CCN(Cc3ccccc3)CC2)c1 (3D coordinates assigned)
O=C([N-]Cc1ccccc1)c1cccc(S(=O)(=O)[NH+]2CCN(Cc3ccccc3)CC2)c1 (nonaromatic ring conformer: 74.4813487453439 kcal/mol)

>  <smiles>  (7) 
O=C(NCc1ccccc1)c1cccc(S(=O)(=O)N2CCN(Cc3ccccc3)CC2)c1

>  <score_type>  (7) 
oracle

>  <origin>  (7) 
adg

>  <m_score__min__energy>  (7) 
-11.65

>  <m_primary>  (7) 
energy

$$$$
7:0
     RDKit          3D

 23 24  0  0  0  0  0  0  0  0999 V2000
   55.8780   30.0310   44.8290 N   0  0  0  0  0  0  0  0  0  0  0  0
   57.0020   29.4300   45.0360 C   0  0  0  0  0  0  0  0  0  0  0  0
   57.1320   28.0810   44.8660 N   0  0  0  0  0  0  0  0  0  0  0  0
   58.3150   27.4730   45.0870 C   0  0  0  0  0  0  0  0  0  0  0  0
   59.3990   28.1670   45.4800 N   0  0  0  0  0  0  0  0  0  0  0  0
   59.3390   29.5170   45.6690 C   0  0  0  0  0  0  0  0  0  0  0  0
   60.4590   30.2710   46.0800 N   0  0  0  0  0  0  0  0  0  0  0  0
   58.1170   30.1390   45.4390 C   0  0  0  0  0  0  0  0  0  0  0  0
   58.0580   31.5830   45.6420 C   0  0  0  0  0  0  0  0  0  0  0  0
   58.2050   32.0970   46.9170 C   0  0  0  0  0  0  0  0  0  0  0  0
   58.1440   33.4760   47.0770 C   0  0  0  0  0  0  0  0  0  0  0  0
   57.9480   34.2800   46.0240 N   0  0  0  0  0  0  0  0  0  0  0  0
   57.8050   33.7780   44.8050 C   0  0  0  0  0  0  0  0  0  0  0  0
   57.8510   32.4150   44.5370 C   0  0  0  0  0  0  0  0  0  0  0  0
   55.1800   30.0910   45.6210 H   0  0  0  0  0  0  0  0  0  0  0  0
   56.2990   27.4990   44.5570 H   0  0  0  0  0  0  0  0  0  0  0  0
   58.3959   26.3855   44.9429 H   0  0  0  0  0  0  0  0  0  0  0  0
   60.5530   31.3130   45.9330 H   0  0  0  0  0  0  0  0  0  0  0  0
   61.2560   29.7670   46.5630 H   0  0  0  0  0  0  0  0  0  0  0  0
   58.3656   31.4337   47.7797 H   0  0  0  0  0  0  0  0  0  0  0  0
   58.2580   33.9124   48.0803 H   0  0  0  0  0  0  0  0  0  0  0  0
   57.6425   34.4723   43.9674 H   0  0  0  0  0  0  0  0  0  0  0  0
   57.7320   32.0155   43.5191 H   0  0  0  0  0  0  0  0  0  0  0  0
  1  2  2  3
  2  3  1  0
  3  4  1  0
  4  5  2  0
  5  6  1  0
  6  7  1  0
  6  8  2  0
  8  9  1  0
  9 10  2  0
 10 11  1  0
 11 12  2  0
 12 13  1  0
 13 14  2  0
  8  2  1  0
 14  9  1  0
  1 15  1  0
  3 16  1  0
  4 17  1  0
  7 18  1  0
  7 19  1  0
 10 20  1  0
 11 21  1  0
 13 22  1  0
 14 23  1  0
M  END
>  <smiles>  (8) 
N=c1[nH]cnc(N)c1-c1ccncc1

>  <score_type>  (8) 
oracle

>  <origin>  (8) 
adg

>  <m_score__min__energy>  (8) 
-5.1100000000000003

>  <m_primary>  (8) 
energy

$$$$
8:0
     RDKit          3D

 33 35  0  0  0  0  0  0  0  0999 V2000
   57.9610   26.5410   44.1070 C   0  0  0  0  0  0  0  0  0  0  0  0
   57.8070   27.4550   43.0610 C   0  0  0  0  0  0  0  0  0  0  0  0
   57.3980   28.7650   43.3300 C   0  0  0  0  0  0  0  0  0  0  0  0
   57.1250   29.1660   44.6440 C   0  0  0  0  0  0  0  0  0  0  0  0
   56.7300   30.4930   44.8730 O   0  0  0  0  0  0  0  0  0  0  0  0
   57.5640   31.5170   45.3460 C   0  0  0  0  0  0  0  0  0  0  0  0
   57.3800   32.8150   44.8540 C   0  0  0  0  0  0  0  0  0  0  0  0
   58.1810   33.8660   45.3100 C   0  0  0  0  0  0  0  0  0  0  0  0
   59.1630   33.6350   46.2860 C   0  0  0  0  0  0  0  0  0  0  0  0
   60.0540   34.7550   46.7450 C   0  0  0  0  0  0  0  0  0  0  0  0
   61.3150   34.2130   47.2450 N   0  0  0  0  0  0  0  0  0  0  0  0
   62.3700   33.8190   46.5140 C   0  0  0  0  0  0  0  0  0  0  0  0
   63.3730   33.4570   47.3860 C   0  0  0  0  0  0  0  0  0  0  0  0
   62.9560   33.6370   48.6560 N   0  0  0  0  0  0  0  0  0  0  0  0
   61.6950   34.1040   48.5320 C   0  0  0  0  0  0  0  0  0  0  0  0
   59.3450   32.3360   46.7860 C   0  0  0  0  0  0  0  0  0  0  0  0
   58.5430   31.2860   46.3290 C   0  0  0  0  0  0  0  0  0  0  0  0
   57.3000   28.2470   45.6950 C   0  0  0  0  0  0  0  0  0  0  0  0
   57.7110   26.9380   45.4240 C   0  0  0  0  0  0  0  0  0  0  0  0
   58.2788   25.5096   43.8941 H   0  0  0  0  0  0  0  0  0  0  0  0
   58.0077   27.1437   42.0252 H   0  0  0  0  0  0  0  0  0  0  0  0
   57.2901   29.4845   42.5050 H   0  0  0  0  0  0  0  0  0  0  0  0
   56.5997   33.0090   44.1034 H   0  0  0  0  0  0  0  0  0  0  0  0
   58.0412   34.8781   44.9024 H   0  0  0  0  0  0  0  0  0  0  0  0
   60.2563   35.4299   45.9003 H   0  0  0  0  0  0  0  0  0  0  0  0
   59.5526   35.3097   47.5518 H   0  0  0  0  0  0  0  0  0  0  0  0
   62.4238   33.7904   45.4157 H   0  0  0  0  0  0  0  0  0  0  0  0
   64.3631   33.0788   47.0915 H   0  0  0  0  0  0  0  0  0  0  0  0
   61.0517   34.3655   49.3851 H   0  0  0  0  0  0  0  0  0  0  0  0
   60.1219   32.1434   47.5405 H   0  0  0  0  0  0  0  0  0  0  0  0
   58.6783   30.2747   46.7401 H   0  0  0  0  0  0  0  0  0  0  0  0
   57.1129   28.5591   46.7331 H   0  0  0  0  0  0  0  0  0  0  0  0
   57.8377   26.2201   46.2478 H   0  0  0  0  0  0  0  0  0  0  0  0
  1  2  2  0
  2  3  1  0
  3  4  2  0
  4  5  1  0
  5  6  1  0
  6  7  2  0
  7  8  1  0
  8  9  2  0
  9 10  1  0
 10 11  1  0
 11 12  1  0
 12 13  2  0
 13 14  1  0
 14 15  2  0
  9 16  1  0
 16 17  2  0
  4 18  1  0
 18 19  2  0
 19  1  1  0
 17  6  1  0
 15 11  1  0
  1 20  1  0
  2 21  1  0
  3 22  1  0
  7 23  1  0
  8 24  1  0
 10 25  1  0
 10 26  1  0
 12 27  1  0
 13 28  1  0
 15 29  1  0
 16 30  1  0
 17 31  1  0
 18 32  1  0
 19 33  1  0
M  END
>  <UniqueID>  (9) 
6

>  <SMILES>  (9) 
c1ccc(Oc2ccc(Cn3ccnc3)cc2)cc1

>  <Energy>  (9) 
69.32946258409642

>  <Genealogy>  (9) 
c1ccc(Oc2ccc(Cn3ccnc3)cc2)cc1 (3D coordinates assigned)
c1ccc(Oc2ccc(Cn3ccnc3)cc2)cc1 (optimized conformer: 69.32946258409642 kcal/mol)

>  <smiles>  (9) 
c1ccc(Oc2ccc(Cn3ccnc3)cc2)cc1

>  <score_type>  (9) 
oracle

>  <origin>  (9) 
adg

>  <m_score__min__energy>  (9) 
-6.75

>  <m_primary>  (9) 
energy

$$$$
9:0
     RDKit          3D

 42 42  0  0  0  0  0  0  0  0999 V2000
   57.3940   26.0890   44.2150 N   0  0  0  0  0  0  0  0  0  0  0  0
   57.2460   24.8810   45.0300 C   0  0  2  0  0  0  0  0  0  0  0  0
   55.9980   24.9840   45.9260 C   0  0  0  0  0  0  0  0  0  0  0  0
   55.5320   26.3080   45.9700 O   0  0  0  0  0  0  0  0  0  0  0  0
   58.5410   24.5730   45.8310 C   0  0  0  0  0  0  0  0  0  0  0  0
   59.5250   25.7450   46.0510 C   0  0  0  0  0  0  0  0  0  0  0  0
   59.3080   26.5390   47.3540 C   0  0  0  0  0  0  0  0  0  0  0  0
   58.9300   27.9780   47.1270 C   0  0  0  0  0  0  0  0  0  0  0  0
   59.4660   28.8890   47.8140 O   0  0  0  0  0  0  0  0  0  0  0  0
   57.8910   28.3040   46.1920 N   0  0  0  0  0  0  0  0  0  0  0  0
   57.5500   29.6910   45.8590 C   0  0  1  0  0  0  0  0  0  0  0  0
   58.7000   30.3760   45.0970 C   0  0  0  0  0  0  0  0  0  0  0  0
   58.7790   31.8470   45.4170 C   0  0  0  0  0  0  0  0  0  0  0  0
   58.1300   32.7840   44.5950 C   0  0  0  0  0  0  0  0  0  0  0  0
   58.1910   34.1490   44.8960 C   0  0  0  0  0  0  0  0  0  0  0  0
   58.8930   34.5860   46.0210 C   0  0  0  0  0  0  0  0  0  0  0  0
   59.5340   33.6600   46.8500 C   0  0  0  0  0  0  0  0  0  0  0  0
   59.4760   32.2960   46.5510 C   0  0  0  0  0  0  0  0  0  0  0  0
   56.2980   29.7210   45.0300 C   0  0  0  0  0  0  0  0  0  0  0  0
   55.9160   30.7930   44.4910 O   0  0  0  0  0  0  0  0  0  0  0  0
   55.5390   28.5670   44.8800 O   0  0  0  0  0  0  0  0  0  0  0  0
   56.8100   26.8490   44.6340 H   0  0  0  0  0  0  0  0  0  0  0  0
   56.9790   25.9000   43.2740 H   0  0  0  0  0  0  0  0  0  0  0  0
   57.0923   24.0223   44.3599 H   0  0  0  0  0  0  0  0  0  0  0  0
   55.2073   24.3352   45.5213 H   0  0  0  0  0  0  0  0  0  0  0  0
   56.2645   24.6666   46.9450 H   0  0  0  0  0  0  0  0  0  0  0  0
   55.5540   26.6580   45.0410 H   0  0  0  0  0  0  0  0  0  0  0  0
   58.2384   24.2032   46.8218 H   0  0  0  0  0  0  0  0  0  0  0  0
   59.0929   23.8482   45.2145 H   0  0  0  0  0  0  0  0  0  0  0  0
   60.5459   25.3357   46.0663 H   0  0  0  0  0  0  0  0  0  0  0  0
   59.3516   26.4522   45.2265 H   0  0  0  0  0  0  0  0  0  0  0  0
   58.5035   26.0543   47.9267 H   0  0  0  0  0  0  0  0  0  0  0  0
   60.2657   26.5386   47.8952 H   0  0  0  0  0  0  0  0  0  0  0  0
   57.3600   27.5210   45.7470 H   0  0  0  0  0  0  0  0  0  0  0  0
   57.3835   30.2413   46.7968 H   0  0  0  0  0  0  0  0  0  0  0  0
   59.6497   29.8978   45.3789 H   0  0  0  0  0  0  0  0  0  0  0  0
   58.5107   30.2681   44.0188 H   0  0  0  0  0  0  0  0  0  0  0  0
   57.5715   32.4427   43.7109 H   0  0  0  0  0  0  0  0  0  0  0  0
   57.6856   34.8783   44.2459 H   0  0  0  0  0  0  0  0  0  0  0  0
   58.9419   35.6596   46.2554 H   0  0  0  0  0  0  0  0  0  0  0  0
   60.0841   34.0053   47.7378 H   0  0  0  0  0  0  0  0  0  0  0  0
   59.9788   31.5702   47.2071 H   0  0  0  0  0  0  0  0  0  0  0  0
  1  2  1  0
  2  3  1  0
  3  4  1  0
  2  5  1  0
  5  6  1  0
  6  7  1  0
  7  8  1  0
  8  9  2  0
  8 10  1  0
 10 11  1  0
 11 12  1  0
 12 13  1  0
 13 14  2  0
 14 15  1  0
 15 16  2  0
 16 17  1  0
 17 18  2  0
 11 19  1  0
 19 20  2  0
 19 21  1  0
 18 13  1  0
  1 22  1  0
  1 23  1  0
  2 24  1  6
  3 25  1  0
  3 26  1  0
  4 27  1  0
  5 28  1  0
  5 29  1  0
  6 30  1  0
  6 31  1  0
  7 32  1  0
  7 33  1  0
 10 34  1  0
 11 35  1  1
 12 36  1  0
 12 37  1  0
 14 38  1  0
 15 39  1  0
 16 40  1  0
 17 41  1  0
 18 42  1  0
M  CHG  1  21  -1
M  END
>  <UniqueID>  (10) 
7

>  <SMILES>  (10) 
N[C@H](CO)CCCC(=O)N[C@@H](Cc1ccccc1)C(=O)[O-]

>  <Energy>  (10) 
31.841337074639803

>  <Genealogy>  (10) 
NC(CO)CCCC(=O)NC(Cc1ccccc1)C(=O)[O-] (protonated)
N[C@H](CO)CCCC(=O)N[C@@H](Cc1ccccc1)C(=O)[O-] (chirality)
N[C@H](CO)CCCC(=O)N[C@@H](Cc1ccccc1)C(=O)[O-] (3D coordinates assigned)
N[C@H](CO)CCCC(=O)N[C@@H](Cc1ccccc1)C(=O)[O-] (optimized conformer: 31.841337074639803 kcal/mol)

>  <smiles>  (10) 
NC(CO)CCCC(=O)NC(Cc1ccccc1)C(=O)O

>  <score_type>  (10) 
oracle

>  <origin>  (10) 
adg

>  <m_score__min__energy>  (10) 
-9.4800000000000004

>  <m_primary>  (10) 
energy

$$$$
10:0
     RDKit          3D

 30 31  0  0  0  0  0  0  0  0999 V2000
   56.8760   25.3140   46.7780 C   0  0  0  0  0  0  0  0  0  0  0  0
   57.3940   26.2390   45.7170 C   0  0  0  0  0  0  0  0  0  0  0  0
   57.5920   25.7710   44.4090 C   0  0  0  0  0  0  0  0  0  0  0  0
   58.1200   26.6200   43.4330 C   0  0  0  0  0  0  0  0  0  0  0  0
   58.4540   27.9370   43.7520 C   0  0  0  0  0  0  0  0  0  0  0  0
   58.2550   28.4230   45.0580 C   0  0  0  0  0  0  0  0  0  0  0  0
   58.6250   29.7640   45.4230 N   0  0  0  0  0  0  0  0  0  0  0  0
   57.7670   30.9080   45.2540 C   0  0  0  0  0  0  0  0  0  0  0  0
   56.5840   30.7510   44.8420 O   0  0  0  0  0  0  0  0  0  0  0  0
   58.2410   32.2780   45.5640 C   0  0  0  0  0  0  0  0  0  0  0  0
   58.1140   33.2920   44.5980 C   0  0  0  0  0  0  0  0  0  0  0  0
   58.5520   34.5910   44.8720 C   0  0  0  0  0  0  0  0  0  0  0  0
   59.1140   34.8950   46.1130 C   0  0  0  0  0  0  0  0  0  0  0  0
   59.2340   33.9000   47.0900 C   0  0  0  0  0  0  0  0  0  0  0  0
   59.7970   34.2190   48.3760 C   0  0  0  0  0  0  0  0  0  0  0  0
   60.2500   34.4750   49.4100 N   0  0  0  0  0  0  0  0  0  0  0  0
   58.7960   32.5970   46.8190 C   0  0  0  0  0  0  0  0  0  0  0  0
   57.7490   27.5580   46.0400 C   0  0  0  0  0  0  0  0  0  0  0  0
   57.1078   25.7280   47.7704 H   0  0  0  0  0  0  0  0  0  0  0  0
   55.7865   25.2067   46.6709 H   0  0  0  0  0  0  0  0  0  0  0  0
   57.3538   24.3290   46.6709 H   0  0  0  0  0  0  0  0  0  0  0  0
   57.3311   24.7339   44.1516 H   0  0  0  0  0  0  0  0  0  0  0  0
   58.2731   26.2488   42.4089 H   0  0  0  0  0  0  0  0  0  0  0  0
   58.8745   28.5979   42.9797 H   0  0  0  0  0  0  0  0  0  0  0  0
   59.5540   29.8870   45.8820 H   0  0  0  0  0  0  0  0  0  0  0  0
   57.6668   33.0614   43.6198 H   0  0  0  0  0  0  0  0  0  0  0  0
   58.4535   35.3757   44.1075 H   0  0  0  0  0  0  0  0  0  0  0  0
   59.4627   35.9169   46.3232 H   0  0  0  0  0  0  0  0  0  0  0  0
   58.8860   31.8184   47.5908 H   0  0  0  0  0  0  0  0  0  0  0  0
   57.6294   27.9170   47.0729 H   0  0  0  0  0  0  0  0  0  0  0  0
  1  2  1  0
  2  3  2  0
  3  4  1  0
  4  5  2  0
  5  6  1  0
  6  7  1  0
  7  8  1  0
  8  9  2  0
  8 10  1  0
 10 11  2  0
 11 12  1  0
 12 13  2  0
 13 14  1  0
 14 15  1  0
 15 16  3  0
 14 17  2  0
  6 18  2  0
 18  2  1  0
 17 10  1  0
  1 19  1  0
  1 20  1  0
  1 21  1  0
  3 22  1  0
  4 23  1  0
  5 24  1  0
  7 25  1  0
 11 26  1  0
 12 27  1  0
 13 28  1  0
 17 29  1  0
 18 30  1  0
M  END
>  <UniqueID>  (11) 
8

>  <SMILES>  (11) 
Cc1cccc(NC(=O)c2cccc(C#N)c2)c1

>  <Energy>  (11) 
36.046304285489164

>  <Genealogy>  (11) 
Cc1cccc(NC(=O)c2cccc(C#N)c2)c1 (3D coordinates assigned)
Cc1cccc(NC(=O)c2cccc(C#N)c2)c1 (optimized conformer: 36.046304285489164 kcal/mol)

>  <smiles>  (11) 
Cc1cccc(NC(=O)c2cccc(C#N)c2)c1

>  <score_type>  (11) 
oracle

>  <origin>  (11) 
adg

>  <m_score__min__energy>  (11) 
-6.8300000000000001

>  <m_primary>  (11) 
energy

$$$$
11:0
     RDKit          3D

 27 29  0  0  0  0  0  0  0  0999 V2000
   58.9771   26.2312   46.3759 H   0  0  0  0  0  0  0  0  0  0  0  0
   58.1230   26.8440   46.0520 C   0  0  0  0  0  0  0  0  0  0  0  0
   58.2070   28.4010   45.4160 S   0  0  0  0  0  0  0  0  0  0  0  0
   56.5430   28.5180   45.2280 C   0  0  0  0  0  0  0  0  0  0  0  0
   55.9480   29.5550   44.7150 N   0  0  0  0  0  0  0  0  0  0  0  0
   56.5880   30.5800   43.9420 C   0  0  0  0  0  0  0  0  0  0  0  0
   56.5630   30.4940   42.6870 O   0  0  0  0  0  0  0  0  0  0  0  0
   57.3240   31.6960   44.5690 C   0  0  0  0  0  0  0  0  0  0  0  0
   57.8490   33.0800   43.7470 S   0  0  0  0  0  0  0  0  0  0  0  0
   58.5950   33.7710   45.0810 C   0  0  0  0  0  0  0  0  0  0  0  0
   59.2710   34.9860   45.1600 C   0  0  0  0  0  0  0  0  0  0  0  0
   59.3679   35.6374   44.2789 H   0  0  0  0  0  0  0  0  0  0  0  0
   59.8250   35.3560   46.3950 C   0  0  0  0  0  0  0  0  0  0  0  0
   60.3640   36.3103   46.4886 H   0  0  0  0  0  0  0  0  0  0  0  0
   59.6950   34.5130   47.5150 C   0  0  0  0  0  0  0  0  0  0  0  0
   60.1334   34.8126   48.4783 H   0  0  0  0  0  0  0  0  0  0  0  0
   59.0080   33.2900   47.4100 C   0  0  0  0  0  0  0  0  0  0  0  0
   58.9050   32.6282   48.2826 H   0  0  0  0  0  0  0  0  0  0  0  0
   58.4590   32.9320   46.1760 C   0  0  0  0  0  0  0  0  0  0  0  0
   57.7530   31.7580   45.8970 C   0  0  0  0  0  0  0  0  0  0  0  0
   57.5572   30.9710   46.6402 H   0  0  0  0  0  0  0  0  0  0  0  0
   55.9060   27.3930   45.6200 N   0  0  0  0  0  0  0  0  0  0  0  0
   56.7820   26.4680   46.0960 C   0  0  0  0  0  0  0  0  0  0  0  0
   56.3310   25.1240   46.5630 C   0  0  0  0  0  0  0  0  0  0  0  0
   56.3234   25.1015   47.6627 H   0  0  0  0  0  0  0  0  0  0  0  0
   55.3171   24.9258   46.1852 H   0  0  0  0  0  0  0  0  0  0  0  0
   57.0201   24.3543   46.1852 H   0  0  0  0  0  0  0  0  0  0  0  0
  1  2  1  0
  2  3  1  0
  3  4  1  0
  4  5  2  0
  5  6  1  0
  6  7  2  0
  6  8  1  0
  8  9  1  0
  9 10  1  0
 10 11  2  0
 11 12  1  0
 11 13  1  0
 13 14  1  0
 13 15  2  0
 15 16  1  0
 15 17  1  0
 17 18  1  0
 17 19  2  0
 19 20  1  0
 20 21  1  0
  4 22  1  0
 22 23  1  0
 23 24  1  0
 24 25  1  0
 24 26  1  0
 24 27  1  0
 23  2  2  0
 20  8  2  0
 19 10  1  0
M  CHG  1  22  -1
M  END
>  <UniqueID>  (12) 
9

>  <SMILES>  (12) 
Cc1cs/c(=N/C(=O)c2cc3ccccc3s2)[n-]1

>  <Energy>  (12) 
94.09966386873161

>  <Genealogy>  (12) 
Cc1csc(=NC(=O)c2cc3ccccc3s2)[n-]1 (protonated)
Cc1cs/c(=N/C(=O)c2cc3ccccc3s2)[n-]1 (cis-trans isomerization)
Cc1cs/c(=N/C(=O)c2cc3ccccc3s2)[n-]1 (3D coordinates assigned)
Cc1cs/c(=N/C(=O)c2cc3ccccc3s2)[n-]1 (optimized conformer: 94.09966386873161 kcal/mol)

>  <smiles>  (12) 
Cc1csc(=NC(=O)c2cc3ccccc3s2)[nH]1

>  <score_type>  (12) 
oracle

>  <origin>  (12) 
adg

>  <m_score__min__energy>  (12) 
-9.2300000000000004

>  <m_primary>  (12) 
energy

$$$$
12:0
     RDKit          3D

 37 38  0  0  0  0  0  0  0  0999 V2000
   59.0790   30.7060   47.6840 C   0  0  0  0  0  0  0  0  0  0  0  0
   60.2330   29.7100   47.5500 C   0  0  0  0  0  0  0  0  0  0  0  0
   59.8160   28.2670   47.8750 C   0  0  0  0  0  0  0  0  0  0  0  0
   60.5480   27.2310   47.0040 C   0  0  0  0  0  0  0  0  0  0  0  0
   59.9780   27.1230   45.6490 N   0  0  0  0  0  0  0  0  0  0  0  0
   58.5260   27.1770   45.6600 C   0  0  0  0  0  0  0  0  0  0  0  0
   57.8480   26.0670   46.2020 C   0  0  0  0  0  0  0  0  0  0  0  0
   56.4610   26.0390   46.2550 C   0  0  0  0  0  0  0  0  0  0  0  0
   55.8660   25.0400   46.7390 O   0  0  0  0  0  0  0  0  0  0  0  0
   55.7440   27.0840   45.7850 N   0  0  0  0  0  0  0  0  0  0  0  0
   56.3340   28.1850   45.2570 C   0  0  0  0  0  0  0  0  0  0  0  0
   55.5440   29.1870   44.8080 N   0  0  0  0  0  0  0  0  0  0  0  0
   56.0640   30.3160   44.2770 C   0  0  0  0  0  0  0  0  0  0  0  0
   57.4130   30.4810   44.1870 N   0  0  0  0  0  0  0  0  0  0  0  0
   57.9310   31.7210   43.5840 C   0  0  0  0  0  0  0  0  0  0  0  0
   57.8230   32.8790   44.5710 C   0  0  0  0  0  0  0  0  0  0  0  0
   58.2640   29.4890   44.6080 C   0  0  0  0  0  0  0  0  0  0  0  0
   59.5040   29.6670   44.4880 O   0  0  0  0  0  0  0  0  0  0  0  0
   57.7470   28.2850   45.1720 C   0  0  0  0  0  0  0  0  0  0  0  0
   58.8712   30.8853   48.7492 H   0  0  0  0  0  0  0  0  0  0  0  0
   59.3549   31.6542   47.1996 H   0  0  0  0  0  0  0  0  0  0  0  0
   58.1813   30.2944   47.1996 H   0  0  0  0  0  0  0  0  0  0  0  0
   60.6074   29.7431   46.5162 H   0  0  0  0  0  0  0  0  0  0  0  0
   61.0076   30.0017   48.2745 H   0  0  0  0  0  0  0  0  0  0  0  0
   60.0441   28.0635   48.9317 H   0  0  0  0  0  0  0  0  0  0  0  0
   58.7394   28.1760   47.6685 H   0  0  0  0  0  0  0  0  0  0  0  0
   61.6043   27.5260   46.9190 H   0  0  0  0  0  0  0  0  0  0  0  0
   60.4375   26.2505   47.4902 H   0  0  0  0  0  0  0  0  0  0  0  0
   60.4280   27.7890   44.9900 H   0  0  0  0  0  0  0  0  0  0  0  0
   60.2590   26.1860   45.2740 H   0  0  0  0  0  0  0  0  0  0  0  0
   58.4242   25.2130   46.5875 H   0  0  0  0  0  0  0  0  0  0  0  0
   55.3922   31.1080   43.9146 H   0  0  0  0  0  0  0  0  0  0  0  0
   58.9862   31.5767   43.3089 H   0  0  0  0  0  0  0  0  0  0  0  0
   57.3358   31.9582   42.6899 H   0  0  0  0  0  0  0  0  0  0  0  0
   57.8594   32.4892   45.5990 H   0  0  0  0  0  0  0  0  0  0  0  0
   58.6601   33.5748   44.4129 H   0  0  0  0  0  0  0  0  0  0  0  0
   56.8716   33.4080   44.4129 H   0  0  0  0  0  0  0  0  0  0  0  0
  1  2  1  0
  2  3  1  0
  3  4  1  0
  4  5  1  0
  5  6  1  0
  6  7  2  0
  7  8  1  0
  8  9  2  0
  8 10  1  0
 10 11  1  0
 11 12  1  0
 12 13  2  0
 13 14  1  0
 14 15  1  0
 15 16  1  0
 14 17  1  0
 17 18  2  0
 17 19  1  0
 19  6  1  0
 19 11  2  0
  1 20  1  0
  1 21  1  0
  1 22  1  0
  2 23  1  0
  2 24  1  0
  3 25  1  0
  3 26  1  0
  4 27  1  0
  4 28  1  0
  5 29  1  0
  5 30  1  0
  7 31  1  0
 13 32  1  0
 15 33  1  0
 15 34  1  0
 16 35  1  0
 16 36  1  0
 16 37  1  0
M  CHG  2   5   1  10  -1
M  END
>  <UniqueID>  (13) 
10

>  <SMILES>  (13) 
CCCC[NH2+]c1cc(=O)[n-]c2ncn(CC)c(=O)c12

>  <Energy>  (13) 
45.367368324047106

>  <Genealogy>  (13) 
CCCC[NH2+]c1cc(=O)[n-]c2ncn(CC)c(=O)c12 (protonated)
CCCC[NH2+]c1cc(=O)[n-]c2ncn(CC)c(=O)c12 (3D coordinates assigned)
CCCC[NH2+]c1cc(=O)[n-]c2ncn(CC)c(=O)c12 (optimized conformer: 45.367368324047106 kcal/mol)

>  <smiles>  (13) 
CCCCNc1cc(=O)[nH]c2ncn(CC)c(=O)c12

>  <score_type>  (13) 
oracle

>  <origin>  (13) 
adg

>  <m_score__min__energy>  (13) 
-6.1200000000000001

>  <m_primary>  (13) 
energy

$$$$
13:0
     RDKit          3D

 46 48  0  0  0  0  0  0  0  0999 V2000
   58.7300   34.3530   45.6900 C   0  0  0  0  0  0  0  0  0  0  0  0
   58.6190   32.8520   45.9380 C   0  0  0  0  0  0  0  0  0  0  0  0
   57.9810   32.1840   44.7940 N   0  0  0  0  0  0  0  0  0  0  0  0
   57.7560   32.9180   43.5430 C   0  0  0  0  0  0  0  0  0  0  0  0
   57.8430   31.9680   42.3540 C   0  0  0  0  0  0  0  0  0  0  0  0
   57.5110   30.8270   44.9130 C   0  0  0  0  0  0  0  0  0  0  0  0
   56.3520   30.5320   44.5120 O   0  0  0  0  0  0  0  0  0  0  0  0
   58.3670   29.7720   45.4950 C   0  0  0  0  0  0  0  0  0  0  0  0
   58.9380   28.7880   44.6760 C   0  0  0  0  0  0  0  0  0  0  0  0
   59.7170   27.7740   45.2370 C   0  0  0  0  0  0  0  0  0  0  0  0
   59.9300   27.7330   46.6180 C   0  0  0  0  0  0  0  0  0  0  0  0
   59.3840   28.7210   47.4520 C   0  0  0  0  0  0  0  0  0  0  0  0
   59.5990   28.6380   48.8770 N   0  0  0  0  0  0  0  0  0  0  0  0
   59.8790   29.7850   49.7430 C   0  0  0  0  0  0  0  0  0  0  0  0
   60.8440   30.7270   49.0920 C   0  0  0  0  0  0  0  0  0  0  0  0
   62.1350   30.8800   49.4810 N   0  0  0  0  0  0  0  0  0  0  0  0
   62.5930   31.8350   48.6570 C   0  0  0  0  0  0  0  0  0  0  0  0
   63.8540   32.4220   48.6230 C   0  0  0  0  0  0  0  0  0  0  0  0
   64.0740   33.4320   47.6660 C   0  0  0  0  0  0  0  0  0  0  0  0
   63.0390   33.8200   46.7820 C   0  0  0  0  0  0  0  0  0  0  0  0
   61.7750   33.2030   46.8480 C   0  0  0  0  0  0  0  0  0  0  0  0
   61.5940   32.2120   47.8090 C   0  0  0  0  0  0  0  0  0  0  0  0
   60.5170   31.5190   48.0820 O   0  0  0  0  0  0  0  0  0  0  0  0
   58.6230   29.7560   46.8740 C   0  0  0  0  0  0  0  0  0  0  0  0
   58.7691   34.8820   46.6537 H   0  0  0  0  0  0  0  0  0  0  0  0
   59.6462   34.5635   45.1187 H   0  0  0  0  0  0  0  0  0  0  0  0
   57.8548   34.6960   45.1187 H   0  0  0  0  0  0  0  0  0  0  0  0
   59.6260   32.4344   46.0848 H   0  0  0  0  0  0  0  0  0  0  0  0
   58.0035   32.6853   46.8343 H   0  0  0  0  0  0  0  0  0  0  0  0
   56.7580   33.3801   43.5670 H   0  0  0  0  0  0  0  0  0  0  0  0
   58.5268   33.6958   43.4389 H   0  0  0  0  0  0  0  0  0  0  0  0
   57.9377   30.9340   42.7170 H   0  0  0  0  0  0  0  0  0  0  0  0
   56.9326   32.0604   41.7435 H   0  0  0  0  0  0  0  0  0  0  0  0
   58.7214   32.2242   41.7435 H   0  0  0  0  0  0  0  0  0  0  0  0
   58.7720   28.8147   43.5889 H   0  0  0  0  0  0  0  0  0  0  0  0
   60.1645   27.0050   44.5902 H   0  0  0  0  0  0  0  0  0  0  0  0
   60.5298   26.9206   47.0541 H   0  0  0  0  0  0  0  0  0  0  0  0
   59.5570   27.6980   49.3320 H   0  0  0  0  0  0  0  0  0  0  0  0
   58.9391   30.3183   49.9485 H   0  0  0  0  0  0  0  0  0  0  0  0
   60.3261   29.4167   50.6782 H   0  0  0  0  0  0  0  0  0  0  0  0
   62.6430   30.3930   50.2520 H   0  0  0  0  0  0  0  0  0  0  0  0
   64.6485   32.1095   49.3166 H   0  0  0  0  0  0  0  0  0  0  0  0
   65.0568   33.9224   47.6053 H   0  0  0  0  0  0  0  0  0  0  0  0
   63.2233   34.6091   46.0382 H   0  0  0  0  0  0  0  0  0  0  0  0
   60.9617   33.4929   46.1664 H   0  0  0  0  0  0  0  0  0  0  0  0
   58.2254   30.5600   47.5107 H   0  0  0  0  0  0  0  0  0  0  0  0
  1  2  1  0
  2  3  1  0
  3  4  1  0
  4  5  1  0
  3  6  1  0
  6  7  2  0
  6  8  1  0
  8  9  2  0
  9 10  1  0
 10 11  2  0
 11 12  1  0
 12 13  1  0
 13 14  1  0
 14 15  1  0
 15 16  2  0
 16 17  1  0
 17 18  2  0
 18 19  1  0
 19 20  2  0
 20 21  1  0
 21 22  2  0
 22 23  1  0
 12 24  2  0
 24  8  1  0
 23 15  1  0
 22 17  1  0
  1 25  1  0
  1 26  1  0
  1 27  1  0
  2 28  1  0
  2 29  1  0
  4 30  1  0
  4 31  1  0
  5 32  1  0
  5 33  1  0
  5 34  1  0
  9 35  1  0
 10 36  1  0
 11 37  1  0
 13 38  1  0
 14 39  1  0
 14 40  1  0
 16 41  1  0
 18 42  1  0
 19 43  1  0
 20 44  1  0
 21 45  1  0
 24 46  1  0
M  CHG  1  16   1
M  END
>  <UniqueID>  (14) 
11

>  <SMILES>  (14) 
CCN(CC)C(=O)c1cccc(NCc2[nH+]c3ccccc3o2)c1

>  <Energy>  (14) 
80.14137419927937

>  <Genealogy>  (14) 
CCN(CC)C(=O)c1cccc(NCc2[nH+]c3ccccc3o2)c1 (protonated)
CCN(CC)C(=O)c1cccc(NCc2[nH+]c3ccccc3o2)c1 (3D coordinates assigned)
CCN(CC)C(=O)c1cccc(NCc2[nH+]c3ccccc3o2)c1 (optimized conformer: 80.14137419927937 kcal/mol)

>  <smiles>  (14) 
CCN(CC)C(=O)c1cccc(NCc2nc3ccccc3o2)c1

>  <score_type>  (14) 
oracle

>  <origin>  (14) 
adg

>  <m_score__min__energy>  (14) 
-6.7400000000000002

>  <m_primary>  (14) 
energy

$$$$
14:0
     RDKit          3D

 27 29  0  0  0  0  0  0  0  0999 V2000
   56.9660   26.9780   45.6490 C   0  0  0  0  0  0  0  0  0  0  0  0
   56.1740   28.0900   45.2440 O   0  0  0  0  0  0  0  0  0  0  0  0
   56.6880   29.3280   44.8290 C   0  0  0  0  0  0  0  0  0  0  0  0
   56.4870   29.7100   43.5020 C   0  0  0  0  0  0  0  0  0  0  0  0
   56.9750   30.9280   43.0330 C   0  0  0  0  0  0  0  0  0  0  0  0
   57.6740   31.7840   43.8870 C   0  0  0  0  0  0  0  0  0  0  0  0
   58.1360   32.9640   43.3990 N   0  0  0  0  0  0  0  0  0  0  0  0
   58.8230   33.8430   44.1670 C   0  0  0  0  0  0  0  0  0  0  0  0
   59.0780   33.5560   45.5110 C   0  0  0  0  0  0  0  0  0  0  0  0
   59.7880   34.4710   46.2970 C   0  0  0  0  0  0  0  0  0  0  0  0
   60.0390   34.1770   47.6330 C   0  0  0  0  0  0  0  0  0  0  0  0
   59.5970   33.0110   48.1700 N   0  0  0  0  0  0  0  0  0  0  0  0
   58.9050   32.0980   47.4360 C   0  0  0  0  0  0  0  0  0  0  0  0
   58.6180   32.3390   46.0710 C   0  0  0  0  0  0  0  0  0  0  0  0
   57.8980   31.4280   45.2420 C   0  0  0  0  0  0  0  0  0  0  0  0
   57.3930   30.1850   45.6990 C   0  0  0  0  0  0  0  0  0  0  0  0
   56.9988   26.9319   46.7475 H   0  0  0  0  0  0  0  0  0  0  0  0
   56.5239   26.0505   45.2561 H   0  0  0  0  0  0  0  0  0  0  0  0
   57.9870   27.0926   45.2561 H   0  0  0  0  0  0  0  0  0  0  0  0
   55.9384   29.0436   42.8201 H   0  0  0  0  0  0  0  0  0  0  0  0
   56.8088   31.2168   41.9847 H   0  0  0  0  0  0  0  0  0  0  0  0
   59.1819   34.7870   43.7311 H   0  0  0  0  0  0  0  0  0  0  0  0
   60.1449   35.4158   45.8612 H   0  0  0  0  0  0  0  0  0  0  0  0
   60.5972   34.8911   48.2563 H   0  0  0  0  0  0  0  0  0  0  0  0
   59.7950   32.8090   49.1760 H   0  0  0  0  0  0  0  0  0  0  0  0
   58.5655   31.1640   47.9076 H   0  0  0  0  0  0  0  0  0  0  0  0
   57.5530   29.8852   46.7452 H   0  0  0  0  0  0  0  0  0  0  0  0
  1  2  1  0
  2  3  1  0
  3  4  2  0
  4  5  1  0
  5  6  2  0
  6  7  1  0
  7  8  2  0
  8  9  1  0
  9 10  2  0
 10 11  1  0
 11 12  2  0
 12 13  1  0
 13 14  2  0
 14 15  1  0
 15 16  2  0
 16  3  1  0
 15  6  1  0
 14  9  1  0
  1 17  1  0
  1 18  1  0
  1 19  1  0
  4 20  1  0
  5 21  1  0
  8 22  1  0
 10 23  1  0
 11 24  1  0
 12 25  1  0
 13 26  1  0
 16 27  1  0
M  CHG  1  12   1
M  END
>  <UniqueID>  (15) 
12

>  <SMILES>  (15) 
COc1ccc2ncc3cc[nH+]cc3c2c1

>  <Energy>  (15) 
40.005523320771815

>  <Genealogy>  (15) 
COc1ccc2ncc3cc[nH+]cc3c2c1 (protonated)
COc1ccc2ncc3cc[nH+]cc3c2c1 (3D coordinates assigned)
COc1ccc2ncc3cc[nH+]cc3c2c1 (optimized conformer: 40.005523320771815 kcal/mol)

>  <smiles>  (15) 
COc1ccc2ncc3ccncc3c2c1

>  <score_type>  (15) 
oracle

>  <origin>  (15) 
adg

>  <m_score__min__energy>  (15) 
-4.5999999999999996

>  <m_primary>  (15) 
energy

$$$$
15:0
     RDKit          3D

 39 40  0  0  0  0  0  0  0  0999 V2000
   60.6250   32.3210   47.1020 C   0  0  0  0  0  0  0  0  0  0  0  0
   59.1550   32.1060   46.7590 C   0  0  0  0  0  0  0  0  0  0  0  0
   58.4370   33.4020   46.7400 N   0  0  0  0  0  0  0  0  0  0  0  0
   59.2350   34.4670   47.3890 C   0  0  0  0  0  0  0  0  0  0  0  0
   59.6760   35.5030   46.3580 C   0  0  0  0  0  0  0  0  0  0  0  0
   58.0700   33.7840   45.3600 C   0  0  0  0  0  0  0  0  0  0  0  0
   57.6210   32.5760   44.5980 C   0  0  0  0  0  0  0  0  0  0  0  0
   58.0230   32.2320   43.3220 C   0  0  0  0  0  0  0  0  0  0  0  0
   57.3400   31.0730   43.0160 C   0  0  0  0  0  0  0  0  0  0  0  0
   56.5620   30.7910   44.1240 C   0  0  0  0  0  0  0  0  0  0  0  0
   55.6560   29.6370   44.2720 C   0  0  0  0  0  0  0  0  0  0  0  0
   54.6830   29.5110   43.4820 O   0  0  0  0  0  0  0  0  0  0  0  0
   55.8960   28.6140   45.2460 N   0  0  0  0  0  0  0  0  0  0  0  0
   57.1790   28.1060   45.6370 C   0  0  0  0  0  0  0  0  0  0  0  0
   58.0750   28.9570   46.2970 C   0  0  0  0  0  0  0  0  0  0  0  0
   59.3420   28.4970   46.6670 C   0  0  0  0  0  0  0  0  0  0  0  0
   59.7300   27.1890   46.3620 C   0  0  0  0  0  0  0  0  0  0  0  0
   58.8530   26.3430   45.6770 C   0  0  0  0  0  0  0  0  0  0  0  0
   57.5840   26.7990   45.3080 C   0  0  0  0  0  0  0  0  0  0  0  0
   56.7540   31.7010   45.0510 O   0  0  0  0  0  0  0  0  0  0  0  0
   60.7477   32.3389   48.1950 H   0  0  0  0  0  0  0  0  0  0  0  0
   61.2239   31.5009   46.6792 H   0  0  0  0  0  0  0  0  0  0  0  0
   60.9640   33.2783   46.6792 H   0  0  0  0  0  0  0  0  0  0  0  0
   59.0787   31.6342   45.7682 H   0  0  0  0  0  0  0  0  0  0  0  0
   58.7008   31.4562   47.5215 H   0  0  0  0  0  0  0  0  0  0  0  0
   58.6238   34.9596   48.1596 H   0  0  0  0  0  0  0  0  0  0  0  0
   60.1278   34.0159   47.8467 H   0  0  0  0  0  0  0  0  0  0  0  0
   60.0562   36.3962   46.8753 H   0  0  0  0  0  0  0  0  0  0  0  0
   60.4711   35.0778   45.7279 H   0  0  0  0  0  0  0  0  0  0  0  0
   58.8184   35.7814   45.7279 H   0  0  0  0  0  0  0  0  0  0  0  0
   57.2532   34.5201   45.3905 H   0  0  0  0  0  0  0  0  0  0  0  0
   58.9470   34.2214   44.8604 H   0  0  0  0  0  0  0  0  0  0  0  0
   58.7386   32.7701   42.6830 H   0  0  0  0  0  0  0  0  0  0  0  0
   57.4016   30.4930   42.0833 H   0  0  0  0  0  0  0  0  0  0  0  0
   57.7801   29.9919   46.5251 H   0  0  0  0  0  0  0  0  0  0  0  0
   60.0350   29.1653   47.1991 H   0  0  0  0  0  0  0  0  0  0  0  0
   60.7244   26.8259   46.6608 H   0  0  0  0  0  0  0  0  0  0  0  0
   59.1618   25.3170   45.4280 H   0  0  0  0  0  0  0  0  0  0  0  0
   56.9004   26.1346   44.7592 H   0  0  0  0  0  0  0  0  0  0  0  0
  1  2  1  0
  2  3  1  0
  3  4  1  0
  4  5  1  0
  3  6  1  0
  6  7  1  0
  7  8  2  0
  8  9  1  0
  9 10  2  0
 10 11  1  0
 11 12  2  0
 11 13  1  0
 13 14  1  0
 14 15  2  0
 15 16  1  0
 16 17  2  0
 17 18  1  0
 18 19  2  0
 10 20  1  0
 20  7  1  0
 19 14  1  0
  1 21  1  0
  1 22  1  0
  1 23  1  0
  2 24  1  0
  2 25  1  0
  4 26  1  0
  4 27  1  0
  5 28  1  0
  5 29  1  0
  5 30  1  0
  6 31  1  0
  6 32  1  0
  8 33  1  0
  9 34  1  0
 15 35  1  0
 16 36  1  0
 17 37  1  0
 18 38  1  0
 19 39  1  0
M  CHG  1  13  -1
M  END
>  <UniqueID>  (16) 
13

>  <SMILES>  (16) 
CCN(CC)Cc1ccc(C(=O)[N-]c2ccccc2)o1

>  <Energy>  (16) 
64.76863866386545

>  <Genealogy>  (16) 
CCN(CC)Cc1ccc(C(=O)[N-]c2ccccc2)o1 (protonated)
CCN(CC)Cc1ccc(C(=O)[N-]c2ccccc2)o1 (3D coordinates assigned)
CCN(CC)Cc1ccc(C(=O)[N-]c2ccccc2)o1 (optimized conformer: 64.76863866386545 kcal/mol)

>  <smiles>  (16) 
CCN(CC)Cc1ccc(C(=O)Nc2ccccc2)o1

>  <score_type>  (16) 
oracle

>  <origin>  (16) 
adg

>  <m_score__min__energy>  (16) 
-8.7899999999999991

>  <m_primary>  (16) 
energy

$$$$
16:0
     RDKit          3D

 34 36  0  0  0  0  0  0  0  0999 V2000
   57.7610   34.2250   44.8770 C   0  0  0  0  0  0  0  0  0  0  0  0
   58.1420   32.8170   44.4500 C   0  0  0  0  0  0  0  0  0  0  0  0
   57.9070   31.9140   45.5280 O   0  0  0  0  0  0  0  0  0  0  0  0
   57.9960   30.5310   45.4190 N   0  0  0  0  0  0  0  0  0  0  0  0
   59.1060   29.8410   45.8310 C   0  0  0  0  0  0  0  0  0  0  0  0
   59.1660   28.4520   45.7100 C   0  0  0  0  0  0  0  0  0  0  0  0
   58.0850   27.7500   45.1600 C   0  0  0  0  0  0  0  0  0  0  0  0
   58.1350   26.2730   45.0240 C   0  0  0  0  0  0  0  0  0  0  0  0
   58.9810   25.5070   45.8460 C   0  0  0  0  0  0  0  0  0  0  0  0
   59.0070   24.1560   45.7160 N   0  0  0  0  0  0  0  0  0  0  0  0
   58.2330   23.5200   44.8020 C   0  0  0  0  0  0  0  0  0  0  0  0
   58.2760   22.1270   44.6800 C   0  0  0  0  0  0  0  0  0  0  0  0
   57.4730   21.4840   43.7320 C   0  0  0  0  0  0  0  0  0  0  0  0
   56.6280   22.2320   42.9050 C   0  0  0  0  0  0  0  0  0  0  0  0
   56.5790   23.6250   43.0220 C   0  0  0  0  0  0  0  0  0  0  0  0
   57.3810   24.2770   43.9710 C   0  0  0  0  0  0  0  0  0  0  0  0
   57.3510   25.6340   44.1030 N   0  0  0  0  0  0  0  0  0  0  0  0
   56.9590   28.4740   44.7430 C   0  0  0  0  0  0  0  0  0  0  0  0
   56.9320   29.8650   44.8810 C   0  0  0  0  0  0  0  0  0  0  0  0
   55.9110   30.5030   44.5060 O   0  0  0  0  0  0  0  0  0  0  0  0
   57.7452   34.2834   45.9753 H   0  0  0  0  0  0  0  0  0  0  0  0
   58.4980   34.9399   44.4824 H   0  0  0  0  0  0  0  0  0  0  0  0
   56.7641   34.4707   44.4824 H   0  0  0  0  0  0  0  0  0  0  0  0
   57.5338   32.5194   43.5831 H   0  0  0  0  0  0  0  0  0  0  0  0
   59.2071   32.7922   44.1762 H   0  0  0  0  0  0  0  0  0  0  0  0
   59.9582   30.3874   46.2614 H   0  0  0  0  0  0  0  0  0  0  0  0
   60.0613   27.9085   46.0462 H   0  0  0  0  0  0  0  0  0  0  0  0
   59.6200   26.0015   46.5924 H   0  0  0  0  0  0  0  0  0  0  0  0
   58.9406   21.5378   45.3289 H   0  0  0  0  0  0  0  0  0  0  0  0
   57.5060   20.3886   43.6366 H   0  0  0  0  0  0  0  0  0  0  0  0
   55.9996   21.7225   42.1597 H   0  0  0  0  0  0  0  0  0  0  0  0
   55.9122   24.2089   42.3705 H   0  0  0  0  0  0  0  0  0  0  0  0
   56.7350   26.1940   43.4720 H   0  0  0  0  0  0  0  0  0  0  0  0
   56.0970   27.9476   44.3073 H   0  0  0  0  0  0  0  0  0  0  0  0
  1  2  1  0
  2  3  1  0
  3  4  1  0
  4  5  1  0
  5  6  2  0
  6  7  1  0
  7  8  1  0
  8  9  2  0
  9 10  1  0
 10 11  2  0
 11 12  1  0
 12 13  2  0
 13 14  1  0
 14 15  2  0
 15 16  1  0
 16 17  2  0
  7 18  2  0
 18 19  1  0
 19 20  2  0
 19  4  1  0
 17  8  1  0
 16 11  1  0
  1 21  1  0
  1 22  1  0
  1 23  1  0
  2 24  1  0
  2 25  1  0
  5 26  1  0
  6 27  1  0
  9 28  1  0
 12 29  1  0
 13 30  1  0
 14 31  1  0
 15 32  1  0
 17 33  1  0
 18 34  1  0
M  CHG  1  17   1
M  END
>  <UniqueID>  (17) 
14

>  <SMILES>  (17) 
CCOn1ccc(-c2cnc3ccccc3[nH+]2)cc1=O

>  <Energy>  (17) 
43.793837454926

>  <Genealogy>  (17) 
CCOn1ccc(-c2cnc3ccccc3[nH+]2)cc1=O (protonated)
CCOn1ccc(-c2cnc3ccccc3[nH+]2)cc1=O (3D coordinates assigned)
CCOn1ccc(-c2cnc3ccccc3[nH+]2)cc1=O (optimized conformer: 43.793837454926 kcal/mol)

>  <smiles>  (17) 
CCOn1ccc(-c2cnc3ccccc3n2)cc1=O

>  <score_type>  (17) 
oracle

>  <origin>  (17) 
adg

>  <m_score__min__energy>  (17) 
-5.6100000000000003

>  <m_primary>  (17) 
energy

$$$$
17:0
     RDKit          3D

 40 41  0  0  0  0  0  0  0  0999 V2000
   56.1080   23.7630   47.0210 C   0  0  0  0  0  0  0  0  0  0  0  0
   54.6960   23.9250   46.4600 C   0  0  0  0  0  0  0  0  0  0  0  0
   54.5560   25.1760   45.5830 C   0  0  0  0  0  0  0  0  0  0  0  0
   55.2740   26.3190   46.1440 N   0  0  0  0  0  0  0  0  0  0  0  0
   56.6850   26.5580   46.0500 C   0  0  0  0  0  0  0  0  0  0  0  0
   57.3460   26.7140   47.1110 O   0  0  0  0  0  0  0  0  0  0  0  0
   57.3930   26.6010   44.7580 C   0  0  0  0  0  0  0  0  0  0  0  0
   57.8730   27.7260   44.1120 C   0  0  0  0  0  0  0  0  0  0  0  0
   57.8480   29.1120   44.6130 C   0  0  0  0  0  0  0  0  0  0  0  0
   58.5760   29.4310   45.7680 C   0  0  0  0  0  0  0  0  0  0  0  0
   58.5670   30.7300   46.2740 C   0  0  0  0  0  0  0  0  0  0  0  0
   57.8120   31.7290   45.6430 C   0  0  0  0  0  0  0  0  0  0  0  0
   57.8210   33.1340   46.1700 C   0  0  0  0  0  0  0  0  0  0  0  0
   57.0870   31.4190   44.4830 C   0  0  0  0  0  0  0  0  0  0  0  0
   57.0990   30.1160   43.9560 C   0  0  0  0  0  0  0  0  0  0  0  0
   56.2610   29.7960   42.7450 C   0  0  0  0  0  0  0  0  0  0  0  0
   58.3400   27.3650   42.9020 N   0  0  0  0  0  0  0  0  0  0  0  0
   58.1450   26.0880   42.7580 O   0  0  0  0  0  0  0  0  0  0  0  0
   57.5660   25.5840   43.8270 C   0  0  0  0  0  0  0  0  0  0  0  0
   57.1350   24.1580   43.9350 C   0  0  0  0  0  0  0  0  0  0  0  0
   56.0685   23.7675   48.1203 H   0  0  0  0  0  0  0  0  0  0  0  0
   56.5336   22.8101   46.6733 H   0  0  0  0  0  0  0  0  0  0  0  0
   56.7384   24.5947   46.6733 H   0  0  0  0  0  0  0  0  0  0  0  0
   54.4527   23.0397   45.8542 H   0  0  0  0  0  0  0  0  0  0  0  0
   54.0070   24.0325   47.3107 H   0  0  0  0  0  0  0  0  0  0  0  0
   54.9613   24.9570   44.5841 H   0  0  0  0  0  0  0  0  0  0  0  0
   53.4887   25.4370   45.5299 H   0  0  0  0  0  0  0  0  0  0  0  0
   59.1587   28.6503   46.2788 H   0  0  0  0  0  0  0  0  0  0  0  0
   59.1545   30.9722   47.1718 H   0  0  0  0  0  0  0  0  0  0  0  0
   57.8209   33.1131   47.2698 H   0  0  0  0  0  0  0  0  0  0  0  0
   58.7225   33.6537   45.8133 H   0  0  0  0  0  0  0  0  0  0  0  0
   56.9262   33.6652   45.8133 H   0  0  0  0  0  0  0  0  0  0  0  0
   56.5028   32.2039   43.9804 H   0  0  0  0  0  0  0  0  0  0  0  0
   55.2786   29.4208   43.0677 H   0  0  0  0  0  0  0  0  0  0  0  0
   56.1260   30.7058   42.1417 H   0  0  0  0  0  0  0  0  0  0  0  0
   56.7668   29.0277   42.1417 H   0  0  0  0  0  0  0  0  0  0  0  0
   58.7670   27.9900   42.1820 H   0  0  0  0  0  0  0  0  0  0  0  0
   57.0509   23.8797   44.9959 H   0  0  0  0  0  0  0  0  0  0  0  0
   56.1586   24.0319   43.4443 H   0  0  0  0  0  0  0  0  0  0  0  0
   57.8781   23.5122   43.4443 H   0  0  0  0  0  0  0  0  0  0  0  0
  1  2  1  0
  2  3  1  0
  3  4  1  0
  4  5  1  0
  5  6  2  0
  5  7  1  0
  7  8  1  0
  8  9  1  0
  9 10  2  0
 10 11  1  0
 11 12  2  0
 12 13  1  0
 12 14  1  0
 14 15  2  0
 15 16  1  0
  8 17  2  0
 17 18  1  0
 18 19  1  0
 19 20  1  0
 19  7  2  0
 15  9  1  0
  1 21  1  0
  1 22  1  0
  1 23  1  0
  2 24  1  0
  2 25  1  0
  3 26  1  0
  3 27  1  0
 10 28  1  0
 11 29  1  0
 13 30  1  0
 13 31  1  0
 13 32  1  0
 14 33  1  0
 16 34  1  0
 16 35  1  0
 16 36  1  0
 17 37  1  0
 20 38  1  0
 20 39  1  0
 20 40  1  0
M  CHG  2   4  -1  17   1
M  END
>  <UniqueID>  (18) 
15

>  <SMILES>  (18) 
CCC[N-]C(=O)c1c(-c2ccc(C)cc2C)[nH+]oc1C

>  <Energy>  (18) 
75.89272924741175

>  <Genealogy>  (18) 
CCC[N-]C(=O)c1c(-c2ccc(C)cc2C)[nH+]oc1C (protonated)
CCC[N-]C(=O)c1c(-c2ccc(C)cc2C)[nH+]oc1C (3D coordinates assigned)
CCC[N-]C(=O)c1c(-c2ccc(C)cc2C)[nH+]oc1C (optimized conformer: 75.89272924741175 kcal/mol)

>  <smiles>  (18) 
CCCNC(=O)c1c(-c2ccc(C)cc2C)noc1C

>  <score_type>  (18) 
oracle

>  <origin>  (18) 
adg

>  <m_score__min__energy>  (18) 
-7.75

>  <m_primary>  (18) 
energy

$$$$
18:0
     RDKit          3D

 20 20  0  0  0  0  0  0  0  0999 V2000
   59.9036   31.6688   47.2416 H   0  0  0  0  0  0  0  0  0  0  0  0
   59.0920   32.1510   46.6770 C   0  0  0  0  0  0  0  0  0  0  0  0
   58.2620   31.4000   45.9040 N   0  0  0  0  0  0  0  0  0  0  0  0
   57.2430   31.9560   45.1880 C   0  0  0  0  0  0  0  0  0  0  0  0
   56.4530   31.2250   44.4530 N   0  0  0  0  0  0  0  0  0  0  0  0
   56.2550   29.8050   44.5470 C   0  0  0  0  0  0  0  0  0  0  0  0
   55.1450   29.3190   44.8970 O   0  0  0  0  0  0  0  0  0  0  0  0
   57.4060   28.8870   44.2720 C   0  0  0  0  0  0  0  0  0  0  0  0
   57.2059   28.3234   43.3488 H   0  0  0  0  0  0  0  0  0  0  0  0
   57.5204   28.1982   45.1220 H   0  0  0  0  0  0  0  0  0  0  0  0
   58.6440   29.6460   44.1120 N   0  0  0  0  0  0  0  0  0  0  0  0
   58.4270   30.6380   43.8600 H   0  0  0  0  0  0  0  0  0  0  0  0
   59.1730   29.6340   45.0140 H   0  0  0  0  0  0  0  0  0  0  0  0
   59.2370   29.2140   43.3660 H   0  0  0  0  0  0  0  0  0  0  0  0
   57.0370   33.3400   45.2450 C   0  0  0  0  0  0  0  0  0  0  0  0
   56.2178   33.8021   44.6747 H   0  0  0  0  0  0  0  0  0  0  0  0
   57.8790   34.1290   46.0310 C   0  0  0  0  0  0  0  0  0  0  0  0
   57.7270   35.2173   46.0803 H   0  0  0  0  0  0  0  0  0  0  0  0
   58.9140   33.5340   46.7540 C   0  0  0  0  0  0  0  0  0  0  0  0
   59.9800   34.5130   47.7460 Cl  0  0  0  0  0  0  0  0  0  0  0  0
  1  2  1  0
  2  3  1  0
  3  4  1  0
  4  5  2  0
  5  6  1  0
  6  7  2  0
  6  8  1  0
  8  9  1  0
  8 10  1  0
  8 11  1  0
 11 12  1  0
 11 13  1  0
 11 14  1  0
  4 15  1  0
 15 16  1  0
 15 17  2  0
 17 18  1  0
 17 19  1  0
 19 20  1  0
 19  2  2  0
M  CHG  2   3  -1  11   1
M  END
>  <UniqueID>  (19) 
16

>  <SMILES>  (19) 
[NH3+]CC(=O)/N=c1/ccc(Cl)c[n-]1

>  <Energy>  (19) 
18.944807962070744

>  <Genealogy>  (19) 
[NH3+]CC(=O)N=c1ccc(Cl)c[n-]1 (protonated)
[NH3+]CC(=O)/N=c1/ccc(Cl)c[n-]1 (cis-trans isomerization)
[NH3+]CC(=O)/N=c1/ccc(Cl)c[n-]1 (3D coordinates assigned)
[NH3+]CC(=O)/N=c1/ccc(Cl)c[n-]1 (optimized conformer: 18.944807962070744 kcal/mol)

>  <smiles>  (19) 
NCC(=O)N=c1ccc(Cl)c[nH]1

>  <score_type>  (19) 
oracle

>  <origin>  (19) 
adg

>  <m_score__min__energy>  (19) 
-4.79

>  <m_primary>  (19) 
energy

$$$$
19:0
     RDKit          3D

 39 38  0  0  0  0  0  0  0  0999 V2000
   58.2518   31.1933   47.8303 H   0  0  0  0  0  0  0  0  0  0  0  0
   58.5710   30.9550   46.8050 C   0  0  0  0  0  0  0  0  0  0  0  0
   56.0700   27.1840   45.6340 C   0  0  0  0  0  0  0  0  0  0  0  0
   55.6550   28.3020   45.2330 O   0  0  0  0  0  0  0  0  0  0  0  0
   55.1470   26.2400   46.0620 O   0  0  0  0  0  0  0  0  0  0  0  0
   58.5060   27.4200   44.9700 C   0  0  0  0  0  0  0  0  0  0  0  0
   59.6250   28.6910   46.8010 C   0  0  0  0  0  0  0  0  0  0  0  0
   57.7984   26.0210   46.3470 H   0  0  0  0  0  0  0  0  0  0  0  0
   57.5090   26.8400   45.6720 C   0  0  0  0  0  0  0  0  0  0  0  0
   59.6910   27.8840   45.7270 C   0  0  0  0  0  0  0  0  0  0  0  0
   60.6835   27.5490   45.3913 H   0  0  0  0  0  0  0  0  0  0  0  0
   59.6440   30.1660   46.6540 C   0  0  0  0  0  0  0  0  0  0  0  0
   60.6024   30.6448   46.4044 H   0  0  0  0  0  0  0  0  0  0  0  0
   57.7720   31.5380   45.6700 C   0  0  0  0  0  0  0  0  0  0  0  0
   57.0471   32.2599   46.0743 H   0  0  0  0  0  0  0  0  0  0  0  0
   58.4640   32.0345   44.9738 H   0  0  0  0  0  0  0  0  0  0  0  0
   57.0480   30.4880   44.9400 N   0  0  0  0  0  0  0  0  0  0  0  0
   56.2210   30.1930   45.5100 H   0  0  0  0  0  0  0  0  0  0  0  0
   56.6100   30.9150   43.5970 C   0  0  0  0  0  0  0  0  0  0  0  0
   55.6951   31.5167   43.7015 H   0  0  0  0  0  0  0  0  0  0  0  0
   57.7220   31.7470   42.9580 C   0  0  0  0  0  0  0  0  0  0  0  0
   58.3358   32.2062   43.7469 H   0  0  0  0  0  0  0  0  0  0  0  0
   58.3532   31.0976   42.3337 H   0  0  0  0  0  0  0  0  0  0  0  0
   57.2771   32.5358   42.3337 H   0  0  0  0  0  0  0  0  0  0  0  0
   56.2640   29.7150   42.7000 C   0  0  0  0  0  0  0  0  0  0  0  0
   56.0139   28.8475   43.3284 H   0  0  0  0  0  0  0  0  0  0  0  0
   55.4023   29.9683   42.0649 H   0  0  0  0  0  0  0  0  0  0  0  0
   57.1283   29.4707   42.0649 H   0  0  0  0  0  0  0  0  0  0  0  0
   59.4080   28.0810   48.1570 C   0  0  0  0  0  0  0  0  0  0  0  0
   59.6687   28.8139   48.9347 H   0  0  0  0  0  0  0  0  0  0  0  0
   58.3520   27.7923   48.2645 H   0  0  0  0  0  0  0  0  0  0  0  0
   60.0444   27.1903   48.2645 H   0  0  0  0  0  0  0  0  0  0  0  0
   58.5510   27.4860   43.4570 C   0  0  0  0  0  0  0  0  0  0  0  0
   59.5999   27.4512   43.1275 H   0  0  0  0  0  0  0  0  0  0  0  0
   58.0740   28.4235   43.1351 H   0  0  0  0  0  0  0  0  0  0  0  0
   57.7930   26.3180   42.8300 C   0  0  0  0  0  0  0  0  0  0  0  0
   57.3792   25.6804   43.6251 H   0  0  0  0  0  0  0  0  0  0  0  0
   56.9735   26.7051   42.2066 H   0  0  0  0  0  0  0  0  0  0  0  0
   58.4803   25.7272   42.2066 H   0  0  0  0  0  0  0  0  0  0  0  0
  1  2  1  0
  2  3  1  0
  3  4  2  0
  3  5  1  0
  2  6  2  0
  6  7  1  0
  7  8  1  0
  7  9  2  0
  9 10  1  0
 10 11  1  0
 10 12  2  0
 12 13  1  0
 12 14  1  0
 14 15  1  0
 14 16  1  0
 14 17  1  0
 17 18  1  0
 17 19  1  0
 19 20  1  0
 19 21  1  0
 21 22  1  0
 21 23  1  0
 21 24  1  0
 19 25  1  0
 25 26  1  0
 25 27  1  0
 25 28  1  0
  9 29  1  0
 29 30  1  0
 29 31  1  0
 29 32  1  0
  6 33  1  0
 33 34  1  0
 33 35  1  0
 33 36  1  0
 36 37  1  0
 36 38  1  0
 36 39  1  0
M  CHG  1   5  -1
M  END
>  <UniqueID>  (20) 
17

>  <SMILES>  (20) 
CCC(=CC(=O)[O-])/C=C(C)\C=C/CNC(C)C

>  <Energy>  (20) 
40.54186108218833

>  <Genealogy>  (20) 
CCC(C=C(C)C=CCNC(C)C)=CC(=O)[O-] (protonated)
CCC(=CC(=O)[O-])/C=C(C)\C=C/CNC(C)C (cis-trans isomerization)
CCC(=CC(=O)[O-])/C=C(C)\C=C/CNC(C)C (3D coordinates assigned)
CCC(=CC(=O)[O-])/C=C(C)\C=C/CNC(C)C (optimized conformer: 40.54186108218833 kcal/mol)

>  <smiles>  (20) 
CCC(C=C(C)C=CCNC(C)C)=CC(=O)O

>  <score_type>  (20) 
oracle

>  <origin>  (20) 
adg

>  <m_score__min__energy>  (20) 
-9.0199999999999996

>  <m_primary>  (20) 
energy

$$$$
20:0
     RDKit          3D

 37 39  0  0  0  0  0  0  0  0999 V2000
   55.1280   26.7140   45.9940 O   0  0  0  0  0  0  0  0  0  0  0  0
   56.2480   26.3700   46.4580 C   0  0  0  0  0  0  0  0  0  0  0  0
   56.3990   25.0880   46.9750 O   0  0  0  0  0  0  0  0  0  0  0  0
   57.3860   27.3140   46.4530 C   0  0  0  0  0  0  0  0  0  0  0  0
   57.3860   28.4220   45.5870 C   0  0  0  0  0  0  0  0  0  0  0  0
   58.4590   29.3170   45.5810 C   0  0  0  0  0  0  0  0  0  0  0  0
   59.5520   29.1200   46.4380 C   0  0  0  0  0  0  0  0  0  0  0  0
   60.6930   30.0990   46.4440 C   0  0  0  0  0  0  0  0  0  0  0  0
   60.9520   30.7890   48.1170 S   0  0  0  0  0  0  0  0  0  0  0  0
   62.1760   31.9980   47.6050 C   0  0  0  0  0  0  0  0  0  0  0  0
   63.3960   31.6820   47.1330 N   0  0  0  0  0  0  0  0  0  0  0  0
   63.9640   32.8540   46.8860 N   0  0  0  0  0  0  0  0  0  0  0  0
   63.1510   33.8520   47.1930 N   0  0  0  0  0  0  0  0  0  0  0  0
   62.0240   33.3350   47.6530 N   0  0  0  0  0  0  0  0  0  0  0  0
   60.8770   34.1130   48.1130 C   0  0  0  0  0  0  0  0  0  0  0  0
   59.7440   34.0160   47.1280 C   0  0  0  0  0  0  0  0  0  0  0  0
   58.5930   33.2700   47.4330 C   0  0  0  0  0  0  0  0  0  0  0  0
   57.5540   33.1660   46.5020 C   0  0  0  0  0  0  0  0  0  0  0  0
   57.6550   33.8070   45.2650 C   0  0  0  0  0  0  0  0  0  0  0  0
   58.7940   34.5570   44.9570 C   0  0  0  0  0  0  0  0  0  0  0  0
   59.8350   34.6650   45.8840 C   0  0  0  0  0  0  0  0  0  0  0  0
   59.5560   28.0170   47.3040 C   0  0  0  0  0  0  0  0  0  0  0  0
   58.4830   27.1210   47.3120 C   0  0  0  0  0  0  0  0  0  0  0  0
   56.5350   28.5853   44.9094 H   0  0  0  0  0  0  0  0  0  0  0  0
   58.4466   30.1810   44.9004 H   0  0  0  0  0  0  0  0  0  0  0  0
   61.6102   29.5851   46.1205 H   0  0  0  0  0  0  0  0  0  0  0  0
   60.4520   30.9237   45.7572 H   0  0  0  0  0  0  0  0  0  0  0  0
   64.9260   32.9750   46.5010 H   0  0  0  0  0  0  0  0  0  0  0  0
   60.5439   33.7251   49.0869 H   0  0  0  0  0  0  0  0  0  0  0  0
   61.1772   35.1671   48.2066 H   0  0  0  0  0  0  0  0  0  0  0  0
   58.5086   32.7661   48.4071 H   0  0  0  0  0  0  0  0  0  0  0  0
   56.6561   32.5786   46.7444 H   0  0  0  0  0  0  0  0  0  0  0  0
   56.8383   33.7217   44.5331 H   0  0  0  0  0  0  0  0  0  0  0  0
   58.8713   35.0631   43.9834 H   0  0  0  0  0  0  0  0  0  0  0  0
   60.7277   35.2594   45.6395 H   0  0  0  0  0  0  0  0  0  0  0  0
   60.4081   27.8560   47.9807 H   0  0  0  0  0  0  0  0  0  0  0  0
   58.4967   26.2588   47.9950 H   0  0  0  0  0  0  0  0  0  0  0  0
  1  2  2  0
  2  3  1  0
  2  4  1  0
  4  5  2  0
  5  6  1  0
  6  7  2  0
  7  8  1  0
  8  9  1  0
  9 10  1  0
 10 11  2  0
 11 12  1  0
 12 13  2  0
 13 14  1  0
 14 15  1  0
 15 16  1  0
 16 17  2  0
 17 18  1  0
 18 19  2  0
 19 20  1  0
 20 21  2  0
  7 22  1  0
 22 23  2  0
 23  4  1  0
 14 10  1  0
 21 16  1  0
  5 24  1  0
  6 25  1  0
  8 26  1  0
  8 27  1  0
 12 28  1  0
 15 29  1  0
 15 30  1  0
 17 31  1  0
 18 32  1  0
 19 33  1  0
 20 34  1  0
 21 35  1  0
 22 36  1  0
 23 37  1  0
M  CHG  2   3  -1  12   1
M  END
>  <UniqueID>  (21) 
18

>  <SMILES>  (21) 
O=C([O-])c1ccc(CSc2n[nH+]nn2Cc2ccccc2)cc1

>  <Energy>  (21) 
73.30935171729152

>  <Genealogy>  (21) 
O=C([O-])c1ccc(CSc2n[nH+]nn2Cc2ccccc2)cc1 (protonated)
O=C([O-])c1ccc(CSc2n[nH+]nn2Cc2ccccc2)cc1 (3D coordinates assigned)
O=C([O-])c1ccc(CSc2n[nH+]nn2Cc2ccccc2)cc1 (optimized conformer: 73.30935171729152 kcal/mol)

>  <smiles>  (21) 
O=C(O)c1ccc(CSc2nnnn2Cc2ccccc2)cc1

>  <score_type>  (21) 
oracle

>  <origin>  (21) 
adg

>  <m_score__min__energy>  (21) 
-10.869999999999999

>  <m_primary>  (21) 
energy

$$$$
21:0
     RDKit          3D

 28 30  0  0  0  0  0  0  0  0999 V2000
   60.5790   34.2630   49.5860 O   0  0  0  0  0  0  0  0  0  0  0  0
   61.5760   33.8570   48.9240 C   0  0  0  0  0  0  0  0  0  0  0  0
   62.8250   33.7200   49.5540 C   0  0  0  0  0  0  0  0  0  0  0  0
   63.0210   34.0420   50.9100 C   0  0  0  0  0  0  0  0  0  0  0  0
   64.2820   33.8880   51.4930 C   0  0  0  0  0  0  0  0  0  0  0  0
   65.3540   33.4120   50.7340 C   0  0  0  0  0  0  0  0  0  0  0  0
   65.1710   33.0870   49.3880 C   0  0  0  0  0  0  0  0  0  0  0  0
   63.9090   33.2380   48.7900 C   0  0  0  0  0  0  0  0  0  0  0  0
   63.7230   32.9220   47.4810 N   0  0  0  0  0  0  0  0  0  0  0  0
   62.5090   33.0650   46.8910 C   0  0  0  0  0  0  0  0  0  0  0  0
   61.4380   33.5340   47.5980 N   0  0  0  0  0  0  0  0  0  0  0  0
   60.1710   33.6800   46.9260 C   0  0  0  0  0  0  0  0  0  0  0  0
   59.0540   32.9300   47.3380 C   0  0  0  0  0  0  0  0  0  0  0  0
   57.8260   33.0810   46.6880 C   0  0  0  0  0  0  0  0  0  0  0  0
   57.6980   33.9820   45.6280 C   0  0  0  0  0  0  0  0  0  0  0  0
   58.8000   34.7360   45.2160 C   0  0  0  0  0  0  0  0  0  0  0  0
   60.0310   34.5890   45.8620 C   0  0  0  0  0  0  0  0  0  0  0  0
   62.1799   34.4157   51.5124 H   0  0  0  0  0  0  0  0  0  0  0  0
   64.4308   34.1424   52.5528 H   0  0  0  0  0  0  0  0  0  0  0  0
   66.3444   33.2929   51.1975 H   0  0  0  0  0  0  0  0  0  0  0  0
   66.0177   32.7117   48.7945 H   0  0  0  0  0  0  0  0  0  0  0  0
   64.5200   32.5630   46.9060 H   0  0  0  0  0  0  0  0  0  0  0  0
   62.3859   32.8000   45.8305 H   0  0  0  0  0  0  0  0  0  0  0  0
   59.1477   32.2222   48.1748 H   0  0  0  0  0  0  0  0  0  0  0  0
   56.9576   32.4886   47.0120 H   0  0  0  0  0  0  0  0  0  0  0  0
   56.7303   34.0978   45.1180 H   0  0  0  0  0  0  0  0  0  0  0  0
   58.6987   35.4462   44.3822 H   0  0  0  0  0  0  0  0  0  0  0  0
   60.8946   35.1874   45.5364 H   0  0  0  0  0  0  0  0  0  0  0  0
  1  2  2  0
  2  3  1  0
  3  4  2  0
  4  5  1  0
  5  6  2  0
  6  7  1  0
  7  8  2  0
  8  9  1  0
  9 10  2  0
 10 11  1  0
 11 12  1  0
 12 13  2  0
 13 14  1  0
 14 15  2  0
 15 16  1  0
 16 17  2  0
 11  2  1  0
 17 12  1  0
  8  3  1  0
  4 18  1  0
  5 19  1  0
  6 20  1  0
  7 21  1  0
  9 22  1  0
 10 23  1  0
 13 24  1  0
 14 25  1  0
 15 26  1  0
 16 27  1  0
 17 28  1  0
M  CHG  1   9   1
M  END
>  <UniqueID>  (22) 
19

>  <SMILES>  (22) 
O=c1c2ccccc2[nH+]cn1-c1ccccc1

>  <Energy>  (22) 
43.635821069720116

>  <Genealogy>  (22) 
O=c1c2ccccc2[nH+]cn1-c1ccccc1 (protonated)
O=c1c2ccccc2[nH+]cn1-c1ccccc1 (3D coordinates assigned)
O=c1c2ccccc2[nH+]cn1-c1ccccc1 (optimized conformer: 43.635821069720116 kcal/mol)

>  <smiles>  (22) 
O=c1c2ccccc2ncn1-c1ccccc1

>  <score_type>  (22) 
oracle

>  <origin>  (22) 
adg

>  <m_score__min__energy>  (22) 
-5.3200000000000003

>  <m_primary>  (22) 
energy

$$$$
22:0
     RDKit          3D

 57 60  0  0  0  0  0  0  0  0999 V2000
   56.6160   24.1520   48.2130 C   0  0  0  0  0  0  0  0  0  0  0  0
   57.7220   24.0810   47.1650 C   0  0  0  0  0  0  0  0  0  0  0  0
   57.5390   22.8850   46.2770 C   0  0  0  0  0  0  0  0  0  0  0  0
   57.5260   21.6150   46.7550 N   0  0  0  0  0  0  0  0  0  0  0  0
   57.2020   20.7990   45.7590 N   0  0  0  0  0  0  0  0  0  0  0  0
   56.9980   19.3650   45.9080 C   0  0  0  0  0  0  0  0  0  0  0  0
   56.9680   21.5380   44.6650 C   0  0  0  0  0  0  0  0  0  0  0  0
   56.5070   21.0970   43.4700 N   0  0  0  0  0  0  0  0  0  0  0  0
   56.2620   22.0200   42.4940 C   0  0  0  0  0  0  0  0  0  0  0  0
   56.4760   23.3530   42.7290 N   0  0  0  0  0  0  0  0  0  0  0  0
   56.9340   23.8080   43.9330 C   0  0  0  0  0  0  0  0  0  0  0  0
   57.1790   25.2460   44.1100 C   0  0  0  0  0  0  0  0  0  0  0  0
   56.7120   25.9000   45.2560 C   0  0  0  0  0  0  0  0  0  0  0  0
   56.9150   27.2750   45.4130 C   0  0  0  0  0  0  0  0  0  0  0  0
   57.5550   28.0170   44.4080 C   0  0  0  0  0  0  0  0  0  0  0  0
   57.7680   29.4240   44.6050 N   0  0  0  0  0  0  0  0  0  0  0  0
   56.7090   30.3920   44.7110 C   0  0  0  0  0  0  0  0  0  0  0  0
   55.5100   30.0510   44.5280 O   0  0  0  0  0  0  0  0  0  0  0  0
   56.9970   31.7660   44.9980 N   0  0  0  0  0  0  0  0  0  0  0  0
   58.0940   32.2450   45.7870 C   0  0  0  0  0  0  0  0  0  0  0  0
   58.6400   31.4780   46.8290 C   0  0  0  0  0  0  0  0  0  0  0  0
   59.6910   31.9820   47.6010 C   0  0  0  0  0  0  0  0  0  0  0  0
   60.2050   33.2660   47.3510 C   0  0  0  0  0  0  0  0  0  0  0  0
   61.3070   33.8150   48.1750 C   0  0  0  0  0  0  0  0  0  0  0  0
   61.0300   34.3910   49.2620 O   0  0  0  0  0  0  0  0  0  0  0  0
   62.6860   33.6900   47.7760 N   0  0  0  0  0  0  0  0  0  0  0  0
   63.0890   33.8080   46.3740 C   0  0  0  0  0  0  0  0  0  0  0  0
   63.7110   33.4880   48.8000 C   0  0  0  0  0  0  0  0  0  0  0  0
   59.6230   34.0470   46.3380 C   0  0  0  0  0  0  0  0  0  0  0  0
   58.5750   33.5400   45.5660 C   0  0  0  0  0  0  0  0  0  0  0  0
   58.0210   27.3570   43.2580 C   0  0  0  0  0  0  0  0  0  0  0  0
   57.8210   25.9820   43.1040 C   0  0  0  0  0  0  0  0  0  0  0  0
   57.1770   22.8580   44.9320 C   0  0  0  0  0  0  0  0  0  0  0  0
   57.0612   24.1234   49.2185 H   0  0  0  0  0  0  0  0  0  0  0  0
   56.0521   25.0882   48.0882 H   0  0  0  0  0  0  0  0  0  0  0  0
   55.9370   23.2956   48.0882 H   0  0  0  0  0  0  0  0  0  0  0  0
   57.6961   24.9933   46.5510 H   0  0  0  0  0  0  0  0  0  0  0  0
   58.6902   23.9931   47.6797 H   0  0  0  0  0  0  0  0  0  0  0  0
   56.9616   19.1090   46.9772 H   0  0  0  0  0  0  0  0  0  0  0  0
   56.0500   19.0779   45.4297 H   0  0  0  0  0  0  0  0  0  0  0  0
   57.8283   18.8249   45.4297 H   0  0  0  0  0  0  0  0  0  0  0  0
   55.8903   21.6913   41.5123 H   0  0  0  0  0  0  0  0  0  0  0  0
   56.1839   25.3311   46.0353 H   0  0  0  0  0  0  0  0  0  0  0  0
   56.5712   27.7776   46.3291 H   0  0  0  0  0  0  0  0  0  0  0  0
   58.7510   29.7410   44.7670 H   0  0  0  0  0  0  0  0  0  0  0  0
   58.2387   30.4755   47.0388 H   0  0  0  0  0  0  0  0  0  0  0  0
   60.1182   31.3699   48.4090 H   0  0  0  0  0  0  0  0  0  0  0  0
   64.1434   34.1167   46.3203 H   0  0  0  0  0  0  0  0  0  0  0  0
   62.9656   32.8360   45.8740 H   0  0  0  0  0  0  0  0  0  0  0  0
   62.4609   34.5599   45.8740 H   0  0  0  0  0  0  0  0  0  0  0  0
   63.2557   33.5777   49.7973 H   0  0  0  0  0  0  0  0  0  0  0  0
   64.1504   32.4860   48.6863 H   0  0  0  0  0  0  0  0  0  0  0  0
   64.4977   34.2484   48.6863 H   0  0  0  0  0  0  0  0  0  0  0  0
   59.9954   35.0651   46.1516 H   0  0  0  0  0  0  0  0  0  0  0  0
   58.1250   34.1631   44.7791 H   0  0  0  0  0  0  0  0  0  0  0  0
   58.5455   27.9250   42.4755 H   0  0  0  0  0  0  0  0  0  0  0  0
   58.1683   25.4761   42.1911 H   0  0  0  0  0  0  0  0  0  0  0  0
  1  2  1  0
  2  3  1  0
  3  4  2  0
  4  5  1  0
  5  6  1  0
  5  7  1  0
  7  8  2  0
  8  9  1  0
  9 10  2  0
 10 11  1  0
 11 12  1  0
 12 13  2  0
 13 14  1  0
 14 15  2  0
 15 16  1  0
 16 17  1  0
 17 18  2  0
 17 19  1  0
 19 20  1  0
 20 21  2  0
 21 22  1  0
 22 23  2  0
 23 24  1  0
 24 25  2  0
 24 26  1  0
 26 27  1  0
 26 28  1  0
 23 29  1  0
 29 30  2  0
 15 31  1  0
 31 32  2  0
 11 33  2  0
 33  3  1  0
 33  7  1  0
 32 12  1  0
 30 20  1  0
  1 34  1  0
  1 35  1  0
  1 36  1  0
  2 37  1  0
  2 38  1  0
  6 39  1  0
  6 40  1  0
  6 41  1  0
  9 42  1  0
 13 43  1  0
 14 44  1  0
 16 45  1  0
 21 46  1  0
 22 47  1  0
 27 48  1  0
 27 49  1  0
 27 50  1  0
 28 51  1  0
 28 52  1  0
 28 53  1  0
 29 54  1  0
 30 55  1  0
 31 56  1  0
 32 57  1  0
M  CHG  1  19  -1
M  END
>  <UniqueID>  (23) 
20

>  <SMILES>  (23) 
CCc1nn(C)c2ncnc(-c3ccc(NC(=O)[N-]c4ccc(C(=O)N(C)C)cc4)cc3)c12

>  <Energy>  (23) 
117.50332434873405

>  <Genealogy>  (23) 
CCc1nn(C)c2ncnc(-c3ccc(NC(=O)[N-]c4ccc(C(=O)N(C)C)cc4)cc3)c12 (protonated)
CCc1nn(C)c2ncnc(-c3ccc(NC(=O)[N-]c4ccc(C(=O)N(C)C)cc4)cc3)c12 (3D coordinates assigned)
CCc1nn(C)c2ncnc(-c3ccc(NC(=O)[N-]c4ccc(C(=O)N(C)C)cc4)cc3)c12 (optimized conformer: 117.50332434873405 kcal/mol)

>  <smiles>  (23) 
CCc1nn(C)c2ncnc(-c3ccc(NC(=O)Nc4ccc(C(=O)N(C)C)cc4)cc3)c12

>  <score_type>  (23) 
oracle

>  <origin>  (23) 
adg

>  <m_score__min__energy>  (23) 
-10.550000000000001

>  <m_primary>  (23) 
energy

$$$$
23:0
     RDKit          3D

 26 27  0  0  1  0  0  0  0  0999 V2000
   57.4030   32.9810   45.3060 C   0  0  0  0  0  0  0  0  0  0  0  0
   57.5270   32.0070   44.1780 C   0  0  0  0  0  0  0  0  0  0  0  0
   57.1560   30.6180   44.5160 C   0  0  0  0  0  0  0  0  0  0  0  0
   56.2010   29.9340   44.5420 N   0  0  0  0  0  0  0  0  0  0  0  0
   56.0820   28.6970   44.9070 N   0  0  0  0  0  0  0  0  0  0  0  0
   57.1830   28.1110   45.3100 C   0  0  0  0  0  0  0  0  0  0  0  0
   57.4310   26.8860   45.7330 N   0  0  0  0  0  0  0  0  0  0  0  0
   56.3200   26.0530   46.0060 C   0  0  0  0  0  0  0  0  0  0  0  0
   55.1270   26.4420   45.9790 O   0  0  0  0  0  0  0  0  0  0  0  0
   56.6810   24.6560   46.3330 C   0  0  0  0  0  0  0  0  0  0  0  0
   56.2470   24.1470   47.5330 C   0  0  0  0  0  0  0  0  0  0  0  0
   56.5510   22.8360   47.8800 C   0  0  0  0  0  0  0  0  0  0  0  0
   57.2610   22.0490   47.0670 N   0  0  0  0  0  0  0  0  0  0  0  0
   57.6900   22.5370   45.8930 C   0  0  0  0  0  0  0  0  0  0  0  0
   57.4120   23.8530   45.4920 C   0  0  0  0  0  0  0  0  0  0  0  0
   58.4850   29.4080   45.1590 S   0  0  0  0  0  0  0  0  0  0  0  0
   57.4714   32.4438   46.2635 H   0  0  0  0  0  0  0  0  0  0  0  0
   58.2142   33.7212   45.2421 H   0  0  0  0  0  0  0  0  0  0  0  0
   56.4322   33.4944   45.2421 H   0  0  0  0  0  0  0  0  0  0  0  0
   56.8747   32.3461   43.3598 H   0  0  0  0  0  0  0  0  0  0  0  0
   58.5919   31.9851   43.9032 H   0  0  0  0  0  0  0  0  0  0  0  0
   55.1430   28.1910   44.8730 H   0  0  0  0  0  0  0  0  0  0  0  0
   55.6598   24.7761   48.2181 H   0  0  0  0  0  0  0  0  0  0  0  0
   56.1998   22.4384   48.8436 H   0  0  0  0  0  0  0  0  0  0  0  0
   58.2760   21.8875   45.2261 H   0  0  0  0  0  0  0  0  0  0  0  0
   57.7720   24.2332   44.5246 H   0  0  0  0  0  0  0  0  0  0  0  0
  1  2  1  0
  2  3  1  0
  3  4  2  0
  4  5  1  0
  5  6  1  0
  6  7  2  0
  7  8  1  0
  8  9  2  0
  8 10  1  0
 10 11  2  0
 11 12  1  0
 12 13  2  0
 13 14  1  0
 14 15  2  0
  6 16  1  0
 16  3  1  0
 15 10  1  0
  1 17  1  0
  1 18  1  0
  1 19  1  0
  2 20  1  0
  2 21  1  0
  5 22  1  0
 11 23  1  0
 12 24  1  0
 14 25  1  0
 15 26  1  0
M  END
>  <smiles>  (24) 
CCc1n[nH]c(=NC(=O)c2ccncc2)s1

>  <score_type>  (24) 
oracle

>  <origin>  (24) 
adg

>  <m_score__min__energy>  (24) 
-6.9000000000000004

>  <m_primary>  (24) 
energy

$$$$
24:0
     RDKit          3D

 21 22  0  0  0  0  0  0  0  0999 V2000
   56.2630   29.4050   43.0210 C   0  0  0  0  0  0  0  0  0  0  0  0
   56.9210   30.6870   43.4360 C   0  0  0  0  0  0  0  0  0  0  0  0
   57.4830   31.5350   42.4700 C   0  0  0  0  0  0  0  0  0  0  0  0
   58.1300   32.7140   42.8520 C   0  0  0  0  0  0  0  0  0  0  0  0
   58.2350   33.0530   44.2090 C   0  0  0  0  0  0  0  0  0  0  0  0
   58.8820   34.2340   44.6040 C   0  0  0  0  0  0  0  0  0  0  0  0
   58.9850   34.5580   45.9590 C   0  0  0  0  0  0  0  0  0  0  0  0
   58.4440   33.7090   46.9280 C   0  0  0  0  0  0  0  0  0  0  0  0
   57.7970   32.5300   46.5490 C   0  0  0  0  0  0  0  0  0  0  0  0
   57.6850   32.1930   45.1900 C   0  0  0  0  0  0  0  0  0  0  0  0
   57.0380   31.0120   44.7970 C   0  0  0  0  0  0  0  0  0  0  0  0
   55.9711   28.8362   43.9161 H   0  0  0  0  0  0  0  0  0  0  0  0
   55.3686   29.6293   42.4212 H   0  0  0  0  0  0  0  0  0  0  0  0
   56.9667   28.8091   42.4212 H   0  0  0  0  0  0  0  0  0  0  0  0
   57.4141   31.2704   41.4045 H   0  0  0  0  0  0  0  0  0  0  0  0
   58.5579   33.3777   42.0862 H   0  0  0  0  0  0  0  0  0  0  0  0
   59.3090   34.9061   43.8450 H   0  0  0  0  0  0  0  0  0  0  0  0
   59.4936   35.4844   46.2641 H   0  0  0  0  0  0  0  0  0  0  0  0
   58.5278   33.9698   47.9933 H   0  0  0  0  0  0  0  0  0  0  0  0
   57.3746   31.8645   47.3163 H   0  0  0  0  0  0  0  0  0  0  0  0
   56.6203   30.3372   45.5587 H   0  0  0  0  0  0  0  0  0  0  0  0
  1  2  1  0
  2  3  2  0
  3  4  1  0
  4  5  2  0
  5  6  1  0
  6  7  2  0
  7  8  1  0
  8  9  2  0
  9 10  1  0
 10 11  2  0
 11  2  1  0
 10  5  1  0
  1 12  1  0
  1 13  1  0
  1 14  1  0
  3 15  1  0
  4 16  1  0
  6 17  1  0
  7 18  1  0
  8 19  1  0
  9 20  1  0
 11 21  1  0
M  END
>  <UniqueID>  (25) 
21

>  <SMILES>  (25) 
Cc1ccc2ccccc2c1

>  <Energy>  (25) 
23.719664508555898

>  <Genealogy>  (25) 
Cc1ccc2ccccc2c1 (3D coordinates assigned)
Cc1ccc2ccccc2c1 (optimized conformer: 23.719664508555898 kcal/mol)

>  <smiles>  (25) 
Cc1ccc2ccccc2c1

>  <score_type>  (25) 
oracle

>  <origin>  (25) 
adg

>  <m_score__min__energy>  (25) 
-5.3799999999999999

>  <m_primary>  (25) 
energy

$$$$
25:0
     RDKit          3D

 31 32  0  0  0  0  0  0  0  0999 V2000
   63.1160   33.9080   50.2140 C   0  0  0  0  0  0  0  0  0  0  0  0
   62.1520   33.5320   49.1650 N   0  0  0  0  0  0  0  0  0  0  0  0
   62.7080   33.8300   47.8290 C   0  0  0  0  0  0  0  0  0  0  0  0
   61.8070   33.2210   46.7460 C   0  0  0  0  0  0  0  0  0  0  0  0
   60.3830   33.3840   47.0800 N   0  0  0  0  0  0  0  0  0  0  0  0
   59.3600   32.6740   46.3400 C   0  0  0  0  0  0  0  0  0  0  0  0
   58.3620   33.3590   45.6210 C   0  0  0  0  0  0  0  0  0  0  0  0
   57.3990   32.6380   44.9150 C   0  0  0  0  0  0  0  0  0  0  0  0
   57.4200   31.2340   44.9170 C   0  0  0  0  0  0  0  0  0  0  0  0
   56.4340   30.4760   44.1950 N   0  0  0  0  0  0  0  0  0  0  0  0
   56.4130   30.4830   42.9470 O   0  0  0  0  0  0  0  0  0  0  0  0
   55.4960   29.7280   44.8690 O   0  0  0  0  0  0  0  0  0  0  0  0
   58.4290   30.5880   45.6460 C   0  0  0  0  0  0  0  0  0  0  0  0
   59.3560   31.3120   46.3260 N   0  0  0  0  0  0  0  0  0  0  0  0
   60.0140   34.3810   48.0980 C   0  0  0  0  0  0  0  0  0  0  0  0
   60.8530   34.2160   49.3860 C   0  0  0  0  0  0  0  0  0  0  0  0
   62.6680   33.7333   51.2033 H   0  0  0  0  0  0  0  0  0  0  0  0
   64.0262   33.2990   50.1109 H   0  0  0  0  0  0  0  0  0  0  0  0
   63.3735   34.9725   50.1109 H   0  0  0  0  0  0  0  0  0  0  0  0
   62.0010   32.4980   49.2400 H   0  0  0  0  0  0  0  0  0  0  0  0
   62.7613   34.9199   47.6899 H   0  0  0  0  0  0  0  0  0  0  0  0
   63.7163   33.3977   47.7494 H   0  0  0  0  0  0  0  0  0  0  0  0
   62.0098   33.7220   45.7880 H   0  0  0  0  0  0  0  0  0  0  0  0
   62.0261   32.1453   46.6771 H   0  0  0  0  0  0  0  0  0  0  0  0
   58.3418   34.4588   45.6160 H   0  0  0  0  0  0  0  0  0  0  0  0
   56.6186   33.1724   44.3534 H   0  0  0  0  0  0  0  0  0  0  0  0
   58.4701   29.4890   45.6674 H   0  0  0  0  0  0  0  0  0  0  0  0
   60.1822   35.3881   47.6889 H   0  0  0  0  0  0  0  0  0  0  0  0
   58.9548   34.2338   48.3559 H   0  0  0  0  0  0  0  0  0  0  0  0
   61.0521   35.2147   49.8018 H   0  0  0  0  0  0  0  0  0  0  0  0
   60.2692   33.5859   50.0731 H   0  0  0  0  0  0  0  0  0  0  0  0
  1  2  1  0
  2  3  1  0
  3  4  1  0
  4  5  1  0
  5  6  1  0
  6  7  2  0
  7  8  1  0
  8  9  2  0
  9 10  1  0
 10 11  2  0
 10 12  1  0
  9 13  1  0
 13 14  2  0
  5 15  1  0
 15 16  1  0
 16  2  1  0
 14  6  1  0
  1 17  1  0
  1 18  1  0
  1 19  1  0
  2 20  1  0
  3 21  1  0
  3 22  1  0
  4 23  1  0
  4 24  1  0
  7 25  1  0
  8 26  1  0
 13 27  1  0
 15 28  1  0
 15 29  1  0
 16 30  1  0
 16 31  1  0
M  CHG  3   2   1  10   1  12  -1
M  END
>  <UniqueID>  (26) 
22

>  <SMILES>  (26) 
C[NH+]1CCN(c2ccc([N+](=O)[O-])cn2)CC1

>  <Energy>  (26) 
40.09720918491385

>  <Genealogy>  (26) 
C[NH+]1CCN(c2ccc([N+](=O)[O-])cn2)CC1 (protonated)
C[NH+]1CCN(c2ccc([N+](=O)[O-])cn2)CC1 (3D coordinates assigned)
C[NH+]1CCN(c2ccc([N+](=O)[O-])cn2)CC1 (nonaromatic ring conformer: 40.09720918491385 kcal/mol)

>  <smiles>  (26) 
CN1CCN(c2ccc([N+](=O)[O-])cn2)CC1

>  <score_type>  (26) 
oracle

>  <origin>  (26) 
adg

>  <m_score__min__energy>  (26) 
-4.3600000000000003

>  <m_primary>  (26) 
energy

$$$$
26:0
     RDKit          3D

 19 20  0  0  0  0  0  0  0  0999 V2000
   60.3730   29.3950   45.5400 C   0  0  0  0  0  0  0  0  0  0  0  0
   59.1190   28.5730   45.6480 C   0  0  0  0  0  0  0  0  0  0  0  0
   59.0900   27.3580   46.3710 C   0  0  0  0  0  0  0  0  0  0  0  0
   60.2110   26.8850   46.9710 F   0  0  0  0  0  0  0  0  0  0  0  0
   57.8900   26.6180   46.4810 C   0  0  0  0  0  0  0  0  0  0  0  0
   56.7060   27.0840   45.8860 C   0  0  0  0  0  0  0  0  0  0  0  0
   55.5520   26.3820   45.9910 F   0  0  0  0  0  0  0  0  0  0  0  0
   56.7540   28.2910   45.1920 C   0  0  0  0  0  0  0  0  0  0  0  0
   55.7400   28.9140   44.5690 N   0  0  0  0  0  0  0  0  0  0  0  0
   56.2610   30.0490   44.0540 C   0  0  0  0  0  0  0  0  0  0  0  0
   57.6160   30.1480   44.3510 C   0  0  0  0  0  0  0  0  0  0  0  0
   57.9150   29.0130   45.0790 C   0  0  0  0  0  0  0  0  0  0  0  0
   60.7412   29.6363   46.5481 H   0  0  0  0  0  0  0  0  0  0  0  0
   61.1401   28.8239   44.9965 H   0  0  0  0  0  0  0  0  0  0  0  0
   60.1553   30.3262   44.9965 H   0  0  0  0  0  0  0  0  0  0  0  0
   57.8837   25.6691   47.0374 H   0  0  0  0  0  0  0  0  0  0  0  0
   54.7490   28.5930   44.4970 H   0  0  0  0  0  0  0  0  0  0  0  0
   55.6913   30.7933   43.4783 H   0  0  0  0  0  0  0  0  0  0  0  0
   58.3036   30.9581   44.0666 H   0  0  0  0  0  0  0  0  0  0  0  0
  1  2  1  0
  2  3  2  0
  3  4  1  0
  3  5  1  0
  5  6  2  0
  6  7  1  0
  6  8  1  0
  8  9  1  0
  9 10  1  0
 10 11  2  0
 11 12  1  0
 12  2  1  0
 12  8  2  0
  1 13  1  0
  1 14  1  0
  1 15  1  0
  5 16  1  0
  9 17  1  0
 10 18  1  0
 11 19  1  0
M  END
>  <UniqueID>  (27) 
23

>  <SMILES>  (27) 
Cc1c(F)cc(F)c2[nH]ccc12

>  <Energy>  (27) 
51.94043042536463

>  <Genealogy>  (27) 
Cc1c(F)cc(F)c2[nH]ccc12 (3D coordinates assigned)
Cc1c(F)cc(F)c2[nH]ccc12 (optimized conformer: 51.94043042536463 kcal/mol)

>  <smiles>  (27) 
Cc1c(F)cc(F)c2[nH]ccc12

>  <score_type>  (27) 
oracle

>  <origin>  (27) 
adg

>  <m_score__min__energy>  (27) 
-5.1399999999999997

>  <m_primary>  (27) 
energy

$$$$
27:0
     RDKit          3D

 25 26  0  0  0  0  0  0  0  0999 V2000
   56.4630   28.9820   42.3970 N   0  0  0  0  0  0  0  0  0  0  0  0
   55.8150   29.7040   43.4940 C   0  0  0  0  0  0  0  0  0  0  0  0
   56.8180   30.0930   44.5910 C   0  0  0  0  0  0  0  0  0  0  0  0
   57.5550   31.3560   44.2500 C   0  0  0  0  0  0  0  0  0  0  0  0
   57.9090   31.7910   42.9770 C   0  0  0  0  0  0  0  0  0  0  0  0
   58.5150   33.0000   43.0430 N   0  0  0  0  0  0  0  0  0  0  0  0
   58.5380   33.3330   44.3440 C   0  0  0  0  0  0  0  0  0  0  0  0
   59.0500   34.5000   44.9090 C   0  0  0  0  0  0  0  0  0  0  0  0
   58.9570   34.6520   46.3050 C   0  0  0  0  0  0  0  0  0  0  0  0
   58.3580   33.6450   47.0960 C   0  0  0  0  0  0  0  0  0  0  0  0
   57.8470   32.4790   46.4980 C   0  0  0  0  0  0  0  0  0  0  0  0
   57.9570   32.3560   45.1130 C   0  0  0  0  0  0  0  0  0  0  0  0
   56.4920   27.9570   42.6060 H   0  0  0  0  0  0  0  0  0  0  0  0
   55.9120   29.1310   41.5210 H   0  0  0  0  0  0  0  0  0  0  0  0
   57.4320   29.3420   42.2470 H   0  0  0  0  0  0  0  0  0  0  0  0
   55.3519   30.6182   43.0943 H   0  0  0  0  0  0  0  0  0  0  0  0
   55.0592   29.0413   43.9407 H   0  0  0  0  0  0  0  0  0  0  0  0
   56.2732   30.2424   45.5349 H   0  0  0  0  0  0  0  0  0  0  0  0
   57.5548   29.2816   44.6841 H   0  0  0  0  0  0  0  0  0  0  0  0
   57.7229   31.2319   42.0482 H   0  0  0  0  0  0  0  0  0  0  0  0
   58.8780   33.5600   42.2400 H   0  0  0  0  0  0  0  0  0  0  0  0
   59.5122   35.2777   44.2833 H   0  0  0  0  0  0  0  0  0  0  0  0
   59.3528   35.5599   46.7836 H   0  0  0  0  0  0  0  0  0  0  0  0
   58.2911   33.7742   48.1863 H   0  0  0  0  0  0  0  0  0  0  0  0
   57.3761   31.6900   47.1027 H   0  0  0  0  0  0  0  0  0  0  0  0
  1  2  1  0
  2  3  1  0
  3  4  1  0
  4  5  2  0
  5  6  1  0
  6  7  1  0
  7  8  2  0
  8  9  1  0
  9 10  2  0
 10 11  1  0
 11 12  2  0
 12  4  1  0
 12  7  1  0
  1 13  1  0
  1 14  1  0
  1 15  1  0
  2 16  1  0
  2 17  1  0
  3 18  1  0
  3 19  1  0
  5 20  1  0
  6 21  1  0
  8 22  1  0
  9 23  1  0
 10 24  1  0
 11 25  1  0
M  CHG  1   1   1
M  END
>  <UniqueID>  (28) 
24

>  <SMILES>  (28) 
[NH3+]CCc1c[nH]c2ccccc12

>  <Energy>  (28) 
53.91983834820239

>  <Genealogy>  (28) 
[NH3+]CCc1c[nH]c2ccccc12 (protonated)
[NH3+]CCc1c[nH]c2ccccc12 (3D coordinates assigned)
[NH3+]CCc1c[nH]c2ccccc12 (optimized conformer: 53.91983834820239 kcal/mol)

>  <smiles>  (28) 
NCCc1c[nH]c2ccccc12

>  <score_type>  (28) 
oracle

>  <origin>  (28) 
adg

>  <m_score__min__energy>  (28) 
-4.0800000000000001

>  <m_primary>  (28) 
energy

$$$$
28:0
     RDKit          3D

 40 41  0  0  0  0  0  0  0  0999 V2000
   58.8470   27.1230   45.2140 C   0  0  0  0  0  0  0  0  0  0  0  0
   60.0370   27.1900   46.1720 C   0  0  0  0  0  0  0  0  0  0  0  0
   60.3620   28.6330   46.6150 C   0  0  0  0  0  0  0  0  0  0  0  0
   59.3430   29.6090   46.1840 N   0  0  0  0  0  0  0  0  0  0  0  0
   59.7970   31.0030   46.3820 C   0  0  0  0  0  0  0  0  0  0  0  0
   58.7860   32.0950   45.8920 C   0  0  0  0  0  0  0  0  0  0  0  0
   57.8770   31.4280   44.8410 C   0  0  0  0  0  0  0  0  0  0  0  0
   57.8510   31.8780   43.5040 C   0  0  0  0  0  0  0  0  0  0  0  0
   57.0400   31.2310   42.5710 C   0  0  0  0  0  0  0  0  0  0  0  0
   56.2690   30.1360   42.9580 C   0  0  0  0  0  0  0  0  0  0  0  0
   56.3270   29.6970   44.2790 C   0  0  0  0  0  0  0  0  0  0  0  0
   57.1220   30.3400   45.1750 N   0  0  0  0  0  0  0  0  0  0  0  0
   59.5400   33.3030   45.2470 C   0  0  0  0  0  0  0  0  0  0  0  0
   58.6950   34.5940   45.2470 C   0  0  0  0  0  0  0  0  0  0  0  0
   57.3170   34.3040   45.3520 O   0  0  0  0  0  0  0  0  0  0  0  0
   57.0210   33.8160   46.6490 C   0  0  0  0  0  0  0  0  0  0  0  0
   57.9410   32.6460   47.0800 C   0  0  0  0  0  0  0  0  0  0  0  0
   57.9130   27.0704   45.7926 H   0  0  0  0  0  0  0  0  0  0  0  0
   58.8355   28.0219   44.5801 H   0  0  0  0  0  0  0  0  0  0  0  0
   58.9365   26.2285   44.5801 H   0  0  0  0  0  0  0  0  0  0  0  0
   59.8046   26.5912   47.0650 H   0  0  0  0  0  0  0  0  0  0  0  0
   60.9163   26.7991   45.6390 H   0  0  0  0  0  0  0  0  0  0  0  0
   60.4285   28.6566   47.7127 H   0  0  0  0  0  0  0  0  0  0  0  0
   61.3130   28.9176   46.1411 H   0  0  0  0  0  0  0  0  0  0  0  0
   59.1860   29.4600   45.1600 H   0  0  0  0  0  0  0  0  0  0  0  0
   58.4410   29.4230   46.6710 H   0  0  0  0  0  0  0  0  0  0  0  0
   59.9736   31.1568   47.4568 H   0  0  0  0  0  0  0  0  0  0  0  0
   60.7052   31.1241   45.7734 H   0  0  0  0  0  0  0  0  0  0  0  0
   58.4679   32.7359   43.1983 H   0  0  0  0  0  0  0  0  0  0  0  0
   57.0090   31.5850   41.5300 H   0  0  0  0  0  0  0  0  0  0  0  0
   55.6227   29.6248   42.2293 H   0  0  0  0  0  0  0  0  0  0  0  0
   55.7294   28.8300   44.5971 H   0  0  0  0  0  0  0  0  0  0  0  0
   60.4641   33.4861   45.8149 H   0  0  0  0  0  0  0  0  0  0  0  0
   59.7541   33.0432   44.1998 H   0  0  0  0  0  0  0  0  0  0  0  0
   58.9958   35.2194   46.1005 H   0  0  0  0  0  0  0  0  0  0  0  0
   58.8677   35.1226   44.2979 H   0  0  0  0  0  0  0  0  0  0  0  0
   57.1401   34.6391   47.3689 H   0  0  0  0  0  0  0  0  0  0  0  0
   55.9897   33.4338   46.6294 H   0  0  0  0  0  0  0  0  0  0  0  0
   58.6238   33.0026   47.8653 H   0  0  0  0  0  0  0  0  0  0  0  0
   57.3011   31.8300   47.4471 H   0  0  0  0  0  0  0  0  0  0  0  0
  1  2  1  0
  2  3  1  0
  3  4  1  0
  4  5  1  0
  5  6  1  0
  6  7  1  0
  7  8  2  0
  8  9  1  0
  9 10  2  0
 10 11  1  0
 11 12  2  0
  6 13  1  0
 13 14  1  0
 14 15  1  0
 15 16  1  0
 16 17  1  0
 17  6  1  0
 12  7  1  0
  1 18  1  0
  1 19  1  0
  1 20  1  0
  2 21  1  0
  2 22  1  0
  3 23  1  0
  3 24  1  0
  4 25  1  0
  4 26  1  0
  5 27  1  0
  5 28  1  0
  8 29  1  0
  9 30  1  0
 10 31  1  0
 11 32  1  0
 13 33  1  0
 13 34  1  0
 14 35  1  0
 14 36  1  0
 16 37  1  0
 16 38  1  0
 17 39  1  0
 17 40  1  0
M  CHG  1   4   1
M  END
>  <UniqueID>  (29) 
25

>  <SMILES>  (29) 
CCC[NH2+]CC1(c2ccccn2)CCOCC1

>  <Energy>  (29) 
52.4602872822244

>  <Genealogy>  (29) 
CCC[NH2+]CC1(c2ccccn2)CCOCC1 (protonated)
CCC[NH2+]CC1(c2ccccn2)CCOCC1 (3D coordinates assigned)
CCC[NH2+]CC1(c2ccccn2)CCOCC1 (nonaromatic ring conformer: 52.4602872822244 kcal/mol)

>  <smiles>  (29) 
CCCNCC1(c2ccccn2)CCOCC1

>  <score_type>  (29) 
oracle

>  <origin>  (29) 
adg

>  <m_score__min__energy>  (29) 
-4.0199999999999996

>  <m_primary>  (29) 
energy

$$$$
29:0
     RDKit          3D

 52 54  0  0  0  0  0  0  0  0999 V2000
   58.0190   32.4820   42.5910 C   0  0  0  0  0  0  0  0  0  0  0  0
   57.3610   31.5770   43.6270 C   0  0  0  0  0  0  0  0  0  0  0  0
   57.7640   31.9790   45.0280 C   0  0  0  0  0  0  0  0  0  0  0  0
   57.8980   33.3450   45.3270 C   0  0  0  0  0  0  0  0  0  0  0  0
   58.3390   33.7560   46.5830 C   0  0  0  0  0  0  0  0  0  0  0  0
   58.6750   32.8120   47.5520 C   0  0  0  0  0  0  0  0  0  0  0  0
   58.5760   31.4400   47.2720 C   0  0  0  0  0  0  0  0  0  0  0  0
   58.9220   30.4390   48.3380 C   0  0  0  0  0  0  0  0  0  0  0  0
   58.0970   31.0170   46.0130 C   0  0  0  0  0  0  0  0  0  0  0  0
   57.9930   29.6150   45.7260 N   0  0  0  0  0  0  0  0  0  0  0  0
   59.1300   28.8250   45.3520 C   0  0  0  0  0  0  0  0  0  0  0  0
   60.2440   29.3820   45.1470 O   0  0  0  0  0  0  0  0  0  0  0  0
   59.0110   27.3260   45.3080 C   0  0  0  0  0  0  0  0  0  0  0  0
   58.0360   26.7560   46.3680 C   0  0  1  0  0  0  0  0  0  0  0  0
   56.5900   26.8820   45.9530 C   0  0  0  0  0  0  0  0  0  0  0  0
   56.2040   27.8510   45.2480 O   0  0  0  0  0  0  0  0  0  0  0  0
   55.6220   25.9650   46.4790 N   0  0  0  0  0  0  0  0  0  0  0  0
   55.9880   24.7080   47.1350 C   0  0  0  0  0  0  0  0  0  0  0  0
   57.3940   24.7870   47.7380 C   0  0  0  0  0  0  0  0  0  0  0  0
   58.3040   25.3520   46.7380 N   0  0  0  0  0  0  0  0  0  0  0  0
   58.9380   24.4280   45.8340 C   0  0  0  0  0  0  0  0  0  0  0  0
   60.1960   24.4170   45.7390 O   0  0  0  0  0  0  0  0  0  0  0  0
   58.1250   23.5220   44.9880 C   0  0  0  0  0  0  0  0  0  0  0  0
   58.4070   22.1440   44.9370 C   0  0  0  0  0  0  0  0  0  0  0  0
   57.6480   21.2960   44.1270 C   0  0  0  0  0  0  0  0  0  0  0  0
   56.6020   21.8120   43.3580 C   0  0  0  0  0  0  0  0  0  0  0  0
   56.3130   23.1780   43.3980 C   0  0  0  0  0  0  0  0  0  0  0  0
   55.3000   23.6780   42.6480 F   0  0  0  0  0  0  0  0  0  0  0  0
   57.0700   24.0310   44.2070 C   0  0  0  0  0  0  0  0  0  0  0  0
   58.5916   33.2695   43.1029 H   0  0  0  0  0  0  0  0  0  0  0  0
   58.6965   31.8865   41.9614 H   0  0  0  0  0  0  0  0  0  0  0  0
   57.2436   32.9428   41.9614 H   0  0  0  0  0  0  0  0  0  0  0  0
   56.2680   31.6543   43.5304 H   0  0  0  0  0  0  0  0  0  0  0  0
   57.6901   30.5424   43.4497 H   0  0  0  0  0  0  0  0  0  0  0  0
   57.6525   34.0969   44.5626 H   0  0  0  0  0  0  0  0  0  0  0  0
   58.4223   34.8289   46.8107 H   0  0  0  0  0  0  0  0  0  0  0  0
   59.0199   33.1442   48.5423 H   0  0  0  0  0  0  0  0  0  0  0  0
   58.7661   30.8901   49.3291 H   0  0  0  0  0  0  0  0  0  0  0  0
   58.2777   29.5537   48.2326 H   0  0  0  0  0  0  0  0  0  0  0  0
   59.9755   30.1405   48.2326 H   0  0  0  0  0  0  0  0  0  0  0  0
   57.0470   29.1730   45.7440 H   0  0  0  0  0  0  0  0  0  0  0  0
   58.6515   27.0337   44.3103 H   0  0  0  0  0  0  0  0  0  0  0  0
   60.0071   26.9141   45.5276 H   0  0  0  0  0  0  0  0  0  0  0  0
   58.2197   27.3808   47.2545 H   0  0  0  0  0  0  0  0  0  0  0  0
   55.2649   24.4979   47.9369 H   0  0  0  0  0  0  0  0  0  0  0  0
   55.9762   23.9059   46.3823 H   0  0  0  0  0  0  0  0  0  0  0  0
   57.3785   25.4308   48.6298 H   0  0  0  0  0  0  0  0  0  0  0  0
   57.7340   23.7819   48.0281 H   0  0  0  0  0  0  0  0  0  0  0  0
   59.2304   21.7321   45.5389 H   0  0  0  0  0  0  0  0  0  0  0  0
   57.8743   20.2200   44.0946 H   0  0  0  0  0  0  0  0  0  0  0  0
   56.0058   21.1423   42.7208 H   0  0  0  0  0  0  0  0  0  0  0  0
   56.8398   25.1063   44.2334 H   0  0  0  0  0  0  0  0  0  0  0  0
  1  2  1  0
  2  3  1  0
  3  4  2  0
  4  5  1  0
  5  6  2  0
  6  7  1  0
  7  8  1  0
  7  9  2  0
  9 10  1  0
 10 11  1  0
 11 12  2  0
 11 13  1  0
 13 14  1  0
 14 15  1  0
 15 16  2  0
 15 17  1  0
 17 18  1  0
 18 19  1  0
 19 20  1  0
 20 21  1  0
 21 22  2  0
 21 23  1  0
 23 24  2  0
 24 25  1  0
 25 26  2  0
 26 27  1  0
 27 28  1  0
 27 29  2  0
  9  3  1  0
 20 14  1  0
 29 23  1  0
  1 30  1  0
  1 31  1  0
  1 32  1  0
  2 33  1  0
  2 34  1  0
  4 35  1  0
  5 36  1  0
  6 37  1  0
  8 38  1  0
  8 39  1  0
  8 40  1  0
 10 41  1  0
 13 42  1  0
 13 43  1  0
 14 44  1  1
 18 45  1  0
 18 46  1  0
 19 47  1  0
 19 48  1  0
 24 49  1  0
 25 50  1  0
 26 51  1  0
 29 52  1  0
M  CHG  1  17  -1
M  END
>  <UniqueID>  (30) 
26

>  <SMILES>  (30) 
CCc1cccc(C)c1NC(=O)C[C@H]1C(=O)[N-]CCN1C(=O)c1cccc(F)c1

>  <Energy>  (30) 
63.727649414863244

>  <Genealogy>  (30) 
CCc1cccc(C)c1NC(=O)CC1C(=O)[N-]CCN1C(=O)c1cccc(F)c1 (protonated)
CCc1cccc(C)c1NC(=O)C[C@H]1C(=O)[N-]CCN1C(=O)c1cccc(F)c1 (chirality)
CCc1cccc(C)c1NC(=O)C[C@H]1C(=O)[N-]CCN1C(=O)c1cccc(F)c1 (3D coordinates assigned)
CCc1cccc(C)c1NC(=O)C[C@H]1C(=O)[N-]CCN1C(=O)c1cccc(F)c1 (nonaromatic ring conformer: 63.727649414863244 kcal/mol)

>  <smiles>  (30) 
CCc1cccc(C)c1NC(=O)CC1C(=O)NCCN1C(=O)c1cccc(F)c1

>  <score_type>  (30) 
oracle

>  <origin>  (30) 
adg

>  <m_score__min__energy>  (30) 
-10.699999999999999

>  <m_primary>  (30) 
energy

$$$$
30:0
     RDKit          3D

 64 67  0  0  0  0  0  0  0  0999 V2000
   54.9140   22.7560   47.5030 C   0  0  0  0  0  0  0  0  0  0  0  0
   56.0640   23.4970   47.9020 O   0  0  0  0  0  0  0  0  0  0  0  0
   56.7000   24.4650   47.1070 C   0  0  0  0  0  0  0  0  0  0  0  0
   58.1020   24.5480   46.9900 C   0  0  0  0  0  0  0  0  0  0  0  0
   58.6880   25.5320   46.1850 C   0  0  0  0  0  0  0  0  0  0  0  0
   57.8820   26.4580   45.5040 C   0  0  0  0  0  0  0  0  0  0  0  0
   58.4870   27.5640   44.6860 C   0  0  0  0  0  0  0  0  0  0  0  0
   58.4490   28.8250   45.4560 N   0  0  0  0  0  0  0  0  0  0  0  0
   58.1750   28.6290   46.8960 C   0  0  0  0  0  0  0  0  0  0  0  0
   59.4370   28.4010   47.7530 C   0  0  0  0  0  0  0  0  0  0  0  0
   60.2690   29.6690   47.8280 C   0  0  0  0  0  0  0  0  0  0  0  0
   60.3110   30.4760   48.9910 C   0  0  0  0  0  0  0  0  0  0  0  0
   59.4800   30.1130   50.1660 C   0  0  0  0  0  0  0  0  0  0  0  0
   58.1650   30.5710   50.2930 C   0  0  0  0  0  0  0  0  0  0  0  0
   57.4150   30.1890   51.3570 N   0  0  0  0  0  0  0  0  0  0  0  0
   57.9220   29.3600   52.3050 C   0  0  0  0  0  0  0  0  0  0  0  0
   59.2000   28.9000   52.2020 N   0  0  0  0  0  0  0  0  0  0  0  0
   59.9790   29.2530   51.1460 C   0  0  0  0  0  0  0  0  0  0  0  0
   61.0790   31.6230   49.0140 N   0  0  0  0  0  0  0  0  0  0  0  0
   61.1630   32.4230   50.2510 C   0  0  0  0  0  0  0  0  0  0  0  0
   61.7160   32.0380   47.8650 C   0  0  0  0  0  0  0  0  0  0  0  0
   62.4980   33.3200   47.7920 C   0  0  0  0  0  0  0  0  0  0  0  0
   61.6550   31.2790   46.7440 N   0  0  0  0  0  0  0  0  0  0  0  0
   60.9640   30.1180   46.6970 C   0  0  0  0  0  0  0  0  0  0  0  0
   60.9430   29.4620   45.6210 O   0  0  0  0  0  0  0  0  0  0  0  0
   57.3990   30.0230   44.7210 S   0  0  0  0  0  0  0  0  0  0  0  0
   55.9870   29.8590   45.2150 O   0  0  0  0  0  0  0  0  0  0  0  0
   57.4110   29.8770   43.2200 O   0  0  0  0  0  0  0  0  0  0  0  0
   57.9610   31.6320   45.1670 C   0  0  0  0  0  0  0  0  0  0  0  0
   58.2850   32.5800   44.1830 C   0  0  0  0  0  0  0  0  0  0  0  0
   58.8090   33.8240   44.5520 C   0  0  0  0  0  0  0  0  0  0  0  0
   58.9970   34.1330   45.9040 C   0  0  0  0  0  0  0  0  0  0  0  0
   59.6630   35.6920   46.3580 Cl  0  0  0  0  0  0  0  0  0  0  0  0
   58.6560   33.1980   46.8890 C   0  0  0  0  0  0  0  0  0  0  0  0
   58.1480   31.9480   46.5210 C   0  0  0  0  0  0  0  0  0  0  0  0
   56.4840   26.3720   45.6210 C   0  0  0  0  0  0  0  0  0  0  0  0
   55.9000   25.3760   46.4090 C   0  0  0  0  0  0  0  0  0  0  0  0
   54.3740   22.4081   48.3959 H   0  0  0  0  0  0  0  0  0  0  0  0
   54.2537   23.3990   46.9025 H   0  0  0  0  0  0  0  0  0  0  0  0
   55.2266   21.8890   46.9025 H   0  0  0  0  0  0  0  0  0  0  0  0
   58.7394   23.8356   47.5343 H   0  0  0  0  0  0  0  0  0  0  0  0
   59.7825   25.5798   46.0858 H   0  0  0  0  0  0  0  0  0  0  0  0
   59.5305   27.3130   44.4451 H   0  0  0  0  0  0  0  0  0  0  0  0
   57.9144   27.6861   43.7548 H   0  0  0  0  0  0  0  0  0  0  0  0
   57.6580   29.5234   47.2739 H   0  0  0  0  0  0  0  0  0  0  0  0
   57.5654   27.7173   46.9812 H   0  0  0  0  0  0  0  0  0  0  0  0
   59.1355   28.1059   48.7689 H   0  0  0  0  0  0  0  0  0  0  0  0
   60.0415   27.6074   47.2896 H   0  0  0  0  0  0  0  0  0  0  0  0
   57.7391   31.2403   49.5310 H   0  0  0  0  0  0  0  0  0  0  0  0
   57.2984   29.0586   53.1596 H   0  0  0  0  0  0  0  0  0  0  0  0
   59.5790   28.2630   52.9380 H   0  0  0  0  0  0  0  0  0  0  0  0
   61.0034   28.8609   51.0633 H   0  0  0  0  0  0  0  0  0  0  0  0
   61.0931   31.7571   51.1238 H   0  0  0  0  0  0  0  0  0  0  0  0
   62.1225   32.9603   50.2757 H   0  0  0  0  0  0  0  0  0  0  0  0
   60.3360   33.1479   50.2757 H   0  0  0  0  0  0  0  0  0  0  0  0
   62.7149   33.6756   48.8101 H   0  0  0  0  0  0  0  0  0  0  0  0
   63.4424   33.1435   47.2563 H   0  0  0  0  0  0  0  0  0  0  0  0
   61.9089   34.0789   47.2563 H   0  0  0  0  0  0  0  0  0  0  0  0
   58.1266   32.3443   43.1203 H   0  0  0  0  0  0  0  0  0  0  0  0
   59.0735   34.5600   43.7784 H   0  0  0  0  0  0  0  0  0  0  0  0
   58.7877   33.4467   47.9524 H   0  0  0  0  0  0  0  0  0  0  0  0
   57.8941   31.2099   47.2961 H   0  0  0  0  0  0  0  0  0  0  0  0
   55.8456   27.0928   45.0892 H   0  0  0  0  0  0  0  0  0  0  0  0
   54.8044   25.3081   46.4807 H   0  0  0  0  0  0  0  0  0  0  0  0
  1  2  1  0
  2  3  1  0
  3  4  2  0
  4  5  1  0
  5  6  2  0
  6  7  1  0
  7  8  1  0
  8  9  1  0
  9 10  1  0
 10 11  1  0
 11 12  2  0
 12 13  1  0
 13 14  2  0
 14 15  1  0
 15 16  2  0
 16 17  1  0
 17 18  2  0
 12 19  1  0
 19 20  1  0
 19 21  1  0
 21 22  1  0
 21 23  2  0
 23 24  1  0
 24 25  2  0
  8 26  1  0
 26 27  2  0
 26 28  2  0
 26 29  1  0
 29 30  2  0
 30 31  1  0
 31 32  2  0
 32 33  1  0
 32 34  1  0
 34 35  2  0
  6 36  1  0
 36 37  2  0
 37  3  1  0
 24 11  1  0
 35 29  1  0
 18 13  1  0
  1 38  1  0
  1 39  1  0
  1 40  1  0
  4 41  1  0
  5 42  1  0
  7 43  1  0
  7 44  1  0
  9 45  1  0
  9 46  1  0
 10 47  1  0
 10 48  1  0
 14 49  1  0
 16 50  1  0
 17 51  1  0
 18 52  1  0
 20 53  1  0
 20 54  1  0
 20 55  1  0
 22 56  1  0
 22 57  1  0
 22 58  1  0
 30 59  1  0
 31 60  1  0
 34 61  1  0
 35 62  1  0
 36 63  1  0
 37 64  1  0
M  CHG  1  17   1
M  END
>  <UniqueID>  (31) 
27

>  <SMILES>  (31) 
COc1ccc(CN(CCc2c(-c3cnc[nH+]c3)n(C)c(C)nc2=O)S(=O)(=O)c2ccc(Cl)cc2)cc1

>  <Energy>  (31) 
79.00887758355277

>  <Genealogy>  (31) 
COc1ccc(CN(CCc2c(-c3cnc[nH+]c3)n(C)c(C)nc2=O)S(=O)(=O)c2ccc(Cl)cc2)cc1 (protonated)
COc1ccc(CN(CCc2c(-c3cnc[nH+]c3)n(C)c(C)nc2=O)S(=O)(=O)c2ccc(Cl)cc2)cc1 (3D coordinates assigned)
COc1ccc(CN(CCc2c(-c3cnc[nH+]c3)n(C)c(C)nc2=O)S(=O)(=O)c2ccc(Cl)cc2)cc1 (optimized conformer: 79.00887758355277 kcal/mol)

>  <smiles>  (31) 
COc1ccc(CN(CCc2c(-c3cncnc3)n(C)c(C)nc2=O)S(=O)(=O)c2ccc(Cl)cc2)cc1

>  <score_type>  (31) 
oracle

>  <origin>  (31) 
adg

>  <m_score__min__energy>  (31) 
-7.8700000000000001

>  <m_primary>  (31) 
energy

$$$$
31:0
     RDKit          3D

 30 31  0  0  0  0  0  0  0  0999 V2000
   57.2430   24.7970   47.6920 C   0  0  0  0  0  0  0  0  0  0  0  0
   57.4710   25.5630   46.4220 C   0  0  0  0  0  0  0  0  0  0  0  0
   57.6250   24.8820   45.2060 C   0  0  0  0  0  0  0  0  0  0  0  0
   57.7830   25.5970   44.0160 C   0  0  0  0  0  0  0  0  0  0  0  0
   57.7810   26.9940   44.0300 C   0  0  0  0  0  0  0  0  0  0  0  0
   57.6320   27.6920   45.2380 C   0  0  0  0  0  0  0  0  0  0  0  0
   57.6020   29.1290   45.2230 N   0  0  0  0  0  0  0  0  0  0  0  0
   56.4570   29.9040   44.8330 C   0  0  0  0  0  0  0  0  0  0  0  0
   55.3060   29.3950   44.8690 O   0  0  0  0  0  0  0  0  0  0  0  0
   56.5900   31.2910   44.4980 N   0  0  0  0  0  0  0  0  0  0  0  0
   57.4690   32.2290   45.1340 C   0  0  0  0  0  0  0  0  0  0  0  0
   57.6750   33.5200   44.6140 C   0  0  0  0  0  0  0  0  0  0  0  0
   58.5190   34.4190   45.2760 C   0  0  0  0  0  0  0  0  0  0  0  0
   59.1490   34.0410   46.4660 C   0  0  0  0  0  0  0  0  0  0  0  0
   59.9640   34.9130   47.1080 F   0  0  0  0  0  0  0  0  0  0  0  0
   58.9270   32.7690   47.0000 C   0  0  0  0  0  0  0  0  0  0  0  0
   58.0840   31.8690   46.3400 C   0  0  0  0  0  0  0  0  0  0  0  0
   57.4530   26.9680   46.4310 C   0  0  0  0  0  0  0  0  0  0  0  0
   57.4377   25.4511   48.5547 H   0  0  0  0  0  0  0  0  0  0  0  0
   56.2013   24.4454   47.7262 H   0  0  0  0  0  0  0  0  0  0  0  0
   57.9229   23.9330   47.7262 H   0  0  0  0  0  0  0  0  0  0  0  0
   57.6214   23.7821   45.1889 H   0  0  0  0  0  0  0  0  0  0  0  0
   57.9093   25.0583   43.0653 H   0  0  0  0  0  0  0  0  0  0  0  0
   57.8970   27.5502   43.0881 H   0  0  0  0  0  0  0  0  0  0  0  0
   58.4300   29.6440   45.6020 H   0  0  0  0  0  0  0  0  0  0  0  0
   57.1713   33.8236   43.6845 H   0  0  0  0  0  0  0  0  0  0  0  0
   58.6869   35.4234   44.8601 H   0  0  0  0  0  0  0  0  0  0  0  0
   59.4158   32.4751   47.9406 H   0  0  0  0  0  0  0  0  0  0  0  0
   57.9029   30.8730   46.7703 H   0  0  0  0  0  0  0  0  0  0  0  0
   57.2978   27.5059   47.3779 H   0  0  0  0  0  0  0  0  0  0  0  0
  1  2  1  0
  2  3  2  0
  3  4  1  0
  4  5  2  0
  5  6  1  0
  6  7  1  0
  7  8  1  0
  8  9  2  0
  8 10  1  0
 10 11  1  0
 11 12  2  0
 12 13  1  0
 13 14  2  0
 14 15  1  0
 14 16  1  0
 16 17  2  0
  6 18  2  0
 18  2  1  0
 17 11  1  0
  1 19  1  0
  1 20  1  0
  1 21  1  0
  3 22  1  0
  4 23  1  0
  5 24  1  0
  7 25  1  0
 12 26  1  0
 13 27  1  0
 16 28  1  0
 17 29  1  0
 18 30  1  0
M  CHG  1  10  -1
M  END
>  <UniqueID>  (32) 
28

>  <SMILES>  (32) 
Cc1cccc(NC(=O)[N-]c2ccc(F)cc2)c1

>  <Energy>  (32) 
36.58870115678102

>  <Genealogy>  (32) 
Cc1cccc(NC(=O)[N-]c2ccc(F)cc2)c1 (protonated)
Cc1cccc(NC(=O)[N-]c2ccc(F)cc2)c1 (3D coordinates assigned)
Cc1cccc(NC(=O)[N-]c2ccc(F)cc2)c1 (optimized conformer: 36.58870115678102 kcal/mol)

>  <smiles>  (32) 
Cc1cccc(NC(=O)Nc2ccc(F)cc2)c1

>  <score_type>  (32) 
oracle

>  <origin>  (32) 
adg

>  <m_score__min__energy>  (32) 
-8.25

>  <m_primary>  (32) 
energy

$$$$
32:0
     RDKit          3D

 56 59  0  0  0  0  0  0  0  0999 V2000
   54.9326   30.4383   43.7003 H   0  0  0  0  0  0  0  0  0  0  0  0
   55.9160   30.0890   44.0480 C   0  0  0  0  0  0  0  0  0  0  0  0
   57.0720   30.7750   43.6740 C   0  0  0  0  0  0  0  0  0  0  0  0
   56.9980   31.6597   43.0245 H   0  0  0  0  0  0  0  0  0  0  0  0
   58.3230   30.3430   44.1210 C   0  0  0  0  0  0  0  0  0  0  0  0
   59.2270   30.9078   43.8492 H   0  0  0  0  0  0  0  0  0  0  0  0
   58.4310   29.1890   44.9170 C   0  0  0  0  0  0  0  0  0  0  0  0
   57.2650   28.4930   45.2880 C   0  0  0  0  0  0  0  0  0  0  0  0
   56.0070   28.9600   44.8630 C   0  0  0  0  0  0  0  0  0  0  0  0
   55.0928   28.4333   45.1743 H   0  0  0  0  0  0  0  0  0  0  0  0
   57.3830   27.2270   46.0290 C   0  0  0  0  0  0  0  0  0  0  0  0
   56.3940   26.7570   46.6530 O   0  0  0  0  0  0  0  0  0  0  0  0
   58.6690   26.5090   46.0360 C   0  0  0  0  0  0  0  0  0  0  0  0
   58.6290   25.2140   46.1990 N   0  0  0  0  0  0  0  0  0  0  0  0
   58.1500   24.2270   45.2780 C   0  0  0  0  0  0  0  0  0  0  0  0
   58.7350   22.9560   45.2680 C   0  0  0  0  0  0  0  0  0  0  0  0
   59.5739   22.7338   45.9439 H   0  0  0  0  0  0  0  0  0  0  0  0
   58.2580   21.9680   44.4030 C   0  0  0  0  0  0  0  0  0  0  0  0
   58.7282   20.9736   44.3952 H   0  0  0  0  0  0  0  0  0  0  0  0
   57.1830   22.2380   43.5450 C   0  0  0  0  0  0  0  0  0  0  0  0
   56.6440   21.1580   42.6530 C   0  0  0  0  0  0  0  0  0  0  0  0
   56.2371   20.3427   43.2691 H   0  0  0  0  0  0  0  0  0  0  0  0
   55.8463   21.5710   42.0181 H   0  0  0  0  0  0  0  0  0  0  0  0
   57.4536   20.7688   42.0181 H   0  0  0  0  0  0  0  0  0  0  0  0
   56.5600   23.4930   43.5950 C   0  0  0  0  0  0  0  0  0  0  0  0
   55.6986   23.7038   42.9442 H   0  0  0  0  0  0  0  0  0  0  0  0
   57.0300   24.4770   44.4690 C   0  0  0  0  0  0  0  0  0  0  0  0
   56.5208   25.4505   44.5233 H   0  0  0  0  0  0  0  0  0  0  0  0
   59.9770   27.2960   45.8820 C   0  0  2  0  0  0  0  0  0  0  0  0
   60.5747   26.7271   45.1546 H   0  0  0  0  0  0  0  0  0  0  0  0
   60.6930   27.4070   47.1740 N   0  0  0  0  0  0  0  0  0  0  0  0
   61.1630   28.3420   47.2650 H   0  0  0  0  0  0  0  0  0  0  0  0
   59.8560   27.1540   48.3650 C   0  0  0  0  0  0  0  0  0  0  0  0
   58.8238   27.4705   48.1543 H   0  0  0  0  0  0  0  0  0  0  0  0
   59.8870   26.0790   48.5961 H   0  0  0  0  0  0  0  0  0  0  0  0
   60.3830   27.9320   49.5750 C   0  0  0  0  0  0  0  0  0  0  0  0
   59.9959   27.4604   50.4903 H   0  0  0  0  0  0  0  0  0  0  0  0
   61.4817   27.9035   49.5308 H   0  0  0  0  0  0  0  0  0  0  0  0
   59.9610   29.4120   49.5700 C   0  0  0  0  0  0  0  0  0  0  0  0
   58.8852   29.4772   49.7901 H   0  0  0  0  0  0  0  0  0  0  0  0
   60.5509   29.9406   50.3333 H   0  0  0  0  0  0  0  0  0  0  0  0
   60.2220   30.0470   48.2630 N   0  0  0  0  0  0  0  0  0  0  0  0
   61.4500   30.8490   48.2410 C   0  0  0  0  0  0  0  0  0  0  0  0
   61.5894   31.3594   49.2054 H   0  0  0  0  0  0  0  0  0  0  0  0
   62.3364   30.2202   48.0710 H   0  0  0  0  0  0  0  0  0  0  0  0
   61.2710   31.8710   47.1230 C   0  0  0  0  0  0  0  0  0  0  0  0
   61.6457   32.8560   47.4382 H   0  0  0  0  0  0  0  0  0  0  0  0
   61.8313   31.5908   46.2188 H   0  0  0  0  0  0  0  0  0  0  0  0
   59.7710   31.9290   46.8650 C   0  0  0  0  0  0  0  0  0  0  0  0
   59.3925   32.9511   47.0133 H   0  0  0  0  0  0  0  0  0  0  0  0
   59.5181   31.6461   45.8325 H   0  0  0  0  0  0  0  0  0  0  0  0
   59.1590   30.9790   47.8840 C   0  0  0  0  0  0  0  0  0  0  0  0
   58.8099   31.5379   48.7648 H   0  0  0  0  0  0  0  0  0  0  0  0
   58.2906   30.4484   47.4664 H   0  0  0  0  0  0  0  0  0  0  0  0
   59.7590   28.7000   45.3540 C   0  0  0  0  0  0  0  0  0  0  0  0
   60.7500   29.4820   45.3010 O   0  0  0  0  0  0  0  0  0  0  0  0
  1  2  1  0
  2  3  2  0
  3  4  1  0
  3  5  1  0
  5  6  1  0
  5  7  2  0
  7  8  1  0
  8  9  2  0
  9 10  1  0
  8 11  1  0
 11 12  2  0
 11 13  1  0
 13 14  2  0
 14 15  1  0
 15 16  2  0
 16 17  1  0
 16 18  1  0
 18 19  1  0
 18 20  2  0
 20 21  1  0
 21 22  1  0
 21 23  1  0
 21 24  1  0
 20 25  1  0
 25 26  1  0
 25 27  2  0
 27 28  1  0
 13 29  1  0
 29 30  1  6
 29 31  1  0
 31 32  1  0
 31 33  1  0
 33 34  1  0
 33 35  1  0
 33 36  1  0
 36 37  1  0
 36 38  1  0
 36 39  1  0
 39 40  1  0
 39 41  1  0
 39 42  1  0
 42 43  1  0
 43 44  1  0
 43 45  1  0
 43 46  1  0
 46 47  1  0
 46 48  1  0
 46 49  1  0
 49 50  1  0
 49 51  1  0
 49 52  1  0
 52 53  1  0
 52 54  1  0
 29 55  1  0
 55 56  2  0
  9  2  1  0
 27 15  1  0
 52 42  1  0
 55  7  1  0
M  END
>  <UniqueID>  (33) 
29

>  <SMILES>  (33) 
Cc1ccc(/N=C2/C(=O)c3ccccc3C(=O)[C@H]2NCCCN2CCCC2)cc1

>  <Energy>  (33) 
74.59917591641462

>  <Genealogy>  (33) 
Cc1ccc(N=C2C(=O)c3ccccc3C(=O)[C@H]2NCCCN2CCCC2)cc1 (chirality)
Cc1ccc(/N=C2/C(=O)c3ccccc3C(=O)[C@H]2NCCCN2CCCC2)cc1 (cis-trans isomerization)
Cc1ccc(/N=C2/C(=O)c3ccccc3C(=O)[C@H]2NCCCN2CCCC2)cc1 (3D coordinates assigned)
Cc1ccc(/N=C2/C(=O)c3ccccc3C(=O)[C@H]2NCCCN2CCCC2)cc1 (nonaromatic ring conformer: 74.59917591641462 kcal/mol)

>  <smiles>  (33) 
Cc1ccc(N=C2C(=O)c3ccccc3C(=O)C2NCCCN2CCCC2)cc1

>  <score_type>  (33) 
oracle

>  <origin>  (33) 
adg

>  <m_score__min__energy>  (33) 
-8.3499999999999996

>  <m_primary>  (33) 
energy

$$$$
33:0
     RDKit          3D

 40 42  0  0  0  0  0  0  0  0999 V2000
   57.3630   30.6760   43.8950 C   0  0  0  0  0  0  0  0  0  0  0  0
   57.3930   31.1060   45.2520 O   0  0  0  0  0  0  0  0  0  0  0  0
   58.1350   32.2010   45.7190 C   0  0  0  0  0  0  0  0  0  0  0  0
   57.7380   33.5330   45.4970 C   0  0  0  0  0  0  0  0  0  0  0  0
   58.5110   34.5890   45.9850 C   0  0  0  0  0  0  0  0  0  0  0  0
   59.6870   34.3290   46.6920 C   0  0  0  0  0  0  0  0  0  0  0  0
   60.1050   33.0070   46.9100 C   0  0  0  0  0  0  0  0  0  0  0  0
   61.3720   32.7350   47.6340 C   0  0  0  0  0  0  0  0  0  0  0  0
   62.5880   32.8270   46.9370 C   0  0  0  0  0  0  0  0  0  0  0  0
   63.7710   32.6290   47.5770 N   0  0  0  0  0  0  0  0  0  0  0  0
   63.8200   32.3380   48.9040 C   0  0  0  0  0  0  0  0  0  0  0  0
   62.6430   32.2230   49.6410 C   0  0  0  0  0  0  0  0  0  0  0  0
   61.4030   32.4080   49.0120 C   0  0  0  0  0  0  0  0  0  0  0  0
   60.1660   32.2260   49.8100 C   0  0  0  0  0  0  0  0  0  0  0  0
   59.7300   33.2650   50.6490 C   0  0  0  0  0  0  0  0  0  0  0  0
   58.5510   33.1320   51.3840 C   0  0  0  0  0  0  0  0  0  0  0  0
   57.8000   31.9600   51.2940 C   0  0  0  0  0  0  0  0  0  0  0  0
   58.2290   30.9130   50.4760 C   0  0  0  0  0  0  0  0  0  0  0  0
   59.4200   31.0300   49.7320 C   0  0  0  0  0  0  0  0  0  0  0  0
   59.8910   29.9850   48.9210 O   0  0  0  0  0  0  0  0  0  0  0  0
   59.0610   29.0390   48.2560 C   0  0  0  0  0  0  0  0  0  0  0  0
   59.3140   31.9490   46.4310 C   0  0  0  0  0  0  0  0  0  0  0  0
   57.2865   29.5792   43.8595 H   0  0  0  0  0  0  0  0  0  0  0  0
   56.4937   31.1208   43.3886 H   0  0  0  0  0  0  0  0  0  0  0  0
   58.2856   30.9958   43.3886 H   0  0  0  0  0  0  0  0  0  0  0  0
   56.8150   33.7432   44.9368 H   0  0  0  0  0  0  0  0  0  0  0  0
   58.1928   35.6277   45.8121 H   0  0  0  0  0  0  0  0  0  0  0  0
   60.2885   35.1643   47.0799 H   0  0  0  0  0  0  0  0  0  0  0  0
   62.5831   33.0617   45.8623 H   0  0  0  0  0  0  0  0  0  0  0  0
   64.6620   32.7090   47.0390 H   0  0  0  0  0  0  0  0  0  0  0  0
   64.7922   32.1928   49.3977 H   0  0  0  0  0  0  0  0  0  0  0  0
   62.6863   31.9875   50.7146 H   0  0  0  0  0  0  0  0  0  0  0  0
   60.3215   34.1891   50.7272 H   0  0  0  0  0  0  0  0  0  0  0  0
   58.2137   33.9522   52.0348 H   0  0  0  0  0  0  0  0  0  0  0  0
   56.8675   31.8604   51.8689 H   0  0  0  0  0  0  0  0  0  0  0  0
   57.6332   29.9905   50.4119 H   0  0  0  0  0  0  0  0  0  0  0  0
   58.5276   28.4311   49.0016 H   0  0  0  0  0  0  0  0  0  0  0  0
   58.3318   29.5698   47.6262 H   0  0  0  0  0  0  0  0  0  0  0  0
   59.6821   28.3851   47.6262 H   0  0  0  0  0  0  0  0  0  0  0  0
   59.6247   30.9104   46.6176 H   0  0  0  0  0  0  0  0  0  0  0  0
  1  2  1  0
  2  3  1  0
  3  4  2  0
  4  5  1  0
  5  6  2  0
  6  7  1  0
  7  8  1  0
  8  9  2  0
  9 10  1  0
 10 11  2  0
 11 12  1  0
 12 13  2  0
 13 14  1  0
 14 15  2  0
 15 16  1  0
 16 17  2  0
 17 18  1  0
 18 19  2  0
 19 20  1  0
 20 21  1  0
  7 22  2  0
 22  3  1  0
 13  8  1  0
 19 14  1  0
  1 23  1  0
  1 24  1  0
  1 25  1  0
  4 26  1  0
  5 27  1  0
  6 28  1  0
  9 29  1  0
 10 30  1  0
 11 31  1  0
 12 32  1  0
 15 33  1  0
 16 34  1  0
 17 35  1  0
 18 36  1  0
 21 37  1  0
 21 38  1  0
 21 39  1  0
 22 40  1  0
M  CHG  1  10   1
M  END
>  <UniqueID>  (34) 
30

>  <SMILES>  (34) 
COc1cccc(-c2c[nH+]ccc2-c2ccccc2OC)c1

>  <Energy>  (34) 
53.55551371781782

>  <Genealogy>  (34) 
COc1cccc(-c2c[nH+]ccc2-c2ccccc2OC)c1 (protonated)
COc1cccc(-c2c[nH+]ccc2-c2ccccc2OC)c1 (3D coordinates assigned)
COc1cccc(-c2c[nH+]ccc2-c2ccccc2OC)c1 (optimized conformer: 53.55551371781782 kcal/mol)

>  <smiles>  (34) 
COc1cccc(-c2cnccc2-c2ccccc2OC)c1

>  <score_type>  (34) 
oracle

>  <origin>  (34) 
adg

>  <m_score__min__energy>  (34) 
-5.6399999999999997

>  <m_primary>  (34) 
energy

$$$$
34:0
     RDKit          3D

 35 36  0  0  0  0  0  0  0  0999 V2000
   59.0790   33.4110   51.5220 C   0  0  0  0  0  0  0  0  0  0  0  0
   60.4550   33.7620   51.4340 O   0  0  0  0  0  0  0  0  0  0  0  0
   61.1490   33.7940   50.2220 C   0  0  0  0  0  0  0  0  0  0  0  0
   62.5200   33.5340   50.2040 C   0  0  0  0  0  0  0  0  0  0  0  0
   63.1940   33.5710   48.9830 C   0  0  0  0  0  0  0  0  0  0  0  0
   64.5680   33.3180   48.9480 O   0  0  0  0  0  0  0  0  0  0  0  0
   65.1870   32.3190   49.7510 C   0  0  0  0  0  0  0  0  0  0  0  0
   62.5060   33.8540   47.8430 N   0  0  0  0  0  0  0  0  0  0  0  0
   61.1690   34.0970   47.8690 C   0  0  0  0  0  0  0  0  0  0  0  0
   60.5060   34.4060   46.6760 O   0  0  0  0  0  0  0  0  0  0  0  0
   59.4510   33.6670   46.1200 C   0  0  0  0  0  0  0  0  0  0  0  0
   58.4700   34.2570   45.3020 C   0  0  0  0  0  0  0  0  0  0  0  0
   57.4310   33.4830   44.7770 C   0  0  0  0  0  0  0  0  0  0  0  0
   57.3370   32.1190   45.0810 C   0  0  0  0  0  0  0  0  0  0  0  0
   56.2660   31.3590   44.5040 N   0  0  0  0  0  0  0  0  0  0  0  0
   56.1760   29.9300   44.4300 C   0  0  0  0  0  0  0  0  0  0  0  0
   57.2450   29.1650   43.7260 C   0  0  0  0  0  0  0  0  0  0  0  0
   55.1610   29.3240   44.8640 O   0  0  0  0  0  0  0  0  0  0  0  0
   58.3180   31.5300   45.8990 C   0  0  0  0  0  0  0  0  0  0  0  0
   59.3570   32.3050   46.4230 C   0  0  0  0  0  0  0  0  0  0  0  0
   60.5050   34.0750   49.0570 N   0  0  0  0  0  0  0  0  0  0  0  0
   58.7865   33.3364   52.5798 H   0  0  0  0  0  0  0  0  0  0  0  0
   58.4713   34.1829   51.0271 H   0  0  0  0  0  0  0  0  0  0  0  0
   58.9153   32.4423   51.0271 H   0  0  0  0  0  0  0  0  0  0  0  0
   63.0591   33.3042   51.1349 H   0  0  0  0  0  0  0  0  0  0  0  0
   65.0383   32.5590   50.8141 H   0  0  0  0  0  0  0  0  0  0  0  0
   64.7371   31.3399   49.5297 H   0  0  0  0  0  0  0  0  0  0  0  0
   66.2640   32.2860   49.5297 H   0  0  0  0  0  0  0  0  0  0  0  0
   58.5208   35.3320   45.0746 H   0  0  0  0  0  0  0  0  0  0  0  0
   56.6816   33.9487   44.1202 H   0  0  0  0  0  0  0  0  0  0  0  0
   57.9060   28.6920   44.4671 H   0  0  0  0  0  0  0  0  0  0  0  0
   56.7861   28.3890   43.0958 H   0  0  0  0  0  0  0  0  0  0  0  0
   57.8315   29.8498   43.0958 H   0  0  0  0  0  0  0  0  0  0  0  0
   58.2675   30.4552   46.1274 H   0  0  0  0  0  0  0  0  0  0  0  0
   60.1070   31.8394   47.0793 H   0  0  0  0  0  0  0  0  0  0  0  0
  1  2  1  0
  2  3  1  0
  3  4  2  0
  4  5  1  0
  5  6  1  0
  6  7  1  0
  5  8  2  0
  8  9  1  0
  9 10  1  0
 10 11  1  0
 11 12  2  0
 12 13  1  0
 13 14  2  0
 14 15  1  0
 15 16  1  0
 16 17  1  0
 16 18  2  0
 14 19  1  0
 19 20  2  0
  9 21  2  0
 21  3  1  0
 20 11  1  0
  1 22  1  0
  1 23  1  0
  1 24  1  0
  4 25  1  0
  7 26  1  0
  7 27  1  0
  7 28  1  0
 12 29  1  0
 13 30  1  0
 17 31  1  0
 17 32  1  0
 17 33  1  0
 19 34  1  0
 20 35  1  0
M  CHG  1  15  -1
M  END
>  <UniqueID>  (35) 
31

>  <SMILES>  (35) 
COc1cc(OC)nc(Oc2ccc([N-]C(C)=O)cc2)n1

>  <Energy>  (35) 
37.86799919137604

>  <Genealogy>  (35) 
COc1cc(OC)nc(Oc2ccc([N-]C(C)=O)cc2)n1 (protonated)
COc1cc(OC)nc(Oc2ccc([N-]C(C)=O)cc2)n1 (3D coordinates assigned)
COc1cc(OC)nc(Oc2ccc([N-]C(C)=O)cc2)n1 (optimized conformer: 37.86799919137604 kcal/mol)

>  <smiles>  (35) 
COc1cc(OC)nc(Oc2ccc(NC(C)=O)cc2)n1

>  <score_type>  (35) 
oracle

>  <origin>  (35) 
adg

>  <m_score__min__energy>  (35) 
-7.5800000000000001

>  <m_primary>  (35) 
energy

$$$$
35:0
     RDKit          3D

 61 64  0  0  0  0  0  0  0  0999 V2000
   53.9990   24.4550   45.6010 C   0  0  0  0  0  0  0  0  0  0  0  0
   54.8180   25.5580   45.9720 O   0  0  0  0  0  0  0  0  0  0  0  0
   56.2200   25.5260   46.0220 C   0  0  0  0  0  0  0  0  0  0  0  0
   56.9560   24.3490   45.7850 C   0  0  0  0  0  0  0  0  0  0  0  0
   58.3620   24.3630   45.8600 C   0  0  0  0  0  0  0  0  0  0  0  0
   59.1390   23.2140   45.6420 O   0  0  0  0  0  0  0  0  0  0  0  0
   58.8730   22.2400   44.6350 C   0  0  0  0  0  0  0  0  0  0  0  0
   59.0210   25.5600   46.1640 C   0  0  0  0  0  0  0  0  0  0  0  0
   58.3000   26.7420   46.3920 C   0  0  0  0  0  0  0  0  0  0  0  0
   58.9880   27.9650   46.7210 N   0  0  0  0  0  0  0  0  0  0  0  0
   59.7050   28.7240   45.6890 C   0  0  0  0  0  0  0  0  0  0  0  0
   59.1780   30.1670   45.6060 C   0  0  0  0  0  0  0  0  0  0  0  0
   58.6600   30.7070   46.9660 C   0  0  0  0  0  0  0  0  0  0  0  0
   58.8870   32.2000   47.0790 C   0  0  0  0  0  0  0  0  0  0  0  0
   57.9200   32.9770   46.8480 O   0  0  0  0  0  0  0  0  0  0  0  0
   60.1710   32.7530   47.4390 N   0  0  0  0  0  0  0  0  0  0  0  0
   60.2370   34.1230   47.9740 C   0  0  0  0  0  0  0  0  0  0  0  0
   61.3850   34.2630   48.9860 C   0  0  0  0  0  0  0  0  0  0  0  0
   62.6100   33.5960   48.5220 N   0  0  0  0  0  0  0  0  0  0  0  0
   63.7240   33.4570   49.4250 C   0  0  0  0  0  0  0  0  0  0  0  0
   63.6550   33.9830   50.7270 C   0  0  0  0  0  0  0  0  0  0  0  0
   64.7530   33.8600   51.5790 C   0  0  0  0  0  0  0  0  0  0  0  0
   65.9100   33.2250   51.1310 C   0  0  0  0  0  0  0  0  0  0  0  0
   65.9520   32.7180   49.8310 C   0  0  0  0  0  0  0  0  0  0  0  0
   64.8730   32.8440   49.0110 N   0  0  0  0  0  0  0  0  0  0  0  0
   62.6310   32.9690   47.1950 C   0  0  0  0  0  0  0  0  0  0  0  0
   61.4120   32.0560   47.0540 C   0  0  0  0  0  0  0  0  0  0  0  0
   59.3060   29.9720   48.1540 C   0  0  0  0  0  0  0  0  0  0  0  0
   58.9580   28.4750   48.1010 C   0  0  0  0  0  0  0  0  0  0  0  0
   56.8990   26.7110   46.3250 C   0  0  0  0  0  0  0  0  0  0  0  0
   53.6268   23.9537   46.5066 H   0  0  0  0  0  0  0  0  0  0  0  0
   53.1475   24.8148   45.0048 H   0  0  0  0  0  0  0  0  0  0  0  0
   54.5897   23.7439   45.0048 H   0  0  0  0  0  0  0  0  0  0  0  0
   56.4301   23.4144   45.5402 H   0  0  0  0  0  0  0  0  0  0  0  0
   58.6117   21.2831   45.1104 H   0  0  0  0  0  0  0  0  0  0  0  0
   58.0347   22.5794   44.0089 H   0  0  0  0  0  0  0  0  0  0  0  0
   59.7675   22.1062   44.0089 H   0  0  0  0  0  0  0  0  0  0  0  0
   60.1192   25.5742   46.2250 H   0  0  0  0  0  0  0  0  0  0  0  0
   60.7766   28.7452   45.9363 H   0  0  0  0  0  0  0  0  0  0  0  0
   59.5457   28.2343   44.7170 H   0  0  0  0  0  0  0  0  0  0  0  0
   59.9940   30.8180   45.2591 H   0  0  0  0  0  0  0  0  0  0  0  0
   58.3269   30.1650   44.9091 H   0  0  0  0  0  0  0  0  0  0  0  0
   57.5775   30.5147   47.0015 H   0  0  0  0  0  0  0  0  0  0  0  0
   60.4011   34.8260   47.1440 H   0  0  0  0  0  0  0  0  0  0  0  0
   59.2891   34.3461   48.4855 H   0  0  0  0  0  0  0  0  0  0  0  0
   61.5975   35.3317   49.1370 H   0  0  0  0  0  0  0  0  0  0  0  0
   61.0713   33.7841   49.9253 H   0  0  0  0  0  0  0  0  0  0  0  0
   62.7409   34.4884   51.0719 H   0  0  0  0  0  0  0  0  0  0  0  0
   64.7057   34.2630   52.6014 H   0  0  0  0  0  0  0  0  0  0  0  0
   66.7812   33.1244   51.7950 H   0  0  0  0  0  0  0  0  0  0  0  0
   66.8604   32.2149   49.4681 H   0  0  0  0  0  0  0  0  0  0  0  0
   64.9330   32.4410   48.0500 H   0  0  0  0  0  0  0  0  0  0  0  0
   62.5996   33.7479   46.4189 H   0  0  0  0  0  0  0  0  0  0  0  0
   63.5518   32.3787   47.0784 H   0  0  0  0  0  0  0  0  0  0  0  0
   61.3289   31.7290   46.0070 H   0  0  0  0  0  0  0  0  0  0  0  0
   61.5464   31.1930   47.7227 H   0  0  0  0  0  0  0  0  0  0  0  0
   60.3982   30.0936   48.1068 H   0  0  0  0  0  0  0  0  0  0  0  0
   58.9225   30.3980   49.0928 H   0  0  0  0  0  0  0  0  0  0  0  0
   59.6882   27.9163   48.7049 H   0  0  0  0  0  0  0  0  0  0  0  0
   57.9404   28.3420   48.4970 H   0  0  0  0  0  0  0  0  0  0  0  0
   56.3265   27.6312   46.5133 H   0  0  0  0  0  0  0  0  0  0  0  0
  1  2  1  0
  2  3  1  0
  3  4  2  0
  4  5  1  0
  5  6  1  0
  6  7  1  0
  5  8  2  0
  8  9  1  0
  9 10  1  0
 10 11  1  0
 11 12  1  0
 12 13  1  0
 13 14  1  0
 14 15  2  0
 14 16  1  0
 16 17  1  0
 17 18  1  0
 18 19  1  0
 19 20  1  0
 20 21  2  0
 21 22  1  0
 22 23  2  0
 23 24  1  0
 24 25  2  0
 19 26  1  0
 26 27  1  0
 13 28  1  0
 28 29  1  0
  9 30  2  0
 30  3  1  0
 29 10  1  0
 27 16  1  0
 25 20  1  0
  1 31  1  0
  1 32  1  0
  1 33  1  0
  4 34  1  0
  7 35  1  0
  7 36  1  0
  7 37  1  0
  8 38  1  0
 11 39  1  0
 11 40  1  0
 12 41  1  0
 12 42  1  0
 13 43  1  0
 17 44  1  0
 17 45  1  0
 18 46  1  0
 18 47  1  0
 21 48  1  0
 22 49  1  0
 23 50  1  0
 24 51  1  0
 25 52  1  0
 26 53  1  0
 26 54  1  0
 27 55  1  0
 27 56  1  0
 28 57  1  0
 28 58  1  0
 29 59  1  0
 29 60  1  0
 30 61  1  0
M  CHG  1  25   1
M  END
>  <UniqueID>  (36) 
32

>  <SMILES>  (36) 
COc1cc(OC)cc(N2CCC(C(=O)N3CCN(c4cccc[nH+]4)CC3)CC2)c1

>  <Energy>  (36) 
73.82026494434281

>  <Genealogy>  (36) 
COc1cc(OC)cc(N2CCC(C(=O)N3CCN(c4cccc[nH+]4)CC3)CC2)c1 (protonated)
COc1cc(OC)cc(N2CCC(C(=O)N3CCN(c4cccc[nH+]4)CC3)CC2)c1 (3D coordinates assigned)
COc1cc(OC)cc(N2CCC(C(=O)N3CCN(c4cccc[nH+]4)CC3)CC2)c1 (nonaromatic ring conformer: 73.82026494434281 kcal/mol)

>  <smiles>  (36) 
COc1cc(OC)cc(N2CCC(C(=O)N3CCN(c4ccccn4)CC3)CC2)c1

>  <score_type>  (36) 
oracle

>  <origin>  (36) 
adg

>  <m_score__min__energy>  (36) 
-7.3399999999999999

>  <m_primary>  (36) 
energy

$$$$
36:0
     RDKit          3D

 53 55  0  0  0  0  0  0  0  0999 V2000
   63.0560   32.7410   47.1340 C   0  0  0  0  0  0  0  0  0  0  0  0
   61.5620   32.4300   47.1260 C   0  0  0  0  0  0  0  0  0  0  0  0
   61.3090   30.9270   47.2730 C   0  0  0  0  0  0  0  0  0  0  0  0
   60.4830   30.4510   46.2100 O   0  0  0  0  0  0  0  0  0  0  0  0
   59.6570   29.3150   46.2550 C   0  0  0  0  0  0  0  0  0  0  0  0
   59.7020   28.3960   47.3220 C   0  0  0  0  0  0  0  0  0  0  0  0
   58.8530   27.2880   47.3430 C   0  0  0  0  0  0  0  0  0  0  0  0
   57.9490   27.0730   46.2980 C   0  0  0  0  0  0  0  0  0  0  0  0
   56.8540   25.6950   46.3450 S   0  0  0  0  0  0  0  0  0  0  0  0
   55.4700   26.1490   45.9790 O   0  0  0  0  0  0  0  0  0  0  0  0
   56.8180   25.1250   47.7380 O   0  0  0  0  0  0  0  0  0  0  0  0
   57.3900   24.4850   45.2050 N   0  0  0  0  0  0  0  0  0  0  0  0
   56.7290   23.2020   45.4470 C   0  0  0  0  0  0  0  0  0  0  0  0
   56.6800   22.4930   44.1110 C   0  0  0  0  0  0  0  0  0  0  0  0
   56.5770   23.6150   43.0970 C   0  0  0  0  0  0  0  0  0  0  0  0
   57.0670   24.8650   43.8220 C   0  0  0  0  0  0  0  0  0  0  0  0
   57.8970   27.9770   45.2320 C   0  0  0  0  0  0  0  0  0  0  0  0
   58.7530   29.0920   45.1930 C   0  0  0  0  0  0  0  0  0  0  0  0
   58.6510   30.0340   44.1020 N   0  0  0  0  0  0  0  0  0  0  0  0
   57.5190   30.9430   44.3290 C   0  0  0  0  0  0  0  0  0  0  0  0
   57.9860   32.2060   45.0040 C   0  0  0  0  0  0  0  0  0  0  0  0
   58.5020   33.2690   44.2420 C   0  0  0  0  0  0  0  0  0  0  0  0
   58.8970   34.4560   44.8670 C   0  0  0  0  0  0  0  0  0  0  0  0
   58.7660   34.5960   46.2510 C   0  0  0  0  0  0  0  0  0  0  0  0
   58.2420   33.5490   47.0140 C   0  0  0  0  0  0  0  0  0  0  0  0
   57.8470   32.3590   46.3930 C   0  0  0  0  0  0  0  0  0  0  0  0
   63.4096   32.8146   48.1730 H   0  0  0  0  0  0  0  0  0  0  0  0
   63.6007   31.9370   46.6174 H   0  0  0  0  0  0  0  0  0  0  0  0
   63.2346   33.6956   46.6174 H   0  0  0  0  0  0  0  0  0  0  0  0
   61.0809   32.9584   47.9623 H   0  0  0  0  0  0  0  0  0  0  0  0
   61.1421   32.7618   46.1650 H   0  0  0  0  0  0  0  0  0  0  0  0
   62.2711   30.3943   47.2498 H   0  0  0  0  0  0  0  0  0  0  0  0
   60.7969   30.7450   48.2293 H   0  0  0  0  0  0  0  0  0  0  0  0
   60.4130   28.5531   48.1465 H   0  0  0  0  0  0  0  0  0  0  0  0
   58.8953   26.5813   48.1849 H   0  0  0  0  0  0  0  0  0  0  0  0
   57.3037   22.6080   46.1729 H   0  0  0  0  0  0  0  0  0  0  0  0
   55.7205   23.3431   45.8628 H   0  0  0  0  0  0  0  0  0  0  0  0
   57.5943   21.9034   43.9487 H   0  0  0  0  0  0  0  0  0  0  0  0
   55.8417   21.7842   44.0411 H   0  0  0  0  0  0  0  0  0  0  0  0
   57.2114   23.4035   42.2236 H   0  0  0  0  0  0  0  0  0  0  0  0
   55.5491   23.7356   42.7244 H   0  0  0  0  0  0  0  0  0  0  0  0
   57.9645   25.2593   43.3230 H   0  0  0  0  0  0  0  0  0  0  0  0
   56.2918   25.6453   43.8091 H   0  0  0  0  0  0  0  0  0  0  0  0
   57.1786   27.8140   44.4151 H   0  0  0  0  0  0  0  0  0  0  0  0
   58.5100   29.5190   43.2020 H   0  0  0  0  0  0  0  0  0  0  0  0
   59.5380   30.5820   44.0150 H   0  0  0  0  0  0  0  0  0  0  0  0
   57.0592   31.1974   43.3626 H   0  0  0  0  0  0  0  0  0  0  0  0
   56.7846   30.4428   44.9774 H   0  0  0  0  0  0  0  0  0  0  0  0
   58.5953   33.1666   43.1508 H   0  0  0  0  0  0  0  0  0  0  0  0
   59.3114   35.2805   44.2683 H   0  0  0  0  0  0  0  0  0  0  0  0
   59.0756   35.5312   46.7405 H   0  0  0  0  0  0  0  0  0  0  0  0
   58.1400   33.6605   48.1036 H   0  0  0  0  0  0  0  0  0  0  0  0
   57.4260   31.5403   46.9950 H   0  0  0  0  0  0  0  0  0  0  0  0
  1  2  1  0
  2  3  1  0
  3  4  1  0
  4  5  1  0
  5  6  2  0
  6  7  1  0
  7  8  2  0
  8  9  1  0
  9 10  2  0
  9 11  2  0
  9 12  1  0
 12 13  1  0
 13 14  1  0
 14 15  1  0
 15 16  1  0
  8 17  1  0
 17 18  2  0
 18 19  1  0
 19 20  1  0
 20 21  1  0
 21 22  2  0
 22 23  1  0
 23 24  2  0
 24 25  1  0
 25 26  2  0
 18  5  1  0
 26 21  1  0
 16 12  1  0
  1 27  1  0
  1 28  1  0
  1 29  1  0
  2 30  1  0
  2 31  1  0
  3 32  1  0
  3 33  1  0
  6 34  1  0
  7 35  1  0
 13 36  1  0
 13 37  1  0
 14 38  1  0
 14 39  1  0
 15 40  1  0
 15 41  1  0
 16 42  1  0
 16 43  1  0
 17 44  1  0
 19 45  1  0
 19 46  1  0
 20 47  1  0
 20 48  1  0
 22 49  1  0
 23 50  1  0
 24 51  1  0
 25 52  1  0
 26 53  1  0
M  CHG  1  19   1
M  END
>  <UniqueID>  (37) 
33

>  <SMILES>  (37) 
CCCOc1ccc(S(=O)(=O)N2CCCC2)cc1[NH2+]Cc1ccccc1

>  <Energy>  (37) 
49.75382898147034

>  <Genealogy>  (37) 
CCCOc1ccc(S(=O)(=O)N2CCCC2)cc1[NH2+]Cc1ccccc1 (protonated)
CCCOc1ccc(S(=O)(=O)N2CCCC2)cc1[NH2+]Cc1ccccc1 (3D coordinates assigned)
CCCOc1ccc(S(=O)(=O)N2CCCC2)cc1[NH2+]Cc1ccccc1 (nonaromatic ring conformer: 49.75382898147034 kcal/mol)

>  <smiles>  (37) 
CCCOc1ccc(S(=O)(=O)N2CCCC2)cc1NCc1ccccc1

>  <score_type>  (37) 
oracle

>  <origin>  (37) 
adg

>  <m_score__min__energy>  (37) 
-7.1200000000000001

>  <m_primary>  (37) 
energy

$$$$
37:0
     RDKit          3D

 47 50  0  0  0  0  0  0  0  0999 V2000
   60.7530   28.1310   46.7620 C   0  0  0  0  0  0  0  0  0  0  0  0
   59.6210   28.8150   47.5380 C   0  0  1  0  0  0  0  0  0  0  0  0
   60.1630   29.5070   48.7990 C   0  0  0  0  0  0  0  0  0  0  0  0
   60.8650   30.6920   48.4440 O   0  0  0  0  0  0  0  0  0  0  0  0
   60.3600   31.5560   47.4700 C   0  0  0  0  0  0  0  0  0  0  0  0
   60.8520   32.8660   47.3630 C   0  0  0  0  0  0  0  0  0  0  0  0
   61.8830   33.3330   48.2450 N   0  0  0  0  0  0  0  0  0  0  0  0
   63.2910   33.0670   47.9340 C   0  0  0  0  0  0  0  0  0  0  0  0
   64.1820   33.3720   49.1480 C   0  0  0  0  0  0  0  0  0  0  0  0
   63.5730   32.8940   50.4070 N   0  0  0  0  0  0  0  0  0  0  0  0
   63.5570   31.4230   50.4830 C   0  0  0  0  0  0  0  0  0  0  0  0
   62.2340   33.4790   50.6870 C   0  0  0  0  0  0  0  0  0  0  0  0
   61.5380   34.0840   49.4520 C   0  0  0  0  0  0  0  0  0  0  0  0
   60.3130   33.7290   46.4000 C   0  0  0  0  0  0  0  0  0  0  0  0
   60.7650   35.0050   46.2960 F   0  0  0  0  0  0  0  0  0  0  0  0
   59.2860   33.2970   45.5590 C   0  0  0  0  0  0  0  0  0  0  0  0
   58.7960   31.9810   45.6480 C   0  0  0  0  0  0  0  0  0  0  0  0
   57.7660   31.5220   44.8090 C   0  0  0  0  0  0  0  0  0  0  0  0
   57.2340   32.3060   43.9740 O   0  0  0  0  0  0  0  0  0  0  0  0
   57.3190   30.1900   44.9100 C   0  0  0  0  0  0  0  0  0  0  0  0
   56.2430   29.6660   44.0290 C   0  0  0  0  0  0  0  0  0  0  0  0
   56.4480   29.5210   42.6200 N   0  0  0  0  0  0  0  0  0  0  0  0
   55.1290   29.3390   44.5180 O   0  0  0  0  0  0  0  0  0  0  0  0
   57.9370   29.3400   45.8400 C   0  0  0  0  0  0  0  0  0  0  0  0
   58.9320   29.7900   46.6640 N   0  0  0  0  0  0  0  0  0  0  0  0
   59.3550   31.0950   46.5970 C   0  0  0  0  0  0  0  0  0  0  0  0
   61.4729   27.6960   47.4709 H   0  0  0  0  0  0  0  0  0  0  0  0
   60.3346   27.3344   46.1292 H   0  0  0  0  0  0  0  0  0  0  0  0
   61.2636   28.8719   46.1292 H   0  0  0  0  0  0  0  0  0  0  0  0
   58.8989   28.0491   47.8572 H   0  0  0  0  0  0  0  0  0  0  0  0
   59.3235   29.7662   49.4609 H   0  0  0  0  0  0  0  0  0  0  0  0
   60.8512   28.8228   49.3169 H   0  0  0  0  0  0  0  0  0  0  0  0
   63.4062   32.0084   47.6583 H   0  0  0  0  0  0  0  0  0  0  0  0
   63.5972   33.7142   47.0989 H   0  0  0  0  0  0  0  0  0  0  0  0
   65.1537   32.8750   49.0109 H   0  0  0  0  0  0  0  0  0  0  0  0
   64.3037   34.4630   49.2186 H   0  0  0  0  0  0  0  0  0  0  0  0
   63.5536   31.1104   51.5376 H   0  0  0  0  0  0  0  0  0  0  0  0
   62.6546   31.0399   49.9841 H   0  0  0  0  0  0  0  0  0  0  0  0
   64.4508   31.0203   49.9841 H   0  0  0  0  0  0  0  0  0  0  0  0
   61.5889   32.6856   51.0924 H   0  0  0  0  0  0  0  0  0  0  0  0
   62.3918   34.3044   51.3968 H   0  0  0  0  0  0  0  0  0  0  0  0
   60.4484   34.0507   49.5990 H   0  0  0  0  0  0  0  0  0  0  0  0
   61.8748   35.1240   49.3300 H   0  0  0  0  0  0  0  0  0  0  0  0
   58.8565   33.9906   44.8211 H   0  0  0  0  0  0  0  0  0  0  0  0
   55.6650   29.2000   42.0090 H   0  0  0  0  0  0  0  0  0  0  0  0
   57.3890   29.6550   42.1890 H   0  0  0  0  0  0  0  0  0  0  0  0
   57.6148   28.2904   45.9078 H   0  0  0  0  0  0  0  0  0  0  0  0
  1  2  1  0
  2  3  1  0
  3  4  1  0
  4  5  1  0
  5  6  1  0
  6  7  1  0
  7  8  1  0
  8  9  1  0
  9 10  1  0
 10 11  1  0
 10 12  1  0
 12 13  1  0
  6 14  2  0
 14 15  1  0
 14 16  1  0
 16 17  2  0
 17 18  1  0
 18 19  2  0
 18 20  1  0
 20 21  1  0
 21 22  1  0
 21 23  2  0
 20 24  2  0
 24 25  1  0
 25 26  1  0
 25  2  1  0
 26  5  2  0
 13  7  1  0
 26 17  1  0
  1 27  1  0
  1 28  1  0
  1 29  1  0
  2 30  1  1
  3 31  1  0
  3 32  1  0
  8 33  1  0
  8 34  1  0
  9 35  1  0
  9 36  1  0
 11 37  1  0
 11 38  1  0
 11 39  1  0
 12 40  1  0
 12 41  1  0
 13 42  1  0
 13 43  1  0
 16 44  1  0
 22 45  1  0
 22 46  1  0
 24 47  1  0
M  END
>  <UniqueID>  (38) 
34

>  <SMILES>  (38) 
C[C@H]1COc2c(N3CCN(C)CC3)c(F)cc3c(=O)c(C(N)=O)cn1c23

>  <Energy>  (38) 
70.6343197232758

>  <Genealogy>  (38) 
C[C@H]1COc2c(N3CCN(C)CC3)c(F)cc3c(=O)c(C(N)=O)cn1c23 (chirality)
C[C@H]1COc2c(N3CCN(C)CC3)c(F)cc3c(=O)c(C(N)=O)cn1c23 (3D coordinates assigned)
C[C@H]1COc2c(N3CCN(C)CC3)c(F)cc3c(=O)c(C(N)=O)cn1c23 (nonaromatic ring conformer: 70.6343197232758 kcal/mol)

>  <smiles>  (38) 
CC1COc2c(N3CCN(C)CC3)c(F)cc3c(=O)c(C(N)=O)cn1c23

>  <score_type>  (38) 
oracle

>  <origin>  (38) 
adg

>  <m_score__min__energy>  (38) 
-7.9400000000000004

>  <m_primary>  (38) 
energy

$$$$
38:0
     RDKit          3D

 35 37  0  0  0  0  0  0  0  0999 V2000
   63.7740   33.5680   49.2580 C   0  0  0  0  0  0  0  0  0  0  0  0
   63.8450   33.0390   47.9710 C   0  0  0  0  0  0  0  0  0  0  0  0
   62.7350   33.1150   47.1280 C   0  0  0  0  0  0  0  0  0  0  0  0
   61.5550   33.7260   47.5830 C   0  0  0  0  0  0  0  0  0  0  0  0
   60.4060   33.8080   46.7150 N   0  0  0  0  0  0  0  0  0  0  0  0
   59.5540   32.8100   46.3960 C   0  0  0  0  0  0  0  0  0  0  0  0
   58.5830   33.3240   45.5640 C   0  0  0  0  0  0  0  0  0  0  0  0
   57.4070   32.5920   44.9820 C   0  0  0  0  0  0  0  0  0  0  0  0
   57.7810   31.3550   44.2610 N   0  0  0  0  0  0  0  0  0  0  0  0
   56.8690   30.9770   43.1570 C   0  0  0  0  0  0  0  0  0  0  0  0
   56.0550   29.7130   43.4710 C   0  0  0  0  0  0  0  0  0  0  0  0
   55.8130   29.6200   44.8550 O   0  0  0  0  0  0  0  0  0  0  0  0
   57.0170   29.3090   45.5270 C   0  0  0  0  0  0  0  0  0  0  0  0
   58.1940   30.2340   45.1290 C   0  0  0  0  0  0  0  0  0  0  0  0
   58.9050   34.6580   45.4080 C   0  0  0  0  0  0  0  0  0  0  0  0
   60.0140   34.9280   46.1220 N   0  0  0  0  0  0  0  0  0  0  0  0
   61.5120   34.2300   48.8550 N   0  0  0  0  0  0  0  0  0  0  0  0
   62.5880   34.1620   49.6870 C   0  0  0  0  0  0  0  0  0  0  0  0
   64.6446   33.5175   49.9285 H   0  0  0  0  0  0  0  0  0  0  0  0
   64.7727   32.5631   47.6204 H   0  0  0  0  0  0  0  0  0  0  0  0
   62.7842   32.6980   46.1113 H   0  0  0  0  0  0  0  0  0  0  0  0
   59.6231   31.7676   46.7405 H   0  0  0  0  0  0  0  0  0  0  0  0
   56.7230   32.3246   45.8009 H   0  0  0  0  0  0  0  0  0  0  0  0
   56.9369   33.2645   44.2494 H   0  0  0  0  0  0  0  0  0  0  0  0
   56.1724   31.8086   42.9749 H   0  0  0  0  0  0  0  0  0  0  0  0
   57.4868   30.7646   42.2720 H   0  0  0  0  0  0  0  0  0  0  0  0
   55.0945   29.7577   42.9367 H   0  0  0  0  0  0  0  0  0  0  0  0
   56.6253   28.8300   43.1469 H   0  0  0  0  0  0  0  0  0  0  0  0
   56.8479   29.4045   46.6097 H   0  0  0  0  0  0  0  0  0  0  0  0
   57.2956   28.2839   45.2413 H   0  0  0  0  0  0  0  0  0  0  0  0
   58.6404   30.6469   46.0457 H   0  0  0  0  0  0  0  0  0  0  0  0
   58.9119   29.6253   44.5598 H   0  0  0  0  0  0  0  0  0  0  0  0
   58.3455   35.3830   44.7986 H   0  0  0  0  0  0  0  0  0  0  0  0
   60.6410   34.6670   49.2270 H   0  0  0  0  0  0  0  0  0  0  0  0
   62.5209   34.5780   50.7031 H   0  0  0  0  0  0  0  0  0  0  0  0
  1  2  2  0
  2  3  1  0
  3  4  2  0
  4  5  1  0
  5  6  1  0
  6  7  2  0
  7  8  1  0
  8  9  1  0
  9 10  1  0
 10 11  1  0
 11 12  1  0
 12 13  1  0
 13 14  1  0
  7 15  1  0
 15 16  2  0
  4 17  1  0
 17 18  2  0
 18  1  1  0
 16  5  1  0
 14  9  1  0
  1 19  1  0
  2 20  1  0
  3 21  1  0
  6 22  1  0
  8 23  1  0
  8 24  1  0
 10 25  1  0
 10 26  1  0
 11 27  1  0
 11 28  1  0
 13 29  1  0
 13 30  1  0
 14 31  1  0
 14 32  1  0
 15 33  1  0
 17 34  1  0
 18 35  1  0
M  CHG  1  17   1
M  END
>  <UniqueID>  (39) 
35

>  <SMILES>  (39) 
c1ccc(-n2cc(CN3CCOCC3)cn2)[nH+]c1

>  <Energy>  (39) 
82.39032829305272

>  <Genealogy>  (39) 
c1ccc(-n2cc(CN3CCOCC3)cn2)[nH+]c1 (protonated)
c1ccc(-n2cc(CN3CCOCC3)cn2)[nH+]c1 (3D coordinates assigned)
c1ccc(-n2cc(CN3CCOCC3)cn2)[nH+]c1 (nonaromatic ring conformer: 82.39032829305272 kcal/mol)

>  <smiles>  (39) 
c1ccc(-n2cc(CN3CCOCC3)cn2)nc1

>  <score_type>  (39) 
oracle

>  <origin>  (39) 
adg

>  <m_score__min__energy>  (39) 
-5.79

>  <m_primary>  (39) 
energy

$$$$
39:0
     RDKit          3D

 30 31  0  0  0  0  0  0  0  0999 V2000
   57.3770   31.5750   43.7020 C   0  0  0  0  0  0  0  0  0  0  0  0
   56.8290   30.8730   44.8110 O   0  0  0  0  0  0  0  0  0  0  0  0
   56.6750   29.4820   44.8230 C   0  0  0  0  0  0  0  0  0  0  0  0
   55.5170   28.9790   44.8680 O   0  0  0  0  0  0  0  0  0  0  0  0
   57.9000   28.5800   44.9120 C   0  0  2  0  0  0  0  0  0  0  0  0
   57.9950   27.8660   43.5380 C   0  0  0  0  0  0  0  0  0  0  0  0
   57.7300   27.5040   46.0570 C   0  0  0  0  0  0  0  0  0  0  0  0
   58.9070   27.6040   47.0560 C   0  0  2  0  0  0  0  0  0  0  0  0
   58.8980   29.0330   47.6420 C   0  0  0  0  0  0  0  0  0  0  0  0
   59.0730   30.0640   46.4910 C   0  0  0  0  0  0  0  0  0  0  0  0
   59.1450   29.3860   45.1680 N   0  0  1  0  0  0  0  0  0  0  0  0
   60.2790   28.4810   45.2400 C   0  0  0  0  0  0  0  0  0  0  0  0
   61.2340   28.5920   44.4850 O   0  0  0  0  0  0  0  0  0  0  0  0
   60.2300   27.3990   46.2860 C   0  0  0  0  0  0  0  0  0  0  0  0
   58.0159   32.3934   44.0655 H   0  0  0  0  0  0  0  0  0  0  0  0
   57.9775   30.8846   43.0914 H   0  0  0  0  0  0  0  0  0  0  0  0
   56.5615   31.9899   43.0914 H   0  0  0  0  0  0  0  0  0  0  0  0
   58.1386   26.7867   43.6948 H   0  0  0  0  0  0  0  0  0  0  0  0
   57.0666   28.0340   42.9725 H   0  0  0  0  0  0  0  0  0  0  0  0
   58.8472   28.2709   42.9725 H   0  0  0  0  0  0  0  0  0  0  0  0
   56.7843   27.6845   46.5890 H   0  0  0  0  0  0  0  0  0  0  0  0
   57.7205   26.4991   45.6097 H   0  0  0  0  0  0  0  0  0  0  0  0
   58.8136   26.8485   47.8500 H   0  0  0  0  0  0  0  0  0  0  0  0
   57.9415   29.2136   48.1543 H   0  0  0  0  0  0  0  0  0  0  0  0
   59.7237   29.1408   48.3607 H   0  0  0  0  0  0  0  0  0  0  0  0
   58.2166   30.7544   46.4943 H   0  0  0  0  0  0  0  0  0  0  0  0
   60.0131   30.6116   46.6536 H   0  0  0  0  0  0  0  0  0  0  0  0
   59.3000   30.0970   44.4140 H   0  0  0  0  0  0  0  0  0  0  0  0
   60.2445   26.4074   45.8100 H   0  0  0  0  0  0  0  0  0  0  0  0
   61.0982   27.4526   46.9593 H   0  0  0  0  0  0  0  0  0  0  0  0
  1  2  1  0
  2  3  1  0
  3  4  2  0
  3  5  1  0
  5  6  1  6
  5  7  1  0
  7  8  1  0
  8  9  1  0
  9 10  1  0
 10 11  1  0
 11 12  1  0
 12 13  2  0
 12 14  1  0
 11  5  1  0
 14  8  1  0
  1 15  1  0
  1 16  1  0
  1 17  1  0
  6 18  1  0
  6 19  1  0
  6 20  1  0
  7 21  1  0
  7 22  1  0
  8 23  1  1
  9 24  1  0
  9 25  1  0
 10 26  1  0
 10 27  1  0
 11 28  1  6
 14 29  1  0
 14 30  1  0
M  CHG  1  11   1
M  END
>  <UniqueID>  (40) 
36

>  <SMILES>  (40) 
COC(=O)[C@]1(C)C[C@@H]2CC[NH+]1C(=O)C2

>  <Energy>  (40) 
45.43723091341231

>  <Genealogy>  (40) 
COC(=O)C1(C)CC2CC[NH+]1C(=O)C2 (protonated)
COC(=O)[C@]1(C)C[C@@H]2CC[NH+]1C(=O)C2 (chirality)
COC(=O)[C@]1(C)C[C@@H]2CC[NH+]1C(=O)C2 (3D coordinates assigned)
COC(=O)[C@]1(C)C[C@@H]2CC[NH+]1C(=O)C2 (nonaromatic ring conformer: 45.43723091341231 kcal/mol)

>  <smiles>  (40) 
COC(=O)C1(C)CC2CCN1C(=O)C2

>  <score_type>  (40) 
oracle

>  <origin>  (40) 
adg

>  <m_score__min__energy>  (40) 
-3.96

>  <m_primary>  (40) 
energy

$$$$
40:0
     RDKit          3D

 31 32  0  0  0  0  0  0  0  0999 V2000
   58.1330   32.8670   44.1620 C   0  0  0  0  0  0  0  0  0  0  0  0
   57.6590   31.4900   44.5160 C   0  0  0  0  0  0  0  0  0  0  0  0
   58.2000   30.8170   45.6230 C   0  0  0  0  0  0  0  0  0  0  0  0
   57.7330   29.5480   45.9730 C   0  0  0  0  0  0  0  0  0  0  0  0
   56.7010   28.9430   45.2440 C   0  0  0  0  0  0  0  0  0  0  0  0
   56.2690   27.6290   45.6240 N   0  0  0  0  0  0  0  0  0  0  0  0
   56.9770   26.4030   45.4040 C   0  0  0  0  0  0  0  0  0  0  0  0
   57.8250   26.3050   44.4770 O   0  0  0  0  0  0  0  0  0  0  0  0
   56.6670   25.2100   46.2500 C   0  0  0  0  0  0  0  0  0  0  0  0
   57.8830   23.8790   45.9620 S   0  0  0  0  0  0  0  0  0  0  0  0
   57.0710   23.2550   44.4860 C   0  0  0  0  0  0  0  0  0  0  0  0
   56.4750   24.0200   43.5580 N   0  0  0  0  0  0  0  0  0  0  0  0
   55.9820   23.1870   42.6540 N   0  0  0  0  0  0  0  0  0  0  0  0
   56.2660   21.9400   43.0080 N   0  0  0  0  0  0  0  0  0  0  0  0
   56.9540   21.9630   44.1380 N   0  0  0  0  0  0  0  0  0  0  0  0
   57.3870   20.7860   44.8770 C   0  0  0  0  0  0  0  0  0  0  0  0
   56.1620   29.6150   44.1310 C   0  0  0  0  0  0  0  0  0  0  0  0
   56.6300   30.8850   43.7790 C   0  0  0  0  0  0  0  0  0  0  0  0
   58.3287   33.4355   45.0831 H   0  0  0  0  0  0  0  0  0  0  0  0
   59.0583   32.7958   43.5715 H   0  0  0  0  0  0  0  0  0  0  0  0
   57.3599   33.3804   43.5715 H   0  0  0  0  0  0  0  0  0  0  0  0
   58.9950   31.2911   46.2172 H   0  0  0  0  0  0  0  0  0  0  0  0
   58.1793   29.0193   46.8282 H   0  0  0  0  0  0  0  0  0  0  0  0
   56.6960   25.5021   47.3101 H   0  0  0  0  0  0  0  0  0  0  0  0
   55.6667   24.8382   45.9831 H   0  0  0  0  0  0  0  0  0  0  0  0
   56.3950   25.0600   43.5360 H   0  0  0  0  0  0  0  0  0  0  0  0
   57.3143   20.9837   45.9566 H   0  0  0  0  0  0  0  0  0  0  0  0
   56.7440   19.9324   44.6164 H   0  0  0  0  0  0  0  0  0  0  0  0
   58.4299   20.5526   44.6164 H   0  0  0  0  0  0  0  0  0  0  0  0
   55.3691   29.1392   43.5353 H   0  0  0  0  0  0  0  0  0  0  0  0
   56.1891   31.4121   42.9201 H   0  0  0  0  0  0  0  0  0  0  0  0
  1  2  1  0
  2  3  2  0
  3  4  1  0
  4  5  2  0
  5  6  1  0
  6  7  1  0
  7  8  2  0
  7  9  1  0
  9 10  1  0
 10 11  1  0
 11 12  2  0
 12 13  1  0
 13 14  2  0
 14 15  1  0
 15 16  1  0
  5 17  1  0
 17 18  2  0
 18  2  1  0
 15 11  1  0
  1 19  1  0
  1 20  1  0
  1 21  1  0
  3 22  1  0
  4 23  1  0
  9 24  1  0
  9 25  1  0
 12 26  1  0
 16 27  1  0
 16 28  1  0
 16 29  1  0
 17 30  1  0
 18 31  1  0
M  CHG  2   6  -1  12   1
M  END
>  <UniqueID>  (41) 
37

>  <SMILES>  (41) 
Cc1ccc([N-]C(=O)CSc2[nH+]nnn2C)cc1

>  <Energy>  (41) 
68.59628880171562

>  <Genealogy>  (41) 
Cc1ccc([N-]C(=O)CSc2[nH+]nnn2C)cc1 (protonated)
Cc1ccc([N-]C(=O)CSc2[nH+]nnn2C)cc1 (3D coordinates assigned)
Cc1ccc([N-]C(=O)CSc2[nH+]nnn2C)cc1 (optimized conformer: 68.59628880171562 kcal/mol)

>  <smiles>  (41) 
Cc1ccc(NC(=O)CSc2nnnn2C)cc1

>  <score_type>  (41) 
oracle

>  <origin>  (41) 
adg

>  <m_score__min__energy>  (41) 
-7.2800000000000002

>  <m_primary>  (41) 
energy

$$$$
41:0
     RDKit          3D

 44 46  0  0  0  0  0  0  0  0999 V2000
   54.7790   30.4530   45.5960 H   0  0  0  0  0  0  0  0  0  0  0  0
   55.3500   29.8740   44.9950 O   0  0  0  0  0  0  0  0  0  0  0  0
   56.6460   30.2410   44.7140 N   0  0  0  0  0  0  0  0  0  0  0  0
   57.5510   29.3950   44.3260 C   0  0  0  0  0  0  0  0  0  0  0  0
   58.0608   29.5780   43.3686 H   0  0  0  0  0  0  0  0  0  0  0  0
   57.9310   28.1980   45.1060 C   0  0  0  0  0  0  0  0  0  0  0  0
   58.7000   28.1540   46.2670 C   0  0  0  0  0  0  0  0  0  0  0  0
   59.4450   29.2630   46.9020 C   0  0  0  0  0  0  0  0  0  0  0  0
   60.6000   29.8000   46.3070 C   0  0  0  0  0  0  0  0  0  0  0  0
   60.9540   29.4028   45.3442 H   0  0  0  0  0  0  0  0  0  0  0  0
   61.3010   30.8350   46.9310 C   0  0  0  0  0  0  0  0  0  0  0  0
   62.2039   31.2476   46.4570 H   0  0  0  0  0  0  0  0  0  0  0  0
   60.8590   31.3520   48.1610 C   0  0  0  0  0  0  0  0  0  0  0  0
   61.5440   32.3810   48.8230 O   0  0  0  0  0  0  0  0  0  0  0  0
   62.8490   32.2940   49.3300 C   0  0  0  0  0  0  0  0  0  0  0  0
   63.1160   31.3670   50.3460 C   0  0  0  0  0  0  0  0  0  0  0  0
   62.3100   30.7187   50.7201 H   0  0  0  0  0  0  0  0  0  0  0  0
   64.4000   31.2610   50.8870 C   0  0  0  0  0  0  0  0  0  0  0  0
   64.6037   30.5244   51.6781 H   0  0  0  0  0  0  0  0  0  0  0  0
   65.4260   32.0900   50.4240 C   0  0  0  0  0  0  0  0  0  0  0  0
   66.4380   32.0014   50.8459 H   0  0  0  0  0  0  0  0  0  0  0  0
   65.1650   33.0310   49.4250 C   0  0  0  0  0  0  0  0  0  0  0  0
   65.9709   33.6873   49.0649 H   0  0  0  0  0  0  0  0  0  0  0  0
   63.8810   33.1400   48.8820 C   0  0  0  0  0  0  0  0  0  0  0  0
   63.6768   33.8889   48.1026 H   0  0  0  0  0  0  0  0  0  0  0  0
   59.7340   30.7910   48.7730 C   0  0  0  0  0  0  0  0  0  0  0  0
   59.3993   31.1679   49.7507 H   0  0  0  0  0  0  0  0  0  0  0  0
   59.0310   29.7540   48.1510 C   0  0  0  0  0  0  0  0  0  0  0  0
   58.1481   29.3202   48.6433 H   0  0  0  0  0  0  0  0  0  0  0  0
   58.6810   26.9030   46.7680 N   0  0  0  0  0  0  0  0  0  0  0  0
   57.9300   26.1620   45.9700 N   0  0  0  0  0  0  0  0  0  0  0  0
   57.6830   24.7370   46.1760 C   0  0  0  0  0  0  0  0  0  0  0  0
   58.4060   24.3492   46.9088 H   0  0  0  0  0  0  0  0  0  0  0  0
   57.7951   24.2198   45.2117 H   0  0  0  0  0  0  0  0  0  0  0  0
   56.2600   24.4930   46.6980 C   0  0  0  0  0  0  0  0  0  0  0  0
   56.0962   25.1282   47.5810 H   0  0  0  0  0  0  0  0  0  0  0  0
   56.1765   23.4237   46.9422 H   0  0  0  0  0  0  0  0  0  0  0  0
   55.1820   24.8130   45.6590 C   0  0  0  0  0  0  0  0  0  0  0  0
   54.4009   24.0394   45.6961 H   0  0  0  0  0  0  0  0  0  0  0  0
   55.6422   24.8352   44.6602 H   0  0  0  0  0  0  0  0  0  0  0  0
   54.6080   26.0630   45.9250 O   0  0  0  0  0  0  0  0  0  0  0  0
   53.7390   25.8780   46.3650 H   0  0  0  0  0  0  0  0  0  0  0  0
   57.4550   26.9070   44.9550 C   0  0  0  0  0  0  0  0  0  0  0  0
   56.8012   26.5514   44.1450 H   0  0  0  0  0  0  0  0  0  0  0  0
  1  2  1  0
  2  3  1  0
  3  4  2  0
  4  5  1  0
  4  6  1  0
  6  7  1  0
  7  8  1  0
  8  9  2  0
  9 10  1  0
  9 11  1  0
 11 12  1  0
 11 13  2  0
 13 14  1  0
 14 15  1  0
 15 16  2  0
 16 17  1  0
 16 18  1  0
 18 19  1  0
 18 20  2  0
 20 21  1  0
 20 22  1  0
 22 23  1  0
 22 24  2  0
 24 25  1  0
 13 26  1  0
 26 27  1  0
 26 28  2  0
 28 29  1  0
  7 30  2  0
 30 31  1  0
 31 32  1  0
 32 33  1  0
 32 34  1  0
 32 35  1  0
 35 36  1  0
 35 37  1  0
 35 38  1  0
 38 39  1  0
 38 40  1  0
 38 41  1  0
 41 42  1  0
 31 43  1  0
 43 44  1  0
 43  6  2  0
 28  8  1  0
 24 15  1  0
M  END
>  <UniqueID>  (42) 
38

>  <SMILES>  (42) 
OCCCn1cc(/C=N\O)c(-c2ccc(Oc3ccccc3)cc2)n1

>  <Energy>  (42) 
83.17322595990551

>  <Genealogy>  (42) 
OCCCn1cc(/C=N\O)c(-c2ccc(Oc3ccccc3)cc2)n1 (cis-trans isomerization)
OCCCn1cc(/C=N\O)c(-c2ccc(Oc3ccccc3)cc2)n1 (3D coordinates assigned)
OCCCn1cc(/C=N\O)c(-c2ccc(Oc3ccccc3)cc2)n1 (optimized conformer: 83.17322595990551 kcal/mol)

>  <smiles>  (42) 
OCCCn1cc(C=NO)c(-c2ccc(Oc3ccccc3)cc2)n1

>  <score_type>  (42) 
oracle

>  <origin>  (42) 
adg

>  <m_score__min__energy>  (42) 
-8.1699999999999999

>  <m_primary>  (42) 
energy

$$$$
42:0
     RDKit          3D

 29 31  0  0  0  0  0  0  0  0999 V2000
   56.1430   29.7400   44.9660 O   0  0  0  0  0  0  0  0  0  0  0  0
   57.2480   29.4260   44.4470 C   0  0  0  0  0  0  0  0  0  0  0  0
   58.2160   30.4440   44.1510 N   0  0  0  0  0  0  0  0  0  0  0  0
   58.2370   31.7300   44.7970 C   0  0  0  0  0  0  0  0  0  0  0  0
   57.8000   32.8800   44.1120 C   0  0  0  0  0  0  0  0  0  0  0  0
   57.7930   34.1240   44.7480 C   0  0  0  0  0  0  0  0  0  0  0  0
   58.2120   34.2340   46.0740 C   0  0  0  0  0  0  0  0  0  0  0  0
   58.6340   33.1000   46.7700 C   0  0  0  0  0  0  0  0  0  0  0  0
   58.6440   31.8480   46.1430 C   0  0  0  0  0  0  0  0  0  0  0  0
   59.2050   30.4550   47.0590 Cl  0  0  0  0  0  0  0  0  0  0  0  0
   57.4860   28.0610   44.0750 N   0  0  0  0  0  0  0  0  0  0  0  0
   57.7620   27.6880   42.8280 N   0  0  0  0  0  0  0  0  0  0  0  0
   57.9390   26.3460   42.8100 C   0  0  0  0  0  0  0  0  0  0  0  0
   57.7550   25.8690   44.0890 C   0  0  0  0  0  0  0  0  0  0  0  0
   57.7820   24.5780   44.6070 C   0  0  0  0  0  0  0  0  0  0  0  0
   57.4880   24.4200   45.9730 C   0  0  0  0  0  0  0  0  0  0  0  0
   57.1640   25.5400   46.7710 C   0  0  0  0  0  0  0  0  0  0  0  0
   57.1410   26.8330   46.2120 C   0  0  0  0  0  0  0  0  0  0  0  0
   57.4670   26.9630   44.8580 C   0  0  0  0  0  0  0  0  0  0  0  0
   58.8860   30.2590   43.3720 H   0  0  0  0  0  0  0  0  0  0  0  0
   57.4617   32.7984   43.0685 H   0  0  0  0  0  0  0  0  0  0  0  0
   57.4566   35.0179   44.2023 H   0  0  0  0  0  0  0  0  0  0  0  0
   58.2099   35.2151   46.5715 H   0  0  0  0  0  0  0  0  0  0  0  0
   58.9604   33.1904   47.8166 H   0  0  0  0  0  0  0  0  0  0  0  0
   58.1871   25.7405   41.9258 H   0  0  0  0  0  0  0  0  0  0  0  0
   58.0243   23.7133   43.9718 H   0  0  0  0  0  0  0  0  0  0  0  0
   57.5104   23.4168   46.4237 H   0  0  0  0  0  0  0  0  0  0  0  0
   56.9280   25.4014   47.8364 H   0  0  0  0  0  0  0  0  0  0  0  0
   56.8756   27.7106   46.8198 H   0  0  0  0  0  0  0  0  0  0  0  0
  1  2  2  0
  2  3  1  0
  3  4  1  0
  4  5  2  0
  5  6  1  0
  6  7  2  0
  7  8  1  0
  8  9  2  0
  9 10  1  0
  2 11  1  0
 11 12  1  0
 12 13  2  0
 13 14  1  0
 14 15  2  0
 15 16  1  0
 16 17  2  0
 17 18  1  0
 18 19  2  0
  9  4  1  0
 19 11  1  0
 19 14  1  0
  3 20  1  0
  5 21  1  0
  6 22  1  0
  7 23  1  0
  8 24  1  0
 13 25  1  0
 15 26  1  0
 16 27  1  0
 17 28  1  0
 18 29  1  0
M  END
>  <UniqueID>  (43) 
39

>  <SMILES>  (43) 
O=C(Nc1ccccc1Cl)n1ncc2ccccc21

>  <Energy>  (43) 
78.35257134614218

>  <Genealogy>  (43) 
O=C(Nc1ccccc1Cl)n1ncc2ccccc21 (3D coordinates assigned)
O=C(Nc1ccccc1Cl)n1ncc2ccccc21 (optimized conformer: 78.35257134614218 kcal/mol)

>  <smiles>  (43) 
O=C(Nc1ccccc1Cl)n1ncc2ccccc21

>  <score_type>  (43) 
oracle

>  <origin>  (43) 
adg

>  <m_score__min__energy>  (43) 
-7.2400000000000002

>  <m_primary>  (43) 
energy

$$$$
43:0
     RDKit          3D

 29 29  0  0  0  0  0  0  0  0999 V2000
   57.0080   24.3010   43.9850 C   0  0  0  0  0  0  0  0  0  0  0  0
   56.5490   24.2980   45.4420 C   0  0  0  0  0  0  0  0  0  0  0  0
   55.2570   25.1030   45.6380 C   0  0  0  0  0  0  0  0  0  0  0  0
   55.5360   26.4200   46.2040 N   0  0  0  0  0  0  0  0  0  0  0  0
   56.3750   27.4210   45.6130 C   0  0  0  0  0  0  0  0  0  0  0  0
   57.5950   27.1560   45.4390 O   0  0  0  0  0  0  0  0  0  0  0  0
   55.8550   28.7090   45.2360 N   0  0  0  0  0  0  0  0  0  0  0  0
   56.6400   29.7070   44.5620 C   0  0  0  0  0  0  0  0  0  0  0  0
   56.2800   30.1380   43.2720 C   0  0  0  0  0  0  0  0  0  0  0  0
   57.0140   31.1350   42.6250 C   0  0  0  0  0  0  0  0  0  0  0  0
   58.1070   31.7220   43.2610 C   0  0  0  0  0  0  0  0  0  0  0  0
   58.4710   31.3150   44.5460 C   0  0  0  0  0  0  0  0  0  0  0  0
   57.7490   30.3050   45.2060 C   0  0  0  0  0  0  0  0  0  0  0  0
   58.1590   29.8870   46.5920 C   0  0  0  0  0  0  0  0  0  0  0  0
   58.1073   24.3082   43.9469 H   0  0  0  0  0  0  0  0  0  0  0  0
   56.6295   23.4004   43.4795 H   0  0  0  0  0  0  0  0  0  0  0  0
   56.6177   25.1966   43.4795 H   0  0  0  0  0  0  0  0  0  0  0  0
   56.3715   23.2590   45.7566 H   0  0  0  0  0  0  0  0  0  0  0  0
   57.3377   24.7673   46.0483 H   0  0  0  0  0  0  0  0  0  0  0  0
   54.7614   25.2287   44.6641 H   0  0  0  0  0  0  0  0  0  0  0  0
   54.6074   24.5545   46.3359 H   0  0  0  0  0  0  0  0  0  0  0  0
   54.8860   28.9690   45.5200 H   0  0  0  0  0  0  0  0  0  0  0  0
   55.4128   29.6859   42.7684 H   0  0  0  0  0  0  0  0  0  0  0  0
   56.7293   31.4573   41.6126 H   0  0  0  0  0  0  0  0  0  0  0  0
   58.6835   32.5070   42.7496 H   0  0  0  0  0  0  0  0  0  0  0  0
   59.3291   31.7881   45.0458 H   0  0  0  0  0  0  0  0  0  0  0  0
   57.5899   30.4672   47.3333 H   0  0  0  0  0  0  0  0  0  0  0  0
   57.9522   28.8152   46.7280 H   0  0  0  0  0  0  0  0  0  0  0  0
   59.2346   30.0730   46.7280 H   0  0  0  0  0  0  0  0  0  0  0  0
  1  2  1  0
  2  3  1  0
  3  4  1  0
  4  5  1  0
  5  6  2  0
  5  7  1  0
  7  8  1  0
  8  9  2  0
  9 10  1  0
 10 11  2  0
 11 12  1  0
 12 13  2  0
 13 14  1  0
 13  8  1  0
  1 15  1  0
  1 16  1  0
  1 17  1  0
  2 18  1  0
  2 19  1  0
  3 20  1  0
  3 21  1  0
  7 22  1  0
  9 23  1  0
 10 24  1  0
 11 25  1  0
 12 26  1  0
 14 27  1  0
 14 28  1  0
 14 29  1  0
M  CHG  1   4  -1
M  END
>  <UniqueID>  (44) 
40

>  <SMILES>  (44) 
CCC[N-]C(=O)Nc1ccccc1C

>  <Energy>  (44) 
25.136535817979485

>  <Genealogy>  (44) 
CCC[N-]C(=O)Nc1ccccc1C (protonated)
CCC[N-]C(=O)Nc1ccccc1C (3D coordinates assigned)
CCC[N-]C(=O)Nc1ccccc1C (optimized conformer: 25.136535817979485 kcal/mol)

>  <smiles>  (44) 
CCCNC(=O)Nc1ccccc1C

>  <score_type>  (44) 
oracle

>  <origin>  (44) 
adg

>  <m_score__min__energy>  (44) 
-7.4100000000000001

>  <m_primary>  (44) 
energy

$$$$
44:0
     RDKit          3D

 43 45  0  0  0  0  0  0  0  0999 V2000
   54.4510   27.0180   46.3770 H   0  0  0  0  0  0  0  0  0  0  0  0
   57.2140   30.8570   45.2460 N   0  0  0  0  0  0  0  0  0  0  0  0
   57.7660   32.0170   45.4670 C   0  0  0  0  0  0  0  0  0  0  0  0
   56.6950   25.3210   44.8050 N   0  0  0  0  0  0  0  0  0  0  0  0
   58.0520   25.3640   44.8560 C   0  0  0  0  0  0  0  0  0  0  0  0
   58.6899   24.8415   44.1280 H   0  0  0  0  0  0  0  0  0  0  0  0
   58.5720   26.1220   45.9030 C   0  0  0  0  0  0  0  0  0  0  0  0
   60.0220   26.2780   46.2350 C   0  0  0  0  0  0  0  0  0  0  0  0
   60.3061   25.5267   46.9866 H   0  0  0  0  0  0  0  0  0  0  0  0
   60.6178   26.1370   45.3212 H   0  0  0  0  0  0  0  0  0  0  0  0
   60.2810   27.6530   46.7840 C   0  0  0  0  0  0  0  0  0  0  0  0
   60.3590   28.7570   45.9220 C   0  0  0  0  0  0  0  0  0  0  0  0
   60.2016   28.6202   44.8420 H   0  0  0  0  0  0  0  0  0  0  0  0
   60.6360   30.0310   46.4290 C   0  0  0  0  0  0  0  0  0  0  0  0
   60.6883   30.8925   45.7470 H   0  0  0  0  0  0  0  0  0  0  0  0
   60.8480   30.2150   47.8080 C   0  0  0  0  0  0  0  0  0  0  0  0
   61.1280   31.4700   48.3660 O   0  0  0  0  0  0  0  0  0  0  0  0
   60.1390   32.3980   48.8080 C   0  0  0  0  0  0  0  0  0  0  0  0
   59.1486   31.9208   48.7717 H   0  0  0  0  0  0  0  0  0  0  0  0
   60.3653   32.7054   49.8396 H   0  0  0  0  0  0  0  0  0  0  0  0
   60.1420   33.6280   47.9040 C   0  0  0  0  0  0  0  0  0  0  0  0
   59.8102   34.5018   48.4840 H   0  0  0  0  0  0  0  0  0  0  0  0
   61.1631   33.7827   47.5253 H   0  0  0  0  0  0  0  0  0  0  0  0
   59.2180   33.4360   46.7300 C   0  0  0  0  0  0  0  0  0  0  0  0
   58.8890   34.5240   45.9090 C   0  0  0  0  0  0  0  0  0  0  0  0
   59.3289   35.5143   46.0983 H   0  0  0  0  0  0  0  0  0  0  0  0
   58.0010   34.3410   44.8520 C   0  0  0  0  0  0  0  0  0  0  0  0
   57.7449   35.1856   44.1954 H   0  0  0  0  0  0  0  0  0  0  0  0
   57.4370   33.0860   44.6270 C   0  0  0  0  0  0  0  0  0  0  0  0
   56.7362   32.9371   43.7923 H   0  0  0  0  0  0  0  0  0  0  0  0
   56.1450   26.0310   45.8140 C   0  0  0  0  0  0  0  0  0  0  0  0
   54.8690   26.1440   45.9870 N   0  0  0  0  0  0  0  0  0  0  0  0
   57.4930   29.9790   44.1160 C   0  0  0  0  0  0  0  0  0  0  0  0
   57.8066   28.9921   44.4871 H   0  0  0  0  0  0  0  0  0  0  0  0
   56.5855   29.8692   43.5041 H   0  0  0  0  0  0  0  0  0  0  0  0
   58.2974   30.4132   43.5041 H   0  0  0  0  0  0  0  0  0  0  0  0
   58.6460   32.2160   46.4990 N   0  0  0  0  0  0  0  0  0  0  0  0
   58.8980   31.4300   47.1400 H   0  0  0  0  0  0  0  0  0  0  0  0
   60.7810   29.1090   48.6630 C   0  0  0  0  0  0  0  0  0  0  0  0
   60.9463   29.2434   49.7422 H   0  0  0  0  0  0  0  0  0  0  0  0
   60.5060   27.8360   48.1580 C   0  0  0  0  0  0  0  0  0  0  0  0
   60.4655   26.9734   48.8394 H   0  0  0  0  0  0  0  0  0  0  0  0
   57.2950   26.7380   46.8140 S   0  0  0  0  0  0  0  0  0  0  0  0
  1  2  1  0
  2  3  2  0
  3  4  1  0
  4  5  1  0
  5  6  1  0
  5  7  2  0
  7  8  1  0
  8  9  1  0
  8 10  1  0
  8 11  1  0
 11 12  2  0
 12 13  1  0
 12 14  1  0
 14 15  1  0
 14 16  2  0
 16 17  1  0
 17 18  1  0
 18 19  1  0
 18 20  1  0
 18 21  1  0
 21 22  1  0
 21 23  1  0
 21 24  1  0
 24 25  2  0
 25 26  1  0
 25 27  1  0
 27 28  1  0
 27 29  2  0
 29 30  1  0
 29 31  1  0
 31 32  2  0
 32 33  1  0
 33 34  1  0
 33 35  1  0
 33 36  1  0
 31 37  1  0
 37 38  1  0
 16 39  1  0
 39 40  1  0
 39 41  2  0
 41 42  1  0
  7 43  1  0
 43  3  1  0
 41 11  1  0
 37 24  1  0
M  CHG  1   4  -1
M  END
>  <UniqueID>  (45) 
41

>  <SMILES>  (45) 
[H]/N=c1\[n-]cc(Cc2ccc(OCCc3ccc/c(=N/C)[nH]3)cc2)s1

>  <Energy>  (45) 
70.07446555633422

>  <Genealogy>  (45) 
CN=c1cccc(CCOc2ccc(Cc3c[n-]c(=N)s3)cc2)[nH]1 (protonated)
[H]/N=c1\[n-]cc(Cc2ccc(OCCc3ccc/c(=N/C)[nH]3)cc2)s1 (cis-trans isomerization)
[H]/N=c1\[n-]cc(Cc2ccc(OCCc3ccc/c(=N/C)[nH]3)cc2)s1 (3D coordinates assigned)
[H]/N=c1\[n-]cc(Cc2ccc(OCCc3ccc/c(=N/C)[nH]3)cc2)s1 (optimized conformer: 70.07446555633422 kcal/mol)

>  <smiles>  (45) 
CN=c1cccc(CCOc2ccc(Cc3c[nH]c(=N)s3)cc2)[nH]1

>  <score_type>  (45) 
oracle

>  <origin>  (45) 
adg

>  <m_score__min__energy>  (45) 
-9.7899999999999991

>  <m_primary>  (45) 
energy

$$$$
45:0
     RDKit          3D

 31 32  0  0  0  0  0  0  0  0999 V2000
   56.6850   27.9120   45.6080 C   0  0  0  0  0  0  0  0  0  0  0  0
   56.0110   29.0860   45.1660 O   0  0  0  0  0  0  0  0  0  0  0  0
   56.6040   30.0960   44.3930 C   0  0  0  0  0  0  0  0  0  0  0  0
   56.4150   30.1890   43.0020 C   0  0  0  0  0  0  0  0  0  0  0  0
   57.0210   31.2180   42.2780 C   0  0  0  0  0  0  0  0  0  0  0  0
   57.8230   32.1580   42.9290 C   0  0  0  0  0  0  0  0  0  0  0  0
   58.0370   32.0750   44.3140 C   0  0  0  0  0  0  0  0  0  0  0  0
   58.8950   33.1320   45.0040 C   0  0  2  0  0  0  0  0  0  0  0  0
   59.3700   32.6950   46.3570 C   0  0  0  0  0  0  0  0  0  0  0  0
   60.1410   31.5070   46.6310 C   0  0  0  0  0  0  0  0  0  0  0  0
   60.7570   30.5530   46.8510 N   0  0  0  0  0  0  0  0  0  0  0  0
   59.0270   33.6050   47.2390 C   0  0  0  0  0  0  0  0  0  0  0  0
   59.3160   33.5740   48.7050 C   0  0  0  0  0  0  0  0  0  0  0  0
   58.3500   34.6290   46.6100 O   0  0  0  0  0  0  0  0  0  0  0  0
   58.2340   34.4500   45.2440 N   0  0  0  0  0  0  0  0  0  0  0  0
   56.8080   34.5360   44.9030 C   0  0  0  0  0  0  0  0  0  0  0  0
   57.4100   31.0410   45.0390 C   0  0  0  0  0  0  0  0  0  0  0  0
   56.6983   27.8889   46.7077 H   0  0  0  0  0  0  0  0  0  0  0  0
   56.1598   27.0230   45.2289 H   0  0  0  0  0  0  0  0  0  0  0  0
   57.7176   27.9173   45.2289 H   0  0  0  0  0  0  0  0  0  0  0  0
   55.7880   29.4490   42.4831 H   0  0  0  0  0  0  0  0  0  0  0  0
   56.8661   31.2884   41.1912 H   0  0  0  0  0  0  0  0  0  0  0  0
   58.2905   32.9696   42.3521 H   0  0  0  0  0  0  0  0  0  0  0  0
   59.7123   33.2529   44.2778 H   0  0  0  0  0  0  0  0  0  0  0  0
   58.3754   33.6749   49.2664 H   0  0  0  0  0  0  0  0  0  0  0  0
   59.7969   32.6191   48.9638 H   0  0  0  0  0  0  0  0  0  0  0  0
   59.9884   34.4052   48.9638 H   0  0  0  0  0  0  0  0  0  0  0  0
   56.2117   34.5720   45.8266 H   0  0  0  0  0  0  0  0  0  0  0  0
   56.6262   35.4467   44.3135 H   0  0  0  0  0  0  0  0  0  0  0  0
   56.5181   33.6537   44.3135 H   0  0  0  0  0  0  0  0  0  0  0  0
   57.5561   30.9759   46.1273 H   0  0  0  0  0  0  0  0  0  0  0  0
  1  2  1  0
  2  3  1  0
  3  4  2  0
  4  5  1  0
  5  6  2  0
  6  7  1  0
  7  8  1  0
  8  9  1  0
  9 10  1  0
 10 11  3  0
  9 12  2  0
 12 13  1  0
 12 14  1  0
 14 15  1  0
 15 16  1  0
  7 17  2  0
 17  3  1  0
 15  8  1  0
  1 18  1  0
  1 19  1  0
  1 20  1  0
  4 21  1  0
  5 22  1  0
  6 23  1  0
  8 24  1  6
 13 25  1  0
 13 26  1  0
 13 27  1  0
 16 28  1  0
 16 29  1  0
 16 30  1  0
 17 31  1  0
M  END
>  <UniqueID>  (46) 
42

>  <SMILES>  (46) 
COc1cccc([C@@H]2C(C#N)=C(C)ON2C)c1

>  <Energy>  (46) 
48.735493628057235

>  <Genealogy>  (46) 
COc1cccc([C@@H]2C(C#N)=C(C)ON2C)c1 (chirality)
COc1cccc([C@@H]2C(C#N)=C(C)ON2C)c1 (3D coordinates assigned)
COc1cccc([C@@H]2C(C#N)=C(C)ON2C)c1 (nonaromatic ring conformer: 48.735493628057235 kcal/mol)

>  <smiles>  (46) 
COc1cccc(C2C(C#N)=C(C)ON2C)c1

>  <score_type>  (46) 
oracle

>  <origin>  (46) 
adg

>  <m_score__min__energy>  (46) 
-6.0899999999999999

>  <m_primary>  (46) 
energy

$$$$
46:0
     RDKit          3D

 29 31  0  0  0  0  0  0  0  0999 V2000
   56.2720   29.5650   42.6030 C   0  0  0  0  0  0  0  0  0  0  0  0
   56.0640   29.7050   44.1110 C   0  0  0  0  0  0  0  0  0  0  0  0
   57.1030   30.5930   44.7510 C   0  0  0  0  0  0  0  0  0  0  0  0
   56.8590   31.9340   44.8860 N   0  0  0  0  0  0  0  0  0  0  0  0
   57.7620   32.7460   45.4990 C   0  0  0  0  0  0  0  0  0  0  0  0
   58.9360   32.2580   46.0050 C   0  0  0  0  0  0  0  0  0  0  0  0
   59.2190   30.9000   45.8950 C   0  0  0  0  0  0  0  0  0  0  0  0
   58.2950   30.0580   45.3000 C   0  0  0  0  0  0  0  0  0  0  0  0
   58.6880   28.6230   45.3220 C   0  0  0  0  0  0  0  0  0  0  0  0
   59.8220   28.4950   46.3500 C   0  0  0  0  0  0  0  0  0  0  0  0
   60.6820   30.1030   46.5120 S   0  0  0  0  0  0  0  0  0  0  0  0
   59.7600   33.3220   46.6230 C   0  0  0  0  0  0  0  0  0  0  0  0
   58.9160   34.6010   46.4330 C   0  0  0  0  0  0  0  0  0  0  0  0
   57.6180   34.2020   45.7000 C   0  0  0  0  0  0  0  0  0  0  0  0
   57.1706   28.9602   42.4114 H   0  0  0  0  0  0  0  0  0  0  0  0
   55.3960   29.0720   42.1562 H   0  0  0  0  0  0  0  0  0  0  0  0
   56.3990   30.5621   42.1562 H   0  0  0  0  0  0  0  0  0  0  0  0
   55.0688   30.1370   44.2925 H   0  0  0  0  0  0  0  0  0  0  0  0
   56.1543   28.7041   44.5582 H   0  0  0  0  0  0  0  0  0  0  0  0
   57.8324   27.9996   45.6209 H   0  0  0  0  0  0  0  0  0  0  0  0
   59.0141   28.2854   44.3272 H   0  0  0  0  0  0  0  0  0  0  0  0
   59.4027   28.2035   47.3243 H   0  0  0  0  0  0  0  0  0  0  0  0
   60.5365   27.7288   46.0147 H   0  0  0  0  0  0  0  0  0  0  0  0
   59.9265   33.1178   47.6910 H   0  0  0  0  0  0  0  0  0  0  0  0
   60.7596   33.4017   46.1708 H   0  0  0  0  0  0  0  0  0  0  0  0
   58.6736   35.0389   47.4126 H   0  0  0  0  0  0  0  0  0  0  0  0
   59.4742   35.3477   45.8492 H   0  0  0  0  0  0  0  0  0  0  0  0
   56.7348   34.4274   46.3158 H   0  0  0  0  0  0  0  0  0  0  0  0
   57.4756   34.7502   44.7570 H   0  0  0  0  0  0  0  0  0  0  0  0
  1  2  1  0
  2  3  1  0
  3  4  2  0
  4  5  1  0
  5  6  2  0
  6  7  1  0
  7  8  2  0
  8  9  1  0
  9 10  1  0
 10 11  1  0
  6 12  1  0
 12 13  1  0
 13 14  1  0
  8  3  1  0
 14  5  1  0
 11  7  1  0
  1 15  1  0
  1 16  1  0
  1 17  1  0
  2 18  1  0
  2 19  1  0
  9 20  1  0
  9 21  1  0
 10 22  1  0
 10 23  1  0
 12 24  1  0
 12 25  1  0
 13 26  1  0
 13 27  1  0
 14 28  1  0
 14 29  1  0
M  END
>  <UniqueID>  (47) 
43

>  <SMILES>  (47) 
CCc1nc2c(c3c1CCS3)CCC2

>  <Energy>  (47) 
44.30996503897438

>  <Genealogy>  (47) 
CCc1nc2c(c3c1CCS3)CCC2 (3D coordinates assigned)
CCc1nc2c(c3c1CCS3)CCC2 (nonaromatic ring conformer: 44.30996503897438 kcal/mol)

>  <smiles>  (47) 
CCc1nc2c(c3c1CCS3)CCC2

>  <score_type>  (47) 
oracle

>  <origin>  (47) 
adg

>  <m_score__min__energy>  (47) 
-6.3700000000000001

>  <m_primary>  (47) 
energy

$$$$
47:0
     RDKit          3D

 18 18  0  0  0  0  0  0  0  0999 V2000
   57.3259   33.8991   45.5068 H   0  0  0  0  0  0  0  0  0  0  0  0
   57.3970   33.0130   44.8590 C   0  0  0  0  0  0  0  0  0  0  0  0
   56.8130   31.8470   45.2350 N   0  0  0  0  0  0  0  0  0  0  0  0
   56.8840   30.7350   44.4570 C   0  0  0  0  0  0  0  0  0  0  0  0
   56.3010   29.6450   44.8730 N   0  0  0  0  0  0  0  0  0  0  0  0
   56.9300   28.3540   45.1500 C   0  0  0  0  0  0  0  0  0  0  0  0
   56.6886   27.6534   44.3370 H   0  0  0  0  0  0  0  0  0  0  0  0
   56.5478   27.9742   46.1090 H   0  0  0  0  0  0  0  0  0  0  0  0
   58.4460   28.5000   45.2510 C   0  0  0  0  0  0  0  0  0  0  0  0
   58.7419   28.5285   46.3101 H   0  0  0  0  0  0  0  0  0  0  0  0
   58.9304   27.6444   44.7579 H   0  0  0  0  0  0  0  0  0  0  0  0
   58.7582   29.4324   44.7579 H   0  0  0  0  0  0  0  0  0  0  0  0
   57.5550   30.7910   43.2630 N   0  0  0  0  0  0  0  0  0  0  0  0
   57.6250   29.9650   42.6310 H   0  0  0  0  0  0  0  0  0  0  0  0
   58.1520   31.9440   42.8560 C   0  0  0  0  0  0  0  0  0  0  0  0
   58.6881   31.9750   41.8960 H   0  0  0  0  0  0  0  0  0  0  0  0
   58.0860   33.0850   43.6520 C   0  0  0  0  0  0  0  0  0  0  0  0
   58.5674   34.0215   43.3339 H   0  0  0  0  0  0  0  0  0  0  0  0
  1  2  1  0
  2  3  2  0
  3  4  1  0
  4  5  2  0
  5  6  1  0
  6  7  1  0
  6  8  1  0
  6  9  1  0
  9 10  1  0
  9 11  1  0
  9 12  1  0
  4 13  1  0
 13 14  1  0
 13 15  1  0
 15 16  1  0
 15 17  2  0
 17 18  1  0
 17  2  1  0
M  END
>  <UniqueID>  (48) 
44

>  <SMILES>  (48) 
CC/N=c1/nccc[nH]1

>  <Energy>  (48) 
15.874484626336518

>  <Genealogy>  (48) 
CC/N=c1/nccc[nH]1 (cis-trans isomerization)
CC/N=c1/nccc[nH]1 (3D coordinates assigned)
CC/N=c1/nccc[nH]1 (optimized conformer: 15.874484626336518 kcal/mol)

>  <smiles>  (48) 
CCN=c1nccc[nH]1

>  <score_type>  (48) 
oracle

>  <origin>  (48) 
adg

>  <m_score__min__energy>  (48) 
-3.98

>  <m_primary>  (48) 
energy

$$$$
