0:0
     RDKit          3D

 30 32  0  0  0  0  0  0  0  0999 V2000
   55.2950   30.4790   45.2400 H   0  0  0  0  0  0  0  0  0  0  0  0
   56.2030   30.4640   44.7330 N   0  0  0  0  0  0  0  0  0  0  0  0
   57.3970   30.6040   45.2420 C   0  0  0  0  0  0  0  0  0  0  0  0
   58.1190   29.4400   45.6050 C   0  0  0  0  0  0  0  0  0  0  0  0
   59.4380   29.5770   46.1110 C   0  0  0  0  0  0  0  0  0  0  0  0
   59.9570   30.8170   46.3320 N   0  0  0  0  0  0  0  0  0  0  0  0
   60.9220   30.8750   46.7290 H   0  0  0  0  0  0  0  0  0  0  0  0
   59.2810   31.9660   46.0280 C   0  0  0  0  0  0  0  0  0  0  0  0
   59.8740   33.2380   46.2670 C   0  0  0  0  0  0  0  0  0  0  0  0
   61.2460   33.3810   46.8780 C   0  0  0  0  0  0  0  0  0  0  0  0
   61.1617   33.3722   47.9747 H   0  0  0  0  0  0  0  0  0  0  0  0
   61.8814   32.5442   46.5524 H   0  0  0  0  0  0  0  0  0  0  0  0
   61.6952   34.3308   46.5524 H   0  0  0  0  0  0  0  0  0  0  0  0
   59.1740   34.4030   45.9250 C   0  0  0  0  0  0  0  0  0  0  0  0
   59.6311   35.3866   46.1082 H   0  0  0  0  0  0  0  0  0  0  0  0
   57.9110   34.3280   45.3580 C   0  0  0  0  0  0  0  0  0  0  0  0
   57.3764   35.2516   45.0913 H   0  0  0  0  0  0  0  0  0  0  0  0
   57.3150   33.0930   45.1240 C   0  0  0  0  0  0  0  0  0  0  0  0
   56.3109   33.0524   44.6765 H   0  0  0  0  0  0  0  0  0  0  0  0
   57.9810   31.8870   45.4530 C   0  0  0  0  0  0  0  0  0  0  0  0
   60.2000   28.4900   46.3560 C   0  0  0  0  0  0  0  0  0  0  0  0
   61.1680   28.6148   46.8634 H   0  0  0  0  0  0  0  0  0  0  0  0
   59.7550   27.1140   45.9510 C   0  0  0  0  0  0  0  0  0  0  0  0
   60.0592   26.9267   44.9106 H   0  0  0  0  0  0  0  0  0  0  0  0
   60.2222   26.3773   46.6211 H   0  0  0  0  0  0  0  0  0  0  0  0
   58.2380   26.9890   46.0610 C   0  0  0  0  0  0  0  0  0  0  0  0
   57.9076   26.1011   45.5020 H   0  0  0  0  0  0  0  0  0  0  0  0
   57.9675   26.8946   47.1230 H   0  0  0  0  0  0  0  0  0  0  0  0
   57.5610   28.2070   45.4970 C   0  0  0  0  0  0  0  0  0  0  0  0
   56.5931   28.0969   44.9860 H   0  0  0  0  0  0  0  0  0  0  0  0
  1  2  1  0
  2  3  2  0
  3  4  1  0
  4  5  1  0
  5  6  1  0
  6  7  1  0
  6  8  1  0
  8  9  2  0
  9 10  1  0
 10 11  1  0
 10 12  1  0
 10 13  1  0
  9 14  1  0
 14 15  1  0
 14 16  2  0
 16 17  1  0
 16 18  1  0
 18 19  1  0
 18 20  2  0
  5 21  2  0
 21 22  1  0
 21 23  1  0
 23 24  1  0
 23 25  1  0
 23 26  1  0
 26 27  1  0
 26 28  1  0
 26 29  1  0
 29 30  1  0
 20  3  1  0
 29  4  2  0
 20  8  1  0
M  END
>  <UniqueID>  (1) 
1

>  <SMILES>  (1) 
[H]/N=c1/c2c([nH]c3c(C)cccc13)=CCCC=2

>  <Energy>  (1) 
50.84248838755375

>  <Genealogy>  (1) 
[H]/N=c1/c2c([nH]c3c(C)cccc13)=CCCC=2 (cis-trans isomerization)
[H]/N=c1/c2c([nH]c3c(C)cccc13)=CCCC=2 (3D coordinates assigned)
[H]/N=c1/c2c([nH]c3c(C)cccc13)=CCCC=2 (nonaromatic ring conformer: 50.84248838755375 kcal/mol)

>  <smiles>  (1) 
Cc1cccc2c(=N)c3c([nH]c12)=CCCC=3

>  <score_type>  (1) 
oracle

>  <origin>  (1) 
adg

>  <m_score__min__energy>  (1) 
-6.7599999999999998

>  <m_primary>  (1) 
energy

$$$$
1:0
     RDKit          3D

 28 29  0  0  0  0  0  0  0  0999 V2000
   59.5040   34.8690   46.0680 C   0  0  0  0  0  0  0  0  0  0  0  0
   58.7120   33.7580   45.4650 C   0  0  0  0  0  0  0  0  0  0  0  0
   58.6080   33.6460   44.1170 N   0  0  0  0  0  0  0  0  0  0  0  0
   57.9200   32.6180   43.5610 C   0  0  0  0  0  0  0  0  0  0  0  0
   57.3250   31.6620   44.3900 C   0  0  0  0  0  0  0  0  0  0  0  0
   56.5350   30.5180   43.8140 C   0  0  0  0  0  0  0  0  0  0  0  0
   56.1410   29.5830   44.8760 N   0  0  0  0  0  0  0  0  0  0  0  0
   57.0330   28.4170   44.9170 C   0  0  0  0  0  0  0  0  0  0  0  0
   58.3340   28.8010   45.5510 C   0  0  0  0  0  0  0  0  0  0  0  0
   59.5240   28.9590   44.8250 C   0  0  0  0  0  0  0  0  0  0  0  0
   60.6210   29.2650   45.6180 C   0  0  0  0  0  0  0  0  0  0  0  0
   60.1080   29.3240   47.2170 S   0  0  0  0  0  0  0  0  0  0  0  0
   58.4940   28.9640   46.9240 C   0  0  0  0  0  0  0  0  0  0  0  0
   57.4560   31.7980   45.7380 N   0  0  0  0  0  0  0  0  0  0  0  0
   58.1380   32.8180   46.2610 N   0  0  0  0  0  0  0  0  0  0  0  0
   59.4553   34.8007   47.1648 H   0  0  0  0  0  0  0  0  0  0  0  0
   60.5517   34.7914   45.7419 H   0  0  0  0  0  0  0  0  0  0  0  0
   59.0890   35.8341   45.7419 H   0  0  0  0  0  0  0  0  0  0  0  0
   57.8308   32.5370   42.4676 H   0  0  0  0  0  0  0  0  0  0  0  0
   55.6322   30.9113   43.3238 H   0  0  0  0  0  0  0  0  0  0  0  0
   57.1600   29.9849   43.0825 H   0  0  0  0  0  0  0  0  0  0  0  0
   56.2360   30.0860   45.7890 H   0  0  0  0  0  0  0  0  0  0  0  0
   56.5615   27.6161   45.5054 H   0  0  0  0  0  0  0  0  0  0  0  0
   57.2171   28.0621   43.8922 H   0  0  0  0  0  0  0  0  0  0  0  0
   59.5820   28.8507   43.7319 H   0  0  0  0  0  0  0  0  0  0  0  0
   61.6472   29.4386   45.2620 H   0  0  0  0  0  0  0  0  0  0  0  0
   57.7031   28.8731   47.6830 H   0  0  0  0  0  0  0  0  0  0  0  0
   57.0200   31.0990   46.3810 H   0  0  0  0  0  0  0  0  0  0  0  0
  1  2  1  0
  2  3  2  0
  3  4  1  0
  4  5  2  0
  5  6  1  0
  6  7  1  0
  7  8  1  0
  8  9  1  0
  9 10  1  0
 10 11  2  0
 11 12  1  0
 12 13  1  0
  5 14  1  0
 14 15  2  0
 15  2  1  0
 13  9  2  0
  1 16  1  0
  1 17  1  0
  1 18  1  0
  4 19  1  0
  6 20  1  0
  6 21  1  0
  7 22  1  0
  8 23  1  0
  8 24  1  0
 10 25  1  0
 11 26  1  0
 13 27  1  0
 14 28  1  0
M  CHG  1  14   1
M  END
>  <UniqueID>  (2) 
2

>  <SMILES>  (2) 
Cc1ncc(CNCc2ccsc2)[nH+]n1

>  <Energy>  (2) 
50.75552867698723

>  <Genealogy>  (2) 
Cc1ncc(CNCc2ccsc2)[nH+]n1 (protonated)
Cc1ncc(CNCc2ccsc2)[nH+]n1 (3D coordinates assigned)
Cc1ncc(CNCc2ccsc2)[nH+]n1 (optimized conformer: 50.75552867698723 kcal/mol)

>  <smiles>  (2) 
Cc1ncc(CNCc2ccsc2)nn1

>  <score_type>  (2) 
oracle

>  <origin>  (2) 
adg

>  <m_score__min__energy>  (2) 
-4.5599999999999996

>  <m_primary>  (2) 
energy

$$$$
2:0
     RDKit          3D

 35 37  0  0  0  0  0  0  0  0999 V2000
   57.7456   27.5411   47.0394 H   0  0  0  0  0  0  0  0  0  0  0  0
   57.6290   27.2810   45.9770 C   0  0  0  0  0  0  0  0  0  0  0  0
   57.9880   28.1640   45.0880 N   0  0  0  0  0  0  0  0  0  0  0  0
   57.6200   29.5240   45.1010 N   0  0  0  0  0  0  0  0  0  0  0  0
   57.9630   30.5070   45.9620 C   0  0  0  0  0  0  0  0  0  0  0  0
   58.8870   30.3820   47.1070 C   0  0  0  0  0  0  0  0  0  0  0  0
   59.9410   31.2950   47.2520 C   0  0  0  0  0  0  0  0  0  0  0  0
   60.0929   32.0799   46.4964 H   0  0  0  0  0  0  0  0  0  0  0  0
   60.8000   31.2130   48.3520 C   0  0  0  0  0  0  0  0  0  0  0  0
   61.6171   31.9412   48.4615 H   0  0  0  0  0  0  0  0  0  0  0  0
   60.6290   30.2130   49.3140 C   0  0  0  0  0  0  0  0  0  0  0  0
   61.5040   30.1860   50.4100 O   0  0  0  0  0  0  0  0  0  0  0  0
   62.7680   30.8400   50.4440 C   0  0  0  0  0  0  0  0  0  0  0  0
   63.0716   30.9971   51.4896 H   0  0  0  0  0  0  0  0  0  0  0  0
   63.5173   30.2164   49.9344 H   0  0  0  0  0  0  0  0  0  0  0  0
   62.6918   31.8118   49.9344 H   0  0  0  0  0  0  0  0  0  0  0  0
   59.5910   29.2750   49.1530 C   0  0  0  0  0  0  0  0  0  0  0  0
   59.4560   28.4746   49.8954 H   0  0  0  0  0  0  0  0  0  0  0  0
   58.7310   29.3570   48.0530 C   0  0  0  0  0  0  0  0  0  0  0  0
   57.9287   28.6148   47.9288 H   0  0  0  0  0  0  0  0  0  0  0  0
   57.3920   31.6760   45.6020 N   0  0  0  0  0  0  0  0  0  0  0  0
   56.7010   31.4530   44.4920 N   0  0  0  0  0  0  0  0  0  0  0  0
   56.8610   30.1520   44.1890 C   0  0  0  0  0  0  0  0  0  0  0  0
   56.1700   29.4290   42.8930 S   0  0  0  0  0  0  0  0  0  0  0  0
   57.0750   25.9520   45.6450 C   0  0  0  0  0  0  0  0  0  0  0  0
   57.9570   24.9370   45.2400 C   0  0  0  0  0  0  0  0  0  0  0  0
   59.0306   25.1540   45.1386 H   0  0  0  0  0  0  0  0  0  0  0  0
   57.4790   23.6530   44.9650 C   0  0  0  0  0  0  0  0  0  0  0  0
   58.6990   22.2640   44.4850 Br  0  0  0  0  0  0  0  0  0  0  0  0
   56.1110   23.3810   45.0590 C   0  0  0  0  0  0  0  0  0  0  0  0
   55.7364   22.3672   44.8545 H   0  0  0  0  0  0  0  0  0  0  0  0
   55.2190   24.3980   45.4130 C   0  0  0  0  0  0  0  0  0  0  0  0
   54.1413   24.1856   45.4722 H   0  0  0  0  0  0  0  0  0  0  0  0
   55.6920   25.6840   45.6920 C   0  0  0  0  0  0  0  0  0  0  0  0
   54.7810   26.6910   45.9930 O   0  0  0  0  0  0  0  0  0  0  0  0
  1  2  1  0
  2  3  2  0
  3  4  1  0
  4  5  1  0
  5  6  1  0
  6  7  2  0
  7  8  1  0
  7  9  1  0
  9 10  1  0
  9 11  2  0
 11 12  1  0
 12 13  1  0
 13 14  1  0
 13 15  1  0
 13 16  1  0
 11 17  1  0
 17 18  1  0
 17 19  2  0
 19 20  1  0
  5 21  2  0
 21 22  1  0
 22 23  1  0
 23 24  2  0
  2 25  1  0
 25 26  2  0
 26 27  1  0
 26 28  1  0
 28 29  1  0
 28 30  2  0
 30 31  1  0
 30 32  1  0
 32 33  1  0
 32 34  2  0
 34 35  1  0
 23  4  1  0
 34 25  1  0
 19  6  1  0
M  CHG  2  22  -1  35  -1
M  END
>  <UniqueID>  (3) 
3

>  <SMILES>  (3) 
COc1ccc(-c2n[n-]c(=S)n2/N=C\c2cc(Br)ccc2[O-])cc1

>  <Energy>  (3) 
86.97558095925366

>  <Genealogy>  (3) 
COc1ccc(-c2n[n-]c(=S)n2N=Cc2cc(Br)ccc2[O-])cc1 (protonated)
COc1ccc(-c2n[n-]c(=S)n2/N=C\c2cc(Br)ccc2[O-])cc1 (cis-trans isomerization)
COc1ccc(-c2n[n-]c(=S)n2/N=C\c2cc(Br)ccc2[O-])cc1 (3D coordinates assigned)
COc1ccc(-c2n[n-]c(=S)n2/N=C\c2cc(Br)ccc2[O-])cc1 (optimized conformer: 86.97558095925366 kcal/mol)

>  <smiles>  (3) 
COc1ccc(-c2n[nH]c(=S)n2N=Cc2cc(Br)ccc2O)cc1

>  <score_type>  (3) 
oracle

>  <origin>  (3) 
adg

>  <m_score__min__energy>  (3) 
-13.18

>  <m_primary>  (3) 
energy

$$$$
3:0
     RDKit          3D

 31 33  0  0  0  0  0  0  0  0999 V2000
   63.9400   33.3130   47.7770 O   0  0  0  0  0  0  0  0  0  0  0  0
   63.2000   32.4430   47.2710 N   0  0  0  0  0  0  0  0  0  0  0  0
   63.7600   31.2580   46.8500 O   0  0  0  0  0  0  0  0  0  0  0  0
   61.7860   32.6740   47.1310 C   0  0  0  0  0  0  0  0  0  0  0  0
   60.8540   31.7150   47.5720 C   0  0  0  0  0  0  0  0  0  0  0  0
   59.4830   31.9430   47.4300 C   0  0  0  0  0  0  0  0  0  0  0  0
   59.0160   33.1300   46.8460 C   0  0  0  0  0  0  0  0  0  0  0  0
   57.5420   33.3550   46.6470 C   0  0  0  0  0  0  0  0  0  0  0  0
   57.1550   33.6290   44.8810 S   0  0  0  0  0  0  0  0  0  0  0  0
   57.1170   31.8850   44.4740 C   0  0  0  0  0  0  0  0  0  0  0  0
   57.0440   31.3940   43.2260 N   0  0  0  0  0  0  0  0  0  0  0  0
   57.0090   30.0760   43.3210 N   0  0  0  0  0  0  0  0  0  0  0  0
   57.0660   29.8120   44.6440 C   0  0  0  0  0  0  0  0  0  0  0  0
   57.0390   28.4670   45.2210 C   0  0  0  0  0  0  0  0  0  0  0  0
   58.1390   27.6790   45.4970 C   0  0  0  0  0  0  0  0  0  0  0  0
   57.6330   26.5090   46.0200 C   0  0  0  0  0  0  0  0  0  0  0  0
   56.2590   26.6570   46.0320 C   0  0  0  0  0  0  0  0  0  0  0  0
   55.9370   27.8340   45.5500 O   0  0  0  0  0  0  0  0  0  0  0  0
   57.1360   30.9150   45.3550 O   0  0  0  0  0  0  0  0  0  0  0  0
   59.9410   34.0870   46.4040 C   0  0  0  0  0  0  0  0  0  0  0  0
   61.3140   33.8630   46.5480 C   0  0  0  0  0  0  0  0  0  0  0  0
   61.2077   30.7802   48.0313 H   0  0  0  0  0  0  0  0  0  0  0  0
   58.7646   31.1864   47.7786 H   0  0  0  0  0  0  0  0  0  0  0  0
   56.9917   32.4717   47.0032 H   0  0  0  0  0  0  0  0  0  0  0  0
   57.2436   34.2488   47.2145 H   0  0  0  0  0  0  0  0  0  0  0  0
   57.0080   31.9330   42.3330 H   0  0  0  0  0  0  0  0  0  0  0  0
   59.1969   27.9322   45.3336 H   0  0  0  0  0  0  0  0  0  0  0  0
   58.2067   25.6340   46.3594 H   0  0  0  0  0  0  0  0  0  0  0  0
   55.5438   25.9024   46.3912 H   0  0  0  0  0  0  0  0  0  0  0  0
   59.5846   35.0192   45.9414 H   0  0  0  0  0  0  0  0  0  0  0  0
   62.0301   34.6231   46.2024 H   0  0  0  0  0  0  0  0  0  0  0  0
  1  2  2  0
  2  3  1  0
  2  4  1  0
  4  5  2  0
  5  6  1  0
  6  7  2  0
  7  8  1  0
  8  9  1  0
  9 10  1  0
 10 11  2  0
 11 12  1  0
 12 13  2  0
 13 14  1  0
 14 15  2  0
 15 16  1  0
 16 17  2  0
 17 18  1  0
 13 19  1  0
  7 20  1  0
 20 21  2  0
 21  4  1  0
 19 10  1  0
 18 14  1  0
  5 22  1  0
  6 23  1  0
  8 24  1  0
  8 25  1  0
 11 26  1  0
 15 27  1  0
 16 28  1  0
 17 29  1  0
 20 30  1  0
 21 31  1  0
M  CHG  3   2   1   3  -1  11   1
M  END
>  <UniqueID>  (4) 
4

>  <SMILES>  (4) 
O=[N+]([O-])c1ccc(CSc2[nH+]nc(-c3ccco3)o2)cc1

>  <Energy>  (4) 
89.87047193195944

>  <Genealogy>  (4) 
O=[N+]([O-])c1ccc(CSc2[nH+]nc(-c3ccco3)o2)cc1 (protonated)
O=[N+]([O-])c1ccc(CSc2[nH+]nc(-c3ccco3)o2)cc1 (3D coordinates assigned)
O=[N+]([O-])c1ccc(CSc2[nH+]nc(-c3ccco3)o2)cc1 (optimized conformer: 89.87047193195944 kcal/mol)

>  <smiles>  (4) 
O=[N+]([O-])c1ccc(CSc2nnc(-c3ccco3)o2)cc1

>  <score_type>  (4) 
oracle

>  <origin>  (4) 
adg

>  <m_score__min__energy>  (4) 
-6.0199999999999996

>  <m_primary>  (4) 
energy

$$$$
4:0
     RDKit          3D

 29 29  0  0  0  0  0  0  0  0999 V2000
   57.7920   28.9580   46.0900 C   0  0  0  0  0  0  0  0  0  0  0  0
   56.7350   28.3960   45.1350 C   0  0  0  0  0  0  0  0  0  0  0  0
   55.5430   29.2540   45.0420 N   0  0  0  0  0  0  0  0  0  0  0  0
   55.2920   29.7100   43.6680 C   0  0  0  0  0  0  0  0  0  0  0  0
   56.6020   30.1400   43.0020 C   0  0  0  0  0  0  0  0  0  0  0  0
   57.1270   31.3600   43.6170 N   0  0  0  0  0  0  0  0  0  0  0  0
   56.9940   31.6400   44.9040 N   0  0  0  0  0  0  0  0  0  0  0  0
   57.6190   32.8120   45.1280 C   0  0  0  0  0  0  0  0  0  0  0  0
   57.6340   33.5090   46.4470 C   0  0  0  0  0  0  0  0  0  0  0  0
   58.1520   33.3020   43.9510 C   0  0  0  0  0  0  0  0  0  0  0  0
   57.8330   32.3410   43.0130 C   0  0  0  0  0  0  0  0  0  0  0  0
   58.1430   32.4140   41.5500 C   0  0  0  0  0  0  0  0  0  0  0  0
   57.4740   28.7889   47.1294 H   0  0  0  0  0  0  0  0  0  0  0  0
   58.7523   28.4514   45.9133 H   0  0  0  0  0  0  0  0  0  0  0  0
   57.9090   30.0374   45.9133 H   0  0  0  0  0  0  0  0  0  0  0  0
   57.1799   28.3012   44.1334 H   0  0  0  0  0  0  0  0  0  0  0  0
   56.4137   27.4210   45.5301 H   0  0  0  0  0  0  0  0  0  0  0  0
   55.6770   30.0890   45.6610 H   0  0  0  0  0  0  0  0  0  0  0  0
   54.8435   28.8888   43.0896 H   0  0  0  0  0  0  0  0  0  0  0  0
   54.6065   30.5698   43.6964 H   0  0  0  0  0  0  0  0  0  0  0  0
   57.3428   29.3343   43.1118 H   0  0  0  0  0  0  0  0  0  0  0  0
   56.4053   30.3402   41.9384 H   0  0  0  0  0  0  0  0  0  0  0  0
   57.6180   32.7636   47.2558 H   0  0  0  0  0  0  0  0  0  0  0  0
   58.5455   34.1193   46.5289 H   0  0  0  0  0  0  0  0  0  0  0  0
   56.7496   34.1580   46.5289 H   0  0  0  0  0  0  0  0  0  0  0  0
   58.7034   34.2413   43.7971 H   0  0  0  0  0  0  0  0  0  0  0  0
   59.2053   32.6642   41.4123 H   0  0  0  0  0  0  0  0  0  0  0  0
   57.9316   31.4415   41.0814 H   0  0  0  0  0  0  0  0  0  0  0  0
   57.5199   33.1900   41.0814 H   0  0  0  0  0  0  0  0  0  0  0  0
  1  2  1  0
  2  3  1  0
  3  4  1  0
  4  5  1  0
  5  6  1  0
  6  7  1  0
  7  8  2  0
  8  9  1  0
  8 10  1  0
 10 11  2  0
 11 12  1  0
 11  6  1  0
  1 13  1  0
  1 14  1  0
  1 15  1  0
  2 16  1  0
  2 17  1  0
  3 18  1  0
  4 19  1  0
  4 20  1  0
  5 21  1  0
  5 22  1  0
  9 23  1  0
  9 24  1  0
  9 25  1  0
 10 26  1  0
 12 27  1  0
 12 28  1  0
 12 29  1  0
M  END
>  <UniqueID>  (5) 
5

>  <SMILES>  (5) 
CCNCCn1nc(C)cc1C

>  <Energy>  (5) 
48.615148391353934

>  <Genealogy>  (5) 
CCNCCn1nc(C)cc1C (3D coordinates assigned)
CCNCCn1nc(C)cc1C (optimized conformer: 48.615148391353934 kcal/mol)

>  <smiles>  (5) 
CCNCCn1nc(C)cc1C

>  <score_type>  (5) 
oracle

>  <origin>  (5) 
adg

>  <m_score__min__energy>  (5) 
-5.5499999999999998

>  <m_primary>  (5) 
energy

$$$$
5:0
     RDKit          3D

 17 17  0  0  0  0  0  0  0  0999 V2000
   55.2870   29.4140   44.8750 N   0  0  0  0  0  0  0  0  0  0  0  0
   56.6630   29.3700   44.3860 C   0  0  0  0  0  0  0  0  0  0  0  0
   57.2890   30.7410   44.4050 C   0  0  0  0  0  0  0  0  0  0  0  0
   57.7740   31.2830   45.6070 C   0  0  0  0  0  0  0  0  0  0  0  0
   58.3830   32.5420   45.6180 C   0  0  0  0  0  0  0  0  0  0  0  0
   58.5210   33.2630   44.4280 C   0  0  0  0  0  0  0  0  0  0  0  0
   59.1130   34.4820   44.4400 F   0  0  0  0  0  0  0  0  0  0  0  0
   58.0530   32.7240   43.2260 C   0  0  0  0  0  0  0  0  0  0  0  0
   57.4440   31.4660   43.2110 C   0  0  0  0  0  0  0  0  0  0  0  0
   54.8210   30.2700   44.4930 H   0  0  0  0  0  0  0  0  0  0  0  0
   54.7710   28.5810   44.5050 H   0  0  0  0  0  0  0  0  0  0  0  0
   57.2511   28.6975   45.0277 H   0  0  0  0  0  0  0  0  0  0  0  0
   56.6539   29.0041   43.3487 H   0  0  0  0  0  0  0  0  0  0  0  0
   57.6743   30.7147   46.5435 H   0  0  0  0  0  0  0  0  0  0  0  0
   58.7536   32.9652   46.5633 H   0  0  0  0  0  0  0  0  0  0  0  0
   58.1643   33.2911   42.2900 H   0  0  0  0  0  0  0  0  0  0  0  0
   57.0849   31.0420   42.2616 H   0  0  0  0  0  0  0  0  0  0  0  0
  1  2  1  0
  2  3  1  0
  3  4  2  0
  4  5  1  0
  5  6  2  0
  6  7  1  0
  6  8  1  0
  8  9  2  0
  9  3  1  0
  1 10  1  0
  1 11  1  0
  2 12  1  0
  2 13  1  0
  4 14  1  0
  5 15  1  0
  8 16  1  0
  9 17  1  0
M  END
>  <UniqueID>  (6) 
6

>  <SMILES>  (6) 
NCc1ccc(F)cc1

>  <Energy>  (6) 
14.011839101731642

>  <Genealogy>  (6) 
NCc1ccc(F)cc1 (3D coordinates assigned)
NCc1ccc(F)cc1 (optimized conformer: 14.011839101731642 kcal/mol)

>  <smiles>  (6) 
NCc1ccc(F)cc1

>  <score_type>  (6) 
oracle

>  <origin>  (6) 
adg

>  <m_score__min__energy>  (6) 
-4.6799999999999997

>  <m_primary>  (6) 
energy

$$$$
6:0
     RDKit          3D

 37 39  0  0  0  0  0  0  0  0999 V2000
   62.0370   33.6330   46.7680 C   0  0  0  0  0  0  0  0  0  0  0  0
   60.6790   34.0090   47.3490 C   0  0  0  0  0  0  0  0  0  0  0  0
   59.6330   33.8410   46.3420 N   0  0  0  0  0  0  0  0  0  0  0  0
   59.2130   34.7650   45.4420 C   0  0  0  0  0  0  0  0  0  0  0  0
   58.2730   34.2890   44.5840 N   0  0  0  0  0  0  0  0  0  0  0  0
   58.1230   33.0090   44.9760 C   0  0  0  0  0  0  0  0  0  0  0  0
   57.2870   32.0450   44.4210 C   0  0  0  0  0  0  0  0  0  0  0  0
   57.3140   30.7410   44.9730 C   0  0  0  0  0  0  0  0  0  0  0  0
   56.4600   29.6680   44.4130 C   0  0  0  0  0  0  0  0  0  0  0  0
   56.2270   29.6490   43.1760 O   0  0  0  0  0  0  0  0  0  0  0  0
   55.9250   28.6170   45.2290 N   0  0  0  0  0  0  0  0  0  0  0  0
   56.6390   27.4650   45.7030 C   0  0  0  0  0  0  0  0  0  0  0  0
   55.9200   26.3080   46.0210 C   0  0  0  0  0  0  0  0  0  0  0  0
   56.5850   25.1650   46.4700 C   0  0  0  0  0  0  0  0  0  0  0  0
   57.9740   25.1760   46.6250 C   0  0  0  0  0  0  0  0  0  0  0  0
   58.7090   26.3450   46.3610 C   0  0  0  0  0  0  0  0  0  0  0  0
   60.2120   26.3550   46.4850 C   0  0  0  0  0  0  0  0  0  0  0  0
   60.7440   25.1700   46.0090 F   0  0  0  0  0  0  0  0  0  0  0  0
   60.5550   26.5000   47.8160 F   0  0  0  0  0  0  0  0  0  0  0  0
   60.7630   27.3990   45.7610 F   0  0  0  0  0  0  0  0  0  0  0  0
   58.0330   27.4850   45.8900 C   0  0  0  0  0  0  0  0  0  0  0  0
   58.1630   30.4670   46.0790 C   0  0  0  0  0  0  0  0  0  0  0  0
   58.9940   31.4670   46.6140 C   0  0  0  0  0  0  0  0  0  0  0  0
   58.9430   32.7320   46.0290 C   0  0  0  0  0  0  0  0  0  0  0  0
   62.7447   33.4371   47.5870 H   0  0  0  0  0  0  0  0  0  0  0  0
   61.9335   32.7297   46.1488 H   0  0  0  0  0  0  0  0  0  0  0  0
   62.4129   34.4609   46.1488 H   0  0  0  0  0  0  0  0  0  0  0  0
   60.4608   33.3610   48.2106 H   0  0  0  0  0  0  0  0  0  0  0  0
   60.7045   35.0618   47.6666 H   0  0  0  0  0  0  0  0  0  0  0  0
   59.5950   35.7960   45.4100 H   0  0  0  0  0  0  0  0  0  0  0  0
   56.6241   32.2887   43.5777 H   0  0  0  0  0  0  0  0  0  0  0  0
   54.8250   26.2984   45.9168 H   0  0  0  0  0  0  0  0  0  0  0  0
   56.0142   24.2538   46.7022 H   0  0  0  0  0  0  0  0  0  0  0  0
   58.4949   24.2652   46.9553 H   0  0  0  0  0  0  0  0  0  0  0  0
   58.5997   28.4007   45.6658 H   0  0  0  0  0  0  0  0  0  0  0  0
   58.1702   29.4602   46.5220 H   0  0  0  0  0  0  0  0  0  0  0  0
   59.6607   31.2590   47.4638 H   0  0  0  0  0  0  0  0  0  0  0  0
  1  2  1  0
  2  3  1  0
  3  4  1  0
  4  5  2  0
  5  6  1  0
  6  7  2  0
  7  8  1  0
  8  9  1  0
  9 10  2  0
  9 11  1  0
 11 12  1  0
 12 13  2  0
 13 14  1  0
 14 15  2  0
 15 16  1  0
 16 17  1  0
 17 18  1  0
 17 19  1  0
 17 20  1  0
 16 21  2  0
  8 22  2  0
 22 23  1  0
 23 24  2  0
 24  3  1  0
 24  6  1  0
 21 12  1  0
  1 25  1  0
  1 26  1  0
  1 27  1  0
  2 28  1  0
  2 29  1  0
  4 30  1  0
  7 31  1  0
 13 32  1  0
 14 33  1  0
 15 34  1  0
 21 35  1  0
 22 36  1  0
 23 37  1  0
M  CHG  1  11  -1
M  END
>  <UniqueID>  (7) 
7

>  <SMILES>  (7) 
CCn1cnc2cc(C(=O)[N-]c3cccc(C(F)(F)F)c3)ccc21

>  <Energy>  (7) 
79.96716564315084

>  <Genealogy>  (7) 
CCn1cnc2cc(C(=O)[N-]c3cccc(C(F)(F)F)c3)ccc21 (protonated)
CCn1cnc2cc(C(=O)[N-]c3cccc(C(F)(F)F)c3)ccc21 (3D coordinates assigned)
CCn1cnc2cc(C(=O)[N-]c3cccc(C(F)(F)F)c3)ccc21 (optimized conformer: 79.96716564315084 kcal/mol)

>  <smiles>  (7) 
CCn1cnc2cc(C(=O)Nc3cccc(C(F)(F)F)c3)ccc21

>  <score_type>  (7) 
oracle

>  <origin>  (7) 
adg

>  <m_score__min__energy>  (7) 
-8.6799999999999997

>  <m_primary>  (7) 
energy

$$$$
7:0
     RDKit          3D

 25 27  0  0  0  0  0  0  0  0999 V2000
   57.3960   30.5870   44.7710 Cl  0  0  0  0  0  0  0  0  0  0  0  0
   57.9750   32.1820   45.2130 C   0  0  0  0  0  0  0  0  0  0  0  0
   57.5260   33.3070   44.5140 C   0  0  0  0  0  0  0  0  0  0  0  0
   57.9810   34.5800   44.8710 C   0  0  0  0  0  0  0  0  0  0  0  0
   58.8890   34.7300   45.9220 C   0  0  0  0  0  0  0  0  0  0  0  0
   59.3610   33.6050   46.6190 C   0  0  0  0  0  0  0  0  0  0  0  0
   60.3060   33.7540   47.7460 C   0  0  0  0  0  0  0  0  0  0  0  0
   59.9850   34.1740   49.0300 C   0  0  0  0  0  0  0  0  0  0  0  0
   61.1000   34.2120   49.7970 N   0  0  0  0  0  0  0  0  0  0  0  0
   62.0720   33.8030   48.9560 C   0  0  0  0  0  0  0  0  0  0  0  0
   63.4170   33.6420   49.2770 C   0  0  0  0  0  0  0  0  0  0  0  0
   64.2590   33.1760   48.3080 N   0  0  0  0  0  0  0  0  0  0  0  0
   63.8020   32.8610   47.0570 C   0  0  0  0  0  0  0  0  0  0  0  0
   62.4450   33.0250   46.7490 C   0  0  0  0  0  0  0  0  0  0  0  0
   61.6300   33.5160   47.7210 N   0  0  0  0  0  0  0  0  0  0  0  0
   58.8840   32.3310   46.2670 C   0  0  0  0  0  0  0  0  0  0  0  0
   56.8147   33.1903   43.6831 H   0  0  0  0  0  0  0  0  0  0  0  0
   57.6235   35.4646   44.3235 H   0  0  0  0  0  0  0  0  0  0  0  0
   59.2364   35.7345   46.2055 H   0  0  0  0  0  0  0  0  0  0  0  0
   58.9737   34.4371   49.3734 H   0  0  0  0  0  0  0  0  0  0  0  0
   63.7911   33.8833   50.2829 H   0  0  0  0  0  0  0  0  0  0  0  0
   65.2710   33.0480   48.5300 H   0  0  0  0  0  0  0  0  0  0  0  0
   64.4982   32.4801   46.2953 H   0  0  0  0  0  0  0  0  0  0  0  0
   62.0521   32.7655   45.7549 H   0  0  0  0  0  0  0  0  0  0  0  0
   59.2268   31.4458   46.8228 H   0  0  0  0  0  0  0  0  0  0  0  0
  1  2  1  0
  2  3  2  0
  3  4  1  0
  4  5  2  0
  5  6  1  0
  6  7  1  0
  7  8  2  0
  8  9  1  0
  9 10  2  0
 10 11  1  0
 11 12  2  0
 12 13  1  0
 13 14  2  0
 14 15  1  0
  6 16  2  0
 16  2  1  0
 15  7  1  0
 15 10  1  0
  3 17  1  0
  4 18  1  0
  5 19  1  0
  8 20  1  0
 11 21  1  0
 12 22  1  0
 13 23  1  0
 14 24  1  0
 16 25  1  0
M  CHG  1  12   1
M  END
>  <UniqueID>  (8) 
8

>  <SMILES>  (8) 
Clc1cccc(-c2cnc3c[nH+]ccn23)c1

>  <Energy>  (8) 
68.85472569828572

>  <Genealogy>  (8) 
Clc1cccc(-c2cnc3c[nH+]ccn23)c1 (protonated)
Clc1cccc(-c2cnc3c[nH+]ccn23)c1 (3D coordinates assigned)
Clc1cccc(-c2cnc3c[nH+]ccn23)c1 (optimized conformer: 68.85472569828572 kcal/mol)

>  <smiles>  (8) 
Clc1cccc(-c2cnc3cnccn23)c1

>  <score_type>  (8) 
oracle

>  <origin>  (8) 
adg

>  <m_score__min__energy>  (8) 
-5.0199999999999996

>  <m_primary>  (8) 
energy

$$$$
8:0
     RDKit          3D

 40 41  0  0  0  0  0  0  0  0999 V2000
   62.7640   32.9300   47.1420 C   0  0  0  0  0  0  0  0  0  0  0  0
   61.7630   33.8220   46.4190 C   0  0  0  0  0  0  0  0  0  0  0  0
   60.3870   33.3480   46.6920 N   0  0  0  0  0  0  0  0  0  0  0  0
   59.3790   34.4210   46.5350 C   0  0  0  0  0  0  0  0  0  0  0  0
   59.2400   34.8650   45.0780 C   0  0  0  0  0  0  0  0  0  0  0  0
   60.2920   32.5790   47.9590 C   0  0  0  0  0  0  0  0  0  0  0  0
   59.6460   31.1830   47.8090 C   0  0  0  0  0  0  0  0  0  0  0  0
   59.9270   30.6210   46.4800 N   0  0  0  0  0  0  0  0  0  0  0  0
   58.7030   30.5030   45.7240 C   0  0  0  0  0  0  0  0  0  0  0  0
   58.2590   31.5740   44.9250 C   0  0  0  0  0  0  0  0  0  0  0  0
   57.0590   31.4800   44.2140 C   0  0  0  0  0  0  0  0  0  0  0  0
   56.2810   30.3240   44.3020 C   0  0  0  0  0  0  0  0  0  0  0  0
   56.7030   29.2560   45.0990 C   0  0  0  0  0  0  0  0  0  0  0  0
   57.9110   29.3390   45.8090 C   0  0  0  0  0  0  0  0  0  0  0  0
   58.3050   28.2690   46.6250 O   0  0  0  0  0  0  0  0  0  0  0  0
   57.7540   26.9530   46.5130 C   0  0  0  0  0  0  0  0  0  0  0  0
   56.3390   26.9850   46.0120 C   0  0  0  0  0  0  0  0  0  0  0  0
   55.5740   26.0050   46.2110 O   0  0  0  0  0  0  0  0  0  0  0  0
   55.8830   28.0970   45.2400 N   0  0  0  0  0  0  0  0  0  0  0  0
   62.6374   33.0428   48.2289 H   0  0  0  0  0  0  0  0  0  0  0  0
   62.5912   31.8810   46.8596 H   0  0  0  0  0  0  0  0  0  0  0  0
   63.7862   33.2221   46.8596 H   0  0  0  0  0  0  0  0  0  0  0  0
   61.8710   34.8571   46.7753 H   0  0  0  0  0  0  0  0  0  0  0  0
   61.9546   33.7831   45.3365 H   0  0  0  0  0  0  0  0  0  0  0  0
   58.4058   34.0489   46.8876 H   0  0  0  0  0  0  0  0  0  0  0  0
   59.7099   35.2882   47.1253 H   0  0  0  0  0  0  0  0  0  0  0  0
   58.9115   35.9143   45.0442 H   0  0  0  0  0  0  0  0  0  0  0  0
   60.2114   34.7684   44.5710 H   0  0  0  0  0  0  0  0  0  0  0  0
   58.4971   34.2317   44.5710 H   0  0  0  0  0  0  0  0  0  0  0  0
   61.3082   32.4471   48.3589 H   0  0  0  0  0  0  0  0  0  0  0  0
   59.6400   33.1572   48.6302 H   0  0  0  0  0  0  0  0  0  0  0  0
   60.0542   30.5115   48.5788 H   0  0  0  0  0  0  0  0  0  0  0  0
   58.5570   31.2824   47.9281 H   0  0  0  0  0  0  0  0  0  0  0  0
   60.3750   29.6800   46.5770 H   0  0  0  0  0  0  0  0  0  0  0  0
   60.5990   31.2440   45.9710 H   0  0  0  0  0  0  0  0  0  0  0  0
   58.8613   32.4922   44.8597 H   0  0  0  0  0  0  0  0  0  0  0  0
   56.7271   32.3184   43.5840 H   0  0  0  0  0  0  0  0  0  0  0  0
   55.3357   30.2537   43.7440 H   0  0  0  0  0  0  0  0  0  0  0  0
   58.3674   26.3680   45.8119 H   0  0  0  0  0  0  0  0  0  0  0  0
   57.7538   26.4948   47.5130 H   0  0  0  0  0  0  0  0  0  0  0  0
  1  2  1  0
  2  3  1  0
  3  4  1  0
  4  5  1  0
  3  6  1  0
  6  7  1  0
  7  8  1  0
  8  9  1  0
  9 10  2  0
 10 11  1  0
 11 12  2  0
 12 13  1  0
 13 14  2  0
 14 15  1  0
 15 16  1  0
 16 17  1  0
 17 18  2  0
 17 19  1  0
 14  9  1  0
 19 13  1  0
  1 20  1  0
  1 21  1  0
  1 22  1  0
  2 23  1  0
  2 24  1  0
  4 25  1  0
  4 26  1  0
  5 27  1  0
  5 28  1  0
  5 29  1  0
  6 30  1  0
  6 31  1  0
  7 32  1  0
  7 33  1  0
  8 34  1  0
  8 35  1  0
 10 36  1  0
 11 37  1  0
 12 38  1  0
 16 39  1  0
 16 40  1  0
M  CHG  2   8   1  19  -1
M  END
>  <UniqueID>  (9) 
9

>  <SMILES>  (9) 
CCN(CC)CC[NH2+]c1cccc2c1OCC(=O)[N-]2

>  <Energy>  (9) 
42.930907126352345

>  <Genealogy>  (9) 
CCN(CC)CC[NH2+]c1cccc2c1OCC(=O)[N-]2 (protonated)
CCN(CC)CC[NH2+]c1cccc2c1OCC(=O)[N-]2 (3D coordinates assigned)
CCN(CC)CC[NH2+]c1cccc2c1OCC(=O)[N-]2 (nonaromatic ring conformer: 42.930907126352345 kcal/mol)

>  <smiles>  (9) 
CCN(CC)CCNc1cccc2c1OCC(=O)N2

>  <score_type>  (9) 
oracle

>  <origin>  (9) 
adg

>  <m_score__min__energy>  (9) 
-6.4699999999999998

>  <m_primary>  (9) 
energy

$$$$
9:0
     RDKit          3D

 39 41  0  0  0  0  0  0  0  0999 V2000
   59.4930   29.5330   49.8980 C   0  0  0  0  0  0  0  0  0  0  0  0
   59.8400   28.7380   48.6410 C   0  0  0  0  0  0  0  0  0  0  0  0
   60.7270   29.5320   47.6740 C   0  0  0  0  0  0  0  0  0  0  0  0
   59.9820   29.9420   46.4830 N   0  0  0  0  0  0  0  0  0  0  0  0
   60.0110   29.3360   45.2770 C   0  0  0  0  0  0  0  0  0  0  0  0
   59.1300   29.8820   44.4180 N   0  0  0  0  0  0  0  0  0  0  0  0
   58.5240   30.8740   45.1010 C   0  0  0  0  0  0  0  0  0  0  0  0
   57.4050   31.6830   44.5900 C   0  0  0  0  0  0  0  0  0  0  0  0
   56.2600   31.1600   44.5430 O   0  0  0  0  0  0  0  0  0  0  0  0
   57.5430   33.1310   44.1920 C   0  0  0  0  0  0  0  0  0  0  0  0
   57.3780   34.2150   45.2490 C   0  0  0  0  0  0  0  0  0  0  0  0
   58.7670   33.8150   44.7790 C   0  0  0  0  0  0  0  0  0  0  0  0
   59.0420   30.9060   46.3810 C   0  0  0  0  0  0  0  0  0  0  0  0
   58.5520   32.0200   47.7060 S   0  0  0  0  0  0  0  0  0  0  0  0
   60.1920   32.7370   47.8500 C   0  0  0  0  0  0  0  0  0  0  0  0
   60.6210   33.2900   49.0640 C   0  0  0  0  0  0  0  0  0  0  0  0
   61.9050   33.8330   49.1720 C   0  0  0  0  0  0  0  0  0  0  0  0
   62.7600   33.8330   48.0650 C   0  0  0  0  0  0  0  0  0  0  0  0
   62.3290   33.2970   46.8480 C   0  0  0  0  0  0  0  0  0  0  0  0
   61.0450   32.7570   46.7390 C   0  0  0  0  0  0  0  0  0  0  0  0
   59.7512   28.9416   50.7888 H   0  0  0  0  0  0  0  0  0  0  0  0
   60.0621   30.4743   49.9053 H   0  0  0  0  0  0  0  0  0  0  0  0
   58.4158   29.7557   49.9053 H   0  0  0  0  0  0  0  0  0  0  0  0
   60.3723   27.8223   48.9378 H   0  0  0  0  0  0  0  0  0  0  0  0
   58.8993   28.5062   48.1201 H   0  0  0  0  0  0  0  0  0  0  0  0
   61.1033   30.4290   48.1876 H   0  0  0  0  0  0  0  0  0  0  0  0
   61.5595   28.8865   47.3573 H   0  0  0  0  0  0  0  0  0  0  0  0
   60.6755   28.4960   45.0261 H   0  0  0  0  0  0  0  0  0  0  0  0
   58.9300   29.5620   43.4450 H   0  0  0  0  0  0  0  0  0  0  0  0
   57.0954   32.9820   43.1983 H   0  0  0  0  0  0  0  0  0  0  0  0
   56.9645   35.1958   44.9714 H   0  0  0  0  0  0  0  0  0  0  0  0
   56.8755   34.2798   46.2254 H   0  0  0  0  0  0  0  0  0  0  0  0
   59.3589   34.5069   44.1618 H   0  0  0  0  0  0  0  0  0  0  0  0
   59.6862   33.4708   45.2756 H   0  0  0  0  0  0  0  0  0  0  0  0
   59.9468   33.2969   49.9331 H   0  0  0  0  0  0  0  0  0  0  0  0
   62.2428   34.2602   50.1277 H   0  0  0  0  0  0  0  0  0  0  0  0
   63.7721   34.2550   48.1521 H   0  0  0  0  0  0  0  0  0  0  0  0
   63.0004   33.3004   45.9766 H   0  0  0  0  0  0  0  0  0  0  0  0
   60.7028   32.3462   45.7777 H   0  0  0  0  0  0  0  0  0  0  0  0
  1  2  1  0
  2  3  1  0
  3  4  1  0
  4  5  1  0
  5  6  2  0
  6  7  1  0
  7  8  1  0
  8  9  2  0
  8 10  1  0
 10 11  1  0
 11 12  1  0
  7 13  2  0
 13 14  1  0
 14 15  1  0
 15 16  2  0
 16 17  1  0
 17 18  2  0
 18 19  1  0
 19 20  2  0
 13  4  1  0
 20 15  1  0
 12 10  1  0
  1 21  1  0
  1 22  1  0
  1 23  1  0
  2 24  1  0
  2 25  1  0
  3 26  1  0
  3 27  1  0
  5 28  1  0
  6 29  1  0
 10 30  1  0
 11 31  1  0
 11 32  1  0
 12 33  1  0
 12 34  1  0
 16 35  1  0
 17 36  1  0
 18 37  1  0
 19 38  1  0
 20 39  1  0
M  CHG  1   6   1
M  END
>  <UniqueID>  (10) 
10

>  <SMILES>  (10) 
CCCn1c[nH+]c(C(=O)C2CC2)c1Sc1ccccc1

>  <Energy>  (10) 
331.34998256975456

>  <Genealogy>  (10) 
CCCn1c[nH+]c(C(=O)C2CC2)c1Sc1ccccc1 (protonated)
CCCn1c[nH+]c(C(=O)C2CC2)c1Sc1ccccc1 (3D coordinates assigned)
CCCn1c[nH+]c(C(=O)C2CC2)c1Sc1ccccc1 (nonaromatic ring conformer: 331.34998256975456 kcal/mol)

>  <smiles>  (10) 
CCCn1cnc(C(=O)C2CC2)c1Sc1ccccc1

>  <score_type>  (10) 
oracle

>  <origin>  (10) 
adg

>  <m_score__min__energy>  (10) 
-5.5999999999999996

>  <m_primary>  (10) 
energy

$$$$
10:0
     RDKit          3D

 38 40  0  0  0  0  0  0  0  0999 V2000
   63.3420   33.7870   51.4620 C   0  0  0  0  0  0  0  0  0  0  0  0
   62.8350   33.8320   50.0610 C   0  0  0  0  0  0  0  0  0  0  0  0
   63.6210   33.6570   48.9780 N   0  0  0  0  0  0  0  0  0  0  0  0
   62.9100   33.6660   47.8170 C   0  0  0  0  0  0  0  0  0  0  0  0
   63.5950   33.4420   46.5050 C   0  0  0  0  0  0  0  0  0  0  0  0
   61.5280   33.8570   47.9800 C   0  0  0  0  0  0  0  0  0  0  0  0
   60.4730   33.8960   46.9480 C   0  0  0  0  0  0  0  0  0  0  0  0
   60.2830   35.0120   46.1250 C   0  0  0  0  0  0  0  0  0  0  0  0
   59.2510   34.9840   45.1900 C   0  0  0  0  0  0  0  0  0  0  0  0
   58.4440   33.8950   45.0930 N   0  0  0  0  0  0  0  0  0  0  0  0
   58.6250   32.8190   45.9140 C   0  0  0  0  0  0  0  0  0  0  0  0
   57.7250   31.6090   45.8300 C   0  0  0  0  0  0  0  0  0  0  0  0
   58.5310   30.3020   45.8740 C   0  0  0  0  0  0  0  0  0  0  0  0
   57.5980   29.0700   45.8700 C   0  0  0  0  0  0  0  0  0  0  0  0
   56.2820   29.3240   45.2510 N   0  0  0  0  0  0  0  0  0  0  0  0
   56.3740   30.2570   44.1210 C   0  0  0  0  0  0  0  0  0  0  0  0
   56.8210   31.6600   44.5780 C   0  0  0  0  0  0  0  0  0  0  0  0
   59.6300   32.8370   46.8320 N   0  0  0  0  0  0  0  0  0  0  0  0
   61.2170   33.9710   49.6320 S   0  0  0  0  0  0  0  0  0  0  0  0
   62.4958   33.8621   52.1608 H   0  0  0  0  0  0  0  0  0  0  0  0
   63.8728   32.8382   51.6296 H   0  0  0  0  0  0  0  0  0  0  0  0
   64.0316   34.6275   51.6296 H   0  0  0  0  0  0  0  0  0  0  0  0
   64.6268   33.1046   46.6829 H   0  0  0  0  0  0  0  0  0  0  0  0
   63.0517   32.6747   45.9340 H   0  0  0  0  0  0  0  0  0  0  0  0
   63.6100   34.3821   45.9340 H   0  0  0  0  0  0  0  0  0  0  0  0
   60.9353   35.8932   46.2147 H   0  0  0  0  0  0  0  0  0  0  0  0
   59.0886   35.8469   44.5274 H   0  0  0  0  0  0  0  0  0  0  0  0
   57.6750   33.9020   44.3870 H   0  0  0  0  0  0  0  0  0  0  0  0
   57.0722   31.6293   46.7151 H   0  0  0  0  0  0  0  0  0  0  0  0
   59.1892   30.2565   44.9939 H   0  0  0  0  0  0  0  0  0  0  0  0
   59.1223   30.2883   46.8015 H   0  0  0  0  0  0  0  0  0  0  0  0
   58.0934   28.2611   45.3130 H   0  0  0  0  0  0  0  0  0  0  0  0
   57.4128   28.8037   46.9211 H   0  0  0  0  0  0  0  0  0  0  0  0
   55.6350   29.7260   45.9690 H   0  0  0  0  0  0  0  0  0  0  0  0
   57.1041   29.8684   43.3958 H   0  0  0  0  0  0  0  0  0  0  0  0
   55.3766   30.3451   43.6657 H   0  0  0  0  0  0  0  0  0  0  0  0
   57.3781   32.1380   43.7588 H   0  0  0  0  0  0  0  0  0  0  0  0
   55.9184   32.2325   44.8380 H   0  0  0  0  0  0  0  0  0  0  0  0
  1  2  1  0
  2  3  2  0
  3  4  1  0
  4  5  1  0
  4  6  2  0
  6  7  1  0
  7  8  2  0
  8  9  1  0
  9 10  2  0
 10 11  1  0
 11 12  1  0
 12 13  1  0
 13 14  1  0
 14 15  1  0
 15 16  1  0
 16 17  1  0
 11 18  2  0
  6 19  1  0
 19  2  1  0
 18  7  1  0
 17 12  1  0
  1 20  1  0
  1 21  1  0
  1 22  1  0
  5 23  1  0
  5 24  1  0
  5 25  1  0
  8 26  1  0
  9 27  1  0
 10 28  1  0
 12 29  1  0
 13 30  1  0
 13 31  1  0
 14 32  1  0
 14 33  1  0
 15 34  1  0
 16 35  1  0
 16 36  1  0
 17 37  1  0
 17 38  1  0
M  CHG  1  10   1
M  END
>  <UniqueID>  (11) 
11

>  <SMILES>  (11) 
Cc1nc(C)c(-c2cc[nH+]c(C3CCNCC3)n2)s1

>  <Energy>  (11) 
74.86774459118723

>  <Genealogy>  (11) 
Cc1nc(C)c(-c2cc[nH+]c(C3CCNCC3)n2)s1 (protonated)
Cc1nc(C)c(-c2cc[nH+]c(C3CCNCC3)n2)s1 (3D coordinates assigned)
Cc1nc(C)c(-c2cc[nH+]c(C3CCNCC3)n2)s1 (nonaromatic ring conformer: 74.86774459118723 kcal/mol)

>  <smiles>  (11) 
Cc1nc(C)c(-c2ccnc(C3CCNCC3)n2)s1

>  <score_type>  (11) 
oracle

>  <origin>  (11) 
adg

>  <m_score__min__energy>  (11) 
-6.0599999999999996

>  <m_primary>  (11) 
energy

$$$$
11:0
     RDKit          3D

 39 40  0  0  0  0  0  0  0  0999 V2000
   57.7431   34.8126   46.7749 H   0  0  0  0  0  0  0  0  0  0  0  0
   57.8570   33.9070   46.1610 C   0  0  0  0  0  0  0  0  0  0  0  0
   57.3300   33.8770   44.8500 C   0  0  0  0  0  0  0  0  0  0  0  0
   56.8078   34.7589   44.4506 H   0  0  0  0  0  0  0  0  0  0  0  0
   57.4690   32.7270   44.0530 C   0  0  0  0  0  0  0  0  0  0  0  0
   57.0638   32.6930   43.0309 H   0  0  0  0  0  0  0  0  0  0  0  0
   58.1370   31.6300   44.5990 C   0  0  0  0  0  0  0  0  0  0  0  0
   58.6510   31.6600   45.8720 C   0  0  0  0  0  0  0  0  0  0  0  0
   58.5260   32.7870   46.6860 C   0  0  0  0  0  0  0  0  0  0  0  0
   58.9378   32.7987   47.7059 H   0  0  0  0  0  0  0  0  0  0  0  0
   59.2620   30.4360   46.0900 C   0  0  0  0  0  0  0  0  0  0  0  0
   60.0590   30.0220   47.2980 C   0  0  0  0  0  0  0  0  0  0  0  0
   60.0414   28.9251   47.3782 H   0  0  0  0  0  0  0  0  0  0  0  0
   59.6058   30.4887   48.1850 H   0  0  0  0  0  0  0  0  0  0  0  0
   61.5180   30.4910   47.2020 C   0  0  0  0  0  0  0  0  0  0  0  0
   61.6186   31.1703   46.3427 H   0  0  0  0  0  0  0  0  0  0  0  0
   62.1567   29.6039   47.0791 H   0  0  0  0  0  0  0  0  0  0  0  0
   61.9400   31.1940   48.4150 N   0  0  0  0  0  0  0  0  0  0  0  0
   61.3880   31.0110   49.2830 H   0  0  0  0  0  0  0  0  0  0  0  0
   63.0960   32.0470   48.5250 C   0  0  0  0  0  0  0  0  0  0  0  0
   63.5750   32.3610   49.8430 N   0  0  0  0  0  0  0  0  0  0  0  0
   63.0830   31.9700   50.6770 H   0  0  0  0  0  0  0  0  0  0  0  0
   64.4200   32.9430   50.0230 H   0  0  0  0  0  0  0  0  0  0  0  0
   63.6900   32.5150   47.4540 N   0  0  0  0  0  0  0  0  0  0  0  0
   64.5330   32.0320   47.0750 H   0  0  0  0  0  0  0  0  0  0  0  0
   63.2720   33.7080   46.7120 C   0  0  0  0  0  0  0  0  0  0  0  0
   63.6465   33.6401   45.6800 H   0  0  0  0  0  0  0  0  0  0  0  0
   63.6850   34.5963   47.2124 H   0  0  0  0  0  0  0  0  0  0  0  0
   61.7500   33.8260   46.6850 C   0  0  0  0  0  0  0  0  0  0  0  0
   61.3662   33.8558   47.7154 H   0  0  0  0  0  0  0  0  0  0  0  0
   61.4631   34.7491   46.1601 H   0  0  0  0  0  0  0  0  0  0  0  0
   61.3242   32.9582   46.1601 H   0  0  0  0  0  0  0  0  0  0  0  0
   59.0740   29.7150   44.9060 C   0  0  0  0  0  0  0  0  0  0  0  0
   59.6240   28.3570   44.6050 C   0  0  0  0  0  0  0  0  0  0  0  0
   59.8372   27.8307   45.5471 H   0  0  0  0  0  0  0  0  0  0  0  0
   58.8872   27.7837   44.0233 H   0  0  0  0  0  0  0  0  0  0  0  0
   60.5521   28.4580   44.0233 H   0  0  0  0  0  0  0  0  0  0  0  0
   58.3910   30.4540   44.0010 N   0  0  0  0  0  0  0  0  0  0  0  0
   58.1330   30.1770   43.0270 H   0  0  0  0  0  0  0  0  0  0  0  0
  1  2  1  0
  2  3  2  0
  3  4  1  0
  3  5  1  0
  5  6  1  0
  5  7  2  0
  7  8  1  0
  8  9  2  0
  9 10  1  0
  8 11  1  0
 11 12  1  0
 12 13  1  0
 12 14  1  0
 12 15  1  0
 15 16  1  0
 15 17  1  0
 15 18  1  0
 18 19  1  0
 18 20  1  0
 20 21  1  0
 21 22  1  0
 21 23  1  0
 20 24  2  0
 24 25  1  0
 24 26  1  0
 26 27  1  0
 26 28  1  0
 26 29  1  0
 29 30  1  0
 29 31  1  0
 29 32  1  0
 11 33  2  0
 33 34  1  0
 34 35  1  0
 34 36  1  0
 34 37  1  0
 33 38  1  0
 38 39  1  0
  9  2  1  0
 38  7  1  0
M  CHG  1  24   1
M  END
>  <UniqueID>  (12) 
12

>  <SMILES>  (12) 
CC/[NH+]=C(\N)NCCc1c(C)[nH]c2ccccc12

>  <Energy>  (12) 
63.156290221219535

>  <Genealogy>  (12) 
CC[NH+]=C(N)NCCc1c(C)[nH]c2ccccc12 (protonated)
CC/[NH+]=C(\N)NCCc1c(C)[nH]c2ccccc12 (cis-trans isomerization)
CC/[NH+]=C(\N)NCCc1c(C)[nH]c2ccccc12 (3D coordinates assigned)
CC/[NH+]=C(\N)NCCc1c(C)[nH]c2ccccc12 (optimized conformer: 63.156290221219535 kcal/mol)

>  <smiles>  (12) 
CCN=C(N)NCCc1c(C)[nH]c2ccccc12

>  <score_type>  (12) 
oracle

>  <origin>  (12) 
adg

>  <m_score__min__energy>  (12) 
-4.8399999999999999

>  <m_primary>  (12) 
energy

$$$$
12:0
     RDKit          3D

 26 27  0  0  0  0  0  0  0  0999 V2000
   55.5940   25.2700   45.9660 C   0  0  0  0  0  0  0  0  0  0  0  0
   55.5850   26.6910   46.0030 O   0  0  0  0  0  0  0  0  0  0  0  0
   56.7080   27.4600   45.6840 C   0  0  0  0  0  0  0  0  0  0  0  0
   57.9760   27.0390   45.9840 N   0  0  0  0  0  0  0  0  0  0  0  0
   59.0740   27.8010   45.6730 C   0  0  0  0  0  0  0  0  0  0  0  0
   58.9270   29.0080   45.0490 N   0  0  0  0  0  0  0  0  0  0  0  0
   57.6710   29.4170   44.7500 C   0  0  0  0  0  0  0  0  0  0  0  0
   56.5740   28.6850   45.0490 C   0  0  0  0  0  0  0  0  0  0  0  0
   55.4550   29.3300   44.6650 N   0  0  0  0  0  0  0  0  0  0  0  0
   55.9430   30.4800   44.1230 C   0  0  0  0  0  0  0  0  0  0  0  0
   57.2990   30.5580   44.1570 N   0  0  0  0  0  0  0  0  0  0  0  0
   58.1400   31.6680   43.7120 C   0  0  0  0  0  0  0  0  0  0  0  0
   57.7770   32.9640   44.4460 C   0  0  0  0  0  0  0  0  0  0  0  0
   58.3960   33.0320   45.8420 C   0  0  0  0  0  0  0  0  0  0  0  0
   57.3960   32.9710   46.7950 F   0  0  0  0  0  0  0  0  0  0  0  0
   55.5965   24.8765   46.9932 H   0  0  0  0  0  0  0  0  0  0  0  0
   54.6981   24.9113   45.4381 H   0  0  0  0  0  0  0  0  0  0  0  0
   56.4944   24.9226   45.4381 H   0  0  0  0  0  0  0  0  0  0  0  0
   60.0804   27.4375   45.9279 H   0  0  0  0  0  0  0  0  0  0  0  0
   55.3027   31.2678   43.6996 H   0  0  0  0  0  0  0  0  0  0  0  0
   59.1935   31.4239   43.9136 H   0  0  0  0  0  0  0  0  0  0  0  0
   57.9776   31.8193   42.6346 H   0  0  0  0  0  0  0  0  0  0  0  0
   58.1400   33.8185   43.8559 H   0  0  0  0  0  0  0  0  0  0  0  0
   56.6833   32.9912   44.5608 H   0  0  0  0  0  0  0  0  0  0  0  0
   59.0847   32.1853   45.9790 H   0  0  0  0  0  0  0  0  0  0  0  0
   58.9486   33.9768   45.9515 H   0  0  0  0  0  0  0  0  0  0  0  0
  1  2  1  0
  2  3  1  0
  3  4  2  0
  4  5  1  0
  5  6  2  0
  6  7  1  0
  7  8  2  0
  8  9  1  0
  9 10  2  0
 10 11  1  0
 11 12  1  0
 12 13  1  0
 13 14  1  0
 14 15  1  0
  8  3  1  0
 11  7  1  0
  1 16  1  0
  1 17  1  0
  1 18  1  0
  5 19  1  0
 10 20  1  0
 12 21  1  0
 12 22  1  0
 13 23  1  0
 13 24  1  0
 14 25  1  0
 14 26  1  0
M  END
>  <UniqueID>  (13) 
13

>  <SMILES>  (13) 
COc1ncnc2c1ncn2CCCF

>  <Energy>  (13) 
59.340787418432804

>  <Genealogy>  (13) 
COc1ncnc2c1ncn2CCCF (3D coordinates assigned)
COc1ncnc2c1ncn2CCCF (optimized conformer: 59.340787418432804 kcal/mol)

>  <smiles>  (13) 
COc1ncnc2c1ncn2CCCF

>  <score_type>  (13) 
oracle

>  <origin>  (13) 
adg

>  <m_score__min__energy>  (13) 
-4.5599999999999996

>  <m_primary>  (13) 
energy

$$$$
13:0
     RDKit          3D

 55 57  0  0  0  0  0  0  0  0999 V2000
   63.6390   33.1500   46.9550 C   0  0  0  0  0  0  0  0  0  0  0  0
   63.5760   33.8530   48.6390 S   0  0  0  0  0  0  0  0  0  0  0  0
   64.8310   32.7390   49.3780 C   0  0  0  0  0  0  0  0  0  0  0  0
   64.4380   32.2510   50.7830 C   0  0  0  0  0  0  0  0  0  0  0  0
   63.3680   31.1420   50.7840 C   0  0  0  0  0  0  0  0  0  0  0  0
   62.1410   31.5560   50.0820 N   0  0  0  0  0  0  0  0  0  0  0  0
   61.9270   30.7610   48.8620 C   0  0  0  0  0  0  0  0  0  0  0  0
   60.7820   29.7290   49.0330 C   0  0  1  0  0  0  0  0  0  0  0  0
   60.5720   29.3950   50.3620 F   0  0  0  0  0  0  0  0  0  0  0  0
   59.4600   30.1710   48.3710 C   0  0  0  0  0  0  0  0  0  0  0  0
   59.1570   31.6110   48.5270 N   0  0  0  0  0  0  0  0  0  0  0  0
   58.8130   32.4080   47.3610 C   0  0  0  0  0  0  0  0  0  0  0  0
   58.1440   31.7780   46.2860 C   0  0  0  0  0  0  0  0  0  0  0  0
   57.7910   32.4810   45.1370 C   0  0  0  0  0  0  0  0  0  0  0  0
   57.1540   31.8460   44.1220 F   0  0  0  0  0  0  0  0  0  0  0  0
   58.0780   33.8360   45.0340 C   0  0  0  0  0  0  0  0  0  0  0  0
   58.7100   34.4940   46.0840 C   0  0  0  0  0  0  0  0  0  0  0  0
   59.0910   33.8120   47.2580 C   0  0  0  0  0  0  0  0  0  0  0  0
   59.7060   34.6920   48.3380 C   0  0  0  0  0  0  0  0  0  0  0  0
   60.4120   33.9830   49.4870 C   0  0  0  0  0  0  0  0  0  0  0  0
   59.4110   33.2530   50.3300 C   0  0  0  0  0  0  0  0  0  0  0  0
   59.0450   33.7210   51.5990 C   0  0  0  0  0  0  0  0  0  0  0  0
   58.0850   33.0340   52.3430 C   0  0  0  0  0  0  0  0  0  0  0  0
   57.5020   31.8760   51.8110 C   0  0  0  0  0  0  0  0  0  0  0  0
   56.4390   31.1410   52.5630 C   0  0  0  0  0  0  0  0  0  0  0  0
   57.8600   31.4540   50.5680 N   0  0  0  0  0  0  0  0  0  0  0  0
   58.7940   32.1070   49.8230 C   0  0  0  0  0  0  0  0  0  0  0  0
   63.7370   32.0562   47.0177 H   0  0  0  0  0  0  0  0  0  0  0  0
   62.7144   33.4050   46.4164 H   0  0  0  0  0  0  0  0  0  0  0  0
   64.5035   33.5653   46.4164 H   0  0  0  0  0  0  0  0  0  0  0  0
   64.9539   31.8638   48.7231 H   0  0  0  0  0  0  0  0  0  0  0  0
   65.7664   33.3097   49.4741 H   0  0  0  0  0  0  0  0  0  0  0  0
   65.3396   31.8624   51.2791 H   0  0  0  0  0  0  0  0  0  0  0  0
   64.0035   33.1134   51.3098 H   0  0  0  0  0  0  0  0  0  0  0  0
   63.7790   30.2520   50.2851 H   0  0  0  0  0  0  0  0  0  0  0  0
   63.1039   30.9267   51.8299 H   0  0  0  0  0  0  0  0  0  0  0  0
   61.3240   31.4110   50.7200 H   0  0  0  0  0  0  0  0  0  0  0  0
   62.2080   32.5660   49.8240 H   0  0  0  0  0  0  0  0  0  0  0  0
   61.6717   31.4407   48.0357 H   0  0  0  0  0  0  0  0  0  0  0  0
   62.8538   30.2075   48.6508 H   0  0  0  0  0  0  0  0  0  0  0  0
   61.1239   28.8285   48.5018 H   0  0  0  0  0  0  0  0  0  0  0  0
   59.5198   29.9452   47.2961 H   0  0  0  0  0  0  0  0  0  0  0  0
   58.6529   29.6209   48.8770 H   0  0  0  0  0  0  0  0  0  0  0  0
   57.8970   30.7086   46.3592 H   0  0  0  0  0  0  0  0  0  0  0  0
   57.8057   34.3885   44.1226 H   0  0  0  0  0  0  0  0  0  0  0  0
   58.9173   35.5707   45.9966 H   0  0  0  0  0  0  0  0  0  0  0  0
   60.4414   35.3497   47.8516 H   0  0  0  0  0  0  0  0  0  0  0  0
   58.8552   35.2123   48.8022 H   0  0  0  0  0  0  0  0  0  0  0  0
   61.1390   33.2646   49.0803 H   0  0  0  0  0  0  0  0  0  0  0  0
   60.9316   34.7284   50.1070 H   0  0  0  0  0  0  0  0  0  0  0  0
   59.5136   34.6283   52.0080 H   0  0  0  0  0  0  0  0  0  0  0  0
   57.7886   33.3980   53.3378 H   0  0  0  0  0  0  0  0  0  0  0  0
   56.6073   31.2574   53.6438 H   0  0  0  0  0  0  0  0  0  0  0  0
   55.4530   31.5512   52.2992 H   0  0  0  0  0  0  0  0  0  0  0  0
   56.4746   30.0737   52.2992 H   0  0  0  0  0  0  0  0  0  0  0  0
  1  2  1  0
  2  3  1  0
  3  4  1  0
  4  5  1  0
  5  6  1  0
  6  7  1  0
  7  8  1  0
  8  9  1  0
  8 10  1  0
 10 11  1  0
 11 12  1  0
 12 13  2  0
 13 14  1  0
 14 15  1  0
 14 16  2  0
 16 17  1  0
 17 18  2  0
 18 19  1  0
 19 20  1  0
 20 21  1  0
 21 22  2  0
 22 23  1  0
 23 24  2  0
 24 25  1  0
 24 26  1  0
 26 27  2  0
 27 11  1  0
 18 12  1  0
 27 21  1  0
  1 28  1  0
  1 29  1  0
  1 30  1  0
  3 31  1  0
  3 32  1  0
  4 33  1  0
  4 34  1  0
  5 35  1  0
  5 36  1  0
  6 37  1  0
  6 38  1  0
  7 39  1  0
  7 40  1  0
  8 41  1  6
 10 42  1  0
 10 43  1  0
 13 44  1  0
 16 45  1  0
 17 46  1  0
 19 47  1  0
 19 48  1  0
 20 49  1  0
 20 50  1  0
 22 51  1  0
 23 52  1  0
 25 53  1  0
 25 54  1  0
 25 55  1  0
M  CHG  1   6   1
M  END
>  <UniqueID>  (14) 
14

>  <SMILES>  (14) 
CSCCC[NH2+]C[C@@H](F)CN1c2cc(F)ccc2CCc2ccc(C)nc21

>  <Energy>  (14) 
66.7886195154861

>  <Genealogy>  (14) 
CSCCC[NH2+]CC(F)CN1c2cc(F)ccc2CCc2ccc(C)nc21 (protonated)
CSCCC[NH2+]C[C@@H](F)CN1c2cc(F)ccc2CCc2ccc(C)nc21 (chirality)
CSCCC[NH2+]C[C@@H](F)CN1c2cc(F)ccc2CCc2ccc(C)nc21 (3D coordinates assigned)
CSCCC[NH2+]C[C@@H](F)CN1c2cc(F)ccc2CCc2ccc(C)nc21 (nonaromatic ring conformer: 66.7886195154861 kcal/mol)

>  <smiles>  (14) 
CSCCCNCC(F)CN1c2cc(F)ccc2CCc2ccc(C)nc21

>  <score_type>  (14) 
oracle

>  <origin>  (14) 
adg

>  <m_score__min__energy>  (14) 
-4.5099999999999998

>  <m_primary>  (14) 
energy

$$$$
14:0
     RDKit          3D

 58 61  0  0  0  0  0  0  0  0999 V2000
   57.3370   34.4280   44.8690 C   0  0  0  0  0  0  0  0  0  0  0  0
   58.7440   34.4380   45.0950 O   0  0  0  0  0  0  0  0  0  0  0  0
   59.3500   34.1640   46.3300 C   0  0  0  0  0  0  0  0  0  0  0  0
   59.0640   34.9020   47.4910 C   0  0  0  0  0  0  0  0  0  0  0  0
   59.6930   34.5910   48.6960 C   0  0  0  0  0  0  0  0  0  0  0  0
   60.6140   33.5350   48.7700 C   0  0  0  0  0  0  0  0  0  0  0  0
   61.2900   33.2440   50.0900 C   0  0  0  0  0  0  0  0  0  0  0  0
   60.4380   32.3790   50.9370 N   0  0  0  0  0  0  0  0  0  0  0  0
   61.1890   31.2860   51.5880 C   0  0  0  0  0  0  0  0  0  0  0  0
   61.5960   30.1700   50.6000 C   0  0  0  0  0  0  0  0  0  0  0  0
   60.6570   30.0180   49.4580 N   0  0  0  0  0  0  0  0  0  0  0  0
   60.7050   28.6280   48.9450 C   0  0  0  0  0  0  0  0  0  0  0  0
   59.9280   28.4690   47.6580 C   0  0  0  0  0  0  0  0  0  0  0  0
   59.4720   29.6160   46.9600 C   0  0  0  0  0  0  0  0  0  0  0  0
   58.7290   29.4880   45.7740 C   0  0  0  0  0  0  0  0  0  0  0  0
   58.1130   31.0420   44.8440 Br  0  0  0  0  0  0  0  0  0  0  0  0
   58.4580   28.2010   45.3100 C   0  0  0  0  0  0  0  0  0  0  0  0
   57.7610   27.7680   44.1990 C   0  0  0  0  0  0  0  0  0  0  0  0
   57.8110   26.3800   44.2470 C   0  0  0  0  0  0  0  0  0  0  0  0
   58.5060   25.9680   45.3340 N   0  0  0  0  0  0  0  0  0  0  0  0
   58.7630   24.5860   45.7260 C   0  0  0  0  0  0  0  0  0  0  0  0
   58.8970   27.0850   45.9770 C   0  0  0  0  0  0  0  0  0  0  0  0
   59.6350   27.1810   47.1580 C   0  0  0  0  0  0  0  0  0  0  0  0
   59.2850   30.3990   49.8500 C   0  0  0  0  0  0  0  0  0  0  0  0
   59.2220   31.8920   50.2370 C   0  0  0  0  0  0  0  0  0  0  0  0
   60.9160   32.7910   47.6090 C   0  0  0  0  0  0  0  0  0  0  0  0
   61.8550   31.7490   47.6900 O   0  0  0  0  0  0  0  0  0  0  0  0
   63.2540   31.9000   47.4770 C   0  0  0  0  0  0  0  0  0  0  0  0
   60.2730   33.1150   46.3980 C   0  0  0  0  0  0  0  0  0  0  0  0
   56.8105   34.4243   45.8348 H   0  0  0  0  0  0  0  0  0  0  0  0
   57.0508   35.3241   44.2989 H   0  0  0  0  0  0  0  0  0  0  0  0
   57.0636   33.5279   44.2989 H   0  0  0  0  0  0  0  0  0  0  0  0
   58.3402   35.7293   47.4491 H   0  0  0  0  0  0  0  0  0  0  0  0
   59.4650   35.1791   49.5972 H   0  0  0  0  0  0  0  0  0  0  0  0
   62.2463   32.7343   49.9009 H   0  0  0  0  0  0  0  0  0  0  0  0
   61.4607   34.1948   50.6161 H   0  0  0  0  0  0  0  0  0  0  0  0
   62.1001   31.7055   52.0395 H   0  0  0  0  0  0  0  0  0  0  0  0
   60.5299   30.8353   52.3446 H   0  0  0  0  0  0  0  0  0  0  0  0
   62.5940   30.4048   50.2013 H   0  0  0  0  0  0  0  0  0  0  0  0
   61.5823   29.2225   51.1586 H   0  0  0  0  0  0  0  0  0  0  0  0
   60.9700   30.6570   48.6890 H   0  0  0  0  0  0  0  0  0  0  0  0
   61.7544   28.3537   48.7618 H   0  0  0  0  0  0  0  0  0  0  0  0
   60.2468   27.9725   49.7002 H   0  0  0  0  0  0  0  0  0  0  0  0
   59.7025   30.6178   47.3515 H   0  0  0  0  0  0  0  0  0  0  0  0
   57.2698   28.3906   43.4367 H   0  0  0  0  0  0  0  0  0  0  0  0
   57.3506   25.7099   43.5060 H   0  0  0  0  0  0  0  0  0  0  0  0
   58.7766   24.5127   46.8235 H   0  0  0  0  0  0  0  0  0  0  0  0
   57.9700   23.9376   45.3250 H   0  0  0  0  0  0  0  0  0  0  0  0
   59.7360   24.2660   45.3250 H   0  0  0  0  0  0  0  0  0  0  0  0
   59.9788   26.2785   47.6846 H   0  0  0  0  0  0  0  0  0  0  0  0
   58.6043   30.2160   49.0055 H   0  0  0  0  0  0  0  0  0  0  0  0
   58.9856   29.7956   50.7197 H   0  0  0  0  0  0  0  0  0  0  0  0
   59.0894   32.4834   49.3191 H   0  0  0  0  0  0  0  0  0  0  0  0
   58.3806   32.0077   50.9360 H   0  0  0  0  0  0  0  0  0  0  0  0
   63.7688   31.9556   48.4475 H   0  0  0  0  0  0  0  0  0  0  0  0
   63.6337   31.0376   46.9094 H   0  0  0  0  0  0  0  0  0  0  0  0
   63.4409   32.8235   46.9094 H   0  0  0  0  0  0  0  0  0  0  0  0
   60.5003   32.5341   45.4919 H   0  0  0  0  0  0  0  0  0  0  0  0
  1  2  1  0
  2  3  1  0
  3  4  2  0
  4  5  1  0
  5  6  2  0
  6  7  1  0
  7  8  1  0
  8  9  1  0
  9 10  1  0
 10 11  1  0
 11 12  1  0
 12 13  1  0
 13 14  2  0
 14 15  1  0
 15 16  1  0
 15 17  2  0
 17 18  1  0
 18 19  2  0
 19 20  1  0
 20 21  1  0
 20 22  1  0
 22 23  2  0
 11 24  1  0
 24 25  1  0
  6 26  1  0
 26 27  1  0
 27 28  1  0
 26 29  2  0
 29  3  1  0
 25  8  1  0
 23 13  1  0
 22 17  1  0
  1 30  1  0
  1 31  1  0
  1 32  1  0
  4 33  1  0
  5 34  1  0
  7 35  1  0
  7 36  1  0
  9 37  1  0
  9 38  1  0
 10 39  1  0
 10 40  1  0
 11 41  1  0
 12 42  1  0
 12 43  1  0
 14 44  1  0
 18 45  1  0
 19 46  1  0
 21 47  1  0
 21 48  1  0
 21 49  1  0
 23 50  1  0
 24 51  1  0
 24 52  1  0
 25 53  1  0
 25 54  1  0
 28 55  1  0
 28 56  1  0
 28 57  1  0
 29 58  1  0
M  CHG  1  11   1
M  END
>  <UniqueID>  (15) 
15

>  <SMILES>  (15) 
COc1ccc(CN2CC[NH+](Cc3cc(Br)c4ccn(C)c4c3)CC2)c(OC)c1

>  <Energy>  (15) 
106.13781166614437

>  <Genealogy>  (15) 
COc1ccc(CN2CC[NH+](Cc3cc(Br)c4ccn(C)c4c3)CC2)c(OC)c1 (protonated)
COc1ccc(CN2CC[NH+](Cc3cc(Br)c4ccn(C)c4c3)CC2)c(OC)c1 (3D coordinates assigned)
COc1ccc(CN2CC[NH+](Cc3cc(Br)c4ccn(C)c4c3)CC2)c(OC)c1 (nonaromatic ring conformer: 106.13781166614437 kcal/mol)

>  <smiles>  (15) 
COc1ccc(CN2CCN(Cc3cc(Br)c4ccn(C)c4c3)CC2)c(OC)c1

>  <score_type>  (15) 
oracle

>  <origin>  (15) 
adg

>  <m_score__min__energy>  (15) 
-7.4000000000000004

>  <m_primary>  (15) 
energy

$$$$
15:0
     RDKit          3D

 54 57  0  0  0  0  0  0  0  0999 V2000
   56.8413   20.8500   42.7185 H   0  0  0  0  0  0  0  0  0  0  0  0
   56.9720   21.7880   43.2780 C   0  0  0  0  0  0  0  0  0  0  0  0
   56.1550   22.8860   43.0000 C   0  0  0  0  0  0  0  0  0  0  0  0
   55.3845   22.8133   42.2183 H   0  0  0  0  0  0  0  0  0  0  0  0
   56.3150   24.0780   43.7140 C   0  0  0  0  0  0  0  0  0  0  0  0
   55.6743   24.9430   43.4876 H   0  0  0  0  0  0  0  0  0  0  0  0
   57.2920   24.1740   44.7200 C   0  0  0  0  0  0  0  0  0  0  0  0
   57.4900   25.4670   45.4640 C   0  0  0  0  0  0  0  0  0  0  0  0
   57.9591   26.2016   44.7930 H   0  0  0  0  0  0  0  0  0  0  0  0
   58.1355   25.2791   46.3347 H   0  0  0  0  0  0  0  0  0  0  0  0
   56.1490   26.0190   45.9550 C   0  0  0  0  0  0  0  0  0  0  0  0
   56.0929   25.9078   47.0479 H   0  0  0  0  0  0  0  0  0  0  0  0
   55.3393   25.4560   45.4677 H   0  0  0  0  0  0  0  0  0  0  0  0
   56.0050   27.4350   45.6100 N   0  0  0  0  0  0  0  0  0  0  0  0
   55.1450   27.7380   45.1020 H   0  0  0  0  0  0  0  0  0  0  0  0
   57.0390   28.3880   45.9260 C   0  0  0  0  0  0  0  0  0  0  0  0
   57.9400   28.0750   46.8900 N   0  0  0  0  0  0  0  0  0  0  0  0
   58.9460   28.9020   47.2510 C   0  0  0  0  0  0  0  0  0  0  0  0
   59.8020   28.5180   48.2830 C   0  0  0  0  0  0  0  0  0  0  0  0
   59.6861   27.5317   48.7560 H   0  0  0  0  0  0  0  0  0  0  0  0
   60.8010   29.3820   48.7130 C   0  0  0  0  0  0  0  0  0  0  0  0
   61.4964   29.0770   49.5088 H   0  0  0  0  0  0  0  0  0  0  0  0
   60.9110   30.6370   48.1250 C   0  0  0  0  0  0  0  0  0  0  0  0
   61.6813   31.3392   48.4766 H   0  0  0  0  0  0  0  0  0  0  0  0
   60.0720   31.0030   47.1170 N   0  0  0  0  0  0  0  0  0  0  0  0
   60.1590   31.9850   46.8120 H   0  0  0  0  0  0  0  0  0  0  0  0
   59.1210   30.1530   46.6100 C   0  0  0  0  0  0  0  0  0  0  0  0
   58.2580   30.4730   45.5080 C   0  0  0  0  0  0  0  0  0  0  0  0
   58.4520   31.4520   44.6550 N   0  0  0  0  0  0  0  0  0  0  0  0
   57.8550   32.7680   44.4060 C   0  0  1  0  0  0  0  0  0  0  0  0
   57.2976   32.7439   43.4580 H   0  0  0  0  0  0  0  0  0  0  0  0
   56.8380   33.1540   45.5220 C   0  0  0  0  0  0  0  0  0  0  0  0
   56.6079   32.2550   46.1127 H   0  0  0  0  0  0  0  0  0  0  0  0
   55.9439   33.5597   45.0261 H   0  0  0  0  0  0  0  0  0  0  0  0
   57.3480   34.1950   46.4310 N   0  0  0  0  0  0  0  0  0  0  0  0
   56.7290   34.2190   47.2750 H   0  0  0  0  0  0  0  0  0  0  0  0
   58.7090   33.8760   46.8720 C   0  0  0  0  0  0  0  0  0  0  0  0
   58.7272   32.8539   47.2781 H   0  0  0  0  0  0  0  0  0  0  0  0
   59.0096   34.5982   47.6454 H   0  0  0  0  0  0  0  0  0  0  0  0
   59.6950   33.9700   45.6960 C   0  0  0  0  0  0  0  0  0  0  0  0
   60.4528   33.1801   45.8047 H   0  0  0  0  0  0  0  0  0  0  0  0
   60.1537   34.9695   45.7181 H   0  0  0  0  0  0  0  0  0  0  0  0
   58.9940   33.8010   44.3370 C   0  0  0  0  0  0  0  0  0  0  0  0
   59.7333   33.4668   43.5941 H   0  0  0  0  0  0  0  0  0  0  0  0
   58.5593   34.7709   44.0535 H   0  0  0  0  0  0  0  0  0  0  0  0
   57.1550   29.6170   45.2380 C   0  0  0  0  0  0  0  0  0  0  0  0
   56.1440   29.9720   44.1640 C   0  0  0  0  0  0  0  0  0  0  0  0
   55.2069   30.3010   44.6369 H   0  0  0  0  0  0  0  0  0  0  0  0
   56.5436   30.7836   43.5382 H   0  0  0  0  0  0  0  0  0  0  0  0
   55.9485   29.0888   43.5382 H   0  0  0  0  0  0  0  0  0  0  0  0
   58.1190   23.0700   44.9830 C   0  0  0  0  0  0  0  0  0  0  0  0
   58.8987   23.1412   45.7557 H   0  0  0  0  0  0  0  0  0  0  0  0
   57.9550   21.8800   44.2660 C   0  0  0  0  0  0  0  0  0  0  0  0
   58.6009   21.0158   44.4805 H   0  0  0  0  0  0  0  0  0  0  0  0
  1  2  1  0
  2  3  2  0
  3  4  1  0
  3  5  1  0
  5  6  1  0
  5  7  2  0
  7  8  1  0
  8  9  1  0
  8 10  1  0
  8 11  1  0
 11 12  1  0
 11 13  1  0
 11 14  1  0
 14 15  1  0
 14 16  1  0
 16 17  1  0
 17 18  1  0
 18 19  2  0
 19 20  1  0
 19 21  1  0
 21 22  1  0
 21 23  2  0
 23 24  1  0
 23 25  1  0
 25 26  1  0
 25 27  2  0
 27 28  1  0
 28 29  2  0
 29 30  1  0
 30 31  1  6
 30 32  1  0
 32 33  1  0
 32 34  1  0
 32 35  1  0
 35 36  1  0
 35 37  1  0
 37 38  1  0
 37 39  1  0
 37 40  1  0
 40 41  1  0
 40 42  1  0
 40 43  1  0
 43 44  1  0
 43 45  1  0
 28 46  1  0
 46 47  1  0
 47 48  1  0
 47 49  1  0
 47 50  1  0
  7 51  1  0
 51 52  1  0
 51 53  2  0
 53 54  1  0
 53  2  1  0
 46 16  2  0
 27 18  1  0
 43 30  1  0
M  CHG  2  17  -1  25   1
M  END
>  <UniqueID>  (16) 
16

>  <SMILES>  (16) 
Cc1c(NCCc2ccccc2)[n-]c2ccc[nH+]c2/c1=N\[C@@H]1CCCNC1

>  <Energy>  (16) 
80.8073146683325

>  <Genealogy>  (16) 
Cc1c(NCCc2ccccc2)[n-]c2ccc[nH+]c2c1=NC1CCCNC1 (protonated)
Cc1c(NCCc2ccccc2)[n-]c2ccc[nH+]c2c1=N[C@@H]1CCCNC1 (chirality)
Cc1c(NCCc2ccccc2)[n-]c2ccc[nH+]c2/c1=N\[C@@H]1CCCNC1 (cis-trans isomerization)
Cc1c(NCCc2ccccc2)[n-]c2ccc[nH+]c2/c1=N\[C@@H]1CCCNC1 (3D coordinates assigned)
Cc1c(NCCc2ccccc2)[n-]c2ccc[nH+]c2/c1=N\[C@@H]1CCCNC1 (nonaromatic ring conformer: 80.8073146683325 kcal/mol)

>  <smiles>  (16) 
Cc1c(NCCc2ccccc2)[nH]c2cccnc2c1=NC1CCCNC1

>  <score_type>  (16) 
oracle

>  <origin>  (16) 
adg

>  <m_score__min__energy>  (16) 
-8.7400000000000002

>  <m_primary>  (16) 
energy

$$$$
16:0
     RDKit          3D

 40 41  0  0  0  0  0  0  0  0999 V2000
   59.2550   34.8960   44.8940 C   0  0  0  0  0  0  0  0  0  0  0  0
   58.8590   34.0060   46.0000 N   0  0  0  0  0  0  0  0  0  0  0  0
   57.3970   33.8460   45.9980 C   0  0  0  0  0  0  0  0  0  0  0  0
   59.3160   34.5420   47.3010 C   0  0  0  0  0  0  0  0  0  0  0  0
   60.5870   33.8330   47.7830 C   0  0  0  0  0  0  0  0  0  0  0  0
   61.0520   32.8700   46.7690 N   0  0  0  0  0  0  0  0  0  0  0  0
   61.1300   31.4910   47.2790 C   0  0  0  0  0  0  0  0  0  0  0  0
   59.9480   30.6570   46.8440 C   0  0  0  0  0  0  0  0  0  0  0  0
   59.8240   29.3320   47.2830 C   0  0  0  0  0  0  0  0  0  0  0  0
   58.7380   28.5660   46.8630 C   0  0  0  0  0  0  0  0  0  0  0  0
   57.7660   29.1220   46.0260 C   0  0  0  0  0  0  0  0  0  0  0  0
   56.6760   28.2980   45.5810 N   0  0  0  0  0  0  0  0  0  0  0  0
   56.6340   26.9980   45.5670 C   0  0  0  0  0  0  0  0  0  0  0  0
   55.5320   26.3200   45.9980 N   0  0  0  0  0  0  0  0  0  0  0  0
   55.5020   24.9610   46.0050 C   0  0  0  0  0  0  0  0  0  0  0  0
   56.6150   24.2390   45.5750 C   0  0  0  0  0  0  0  0  0  0  0  0
   56.6010   22.3300   45.5760 Br  0  0  0  0  0  0  0  0  0  0  0  0
   57.7390   24.9450   45.1490 C   0  0  0  0  0  0  0  0  0  0  0  0
   57.7280   26.3040   45.1560 N   0  0  0  0  0  0  0  0  0  0  0  0
   57.9400   30.4450   45.5810 C   0  0  0  0  0  0  0  0  0  0  0  0
   59.0080   31.1770   46.0020 N   0  0  0  0  0  0  0  0  0  0  0  0
   59.6699   35.8285   45.3043 H   0  0  0  0  0  0  0  0  0  0  0  0
   60.0159   34.3968   44.2761 H   0  0  0  0  0  0  0  0  0  0  0  0
   58.3747   35.1270   44.2761 H   0  0  0  0  0  0  0  0  0  0  0  0
   57.0311   33.8060   47.0346 H   0  0  0  0  0  0  0  0  0  0  0  0
   56.9355   34.6990   45.4790 H   0  0  0  0  0  0  0  0  0  0  0  0
   57.1309   32.9134   45.4790 H   0  0  0  0  0  0  0  0  0  0  0  0
   59.5251   35.6164   47.1918 H   0  0  0  0  0  0  0  0  0  0  0  0
   58.5223   34.3721   48.0434 H   0  0  0  0  0  0  0  0  0  0  0  0
   61.3740   34.5806   47.9612 H   0  0  0  0  0  0  0  0  0  0  0  0
   60.3633   33.2917   48.7141 H   0  0  0  0  0  0  0  0  0  0  0  0
   60.4100   32.8980   45.9420 H   0  0  0  0  0  0  0  0  0  0  0  0
   62.0517   31.0245   46.9009 H   0  0  0  0  0  0  0  0  0  0  0  0
   61.1273   31.5355   48.3781 H   0  0  0  0  0  0  0  0  0  0  0  0
   60.5794   28.8990   47.9552 H   0  0  0  0  0  0  0  0  0  0  0  0
   58.6453   27.5202   47.1913 H   0  0  0  0  0  0  0  0  0  0  0  0
   54.6013   24.4316   46.3493 H   0  0  0  0  0  0  0  0  0  0  0  0
   58.6333   24.4031   44.8077 H   0  0  0  0  0  0  0  0  0  0  0  0
   57.2096   30.8904   44.8895 H   0  0  0  0  0  0  0  0  0  0  0  0
   59.1040   32.1590   45.6560 H   0  0  0  0  0  0  0  0  0  0  0  0
  1  2  1  0
  2  3  1  0
  2  4  1  0
  4  5  1  0
  5  6  1  0
  6  7  1  0
  7  8  1  0
  8  9  2  0
  9 10  1  0
 10 11  2  0
 11 12  1  0
 12 13  2  3
 13 14  1  0
 14 15  2  0
 15 16  1  0
 16 17  1  0
 16 18  2  0
 18 19  1  0
 11 20  1  0
 20 21  2  0
 21  8  1  0
 19 13  1  0
  1 22  1  0
  1 23  1  0
  1 24  1  0
  3 25  1  0
  3 26  1  0
  3 27  1  0
  4 28  1  0
  4 29  1  0
  5 30  1  0
  5 31  1  0
  6 32  1  0
  7 33  1  0
  7 34  1  0
  9 35  1  0
 10 36  1  0
 15 37  1  0
 18 38  1  0
 20 39  1  0
 21 40  1  0
M  CHG  2  19  -1  21   1
M  END
>  <UniqueID>  (17) 
17

>  <SMILES>  (17) 
CN(C)CCNCc1ccc(N=c2ncc(Br)c[n-]2)c[nH+]1

>  <Energy>  (17) 
47.01358679445168

>  <Genealogy>  (17) 
CN(C)CCNCc1ccc(N=c2ncc(Br)c[n-]2)c[nH+]1 (protonated)
CN(C)CCNCc1ccc(N=c2ncc(Br)c[n-]2)c[nH+]1 (3D coordinates assigned)
CN(C)CCNCc1ccc(N=c2ncc(Br)c[n-]2)c[nH+]1 (optimized conformer: 47.01358679445168 kcal/mol)

>  <smiles>  (17) 
CN(C)CCNCc1ccc(N=c2ncc(Br)c[nH]2)cn1

>  <score_type>  (17) 
oracle

>  <origin>  (17) 
adg

>  <m_score__min__energy>  (17) 
-5.8499999999999996

>  <m_primary>  (17) 
energy

$$$$
17:0
     RDKit          3D

 36 37  0  0  0  0  0  0  0  0999 V2000
   58.1350   34.2650   44.9400 C   0  0  0  0  0  0  0  0  0  0  0  0
   57.4150   33.4060   46.3730 S   0  0  0  0  0  0  0  0  0  0  0  0
   57.5610   31.7800   45.6190 C   0  0  0  0  0  0  0  0  0  0  0  0
   56.7010   31.4650   44.6120 N   0  0  0  0  0  0  0  0  0  0  0  0
   56.7590   30.2770   43.9560 C   0  0  0  0  0  0  0  0  0  0  0  0
   57.7240   29.3360   44.3030 C   0  0  0  0  0  0  0  0  0  0  0  0
   58.6210   29.6240   45.3320 C   0  0  0  0  0  0  0  0  0  0  0  0
   58.5540   30.8520   46.0120 C   0  0  0  0  0  0  0  0  0  0  0  0
   59.4950   31.1350   47.1280 C   0  0  0  0  0  0  0  0  0  0  0  0
   59.1130   30.9090   48.3070 O   0  0  0  0  0  0  0  0  0  0  0  0
   60.8300   31.6520   46.8740 N   0  0  0  0  0  0  0  0  0  0  0  0
   60.8710   33.1200   46.6690 C   0  0  0  0  0  0  0  0  0  0  0  0
   61.3400   33.9600   47.8700 C   0  0  0  0  0  0  0  0  0  0  0  0
   62.8630   34.0590   48.0040 C   0  0  0  0  0  0  0  0  0  0  0  0
   63.5900   33.0310   47.1300 C   0  0  0  0  0  0  0  0  0  0  0  0
   63.3290   31.5520   47.4820 C   0  0  0  0  0  0  0  0  0  0  0  0
   61.8740   31.1420   47.7970 C   0  0  0  0  0  0  0  0  0  0  0  0
   58.8049   35.0642   45.2901 H   0  0  0  0  0  0  0  0  0  0  0  0
   58.7061   33.5482   44.3317 H   0  0  0  0  0  0  0  0  0  0  0  0
   57.3294   34.7020   44.3317 H   0  0  0  0  0  0  0  0  0  0  0  0
   56.0429   30.0585   43.1501 H   0  0  0  0  0  0  0  0  0  0  0  0
   57.7789   28.3747   43.7712 H   0  0  0  0  0  0  0  0  0  0  0  0
   59.3858   28.8849   45.6129 H   0  0  0  0  0  0  0  0  0  0  0  0
   61.1120   31.2810   45.9350 H   0  0  0  0  0  0  0  0  0  0  0  0
   61.5533   33.3230   45.8304 H   0  0  0  0  0  0  0  0  0  0  0  0
   59.8288   33.4215   46.4874 H   0  0  0  0  0  0  0  0  0  0  0  0
   60.9356   34.9770   47.7599 H   0  0  0  0  0  0  0  0  0  0  0  0
   60.9729   33.4541   48.7752 H   0  0  0  0  0  0  0  0  0  0  0  0
   63.1802   35.0680   47.7020 H   0  0  0  0  0  0  0  0  0  0  0  0
   63.1234   33.8542   49.0529 H   0  0  0  0  0  0  0  0  0  0  0  0
   63.2765   33.1911   46.0878 H   0  0  0  0  0  0  0  0  0  0  0  0
   64.6638   33.1959   47.3023 H   0  0  0  0  0  0  0  0  0  0  0  0
   63.6651   30.9455   46.6281 H   0  0  0  0  0  0  0  0  0  0  0  0
   63.8774   31.3856   48.4209 H   0  0  0  0  0  0  0  0  0  0  0  0
   61.8254   30.0432   47.7827 H   0  0  0  0  0  0  0  0  0  0  0  0
   61.6476   31.5955   48.7733 H   0  0  0  0  0  0  0  0  0  0  0  0
  1  2  1  0
  2  3  1  0
  3  4  2  0
  4  5  1  0
  5  6  2  0
  6  7  1  0
  7  8  2  0
  8  9  1  0
  9 10  2  0
  9 11  1  0
 11 12  1  0
 12 13  1  0
 13 14  1  0
 14 15  1  0
 15 16  1  0
 16 17  1  0
  8  3  1  0
 17 11  1  0
  1 18  1  0
  1 19  1  0
  1 20  1  0
  5 21  1  0
  6 22  1  0
  7 23  1  0
 11 24  1  0
 12 25  1  0
 12 26  1  0
 13 27  1  0
 13 28  1  0
 14 29  1  0
 14 30  1  0
 15 31  1  0
 15 32  1  0
 16 33  1  0
 16 34  1  0
 17 35  1  0
 17 36  1  0
M  CHG  1  11   1
M  END
>  <UniqueID>  (18) 
18

>  <SMILES>  (18) 
CSc1ncccc1C(=O)[NH+]1CCCCCC1

>  <Energy>  (18) 
51.46286597911531

>  <Genealogy>  (18) 
CSc1ncccc1C(=O)[NH+]1CCCCCC1 (protonated)
CSc1ncccc1C(=O)[NH+]1CCCCCC1 (3D coordinates assigned)
CSc1ncccc1C(=O)[NH+]1CCCCCC1 (nonaromatic ring conformer: 51.46286597911531 kcal/mol)

>  <smiles>  (18) 
CSc1ncccc1C(=O)N1CCCCCC1

>  <score_type>  (18) 
oracle

>  <origin>  (18) 
adg

>  <m_score__min__energy>  (18) 
-2.8199999999999998

>  <m_primary>  (18) 
energy

$$$$
18:0
     RDKit          3D

 33 35  0  0  0  0  0  0  0  0999 V2000
   54.8180   30.4510   44.1270 O   0  0  0  0  0  0  0  0  0  0  0  0
   56.2160   29.9020   44.1790 S   0  0  0  0  0  0  0  0  0  0  0  0
   56.6310   29.4820   42.7970 O   0  0  0  0  0  0  0  0  0  0  0  0
   56.2470   28.5240   45.2300 N   0  0  0  0  0  0  0  0  0  0  0  0
   57.4340   27.8640   45.6930 C   0  0  0  0  0  0  0  0  0  0  0  0
   58.6480   28.1380   45.0510 C   0  0  0  0  0  0  0  0  0  0  0  0
   59.8270   27.5100   45.4660 C   0  0  0  0  0  0  0  0  0  0  0  0
   59.8000   26.6010   46.5270 C   0  0  0  0  0  0  0  0  0  0  0  0
   60.9420   25.9920   46.9280 F   0  0  0  0  0  0  0  0  0  0  0  0
   58.5940   26.3240   47.1770 C   0  0  0  0  0  0  0  0  0  0  0  0
   57.4140   26.9510   46.7650 C   0  0  0  0  0  0  0  0  0  0  0  0
   57.2920   31.1440   44.7880 C   0  0  0  0  0  0  0  0  0  0  0  0
   57.5940   32.3380   44.1550 C   0  0  0  0  0  0  0  0  0  0  0  0
   58.5060   33.1240   44.8700 C   0  0  0  0  0  0  0  0  0  0  0  0
   58.9240   32.5460   46.0730 C   0  0  0  0  0  0  0  0  0  0  0  0
   59.8840   33.1220   47.0500 C   0  0  0  0  0  0  0  0  0  0  0  0
   61.2670   33.1400   46.7860 C   0  0  0  0  0  0  0  0  0  0  0  0
   62.1610   33.6840   47.7140 C   0  0  0  0  0  0  0  0  0  0  0  0
   61.6870   34.2170   48.9140 C   0  0  0  0  0  0  0  0  0  0  0  0
   60.3200   34.2080   49.1880 C   0  0  0  0  0  0  0  0  0  0  0  0
   59.4210   33.6670   48.2640 C   0  0  0  0  0  0  0  0  0  0  0  0
   58.1500   31.0540   46.2270 S   0  0  0  0  0  0  0  0  0  0  0  0
   58.6746   28.8520   44.2146 H   0  0  0  0  0  0  0  0  0  0  0  0
   60.7764   27.7319   44.9566 H   0  0  0  0  0  0  0  0  0  0  0  0
   58.5731   25.6112   48.0145 H   0  0  0  0  0  0  0  0  0  0  0  0
   56.4673   26.7304   47.2798 H   0  0  0  0  0  0  0  0  0  0  0  0
   57.1616   32.6383   43.1892 H   0  0  0  0  0  0  0  0  0  0  0  0
   58.8605   34.1042   44.5184 H   0  0  0  0  0  0  0  0  0  0  0  0
   61.6475   32.7227   45.8420 H   0  0  0  0  0  0  0  0  0  0  0  0
   63.2395   33.6918   47.4979 H   0  0  0  0  0  0  0  0  0  0  0  0
   62.3916   34.6438   49.6429 H   0  0  0  0  0  0  0  0  0  0  0  0
   59.9476   34.6278   50.1341 H   0  0  0  0  0  0  0  0  0  0  0  0
   58.3437   33.6668   48.4865 H   0  0  0  0  0  0  0  0  0  0  0  0
  1  2  2  0
  2  3  2  0
  2  4  1  0
  4  5  1  0
  5  6  2  0
  6  7  1  0
  7  8  2  0
  8  9  1  0
  8 10  1  0
 10 11  2  0
  2 12  1  0
 12 13  2  0
 13 14  1  0
 14 15  2  0
 15 16  1  0
 16 17  2  0
 17 18  1  0
 18 19  2  0
 19 20  1  0
 20 21  2  0
 15 22  1  0
 11  5  1  0
 22 12  1  0
 21 16  1  0
  6 23  1  0
  7 24  1  0
 10 25  1  0
 11 26  1  0
 13 27  1  0
 14 28  1  0
 17 29  1  0
 18 30  1  0
 19 31  1  0
 20 32  1  0
 21 33  1  0
M  CHG  1   4  -1
M  END
>  <UniqueID>  (19) 
19

>  <SMILES>  (19) 
O=S(=O)([N-]c1ccc(F)cc1)c1ccc(-c2ccccc2)s1

>  <Energy>  (19) 
67.34438433980165

>  <Genealogy>  (19) 
O=S(=O)([N-]c1ccc(F)cc1)c1ccc(-c2ccccc2)s1 (protonated)
O=S(=O)([N-]c1ccc(F)cc1)c1ccc(-c2ccccc2)s1 (3D coordinates assigned)
O=S(=O)([N-]c1ccc(F)cc1)c1ccc(-c2ccccc2)s1 (optimized conformer: 67.34438433980165 kcal/mol)

>  <smiles>  (19) 
O=S(=O)(Nc1ccc(F)cc1)c1ccc(-c2ccccc2)s1

>  <score_type>  (19) 
oracle

>  <origin>  (19) 
adg

>  <m_score__min__energy>  (19) 
-9.1099999999999994

>  <m_primary>  (19) 
energy

$$$$
19:0
     RDKit          3D

 26 27  0  0  0  0  0  0  0  0999 V2000
   58.5020   34.7475   43.8893 H   0  0  0  0  0  0  0  0  0  0  0  0
   58.3900   33.8490   44.5140 C   0  0  0  0  0  0  0  0  0  0  0  0
   57.7600   32.7130   43.9960 C   0  0  0  0  0  0  0  0  0  0  0  0
   57.3803   32.7193   42.9636 H   0  0  0  0  0  0  0  0  0  0  0  0
   57.6110   31.5670   44.7880 C   0  0  0  0  0  0  0  0  0  0  0  0
   56.8060   30.1450   44.1330 S   0  0  0  0  0  0  0  0  0  0  0  0
   55.4180   30.0660   44.7010 O   0  0  0  0  0  0  0  0  0  0  0  0
   56.7180   30.2300   42.6340 O   0  0  0  0  0  0  0  0  0  0  0  0
   57.6800   28.7100   44.5670 N   0  0  0  0  0  0  0  0  0  0  0  0
   57.1920   27.7480   45.2890 C   0  0  0  0  0  0  0  0  0  0  0  0
   55.9250   27.6690   45.6200 O   0  0  0  0  0  0  0  0  0  0  0  0
   55.7210   26.6120   46.3480 N   0  0  0  0  0  0  0  0  0  0  0  0
   54.7990   26.3330   46.7530 H   0  0  0  0  0  0  0  0  0  0  0  0
   56.8970   25.9700   46.4910 C   0  0  0  0  0  0  0  0  0  0  0  0
   57.0970   24.7490   47.3260 C   0  0  0  0  0  0  0  0  0  0  0  0
   57.0523   25.0216   48.3908 H   0  0  0  0  0  0  0  0  0  0  0  0
   56.3067   24.0176   47.1013 H   0  0  0  0  0  0  0  0  0  0  0  0
   58.0794   24.3080   47.1013 H   0  0  0  0  0  0  0  0  0  0  0  0
   57.8840   26.6740   45.8300 C   0  0  0  0  0  0  0  0  0  0  0  0
   58.9561   26.4406   45.7516 H   0  0  0  0  0  0  0  0  0  0  0  0
   58.1060   31.5620   46.1000 C   0  0  0  0  0  0  0  0  0  0  0  0
   57.9989   30.6619   46.7231 H   0  0  0  0  0  0  0  0  0  0  0  0
   58.7360   32.6990   46.6190 C   0  0  0  0  0  0  0  0  0  0  0  0
   59.2080   32.6820   47.8910 F   0  0  0  0  0  0  0  0  0  0  0  0
   58.8780   33.8450   45.8250 C   0  0  0  0  0  0  0  0  0  0  0  0
   59.6660   35.2760   46.4660 Cl  0  0  0  0  0  0  0  0  0  0  0  0
  1  2  1  0
  2  3  2  0
  3  4  1  0
  3  5  1  0
  5  6  1  0
  6  7  2  0
  6  8  2  0
  6  9  1  0
  9 10  2  0
 10 11  1  0
 11 12  1  0
 12 13  1  0
 12 14  1  0
 14 15  1  0
 15 16  1  0
 15 17  1  0
 15 18  1  0
 14 19  2  0
 19 20  1  0
  5 21  2  0
 21 22  1  0
 21 23  1  0
 23 24  1  0
 23 25  2  0
 25 26  1  0
 25  2  1  0
 19 10  1  0
M  END
>  <UniqueID>  (20) 
20

>  <SMILES>  (20) 
Cc1c/c(=N\S(=O)(=O)c2ccc(Cl)c(F)c2)o[nH]1

>  <Energy>  (20) 
60.31872557136458

>  <Genealogy>  (20) 
Cc1c/c(=N\S(=O)(=O)c2ccc(Cl)c(F)c2)o[nH]1 (cis-trans isomerization)
Cc1c/c(=N\S(=O)(=O)c2ccc(Cl)c(F)c2)o[nH]1 (3D coordinates assigned)
Cc1c/c(=N\S(=O)(=O)c2ccc(Cl)c(F)c2)o[nH]1 (optimized conformer: 60.31872557136458 kcal/mol)

>  <smiles>  (20) 
Cc1cc(=NS(=O)(=O)c2ccc(Cl)c(F)c2)o[nH]1

>  <score_type>  (20) 
oracle

>  <origin>  (20) 
adg

>  <m_score__min__energy>  (20) 
-7.9900000000000002

>  <m_primary>  (20) 
energy

$$$$
20:0
     RDKit          3D

 32 33  0  0  0  0  0  0  0  0999 V2000
   58.6580   31.9910   48.5500 C   0  0  0  0  0  0  0  0  0  0  0  0
   58.8410   32.9730   47.4730 N   0  0  0  0  0  0  0  0  0  0  0  0
   59.4360   34.2570   47.7490 C   0  0  0  0  0  0  0  0  0  0  0  0
   59.9610   34.5000   48.8690 O   0  0  0  0  0  0  0  0  0  0  0  0
   59.3750   35.3470   46.7210 C   0  0  0  0  0  0  0  0  0  0  0  0
   59.3700   34.8060   45.4010 O   0  0  0  0  0  0  0  0  0  0  0  0
   58.7530   33.5910   45.0900 C   0  0  0  0  0  0  0  0  0  0  0  0
   58.4520   33.2980   43.7580 C   0  0  0  0  0  0  0  0  0  0  0  0
   57.8280   32.0940   43.4280 C   0  0  0  0  0  0  0  0  0  0  0  0
   57.5140   31.1670   44.4270 C   0  0  0  0  0  0  0  0  0  0  0  0
   56.7070   29.6600   44.0000 S   0  0  0  0  0  0  0  0  0  0  0  0
   56.2710   29.7040   42.5610 O   0  0  0  0  0  0  0  0  0  0  0  0
   55.4860   29.5050   44.8640 O   0  0  0  0  0  0  0  0  0  0  0  0
   57.7870   28.3130   44.2600 N   0  0  0  0  0  0  0  0  0  0  0  0
   59.1420   28.8140   44.5230 C   0  0  0  0  0  0  0  0  0  0  0  0
   57.7910   27.4560   43.0680 C   0  0  0  0  0  0  0  0  0  0  0  0
   57.8240   31.4530   45.7650 C   0  0  0  0  0  0  0  0  0  0  0  0
   58.4540   32.6670   46.1100 C   0  0  0  0  0  0  0  0  0  0  0  0
   58.7516   32.4934   49.5241 H   0  0  0  0  0  0  0  0  0  0  0  0
   57.6597   31.5367   48.4662 H   0  0  0  0  0  0  0  0  0  0  0  0
   59.4256   31.2076   48.4662 H   0  0  0  0  0  0  0  0  0  0  0  0
   58.4568   35.9334   46.8728 H   0  0  0  0  0  0  0  0  0  0  0  0
   60.2636   35.9854   46.8344 H   0  0  0  0  0  0  0  0  0  0  0  0
   58.7075   34.0182   42.9668 H   0  0  0  0  0  0  0  0  0  0  0  0
   57.5824   31.8735   42.3787 H   0  0  0  0  0  0  0  0  0  0  0  0
   59.3061   28.8747   45.6090 H   0  0  0  0  0  0  0  0  0  0  0  0
   59.8789   28.1289   44.0785 H   0  0  0  0  0  0  0  0  0  0  0  0
   59.2560   29.8137   44.0785 H   0  0  0  0  0  0  0  0  0  0  0  0
   57.7959   26.3999   43.3757 H   0  0  0  0  0  0  0  0  0  0  0  0
   56.8919   27.6588   42.4676 H   0  0  0  0  0  0  0  0  0  0  0  0
   58.6882   27.6672   42.4676 H   0  0  0  0  0  0  0  0  0  0  0  0
   57.5739   30.7251   46.5509 H   0  0  0  0  0  0  0  0  0  0  0  0
  1  2  1  0
  2  3  1  0
  3  4  2  0
  3  5  1  0
  5  6  1  0
  6  7  1  0
  7  8  2  0
  8  9  1  0
  9 10  2  0
 10 11  1  0
 11 12  2  0
 11 13  2  0
 11 14  1  0
 14 15  1  0
 14 16  1  0
 10 17  1  0
 17 18  2  0
 18  2  1  0
 18  7  1  0
  1 19  1  0
  1 20  1  0
  1 21  1  0
  5 22  1  0
  5 23  1  0
  8 24  1  0
  9 25  1  0
 15 26  1  0
 15 27  1  0
 15 28  1  0
 16 29  1  0
 16 30  1  0
 16 31  1  0
 17 32  1  0
M  END
>  <UniqueID>  (21) 
21

>  <SMILES>  (21) 
CN1C(=O)COc2ccc(S(=O)(=O)N(C)C)cc21

>  <Energy>  (21) 
33.78499472781202

>  <Genealogy>  (21) 
CN1C(=O)COc2ccc(S(=O)(=O)N(C)C)cc21 (3D coordinates assigned)
CN1C(=O)COc2ccc(S(=O)(=O)N(C)C)cc21 (nonaromatic ring conformer: 33.78499472781202 kcal/mol)

>  <smiles>  (21) 
CN1C(=O)COc2ccc(S(=O)(=O)N(C)C)cc21

>  <score_type>  (21) 
oracle

>  <origin>  (21) 
adg

>  <m_score__min__energy>  (21) 
-6.7999999999999998

>  <m_primary>  (21) 
energy

$$$$
21:0
     RDKit          3D

 50 52  0  0  0  0  0  0  0  0999 V2000
   62.3930   30.2180   51.4420 C   0  0  0  0  0  0  0  0  0  0  0  0
   61.8740   30.5030   50.0640 C   0  0  0  0  0  0  0  0  0  0  0  0
   62.4710   31.4950   49.2720 C   0  0  0  0  0  0  0  0  0  0  0  0
   61.9610   31.7900   47.9990 C   0  0  0  0  0  0  0  0  0  0  0  0
   62.6350   32.8160   47.1360 C   0  0  0  0  0  0  0  0  0  0  0  0
   60.8570   31.0740   47.5120 C   0  0  0  0  0  0  0  0  0  0  0  0
   60.2380   30.0960   48.3040 C   0  0  0  0  0  0  0  0  0  0  0  0
   59.0360   29.3410   47.7840 C   0  0  0  0  0  0  0  0  0  0  0  0
   59.4020   28.0490   47.1710 N   0  0  0  0  0  0  0  0  0  0  0  0
   59.8970   28.1680   45.7800 C   0  0  0  0  0  0  0  0  0  0  0  0
   58.9010   27.6390   44.7250 C   0  0  0  0  0  0  0  0  0  0  0  0
   57.4780   27.4240   45.2620 C   0  0  0  0  0  0  0  0  0  0  0  0
   56.6020   28.5500   44.9290 N   0  0  0  0  0  0  0  0  0  0  0  0
   57.0770   29.8880   44.7080 C   0  0  0  0  0  0  0  0  0  0  0  0
   57.2170   30.4220   43.4160 C   0  0  0  0  0  0  0  0  0  0  0  0
   57.6640   31.7370   43.2520 C   0  0  0  0  0  0  0  0  0  0  0  0
   57.7850   32.2080   42.0880 O   0  0  0  0  0  0  0  0  0  0  0  0
   57.9730   32.5160   44.3820 C   0  0  0  0  0  0  0  0  0  0  0  0
   58.4210   33.8460   44.2740 C   0  0  0  0  0  0  0  0  0  0  0  0
   58.7140   34.5830   45.4250 C   0  0  0  0  0  0  0  0  0  0  0  0
   58.5660   34.0040   46.6890 C   0  0  0  0  0  0  0  0  0  0  0  0
   58.1230   32.6840   46.8090 C   0  0  0  0  0  0  0  0  0  0  0  0
   57.8260   31.9360   45.6630 C   0  0  0  0  0  0  0  0  0  0  0  0
   57.3920   30.6550   45.7860 N   0  0  0  0  0  0  0  0  0  0  0  0
   60.7470   29.8200   49.5830 C   0  0  0  0  0  0  0  0  0  0  0  0
   61.6847   30.6070   52.1883 H   0  0  0  0  0  0  0  0  0  0  0  0
   62.5052   29.1317   51.5742 H   0  0  0  0  0  0  0  0  0  0  0  0
   63.3698   30.7063   51.5742 H   0  0  0  0  0  0  0  0  0  0  0  0
   63.3447   32.0451   49.6516 H   0  0  0  0  0  0  0  0  0  0  0  0
   63.1272   33.5652   47.7735 H   0  0  0  0  0  0  0  0  0  0  0  0
   63.3866   32.3243   46.5009 H   0  0  0  0  0  0  0  0  0  0  0  0
   61.8853   33.3106   46.5009 H   0  0  0  0  0  0  0  0  0  0  0  0
   60.4742   31.2812   46.5018 H   0  0  0  0  0  0  0  0  0  0  0  0
   58.3487   29.1519   48.6217 H   0  0  0  0  0  0  0  0  0  0  0  0
   58.5643   29.9587   47.0055 H   0  0  0  0  0  0  0  0  0  0  0  0
   58.5690   27.4150   47.2110 H   0  0  0  0  0  0  0  0  0  0  0  0
   60.1430   27.5970   47.7580 H   0  0  0  0  0  0  0  0  0  0  0  0
   60.0952   29.2295   45.5705 H   0  0  0  0  0  0  0  0  0  0  0  0
   60.8052   27.5518   45.7056 H   0  0  0  0  0  0  0  0  0  0  0  0
   58.8533   28.3647   43.8997 H   0  0  0  0  0  0  0  0  0  0  0  0
   59.2717   26.6548   44.4026 H   0  0  0  0  0  0  0  0  0  0  0  0
   57.0639   26.5061   44.8193 H   0  0  0  0  0  0  0  0  0  0  0  0
   57.5317   27.3411   46.3576 H   0  0  0  0  0  0  0  0  0  0  0  0
   55.5810   28.3770   44.7830 H   0  0  0  0  0  0  0  0  0  0  0  0
   56.9757   29.8076   42.5361 H   0  0  0  0  0  0  0  0  0  0  0  0
   58.5407   34.3062   43.2821 H   0  0  0  0  0  0  0  0  0  0  0  0
   59.0624   35.6226   45.3360 H   0  0  0  0  0  0  0  0  0  0  0  0
   58.7988   34.5888   47.5911 H   0  0  0  0  0  0  0  0  0  0  0  0
   58.0074   32.2319   47.8051 H   0  0  0  0  0  0  0  0  0  0  0  0
   60.2582   29.0622   50.2129 H   0  0  0  0  0  0  0  0  0  0  0  0
  1  2  1  0
  2  3  2  0
  3  4  1  0
  4  5  1  0
  4  6  2  0
  6  7  1  0
  7  8  1  0
  8  9  1  0
  9 10  1  0
 10 11  1  0
 11 12  1  0
 12 13  1  0
 13 14  1  0
 14 15  2  0
 15 16  1  0
 16 17  2  0
 16 18  1  0
 18 19  2  0
 19 20  1  0
 20 21  2  0
 21 22  1  0
 22 23  2  0
 23 24  1  0
  7 25  2  0
 25  2  1  0
 24 14  1  0
 23 18  1  0
  1 26  1  0
  1 27  1  0
  1 28  1  0
  3 29  1  0
  5 30  1  0
  5 31  1  0
  5 32  1  0
  6 33  1  0
  8 34  1  0
  8 35  1  0
  9 36  1  0
  9 37  1  0
 10 38  1  0
 10 39  1  0
 11 40  1  0
 11 41  1  0
 12 42  1  0
 12 43  1  0
 13 44  1  0
 15 45  1  0
 19 46  1  0
 20 47  1  0
 21 48  1  0
 22 49  1  0
 25 50  1  0
M  CHG  2   9   1  24  -1
M  END
>  <UniqueID>  (22) 
22

>  <SMILES>  (22) 
Cc1cc(C)cc(C[NH2+]CCCNc2cc(=O)c3ccccc3[n-]2)c1

>  <Energy>  (22) 
52.54290010175505

>  <Genealogy>  (22) 
Cc1cc(C)cc(C[NH2+]CCCNc2cc(=O)c3ccccc3[n-]2)c1 (protonated)
Cc1cc(C)cc(C[NH2+]CCCNc2cc(=O)c3ccccc3[n-]2)c1 (3D coordinates assigned)
Cc1cc(C)cc(C[NH2+]CCCNc2cc(=O)c3ccccc3[n-]2)c1 (optimized conformer: 52.54290010175505 kcal/mol)

>  <smiles>  (22) 
Cc1cc(C)cc(CNCCCNc2cc(=O)c3ccccc3[nH]2)c1

>  <score_type>  (22) 
oracle

>  <origin>  (22) 
adg

>  <m_score__min__energy>  (22) 
-8.3399999999999999

>  <m_primary>  (22) 
energy

$$$$
22:0
     RDKit          3D

 46 47  0  0  0  0  0  0  0  0999 V2000
   60.2490   33.8930   47.7580 C   0  0  0  0  0  0  0  0  0  0  0  0
   59.2800   33.4190   46.7050 C   0  0  0  0  0  0  0  0  0  0  0  0
   58.9730   34.2720   45.6350 C   0  0  0  0  0  0  0  0  0  0  0  0
   58.0690   33.8800   44.6510 C   0  0  0  0  0  0  0  0  0  0  0  0
   57.4650   32.6270   44.7140 C   0  0  0  0  0  0  0  0  0  0  0  0
   57.7590   31.7440   45.7660 C   0  0  0  0  0  0  0  0  0  0  0  0
   57.1250   30.4550   45.8430 N   0  0  0  0  0  0  0  0  0  0  0  0
   56.5710   29.7030   44.7550 C   0  0  0  0  0  0  0  0  0  0  0  0
   55.3920   29.2640   44.8080 O   0  0  0  0  0  0  0  0  0  0  0  0
   57.3720   29.5280   43.5040 C   0  0  0  0  0  0  0  0  0  0  0  0
   58.5380   28.5490   43.7530 C   0  0  0  0  0  0  0  0  0  0  0  0
   58.1240   27.2320   44.2880 N   0  0  0  0  0  0  0  0  0  0  0  0
   58.0740   26.1640   43.2770 C   0  0  0  0  0  0  0  0  0  0  0  0
   57.2090   24.9990   43.7870 C   0  0  0  0  0  0  0  0  0  0  0  0
   57.2880   24.8110   45.3250 C   0  0  0  0  0  0  0  0  0  0  0  0
   56.1070   25.4270   46.0420 C   0  0  0  0  0  0  0  0  0  0  0  0
   55.5950   26.6930   45.6240 N   0  0  0  0  0  0  0  0  0  0  0  0
   55.5360   24.8100   46.9810 O   0  0  0  0  0  0  0  0  0  0  0  0
   58.6130   25.3570   45.8920 C   0  0  0  0  0  0  0  0  0  0  0  0
   58.8670   26.8310   45.5050 C   0  0  0  0  0  0  0  0  0  0  0  0
   58.6390   32.1550   46.7970 C   0  0  0  0  0  0  0  0  0  0  0  0
   58.9450   31.2290   47.9530 C   0  0  0  0  0  0  0  0  0  0  0  0
   59.8339   33.6900   48.7563 H   0  0  0  0  0  0  0  0  0  0  0  0
   61.2047   33.3607   47.6431 H   0  0  0  0  0  0  0  0  0  0  0  0
   60.4154   34.9742   47.6431 H   0  0  0  0  0  0  0  0  0  0  0  0
   59.4511   35.2607   45.5724 H   0  0  0  0  0  0  0  0  0  0  0  0
   57.8314   34.5622   43.8215 H   0  0  0  0  0  0  0  0  0  0  0  0
   56.7513   32.3260   43.9330 H   0  0  0  0  0  0  0  0  0  0  0  0
   56.7241   29.1277   42.7103 H   0  0  0  0  0  0  0  0  0  0  0  0
   57.7797   30.5029   43.1985 H   0  0  0  0  0  0  0  0  0  0  0  0
   59.0596   28.3846   42.7986 H   0  0  0  0  0  0  0  0  0  0  0  0
   59.1801   29.0116   44.5170 H   0  0  0  0  0  0  0  0  0  0  0  0
   57.6392   26.5615   42.3481 H   0  0  0  0  0  0  0  0  0  0  0  0
   59.0940   25.8000   43.0847 H   0  0  0  0  0  0  0  0  0  0  0  0
   56.1620   25.1933   43.5113 H   0  0  0  0  0  0  0  0  0  0  0  0
   57.5925   24.0780   43.3236 H   0  0  0  0  0  0  0  0  0  0  0  0
   57.2535   23.7270   45.5085 H   0  0  0  0  0  0  0  0  0  0  0  0
   56.0280   27.2090   44.8270 H   0  0  0  0  0  0  0  0  0  0  0  0
   54.7660   27.1090   46.1050 H   0  0  0  0  0  0  0  0  0  0  0  0
   58.5835   25.2816   46.9890 H   0  0  0  0  0  0  0  0  0  0  0  0
   59.4291   24.7566   45.4638 H   0  0  0  0  0  0  0  0  0  0  0  0
   58.5516   27.4746   46.3394 H   0  0  0  0  0  0  0  0  0  0  0  0
   59.9408   26.9417   45.2938 H   0  0  0  0  0  0  0  0  0  0  0  0
   58.7705   31.7572   48.9020 H   0  0  0  0  0  0  0  0  0  0  0  0
   58.2908   30.3464   47.8989 H   0  0  0  0  0  0  0  0  0  0  0  0
   59.9963   30.9100   47.8989 H   0  0  0  0  0  0  0  0  0  0  0  0
  1  2  1  0
  2  3  2  0
  3  4  1  0
  4  5  2  0
  5  6  1  0
  6  7  1  0
  7  8  1  0
  8  9  2  0
  8 10  1  0
 10 11  1  0
 11 12  1  0
 12 13  1  0
 13 14  1  0
 14 15  1  0
 15 16  1  0
 16 17  1  0
 16 18  2  0
 15 19  1  0
 19 20  1  0
  6 21  2  0
 21 22  1  0
 21  2  1  0
 20 12  1  0
  1 23  1  0
  1 24  1  0
  1 25  1  0
  3 26  1  0
  4 27  1  0
  5 28  1  0
 10 29  1  0
 10 30  1  0
 11 31  1  0
 11 32  1  0
 13 33  1  0
 13 34  1  0
 14 35  1  0
 14 36  1  0
 15 37  1  0
 17 38  1  0
 17 39  1  0
 19 40  1  0
 19 41  1  0
 20 42  1  0
 20 43  1  0
 22 44  1  0
 22 45  1  0
 22 46  1  0
M  CHG  1   7  -1
M  END
>  <UniqueID>  (23) 
23

>  <SMILES>  (23) 
Cc1cccc([N-]C(=O)CCN2CCC(C(N)=O)CC2)c1C

>  <Energy>  (23) 
55.870376138754935

>  <Genealogy>  (23) 
Cc1cccc([N-]C(=O)CCN2CCC(C(N)=O)CC2)c1C (protonated)
Cc1cccc([N-]C(=O)CCN2CCC(C(N)=O)CC2)c1C (3D coordinates assigned)
Cc1cccc([N-]C(=O)CCN2CCC(C(N)=O)CC2)c1C (nonaromatic ring conformer: 55.870376138754935 kcal/mol)

>  <smiles>  (23) 
Cc1cccc(NC(=O)CCN2CCC(C(N)=O)CC2)c1C

>  <score_type>  (23) 
oracle

>  <origin>  (23) 
adg

>  <m_score__min__energy>  (23) 
-10.289999999999999

>  <m_primary>  (23) 
energy

$$$$
23:0
     RDKit          3D

 48 51  0  0  0  0  0  0  0  0999 V2000
   59.4650   33.4740   50.7500 C   0  0  0  0  0  0  0  0  0  0  0  0
   59.8860   34.2020   49.6020 O   0  0  0  0  0  0  0  0  0  0  0  0
   61.0590   33.9370   48.8760 C   0  0  0  0  0  0  0  0  0  0  0  0
   62.3240   33.8880   49.4950 C   0  0  0  0  0  0  0  0  0  0  0  0
   63.4720   33.6440   48.7360 C   0  0  0  0  0  0  0  0  0  0  0  0
   63.3720   33.4480   47.3580 C   0  0  0  0  0  0  0  0  0  0  0  0
   62.1240   33.4930   46.7340 C   0  0  0  0  0  0  0  0  0  0  0  0
   60.9640   33.7290   47.4870 C   0  0  0  0  0  0  0  0  0  0  0  0
   59.6890   33.7880   46.8300 N   0  0  0  0  0  0  0  0  0  0  0  0
   58.6990   32.7380   47.0830 C   0  0  0  0  0  0  0  0  0  0  0  0
   57.4330   32.9470   46.2360 C   0  0  0  0  0  0  0  0  0  0  0  0
   57.7390   33.3050   44.8320 N   0  0  0  0  0  0  0  0  0  0  0  0
   57.7410   32.1820   43.8670 C   0  0  0  0  0  0  0  0  0  0  0  0
   57.4690   30.8280   44.5000 C   0  0  0  0  0  0  0  0  0  0  0  0
   56.1840   30.2690   44.4620 C   0  0  0  0  0  0  0  0  0  0  0  0
   55.9550   29.0400   44.9890 N   0  0  0  0  0  0  0  0  0  0  0  0
   56.9510   28.3320   45.5820 C   0  0  0  0  0  0  0  0  0  0  0  0
   56.6890   27.0240   46.1090 N   0  0  0  0  0  0  0  0  0  0  0  0
   57.5330   26.2470   46.8080 C   0  0  0  0  0  0  0  0  0  0  0  0
   56.8780   25.0730   47.1070 C   0  0  0  0  0  0  0  0  0  0  0  0
   55.6290   25.1110   46.5990 N   0  0  0  0  0  0  0  0  0  0  0  0
   55.5480   26.3150   45.9970 C   0  0  0  0  0  0  0  0  0  0  0  0
   58.1930   28.8740   45.6810 N   0  0  0  0  0  0  0  0  0  0  0  0
   58.4720   30.1010   45.1700 C   0  0  0  0  0  0  0  0  0  0  0  0
   59.6320   30.5720   45.3060 O   0  0  0  0  0  0  0  0  0  0  0  0
   58.7990   34.3230   44.6170 C   0  0  0  0  0  0  0  0  0  0  0  0
   59.3670   34.8880   45.9210 C   0  0  0  0  0  0  0  0  0  0  0  0
   59.7754   34.0107   51.6587 H   0  0  0  0  0  0  0  0  0  0  0  0
   58.3696   33.3739   50.7394 H   0  0  0  0  0  0  0  0  0  0  0  0
   59.9246   32.4747   50.7394 H   0  0  0  0  0  0  0  0  0  0  0  0
   62.4084   34.0425   50.5808 H   0  0  0  0  0  0  0  0  0  0  0  0
   64.4562   33.6064   49.2258 H   0  0  0  0  0  0  0  0  0  0  0  0
   64.2774   33.2579   46.7629 H   0  0  0  0  0  0  0  0  0  0  0  0
   62.0498   33.3427   45.6468 H   0  0  0  0  0  0  0  0  0  0  0  0
   59.1402   31.7619   46.8328 H   0  0  0  0  0  0  0  0  0  0  0  0
   58.4160   32.7768   48.1453 H   0  0  0  0  0  0  0  0  0  0  0  0
   56.8473   32.0159   46.2424 H   0  0  0  0  0  0  0  0  0  0  0  0
   56.8712   33.7832   46.6778 H   0  0  0  0  0  0  0  0  0  0  0  0
   56.9653   32.3733   43.1109 H   0  0  0  0  0  0  0  0  0  0  0  0
   58.7505   32.1352   43.4326 H   0  0  0  0  0  0  0  0  0  0  0  0
   55.3568   30.8299   44.0024 H   0  0  0  0  0  0  0  0  0  0  0  0
   58.5646   26.5031   47.0914 H   0  0  0  0  0  0  0  0  0  0  0  0
   57.3074   24.2333   47.6731 H   0  0  0  0  0  0  0  0  0  0  0  0
   54.6513   26.6779   45.4733 H   0  0  0  0  0  0  0  0  0  0  0  0
   59.6197   33.8586   44.0506 H   0  0  0  0  0  0  0  0  0  0  0  0
   58.3412   35.1606   44.0703 H   0  0  0  0  0  0  0  0  0  0  0  0
   60.2790   35.4637   45.7046 H   0  0  0  0  0  0  0  0  0  0  0  0
   58.6210   35.5456   46.3912 H   0  0  0  0  0  0  0  0  0  0  0  0
  1  2  1  0
  2  3  1  0
  3  4  2  0
  4  5  1  0
  5  6  2  0
  6  7  1  0
  7  8  2  0
  8  9  1  0
  9 10  1  0
 10 11  1  0
 11 12  1  0
 12 13  1  0
 13 14  1  0
 14 15  2  0
 15 16  1  0
 16 17  1  0
 17 18  1  0
 18 19  1  0
 19 20  2  0
 20 21  1  0
 21 22  2  0
 17 23  2  0
 23 24  1  0
 24 25  2  0
 12 26  1  0
 26 27  1  0
  8  3  1  0
 27  9  1  0
 24 14  1  0
 22 18  1  0
  1 28  1  0
  1 29  1  0
  1 30  1  0
  4 31  1  0
  5 32  1  0
  6 33  1  0
  7 34  1  0
 10 35  1  0
 10 36  1  0
 11 37  1  0
 11 38  1  0
 13 39  1  0
 13 40  1  0
 15 41  1  0
 19 42  1  0
 20 43  1  0
 22 44  1  0
 26 45  1  0
 26 46  1  0
 27 47  1  0
 27 48  1  0
M  CHG  1  16  -1
M  END
>  <UniqueID>  (24) 
24

>  <SMILES>  (24) 
COc1ccccc1N1CCN(Cc2c[n-]c(-n3ccnc3)nc2=O)CC1

>  <Energy>  (24) 
96.628600651135

>  <Genealogy>  (24) 
COc1ccccc1N1CCN(Cc2c[n-]c(-n3ccnc3)nc2=O)CC1 (protonated)
COc1ccccc1N1CCN(Cc2c[n-]c(-n3ccnc3)nc2=O)CC1 (3D coordinates assigned)
COc1ccccc1N1CCN(Cc2c[n-]c(-n3ccnc3)nc2=O)CC1 (nonaromatic ring conformer: 96.628600651135 kcal/mol)

>  <smiles>  (24) 
COc1ccccc1N1CCN(Cc2c[nH]c(-n3ccnc3)nc2=O)CC1

>  <score_type>  (24) 
oracle

>  <origin>  (24) 
adg

>  <m_score__min__energy>  (24) 
-10.23

>  <m_primary>  (24) 
energy

$$$$
24:0
     RDKit          3D

 50 52  0  0  0  0  0  0  0  0999 V2000
   62.6600   32.0510   47.7420 C   0  0  0  0  0  0  0  0  0  0  0  0
   61.5050   32.8740   47.2710 C   0  0  0  0  0  0  0  0  0  0  0  0
   61.5630   34.1350   46.8510 N   0  0  0  0  0  0  0  0  0  0  0  0
   60.3140   34.5000   46.5170 C   0  0  0  0  0  0  0  0  0  0  0  0
   59.9940   35.8670   46.0010 C   0  0  0  0  0  0  0  0  0  0  0  0
   59.4670   33.4660   46.7280 N   0  0  0  0  0  0  0  0  0  0  0  0
   58.0640   33.5430   46.4750 C   0  0  0  0  0  0  0  0  0  0  0  0
   57.7620   33.7750   44.9860 C   0  0  2  0  0  0  0  0  0  0  0  0
   56.6190   34.5860   44.8770 O   0  0  0  0  0  0  0  0  0  0  0  0
   57.5750   32.5220   44.3140 C   0  0  0  0  0  0  0  0  0  0  0  0
   57.4030   31.3740   43.7020 O   0  0  0  0  0  0  0  0  0  0  0  0
   57.3760   30.1300   44.2840 C   0  0  0  0  0  0  0  0  0  0  0  0
   58.4490   29.3110   44.4940 C   0  0  0  0  0  0  0  0  0  0  0  0
   58.2540   28.0660   45.1040 C   0  0  0  0  0  0  0  0  0  0  0  0
   59.3010   27.2020   45.3410 C   0  0  0  0  0  0  0  0  0  0  0  0
   59.0620   25.9720   45.9500 C   0  0  0  0  0  0  0  0  0  0  0  0
   57.7690   25.6030   46.3270 C   0  0  0  0  0  0  0  0  0  0  0  0
   56.7190   26.4610   46.0940 C   0  0  0  0  0  0  0  0  0  0  0  0
   56.9630   27.6840   45.4870 C   0  0  0  0  0  0  0  0  0  0  0  0
   55.9730   28.5120   45.2600 O   0  0  0  0  0  0  0  0  0  0  0  0
   56.1200   29.6840   44.6910 C   0  0  0  0  0  0  0  0  0  0  0  0
   55.1470   30.4680   44.4830 O   0  0  0  0  0  0  0  0  0  0  0  0
   60.1830   32.4000   47.2110 C   0  0  0  0  0  0  0  0  0  0  0  0
   59.7390   31.0700   47.6050 C   0  0  0  0  0  0  0  0  0  0  0  0
   59.4570   30.8600   49.0630 C   0  0  0  0  0  0  0  0  0  0  0  0
   60.5080   29.9290   46.9630 C   0  0  0  0  0  0  0  0  0  0  0  0
   62.6772   32.0388   48.8418 H   0  0  0  0  0  0  0  0  0  0  0  0
   62.5553   31.0228   47.3655 H   0  0  0  0  0  0  0  0  0  0  0  0
   63.5977   32.4857   47.3655 H   0  0  0  0  0  0  0  0  0  0  0  0
   59.8340   36.5504   46.8479 H   0  0  0  0  0  0  0  0  0  0  0  0
   60.8308   36.2326   45.3878 H   0  0  0  0  0  0  0  0  0  0  0  0
   59.0818   35.8232   45.3878 H   0  0  0  0  0  0  0  0  0  0  0  0
   57.5935   32.6001   46.7906 H   0  0  0  0  0  0  0  0  0  0  0  0
   57.6618   34.3959   47.0413 H   0  0  0  0  0  0  0  0  0  0  0  0
   58.6108   34.2838   44.5057 H   0  0  0  0  0  0  0  0  0  0  0  0
   56.2000   34.7030   45.7450 H   0  0  0  0  0  0  0  0  0  0  0  0
    0.0000    0.0000    0.0000 H   0  0  0  0  0  0  0  0  0  0  0  0
   58.0372   32.9393   43.4072 H   0  0  0  0  0  0  0  0  0  0  0  0
   59.4569   29.6268   44.1867 H   0  0  0  0  0  0  0  0  0  0  0  0
   60.3239   27.4830   45.0498 H   0  0  0  0  0  0  0  0  0  0  0  0
   59.9003   25.2845   46.1358 H   0  0  0  0  0  0  0  0  0  0  0  0
   57.5907   24.6301   46.8084 H   0  0  0  0  0  0  0  0  0  0  0  0
   55.6964   26.1799   46.3861 H   0  0  0  0  0  0  0  0  0  0  0  0
   58.7354   31.0351   47.1561 H   0  0  0  0  0  0  0  0  0  0  0  0
   60.1967   31.4108   49.6626 H   0  0  0  0  0  0  0  0  0  0  0  0
   58.4473   31.2279   49.2979 H   0  0  0  0  0  0  0  0  0  0  0  0
   59.5202   29.7872   49.2979 H   0  0  0  0  0  0  0  0  0  0  0  0
   60.9388   29.2898   47.7478 H   0  0  0  0  0  0  0  0  0  0  0  0
   59.8264   29.3333   46.3381 H   0  0  0  0  0  0  0  0  0  0  0  0
   61.3159   30.3372   46.3381 H   0  0  0  0  0  0  0  0  0  0  0  0
  1  2  1  0
  2  3  1  0
  3  4  2  0
  4  5  1  0
  4  6  1  0
  6  7  1  0
  7  8  1  0
  8  9  1  0
  8 10  1  0
 10 11  1  0
 11 12  1  0
 12 13  2  0
 13 14  1  0
 14 15  2  0
 15 16  1  0
 16 17  2  0
 17 18  1  0
 18 19  2  0
 19 20  1  0
 20 21  1  0
 21 22  2  0
  6 23  1  0
 23 24  1  0
 24 25  1  0
 24 26  1  0
 23  2  2  0
 21 12  1  0
 19 14  1  0
  1 27  1  0
  1 28  1  0
  1 29  1  0
  5 30  1  0
  5 31  1  0
  5 32  1  0
  7 33  1  0
  7 34  1  0
  8 35  1  6
  9 36  1  0
 10 37  1  0
 10 38  1  0
 13 39  1  0
 15 40  1  0
 16 41  1  0
 17 42  1  0
 18 43  1  0
 24 44  1  0
 25 45  1  0
 25 46  1  0
 25 47  1  0
 26 48  1  0
 26 49  1  0
 26 50  1  0
M  END
>  <UniqueID>  (25) 
25

>  <SMILES>  (25) 
Cc1nc(C)n(C[C@H](O)COc2cc3ccccc3oc2=O)c1C(C)C

>  <Energy>  (25) 
318.4555663027054

>  <Genealogy>  (25) 
Cc1nc(C)n(C[C@H](O)COc2cc3ccccc3oc2=O)c1C(C)C (chirality)
Cc1nc(C)n(C[C@H](O)COc2cc3ccccc3oc2=O)c1C(C)C (3D coordinates assigned)
Cc1nc(C)n(C[C@H](O)COc2cc3ccccc3oc2=O)c1C(C)C (optimized conformer: 318.4555663027054 kcal/mol)

>  <smiles>  (25) 
Cc1nc(C)n(CC(O)COc2cc3ccccc3oc2=O)c1C(C)C

>  <score_type>  (25) 
oracle

>  <origin>  (25) 
adg

>  <m_score__min__energy>  (25) 
-7.6500000000000004

>  <m_primary>  (25) 
energy

$$$$
25:0
     RDKit          3D

 48 51  0  0  0  0  0  0  0  0999 V2000
   65.4460   30.8670   51.5820 C   0  0  0  0  0  0  0  0  0  0  0  0
   64.5190   31.9880   51.5080 N   0  0  0  0  0  0  0  0  0  0  0  0
   63.9620   32.5800   52.5560 N   0  0  0  0  0  0  0  0  0  0  0  0
   63.1800   33.5720   52.1470 N   0  0  0  0  0  0  0  0  0  0  0  0
   63.2380   33.6010   50.8040 C   0  0  0  0  0  0  0  0  0  0  0  0
   64.0970   32.6280   50.4010 C   0  0  0  0  0  0  0  0  0  0  0  0
   64.4260   32.3350   48.9770 C   0  0  0  0  0  0  0  0  0  0  0  0
   63.8480   33.4240   48.0290 C   0  0  0  0  0  0  0  0  0  0  0  0
   62.5790   34.0550   48.4970 N   0  0  0  0  0  0  0  0  0  0  0  0
   61.2960   33.4000   48.1220 C   0  0  0  0  0  0  0  0  0  0  0  0
   60.1550   34.4370   48.0630 C   0  0  0  0  0  0  0  0  0  0  0  0
   58.8200   33.7460   47.7600 C   0  0  0  0  0  0  0  0  0  0  0  0
   58.9500   32.9260   46.5490 N   0  0  0  0  0  0  0  0  0  0  0  0
   58.3150   33.3360   45.3240 C   0  0  0  0  0  0  0  0  0  0  0  0
   58.2270   34.5650   45.0550 O   0  0  0  0  0  0  0  0  0  0  0  0
   57.7520   32.3430   44.3780 C   0  0  0  0  0  0  0  0  0  0  0  0
   57.0770   31.2070   44.8610 C   0  0  0  0  0  0  0  0  0  0  0  0
   56.5520   30.2650   43.9710 C   0  0  0  0  0  0  0  0  0  0  0  0
   56.7020   30.4410   42.5940 C   0  0  0  0  0  0  0  0  0  0  0  0
   57.3810   31.5590   42.1040 C   0  0  0  0  0  0  0  0  0  0  0  0
   57.9080   32.5040   42.9890 C   0  0  0  0  0  0  0  0  0  0  0  0
   60.0140   31.9140   46.5330 C   0  0  0  0  0  0  0  0  0  0  0  0
   61.3610   32.5910   46.8080 C   0  0  0  0  0  0  0  0  0  0  0  0
   62.6300   34.5940   49.8790 C   0  0  0  0  0  0  0  0  0  0  0  0
   65.6458   30.6254   52.6364 H   0  0  0  0  0  0  0  0  0  0  0  0
   65.0040   29.9921   51.0828 H   0  0  0  0  0  0  0  0  0  0  0  0
   66.3883   31.1369   51.0828 H   0  0  0  0  0  0  0  0  0  0  0  0
   62.6430   34.2120   52.7740 H   0  0  0  0  0  0  0  0  0  0  0  0
   65.5194   32.3024   48.8610 H   0  0  0  0  0  0  0  0  0  0  0  0
   63.9777   31.3670   48.7087 H   0  0  0  0  0  0  0  0  0  0  0  0
   64.6030   34.2163   47.9181 H   0  0  0  0  0  0  0  0  0  0  0  0
   63.6092   32.9149   47.0836 H   0  0  0  0  0  0  0  0  0  0  0  0
   61.0910   32.6668   48.9160 H   0  0  0  0  0  0  0  0  0  0  0  0
   60.0842   34.9535   49.0316 H   0  0  0  0  0  0  0  0  0  0  0  0
   60.3717   35.1609   47.2636 H   0  0  0  0  0  0  0  0  0  0  0  0
   58.5401   33.1037   48.6080 H   0  0  0  0  0  0  0  0  0  0  0  0
   58.0432   34.5085   47.6015 H   0  0  0  0  0  0  0  0  0  0  0  0
   56.9616   31.0591   45.9449 H   0  0  0  0  0  0  0  0  0  0  0  0
   56.0195   29.3831   44.3566 H   0  0  0  0  0  0  0  0  0  0  0  0
   56.2858   29.6999   41.8957 H   0  0  0  0  0  0  0  0  0  0  0  0
   57.5013   31.6961   41.0192 H   0  0  0  0  0  0  0  0  0  0  0  0
   58.4479   33.3787   42.5972 H   0  0  0  0  0  0  0  0  0  0  0  0
   59.8161   31.1605   47.3096 H   0  0  0  0  0  0  0  0  0  0  0  0
   60.0419   31.4242   45.5485 H   0  0  0  0  0  0  0  0  0  0  0  0
   62.1428   31.8220   46.8936 H   0  0  0  0  0  0  0  0  0  0  0  0
   61.5939   33.2745   45.9782 H   0  0  0  0  0  0  0  0  0  0  0  0
   63.2342   35.5132   49.8868 H   0  0  0  0  0  0  0  0  0  0  0  0
   61.6049   34.8107   50.2140 H   0  0  0  0  0  0  0  0  0  0  0  0
  1  2  1  0
  2  3  1  0
  3  4  2  0
  4  5  1  0
  5  6  2  0
  6  7  1  0
  7  8  1  0
  8  9  1  0
  9 10  1  0
 10 11  1  0
 11 12  1  0
 12 13  1  0
 13 14  1  0
 14 15  2  0
 14 16  1  0
 16 17  2  0
 17 18  1  0
 18 19  2  0
 19 20  1  0
 20 21  2  0
 13 22  1  0
 22 23  1  0
  9 24  1  0
  6  2  1  0
 23 10  1  0
 24  5  1  0
 21 16  1  0
  1 25  1  0
  1 26  1  0
  1 27  1  0
  4 28  1  0
  7 29  1  0
  7 30  1  0
  8 31  1  0
  8 32  1  0
 10 33  1  0
 11 34  1  0
 11 35  1  0
 12 36  1  0
 12 37  1  0
 17 38  1  0
 18 39  1  0
 19 40  1  0
 20 41  1  0
 21 42  1  0
 22 43  1  0
 22 44  1  0
 23 45  1  0
 23 46  1  0
 24 47  1  0
 24 48  1  0
M  CHG  1   4   1
M  END
>  <UniqueID>  (26) 
26

>  <SMILES>  (26) 
Cn1n[nH+]c2c1CCN(C1CCN(C(=O)c3ccccc3)CC1)C2

>  <Energy>  (26) 
103.71313812210882

>  <Genealogy>  (26) 
Cn1n[nH+]c2c1CCN(C1CCN(C(=O)c3ccccc3)CC1)C2 (protonated)
Cn1n[nH+]c2c1CCN(C1CCN(C(=O)c3ccccc3)CC1)C2 (3D coordinates assigned)
Cn1n[nH+]c2c1CCN(C1CCN(C(=O)c3ccccc3)CC1)C2 (nonaromatic ring conformer: 103.71313812210882 kcal/mol)

>  <smiles>  (26) 
Cn1nnc2c1CCN(C1CCN(C(=O)c3ccccc3)CC1)C2

>  <score_type>  (26) 
oracle

>  <origin>  (26) 
adg

>  <m_score__min__energy>  (26) 
-6.9699999999999998

>  <m_primary>  (26) 
energy

$$$$
26:0
     RDKit          3D

 54 56  0  0  0  0  0  0  0  0999 V2000
   62.5740   32.9730   47.1150 C   0  0  0  0  0  0  0  0  0  0  0  0
   62.3360   31.5450   47.5960 C   0  0  0  0  0  0  0  0  0  0  0  0
   61.2660   30.8080   46.7730 C   0  0  0  0  0  0  0  0  0  0  0  0
   60.2230   30.1860   47.6100 N   0  0  0  0  0  0  0  0  0  0  0  0
   60.3630   30.1730   49.0730 C   0  0  0  0  0  0  0  0  0  0  0  0
   59.1030   29.6270   49.7500 C   0  0  0  0  0  0  0  0  0  0  0  0
   58.1480   30.6600   49.9030 O   0  0  0  0  0  0  0  0  0  0  0  0
   58.0670   31.0590   51.2550 C   0  0  0  0  0  0  0  0  0  0  0  0
   59.1270   29.4720   47.0120 C   0  0  0  0  0  0  0  0  0  0  0  0
   59.0160   28.1250   47.2130 N   0  0  0  0  0  0  0  0  0  0  0  0
   58.0730   27.3670   46.5700 C   0  0  0  0  0  0  0  0  0  0  0  0
   58.0210   25.8940   46.8000 C   0  0  0  0  0  0  0  0  0  0  0  0
   57.2340   27.9420   45.6570 N   0  0  0  0  0  0  0  0  0  0  0  0
   57.3350   29.2760   45.4550 C   0  0  0  0  0  0  0  0  0  0  0  0
   56.6160   30.1070   44.6300 C   0  0  0  0  0  0  0  0  0  0  0  0
   55.4710   29.7290   43.7510 C   0  0  0  0  0  0  0  0  0  0  0  0
   57.0370   31.3760   44.8400 N   0  0  0  0  0  0  0  0  0  0  0  0
   58.0120   31.3500   45.7470 N   0  0  0  0  0  0  0  0  0  0  0  0
   58.5680   32.5460   46.3080 C   0  0  0  0  0  0  0  0  0  0  0  0
   58.9590   33.5950   45.4660 C   0  0  0  0  0  0  0  0  0  0  0  0
   59.4960   34.7650   46.0070 C   0  0  0  0  0  0  0  0  0  0  0  0
   59.6300   34.9030   47.3920 C   0  0  0  0  0  0  0  0  0  0  0  0
   59.2080   33.8690   48.2490 C   0  0  0  0  0  0  0  0  0  0  0  0
   59.3080   33.9610   49.6450 O   0  0  0  0  0  0  0  0  0  0  0  0
   60.4200   33.4950   50.4030 C   0  0  0  0  0  0  0  0  0  0  0  0
   58.6660   32.7030   47.6970 C   0  0  0  0  0  0  0  0  0  0  0  0
   58.2170   30.0640   46.1230 C   0  0  0  0  0  0  0  0  0  0  0  0
   62.6850   33.6388   47.9836 H   0  0  0  0  0  0  0  0  0  0  0  0
   63.4903   33.0073   46.5073 H   0  0  0  0  0  0  0  0  0  0  0  0
   61.7184   33.3026   46.5073 H   0  0  0  0  0  0  0  0  0  0  0  0
   63.2814   30.9875   47.5225 H   0  0  0  0  0  0  0  0  0  0  0  0
   61.9744   31.6015   48.6333 H   0  0  0  0  0  0  0  0  0  0  0  0
   60.7871   31.5293   46.0944 H   0  0  0  0  0  0  0  0  0  0  0  0
   61.7718   30.0007   46.2231 H   0  0  0  0  0  0  0  0  0  0  0  0
   61.2191   29.5381   49.3450 H   0  0  0  0  0  0  0  0  0  0  0  0
   60.5194   31.2067   49.4150 H   0  0  0  0  0  0  0  0  0  0  0  0
   58.6755   28.8248   49.1306 H   0  0  0  0  0  0  0  0  0  0  0  0
   59.3689   29.2321   50.7416 H   0  0  0  0  0  0  0  0  0  0  0  0
   58.2435   30.1894   51.9051 H   0  0  0  0  0  0  0  0  0  0  0  0
   58.8274   31.8279   51.4566 H   0  0  0  0  0  0  0  0  0  0  0  0
   57.0670   31.4705   51.4566 H   0  0  0  0  0  0  0  0  0  0  0  0
   58.0139   25.6917   47.8812 H   0  0  0  0  0  0  0  0  0  0  0  0
   57.1078   25.4837   46.3442 H   0  0  0  0  0  0  0  0  0  0  0  0
   58.9030   25.4204   46.3442 H   0  0  0  0  0  0  0  0  0  0  0  0
   54.6095   29.4446   44.3731 H   0  0  0  0  0  0  0  0  0  0  0  0
   55.1981   30.5847   43.1160 H   0  0  0  0  0  0  0  0  0  0  0  0
   55.7613   28.8790   43.1160 H   0  0  0  0  0  0  0  0  0  0  0  0
   58.8428   33.4969   44.3766 H   0  0  0  0  0  0  0  0  0  0  0  0
   59.8146   35.5808   45.3414 H   0  0  0  0  0  0  0  0  0  0  0  0
   60.0659   35.8212   47.8126 H   0  0  0  0  0  0  0  0  0  0  0  0
   60.1972   33.5884   51.4761 H   0  0  0  0  0  0  0  0  0  0  0  0
   60.6137   32.4400   50.1592 H   0  0  0  0  0  0  0  0  0  0  0  0
   61.3080   34.0967   50.1592 H   0  0  0  0  0  0  0  0  0  0  0  0
   58.3128   31.9004   48.3611 H   0  0  0  0  0  0  0  0  0  0  0  0
  1  2  1  0
  2  3  1  0
  3  4  1  0
  4  5  1  0
  5  6  1  0
  6  7  1  0
  7  8  1  0
  4  9  1  0
  9 10  2  0
 10 11  1  0
 11 12  1  0
 11 13  2  0
 13 14  1  0
 14 15  1  0
 15 16  1  0
 15 17  2  0
 17 18  1  0
 18 19  1  0
 19 20  2  0
 20 21  1  0
 21 22  2  0
 22 23  1  0
 23 24  1  0
 24 25  1  0
 23 26  2  0
 18 27  1  0
 27  9  1  0
 27 14  2  0
 26 19  1  0
  1 28  1  0
  1 29  1  0
  1 30  1  0
  2 31  1  0
  2 32  1  0
  3 33  1  0
  3 34  1  0
  5 35  1  0
  5 36  1  0
  6 37  1  0
  6 38  1  0
  8 39  1  0
  8 40  1  0
  8 41  1  0
 12 42  1  0
 12 43  1  0
 12 44  1  0
 16 45  1  0
 16 46  1  0
 16 47  1  0
 20 48  1  0
 21 49  1  0
 22 50  1  0
 25 51  1  0
 25 52  1  0
 25 53  1  0
 26 54  1  0
M  END
>  <UniqueID>  (27) 
27

>  <SMILES>  (27) 
CCCN(CCOC)c1nc(C)nc2c(C)nn(-c3cccc(OC)c3)c12

>  <Energy>  (27) 
100.17387246058223

>  <Genealogy>  (27) 
CCCN(CCOC)c1nc(C)nc2c(C)nn(-c3cccc(OC)c3)c12 (3D coordinates assigned)
CCCN(CCOC)c1nc(C)nc2c(C)nn(-c3cccc(OC)c3)c12 (optimized conformer: 100.17387246058223 kcal/mol)

>  <smiles>  (27) 
CCCN(CCOC)c1nc(C)nc2c(C)nn(-c3cccc(OC)c3)c12

>  <score_type>  (27) 
oracle

>  <origin>  (27) 
adg

>  <m_score__min__energy>  (27) 
-6.8300000000000001

>  <m_primary>  (27) 
energy

$$$$
27:0
     RDKit          3D

 46 48  0  0  0  0  0  0  0  0999 V2000
   55.1780   24.6100   45.6160 C   0  0  0  0  0  0  0  0  0  0  0  0
   55.4860   25.9470   45.9960 O   0  0  0  0  0  0  0  0  0  0  0  0
   56.7860   26.4680   46.0770 C   0  0  0  0  0  0  0  0  0  0  0  0
   57.9180   25.6480   46.2430 C   0  0  0  0  0  0  0  0  0  0  0  0
   59.1890   26.2170   46.3300 C   0  0  0  0  0  0  0  0  0  0  0  0
   59.3470   27.6030   46.2470 C   0  0  0  0  0  0  0  0  0  0  0  0
   58.2310   28.4370   46.0670 C   0  0  0  0  0  0  0  0  0  0  0  0
   58.4160   29.9060   45.9850 C   0  0  0  0  0  0  0  0  0  0  0  0
   59.1210   30.6710   46.8990 C   0  0  0  0  0  0  0  0  0  0  0  0
   59.1410   31.9600   46.4050 C   0  0  0  0  0  0  0  0  0  0  0  0
   59.8050   33.0910   47.0800 C   0  0  0  0  0  0  0  0  0  0  0  0
   59.2240   34.2090   47.0970 O   0  0  0  0  0  0  0  0  0  0  0  0
   61.1130   32.9560   47.6700 N   0  0  0  0  0  0  0  0  0  0  0  0
   61.4810   33.7320   48.8580 C   0  0  0  0  0  0  0  0  0  0  0  0
   62.9310   34.2090   48.7290 C   0  0  0  0  0  0  0  0  0  0  0  0
   63.7940   33.1260   48.4400 O   0  0  0  0  0  0  0  0  0  0  0  0
   63.4790   32.5840   47.1700 C   0  0  0  0  0  0  0  0  0  0  0  0
   62.0780   31.9680   47.1770 C   0  0  0  0  0  0  0  0  0  0  0  0
   58.5150   32.0120   45.2070 N   0  0  0  0  0  0  0  0  0  0  0  0
   58.4460   33.1520   44.2910 C   0  0  0  0  0  0  0  0  0  0  0  0
   58.0500   30.7680   44.9560 C   0  0  0  0  0  0  0  0  0  0  0  0
   57.2250   30.2960   43.4250 S   0  0  0  0  0  0  0  0  0  0  0  0
   55.5920   30.0910   44.2090 C   0  0  0  0  0  0  0  0  0  0  0  0
   56.9530   27.8560   45.9930 C   0  0  0  0  0  0  0  0  0  0  0  0
   55.0365   23.9959   46.5176 H   0  0  0  0  0  0  0  0  0  0  0  0
   54.2545   24.6021   45.0184 H   0  0  0  0  0  0  0  0  0  0  0  0
   56.0050   24.1989   45.0184 H   0  0  0  0  0  0  0  0  0  0  0  0
   57.8003   24.5560   46.3043 H   0  0  0  0  0  0  0  0  0  0  0  0
   60.0700   25.5722   46.4644 H   0  0  0  0  0  0  0  0  0  0  0  0
   60.3519   28.0439   46.3231 H   0  0  0  0  0  0  0  0  0  0  0  0
   59.5766   30.3198   47.8366 H   0  0  0  0  0  0  0  0  0  0  0  0
   60.8153   34.6031   48.9474 H   0  0  0  0  0  0  0  0  0  0  0  0
   61.3816   33.1004   49.7531 H   0  0  0  0  0  0  0  0  0  0  0  0
   62.9962   34.9483   47.9171 H   0  0  0  0  0  0  0  0  0  0  0  0
   63.2394   34.6595   49.6839 H   0  0  0  0  0  0  0  0  0  0  0  0
   63.5178   33.3842   46.4162 H   0  0  0  0  0  0  0  0  0  0  0  0
   64.2098   31.7977   46.9300 H   0  0  0  0  0  0  0  0  0  0  0  0
   61.8047   31.6666   46.1550 H   0  0  0  0  0  0  0  0  0  0  0  0
   62.0682   31.0858   47.8340 H   0  0  0  0  0  0  0  0  0  0  0  0
   58.3895   34.0852   44.8706 H   0  0  0  0  0  0  0  0  0  0  0  0
   59.3448   33.1679   43.6571 H   0  0  0  0  0  0  0  0  0  0  0  0
   57.5518   33.0594   43.6571 H   0  0  0  0  0  0  0  0  0  0  0  0
   55.7061   30.1053   45.3030 H   0  0  0  0  0  0  0  0  0  0  0  0
   54.9304   30.9131   43.8985 H   0  0  0  0  0  0  0  0  0  0  0  0
   55.1542   29.1308   43.8985 H   0  0  0  0  0  0  0  0  0  0  0  0
   56.0710   28.5012   45.8672 H   0  0  0  0  0  0  0  0  0  0  0  0
  1  2  1  0
  2  3  1  0
  3  4  2  0
  4  5  1  0
  5  6  2  0
  6  7  1  0
  7  8  1  0
  8  9  1  0
  9 10  2  0
 10 11  1  0
 11 12  2  0
 11 13  1  0
 13 14  1  0
 14 15  1  0
 15 16  1  0
 16 17  1  0
 17 18  1  0
 10 19  1  0
 19 20  1  0
 19 21  1  0
 21 22  1  0
 22 23  1  0
  7 24  2  0
 24  3  1  0
 21  8  2  0
 18 13  1  0
  1 25  1  0
  1 26  1  0
  1 27  1  0
  4 28  1  0
  5 29  1  0
  6 30  1  0
  9 31  1  0
 14 32  1  0
 14 33  1  0
 15 34  1  0
 15 35  1  0
 17 36  1  0
 17 37  1  0
 18 38  1  0
 18 39  1  0
 20 40  1  0
 20 41  1  0
 20 42  1  0
 23 43  1  0
 23 44  1  0
 23 45  1  0
 24 46  1  0
M  END
>  <UniqueID>  (28) 
28

>  <SMILES>  (28) 
COc1cccc(-c2cc(C(=O)N3CCOCC3)n(C)c2SC)c1

>  <Energy>  (28) 
81.11004566876021

>  <Genealogy>  (28) 
COc1cccc(-c2cc(C(=O)N3CCOCC3)n(C)c2SC)c1 (3D coordinates assigned)
COc1cccc(-c2cc(C(=O)N3CCOCC3)n(C)c2SC)c1 (nonaromatic ring conformer: 81.11004566876021 kcal/mol)

>  <smiles>  (28) 
COc1cccc(-c2cc(C(=O)N3CCOCC3)n(C)c2SC)c1

>  <score_type>  (28) 
oracle

>  <origin>  (28) 
adg

>  <m_score__min__energy>  (28) 
-7.6900000000000004

>  <m_primary>  (28) 
energy

$$$$
28:0
     RDKit          3D

 45 48  0  0  0  0  0  0  0  0999 V2000
   54.8610   29.3950   52.7530 C   0  0  0  0  0  0  0  0  0  0  0  0
   56.2610   28.9660   52.6870 N   0  0  0  0  0  0  0  0  0  0  0  0
   57.1680   30.0400   53.1120 C   0  0  0  0  0  0  0  0  0  0  0  0
   57.7820   30.7180   51.9210 C   0  0  0  0  0  0  0  0  0  0  0  0
   58.1110   32.0780   51.9660 C   0  0  0  0  0  0  0  0  0  0  0  0
   58.6600   32.6890   50.8370 C   0  0  0  0  0  0  0  0  0  0  0  0
   58.8820   31.9420   49.6710 C   0  0  0  0  0  0  0  0  0  0  0  0
   59.4480   32.5680   48.4570 C   0  0  0  0  0  0  0  0  0  0  0  0
   58.7240   32.8900   47.3580 N   0  0  0  0  0  0  0  0  0  0  0  0
   59.5240   33.4310   46.4480 N   0  0  0  0  0  0  0  0  0  0  0  0
   59.0950   33.8210   45.1060 C   0  0  0  0  0  0  0  0  0  0  0  0
   58.3180   32.7060   44.4730 C   0  0  0  0  0  0  0  0  0  0  0  0
   58.1530   32.6530   43.0810 C   0  0  0  0  0  0  0  0  0  0  0  0
   57.3920   31.6240   42.5220 C   0  0  0  0  0  0  0  0  0  0  0  0
   56.7990   30.6680   43.3500 C   0  0  0  0  0  0  0  0  0  0  0  0
   56.9770   30.7590   44.7320 C   0  0  0  0  0  0  0  0  0  0  0  0
   57.7210   31.7680   45.2590 N   0  0  0  0  0  0  0  0  0  0  0  0
   60.7780   33.4410   46.9440 C   0  0  0  0  0  0  0  0  0  0  0  0
   61.9610   33.8550   46.3270 C   0  0  0  0  0  0  0  0  0  0  0  0
   63.1590   33.7100   47.0480 C   0  0  0  0  0  0  0  0  0  0  0  0
   63.1550   33.1470   48.3430 C   0  0  0  0  0  0  0  0  0  0  0  0
   61.9500   32.7280   48.9350 C   0  0  0  0  0  0  0  0  0  0  0  0
   60.7710   32.9080   48.2090 C   0  0  0  0  0  0  0  0  0  0  0  0
   58.5170   30.5870   49.6620 C   0  0  0  0  0  0  0  0  0  0  0  0
   57.9850   30.0140   50.7740 N   0  0  0  0  0  0  0  0  0  0  0  0
   54.5554   29.4886   53.8055 H   0  0  0  0  0  0  0  0  0  0  0  0
   54.7516   30.3679   52.2515 H   0  0  0  0  0  0  0  0  0  0  0  0
   54.2253   28.6504   52.2515 H   0  0  0  0  0  0  0  0  0  0  0  0
   56.4720   28.7510   51.6840 H   0  0  0  0  0  0  0  0  0  0  0  0
   56.6023   30.7801   53.6971 H   0  0  0  0  0  0  0  0  0  0  0  0
   57.9712   29.6034   53.7237 H   0  0  0  0  0  0  0  0  0  0  0  0
   57.9384   32.6603   52.8831 H   0  0  0  0  0  0  0  0  0  0  0  0
   58.9188   33.7578   50.8621 H   0  0  0  0  0  0  0  0  0  0  0  0
   57.6960   32.7430   47.2300 H   0  0  0  0  0  0  0  0  0  0  0  0
   58.4594   34.7163   45.1723 H   0  0  0  0  0  0  0  0  0  0  0  0
   59.9814   34.0381   44.4919 H   0  0  0  0  0  0  0  0  0  0  0  0
   58.6180   33.4137   42.4367 H   0  0  0  0  0  0  0  0  0  0  0  0
   57.2598   31.5665   41.4315 H   0  0  0  0  0  0  0  0  0  0  0  0
   56.1990   29.8532   42.9185 H   0  0  0  0  0  0  0  0  0  0  0  0
   56.5147   30.0133   45.3955 H   0  0  0  0  0  0  0  0  0  0  0  0
   61.9553   34.2797   45.3123 H   0  0  0  0  0  0  0  0  0  0  0  0
   64.1082   34.0381   46.5993 H   0  0  0  0  0  0  0  0  0  0  0  0
   64.1012   33.0353   48.8928 H   0  0  0  0  0  0  0  0  0  0  0  0
   61.9368   32.2736   49.9367 H   0  0  0  0  0  0  0  0  0  0  0  0
   58.6619   29.9864   48.7519 H   0  0  0  0  0  0  0  0  0  0  0  0
  1  2  1  0
  2  3  1  0
  3  4  1  0
  4  5  2  0
  5  6  1  0
  6  7  2  0
  7  8  1  0
  8  9  2  0
  9 10  1  0
 10 11  1  0
 11 12  1  0
 12 13  2  0
 13 14  1  0
 14 15  2  0
 15 16  1  0
 16 17  2  0
 10 18  1  0
 18 19  2  0
 19 20  1  0
 20 21  2  0
 21 22  1  0
 22 23  2  0
  7 24  1  0
 24 25  2  0
 25  4  1  0
 23  8  1  0
 17 12  1  0
 23 18  1  0
  1 26  1  0
  1 27  1  0
  1 28  1  0
  2 29  1  0
  3 30  1  0
  3 31  1  0
  5 32  1  0
  6 33  1  0
  9 34  1  0
 11 35  1  0
 11 36  1  0
 13 37  1  0
 14 38  1  0
 15 39  1  0
 16 40  1  0
 19 41  1  0
 20 42  1  0
 21 43  1  0
 22 44  1  0
 24 45  1  0
M  CHG  1   9   1
M  END
>  <UniqueID>  (29) 
29

>  <SMILES>  (29) 
CNCc1ccc(-c2[nH+]n(Cc3ccccn3)c3ccccc23)cn1

>  <Energy>  (29) 
90.2435092740311

>  <Genealogy>  (29) 
CNCc1ccc(-c2[nH+]n(Cc3ccccn3)c3ccccc23)cn1 (protonated)
CNCc1ccc(-c2[nH+]n(Cc3ccccn3)c3ccccc23)cn1 (3D coordinates assigned)
CNCc1ccc(-c2[nH+]n(Cc3ccccn3)c3ccccc23)cn1 (optimized conformer: 90.2435092740311 kcal/mol)

>  <smiles>  (29) 
CNCc1ccc(-c2nn(Cc3ccccn3)c3ccccc23)cn1

>  <score_type>  (29) 
oracle

>  <origin>  (29) 
adg

>  <m_score__min__energy>  (29) 
-6.1699999999999999

>  <m_primary>  (29) 
energy

$$$$
29:0
     RDKit          3D

 34 36  0  0  0  0  0  0  0  0999 V2000
   55.7000   29.7120   45.9910 H   0  0  0  0  0  0  0  0  0  0  0  0
   56.3440   29.7200   45.1690 N   0  0  0  0  0  0  0  0  0  0  0  0
   57.6010   29.4160   45.2550 C   0  0  0  0  0  0  0  0  0  0  0  0
   58.1470   28.1380   45.2410 C   0  0  0  0  0  0  0  0  0  0  0  0
   57.4800   26.8310   45.0670 C   0  0  0  0  0  0  0  0  0  0  0  0
   56.5080   26.3890   45.9810 C   0  0  0  0  0  0  0  0  0  0  0  0
   56.2479   27.0140   46.8480 H   0  0  0  0  0  0  0  0  0  0  0  0
   55.8700   25.1590   45.7940 C   0  0  0  0  0  0  0  0  0  0  0  0
   55.1247   24.8126   46.5251 H   0  0  0  0  0  0  0  0  0  0  0  0
   56.1750   24.3650   44.6800 C   0  0  0  0  0  0  0  0  0  0  0  0
   55.5180   23.0280   44.5010 C   0  0  0  0  0  0  0  0  0  0  0  0
   55.3029   22.5902   45.4869 H   0  0  0  0  0  0  0  0  0  0  0  0
   54.5786   23.1529   43.9424 H   0  0  0  0  0  0  0  0  0  0  0  0
   56.1908   22.3607   43.9424 H   0  0  0  0  0  0  0  0  0  0  0  0
   57.1430   24.8040   43.7650 C   0  0  0  0  0  0  0  0  0  0  0  0
   57.4010   24.1779   42.8982 H   0  0  0  0  0  0  0  0  0  0  0  0
   57.7820   26.0350   43.9500 C   0  0  0  0  0  0  0  0  0  0  0  0
   58.5250   26.3812   43.2165 H   0  0  0  0  0  0  0  0  0  0  0  0
   59.5080   28.3460   45.4020 C   0  0  0  0  0  0  0  0  0  0  0  0
   60.2735   27.5578   45.4536 H   0  0  0  0  0  0  0  0  0  0  0  0
   59.7410   29.6710   45.4850 N   0  0  0  0  0  0  0  0  0  0  0  0
   60.6770   30.1150   45.6160 H   0  0  0  0  0  0  0  0  0  0  0  0
   58.5910   30.3230   45.4040 N   0  0  0  0  0  0  0  0  0  0  0  0
   58.4740   31.7570   45.4710 C   0  0  0  0  0  0  0  0  0  0  0  0
   58.9300   32.4460   46.6080 C   0  0  0  0  0  0  0  0  0  0  0  0
   59.3830   31.8878   47.4406 H   0  0  0  0  0  0  0  0  0  0  0  0
   58.8110   33.8380   46.6870 C   0  0  0  0  0  0  0  0  0  0  0  0
   59.1741   34.3705   47.5784 H   0  0  0  0  0  0  0  0  0  0  0  0
   58.2320   34.5520   45.6360 C   0  0  0  0  0  0  0  0  0  0  0  0
   58.1435   35.6467   45.6977 H   0  0  0  0  0  0  0  0  0  0  0  0
   57.7650   33.8760   44.5060 C   0  0  0  0  0  0  0  0  0  0  0  0
   57.3047   34.4387   43.6805 H   0  0  0  0  0  0  0  0  0  0  0  0
   57.8820   32.4850   44.4230 C   0  0  0  0  0  0  0  0  0  0  0  0
   57.5089   31.9570   43.5330 H   0  0  0  0  0  0  0  0  0  0  0  0
  1  2  1  0
  2  3  2  0
  3  4  1  0
  4  5  1  0
  5  6  2  0
  6  7  1  0
  6  8  1  0
  8  9  1  0
  8 10  2  0
 10 11  1  0
 11 12  1  0
 11 13  1  0
 11 14  1  0
 10 15  1  0
 15 16  1  0
 15 17  2  0
 17 18  1  0
  4 19  2  0
 19 20  1  0
 19 21  1  0
 21 22  1  0
 21 23  1  0
 23 24  1  0
 24 25  2  0
 25 26  1  0
 25 27  1  0
 27 28  1  0
 27 29  2  0
 29 30  1  0
 29 31  1  0
 31 32  1  0
 31 33  2  0
 33 34  1  0
 23  3  1  0
 33 24  1  0
 17  5  1  0
M  END
>  <UniqueID>  (30) 
30

>  <SMILES>  (30) 
[H]/N=c1\c(-c2ccc(C)cc2)c[nH]n1-c1ccccc1

>  <Energy>  (30) 
79.07860882338844

>  <Genealogy>  (30) 
[H]/N=c1\c(-c2ccc(C)cc2)c[nH]n1-c1ccccc1 (cis-trans isomerization)
[H]/N=c1\c(-c2ccc(C)cc2)c[nH]n1-c1ccccc1 (3D coordinates assigned)
[H]/N=c1\c(-c2ccc(C)cc2)c[nH]n1-c1ccccc1 (optimized conformer: 79.07860882338844 kcal/mol)

>  <smiles>  (30) 
Cc1ccc(-c2c[nH]n(-c3ccccc3)c2=N)cc1

>  <score_type>  (30) 
oracle

>  <origin>  (30) 
adg

>  <m_score__min__energy>  (30) 
-6.7800000000000002

>  <m_primary>  (30) 
energy

$$$$
30:0
     RDKit          3D

 45 47  0  0  0  0  0  0  0  0999 V2000
   63.7020   33.4730   46.7130 C   0  0  0  0  0  0  0  0  0  0  0  0
   63.4340   32.5930   47.9350 C   0  0  0  0  0  0  0  0  0  0  0  0
   62.0090   32.6540   48.3430 N   0  0  0  0  0  0  0  0  0  0  0  0
   61.7460   33.9120   49.0850 C   0  0  0  0  0  0  0  0  0  0  0  0
   60.2530   34.2050   49.2070 C   0  0  0  0  0  0  0  0  0  0  0  0
   61.6320   31.4550   49.1420 C   0  0  0  0  0  0  0  0  0  0  0  0
   60.9000   30.4180   48.2760 C   0  0  0  0  0  0  0  0  0  0  0  0
   60.7630   30.8550   46.8820 N   0  0  0  0  0  0  0  0  0  0  0  0
   59.5070   30.8860   46.1840 C   0  0  0  0  0  0  0  0  0  0  0  0
   58.8330   29.6910   45.8380 C   0  0  0  0  0  0  0  0  0  0  0  0
   59.4070   28.4190   46.0320 C   0  0  0  0  0  0  0  0  0  0  0  0
   58.6920   27.2620   45.7060 C   0  0  0  0  0  0  0  0  0  0  0  0
   57.4110   27.3580   45.1610 C   0  0  0  0  0  0  0  0  0  0  0  0
   56.8470   28.6100   44.9150 C   0  0  0  0  0  0  0  0  0  0  0  0
   57.5540   29.7750   45.2350 C   0  0  0  0  0  0  0  0  0  0  0  0
   57.0140   30.9850   44.9430 N   0  0  0  0  0  0  0  0  0  0  0  0
   57.6620   32.1470   45.2080 C   0  0  0  0  0  0  0  0  0  0  0  0
   57.0560   33.3640   44.8770 C   0  0  0  0  0  0  0  0  0  0  0  0
   57.7050   34.5700   45.1520 C   0  0  0  0  0  0  0  0  0  0  0  0
   58.9620   34.5640   45.7580 C   0  0  0  0  0  0  0  0  0  0  0  0
   59.5770   33.3550   46.0960 C   0  0  0  0  0  0  0  0  0  0  0  0
   58.9330   32.1290   45.8270 C   0  0  0  0  0  0  0  0  0  0  0  0
   64.0076   34.4766   47.0438 H   0  0  0  0  0  0  0  0  0  0  0  0
   64.5047   33.0260   46.1082 H   0  0  0  0  0  0  0  0  0  0  0  0
   62.7864   33.5493   46.1082 H   0  0  0  0  0  0  0  0  0  0  0  0
   63.6921   31.5521   47.6902 H   0  0  0  0  0  0  0  0  0  0  0  0
   64.0493   32.9615   48.7690 H   0  0  0  0  0  0  0  0  0  0  0  0
   62.1740   33.8245   50.0945 H   0  0  0  0  0  0  0  0  0  0  0  0
   62.2089   34.7384   48.5257 H   0  0  0  0  0  0  0  0  0  0  0  0
   59.9757   34.2594   50.2701 H   0  0  0  0  0  0  0  0  0  0  0  0
   60.0266   35.1647   48.7194 H   0  0  0  0  0  0  0  0  0  0  0  0
   59.6807   33.4020   48.7194 H   0  0  0  0  0  0  0  0  0  0  0  0
   62.5433   30.9982   49.5554 H   0  0  0  0  0  0  0  0  0  0  0  0
   60.9568   31.7730   49.9500 H   0  0  0  0  0  0  0  0  0  0  0  0
   61.4669   29.4756   48.2974 H   0  0  0  0  0  0  0  0  0  0  0  0
   59.8889   30.2875   48.6891 H   0  0  0  0  0  0  0  0  0  0  0  0
   61.6010   31.2680   46.4120 H   0  0  0  0  0  0  0  0  0  0  0  0
   60.4241   28.3353   46.4425 H   0  0  0  0  0  0  0  0  0  0  0  0
   59.1410   26.2730   45.8798 H   0  0  0  0  0  0  0  0  0  0  0  0
   56.8449   26.4449   44.9249 H   0  0  0  0  0  0  0  0  0  0  0  0
   55.8443   28.6819   44.4685 H   0  0  0  0  0  0  0  0  0  0  0  0
   56.0654   33.3711   44.3987 H   0  0  0  0  0  0  0  0  0  0  0  0
   57.2251   35.5247   44.8908 H   0  0  0  0  0  0  0  0  0  0  0  0
   59.4715   35.5154   45.9708 H   0  0  0  0  0  0  0  0  0  0  0  0
   60.5677   33.3596   46.5740 H   0  0  0  0  0  0  0  0  0  0  0  0
  1  2  1  0
  2  3  1  0
  3  4  1  0
  4  5  1  0
  3  6  1  0
  6  7  1  0
  7  8  1  0
  8  9  1  0
  9 10  2  0
 10 11  1  0
 11 12  2  0
 12 13  1  0
 13 14  2  0
 14 15  1  0
 15 16  2  0
 16 17  1  0
 17 18  2  0
 18 19  1  0
 19 20  2  0
 20 21  1  0
 21 22  2  0
 22  9  1  0
 15 10  1  0
 22 17  1  0
  1 23  1  0
  1 24  1  0
  1 25  1  0
  2 26  1  0
  2 27  1  0
  4 28  1  0
  4 29  1  0
  5 30  1  0
  5 31  1  0
  5 32  1  0
  6 33  1  0
  6 34  1  0
  7 35  1  0
  7 36  1  0
  8 37  1  0
 11 38  1  0
 12 39  1  0
 13 40  1  0
 14 41  1  0
 18 42  1  0
 19 43  1  0
 20 44  1  0
 21 45  1  0
M  END
>  <UniqueID>  (31) 
31

>  <SMILES>  (31) 
CCN(CC)CCNc1c2ccccc2nc2ccccc12

>  <Energy>  (31) 
56.74025657312615

>  <Genealogy>  (31) 
CCN(CC)CCNc1c2ccccc2nc2ccccc12 (3D coordinates assigned)
CCN(CC)CCNc1c2ccccc2nc2ccccc12 (optimized conformer: 56.74025657312615 kcal/mol)

>  <smiles>  (31) 
CCN(CC)CCNc1c2ccccc2nc2ccccc12

>  <score_type>  (31) 
oracle

>  <origin>  (31) 
adg

>  <m_score__min__energy>  (31) 
-6.8700000000000001

>  <m_primary>  (31) 
energy

$$$$
31:0
     RDKit          3D

 49 51  0  0  0  0  0  0  0  0999 V2000
   66.3230   33.1650   51.2250 C   0  0  0  0  0  0  0  0  0  0  0  0
   65.7210   33.4860   49.9750 O   0  0  0  0  0  0  0  0  0  0  0  0
   64.5970   32.8330   49.4470 C   0  0  0  0  0  0  0  0  0  0  0  0
   63.9640   31.8620   50.2290 C   0  0  0  0  0  0  0  0  0  0  0  0
   62.8420   31.1820   49.7490 C   0  0  0  0  0  0  0  0  0  0  0  0
   62.3300   31.4630   48.4690 C   0  0  0  0  0  0  0  0  0  0  0  0
   61.1650   30.7650   47.9710 N   0  0  0  0  0  0  0  0  0  0  0  0
   61.0480   30.4820   46.5330 C   0  0  0  0  0  0  0  0  0  0  0  0
   59.6000   30.1810   46.1300 C   0  0  0  0  0  0  0  0  0  0  0  0
   59.0180   29.1590   47.0120 N   0  0  0  0  0  0  0  0  0  0  0  0
   58.0500   28.2060   46.5210 C   0  0  0  0  0  0  0  0  0  0  0  0
   57.7520   27.2030   47.2260 O   0  0  0  0  0  0  0  0  0  0  0  0
   57.3940   28.3760   45.1740 C   0  0  0  0  0  0  0  0  0  0  0  0
   56.5060   29.4930   45.1630 O   0  0  0  0  0  0  0  0  0  0  0  0
   56.5340   30.4930   44.1840 C   0  0  0  0  0  0  0  0  0  0  0  0
   55.9160   30.3310   43.0960 O   0  0  0  0  0  0  0  0  0  0  0  0
   57.2860   31.7440   44.4120 C   0  0  0  0  0  0  0  0  0  0  0  0
   57.3990   32.3770   45.6370 C   0  0  0  0  0  0  0  0  0  0  0  0
   58.1750   33.4990   45.4300 C   0  0  0  0  0  0  0  0  0  0  0  0
   58.5090   33.5100   44.0910 C   0  0  0  0  0  0  0  0  0  0  0  0
   57.9680   32.4420   43.4720 N   0  0  0  0  0  0  0  0  0  0  0  0
   58.1170   32.1280   42.0540 C   0  0  0  0  0  0  0  0  0  0  0  0
   59.3560   29.1470   48.4440 C   0  0  0  0  0  0  0  0  0  0  0  0
   60.0530   30.4420   48.8750 C   0  0  0  0  0  0  0  0  0  0  0  0
   62.9660   32.4410   47.6850 C   0  0  0  0  0  0  0  0  0  0  0  0
   64.0900   33.1190   48.1670 C   0  0  0  0  0  0  0  0  0  0  0  0
   65.6747   33.5107   52.0437 H   0  0  0  0  0  0  0  0  0  0  0  0
   66.4570   32.0757   51.2984 H   0  0  0  0  0  0  0  0  0  0  0  0
   67.3022   33.6607   51.2984 H   0  0  0  0  0  0  0  0  0  0  0  0
   64.3532   31.6313   51.2317 H   0  0  0  0  0  0  0  0  0  0  0  0
   62.3551   30.4210   50.3766 H   0  0  0  0  0  0  0  0  0  0  0  0
   61.4007   31.3572   45.9677 H   0  0  0  0  0  0  0  0  0  0  0  0
   61.6580   29.5948   46.3075 H   0  0  0  0  0  0  0  0  0  0  0  0
   59.0052   31.1033   46.2041 H   0  0  0  0  0  0  0  0  0  0  0  0
   59.5911   29.8037   45.0968 H   0  0  0  0  0  0  0  0  0  0  0  0
   58.1736   28.5314   44.4136 H   0  0  0  0  0  0  0  0  0  0  0  0
   56.8110   27.4689   44.9567 H   0  0  0  0  0  0  0  0  0  0  0  0
   56.9568   32.0498   46.5896 H   0  0  0  0  0  0  0  0  0  0  0  0
   58.4704   34.2413   46.1862 H   0  0  0  0  0  0  0  0  0  0  0  0
   59.1260   34.2776   43.6010 H   0  0  0  0  0  0  0  0  0  0  0  0
   58.5862   31.1391   41.9448 H   0  0  0  0  0  0  0  0  0  0  0  0
   57.1271   32.1191   41.5744 H   0  0  0  0  0  0  0  0  0  0  0  0
   58.7499   32.8892   41.5744 H   0  0  0  0  0  0  0  0  0  0  0  0
   58.4308   29.0295   49.0273 H   0  0  0  0  0  0  0  0  0  0  0  0
   60.0466   28.3103   48.6253 H   0  0  0  0  0  0  0  0  0  0  0  0
   59.3244   31.2659   48.8583 H   0  0  0  0  0  0  0  0  0  0  0  0
   60.4540   30.3041   49.8900 H   0  0  0  0  0  0  0  0  0  0  0  0
   62.5761   32.6751   46.6834 H   0  0  0  0  0  0  0  0  0  0  0  0
   64.5800   33.8799   47.5417 H   0  0  0  0  0  0  0  0  0  0  0  0
  1  2  1  0
  2  3  1  0
  3  4  2  0
  4  5  1  0
  5  6  2  0
  6  7  1  0
  7  8  1  0
  8  9  1  0
  9 10  1  0
 10 11  1  0
 11 12  2  0
 11 13  1  0
 13 14  1  0
 14 15  1  0
 15 16  2  0
 15 17  1  0
 17 18  2  0
 18 19  1  0
 19 20  2  0
 20 21  1  0
 21 22  1  0
 10 23  1  0
 23 24  1  0
  6 25  1  0
 25 26  2  0
 26  3  1  0
 24  7  1  0
 21 17  1  0
  1 27  1  0
  1 28  1  0
  1 29  1  0
  4 30  1  0
  5 31  1  0
  8 32  1  0
  8 33  1  0
  9 34  1  0
  9 35  1  0
 13 36  1  0
 13 37  1  0
 18 38  1  0
 19 39  1  0
 20 40  1  0
 22 41  1  0
 22 42  1  0
 22 43  1  0
 23 44  1  0
 23 45  1  0
 24 46  1  0
 24 47  1  0
 25 48  1  0
 26 49  1  0
M  END
>  <UniqueID>  (32) 
32

>  <SMILES>  (32) 
COc1ccc(N2CCN(C(=O)COC(=O)c3cccn3C)CC2)cc1

>  <Energy>  (32) 
77.89209960893494

>  <Genealogy>  (32) 
COc1ccc(N2CCN(C(=O)COC(=O)c3cccn3C)CC2)cc1 (3D coordinates assigned)
COc1ccc(N2CCN(C(=O)COC(=O)c3cccn3C)CC2)cc1 (nonaromatic ring conformer: 77.89209960893494 kcal/mol)

>  <smiles>  (32) 
COc1ccc(N2CCN(C(=O)COC(=O)c3cccn3C)CC2)cc1

>  <score_type>  (32) 
oracle

>  <origin>  (32) 
adg

>  <m_score__min__energy>  (32) 
-6.9800000000000004

>  <m_primary>  (32) 
energy

$$$$
32:0
     RDKit          3D

 49 52  0  0  0  0  0  0  0  0999 V2000
   59.6460   35.6760   45.6330 C   0  0  0  0  0  0  0  0  0  0  0  0
   59.3030   35.2660   47.0600 C   0  0  0  0  0  0  0  0  0  0  0  0
   59.2590   33.8100   47.1730 N   0  0  0  0  0  0  0  0  0  0  0  0
   60.0330   33.1120   47.9980 N   0  0  0  0  0  0  0  0  0  0  0  0
   59.7760   31.7970   47.8000 C   0  0  0  0  0  0  0  0  0  0  0  0
   60.4980   30.6820   48.4930 C   0  0  0  0  0  0  0  0  0  0  0  0
   59.7430   29.3630   48.5240 C   0  0  0  0  0  0  0  0  0  0  0  0
   59.8470   30.2070   49.7830 C   0  0  0  0  0  0  0  0  0  0  0  0
   58.8360   31.6730   46.7970 C   0  0  0  0  0  0  0  0  0  0  0  0
   58.2650   30.5650   46.1770 C   0  0  0  0  0  0  0  0  0  0  0  0
   57.3430   30.8000   45.1360 C   0  0  0  0  0  0  0  0  0  0  0  0
   56.6210   29.4360   44.2820 S   0  0  0  0  0  0  0  0  0  0  0  0
   55.1660   29.3390   44.6490 O   0  0  0  0  0  0  0  0  0  0  0  0
   56.7080   29.6740   42.7990 O   0  0  0  0  0  0  0  0  0  0  0  0
   57.4380   27.9390   44.6810 N   0  0  0  0  0  0  0  0  0  0  0  0
   58.8840   28.0210   44.3470 C   0  0  0  0  0  0  0  0  0  0  0  0
   59.8560   27.7410   45.5180 C   0  0  0  0  0  0  0  0  0  0  0  0
   59.8950   26.2800   46.0370 C   0  0  0  0  0  0  0  0  0  0  0  0
   58.6340   25.4520   45.7610 C   0  0  0  0  0  0  0  0  0  0  0  0
   57.3330   26.0500   46.3320 C   0  0  0  0  0  0  0  0  0  0  0  0
   57.1160   27.5490   46.0680 C   0  0  0  0  0  0  0  0  0  0  0  0
   57.0250   32.1280   44.7550 C   0  0  0  0  0  0  0  0  0  0  0  0
   57.6270   33.2230   45.4020 C   0  0  0  0  0  0  0  0  0  0  0  0
   58.5330   32.9530   46.4280 C   0  0  0  0  0  0  0  0  0  0  0  0
   60.3517   36.5195   45.6534 H   0  0  0  0  0  0  0  0  0  0  0  0
   60.1058   34.8259   45.1077 H   0  0  0  0  0  0  0  0  0  0  0  0
   58.7281   35.9785   45.1077 H   0  0  0  0  0  0  0  0  0  0  0  0
   60.0685   35.6601   47.7446 H   0  0  0  0  0  0  0  0  0  0  0  0
   58.3161   35.6750   47.3222 H   0  0  0  0  0  0  0  0  0  0  0  0
   61.5109   30.9958   48.2006 H   0  0  0  0  0  0  0  0  0  0  0  0
   58.7787   29.2690   48.0031 H   0  0  0  0  0  0  0  0  0  0  0  0
   59.9854   28.3221   48.2635 H   0  0  0  0  0  0  0  0  0  0  0  0
   58.9581   30.7242   50.1734 H   0  0  0  0  0  0  0  0  0  0  0  0
   60.1958   30.0305   50.8112 H   0  0  0  0  0  0  0  0  0  0  0  0
   58.5239   29.5422   46.4881 H   0  0  0  0  0  0  0  0  0  0  0  0
   59.0903   27.2883   43.5529 H   0  0  0  0  0  0  0  0  0  0  0  0
   59.0656   29.0636   44.0470 H   0  0  0  0  0  0  0  0  0  0  0  0
   60.8699   28.0064   45.1841 H   0  0  0  0  0  0  0  0  0  0  0  0
   59.4861   28.3443   46.3602 H   0  0  0  0  0  0  0  0  0  0  0  0
   60.7460   25.7724   45.5594 H   0  0  0  0  0  0  0  0  0  0  0  0
   59.9801   26.3485   47.1316 H   0  0  0  0  0  0  0  0  0  0  0  0
   58.5181   25.3572   44.6712 H   0  0  0  0  0  0  0  0  0  0  0  0
   58.7799   24.4859   46.2664 H   0  0  0  0  0  0  0  0  0  0  0  0
   56.4872   25.5031   45.8899 H   0  0  0  0  0  0  0  0  0  0  0  0
   57.4095   25.9460   47.4244 H   0  0  0  0  0  0  0  0  0  0  0  0
   56.0613   27.7913   46.2652 H   0  0  0  0  0  0  0  0  0  0  0  0
   57.7939   28.1036   46.7334 H   0  0  0  0  0  0  0  0  0  0  0  0
   56.3008   32.3041   43.9460 H   0  0  0  0  0  0  0  0  0  0  0  0
   57.3913   34.2567   45.1088 H   0  0  0  0  0  0  0  0  0  0  0  0
  1  2  1  0
  2  3  1  0
  3  4  1  0
  4  5  2  0
  5  6  1  0
  6  7  1  0
  7  8  1  0
  5  9  1  0
  9 10  2  0
 10 11  1  0
 11 12  1  0
 12 13  2  0
 12 14  2  0
 12 15  1  0
 15 16  1  0
 16 17  1  0
 17 18  1  0
 18 19  1  0
 19 20  1  0
 20 21  1  0
 11 22  2  0
 22 23  1  0
 23 24  2  0
 24  3  1  0
  8  6  1  0
 24  9  1  0
 21 15  1  0
  1 25  1  0
  1 26  1  0
  1 27  1  0
  2 28  1  0
  2 29  1  0
  6 30  1  0
  7 31  1  0
  7 32  1  0
  8 33  1  0
  8 34  1  0
 10 35  1  0
 16 36  1  0
 16 37  1  0
 17 38  1  0
 17 39  1  0
 18 40  1  0
 18 41  1  0
 19 42  1  0
 19 43  1  0
 20 44  1  0
 20 45  1  0
 21 46  1  0
 21 47  1  0
 22 48  1  0
 23 49  1  0
M  END
>  <UniqueID>  (33) 
33

>  <SMILES>  (33) 
CCn1nc(C2CC2)c2cc(S(=O)(=O)N3CCCCCC3)ccc21

>  <Energy>  (33) 
359.97250307197055

>  <Genealogy>  (33) 
CCn1nc(C2CC2)c2cc(S(=O)(=O)N3CCCCCC3)ccc21 (3D coordinates assigned)
CCn1nc(C2CC2)c2cc(S(=O)(=O)N3CCCCCC3)ccc21 (nonaromatic ring conformer: 359.97250307197055 kcal/mol)

>  <smiles>  (33) 
CCn1nc(C2CC2)c2cc(S(=O)(=O)N3CCCCCC3)ccc21

>  <score_type>  (33) 
oracle

>  <origin>  (33) 
adg

>  <m_score__min__energy>  (33) 
-6.3099999999999996

>  <m_primary>  (33) 
energy

$$$$
33:0
     RDKit          3D

 63 65  0  0  0  0  0  0  0  0999 V2000
   65.5440   35.3010   52.4370 C   0  0  0  0  0  0  0  0  0  0  0  0
   66.8190   34.4430   52.4940 C   0  0  0  0  0  0  0  0  0  0  0  0
   67.0180   33.5410   51.3250 N   0  0  0  0  0  0  0  0  0  0  0  0
   68.4330   33.3320   50.9410 C   0  0  0  0  0  0  0  0  0  0  0  0
   69.0210   34.5540   50.2330 C   0  0  0  0  0  0  0  0  0  0  0  0
   66.2870   32.2590   51.4670 C   0  0  0  0  0  0  0  0  0  0  0  0
   65.2540   32.1070   50.3340 C   0  0  0  0  0  0  0  0  0  0  0  0
   65.3000   33.2270   49.3750 N   0  0  0  0  0  0  0  0  0  0  0  0
   64.0070   33.4670   48.7760 C   0  0  0  0  0  0  0  0  0  0  0  0
   63.8440   33.4070   47.3820 C   0  0  0  0  0  0  0  0  0  0  0  0
   62.5810   33.5630   46.8080 C   0  0  0  0  0  0  0  0  0  0  0  0
   61.4510   33.7860   47.6160 C   0  0  0  0  0  0  0  0  0  0  0  0
   60.1360   33.8500   47.0220 N   0  0  0  0  0  0  0  0  0  0  0  0
   58.9320   33.4970   47.7880 C   0  0  0  0  0  0  0  0  0  0  0  0
   58.2540   32.2850   47.1390 C   0  0  0  0  0  0  0  0  0  0  0  0
   58.2240   32.4210   45.6750 N   0  0  0  0  0  0  0  0  0  0  0  0
   57.8060   31.3060   44.8710 C   0  0  0  0  0  0  0  0  0  0  0  0
   57.0040   31.5270   43.7420 C   0  0  0  0  0  0  0  0  0  0  0  0
   56.6100   30.4530   42.9390 C   0  0  0  0  0  0  0  0  0  0  0  0
   57.0100   29.1550   43.2610 C   0  0  0  0  0  0  0  0  0  0  0  0
   57.8070   28.9250   44.3850 C   0  0  0  0  0  0  0  0  0  0  0  0
   58.2060   29.9980   45.2070 C   0  0  0  0  0  0  0  0  0  0  0  0
   58.9760   29.8040   46.3630 O   0  0  0  0  0  0  0  0  0  0  0  0
   60.3990   29.7500   46.3890 C   0  0  0  0  0  0  0  0  0  0  0  0
   58.6440   33.6740   45.0370 C   0  0  0  0  0  0  0  0  0  0  0  0
   60.0150   34.1030   45.5760 C   0  0  0  0  0  0  0  0  0  0  0  0
   61.6170   33.8640   49.0100 C   0  0  0  0  0  0  0  0  0  0  0  0
   62.8840   33.7140   49.5830 C   0  0  0  0  0  0  0  0  0  0  0  0
   65.2081   35.5270   53.4598 H   0  0  0  0  0  0  0  0  0  0  0  0
   65.7574   36.2400   51.9052 H   0  0  0  0  0  0  0  0  0  0  0  0
   64.7545   34.7497   51.9052 H   0  0  0  0  0  0  0  0  0  0  0  0
   67.6842   35.1195   52.5554 H   0  0  0  0  0  0  0  0  0  0  0  0
   66.7144   33.7911   53.3738 H   0  0  0  0  0  0  0  0  0  0  0  0
   69.0211   33.1301   51.8484 H   0  0  0  0  0  0  0  0  0  0  0  0
   68.4739   32.4826   50.2432 H   0  0  0  0  0  0  0  0  0  0  0  0
   69.3701   35.2794   50.9826 H   0  0  0  0  0  0  0  0  0  0  0  0
   69.8672   34.2412   49.6036 H   0  0  0  0  0  0  0  0  0  0  0  0
   68.2486   35.0201   49.6036 H   0  0  0  0  0  0  0  0  0  0  0  0
   67.0031   31.4253   51.4200 H   0  0  0  0  0  0  0  0  0  0  0  0
   65.7629   32.2500   52.4341 H   0  0  0  0  0  0  0  0  0  0  0  0
   65.4581   31.1709   49.7935 H   0  0  0  0  0  0  0  0  0  0  0  0
   64.2538   32.0992   50.7918 H   0  0  0  0  0  0  0  0  0  0  0  0
   65.5960   34.0910   49.8860 H   0  0  0  0  0  0  0  0  0  0  0  0
   66.0240   33.0350   48.6430 H   0  0  0  0  0  0  0  0  0  0  0  0
   64.7187   33.2357   46.7374 H   0  0  0  0  0  0  0  0  0  0  0  0
   62.4684   33.5111   45.7150 H   0  0  0  0  0  0  0  0  0  0  0  0
   59.2141   33.2499   48.8221 H   0  0  0  0  0  0  0  0  0  0  0  0
   58.2362   34.3489   47.7928 H   0  0  0  0  0  0  0  0  0  0  0  0
   58.8122   31.3752   47.4047 H   0  0  0  0  0  0  0  0  0  0  0  0
   57.2193   32.2226   47.5071 H   0  0  0  0  0  0  0  0  0  0  0  0
   56.6842   32.5483   43.4877 H   0  0  0  0  0  0  0  0  0  0  0  0
   55.9839   30.6308   42.0522 H   0  0  0  0  0  0  0  0  0  0  0  0
   56.6969   28.3114   42.6283 H   0  0  0  0  0  0  0  0  0  0  0  0
   58.1249   27.9008   44.6298 H   0  0  0  0  0  0  0  0  0  0  0  0
   60.7464   29.7368   47.4326 H   0  0  0  0  0  0  0  0  0  0  0  0
   60.7407   28.8382   45.8772 H   0  0  0  0  0  0  0  0  0  0  0  0
   60.8089   30.6332   45.8772 H   0  0  0  0  0  0  0  0  0  0  0  0
   58.7107   33.5245   43.9492 H   0  0  0  0  0  0  0  0  0  0  0  0
   57.9062   34.4585   45.2610 H   0  0  0  0  0  0  0  0  0  0  0  0
   60.7979   33.5382   45.0487 H   0  0  0  0  0  0  0  0  0  0  0  0
   60.1267   35.1842   45.4068 H   0  0  0  0  0  0  0  0  0  0  0  0
   60.7441   34.0443   49.6546 H   0  0  0  0  0  0  0  0  0  0  0  0
   63.0020   33.7900   50.6740 H   0  0  0  0  0  0  0  0  0  0  0  0
  1  2  1  0
  2  3  1  0
  3  4  1  0
  4  5  1  0
  3  6  1  0
  6  7  1  0
  7  8  1  0
  8  9  1  0
  9 10  2  0
 10 11  1  0
 11 12  2  0
 12 13  1  0
 13 14  1  0
 14 15  1  0
 15 16  1  0
 16 17  1  0
 17 18  2  0
 18 19  1  0
 19 20  2  0
 20 21  1  0
 21 22  2  0
 22 23  1  0
 23 24  1  0
 16 25  1  0
 25 26  1  0
 12 27  1  0
 27 28  2  0
 28  9  1  0
 26 13  1  0
 22 17  1  0
  1 29  1  0
  1 30  1  0
  1 31  1  0
  2 32  1  0
  2 33  1  0
  4 34  1  0
  4 35  1  0
  5 36  1  0
  5 37  1  0
  5 38  1  0
  6 39  1  0
  6 40  1  0
  7 41  1  0
  7 42  1  0
  8 43  1  0
  8 44  1  0
 10 45  1  0
 11 46  1  0
 14 47  1  0
 14 48  1  0
 15 49  1  0
 15 50  1  0
 18 51  1  0
 19 52  1  0
 20 53  1  0
 21 54  1  0
 24 55  1  0
 24 56  1  0
 24 57  1  0
 25 58  1  0
 25 59  1  0
 26 60  1  0
 26 61  1  0
 27 62  1  0
 28 63  1  0
M  CHG  1   8   1
M  END
>  <UniqueID>  (34) 
34

>  <SMILES>  (34) 
CCN(CC)CC[NH2+]c1ccc(N2CCN(c3ccccc3OC)CC2)cc1

>  <Energy>  (34) 
74.84416993394063

>  <Genealogy>  (34) 
CCN(CC)CC[NH2+]c1ccc(N2CCN(c3ccccc3OC)CC2)cc1 (protonated)
CCN(CC)CC[NH2+]c1ccc(N2CCN(c3ccccc3OC)CC2)cc1 (3D coordinates assigned)
CCN(CC)CC[NH2+]c1ccc(N2CCN(c3ccccc3OC)CC2)cc1 (nonaromatic ring conformer: 74.84416993394063 kcal/mol)

>  <smiles>  (34) 
CCN(CC)CCNc1ccc(N2CCN(c3ccccc3OC)CC2)cc1

>  <score_type>  (34) 
oracle

>  <origin>  (34) 
adg

>  <m_score__min__energy>  (34) 
-6.1900000000000004

>  <m_primary>  (34) 
energy

$$$$
34:0
     RDKit          3D

 41 43  0  0  0  0  0  0  0  0999 V2000
   59.0360   31.9810   51.5140 C   0  0  0  0  0  0  0  0  0  0  0  0
   59.1470   32.6960   50.2030 C   0  0  0  0  0  0  0  0  0  0  0  0
   59.9170   33.8620   50.0980 C   0  0  0  0  0  0  0  0  0  0  0  0
   60.0000   34.5500   48.8850 C   0  0  0  0  0  0  0  0  0  0  0  0
   59.3080   34.0800   47.7550 C   0  0  0  0  0  0  0  0  0  0  0  0
   59.3130   34.7850   46.5390 C   0  0  0  0  0  0  0  0  0  0  0  0
   59.9610   35.8600   46.4150 O   0  0  0  0  0  0  0  0  0  0  0  0
   58.5820   34.3000   45.4510 C   0  0  0  0  0  0  0  0  0  0  0  0
   57.8590   33.1050   45.5750 C   0  0  0  0  0  0  0  0  0  0  0  0
   57.0650   32.5780   44.4090 C   0  0  0  0  0  0  0  0  0  0  0  0
   58.0630   31.4570   43.3590 S   0  0  0  0  0  0  0  0  0  0  0  0
   56.7910   30.1620   43.1170 C   0  0  0  0  0  0  0  0  0  0  0  0
   56.2160   29.7620   44.4400 C   0  0  0  0  0  0  0  0  0  0  0  0
   55.0240   29.3410   44.5020 O   0  0  0  0  0  0  0  0  0  0  0  0
   57.0200   29.8940   45.6220 N   0  0  0  0  0  0  0  0  0  0  0  0
   58.1110   29.0650   46.0430 C   0  0  0  0  0  0  0  0  0  0  0  0
   58.8940   29.3580   47.1790 C   0  0  0  0  0  0  0  0  0  0  0  0
   59.9370   28.5040   47.5560 C   0  0  0  0  0  0  0  0  0  0  0  0
   60.1820   27.3350   46.8330 C   0  0  0  0  0  0  0  0  0  0  0  0
   59.3920   27.0220   45.7250 C   0  0  0  0  0  0  0  0  0  0  0  0
   58.3590   27.8840   45.3330 C   0  0  0  0  0  0  0  0  0  0  0  0
   57.8820   32.4160   46.7540 N   0  0  0  0  0  0  0  0  0  0  0  0
   58.5640   32.8800   47.8430 C   0  0  0  0  0  0  0  0  0  0  0  0
   58.5030   32.1880   49.0640 C   0  0  0  0  0  0  0  0  0  0  0  0
   59.1481   32.7032   52.3361 H   0  0  0  0  0  0  0  0  0  0  0  0
   58.0517   31.4951   51.5845 H   0  0  0  0  0  0  0  0  0  0  0  0
   59.8267   31.2195   51.5845 H   0  0  0  0  0  0  0  0  0  0  0  0
   60.4602   34.2384   50.9773 H   0  0  0  0  0  0  0  0  0  0  0  0
   60.6092   35.4631   48.8137 H   0  0  0  0  0  0  0  0  0  0  0  0
   58.5739   34.8539   44.5006 H   0  0  0  0  0  0  0  0  0  0  0  0
   56.1938   32.0261   44.7916 H   0  0  0  0  0  0  0  0  0  0  0  0
   56.7510   33.4341   43.7938 H   0  0  0  0  0  0  0  0  0  0  0  0
   55.9892   30.5535   42.4737 H   0  0  0  0  0  0  0  0  0  0  0  0
   57.2526   29.2841   42.6414 H   0  0  0  0  0  0  0  0  0  0  0  0
   58.6842   30.2611   47.7710 H   0  0  0  0  0  0  0  0  0  0  0  0
   60.5650   28.7544   48.4237 H   0  0  0  0  0  0  0  0  0  0  0  0
   60.9968   26.6610   47.1360 H   0  0  0  0  0  0  0  0  0  0  0  0
   59.5807   26.0977   45.1592 H   0  0  0  0  0  0  0  0  0  0  0  0
   57.7383   27.6309   44.4609 H   0  0  0  0  0  0  0  0  0  0  0  0
   57.3430   31.5230   46.8270 H   0  0  0  0  0  0  0  0  0  0  0  0
   57.9466   31.2413   49.1279 H   0  0  0  0  0  0  0  0  0  0  0  0
  1  2  1  0
  2  3  2  0
  3  4  1  0
  4  5  2  0
  5  6  1  0
  6  7  2  0
  6  8  1  0
  8  9  2  0
  9 10  1  0
 10 11  1  0
 11 12  1  0
 12 13  1  0
 13 14  2  0
 13 15  1  0
 15 16  1  0
 16 17  2  0
 17 18  1  0
 18 19  2  0
 19 20  1  0
 20 21  2  0
  9 22  1  0
 22 23  1  0
 23 24  2  0
 24  2  1  0
 23  5  1  0
 21 16  1  0
  1 25  1  0
  1 26  1  0
  1 27  1  0
  3 28  1  0
  4 29  1  0
  8 30  1  0
 10 31  1  0
 10 32  1  0
 12 33  1  0
 12 34  1  0
 17 35  1  0
 18 36  1  0
 19 37  1  0
 20 38  1  0
 21 39  1  0
 22 40  1  0
 24 41  1  0
M  CHG  1  15  -1
M  END
>  <UniqueID>  (35) 
35

>  <SMILES>  (35) 
Cc1ccc2c(=O)cc(CSCC(=O)[N-]c3ccccc3)[nH]c2c1

>  <Energy>  (35) 
39.88105316797345

>  <Genealogy>  (35) 
Cc1ccc2c(=O)cc(CSCC(=O)[N-]c3ccccc3)[nH]c2c1 (protonated)
Cc1ccc2c(=O)cc(CSCC(=O)[N-]c3ccccc3)[nH]c2c1 (3D coordinates assigned)
Cc1ccc2c(=O)cc(CSCC(=O)[N-]c3ccccc3)[nH]c2c1 (optimized conformer: 39.88105316797345 kcal/mol)

>  <smiles>  (35) 
Cc1ccc2c(=O)cc(CSCC(=O)Nc3ccccc3)[nH]c2c1

>  <score_type>  (35) 
oracle

>  <origin>  (35) 
adg

>  <m_score__min__energy>  (35) 
-9.3800000000000008

>  <m_primary>  (35) 
energy

$$$$
35:0
     RDKit          3D

 20 20  0  0  0  0  0  0  0  0999 V2000
   55.1440   27.6300   45.6000 H   0  0  0  0  0  0  0  0  0  0  0  0
   55.1400   26.6960   45.9910 O   0  0  0  0  0  0  0  0  0  0  0  0
   56.1850   25.7900   45.8010 C   0  0  0  0  0  0  0  0  0  0  0  0
   57.5070   26.2300   45.9690 C   0  0  0  0  0  0  0  0  0  0  0  0
   57.8740   28.0450   46.4530 Br  0  0  0  0  0  0  0  0  0  0  0  0
   58.5740   25.3450   45.7860 C   0  0  0  0  0  0  0  0  0  0  0  0
   59.6067   25.6991   45.9208 H   0  0  0  0  0  0  0  0  0  0  0  0
   58.3360   24.0060   45.4310 C   0  0  0  0  0  0  0  0  0  0  0  0
   59.4460   23.0520   45.2310 C   0  0  0  0  0  0  0  0  0  0  0  0
   60.4560   23.4327   45.0188 H   0  0  0  0  0  0  0  0  0  0  0  0
   59.2470   21.7690   45.3020 N   0  0  0  0  0  0  0  0  0  0  0  0
   58.4790   21.1390   46.2690 O   0  0  0  0  0  0  0  0  0  0  0  0
   57.4000   20.2580   45.9720 C   0  0  0  0  0  0  0  0  0  0  0  0
   56.9547   19.8944   46.9098 H   0  0  0  0  0  0  0  0  0  0  0  0
   56.6379   20.7953   45.3884 H   0  0  0  0  0  0  0  0  0  0  0  0
   57.7740   19.4039   45.3884 H   0  0  0  0  0  0  0  0  0  0  0  0
   57.0140   23.5690   45.2630 C   0  0  0  0  0  0  0  0  0  0  0  0
   56.8185   22.5229   44.9849 H   0  0  0  0  0  0  0  0  0  0  0  0
   55.9410   24.4480   45.4450 C   0  0  0  0  0  0  0  0  0  0  0  0
   54.1650   23.7730   45.1960 Br  0  0  0  0  0  0  0  0  0  0  0  0
  1  2  1  0
  2  3  1  0
  3  4  2  0
  4  5  1  0
  4  6  1  0
  6  7  1  0
  6  8  2  0
  8  9  1  0
  9 10  1  0
  9 11  2  0
 11 12  1  0
 12 13  1  0
 13 14  1  0
 13 15  1  0
 13 16  1  0
  8 17  1  0
 17 18  1  0
 17 19  2  0
 19 20  1  0
 19  3  1  0
M  END
>  <UniqueID>  (36) 
36

>  <SMILES>  (36) 
CO/N=C/c1cc(Br)c(O)c(Br)c1

>  <Energy>  (36) 
19.75598822370153

>  <Genealogy>  (36) 
CO/N=C/c1cc(Br)c(O)c(Br)c1 (cis-trans isomerization)
CO/N=C/c1cc(Br)c(O)c(Br)c1 (3D coordinates assigned)
CO/N=C/c1cc(Br)c(O)c(Br)c1 (optimized conformer: 19.75598822370153 kcal/mol)

>  <smiles>  (36) 
CON=Cc1cc(Br)c(O)c(Br)c1

>  <score_type>  (36) 
oracle

>  <origin>  (36) 
adg

>  <m_score__min__energy>  (36) 
-6.0999999999999996

>  <m_primary>  (36) 
energy

$$$$
36:0
     RDKit          3D

 36 38  0  0  0  0  0  0  0  0999 V2000
   55.1450   29.8130   43.7370 C   0  0  0  0  0  0  0  0  0  0  0  0
   56.4170   29.9190   44.5110 C   0  0  0  0  0  0  0  0  0  0  0  0
   56.8960   31.1380   44.8660 N   0  0  0  0  0  0  0  0  0  0  0  0
   58.0690   31.2720   45.5430 C   0  0  0  0  0  0  0  0  0  0  0  0
   58.5480   32.6310   45.9050 C   0  0  0  0  0  0  0  0  0  0  0  0
   58.7700   33.6180   44.9230 C   0  0  0  0  0  0  0  0  0  0  0  0
   59.2270   34.8890   45.2860 C   0  0  0  0  0  0  0  0  0  0  0  0
   59.4750   35.1880   46.6280 C   0  0  0  0  0  0  0  0  0  0  0  0
   59.2710   34.2160   47.6080 C   0  0  0  0  0  0  0  0  0  0  0  0
   58.8140   32.9430   47.2520 C   0  0  0  0  0  0  0  0  0  0  0  0
   58.8080   30.1200   45.8570 C   0  0  0  0  0  0  0  0  0  0  0  0
   58.3070   28.8620   45.4790 C   0  0  0  0  0  0  0  0  0  0  0  0
   59.0260   27.6440   45.7720 N   0  0  0  0  0  0  0  0  0  0  0  0
   58.5270   26.3690   45.2410 C   0  0  0  0  0  0  0  0  0  0  0  0
   58.9710   25.2100   46.1390 C   0  0  0  0  0  0  0  0  0  0  0  0
   60.3660   25.2550   46.3630 O   0  0  0  0  0  0  0  0  0  0  0  0
   60.6870   26.4120   47.1100 C   0  0  0  0  0  0  0  0  0  0  0  0
   60.3950   27.6810   46.3040 C   0  0  0  0  0  0  0  0  0  0  0  0
   57.1260   28.8000   44.8070 N   0  0  0  0  0  0  0  0  0  0  0  0
   54.2967   29.7423   44.4337 H   0  0  0  0  0  0  0  0  0  0  0  0
   55.0259   30.7043   43.1035 H   0  0  0  0  0  0  0  0  0  0  0  0
   55.1751   28.9142   43.1035 H   0  0  0  0  0  0  0  0  0  0  0  0
   58.5825   33.3868   43.8640 H   0  0  0  0  0  0  0  0  0  0  0  0
   59.3915   35.6546   44.5135 H   0  0  0  0  0  0  0  0  0  0  0  0
   59.8310   36.1893   46.9119 H   0  0  0  0  0  0  0  0  0  0  0  0
   59.4702   34.4516   48.6638 H   0  0  0  0  0  0  0  0  0  0  0  0
   58.6613   32.1802   48.0297 H   0  0  0  0  0  0  0  0  0  0  0  0
   59.7660   30.2008   46.3915 H   0  0  0  0  0  0  0  0  0  0  0  0
   57.4281   26.3973   45.2016 H   0  0  0  0  0  0  0  0  0  0  0  0
   58.9360   26.2168   44.2313 H   0  0  0  0  0  0  0  0  0  0  0  0
   58.4482   25.2808   47.1042 H   0  0  0  0  0  0  0  0  0  0  0  0
   58.7244   24.2618   45.6389 H   0  0  0  0  0  0  0  0  0  0  0  0
   60.0860   26.4242   48.0313 H   0  0  0  0  0  0  0  0  0  0  0  0
   61.7599   26.3881   47.3516 H   0  0  0  0  0  0  0  0  0  0  0  0
   60.5069   28.5592   46.9569 H   0  0  0  0  0  0  0  0  0  0  0  0
   61.1033   27.7424   45.4646 H   0  0  0  0  0  0  0  0  0  0  0  0
  1  2  1  0
  2  3  2  0
  3  4  1  0
  4  5  1  0
  5  6  2  0
  6  7  1  0
  7  8  2  0
  8  9  1  0
  9 10  2  0
  4 11  2  0
 11 12  1  0
 12 13  1  0
 13 14  1  0
 14 15  1  0
 15 16  1  0
 16 17  1  0
 17 18  1  0
 12 19  2  0
 19  2  1  0
 10  5  1  0
 18 13  1  0
  1 20  1  0
  1 21  1  0
  1 22  1  0
  6 23  1  0
  7 24  1  0
  8 25  1  0
  9 26  1  0
 10 27  1  0
 11 28  1  0
 14 29  1  0
 14 30  1  0
 15 31  1  0
 15 32  1  0
 17 33  1  0
 17 34  1  0
 18 35  1  0
 18 36  1  0
M  END
>  <UniqueID>  (37) 
37

>  <SMILES>  (37) 
Cc1nc(-c2ccccc2)cc(N2CCOCC2)n1

>  <Energy>  (37) 
44.51316289549233

>  <Genealogy>  (37) 
Cc1nc(-c2ccccc2)cc(N2CCOCC2)n1 (3D coordinates assigned)
Cc1nc(-c2ccccc2)cc(N2CCOCC2)n1 (nonaromatic ring conformer: 44.51316289549233 kcal/mol)

>  <smiles>  (37) 
Cc1nc(-c2ccccc2)cc(N2CCOCC2)n1

>  <score_type>  (37) 
oracle

>  <origin>  (37) 
adg

>  <m_score__min__energy>  (37) 
-6.6699999999999999

>  <m_primary>  (37) 
energy

$$$$
37:0
     RDKit          3D

 57 59  0  0  0  0  0  0  0  0999 V2000
   58.4150   33.4830   44.1100 C   0  0  0  0  0  0  0  0  0  0  0  0
   57.4640   34.0490   45.1650 C   0  0  0  0  0  0  0  0  0  0  0  0
   57.3390   33.1360   46.3930 C   0  0  0  0  0  0  0  0  0  0  0  0
   58.4720   32.1370   46.4770 C   0  0  0  0  0  0  0  0  0  0  0  0
   59.7090   32.5470   46.9800 C   0  0  0  0  0  0  0  0  0  0  0  0
   60.7680   31.6410   47.1010 C   0  0  0  0  0  0  0  0  0  0  0  0
   62.0780   32.0900   47.6400 C   0  0  0  0  0  0  0  0  0  0  0  0
   62.8230   33.0770   46.9810 C   0  0  0  0  0  0  0  0  0  0  0  0
   64.0490   33.4870   47.5080 C   0  0  0  0  0  0  0  0  0  0  0  0
   64.5230   32.9310   48.6550 N   0  0  0  0  0  0  0  0  0  0  0  0
   63.8330   31.9580   49.3190 C   0  0  0  0  0  0  0  0  0  0  0  0
   64.3560   31.4030   50.5410 N   0  0  0  0  0  0  0  0  0  0  0  0
   63.5280   30.5050   51.3550 C   0  0  0  0  0  0  0  0  0  0  0  0
   64.3960   29.7180   52.3460 C   0  0  0  0  0  0  0  0  0  0  0  0
   65.6580   29.3100   51.7130 N   0  0  0  0  0  0  0  0  0  0  0  0
   66.5020   30.4630   51.3360 C   0  0  0  0  0  0  0  0  0  0  0  0
   65.7020   31.7430   51.0170 C   0  0  0  0  0  0  0  0  0  0  0  0
   62.5910   31.5310   48.8220 C   0  0  0  0  0  0  0  0  0  0  0  0
   60.5770   30.3070   46.7080 C   0  0  0  0  0  0  0  0  0  0  0  0
   59.3360   29.8470   46.2000 C   0  0  0  0  0  0  0  0  0  0  0  0
   59.1330   28.3660   45.7780 C   0  0  0  0  0  0  0  0  0  0  0  0
   58.8230   28.2840   44.2650 C   0  0  0  0  0  0  0  0  0  0  0  0
   57.9550   27.6790   46.5150 C   0  0  0  0  0  0  0  0  0  0  0  0
   60.4030   27.5440   46.0990 C   0  0  0  0  0  0  0  0  0  0  0  0
   58.2810   30.7950   46.0930 C   0  0  0  0  0  0  0  0  0  0  0  0
   57.0320   30.4210   45.6070 O   0  0  0  0  0  0  0  0  0  0  0  0
   59.2580   32.9813   44.6077 H   0  0  0  0  0  0  0  0  0  0  0  0
   57.8763   32.7585   43.4817 H   0  0  0  0  0  0  0  0  0  0  0  0
   58.7949   34.3021   43.4817 H   0  0  0  0  0  0  0  0  0  0  0  0
   57.8417   35.0293   45.4911 H   0  0  0  0  0  0  0  0  0  0  0  0
   56.4674   34.1321   44.7070 H   0  0  0  0  0  0  0  0  0  0  0  0
   57.3469   33.7584   47.3000 H   0  0  0  0  0  0  0  0  0  0  0  0
   56.3977   32.5739   46.3028 H   0  0  0  0  0  0  0  0  0  0  0  0
   59.8520   33.5943   47.2844 H   0  0  0  0  0  0  0  0  0  0  0  0
   62.4432   33.5271   46.0519 H   0  0  0  0  0  0  0  0  0  0  0  0
   64.6342   34.2632   46.9932 H   0  0  0  0  0  0  0  0  0  0  0  0
   65.4490   33.2540   49.0130 H   0  0  0  0  0  0  0  0  0  0  0  0
   62.7911   31.1005   51.9139 H   0  0  0  0  0  0  0  0  0  0  0  0
   63.0172   29.7937   50.6893 H   0  0  0  0  0  0  0  0  0  0  0  0
   64.6164   30.3523   53.2173 H   0  0  0  0  0  0  0  0  0  0  0  0
   63.8486   28.8175   52.6615 H   0  0  0  0  0  0  0  0  0  0  0  0
   65.4320   28.7600   50.8490 H   0  0  0  0  0  0  0  0  0  0  0  0
   67.1852   30.6801   52.1703 H   0  0  0  0  0  0  0  0  0  0  0  0
   67.0360   30.1817   50.4164 H   0  0  0  0  0  0  0  0  0  0  0  0
   65.6201   32.3549   51.9274 H   0  0  0  0  0  0  0  0  0  0  0  0
   66.2268   32.3033   50.2292 H   0  0  0  0  0  0  0  0  0  0  0  0
   62.0199   30.7588   49.3583 H   0  0  0  0  0  0  0  0  0  0  0  0
   61.4138   29.5986   46.7967 H   0  0  0  0  0  0  0  0  0  0  0  0
   57.7687   28.0051   44.1213 H   0  0  0  0  0  0  0  0  0  0  0  0
   59.0102   29.2626   43.7988 H   0  0  0  0  0  0  0  0  0  0  0  0
   59.4696   27.5260   43.7988 H   0  0  0  0  0  0  0  0  0  0  0  0
   58.1023   27.7649   47.6017 H   0  0  0  0  0  0  0  0  0  0  0  0
   57.0109   28.1681   46.2331 H   0  0  0  0  0  0  0  0  0  0  0  0
   57.9158   26.6164   46.2331 H   0  0  0  0  0  0  0  0  0  0  0  0
   60.5234   27.4661   47.1896 H   0  0  0  0  0  0  0  0  0  0  0  0
   60.3065   26.5366   45.6679 H   0  0  0  0  0  0  0  0  0  0  0  0
   61.2825   28.0446   45.6679 H   0  0  0  0  0  0  0  0  0  0  0  0
  1  2  1  0
  2  3  1  0
  3  4  1  0
  4  5  2  0
  5  6  1  0
  6  7  1  0
  7  8  2  0
  8  9  1  0
  9 10  2  0
 10 11  1  0
 11 12  1  0
 12 13  1  0
 13 14  1  0
 14 15  1  0
 15 16  1  0
 16 17  1  0
 11 18  2  0
  6 19  2  0
 19 20  1  0
 20 21  1  0
 21 22  1  0
 21 23  1  0
 21 24  1  0
 20 25  2  0
 25 26  1  0
 25  4  1  0
 18  7  1  0
 17 12  1  0
  1 27  1  0
  1 28  1  0
  1 29  1  0
  2 30  1  0
  2 31  1  0
  3 32  1  0
  3 33  1  0
  5 34  1  0
  8 35  1  0
  9 36  1  0
 10 37  1  0
 13 38  1  0
 13 39  1  0
 14 40  1  0
 14 41  1  0
 15 42  1  0
 16 43  1  0
 16 44  1  0
 17 45  1  0
 17 46  1  0
 18 47  1  0
 19 48  1  0
 22 49  1  0
 22 50  1  0
 22 51  1  0
 23 52  1  0
 23 53  1  0
 23 54  1  0
 24 55  1  0
 24 56  1  0
 24 57  1  0
M  CHG  2  10   1  26  -1
M  END
>  <UniqueID>  (38) 
38

>  <SMILES>  (38) 
CCCc1cc(-c2cc[nH+]c(N3CCNCC3)c2)cc(C(C)(C)C)c1[O-]

>  <Energy>  (38) 
71.14879553515928

>  <Genealogy>  (38) 
CCCc1cc(-c2cc[nH+]c(N3CCNCC3)c2)cc(C(C)(C)C)c1[O-] (protonated)
CCCc1cc(-c2cc[nH+]c(N3CCNCC3)c2)cc(C(C)(C)C)c1[O-] (3D coordinates assigned)
CCCc1cc(-c2cc[nH+]c(N3CCNCC3)c2)cc(C(C)(C)C)c1[O-] (nonaromatic ring conformer: 71.14879553515928 kcal/mol)

>  <smiles>  (38) 
CCCc1cc(-c2ccnc(N3CCNCC3)c2)cc(C(C)(C)C)c1O

>  <score_type>  (38) 
oracle

>  <origin>  (38) 
adg

>  <m_score__min__energy>  (38) 
-7.9400000000000004

>  <m_primary>  (38) 
energy

$$$$
38:0
     RDKit          3D

 49 50  0  0  0  0  0  0  0  0999 V2000
   56.6280   22.7050   42.9490 C   0  0  0  0  0  0  0  0  0  0  0  0
   57.0160   24.0320   43.6030 C   0  0  0  0  0  0  0  0  0  0  0  0
   56.0640   24.4300   44.7410 C   0  0  0  0  0  0  0  0  0  0  0  0
   56.6340   25.8760   45.6360 S   0  0  0  0  0  0  0  0  0  0  0  0
   57.6820   25.4520   46.6260 O   0  0  0  0  0  0  0  0  0  0  0  0
   55.4850   26.4640   46.4040 O   0  0  0  0  0  0  0  0  0  0  0  0
   57.3560   27.0900   44.5980 N   0  0  0  0  0  0  0  0  0  0  0  0
   57.6900   28.4170   45.1870 C   0  0  0  0  0  0  0  0  0  0  0  0
   56.5590   29.4070   44.9380 C   0  0  0  0  0  0  0  0  0  0  0  0
   55.4380   28.9820   44.5420 O   0  0  0  0  0  0  0  0  0  0  0  0
   56.7680   30.8160   45.0970 N   0  0  0  0  0  0  0  0  0  0  0  0
   57.2060   31.7020   44.0240 C   0  0  0  0  0  0  0  0  0  0  0  0
   58.3170   32.6430   44.5150 C   0  0  1  0  0  0  0  0  0  0  0  0
   57.7550   33.9920   44.9500 C   0  0  0  0  0  0  0  0  0  0  0  0
   57.6880   33.8680   46.4390 C   0  0  0  0  0  0  0  0  0  0  0  0
   58.7700   32.8540   46.7420 C   0  0  0  0  0  0  0  0  0  0  0  0
   58.9990   32.0570   45.6030 O   0  0  0  0  0  0  0  0  0  0  0  0
   59.0390   28.9760   44.6370 C   0  0  0  0  0  0  0  0  0  0  0  0
   60.2550   28.0780   44.9390 C   0  0  0  0  0  0  0  0  0  0  0  0
   60.1770   27.3780   46.3090 C   0  0  0  0  0  0  0  0  0  0  0  0
   59.2610   28.1210   47.2770 C   0  0  0  0  0  0  0  0  0  0  0  0
   57.8180   28.2320   46.7420 C   0  0  0  0  0  0  0  0  0  0  0  0
   56.4105   21.9612   43.7297 H   0  0  0  0  0  0  0  0  0  0  0  0
   55.7352   22.8517   42.3235 H   0  0  0  0  0  0  0  0  0  0  0  0
   57.4593   22.3476   42.3235 H   0  0  0  0  0  0  0  0  0  0  0  0
   58.0334   23.9396   44.0108 H   0  0  0  0  0  0  0  0  0  0  0  0
   56.9579   24.8136   42.8311 H   0  0  0  0  0  0  0  0  0  0  0  0
   55.0739   24.6468   44.3136 H   0  0  0  0  0  0  0  0  0  0  0  0
   56.0218   23.5912   45.4514 H   0  0  0  0  0  0  0  0  0  0  0  0
   56.7470   27.1830   43.7560 H   0  0  0  0  0  0  0  0  0  0  0  0
   57.5887   31.0963   43.1894 H   0  0  0  0  0  0  0  0  0  0  0  0
   56.3493   32.3084   43.6947 H   0  0  0  0  0  0  0  0  0  0  0  0
   59.0099   32.8057   43.6763 H   0  0  0  0  0  0  0  0  0  0  0  0
   58.4237   34.8129   44.6519 H   0  0  0  0  0  0  0  0  0  0  0  0
   56.7822   34.2231   44.4914 H   0  0  0  0  0  0  0  0  0  0  0  0
   57.9002   34.8310   46.9264 H   0  0  0  0  0  0  0  0  0  0  0  0
   56.6955   33.5675   46.8060 H   0  0  0  0  0  0  0  0  0  0  0  0
   59.6977   33.3782   47.0152 H   0  0  0  0  0  0  0  0  0  0  0  0
   58.4499   32.2151   47.5783 H   0  0  0  0  0  0  0  0  0  0  0  0
   58.9503   29.0840   43.5459 H   0  0  0  0  0  0  0  0  0  0  0  0
   59.2172   29.9365   45.1426 H   0  0  0  0  0  0  0  0  0  0  0  0
   60.3210   27.3069   44.1573 H   0  0  0  0  0  0  0  0  0  0  0  0
   61.1412   28.7293   44.9585 H   0  0  0  0  0  0  0  0  0  0  0  0
   59.7905   26.3582   46.1656 H   0  0  0  0  0  0  0  0  0  0  0  0
   61.1883   27.3620   46.7414 H   0  0  0  0  0  0  0  0  0  0  0  0
   59.2435   27.5800   48.2346 H   0  0  0  0  0  0  0  0  0  0  0  0
   59.6553   29.1404   47.4013 H   0  0  0  0  0  0  0  0  0  0  0  0
   57.2810   27.3132   47.0201 H   0  0  0  0  0  0  0  0  0  0  0  0
   57.3963   29.1428   47.1921 H   0  0  0  0  0  0  0  0  0  0  0  0
  1  2  1  0
  2  3  1  0
  3  4  1  0
  4  5  2  0
  4  6  2  0
  4  7  1  0
  7  8  1  0
  8  9  1  0
  9 10  2  0
  9 11  1  0
 11 12  1  0
 12 13  1  0
 13 14  1  0
 14 15  1  0
 15 16  1  0
 16 17  1  0
  8 18  1  0
 18 19  1  0
 19 20  1  0
 20 21  1  0
 21 22  1  0
 22  8  1  0
 17 13  1  0
  1 23  1  0
  1 24  1  0
  1 25  1  0
  2 26  1  0
  2 27  1  0
  3 28  1  0
  3 29  1  0
  7 30  1  0
 12 31  1  0
 12 32  1  0
 13 33  1  6
 14 34  1  0
 14 35  1  0
 15 36  1  0
 15 37  1  0
 16 38  1  0
 16 39  1  0
 18 40  1  0
 18 41  1  0
 19 42  1  0
 19 43  1  0
 20 44  1  0
 20 45  1  0
 21 46  1  0
 21 47  1  0
 22 48  1  0
 22 49  1  0
M  CHG  1  11  -1
M  END
>  <UniqueID>  (39) 
39

>  <SMILES>  (39) 
CCCS(=O)(=O)NC1(C(=O)[N-]C[C@H]2CCCO2)CCCCC1

>  <Energy>  (39) 
49.83418179504159

>  <Genealogy>  (39) 
CCCS(=O)(=O)NC1(C(=O)[N-]CC2CCCO2)CCCCC1 (protonated)
CCCS(=O)(=O)NC1(C(=O)[N-]C[C@H]2CCCO2)CCCCC1 (chirality)
CCCS(=O)(=O)NC1(C(=O)[N-]C[C@H]2CCCO2)CCCCC1 (3D coordinates assigned)
CCCS(=O)(=O)NC1(C(=O)[N-]C[C@H]2CCCO2)CCCCC1 (nonaromatic ring conformer: 49.83418179504159 kcal/mol)

>  <smiles>  (39) 
CCCS(=O)(=O)NC1(C(=O)NCC2CCCO2)CCCCC1

>  <score_type>  (39) 
oracle

>  <origin>  (39) 
adg

>  <m_score__min__energy>  (39) 
-10.390000000000001

>  <m_primary>  (39) 
energy

$$$$
39:0
     RDKit          3D

 18 19  0  0  0  0  0  0  0  0999 V2000
   56.3500   30.1080   43.6530 Cl  0  0  0  0  0  0  0  0  0  0  0  0
   57.2690   31.4740   44.2730 C   0  0  0  0  0  0  0  0  0  0  0  0
   57.4400   31.6010   45.6190 N   0  0  0  0  0  0  0  0  0  0  0  0
   58.1430   32.6390   46.1580 C   0  0  0  0  0  0  0  0  0  0  0  0
   58.3040   32.7480   47.5480 C   0  0  0  0  0  0  0  0  0  0  0  0
   59.0270   33.8150   48.0900 C   0  0  0  0  0  0  0  0  0  0  0  0
   59.5920   34.7800   47.2510 C   0  0  0  0  0  0  0  0  0  0  0  0
   59.4380   34.6830   45.8640 C   0  0  0  0  0  0  0  0  0  0  0  0
   58.7150   33.6150   45.3110 C   0  0  0  0  0  0  0  0  0  0  0  0
   58.5480   33.4960   43.9270 C   0  0  0  0  0  0  0  0  0  0  0  0
   57.8240   32.4240   43.4000 C   0  0  0  0  0  0  0  0  0  0  0  0
   57.6140   32.2940   41.5000 Br  0  0  0  0  0  0  0  0  0  0  0  0
   57.0170   30.8800   46.2480 H   0  0  0  0  0  0  0  0  0  0  0  0
   57.8603   31.9921   48.2126 H   0  0  0  0  0  0  0  0  0  0  0  0
   59.1516   33.8954   49.1800 H   0  0  0  0  0  0  0  0  0  0  0  0
   60.1592   35.6178   47.6826 H   0  0  0  0  0  0  0  0  0  0  0  0
   59.8838   35.4441   45.2067 H   0  0  0  0  0  0  0  0  0  0  0  0
   58.9870   34.2469   43.2537 H   0  0  0  0  0  0  0  0  0  0  0  0
  1  2  1  0
  2  3  2  0
  3  4  1  0
  4  5  2  0
  5  6  1  0
  6  7  2  0
  7  8  1  0
  8  9  2  0
  9 10  1  0
 10 11  2  0
 11 12  1  0
 11  2  1  0
  9  4  1  0
  3 13  1  0
  5 14  1  0
  6 15  1  0
  7 16  1  0
  8 17  1  0
 10 18  1  0
M  CHG  1   3   1
M  END
>  <UniqueID>  (40) 
40

>  <SMILES>  (40) 
Clc1[nH+]c2ccccc2cc1Br

>  <Energy>  (40) 
22.8016321154222

>  <Genealogy>  (40) 
Clc1[nH+]c2ccccc2cc1Br (protonated)
Clc1[nH+]c2ccccc2cc1Br (3D coordinates assigned)
Clc1[nH+]c2ccccc2cc1Br (optimized conformer: 22.8016321154222 kcal/mol)

>  <smiles>  (40) 
Clc1nc2ccccc2cc1Br

>  <score_type>  (40) 
oracle

>  <origin>  (40) 
adg

>  <m_score__min__energy>  (40) 
-5.0199999999999996

>  <m_primary>  (40) 
energy

$$$$
40:0
     RDKit          3D

 36 38  0  0  0  0  0  0  0  0999 V2000
   60.4480   28.3410   49.7260 C   0  0  0  0  0  0  0  0  0  0  0  0
   59.9850   27.7940   48.4590 N   0  0  0  0  0  0  0  0  0  0  0  0
   58.9260   28.2300   47.7510 C   0  0  0  0  0  0  0  0  0  0  0  0
   58.7890   27.4050   46.6600 C   0  0  0  0  0  0  0  0  0  0  0  0
   57.5710   27.5200   45.4040 S   0  0  0  0  0  0  0  0  0  0  0  0
   56.2460   27.1010   45.9780 O   0  0  0  0  0  0  0  0  0  0  0  0
   57.9270   26.6140   44.2580 O   0  0  0  0  0  0  0  0  0  0  0  0
   57.4890   29.1540   44.8340 N   0  0  0  0  0  0  0  0  0  0  0  0
   58.6520   29.9520   44.4940 C   0  0  0  0  0  0  0  0  0  0  0  0
   58.1010   31.3460   44.1000 C   0  0  2  0  0  0  0  0  0  0  0  0
   58.4270   32.3900   45.1560 C   0  0  0  0  0  0  0  0  0  0  0  0
   58.8390   33.6850   44.7890 C   0  0  0  0  0  0  0  0  0  0  0  0
   59.1310   34.6390   45.7680 C   0  0  0  0  0  0  0  0  0  0  0  0
   59.0180   34.3090   47.1210 C   0  0  0  0  0  0  0  0  0  0  0  0
   58.6140   33.0260   47.4970 C   0  0  0  0  0  0  0  0  0  0  0  0
   58.3200   32.0690   46.5210 C   0  0  0  0  0  0  0  0  0  0  0  0
   56.5740   31.1830   43.9150 C   0  0  0  0  0  0  0  0  0  0  0  0
   56.3100   29.8380   44.4630 C   0  0  0  0  0  0  0  0  0  0  0  0
   55.1580   29.3380   44.5710 O   0  0  0  0  0  0  0  0  0  0  0  0
   59.7930   26.4660   46.7700 C   0  0  0  0  0  0  0  0  0  0  0  0
   60.5070   26.7210   47.8850 N   0  0  0  0  0  0  0  0  0  0  0  0
   59.9814   27.7898   50.5557 H   0  0  0  0  0  0  0  0  0  0  0  0
   61.5418   28.2430   49.7899 H   0  0  0  0  0  0  0  0  0  0  0  0
   60.1707   29.4036   49.7899 H   0  0  0  0  0  0  0  0  0  0  0  0
   58.2868   29.0898   48.0002 H   0  0  0  0  0  0  0  0  0  0  0  0
   59.3261   30.0362   45.3592 H   0  0  0  0  0  0  0  0  0  0  0  0
   59.2321   29.4981   43.6770 H   0  0  0  0  0  0  0  0  0  0  0  0
   58.5688   31.7026   43.1705 H   0  0  0  0  0  0  0  0  0  0  0  0
   58.9318   33.9479   43.7249 H   0  0  0  0  0  0  0  0  0  0  0  0
   59.4498   35.6497   45.4732 H   0  0  0  0  0  0  0  0  0  0  0  0
   59.2475   35.0605   47.8908 H   0  0  0  0  0  0  0  0  0  0  0  0
   58.5270   32.7680   48.5628 H   0  0  0  0  0  0  0  0  0  0  0  0
   58.0033   31.0596   46.8224 H   0  0  0  0  0  0  0  0  0  0  0  0
   56.0242   31.9527   44.4765 H   0  0  0  0  0  0  0  0  0  0  0  0
   56.2517   31.2938   42.8691 H   0  0  0  0  0  0  0  0  0  0  0  0
   59.9806   25.6437   46.0638 H   0  0  0  0  0  0  0  0  0  0  0  0
  1  2  1  0
  2  3  1  0
  3  4  2  0
  4  5  1  0
  5  6  2  0
  5  7  2  0
  5  8  1  0
  8  9  1  0
  9 10  1  0
 10 11  1  0
 11 12  2  0
 12 13  1  0
 13 14  2  0
 14 15  1  0
 15 16  2  0
 10 17  1  0
 17 18  1  0
 18 19  2  0
  4 20  1  0
 20 21  2  0
 21  2  1  0
 18  8  1  0
 16 11  1  0
  1 22  1  0
  1 23  1  0
  1 24  1  0
  3 25  1  0
  9 26  1  0
  9 27  1  0
 10 28  1  6
 12 29  1  0
 13 30  1  0
 14 31  1  0
 15 32  1  0
 16 33  1  0
 17 34  1  0
 17 35  1  0
 20 36  1  0
M  END
>  <UniqueID>  (41) 
41

>  <SMILES>  (41) 
Cn1cc(S(=O)(=O)N2C[C@H](c3ccccc3)CC2=O)cn1

>  <Energy>  (41) 
76.01804516358985

>  <Genealogy>  (41) 
Cn1cc(S(=O)(=O)N2C[C@H](c3ccccc3)CC2=O)cn1 (chirality)
Cn1cc(S(=O)(=O)N2C[C@H](c3ccccc3)CC2=O)cn1 (3D coordinates assigned)
Cn1cc(S(=O)(=O)N2C[C@H](c3ccccc3)CC2=O)cn1 (nonaromatic ring conformer: 76.01804516358985 kcal/mol)

>  <smiles>  (41) 
Cn1cc(S(=O)(=O)N2CC(c3ccccc3)CC2=O)cn1

>  <score_type>  (41) 
oracle

>  <origin>  (41) 
adg

>  <m_score__min__energy>  (41) 
-7.8899999999999997

>  <m_primary>  (41) 
energy

$$$$
41:0
     RDKit          3D

 50 53  0  0  0  0  0  0  0  0999 V2000
   59.3900   35.2990   45.5170 C   0  0  0  0  0  0  0  0  0  0  0  0
   58.3610   34.2550   45.4330 N   0  0  0  0  0  0  0  0  0  0  0  0
   57.0470   34.5900   44.8760 C   0  0  0  0  0  0  0  0  0  0  0  0
   58.6300   32.9180   45.9250 C   0  0  0  0  0  0  0  0  0  0  0  0
   58.9960   32.7030   47.2690 C   0  0  0  0  0  0  0  0  0  0  0  0
   59.2460   31.4110   47.7420 C   0  0  0  0  0  0  0  0  0  0  0  0
   59.1490   30.3090   46.8830 C   0  0  0  0  0  0  0  0  0  0  0  0
   59.4210   28.9480   47.3890 C   0  0  0  0  0  0  0  0  0  0  0  0
   60.4260   28.7280   48.3510 C   0  0  0  0  0  0  0  0  0  0  0  0
   60.6830   27.4220   48.8110 C   0  0  0  0  0  0  0  0  0  0  0  0
   59.9770   26.3660   48.3120 N   0  0  0  0  0  0  0  0  0  0  0  0
   59.0190   26.5830   47.3770 C   0  0  0  0  0  0  0  0  0  0  0  0
   58.7200   27.8290   46.9180 C   0  0  0  0  0  0  0  0  0  0  0  0
   57.6610   27.7260   45.8760 C   0  0  0  0  0  0  0  0  0  0  0  0
   57.4120   26.1810   45.7680 C   0  0  2  0  0  0  0  0  0  0  0  0
   57.8470   25.6300   44.4020 C   0  0  0  0  0  0  0  0  0  0  0  0
   55.9700   25.8130   46.0820 C   0  0  0  0  0  0  0  0  0  0  0  0
   55.0880   26.7100   46.0040 O   0  0  0  0  0  0  0  0  0  0  0  0
   55.5430   24.4860   46.4320 N   0  0  0  0  0  0  0  0  0  0  0  0
   55.1510   23.4030   45.5360 C   0  0  0  0  0  0  0  0  0  0  0  0
   56.3560   22.6820   45.0140 C   0  0  0  0  0  0  0  0  0  0  0  0
   57.5480   22.5050   45.7070 C   0  0  0  0  0  0  0  0  0  0  0  0
   58.5390   21.8710   44.9470 C   0  0  0  0  0  0  0  0  0  0  0  0
   58.1420   21.5710   43.6500 C   0  0  0  0  0  0  0  0  0  0  0  0
   56.5560   22.0960   43.4490 S   0  0  0  0  0  0  0  0  0  0  0  0
   58.2690   25.6070   46.7630 O   0  0  0  0  0  0  0  0  0  0  0  0
   58.7780   30.5120   45.5460 C   0  0  0  0  0  0  0  0  0  0  0  0
   58.5220   31.8020   45.0720 C   0  0  0  0  0  0  0  0  0  0  0  0
   59.6053   35.5175   46.5734 H   0  0  0  0  0  0  0  0  0  0  0  0
   60.3075   34.9504   45.0203 H   0  0  0  0  0  0  0  0  0  0  0  0
   59.0281   36.2113   45.0203 H   0  0  0  0  0  0  0  0  0  0  0  0
   56.3365   34.7711   45.6960 H   0  0  0  0  0  0  0  0  0  0  0  0
   57.1311   35.4954   44.2570 H   0  0  0  0  0  0  0  0  0  0  0  0
   56.6874   33.7548   44.2570 H   0  0  0  0  0  0  0  0  0  0  0  0
   59.0859   33.5600   47.9527 H   0  0  0  0  0  0  0  0  0  0  0  0
   59.5208   31.2591   48.7962 H   0  0  0  0  0  0  0  0  0  0  0  0
   61.0091   29.5747   48.7423 H   0  0  0  0  0  0  0  0  0  0  0  0
   61.4557   27.2524   49.5754 H   0  0  0  0  0  0  0  0  0  0  0  0
   56.7470   28.2517   46.1894 H   0  0  0  0  0  0  0  0  0  0  0  0
   57.9521   28.1836   44.9190 H   0  0  0  0  0  0  0  0  0  0  0  0
   58.5224   24.7745   44.5499 H   0  0  0  0  0  0  0  0  0  0  0  0
   56.9601   25.3039   43.8389 H   0  0  0  0  0  0  0  0  0  0  0  0
   58.3700   26.4170   43.8389 H   0  0  0  0  0  0  0  0  0  0  0  0
   54.5155   22.6927   46.0852 H   0  0  0  0  0  0  0  0  0  0  0  0
   54.6002   23.8310   44.6854 H   0  0  0  0  0  0  0  0  0  0  0  0
   57.6978   22.8300   46.7472 H   0  0  0  0  0  0  0  0  0  0  0  0
   59.5383   21.6329   45.3403 H   0  0  0  0  0  0  0  0  0  0  0  0
   58.7585   21.0754   42.8857 H   0  0  0  0  0  0  0  0  0  0  0  0
   58.6879   29.6516   44.8666 H   0  0  0  0  0  0  0  0  0  0  0  0
   58.2328   31.9474   44.0207 H   0  0  0  0  0  0  0  0  0  0  0  0
  1  2  1  0
  2  3  1  0
  2  4  1  0
  4  5  2  0
  5  6  1  0
  6  7  2  0
  7  8  1  0
  8  9  2  0
  9 10  1  0
 10 11  2  0
 11 12  1  0
 12 13  2  0
 13 14  1  0
 14 15  1  0
 15 16  1  6
 15 17  1  0
 17 18  2  0
 17 19  1  0
 19 20  1  0
 20 21  1  0
 21 22  2  0
 22 23  1  0
 23 24  2  0
 24 25  1  0
 15 26  1  0
  7 27  1  0
 27 28  2  0
 28  4  1  0
 13  8  1  0
 25 21  1  0
 26 12  1  0
  1 29  1  0
  1 30  1  0
  1 31  1  0
  3 32  1  0
  3 33  1  0
  3 34  1  0
  5 35  1  0
  6 36  1  0
  9 37  1  0
 10 38  1  0
 14 39  1  0
 14 40  1  0
 16 41  1  0
 16 42  1  0
 16 43  1  0
 20 44  1  0
 20 45  1  0
 22 46  1  0
 23 47  1  0
 24 48  1  0
 27 49  1  0
 28 50  1  0
M  CHG  1  19  -1
M  END
>  <UniqueID>  (42) 
42

>  <SMILES>  (42) 
CN(C)c1ccc(-c2ccnc3c2C[C@](C)(C(=O)[N-]Cc2cccs2)O3)cc1

>  <Energy>  (42) 
104.7555105826757

>  <Genealogy>  (42) 
CN(C)c1ccc(-c2ccnc3c2CC(C)(C(=O)[N-]Cc2cccs2)O3)cc1 (protonated)
CN(C)c1ccc(-c2ccnc3c2C[C@](C)(C(=O)[N-]Cc2cccs2)O3)cc1 (chirality)
CN(C)c1ccc(-c2ccnc3c2C[C@](C)(C(=O)[N-]Cc2cccs2)O3)cc1 (3D coordinates assigned)
CN(C)c1ccc(-c2ccnc3c2C[C@](C)(C(=O)[N-]Cc2cccs2)O3)cc1 (nonaromatic ring conformer: 104.7555105826757 kcal/mol)

>  <smiles>  (42) 
CN(C)c1ccc(-c2ccnc3c2CC(C)(C(=O)NCc2cccs2)O3)cc1

>  <score_type>  (42) 
oracle

>  <origin>  (42) 
adg

>  <m_score__min__energy>  (42) 
-9.9100000000000001

>  <m_primary>  (42) 
energy

$$$$
42:0
     RDKit          3D

 45 47  0  0  0  0  0  0  0  0999 V2000
   59.9480   27.1950   46.9790 C   0  0  0  0  0  0  0  0  0  0  0  0
   59.4310   28.2500   46.0490 C   0  0  0  0  0  0  0  0  0  0  0  0
   59.2660   28.0410   44.6920 C   0  0  0  0  0  0  0  0  0  0  0  0
   58.7960   29.1670   44.1320 N   0  0  0  0  0  0  0  0  0  0  0  0
   58.6810   30.0450   45.1470 C   0  0  0  0  0  0  0  0  0  0  0  0
   58.2250   31.3600   45.0200 C   0  0  0  0  0  0  0  0  0  0  0  0
   57.7810   31.8570   43.7370 C   0  0  0  0  0  0  0  0  0  0  0  0
   57.4250   32.2560   42.7110 N   0  0  0  0  0  0  0  0  0  0  0  0
   58.1690   32.1630   46.1750 C   0  0  0  0  0  0  0  0  0  0  0  0
   57.7020   33.5210   46.0800 N   0  0  0  0  0  0  0  0  0  0  0  0
   58.5530   34.5990   45.5750 C   0  0  0  0  0  0  0  0  0  0  0  0
   59.6630   34.9530   46.5750 C   0  0  0  0  0  0  0  0  0  0  0  0
   60.9580   34.1520   46.3570 C   0  0  0  0  0  0  0  0  0  0  0  0
   61.2950   33.3500   47.5530 N   0  0  0  0  0  0  0  0  0  0  0  0
   61.3420   34.1980   48.7540 C   0  0  0  0  0  0  0  0  0  0  0  0
   62.5900   32.6650   47.3830 C   0  0  0  0  0  0  0  0  0  0  0  0
   58.5440   31.6160   47.4280 C   0  0  0  0  0  0  0  0  0  0  0  0
   58.4850   32.3960   48.6000 C   0  0  0  0  0  0  0  0  0  0  0  0
   58.8600   31.8610   49.8300 C   0  0  0  0  0  0  0  0  0  0  0  0
   59.2970   30.5450   49.9140 C   0  0  0  0  0  0  0  0  0  0  0  0
   59.3690   29.7490   48.7690 C   0  0  0  0  0  0  0  0  0  0  0  0
   58.9990   30.2640   47.5050 C   0  0  0  0  0  0  0  0  0  0  0  0
   59.0540   29.5300   46.3420 N   0  0  0  0  0  0  0  0  0  0  0  0
   59.7913   27.5148   48.0197 H   0  0  0  0  0  0  0  0  0  0  0  0
   59.4096   26.2526   46.8000 H   0  0  0  0  0  0  0  0  0  0  0  0
   61.0227   27.0431   46.8000 H   0  0  0  0  0  0  0  0  0  0  0  0
   59.4844   27.1043   44.1582 H   0  0  0  0  0  0  0  0  0  0  0  0
   58.5760   29.3130   43.1210 H   0  0  0  0  0  0  0  0  0  0  0  0
   56.7580   33.7530   46.4610 H   0  0  0  0  0  0  0  0  0  0  0  0
   59.0130   34.2781   44.6287 H   0  0  0  0  0  0  0  0  0  0  0  0
   57.9274   35.4909   45.4228 H   0  0  0  0  0  0  0  0  0  0  0  0
   59.8941   36.0238   46.4752 H   0  0  0  0  0  0  0  0  0  0  0  0
   59.2895   34.7007   47.5784 H   0  0  0  0  0  0  0  0  0  0  0  0
   60.8233   33.4777   45.4984 H   0  0  0  0  0  0  0  0  0  0  0  0
   61.7789   34.8593   46.1676 H   0  0  0  0  0  0  0  0  0  0  0  0
   61.3069   33.5639   49.6522 H   0  0  0  0  0  0  0  0  0  0  0  0
   62.2739   34.7824   48.7540 H   0  0  0  0  0  0  0  0  0  0  0  0
   60.4804   34.8818   48.7540 H   0  0  0  0  0  0  0  0  0  0  0  0
   63.0176   32.4388   48.3709 H   0  0  0  0  0  0  0  0  0  0  0  0
   62.4392   31.7287   46.8256 H   0  0  0  0  0  0  0  0  0  0  0  0
   63.2791   33.3166   46.8256 H   0  0  0  0  0  0  0  0  0  0  0  0
   58.1391   33.4386   48.5429 H   0  0  0  0  0  0  0  0  0  0  0  0
   58.8101   32.4817   50.7368 H   0  0  0  0  0  0  0  0  0  0  0  0
   59.5883   30.1272   50.8890 H   0  0  0  0  0  0  0  0  0  0  0  0
   59.7177   28.7090   48.8512 H   0  0  0  0  0  0  0  0  0  0  0  0
  1  2  1  0
  2  3  2  0
  3  4  1  0
  4  5  2  0
  5  6  1  0
  6  7  1  0
  7  8  3  0
  6  9  2  0
  9 10  1  0
 10 11  1  0
 11 12  1  0
 12 13  1  0
 13 14  1  0
 14 15  1  0
 14 16  1  0
  9 17  1  0
 17 18  2  0
 18 19  1  0
 19 20  2  0
 20 21  1  0
 21 22  2  0
 22 23  1  0
 23  2  1  0
 23  5  1  0
 22 17  1  0
  1 24  1  0
  1 25  1  0
  1 26  1  0
  3 27  1  0
  4 28  1  0
 10 29  1  0
 11 30  1  0
 11 31  1  0
 12 32  1  0
 12 33  1  0
 13 34  1  0
 13 35  1  0
 15 36  1  0
 15 37  1  0
 15 38  1  0
 16 39  1  0
 16 40  1  0
 16 41  1  0
 18 42  1  0
 19 43  1  0
 20 44  1  0
 21 45  1  0
M  CHG  1   4   1
M  END
>  <UniqueID>  (43) 
43

>  <SMILES>  (43) 
Cc1c[nH+]c2c(C#N)c(NCCCN(C)C)c3ccccc3n12

>  <Energy>  (43) 
95.02166933788646

>  <Genealogy>  (43) 
Cc1c[nH+]c2c(C#N)c(NCCCN(C)C)c3ccccc3n12 (protonated)
Cc1c[nH+]c2c(C#N)c(NCCCN(C)C)c3ccccc3n12 (3D coordinates assigned)
Cc1c[nH+]c2c(C#N)c(NCCCN(C)C)c3ccccc3n12 (optimized conformer: 95.02166933788646 kcal/mol)

>  <smiles>  (43) 
Cc1cnc2c(C#N)c(NCCCN(C)C)c3ccccc3n12

>  <score_type>  (43) 
oracle

>  <origin>  (43) 
adg

>  <m_score__min__energy>  (43) 
-5.2199999999999998

>  <m_primary>  (43) 
energy

$$$$
43:0
     RDKit          3D

 36 38  0  0  0  0  0  0  0  0999 V2000
   56.9100   29.6490   52.0040 O   0  0  0  0  0  0  0  0  0  0  0  0
   57.5430   30.6890   52.3280 C   0  0  0  0  0  0  0  0  0  0  0  0
   58.5450   30.6150   53.2860 O   0  0  0  0  0  0  0  0  0  0  0  0
   57.2240   31.9960   51.6770 C   0  0  0  0  0  0  0  0  0  0  0  0
   58.7160   32.7150   50.9110 S   0  0  0  0  0  0  0  0  0  0  0  0
   59.0590   31.2830   49.8800 C   0  0  0  0  0  0  0  0  0  0  0  0
   59.1520   30.0280   50.3500 N   0  0  0  0  0  0  0  0  0  0  0  0
   59.4010   29.2250   49.3270 N   0  0  0  0  0  0  0  0  0  0  0  0
   59.4720   30.0130   48.2340 C   0  0  0  0  0  0  0  0  0  0  0  0
   59.6240   29.4710   46.8420 C   0  0  0  0  0  0  0  0  0  0  0  0
   58.2930   29.0280   46.3080 C   0  0  0  0  0  0  0  0  0  0  0  0
   57.8510   27.7090   46.4730 C   0  0  0  0  0  0  0  0  0  0  0  0
   56.6230   27.3430   45.9220 C   0  0  0  0  0  0  0  0  0  0  0  0
   56.2000   26.1640   46.0460 O   0  0  0  0  0  0  0  0  0  0  0  0
   55.8830   28.2600   45.2470 N   0  0  0  0  0  0  0  0  0  0  0  0
   56.3220   29.5380   45.0970 C   0  0  0  0  0  0  0  0  0  0  0  0
   55.6220   30.3720   44.4700 O   0  0  0  0  0  0  0  0  0  0  0  0
   57.5170   29.9120   45.6230 N   0  0  0  0  0  0  0  0  0  0  0  0
   59.2600   31.3130   48.5480 N   0  0  0  0  0  0  0  0  0  0  0  0
   59.1800   32.4430   47.6680 C   0  0  0  0  0  0  0  0  0  0  0  0
   57.9810   32.7320   46.9990 C   0  0  0  0  0  0  0  0  0  0  0  0
   57.9080   33.8230   46.1270 C   0  0  0  0  0  0  0  0  0  0  0  0
   59.0290   34.6320   45.9230 C   0  0  0  0  0  0  0  0  0  0  0  0
   60.2230   34.3530   46.5920 C   0  0  0  0  0  0  0  0  0  0  0  0
   60.3000   33.2610   47.4620 C   0  0  0  0  0  0  0  0  0  0  0  0
   56.4608   31.8364   50.9011 H   0  0  0  0  0  0  0  0  0  0  0  0
   56.8494   32.6909   52.4430 H   0  0  0  0  0  0  0  0  0  0  0  0
   59.0400   29.7170   51.3400 H   0  0  0  0  0  0  0  0  0  0  0  0
   60.0339   30.2560   46.1895 H   0  0  0  0  0  0  0  0  0  0  0  0
   60.3054   28.6078   46.8662 H   0  0  0  0  0  0  0  0  0  0  0  0
   58.4593   26.9776   47.0253 H   0  0  0  0  0  0  0  0  0  0  0  0
   57.0962   32.0989   47.1608 H   0  0  0  0  0  0  0  0  0  0  0  0
   56.9674   34.0444   45.6013 H   0  0  0  0  0  0  0  0  0  0  0  0
   58.9711   35.4887   45.2354 H   0  0  0  0  0  0  0  0  0  0  0  0
   61.1036   34.9930   46.4343 H   0  0  0  0  0  0  0  0  0  0  0  0
   61.2421   33.0431   47.9864 H   0  0  0  0  0  0  0  0  0  0  0  0
  1  2  2  0
  2  3  1  0
  2  4  1  0
  4  5  1  0
  5  6  1  0
  6  7  2  0
  7  8  1  0
  8  9  2  0
  9 10  1  0
 10 11  1  0
 11 12  2  0
 12 13  1  0
 13 14  2  0
 13 15  1  0
 15 16  1  0
 16 17  2  0
 16 18  1  0
  9 19  1  0
 19 20  1  0
 20 21  2  0
 21 22  1  0
 22 23  2  0
 23 24  1  0
 24 25  2  0
 19  6  1  0
 25 20  1  0
 18 11  1  0
  4 26  1  0
  4 27  1  0
  7 28  1  0
 10 29  1  0
 10 30  1  0
 12 31  1  0
 21 32  1  0
 22 33  1  0
 23 34  1  0
 24 35  1  0
 25 36  1  0
M  CHG  4   3  -1   7   1  15  -1  18  -1
M  END
>  <UniqueID>  (44) 
44

>  <SMILES>  (44) 
O=C([O-])CSc1[nH+]nc(Cc2cc(=O)[n-]c(=O)[n-]2)n1-c1ccccc1

>  <Energy>  (44) 
72.28210864060968

>  <Genealogy>  (44) 
O=C([O-])CSc1[nH+]nc(Cc2cc(=O)[n-]c(=O)[n-]2)n1-c1ccccc1 (protonated)
O=C([O-])CSc1[nH+]nc(Cc2cc(=O)[n-]c(=O)[n-]2)n1-c1ccccc1 (3D coordinates assigned)
O=C([O-])CSc1[nH+]nc(Cc2cc(=O)[n-]c(=O)[n-]2)n1-c1ccccc1 (optimized conformer: 72.28210864060968 kcal/mol)

>  <smiles>  (44) 
O=C(O)CSc1nnc(Cc2cc(=O)[nH]c(=O)[nH]2)n1-c1ccccc1

>  <score_type>  (44) 
oracle

>  <origin>  (44) 
adg

>  <m_score__min__energy>  (44) 
-11.609999999999999

>  <m_primary>  (44) 
energy

$$$$
44:0
     RDKit          3D

 42 45  0  0  0  0  0  0  0  0999 V2000
   58.1620   22.8680   45.6270 C   0  0  0  0  0  0  0  0  0  0  0  0
   58.1540   23.8830   46.6250 O   0  0  0  0  0  0  0  0  0  0  0  0
   58.0630   25.2590   46.3600 C   0  0  0  0  0  0  0  0  0  0  0  0
   59.2040   26.0630   46.1910 C   0  0  0  0  0  0  0  0  0  0  0  0
   59.0760   27.4280   45.9290 C   0  0  0  0  0  0  0  0  0  0  0  0
   57.8060   28.0190   45.8300 C   0  0  0  0  0  0  0  0  0  0  0  0
   57.6720   29.4720   45.5500 C   0  0  0  0  0  0  0  0  0  0  0  0
   56.6230   29.9570   44.7530 C   0  0  0  0  0  0  0  0  0  0  0  0
   56.5160   31.2870   44.4950 N   0  0  0  0  0  0  0  0  0  0  0  0
   57.3960   32.1900   44.9990 C   0  0  0  0  0  0  0  0  0  0  0  0
   58.4540   31.7660   45.8150 C   0  0  0  0  0  0  0  0  0  0  0  0
   59.4310   32.7300   46.3640 C   0  0  0  0  0  0  0  0  0  0  0  0
   59.2870   34.1150   46.4090 C   0  0  0  0  0  0  0  0  0  0  0  0
   60.3450   34.6660   46.9750 O   0  0  0  0  0  0  0  0  0  0  0  0
   61.1760   33.7040   47.2940 C   0  0  0  0  0  0  0  0  0  0  0  0
   62.4250   33.8320   47.8960 C   0  0  0  0  0  0  0  0  0  0  0  0
   63.1720   32.6610   48.1180 C   0  0  0  0  0  0  0  0  0  0  0  0
   62.6600   31.4030   47.7290 C   0  0  0  0  0  0  0  0  0  0  0  0
   61.3940   31.3030   47.1240 C   0  0  0  0  0  0  0  0  0  0  0  0
   60.6650   32.4810   46.9380 C   0  0  0  0  0  0  0  0  0  0  0  0
   58.5930   30.3950   46.0740 C   0  0  0  0  0  0  0  0  0  0  0  0
   56.6660   27.2160   46.0000 C   0  0  0  0  0  0  0  0  0  0  0  0
   56.7890   25.8370   46.2660 C   0  0  0  0  0  0  0  0  0  0  0  0
   55.6670   25.0100   46.4410 O   0  0  0  0  0  0  0  0  0  0  0  0
   54.9730   24.3540   45.3850 C   0  0  0  0  0  0  0  0  0  0  0  0
   58.1698   21.8795   46.1094 H   0  0  0  0  0  0  0  0  0  0  0  0
   57.2631   22.9630   45.0002 H   0  0  0  0  0  0  0  0  0  0  0  0
   59.0593   22.9772   45.0002 H   0  0  0  0  0  0  0  0  0  0  0  0
   60.2049   25.6130   46.2658 H   0  0  0  0  0  0  0  0  0  0  0  0
   59.9769   28.0456   45.7991 H   0  0  0  0  0  0  0  0  0  0  0  0
   55.8842   29.2572   44.3354 H   0  0  0  0  0  0  0  0  0  0  0  0
   57.2782   33.2586   44.7660 H   0  0  0  0  0  0  0  0  0  0  0  0
   58.4170   34.6697   46.0278 H   0  0  0  0  0  0  0  0  0  0  0  0
   62.8153   34.8179   48.1888 H   0  0  0  0  0  0  0  0  0  0  0  0
   64.1601   32.7251   48.5971 H   0  0  0  0  0  0  0  0  0  0  0  0
   63.2561   30.4946   47.9006 H   0  0  0  0  0  0  0  0  0  0  0  0
   60.9909   30.3296   46.8076 H   0  0  0  0  0  0  0  0  0  0  0  0
   59.4300   30.0390   46.6926 H   0  0  0  0  0  0  0  0  0  0  0  0
   55.6661   27.6683   45.9247 H   0  0  0  0  0  0  0  0  0  0  0  0
   54.2353   23.6567   45.8087 H   0  0  0  0  0  0  0  0  0  0  0  0
   54.4568   25.1020   44.7652 H   0  0  0  0  0  0  0  0  0  0  0  0
   55.6907   23.7966   44.7652 H   0  0  0  0  0  0  0  0  0  0  0  0
  1  2  1  0
  2  3  1  0
  3  4  2  0
  4  5  1  0
  5  6  2  0
  6  7  1  0
  7  8  2  0
  8  9  1  0
  9 10  2  0
 10 11  1  0
 11 12  1  0
 12 13  2  0
 13 14  1  0
 14 15  1  0
 15 16  2  0
 16 17  1  0
 17 18  2  0
 18 19  1  0
 19 20  2  0
 11 21  2  0
  6 22  1  0
 22 23  2  0
 23 24  1  0
 24 25  1  0
 23  3  1  0
 21  7  1  0
 20 12  1  0
 20 15  1  0
  1 26  1  0
  1 27  1  0
  1 28  1  0
  4 29  1  0
  5 30  1  0
  8 31  1  0
 10 32  1  0
 13 33  1  0
 16 34  1  0
 17 35  1  0
 18 36  1  0
 19 37  1  0
 21 38  1  0
 22 39  1  0
 25 40  1  0
 25 41  1  0
 25 42  1  0
M  END
>  <UniqueID>  (45) 
45

>  <SMILES>  (45) 
COc1ccc(-c2cncc(-c3coc4ccccc34)c2)cc1OC

>  <Energy>  (45) 
90.35035971067104

>  <Genealogy>  (45) 
COc1ccc(-c2cncc(-c3coc4ccccc34)c2)cc1OC (3D coordinates assigned)
COc1ccc(-c2cncc(-c3coc4ccccc34)c2)cc1OC (optimized conformer: 90.35035971067104 kcal/mol)

>  <smiles>  (45) 
COc1ccc(-c2cncc(-c3coc4ccccc34)c2)cc1OC

>  <score_type>  (45) 
oracle

>  <origin>  (45) 
adg

>  <m_score__min__energy>  (45) 
-7.75

>  <m_primary>  (45) 
energy

$$$$
45:0
     RDKit          3D

 56 60  0  0  0  0  0  0  0  0999 V2000
   56.8655   29.3979   41.9595 H   0  0  0  0  0  0  0  0  0  0  0  0
   57.0150   29.6220   43.0260 C   0  0  0  0  0  0  0  0  0  0  0  0
   56.8770   30.8940   43.4780 N   0  0  0  0  0  0  0  0  0  0  0  0
   57.0500   31.1950   44.7960 C   0  0  0  0  0  0  0  0  0  0  0  0
   56.9390   32.4160   45.2310 N   0  0  0  0  0  0  0  0  0  0  0  0
   57.9560   33.1970   45.8820 C   0  0  0  0  0  0  0  0  0  0  0  0
   58.6740   34.2000   45.2050 C   0  0  0  0  0  0  0  0  0  0  0  0
   58.4832   34.3857   44.1377 H   0  0  0  0  0  0  0  0  0  0  0  0
   59.6290   34.9610   45.8850 C   0  0  0  0  0  0  0  0  0  0  0  0
   60.1989   35.7332   45.3475 H   0  0  0  0  0  0  0  0  0  0  0  0
   59.8620   34.7440   47.2450 C   0  0  0  0  0  0  0  0  0  0  0  0
   60.6215   35.3393   47.7730 H   0  0  0  0  0  0  0  0  0  0  0  0
   59.1280   33.7660   47.9420 C   0  0  0  0  0  0  0  0  0  0  0  0
   59.3140   33.5200   49.3100 O   0  0  0  0  0  0  0  0  0  0  0  0
   60.5130   33.8040   50.0230 C   0  0  0  0  0  0  0  0  0  0  0  0
   60.3164   33.7574   51.1043 H   0  0  0  0  0  0  0  0  0  0  0  0
   61.2815   33.0630   49.7578 H   0  0  0  0  0  0  0  0  0  0  0  0
   60.8675   34.8110   49.7578 H   0  0  0  0  0  0  0  0  0  0  0  0
   58.1730   33.0090   47.2540 C   0  0  0  0  0  0  0  0  0  0  0  0
   57.5842   32.2556   47.7977 H   0  0  0  0  0  0  0  0  0  0  0  0
   57.3870   30.2100   45.6690 N   0  0  0  0  0  0  0  0  0  0  0  0
   57.5410   28.9220   45.2620 C   0  0  0  0  0  0  0  0  0  0  0  0
   57.9040   27.8830   46.2480 C   0  0  0  0  0  0  0  0  0  0  0  0
   58.9460   27.9180   47.1810 C   0  0  0  0  0  0  0  0  0  0  0  0
   59.8430   29.0520   47.4960 C   0  0  0  0  0  0  0  0  0  0  0  0
   60.3970   29.8150   46.4570 C   0  0  0  0  0  0  0  0  0  0  0  0
   60.1561   29.5711   45.4118 H   0  0  0  0  0  0  0  0  0  0  0  0
   61.2530   30.8830   46.7410 C   0  0  0  0  0  0  0  0  0  0  0  0
   61.6745   31.4806   45.9193 H   0  0  0  0  0  0  0  0  0  0  0  0
   61.5780   31.1970   48.0750 C   0  0  0  0  0  0  0  0  0  0  0  0
   62.4300   32.2590   48.4130 O   0  0  0  0  0  0  0  0  0  0  0  0
   63.3910   32.8290   47.5310 C   0  0  0  0  0  0  0  0  0  0  0  0
   64.1912   33.3036   48.1178 H   0  0  0  0  0  0  0  0  0  0  0  0
   63.8204   32.0394   46.8968 H   0  0  0  0  0  0  0  0  0  0  0  0
   62.9040   33.5844   46.8968 H   0  0  0  0  0  0  0  0  0  0  0  0
   61.0380   30.4230   49.1080 C   0  0  0  0  0  0  0  0  0  0  0  0
   61.2896   30.6573   50.1529 H   0  0  0  0  0  0  0  0  0  0  0  0
   60.1820   29.3550   48.8250 C   0  0  0  0  0  0  0  0  0  0  0  0
   59.7720   28.7492   49.6465 H   0  0  0  0  0  0  0  0  0  0  0  0
   58.9870   26.7340   47.8360 N   0  0  0  0  0  0  0  0  0  0  0  0
   59.6390   26.4490   48.6020 H   0  0  0  0  0  0  0  0  0  0  0  0
   57.9820   26.0110   47.3110 C   0  0  0  0  0  0  0  0  0  0  0  0
   57.6380   24.7080   47.6630 C   0  0  0  0  0  0  0  0  0  0  0  0
   58.1845   24.1686   48.4506 H   0  0  0  0  0  0  0  0  0  0  0  0
   56.5710   24.1070   46.9790 C   0  0  0  0  0  0  0  0  0  0  0  0
   56.2739   23.0775   47.2277 H   0  0  0  0  0  0  0  0  0  0  0  0
   55.8750   24.8140   45.9730 C   0  0  0  0  0  0  0  0  0  0  0  0
   54.7710   24.1530   45.2050 C   0  0  0  0  0  0  0  0  0  0  0  0
   54.0448   23.7182   45.9076 H   0  0  0  0  0  0  0  0  0  0  0  0
   54.2675   24.8984   44.5718 H   0  0  0  0  0  0  0  0  0  0  0  0
   55.1902   23.3572   44.5718 H   0  0  0  0  0  0  0  0  0  0  0  0
   56.2820   26.1240   45.6520 C   0  0  0  0  0  0  0  0  0  0  0  0
   55.7800   26.6888   44.8526 H   0  0  0  0  0  0  0  0  0  0  0  0
   57.3100   26.6750   46.3530 N   0  0  0  0  0  0  0  0  0  0  0  0
   57.3460   28.6000   43.9130 C   0  0  0  0  0  0  0  0  0  0  0  0
   57.4519   27.5630   43.5616 H   0  0  0  0  0  0  0  0  0  0  0  0
  1  2  1  0
  2  3  1  0
  3  4  1  0
  4  5  2  0
  5  6  1  0
  6  7  2  0
  7  8  1  0
  7  9  1  0
  9 10  1  0
  9 11  2  0
 11 12  1  0
 11 13  1  0
 13 14  1  0
 14 15  1  0
 15 16  1  0
 15 17  1  0
 15 18  1  0
 13 19  2  0
 19 20  1  0
  4 21  1  0
 21 22  2  0
 22 23  1  0
 23 24  2  0
 24 25  1  0
 25 26  2  0
 26 27  1  0
 26 28  1  0
 28 29  1  0
 28 30  2  0
 30 31  1  0
 31 32  1  0
 32 33  1  0
 32 34  1  0
 32 35  1  0
 30 36  1  0
 36 37  1  0
 36 38  2  0
 38 39  1  0
 24 40  1  0
 40 41  1  0
 40 42  2  0
 42 43  1  0
 43 44  1  0
 43 45  2  0
 45 46  1  0
 45 47  1  0
 47 48  1  0
 48 49  1  0
 48 50  1  0
 48 51  1  0
 47 52  2  0
 52 53  1  0
 52 54  1  0
 22 55  1  0
 55 56  1  0
 55  2  2  0
 19  6  1  0
 54 23  1  0
 38 25  1  0
 54 42  1  0
M  CHG  2   3  -1  40   1
M  END
>  <UniqueID>  (46) 
46

>  <SMILES>  (46) 
COc1ccc(-c2[nH+]c3ccc(C)cn3c2-c2cc[n-]/c(=N\c3cccc(OC)c3)n2)cc1

>  <Energy>  (46) 
112.2751722368605

>  <Genealogy>  (46) 
COc1ccc(-c2[nH+]c3ccc(C)cn3c2-c2cc[n-]c(=Nc3cccc(OC)c3)n2)cc1 (protonated)
COc1ccc(-c2[nH+]c3ccc(C)cn3c2-c2cc[n-]/c(=N\c3cccc(OC)c3)n2)cc1 (cis-trans isomerization)
COc1ccc(-c2[nH+]c3ccc(C)cn3c2-c2cc[n-]/c(=N\c3cccc(OC)c3)n2)cc1 (3D coordinates assigned)
COc1ccc(-c2[nH+]c3ccc(C)cn3c2-c2cc[n-]/c(=N\c3cccc(OC)c3)n2)cc1 (optimized conformer: 112.2751722368605 kcal/mol)

>  <smiles>  (46) 
COc1ccc(-c2nc3ccc(C)cn3c2-c2cc[nH]c(=Nc3cccc(OC)c3)n2)cc1

>  <score_type>  (46) 
oracle

>  <origin>  (46) 
adg

>  <m_score__min__energy>  (46) 
-8.5099999999999998

>  <m_primary>  (46) 
energy

$$$$
46:0
     RDKit          3D

 48 50  0  0  0  0  0  0  0  0999 V2000
   55.1400   26.2860   46.7780 H   0  0  0  0  0  0  0  0  0  0  0  0
   54.5430   26.2870   45.9840 O   0  0  0  0  0  0  0  0  0  0  0  0
   54.5730   24.9830   45.4760 C   0  0  0  0  0  0  0  0  0  0  0  0
   54.0511   24.9545   44.5081 H   0  0  0  0  0  0  0  0  0  0  0  0
   54.0738   24.3030   46.1820 H   0  0  0  0  0  0  0  0  0  0  0  0
   56.0190   24.5450   45.2860 C   0  0  0  0  0  0  0  0  0  0  0  0
   56.3898   24.9156   44.3190 H   0  0  0  0  0  0  0  0  0  0  0  0
   56.0736   23.4465   45.3046 H   0  0  0  0  0  0  0  0  0  0  0  0
   56.8410   25.0900   46.3630 N   0  0  0  0  0  0  0  0  0  0  0  0
   57.4070   26.2650   46.3750 C   0  0  0  0  0  0  0  0  0  0  0  0
   58.0280   26.6980   47.5510 C   0  0  0  0  0  0  0  0  0  0  0  0
   58.0341   26.0528   48.4419 H   0  0  0  0  0  0  0  0  0  0  0  0
   58.6390   27.9500   47.5900 C   0  0  0  0  0  0  0  0  0  0  0  0
   59.1302   28.2915   48.5131 H   0  0  0  0  0  0  0  0  0  0  0  0
   58.6300   28.7760   46.4570 C   0  0  0  0  0  0  0  0  0  0  0  0
   59.2760   30.1130   46.4840 C   0  0  0  0  0  0  0  0  0  0  0  0
   60.6520   30.2320   46.7250 C   0  0  0  0  0  0  0  0  0  0  0  0
   61.2602   29.3284   46.8787 H   0  0  0  0  0  0  0  0  0  0  0  0
   61.2540   31.4880   46.7710 C   0  0  0  0  0  0  0  0  0  0  0  0
   62.3352   31.5648   46.9583 H   0  0  0  0  0  0  0  0  0  0  0  0
   60.5010   32.6540   46.5820 C   0  0  0  0  0  0  0  0  0  0  0  0
   61.3850   34.2240   46.7080 S   0  0  0  0  0  0  0  0  0  0  0  0
   62.3930   33.7180   48.1090 C   0  0  0  0  0  0  0  0  0  0  0  0
   63.7360   33.3710   47.9070 C   0  0  0  0  0  0  0  0  0  0  0  0
   64.1658   33.4142   46.8953 H   0  0  0  0  0  0  0  0  0  0  0  0
   64.5310   32.9710   48.9820 C   0  0  0  0  0  0  0  0  0  0  0  0
   65.5807   32.6880   48.8145 H   0  0  0  0  0  0  0  0  0  0  0  0
   63.9940   32.9300   50.2700 C   0  0  0  0  0  0  0  0  0  0  0  0
   64.6173   32.6012   51.1146 H   0  0  0  0  0  0  0  0  0  0  0  0
   62.6660   33.3060   50.4880 C   0  0  0  0  0  0  0  0  0  0  0  0
   62.2499   33.2790   51.5059 H   0  0  0  0  0  0  0  0  0  0  0  0
   61.8560   33.7200   49.4100 C   0  0  0  0  0  0  0  0  0  0  0  0
   60.5360   34.1560   49.5980 O   0  0  0  0  0  0  0  0  0  0  0  0
   59.5480   33.4460   50.3380 C   0  0  0  0  0  0  0  0  0  0  0  0
   59.7313   33.5777   51.4146 H   0  0  0  0  0  0  0  0  0  0  0  0
   58.5507   33.8353   50.0855 H   0  0  0  0  0  0  0  0  0  0  0  0
   59.5989   32.3766   50.0855 H   0  0  0  0  0  0  0  0  0  0  0  0
   59.1180   32.5550   46.2780 C   0  0  0  0  0  0  0  0  0  0  0  0
   58.2320   33.7640   46.0540 C   0  0  0  0  0  0  0  0  0  0  0  0
   56.8920   33.4430   46.1710 F   0  0  0  0  0  0  0  0  0  0  0  0
   58.4760   34.2760   44.7950 F   0  0  0  0  0  0  0  0  0  0  0  0
   58.5010   34.7490   46.9890 F   0  0  0  0  0  0  0  0  0  0  0  0
   58.5200   31.2780   46.2690 C   0  0  0  0  0  0  0  0  0  0  0  0
   57.4381   31.1918   46.0898 H   0  0  0  0  0  0  0  0  0  0  0  0
   57.9960   28.3060   45.2950 C   0  0  0  0  0  0  0  0  0  0  0  0
   57.9763   28.9353   44.3930 H   0  0  0  0  0  0  0  0  0  0  0  0
   57.4050   27.0780   45.2740 N   0  0  0  0  0  0  0  0  0  0  0  0
   56.9540   26.7820   44.3820 H   0  0  0  0  0  0  0  0  0  0  0  0
  1  2  1  0
  2  3  1  0
  3  4  1  0
  3  5  1  0
  3  6  1  0
  6  7  1  0
  6  8  1  0
  6  9  1  0
  9 10  2  0
 10 11  1  0
 11 12  1  0
 11 13  2  0
 13 14  1  0
 13 15  1  0
 15 16  1  0
 16 17  2  0
 17 18  1  0
 17 19  1  0
 19 20  1  0
 19 21  2  0
 21 22  1  0
 22 23  1  0
 23 24  2  0
 24 25  1  0
 24 26  1  0
 26 27  1  0
 26 28  2  0
 28 29  1  0
 28 30  1  0
 30 31  1  0
 30 32  2  0
 32 33  1  0
 33 34  1  0
 34 35  1  0
 34 36  1  0
 34 37  1  0
 21 38  1  0
 38 39  1  0
 39 40  1  0
 39 41  1  0
 39 42  1  0
 38 43  2  0
 43 44  1  0
 15 45  2  0
 45 46  1  0
 45 47  1  0
 47 48  1  0
 47 10  1  0
 43 16  1  0
 32 23  1  0
M  END
>  <UniqueID>  (47) 
47

>  <SMILES>  (47) 
COc1ccccc1Sc1ccc(-c2cc/c(=N/CCO)[nH]c2)cc1C(F)(F)F

>  <Energy>  (47) 
53.12252141845592

>  <Genealogy>  (47) 
COc1ccccc1Sc1ccc(-c2cc/c(=N/CCO)[nH]c2)cc1C(F)(F)F (cis-trans isomerization)
COc1ccccc1Sc1ccc(-c2cc/c(=N/CCO)[nH]c2)cc1C(F)(F)F (3D coordinates assigned)
COc1ccccc1Sc1ccc(-c2cc/c(=N/CCO)[nH]c2)cc1C(F)(F)F (optimized conformer: 53.12252141845592 kcal/mol)

>  <smiles>  (47) 
COc1ccccc1Sc1ccc(-c2ccc(=NCCO)[nH]c2)cc1C(F)(F)F

>  <score_type>  (47) 
oracle

>  <origin>  (47) 
adg

>  <m_score__min__energy>  (47) 
-8.4199999999999999

>  <m_primary>  (47) 
energy

$$$$
47:0
     RDKit          3D

 41 43  0  0  0  0  0  0  0  0999 V2000
   56.8620   20.9240   43.5010 H   0  0  0  0  0  0  0  0  0  0  0  0
   56.2620   21.7740   43.5940 N   0  0  0  0  0  0  0  0  0  0  0  0
   56.7390   22.9250   43.9480 C   0  0  0  0  0  0  0  0  0  0  0  0
   57.4650   23.0270   45.0920 N   0  0  0  0  0  0  0  0  0  0  0  0
   57.9850   24.2150   45.4960 C   0  0  0  0  0  0  0  0  0  0  0  0
   58.5692   24.2742   46.4261 H   0  0  0  0  0  0  0  0  0  0  0  0
   57.7740   25.3670   44.7220 C   0  0  0  0  0  0  0  0  0  0  0  0
   58.3150   26.6800   45.1480 C   0  0  0  0  0  0  0  0  0  0  0  0
   58.9550   27.5070   44.2100 C   0  0  0  0  0  0  0  0  0  0  0  0
   59.0499   27.1763   43.1652 H   0  0  0  0  0  0  0  0  0  0  0  0
   59.4720   28.7470   44.5950 C   0  0  0  0  0  0  0  0  0  0  0  0
   59.9625   29.3904   43.8497 H   0  0  0  0  0  0  0  0  0  0  0  0
   59.3690   29.1750   45.9250 C   0  0  0  0  0  0  0  0  0  0  0  0
   59.9100   30.4870   46.3320 C   0  0  0  0  0  0  0  0  0  0  0  0
   61.0860   30.5140   47.1000 C   0  0  0  0  0  0  0  0  0  0  0  0
   61.5932   29.5716   47.3542 H   0  0  0  0  0  0  0  0  0  0  0  0
   61.6160   31.7260   47.5430 C   0  0  0  0  0  0  0  0  0  0  0  0
   62.5378   31.7357   48.1432 H   0  0  0  0  0  0  0  0  0  0  0  0
   60.9790   32.9250   47.2260 C   0  0  0  0  0  0  0  0  0  0  0  0
   61.3922   33.8788   47.5860 H   0  0  0  0  0  0  0  0  0  0  0  0
   59.8170   32.9160   46.4520 C   0  0  0  0  0  0  0  0  0  0  0  0
   59.3190   33.8656   46.2066 H   0  0  0  0  0  0  0  0  0  0  0  0
   59.2780   31.7080   45.9840 C   0  0  0  0  0  0  0  0  0  0  0  0
   57.8450   31.7710   44.9420 S   0  0  0  0  0  0  0  0  0  0  0  0
   57.0270   33.0010   45.2170 O   0  0  0  0  0  0  0  0  0  0  0  0
   58.2860   31.7870   43.5060 O   0  0  0  0  0  0  0  0  0  0  0  0
   56.8500   30.3740   45.2040 N   0  0  0  0  0  0  0  0  0  0  0  0
   56.1050   29.7100   44.1780 C   0  0  0  0  0  0  0  0  0  0  0  0
   55.1310   28.9840   44.5070 O   0  0  0  0  0  0  0  0  0  0  0  0
   56.4630   29.8430   42.7290 C   0  0  0  0  0  0  0  0  0  0  0  0
   57.4907   30.2248   42.6388 H   0  0  0  0  0  0  0  0  0  0  0  0
   56.3934   28.8590   42.2423 H   0  0  0  0  0  0  0  0  0  0  0  0
   55.7678   30.5428   42.2423 H   0  0  0  0  0  0  0  0  0  0  0  0
   58.7250   28.3570   46.8640 C   0  0  0  0  0  0  0  0  0  0  0  0
   58.6272   28.6942   47.9065 H   0  0  0  0  0  0  0  0  0  0  0  0
   58.2060   27.1150   46.4840 C   0  0  0  0  0  0  0  0  0  0  0  0
   57.6340   26.3270   47.4290 F   0  0  0  0  0  0  0  0  0  0  0  0
   57.0350   25.2630   43.5780 N   0  0  0  0  0  0  0  0  0  0  0  0
   56.8700   26.1040   42.9800 H   0  0  0  0  0  0  0  0  0  0  0  0
   56.5190   24.0710   43.1740 C   0  0  0  0  0  0  0  0  0  0  0  0
   55.9328   24.0077   42.2454 H   0  0  0  0  0  0  0  0  0  0  0  0
  1  2  1  0
  2  3  2  0
  3  4  1  0
  4  5  1  0
  5  6  1  0
  5  7  2  0
  7  8  1  0
  8  9  2  0
  9 10  1  0
  9 11  1  0
 11 12  1  0
 11 13  2  0
 13 14  1  0
 14 15  2  0
 15 16  1  0
 15 17  1  0
 17 18  1  0
 17 19  2  0
 19 20  1  0
 19 21  1  0
 21 22  1  0
 21 23  2  0
 23 24  1  0
 24 25  2  0
 24 26  2  0
 24 27  1  0
 27 28  1  0
 28 29  2  0
 28 30  1  0
 30 31  1  0
 30 32  1  0
 30 33  1  0
 13 34  1  0
 34 35  1  0
 34 36  2  0
 36 37  1  0
  7 38  1  0
 38 39  1  0
 38 40  2  0
 40 41  1  0
 40  3  1  0
 36  8  1  0
 23 14  1  0
M  CHG  3   4  -1  27  -1  38   1
M  END
>  <UniqueID>  (48) 
48

>  <SMILES>  (48) 
[H]/N=c1\c[nH+]c(-c2ccc(-c3ccccc3S(=O)(=O)[N-]C(C)=O)cc2F)c[n-]1

>  <Energy>  (48) 
60.04489606910374

>  <Genealogy>  (48) 
CC(=O)[N-]S(=O)(=O)c1ccccc1-c1ccc(-c2c[n-]c(=N)c[nH+]2)c(F)c1 (protonated)
[H]/N=c1\c[nH+]c(-c2ccc(-c3ccccc3S(=O)(=O)[N-]C(C)=O)cc2F)c[n-]1 (cis-trans isomerization)
[H]/N=c1\c[nH+]c(-c2ccc(-c3ccccc3S(=O)(=O)[N-]C(C)=O)cc2F)c[n-]1 (3D coordinates assigned)
[H]/N=c1\c[nH+]c(-c2ccc(-c3ccccc3S(=O)(=O)[N-]C(C)=O)cc2F)c[n-]1 (optimized conformer: 60.04489606910374 kcal/mol)

>  <smiles>  (48) 
CC(=O)NS(=O)(=O)c1ccccc1-c1ccc(-c2c[nH]c(=N)cn2)c(F)c1

>  <score_type>  (48) 
oracle

>  <origin>  (48) 
adg

>  <m_score__min__energy>  (48) 
-10.67

>  <m_primary>  (48) 
energy

$$$$
