0:0
     RDKit          3D

 38 40  0  0  0  0  0  0  0  0999 V2000
   58.1270   26.7170   42.5030 C   0  0  0  0  0  0  0  0  0  0  0  0
   57.9160   26.9370   43.8950 O   0  0  0  0  0  0  0  0  0  0  0  0
   58.1780   28.1480   44.5550 C   0  0  0  0  0  0  0  0  0  0  0  0
   57.3720   29.2960   44.3550 C   0  0  0  0  0  0  0  0  0  0  0  0
   57.6980   30.4570   45.0460 C   0  0  0  0  0  0  0  0  0  0  0  0
   57.0900   31.6220   44.9900 O   0  0  0  0  0  0  0  0  0  0  0  0
   57.7470   32.4360   45.7950 C   0  0  0  0  0  0  0  0  0  0  0  0
   58.7910   31.7820   46.4100 C   0  0  0  0  0  0  0  0  0  0  0  0
   58.7650   30.5030   45.9060 C   0  0  0  0  0  0  0  0  0  0  0  0
   59.5850   29.4030   46.1300 C   0  0  0  0  0  0  0  0  0  0  0  0
   59.2850   28.2020   45.4430 C   0  0  0  0  0  0  0  0  0  0  0  0
   60.0580   27.0420   45.6100 O   0  0  0  0  0  0  0  0  0  0  0  0
   60.3930   26.4740   46.8720 C   0  0  0  0  0  0  0  0  0  0  0  0
   59.7720   32.4450   47.3230 C   0  0  0  0  0  0  0  0  0  0  0  0
   59.2380   33.8360   47.7490 C   0  0  0  0  0  0  0  0  0  0  0  0
   58.6140   34.5880   46.6270 N   0  0  0  0  0  0  0  0  0  0  0  0
   59.6130   34.9320   45.5940 C   0  0  0  0  0  0  0  0  0  0  0  0
   57.4180   33.8710   46.0940 C   0  0  1  0  0  0  0  0  0  0  0  0
   56.7880   34.5740   44.8820 C   0  0  0  0  0  0  0  0  0  0  0  0
   58.8825   25.9292   42.3667 H   0  0  0  0  0  0  0  0  0  0  0  0
   57.1825   26.4043   42.0339 H   0  0  0  0  0  0  0  0  0  0  0  0
   58.4789   27.6477   42.0339 H   0  0  0  0  0  0  0  0  0  0  0  0
   56.5110   29.2691   43.6709 H   0  0  0  0  0  0  0  0  0  0  0  0
   60.4400   29.4638   46.8193 H   0  0  0  0  0  0  0  0  0  0  0  0
   60.0123   27.1195   47.6773 H   0  0  0  0  0  0  0  0  0  0  0  0
   59.9391   25.4756   46.9568 H   0  0  0  0  0  0  0  0  0  0  0  0
   61.4864   26.3881   46.9568 H   0  0  0  0  0  0  0  0  0  0  0  0
   59.9181   31.8208   48.2169 H   0  0  0  0  0  0  0  0  0  0  0  0
   60.7298   32.5700   46.7967 H   0  0  0  0  0  0  0  0  0  0  0  0
   58.4850   33.6956   48.5385 H   0  0  0  0  0  0  0  0  0  0  0  0
   60.0978   34.4246   48.1015 H   0  0  0  0  0  0  0  0  0  0  0  0
   60.5464   35.2534   46.0792 H   0  0  0  0  0  0  0  0  0  0  0  0
   59.8106   34.0501   44.9669 H   0  0  0  0  0  0  0  0  0  0  0  0
   59.2257   35.7485   44.9669 H   0  0  0  0  0  0  0  0  0  0  0  0
   56.6535   33.8927   46.8846 H   0  0  0  0  0  0  0  0  0  0  0  0
   56.0916   35.3511   45.2300 H   0  0  0  0  0  0  0  0  0  0  0  0
   57.5795   35.0365   44.2741 H   0  0  0  0  0  0  0  0  0  0  0  0
   56.2418   33.8377   44.2741 H   0  0  0  0  0  0  0  0  0  0  0  0
  1  2  1  0
  2  3  1  0
  3  4  2  0
  4  5  1  0
  5  6  1  0
  6  7  1  0
  7  8  2  0
  8  9  1  0
  9 10  1  0
 10 11  2  0
 11 12  1  0
 12 13  1  0
  8 14  1  0
 14 15  1  0
 15 16  1  0
 16 17  1  0
 16 18  1  0
 18 19  1  0
 11  3  1  0
  9  5  2  0
 18  7  1  0
  1 20  1  0
  1 21  1  0
  1 22  1  0
  4 23  1  0
 10 24  1  0
 13 25  1  0
 13 26  1  0
 13 27  1  0
 14 28  1  0
 14 29  1  0
 15 30  1  0
 15 31  1  0
 17 32  1  0
 17 33  1  0
 17 34  1  0
 18 35  1  1
 19 36  1  0
 19 37  1  0
 19 38  1  0
M  END
>  <UniqueID>  (1) 
1

>  <SMILES>  (1) 
COc1cc2oc3c(c2cc1OC)CCN(C)[C@H]3C

>  <Energy>  (1) 
79.70787765266485

>  <Genealogy>  (1) 
COc1cc2oc3c(c2cc1OC)CCN(C)[C@H]3C (chirality)
COc1cc2oc3c(c2cc1OC)CCN(C)[C@H]3C (3D coordinates assigned)
COc1cc2oc3c(c2cc1OC)CCN(C)[C@H]3C (nonaromatic ring conformer: 79.70787765266485 kcal/mol)

>  <smiles>  (1) 
COc1cc2oc3c(c2cc1OC)CCN(C)C3C

>  <score_type>  (1) 
oracle

>  <origin>  (1) 
adg

>  <m_score__min__energy>  (1) 
-6

>  <m_primary>  (1) 
energy

$$$$
1:0
     RDKit          3D

 32 34  0  0  0  0  0  0  0  0999 V2000
   60.4090   25.9780   46.3920 C   0  0  0  0  0  0  0  0  0  0  0  0
   59.5670   27.1040   45.8700 C   0  0  0  0  0  0  0  0  0  0  0  0
   60.1700   28.2120   45.2540 C   0  0  0  0  0  0  0  0  0  0  0  0
   59.3840   29.2430   44.7340 C   0  0  0  0  0  0  0  0  0  0  0  0
   57.9860   29.1720   44.8100 C   0  0  0  0  0  0  0  0  0  0  0  0
   56.9890   30.4600   44.1450 S   0  0  0  0  0  0  0  0  0  0  0  0
   56.9680   30.3400   42.6470 O   0  0  0  0  0  0  0  0  0  0  0  0
   55.5820   30.3590   44.6660 O   0  0  0  0  0  0  0  0  0  0  0  0
   57.6460   31.9990   44.6030 N   0  0  0  0  0  0  0  0  0  0  0  0
   57.7690   33.0830   43.8050 C   0  0  0  0  0  0  0  0  0  0  0  0
   58.3640   34.1300   44.5000 C   0  0  0  0  0  0  0  0  0  0  0  0
   58.6050   33.6380   45.7660 C   0  0  0  0  0  0  0  0  0  0  0  0
   59.1900   34.2450   46.8750 C   0  0  0  0  0  0  0  0  0  0  0  0
   59.3150   33.4810   48.0520 C   0  0  0  0  0  0  0  0  0  0  0  0
   60.0460   34.1930   49.4780 Cl  0  0  0  0  0  0  0  0  0  0  0  0
   58.8560   32.1450   48.0890 C   0  0  0  0  0  0  0  0  0  0  0  0
   58.2680   31.5610   46.9520 C   0  0  0  0  0  0  0  0  0  0  0  0
   58.1580   32.3420   45.7990 C   0  0  0  0  0  0  0  0  0  0  0  0
   57.3820   28.0620   45.4150 C   0  0  0  0  0  0  0  0  0  0  0  0
   58.1670   27.0290   45.9340 C   0  0  0  0  0  0  0  0  0  0  0  0
   60.3987   25.9918   47.4919 H   0  0  0  0  0  0  0  0  0  0  0  0
   60.0037   25.0203   46.0335 H   0  0  0  0  0  0  0  0  0  0  0  0
   61.4422   26.0960   46.0335 H   0  0  0  0  0  0  0  0  0  0  0  0
   61.2661   28.2685   45.1805 H   0  0  0  0  0  0  0  0  0  0  0  0
   59.8637   30.1137   44.2632 H   0  0  0  0  0  0  0  0  0  0  0  0
   57.4445   33.1302   42.7550 H   0  0  0  0  0  0  0  0  0  0  0  0
   58.5937   35.1367   44.1209 H   0  0  0  0  0  0  0  0  0  0  0  0
   59.5426   35.2861   46.8331 H   0  0  0  0  0  0  0  0  0  0  0  0
   58.9591   31.5575   49.0132 H   0  0  0  0  0  0  0  0  0  0  0  0
   57.9064   30.5223   46.9704 H   0  0  0  0  0  0  0  0  0  0  0  0
   56.2856   28.0034   45.4817 H   0  0  0  0  0  0  0  0  0  0  0  0
   57.6858   26.1536   46.3945 H   0  0  0  0  0  0  0  0  0  0  0  0
  1  2  1  0
  2  3  2  0
  3  4  1  0
  4  5  2  0
  5  6  1  0
  6  7  2  0
  6  8  2  0
  6  9  1  0
  9 10  1  0
 10 11  2  0
 11 12  1  0
 12 13  2  0
 13 14  1  0
 14 15  1  0
 14 16  2  0
 16 17  1  0
 17 18  2  0
  5 19  1  0
 19 20  2  0
 20  2  1  0
 18  9  1  0
 18 12  1  0
  1 21  1  0
  1 22  1  0
  1 23  1  0
  3 24  1  0
  4 25  1  0
 10 26  1  0
 11 27  1  0
 13 28  1  0
 16 29  1  0
 17 30  1  0
 19 31  1  0
 20 32  1  0
M  END
>  <UniqueID>  (2) 
2

>  <SMILES>  (2) 
Cc1ccc(S(=O)(=O)n2ccc3cc(Cl)ccc32)cc1

>  <Energy>  (2) 
68.41422618562461

>  <Genealogy>  (2) 
Cc1ccc(S(=O)(=O)n2ccc3cc(Cl)ccc32)cc1 (3D coordinates assigned)
Cc1ccc(S(=O)(=O)n2ccc3cc(Cl)ccc32)cc1 (optimized conformer: 68.41422618562461 kcal/mol)

>  <smiles>  (2) 
Cc1ccc(S(=O)(=O)n2ccc3cc(Cl)ccc32)cc1

>  <score_type>  (2) 
oracle

>  <origin>  (2) 
adg

>  <m_score__min__energy>  (2) 
-8.0899999999999999

>  <m_primary>  (2) 
energy

$$$$
2:0
     RDKit          3D

 56 59  0  0  1  0  0  0  0  0999 V2000
   59.6370   35.5800   45.7650 C   0  0  0  0  0  0  0  0  0  0  0  0
   58.9070   34.2800   45.5750 C   0  0  0  0  0  0  0  0  0  0  0  0
   58.4420   33.6230   46.6940 C   0  0  0  0  0  0  0  0  0  0  0  0
   57.7730   32.4310   46.5060 C   0  0  0  0  0  0  0  0  0  0  0  0
   57.5820   31.9250   45.2280 C   0  0  0  0  0  0  0  0  0  0  0  0
   56.8750   30.6780   45.1220 N   0  0  0  0  0  0  0  0  0  0  0  0
   57.3930   29.6010   45.6470 C   0  0  0  0  0  0  0  0  0  0  0  0
   58.3410   29.6750   46.5950 N   0  0  0  0  0  0  0  0  0  0  0  0
   58.8420   28.5340   47.1020 C   0  0  0  0  0  0  0  0  0  0  0  0
   59.8620   28.5400   48.1230 N   0  0  0  0  0  0  0  0  0  0  0  0
   60.4510   27.3580   48.7510 C   0  0  0  0  0  0  0  0  0  0  0  0
   60.7010   27.8400   50.1560 C   0  0  0  0  0  0  0  0  0  0  0  0
   61.0450   29.2900   49.9540 C   0  0  0  0  0  0  0  0  0  0  0  0
   60.4410   29.7430   48.6620 C   0  0  0  0  0  0  0  0  0  0  0  0
   58.3840   27.3550   46.6510 N   0  0  0  0  0  0  0  0  0  0  0  0
   57.4350   27.2590   45.7020 C   0  0  0  0  0  0  0  0  0  0  0  0
   56.9510   26.0090   45.2250 N   0  0  0  0  0  0  0  0  0  0  0  0
   55.9970   25.1940   45.9530 C   0  0  0  0  0  0  0  0  0  0  0  0
   56.5820   23.8200   46.1470 C   0  0  0  0  0  0  0  0  0  0  0  0
   57.1020   23.2900   44.9260 N   0  0  0  0  0  0  0  0  0  0  0  0
   58.4870   22.9360   45.0180 C   0  0  0  0  0  0  0  0  0  0  0  0
   56.8080   24.1060   43.7770 C   0  0  0  0  0  0  0  0  0  0  0  0
   57.4120   25.4850   43.9480 C   0  0  0  0  0  0  0  0  0  0  0  0
   56.9430   28.4010   45.2020 N   0  0  0  0  0  0  0  0  0  0  0  0
   58.0540   32.5970   44.1150 C   0  0  0  0  0  0  0  0  0  0  0  0
   57.8290   32.0210   42.7560 C   0  0  0  0  0  0  0  0  0  0  0  0
   58.7350   33.8060   44.2890 C   0  0  0  0  0  0  0  0  0  0  0  0
   59.7509   35.7828   46.8401 H   0  0  0  0  0  0  0  0  0  0  0  0
   60.6303   35.5146   45.2970 H   0  0  0  0  0  0  0  0  0  0  0  0
   59.0641   36.3941   45.2970 H   0  0  0  0  0  0  0  0  0  0  0  0
   58.5988   34.0347   47.7019 H   0  0  0  0  0  0  0  0  0  0  0  0
   57.3883   31.8778   47.3754 H   0  0  0  0  0  0  0  0  0  0  0  0
   59.7519   26.5088   48.7385 H   0  0  0  0  0  0  0  0  0  0  0  0
   61.3537   26.9893   48.2419 H   0  0  0  0  0  0  0  0  0  0  0  0
   59.8012   27.7292   50.7790 H   0  0  0  0  0  0  0  0  0  0  0  0
   61.4872   27.2742   50.6773 H   0  0  0  0  0  0  0  0  0  0  0  0
   60.6388   29.8873   50.7836 H   0  0  0  0  0  0  0  0  0  0  0  0
   62.1370   29.4192   49.9266 H   0  0  0  0  0  0  0  0  0  0  0  0
   59.6694   30.5076   48.8352 H   0  0  0  0  0  0  0  0  0  0  0  0
   61.1737   30.2069   47.9853 H   0  0  0  0  0  0  0  0  0  0  0  0
   58.7520   26.4480   47.0250 H   0  0  0  0  0  0  0  0  0  0  0  0
   55.7923   25.6505   46.9326 H   0  0  0  0  0  0  0  0  0  0  0  0
   55.0565   25.1236   45.3870 H   0  0  0  0  0  0  0  0  0  0  0  0
   57.3957   23.8798   46.8848 H   0  0  0  0  0  0  0  0  0  0  0  0
   55.7809   23.1524   46.4971 H   0  0  0  0  0  0  0  0  0  0  0  0
   58.7770   22.8619   46.0765 H   0  0  0  0  0  0  0  0  0  0  0  0
   58.6514   21.9670   44.5241 H   0  0  0  0  0  0  0  0  0  0  0  0
   59.0962   23.7073   44.5241 H   0  0  0  0  0  0  0  0  0  0  0  0
   57.2298   23.6333   42.8778 H   0  0  0  0  0  0  0  0  0  0  0  0
   55.7171   24.2016   43.6736 H   0  0  0  0  0  0  0  0  0  0  0  0
   58.5099   25.4173   43.9441 H   0  0  0  0  0  0  0  0  0  0  0  0
   57.1061   26.1469   43.1244 H   0  0  0  0  0  0  0  0  0  0  0  0
   57.4303   31.0003   42.8518 H   0  0  0  0  0  0  0  0  0  0  0  0
   57.1089   32.6460   42.2075 H   0  0  0  0  0  0  0  0  0  0  0  0
   58.7821   31.9924   42.2075 H   0  0  0  0  0  0  0  0  0  0  0  0
   59.1234   34.3647   43.4247 H   0  0  0  0  0  0  0  0  0  0  0  0
  1  2  1  0
  2  3  2  0
  3  4  1  0
  4  5  2  0
  5  6  1  0
  6  7  2  0
  7  8  1  0
  8  9  2  0
  9 10  1  0
 10 11  1  0
 11 12  1  0
 12 13  1  0
 13 14  1  0
  9 15  1  0
 15 16  1  0
 16 17  1  0
 17 18  1  0
 18 19  1  0
 19 20  1  0
 20 21  1  0
 20 22  1  0
 22 23  1  0
 16 24  2  0
  5 25  1  0
 25 26  1  0
 25 27  2  0
 27  2  1  0
 24  7  1  0
 14 10  1  0
 23 17  1  0
  1 28  1  0
  1 29  1  0
  1 30  1  0
  3 31  1  0
  4 32  1  0
 11 33  1  0
 11 34  1  0
 12 35  1  0
 12 36  1  0
 13 37  1  0
 13 38  1  0
 14 39  1  0
 14 40  1  0
 15 41  1  0
 18 42  1  0
 18 43  1  0
 19 44  1  0
 19 45  1  0
 21 46  1  0
 21 47  1  0
 21 48  1  0
 22 49  1  0
 22 50  1  0
 23 51  1  0
 23 52  1  0
 26 53  1  0
 26 54  1  0
 26 55  1  0
 27 56  1  0
M  END
>  <smiles>  (3) 
Cc1ccc(N=c2nc(N3CCCC3)[nH]c(N3CCN(C)CC3)n2)c(C)c1

>  <score_type>  (3) 
oracle

>  <origin>  (3) 
adg

>  <m_score__min__energy>  (3) 
-7.6600000000000001

>  <m_primary>  (3) 
energy

$$$$
3:0
     RDKit          3D

 56 59  0  0  0  0  0  0  0  0999 V2000
   60.4330   27.6450   49.2530 C   0  0  0  0  0  0  0  0  0  0  0  0
   60.4300   27.0960   47.8280 C   0  0  0  0  0  0  0  0  0  0  0  0
   59.2180   27.5320   47.1040 N   0  0  0  0  0  0  0  0  0  0  0  0
   58.1970   26.6260   46.9970 C   0  0  0  0  0  0  0  0  0  0  0  0
   57.0040   26.9420   46.3460 C   0  0  0  0  0  0  0  0  0  0  0  0
   55.9110   25.9510   46.2890 C   0  0  0  0  0  0  0  0  0  0  0  0
   54.7530   26.3350   45.9820 O   0  0  0  0  0  0  0  0  0  0  0  0
   56.1230   24.5670   46.5990 N   0  0  0  0  0  0  0  0  0  0  0  0
   56.3760   23.5040   45.6250 C   0  0  0  0  0  0  0  0  0  0  0  0
   57.8840   23.4340   45.3380 C   0  0  0  0  0  0  0  0  0  0  0  0
   58.2300   22.2840   44.3720 C   0  0  0  0  0  0  0  0  0  0  0  0
   57.0930   21.9420   43.3890 C   0  0  0  0  0  0  0  0  0  0  0  0
   56.2450   23.1730   43.0620 C   0  0  0  0  0  0  0  0  0  0  0  0
   55.5700   23.7510   44.3220 C   0  0  0  0  0  0  0  0  0  0  0  0
   56.8630   28.1980   45.7490 C   0  0  0  0  0  0  0  0  0  0  0  0
   55.7890   28.4910   45.1520 O   0  0  0  0  0  0  0  0  0  0  0  0
   57.9100   29.1320   45.8320 C   0  0  0  0  0  0  0  0  0  0  0  0
   57.7810   30.4070   45.2480 C   0  0  0  0  0  0  0  0  0  0  0  0
   58.8230   31.3430   45.3270 C   0  0  0  0  0  0  0  0  0  0  0  0
   58.6560   32.6660   44.7760 N   0  0  0  0  0  0  0  0  0  0  0  0
   57.8800   33.4980   45.7060 C   0  0  0  0  0  0  0  0  0  0  0  0
   58.6480   33.7440   46.9680 C   0  0  0  0  0  0  0  0  0  0  0  0
   58.5170   33.0330   48.1540 C   0  0  0  0  0  0  0  0  0  0  0  0
   59.3660   33.4950   49.1680 C   0  0  0  0  0  0  0  0  0  0  0  0
   60.1650   34.5660   48.7830 C   0  0  0  0  0  0  0  0  0  0  0  0
   59.8120   34.9400   47.1820 S   0  0  0  0  0  0  0  0  0  0  0  0
   59.9990   30.9990   46.0020 C   0  0  0  0  0  0  0  0  0  0  0  0
   60.1450   29.7390   46.5820 C   0  0  0  0  0  0  0  0  0  0  0  0
   59.1040   28.7810   46.5200 C   0  0  0  0  0  0  0  0  0  0  0  0
   60.4284   26.8091   49.9680 H   0  0  0  0  0  0  0  0  0  0  0  0
   61.3345   28.2558   49.4087 H   0  0  0  0  0  0  0  0  0  0  0  0
   59.5382   28.2656   49.4087 H   0  0  0  0  0  0  0  0  0  0  0  0
   61.3201   27.4644   47.2970 H   0  0  0  0  0  0  0  0  0  0  0  0
   60.4401   25.9969   47.8719 H   0  0  0  0  0  0  0  0  0  0  0  0
   58.3203   25.6245   47.4350 H   0  0  0  0  0  0  0  0  0  0  0  0
   56.0442   22.5405   46.0392 H   0  0  0  0  0  0  0  0  0  0  0  0
   58.2055   24.3852   44.8888 H   0  0  0  0  0  0  0  0  0  0  0  0
   58.4049   23.2499   46.2892 H   0  0  0  0  0  0  0  0  0  0  0  0
   59.1176   22.5734   43.7903 H   0  0  0  0  0  0  0  0  0  0  0  0
   58.4065   21.3885   44.9859 H   0  0  0  0  0  0  0  0  0  0  0  0
   57.5305   21.5519   42.4582 H   0  0  0  0  0  0  0  0  0  0  0  0
   56.4429   21.1907   43.8612 H   0  0  0  0  0  0  0  0  0  0  0  0
   56.8920   23.9442   42.6186 H   0  0  0  0  0  0  0  0  0  0  0  0
   55.4557   22.8689   42.3588 H   0  0  0  0  0  0  0  0  0  0  0  0
   55.4512   24.8361   44.1866 H   0  0  0  0  0  0  0  0  0  0  0  0
   54.6045   23.2365   44.4365 H   0  0  0  0  0  0  0  0  0  0  0  0
   56.8514   30.6723   44.7232 H   0  0  0  0  0  0  0  0  0  0  0  0
   58.1590   32.6030   43.8570 H   0  0  0  0  0  0  0  0  0  0  0  0
   59.5940   33.1040   44.6100 H   0  0  0  0  0  0  0  0  0  0  0  0
   57.6563   34.4623   45.2263 H   0  0  0  0  0  0  0  0  0  0  0  0
   56.9484   32.9700   45.9577 H   0  0  0  0  0  0  0  0  0  0  0  0
   57.8183   32.1933   48.2837 H   0  0  0  0  0  0  0  0  0  0  0  0
   59.3976   33.0521   50.1744 H   0  0  0  0  0  0  0  0  0  0  0  0
   60.9019   35.0805   49.4172 H   0  0  0  0  0  0  0  0  0  0  0  0
   60.8175   31.7302   46.0761 H   0  0  0  0  0  0  0  0  0  0  0  0
   61.0839   29.4853   47.0959 H   0  0  0  0  0  0  0  0  0  0  0  0
  1  2  1  0
  2  3  1  0
  3  4  1  0
  4  5  2  0
  5  6  1  0
  6  7  2  0
  6  8  1  0
  8  9  1  0
  9 10  1  0
 10 11  1  0
 11 12  1  0
 12 13  1  0
 13 14  1  0
  5 15  1  0
 15 16  2  0
 15 17  1  0
 17 18  2  0
 18 19  1  0
 19 20  1  0
 20 21  1  0
 21 22  1  0
 22 23  2  0
 23 24  1  0
 24 25  2  0
 25 26  1  0
 19 27  2  0
 27 28  1  0
 28 29  2  0
 29  3  1  0
 14  9  1  0
 29 17  1  0
 26 22  1  0
  1 30  1  0
  1 31  1  0
  1 32  1  0
  2 33  1  0
  2 34  1  0
  4 35  1  0
  9 36  1  0
 10 37  1  0
 10 38  1  0
 11 39  1  0
 11 40  1  0
 12 41  1  0
 12 42  1  0
 13 43  1  0
 13 44  1  0
 14 45  1  0
 14 46  1  0
 18 47  1  0
 20 48  1  0
 20 49  1  0
 21 50  1  0
 21 51  1  0
 23 52  1  0
 24 53  1  0
 25 54  1  0
 27 55  1  0
 28 56  1  0
M  CHG  2   8  -1  20   1
M  END
>  <UniqueID>  (4) 
3

>  <SMILES>  (4) 
CCn1cc(C(=O)[N-]C2CCCCC2)c(=O)c2cc([NH2+]Cc3cccs3)ccc21

>  <Energy>  (4) 
97.13540810519174

>  <Genealogy>  (4) 
CCn1cc(C(=O)[N-]C2CCCCC2)c(=O)c2cc([NH2+]Cc3cccs3)ccc21 (protonated)
CCn1cc(C(=O)[N-]C2CCCCC2)c(=O)c2cc([NH2+]Cc3cccs3)ccc21 (3D coordinates assigned)
CCn1cc(C(=O)[N-]C2CCCCC2)c(=O)c2cc([NH2+]Cc3cccs3)ccc21 (nonaromatic ring conformer: 97.13540810519174 kcal/mol)

>  <smiles>  (4) 
CCn1cc(C(=O)NC2CCCCC2)c(=O)c2cc(NCc3cccs3)ccc21

>  <score_type>  (4) 
oracle

>  <origin>  (4) 
adg

>  <m_score__min__energy>  (4) 
-9.1699999999999999

>  <m_primary>  (4) 
energy

$$$$
4:0
     RDKit          3D

 35 37  0  0  0  0  0  0  0  0999 V2000
   59.1270   31.0480   48.4780 C   0  0  0  0  0  0  0  0  0  0  0  0
   59.3160   31.0840   47.0540 N   0  0  0  0  0  0  0  0  0  0  0  0
   59.8660   29.9520   46.3740 C   0  0  0  0  0  0  0  0  0  0  0  0
   59.3280   28.6380   46.7730 C   0  0  0  0  0  0  0  0  0  0  0  0
   60.0520   27.7340   47.5610 C   0  0  0  0  0  0  0  0  0  0  0  0
   59.3190   26.6550   47.6870 O   0  0  0  0  0  0  0  0  0  0  0  0
   58.1800   26.7430   47.0670 C   0  0  0  0  0  0  0  0  0  0  0  0
   57.0980   25.9610   46.8830 N   0  0  0  0  0  0  0  0  0  0  0  0
   56.0400   26.3630   46.1660 C   0  0  0  0  0  0  0  0  0  0  0  0
   54.9870   25.6180   45.9790 N   0  0  0  0  0  0  0  0  0  0  0  0
   55.9840   27.5860   45.5760 N   0  0  0  0  0  0  0  0  0  0  0  0
   57.0510   28.3820   45.7450 C   0  0  0  0  0  0  0  0  0  0  0  0
   57.0110   29.5510   45.2120 N   0  0  0  0  0  0  0  0  0  0  0  0
   58.1480   28.0040   46.4670 C   0  0  0  0  0  0  0  0  0  0  0  0
   58.9700   32.2880   46.3420 C   0  0  0  0  0  0  0  0  0  0  0  0
   59.7630   33.4150   46.3540 C   0  0  0  0  0  0  0  0  0  0  0  0
   59.4240   34.5860   45.6890 C   0  0  0  0  0  0  0  0  0  0  0  0
   58.2520   34.6700   44.9740 C   0  0  0  0  0  0  0  0  0  0  0  0
   57.4440   33.5600   44.9460 C   0  0  0  0  0  0  0  0  0  0  0  0
   57.7890   32.3880   45.6150 C   0  0  0  0  0  0  0  0  0  0  0  0
   60.0884   31.2311   48.9802 H   0  0  0  0  0  0  0  0  0  0  0  0
   58.4059   31.8249   48.7719 H   0  0  0  0  0  0  0  0  0  0  0  0
   58.7420   30.0604   48.7719 H   0  0  0  0  0  0  0  0  0  0  0  0
   59.6777   30.0808   45.2979 H   0  0  0  0  0  0  0  0  0  0  0  0
   60.9324   29.9317   46.6432 H   0  0  0  0  0  0  0  0  0  0  0  0
   61.0499   27.8991   47.9934 H   0  0  0  0  0  0  0  0  0  0  0  0
   57.0840   25.0170   47.3110 H   0  0  0  0  0  0  0  0  0  0  0  0
   54.0490   25.8740   46.3740 H   0  0  0  0  0  0  0  0  0  0  0  0
   55.1630   27.8810   45.0280 H   0  0  0  0  0  0  0  0  0  0  0  0
   57.8350   29.8810   44.6800 H   0  0  0  0  0  0  0  0  0  0  0  0
   60.7080   33.3857   46.9162 H   0  0  0  0  0  0  0  0  0  0  0  0
   60.0985   35.4538   45.7344 H   0  0  0  0  0  0  0  0  0  0  0  0
   57.9722   35.5924   44.4441 H   0  0  0  0  0  0  0  0  0  0  0  0
   56.5008   33.5973   44.3812 H   0  0  0  0  0  0  0  0  0  0  0  0
   57.1121   31.5223   45.5671 H   0  0  0  0  0  0  0  0  0  0  0  0
  1  2  1  0
  2  3  1  0
  3  4  1  0
  4  5  2  0
  5  6  1  0
  6  7  1  0
  7  8  1  0
  8  9  1  0
  9 10  2  3
  9 11  1  0
 11 12  1  0
 12 13  2  3
 12 14  1  0
  2 15  1  0
 15 16  2  0
 16 17  1  0
 17 18  2  0
 18 19  1  0
 19 20  2  0
 14  4  1  0
 20 15  1  0
 14  7  2  0
  1 21  1  0
  1 22  1  0
  1 23  1  0
  3 24  1  0
  3 25  1  0
  5 26  1  0
  8 27  1  0
 10 28  1  0
 11 29  1  0
 13 30  1  0
 16 31  1  0
 17 32  1  0
 18 33  1  0
 19 34  1  0
 20 35  1  0
M  END
>  <smiles>  (5) 
CN(Cc1coc2[nH]c(=N)[nH]c(=N)c12)c1ccccc1

>  <score_type>  (5) 
oracle

>  <origin>  (5) 
adg

>  <m_score__min__energy>  (5) 
-6.9800000000000004

>  <m_primary>  (5) 
energy

$$$$
5:0
     RDKit          3D

 37 39  0  0  0  0  0  0  0  0999 V2000
   55.1300   29.6620   44.4130 N   0  0  0  0  0  0  0  0  0  0  0  0
   56.5070   29.3040   44.6190 C   0  0  0  0  0  0  0  0  0  0  0  0
   57.5590   30.1160   44.1490 C   0  0  0  0  0  0  0  0  0  0  0  0
   57.3130   31.3460   43.3100 C   0  0  0  0  0  0  0  0  0  0  0  0
   58.3030   32.3930   43.6000 N   0  0  0  0  0  0  0  0  0  0  0  0
   57.8360   33.3290   44.9960 S   0  0  0  0  0  0  0  0  0  0  0  0
   57.4840   34.7310   44.5810 O   0  0  0  0  0  0  0  0  0  0  0  0
   56.6210   32.7020   45.6200 O   0  0  0  0  0  0  0  0  0  0  0  0
   59.1350   33.3660   46.1880 C   0  0  0  0  0  0  0  0  0  0  0  0
   59.8830   32.2110   46.4590 C   0  0  0  0  0  0  0  0  0  0  0  0
   60.8570   32.2220   47.4620 C   0  0  0  0  0  0  0  0  0  0  0  0
   61.0900   33.3880   48.1980 C   0  0  0  0  0  0  0  0  0  0  0  0
   62.0240   33.3950   49.1800 F   0  0  0  0  0  0  0  0  0  0  0  0
   60.3540   34.5460   47.9250 C   0  0  0  0  0  0  0  0  0  0  0  0
   59.3780   34.5360   46.9240 C   0  0  0  0  0  0  0  0  0  0  0  0
   58.8370   29.7770   44.4520 N   0  0  0  0  0  0  0  0  0  0  0  0
   59.1430   28.6460   45.1330 C   0  0  0  0  0  0  0  0  0  0  0  0
   60.4860   28.3410   45.3750 C   0  0  0  0  0  0  0  0  0  0  0  0
   60.8140   27.1620   46.0360 C   0  0  0  0  0  0  0  0  0  0  0  0
   59.8040   26.3010   46.4540 C   0  0  0  0  0  0  0  0  0  0  0  0
   58.4700   26.6320   46.2050 C   0  0  0  0  0  0  0  0  0  0  0  0
   58.1450   27.7950   45.5500 N   0  0  0  0  0  0  0  0  0  0  0  0
   56.8320   28.1220   45.3090 C   0  0  0  0  0  0  0  0  0  0  0  0
   55.9020   27.3660   45.7090 O   0  0  0  0  0  0  0  0  0  0  0  0
   54.8670   30.6040   44.0460 H   0  0  0  0  0  0  0  0  0  0  0  0
   54.3540   28.9770   44.5390 H   0  0  0  0  0  0  0  0  0  0  0  0
   57.3793   31.0740   42.2462 H   0  0  0  0  0  0  0  0  0  0  0  0
   56.3126   31.7364   43.5485 H   0  0  0  0  0  0  0  0  0  0  0  0
   59.2020   31.9210   43.8500 H   0  0  0  0  0  0  0  0  0  0  0  0
   59.7027   31.2931   45.8803 H   0  0  0  0  0  0  0  0  0  0  0  0
   61.4401   31.3133   47.6722 H   0  0  0  0  0  0  0  0  0  0  0  0
   60.5434   35.4654   48.4985 H   0  0  0  0  0  0  0  0  0  0  0  0
   58.7992   35.4473   46.7128 H   0  0  0  0  0  0  0  0  0  0  0  0
   61.2781   29.0291   45.0447 H   0  0  0  0  0  0  0  0  0  0  0  0
   61.8678   26.9112   46.2276 H   0  0  0  0  0  0  0  0  0  0  0  0
   60.0543   25.3662   46.9769 H   0  0  0  0  0  0  0  0  0  0  0  0
   57.6704   25.9535   46.5372 H   0  0  0  0  0  0  0  0  0  0  0  0
  1  2  1  0
  2  3  2  0
  3  4  1  0
  4  5  1  0
  5  6  1  0
  6  7  2  0
  6  8  2  0
  6  9  1  0
  9 10  2  0
 10 11  1  0
 11 12  2  0
 12 13  1  0
 12 14  1  0
 14 15  2  0
  3 16  1  0
 16 17  2  0
 17 18  1  0
 18 19  2  0
 19 20  1  0
 20 21  2  0
 21 22  1  0
 22 23  1  0
 23 24  2  0
 23  2  1  0
 15  9  1  0
 22 17  1  0
  1 25  1  0
  1 26  1  0
  4 27  1  0
  4 28  1  0
  5 29  1  0
 10 30  1  0
 11 31  1  0
 14 32  1  0
 15 33  1  0
 18 34  1  0
 19 35  1  0
 20 36  1  0
 21 37  1  0
M  END
>  <UniqueID>  (6) 
4

>  <SMILES>  (6) 
Nc1c(CNS(=O)(=O)c2ccc(F)cc2)nc2ccccn2c1=O

>  <Energy>  (6) 
42.02824350033392

>  <Genealogy>  (6) 
Nc1c(CNS(=O)(=O)c2ccc(F)cc2)nc2ccccn2c1=O (3D coordinates assigned)
Nc1c(CNS(=O)(=O)c2ccc(F)cc2)nc2ccccn2c1=O (optimized conformer: 42.02824350033392 kcal/mol)

>  <smiles>  (6) 
Nc1c(CNS(=O)(=O)c2ccc(F)cc2)nc2ccccn2c1=O

>  <score_type>  (6) 
oracle

>  <origin>  (6) 
adg

>  <m_score__min__energy>  (6) 
-8.3599999999999994

>  <m_primary>  (6) 
energy

$$$$
6:0
     RDKit          3D

 41 42  0  0  0  0  0  0  0  0999 V2000
   60.7490   34.1270   46.7760 C   0  0  0  0  0  0  0  0  0  0  0  0
   59.6500   35.1140   46.3850 C   0  0  0  0  0  0  0  0  0  0  0  0
   59.1480   34.9050   44.9460 C   0  0  0  0  0  0  0  0  0  0  0  0
   57.7900   34.1870   44.8580 C   0  0  0  0  0  0  0  0  0  0  0  0
   57.9480   32.7220   44.8770 N   0  0  0  0  0  0  0  0  0  0  0  0
   58.0640   32.0890   46.0820 C   0  0  0  0  0  0  0  0  0  0  0  0
   58.2010   30.7050   46.1470 C   0  0  0  0  0  0  0  0  0  0  0  0
   58.2090   29.9710   44.9590 C   0  0  0  0  0  0  0  0  0  0  0  0
   58.3470   28.5370   44.9860 N   0  0  0  0  0  0  0  0  0  0  0  0
   58.9520   27.8640   46.1420 C   0  0  0  0  0  0  0  0  0  0  0  0
   58.0830   26.6740   46.6030 C   0  0  0  0  0  0  0  0  0  0  0  0
   57.1600   26.1900   45.5490 N   0  0  0  0  0  0  0  0  0  0  0  0
   56.7210   24.8180   45.8420 C   0  0  0  0  0  0  0  0  0  0  0  0
   57.7770   26.2620   44.2140 C   0  0  0  0  0  0  0  0  0  0  0  0
   57.9530   27.7330   43.8210 C   0  0  0  0  0  0  0  0  0  0  0  0
   58.1020   30.6300   43.7710 N   0  0  0  0  0  0  0  0  0  0  0  0
   57.9710   31.9840   43.7200 C   0  0  0  0  0  0  0  0  0  0  0  0
   57.8770   32.5490   42.5950 O   0  0  0  0  0  0  0  0  0  0  0  0
   60.8153   34.0675   47.8724 H   0  0  0  0  0  0  0  0  0  0  0  0
   60.5113   33.1333   46.3685 H   0  0  0  0  0  0  0  0  0  0  0  0
   61.7116   34.4697   46.3685 H   0  0  0  0  0  0  0  0  0  0  0  0
   58.8026   34.9883   47.0750 H   0  0  0  0  0  0  0  0  0  0  0  0
   60.0765   36.1262   46.4441 H   0  0  0  0  0  0  0  0  0  0  0  0
   59.0507   35.8902   44.4665 H   0  0  0  0  0  0  0  0  0  0  0  0
   59.8832   34.2608   44.4415 H   0  0  0  0  0  0  0  0  0  0  0  0
   57.1699   34.4902   45.7145 H   0  0  0  0  0  0  0  0  0  0  0  0
   57.3130   34.4690   43.9078 H   0  0  0  0  0  0  0  0  0  0  0  0
   58.0490   32.6788   47.0104 H   0  0  0  0  0  0  0  0  0  0  0  0
   58.3013   30.1981   47.1181 H   0  0  0  0  0  0  0  0  0  0  0  0
   59.9496   27.4945   45.8623 H   0  0  0  0  0  0  0  0  0  0  0  0
   59.0277   28.5854   46.9690 H   0  0  0  0  0  0  0  0  0  0  0  0
   58.7470   25.8469   46.8946 H   0  0  0  0  0  0  0  0  0  0  0  0
   57.4676   27.0222   47.4456 H   0  0  0  0  0  0  0  0  0  0  0  0
   56.6745   24.6727   46.9314 H   0  0  0  0  0  0  0  0  0  0  0  0
   55.7246   24.6511   45.4069 H   0  0  0  0  0  0  0  0  0  0  0  0
   57.4354   24.1036   45.4069 H   0  0  0  0  0  0  0  0  0  0  0  0
   58.7588   25.7664   44.2349 H   0  0  0  0  0  0  0  0  0  0  0  0
   57.1317   25.7572   43.4800 H   0  0  0  0  0  0  0  0  0  0  0  0
   58.7325   27.8099   43.0486 H   0  0  0  0  0  0  0  0  0  0  0  0
   56.9957   28.1136   43.4354 H   0  0  0  0  0  0  0  0  0  0  0  0
   58.1450   30.0930   42.8760 H   0  0  0  0  0  0  0  0  0  0  0  0
  1  2  1  0
  2  3  1  0
  3  4  1  0
  4  5  1  0
  5  6  1  0
  6  7  2  0
  7  8  1  0
  8  9  1  0
  9 10  1  0
 10 11  1  0
 11 12  1  0
 12 13  1  0
 12 14  1  0
 14 15  1  0
  8 16  2  0
 16 17  1  0
 17 18  2  0
 17  5  1  0
 15  9  1  0
  1 19  1  0
  1 20  1  0
  1 21  1  0
  2 22  1  0
  2 23  1  0
  3 24  1  0
  3 25  1  0
  4 26  1  0
  4 27  1  0
  6 28  1  0
  7 29  1  0
 10 30  1  0
 10 31  1  0
 11 32  1  0
 11 33  1  0
 13 34  1  0
 13 35  1  0
 13 36  1  0
 14 37  1  0
 14 38  1  0
 15 39  1  0
 15 40  1  0
 16 41  1  0
M  CHG  1  16   1
M  END
>  <UniqueID>  (7) 
5

>  <SMILES>  (7) 
CCCCn1ccc(N2CCN(C)CC2)[nH+]c1=O

>  <Energy>  (7) 
44.86239834360195

>  <Genealogy>  (7) 
CCCCn1ccc(N2CCN(C)CC2)[nH+]c1=O (protonated)
CCCCn1ccc(N2CCN(C)CC2)[nH+]c1=O (3D coordinates assigned)
CCCCn1ccc(N2CCN(C)CC2)[nH+]c1=O (nonaromatic ring conformer: 44.86239834360195 kcal/mol)

>  <smiles>  (7) 
CCCCn1ccc(N2CCN(C)CC2)nc1=O

>  <score_type>  (7) 
oracle

>  <origin>  (7) 
adg

>  <m_score__min__energy>  (7) 
-4.5099999999999998

>  <m_primary>  (7) 
energy

$$$$
7:0
     RDKit          3D

 45 47  0  0  0  0  0  0  0  0999 V2000
   55.2030   29.7160   43.5720 C   0  0  0  0  0  0  0  0  0  0  0  0
   55.6750   29.4810   44.8950 O   0  0  0  0  0  0  0  0  0  0  0  0
   57.0220   29.2740   45.2370 C   0  0  0  0  0  0  0  0  0  0  0  0
   57.4800   28.0210   45.6940 C   0  0  0  0  0  0  0  0  0  0  0  0
   58.8320   27.8250   45.9870 C   0  0  0  0  0  0  0  0  0  0  0  0
   59.2620   26.6150   46.4210 F   0  0  0  0  0  0  0  0  0  0  0  0
   59.7400   28.8710   45.8260 C   0  0  0  0  0  0  0  0  0  0  0  0
   59.3010   30.1190   45.3840 C   0  0  0  0  0  0  0  0  0  0  0  0
   57.9410   30.3400   45.1050 C   0  0  0  0  0  0  0  0  0  0  0  0
   57.5100   31.6930   44.6730 C   0  0  0  0  0  0  0  0  0  0  0  0
   57.1020   31.8590   43.4940 O   0  0  0  0  0  0  0  0  0  0  0  0
   57.5130   32.8200   45.5620 N   0  0  0  0  0  0  0  0  0  0  0  0
   58.4980   33.1100   46.5650 C   0  0  0  0  0  0  0  0  0  0  0  0
   58.3560   32.5440   47.8360 C   0  0  0  0  0  0  0  0  0  0  0  0
   59.3280   32.7560   48.8170 C   0  0  0  0  0  0  0  0  0  0  0  0
   60.4450   33.5570   48.5400 C   0  0  0  0  0  0  0  0  0  0  0  0
   61.7190   33.7720   49.7370 S   0  0  0  0  0  0  0  0  0  0  0  0
   62.4220   35.0720   49.4580 O   0  0  0  0  0  0  0  0  0  0  0  0
   61.1240   33.8330   51.1170 O   0  0  0  0  0  0  0  0  0  0  0  0
   62.8570   32.4470   49.6280 N   0  0  0  0  0  0  0  0  0  0  0  0
   64.0170   32.8080   48.8030 C   0  0  0  0  0  0  0  0  0  0  0  0
   63.7300   32.3500   47.3790 C   0  0  0  0  0  0  0  0  0  0  0  0
   62.5900   31.3540   47.4920 C   0  0  0  0  0  0  0  0  0  0  0  0
   62.2490   31.2820   48.9740 C   0  0  0  0  0  0  0  0  0  0  0  0
   60.5690   34.1590   47.2810 C   0  0  0  0  0  0  0  0  0  0  0  0
   59.5970   33.9460   46.3010 C   0  0  0  0  0  0  0  0  0  0  0  0
   54.2191   30.2059   43.6153 H   0  0  0  0  0  0  0  0  0  0  0  0
   55.9130   30.3658   43.0394 H   0  0  0  0  0  0  0  0  0  0  0  0
   55.1124   28.7578   43.0394 H   0  0  0  0  0  0  0  0  0  0  0  0
   56.7679   27.1922   45.8207 H   0  0  0  0  0  0  0  0  0  0  0  0
   60.8055   28.7115   46.0482 H   0  0  0  0  0  0  0  0  0  0  0  0
   60.0248   30.9369   45.2527 H   0  0  0  0  0  0  0  0  0  0  0  0
   57.4737   31.9282   48.0647 H   0  0  0  0  0  0  0  0  0  0  0  0
   59.2167   32.2935   49.8088 H   0  0  0  0  0  0  0  0  0  0  0  0
   63.1660   32.1980   50.5970 H   0  0  0  0  0  0  0  0  0  0  0  0
   64.1673   33.8975   48.8235 H   0  0  0  0  0  0  0  0  0  0  0  0
   64.9287   32.3271   49.1870 H   0  0  0  0  0  0  0  0  0  0  0  0
   63.4326   33.2046   46.7535 H   0  0  0  0  0  0  0  0  0  0  0  0
   64.6176   31.9009   46.9094 H   0  0  0  0  0  0  0  0  0  0  0  0
   61.7199   31.7003   46.9149 H   0  0  0  0  0  0  0  0  0  0  0  0
   62.8717   30.3685   47.0926 H   0  0  0  0  0  0  0  0  0  0  0  0
   61.1575   31.3036   49.1089 H   0  0  0  0  0  0  0  0  0  0  0  0
   62.6327   30.3493   49.4132 H   0  0  0  0  0  0  0  0  0  0  0  0
   61.4349   34.8016   47.0636 H   0  0  0  0  0  0  0  0  0  0  0  0
   59.6916   34.4338   45.3196 H   0  0  0  0  0  0  0  0  0  0  0  0
  1  2  1  0
  2  3  1  0
  3  4  2  0
  4  5  1  0
  5  6  1  0
  5  7  2  0
  7  8  1  0
  8  9  2  0
  9 10  1  0
 10 11  2  0
 10 12  1  0
 12 13  1  0
 13 14  2  0
 14 15  1  0
 15 16  2  0
 16 17  1  0
 17 18  2  0
 17 19  2  0
 17 20  1  0
 20 21  1  0
 21 22  1  0
 22 23  1  0
 23 24  1  0
 16 25  1  0
 25 26  2  0
  9  3  1  0
 26 13  1  0
 24 20  1  0
  1 27  1  0
  1 28  1  0
  1 29  1  0
  4 30  1  0
  7 31  1  0
  8 32  1  0
 14 33  1  0
 15 34  1  0
 20 35  1  0
 21 36  1  0
 21 37  1  0
 22 38  1  0
 22 39  1  0
 23 40  1  0
 23 41  1  0
 24 42  1  0
 24 43  1  0
 25 44  1  0
 26 45  1  0
M  CHG  2  12  -1  20   1
M  END
>  <UniqueID>  (8) 
6

>  <SMILES>  (8) 
COc1cc(F)ccc1C(=O)[N-]c1ccc(S(=O)(=O)[NH+]2CCCC2)cc1

>  <Energy>  (8) 
53.886963607432484

>  <Genealogy>  (8) 
COc1cc(F)ccc1C(=O)[N-]c1ccc(S(=O)(=O)[NH+]2CCCC2)cc1 (protonated)
COc1cc(F)ccc1C(=O)[N-]c1ccc(S(=O)(=O)[NH+]2CCCC2)cc1 (3D coordinates assigned)
COc1cc(F)ccc1C(=O)[N-]c1ccc(S(=O)(=O)[NH+]2CCCC2)cc1 (nonaromatic ring conformer: 53.886963607432484 kcal/mol)

>  <smiles>  (8) 
COc1cc(F)ccc1C(=O)Nc1ccc(S(=O)(=O)N2CCCC2)cc1

>  <score_type>  (8) 
oracle

>  <origin>  (8) 
adg

>  <m_score__min__energy>  (8) 
-8.7899999999999991

>  <m_primary>  (8) 
energy

$$$$
8:0
     RDKit          3D

 34 35  0  0  0  0  0  0  0  0999 V2000
   63.8380   33.0130   49.0890 C   0  0  0  0  0  0  0  0  0  0  0  0
   64.1350   32.8730   47.6600 N   0  0  0  0  0  0  0  0  0  0  0  0
   63.0280   33.3350   46.8020 C   0  0  0  0  0  0  0  0  0  0  0  0
   61.7600   33.7280   47.5860 C   0  0  0  0  0  0  0  0  0  0  0  0
   60.5340   33.7610   46.7100 C   0  0  0  0  0  0  0  0  0  0  0  0
   60.0320   34.9860   46.2470 C   0  0  0  0  0  0  0  0  0  0  0  0
   58.8830   35.0210   45.4540 C   0  0  0  0  0  0  0  0  0  0  0  0
   58.2210   33.8360   45.1250 C   0  0  0  0  0  0  0  0  0  0  0  0
   58.7020   32.5980   45.5860 C   0  0  0  0  0  0  0  0  0  0  0  0
   57.9920   31.3380   45.2480 C   0  0  0  0  0  0  0  0  0  0  0  0
   58.3090   30.1380   45.9110 C   0  0  0  0  0  0  0  0  0  0  0  0
   57.6390   28.9530   45.5910 C   0  0  0  0  0  0  0  0  0  0  0  0
   56.6480   28.9530   44.6060 C   0  0  0  0  0  0  0  0  0  0  0  0
   56.3250   30.1370   43.9400 C   0  0  0  0  0  0  0  0  0  0  0  0
   56.9920   31.3240   44.2570 C   0  0  0  0  0  0  0  0  0  0  0  0
   59.8640   32.5710   46.3780 C   0  0  0  0  0  0  0  0  0  0  0  0
   64.6780   32.6170   49.6786 H   0  0  0  0  0  0  0  0  0  0  0  0
   63.6895   34.0759   49.3302 H   0  0  0  0  0  0  0  0  0  0  0  0
   62.9236   32.4511   49.3302 H   0  0  0  0  0  0  0  0  0  0  0  0
   64.2950   31.8570   47.4630 H   0  0  0  0  0  0  0  0  0  0  0  0
   65.0200   33.3810   47.4330 H   0  0  0  0  0  0  0  0  0  0  0  0
   63.3713   34.2123   46.2342 H   0  0  0  0  0  0  0  0  0  0  0  0
   62.7545   32.4935   46.1485 H   0  0  0  0  0  0  0  0  0  0  0  0
   61.6003   32.9953   48.3908 H   0  0  0  0  0  0  0  0  0  0  0  0
   61.9133   34.7399   47.9891 H   0  0  0  0  0  0  0  0  0  0  0  0
   60.5453   35.9228   46.5095 H   0  0  0  0  0  0  0  0  0  0  0  0
   58.4984   35.9842   45.0876 H   0  0  0  0  0  0  0  0  0  0  0  0
   57.3163   33.8716   44.5004 H   0  0  0  0  0  0  0  0  0  0  0  0
   59.0892   30.1320   46.6864 H   0  0  0  0  0  0  0  0  0  0  0  0
   57.8924   28.0198   46.1153 H   0  0  0  0  0  0  0  0  0  0  0  0
   56.1221   28.0200   44.3551 H   0  0  0  0  0  0  0  0  0  0  0  0
   55.5446   30.1357   43.1648 H   0  0  0  0  0  0  0  0  0  0  0  0
   56.7337   32.2535   43.7285 H   0  0  0  0  0  0  0  0  0  0  0  0
   60.2525   31.6082   46.7414 H   0  0  0  0  0  0  0  0  0  0  0  0
  1  2  1  0
  2  3  1  0
  3  4  1  0
  4  5  1  0
  5  6  2  0
  6  7  1  0
  7  8  2  0
  8  9  1  0
  9 10  1  0
 10 11  2  0
 11 12  1  0
 12 13  2  0
 13 14  1  0
 14 15  2  0
  9 16  2  0
 16  5  1  0
 15 10  1  0
  1 17  1  0
  1 18  1  0
  1 19  1  0
  2 20  1  0
  2 21  1  0
  3 22  1  0
  3 23  1  0
  4 24  1  0
  4 25  1  0
  6 26  1  0
  7 27  1  0
  8 28  1  0
 11 29  1  0
 12 30  1  0
 13 31  1  0
 14 32  1  0
 15 33  1  0
 16 34  1  0
M  CHG  1   2   1
M  END
>  <UniqueID>  (9) 
7

>  <SMILES>  (9) 
C[NH2+]CCc1cccc(-c2ccccc2)c1

>  <Energy>  (9) 
36.84148511966108

>  <Genealogy>  (9) 
C[NH2+]CCc1cccc(-c2ccccc2)c1 (protonated)
C[NH2+]CCc1cccc(-c2ccccc2)c1 (3D coordinates assigned)
C[NH2+]CCc1cccc(-c2ccccc2)c1 (optimized conformer: 36.84148511966108 kcal/mol)

>  <smiles>  (9) 
CNCCc1cccc(-c2ccccc2)c1

>  <score_type>  (9) 
oracle

>  <origin>  (9) 
adg

>  <m_score__min__energy>  (9) 
-5.5099999999999998

>  <m_primary>  (9) 
energy

$$$$
9:0
     RDKit          3D

 43 46  0  0  0  0  0  0  0  0999 V2000
   62.7340   33.8440   46.5950 C   0  0  0  0  0  0  0  0  0  0  0  0
   61.8170   33.7050   47.7790 C   0  0  0  0  0  0  0  0  0  0  0  0
   62.3430   33.2280   48.9920 C   0  0  0  0  0  0  0  0  0  0  0  0
   61.5310   33.1130   50.1220 C   0  0  0  0  0  0  0  0  0  0  0  0
   60.1830   33.4690   50.0540 C   0  0  0  0  0  0  0  0  0  0  0  0
   59.6400   33.9240   48.8510 C   0  0  0  0  0  0  0  0  0  0  0  0
   60.4390   34.0210   47.7020 C   0  0  0  0  0  0  0  0  0  0  0  0
   59.8350   34.4610   46.4770 N   0  0  0  0  0  0  0  0  0  0  0  0
   59.8560   35.7110   46.0530 N   0  0  0  0  0  0  0  0  0  0  0  0
   59.2660   35.7560   44.8700 N   0  0  0  0  0  0  0  0  0  0  0  0
   58.8500   34.5530   44.5000 N   0  0  0  0  0  0  0  0  0  0  0  0
   59.2020   33.7440   45.5200 C   0  0  0  0  0  0  0  0  0  0  0  0
   58.8960   32.2970   45.5560 C   0  0  0  0  0  0  0  0  0  0  0  0
   59.6540   31.4100   46.3370 C   0  0  0  0  0  0  0  0  0  0  0  0
   59.3550   30.0460   46.3500 C   0  0  0  0  0  0  0  0  0  0  0  0
   58.2830   29.5350   45.5920 C   0  0  0  0  0  0  0  0  0  0  0  0
   57.9760   28.1220   45.6020 N   0  0  0  0  0  0  0  0  0  0  0  0
   57.7870   27.3380   46.8140 C   0  0  0  0  0  0  0  0  0  0  0  0
   57.3230   25.9630   46.3550 C   0  0  0  0  0  0  0  0  0  0  0  0
   57.6890   25.8750   44.8790 C   0  0  0  0  0  0  0  0  0  0  0  0
   57.8260   27.3130   44.4000 C   0  0  0  0  0  0  0  0  0  0  0  0
   57.5120   30.4350   44.8300 C   0  0  0  0  0  0  0  0  0  0  0  0
   57.8130   31.7990   44.8190 C   0  0  0  0  0  0  0  0  0  0  0  0
   63.7648   34.0002   46.9459 H   0  0  0  0  0  0  0  0  0  0  0  0
   62.6886   32.9287   45.9866 H   0  0  0  0  0  0  0  0  0  0  0  0
   62.4194   34.7047   45.9866 H   0  0  0  0  0  0  0  0  0  0  0  0
   63.4037   32.9428   49.0516 H   0  0  0  0  0  0  0  0  0  0  0  0
   61.9541   32.7414   51.0670 H   0  0  0  0  0  0  0  0  0  0  0  0
   59.5481   33.3910   50.9489 H   0  0  0  0  0  0  0  0  0  0  0  0
   58.5784   34.2084   48.8038 H   0  0  0  0  0  0  0  0  0  0  0  0
   59.1470   36.6230   44.3020 H   0  0  0  0  0  0  0  0  0  0  0  0
   60.4890   31.7921   46.9427 H   0  0  0  0  0  0  0  0  0  0  0  0
   59.9639   29.3621   46.9595 H   0  0  0  0  0  0  0  0  0  0  0  0
   58.7336   27.2568   47.3683 H   0  0  0  0  0  0  0  0  0  0  0  0
   57.0544   27.8068   47.4874 H   0  0  0  0  0  0  0  0  0  0  0  0
   57.8368   25.1749   46.9250 H   0  0  0  0  0  0  0  0  0  0  0  0
   56.2433   25.8252   46.5141 H   0  0  0  0  0  0  0  0  0  0  0  0
   58.6396   25.3364   44.7514 H   0  0  0  0  0  0  0  0  0  0  0  0
   56.9272   25.3275   44.3047 H   0  0  0  0  0  0  0  0  0  0  0  0
   58.7107   27.4187   43.7549 H   0  0  0  0  0  0  0  0  0  0  0  0
   56.9530   27.6265   43.8087 H   0  0  0  0  0  0  0  0  0  0  0  0
   56.6644   30.0597   44.2377 H   0  0  0  0  0  0  0  0  0  0  0  0
   57.1942   32.4887   44.2263 H   0  0  0  0  0  0  0  0  0  0  0  0
  1  2  1  0
  2  3  2  0
  3  4  1  0
  4  5  2  0
  5  6  1  0
  6  7  2  0
  7  8  1  0
  8  9  1  0
  9 10  2  0
 10 11  1  0
 11 12  2  0
 12 13  1  0
 13 14  2  0
 14 15  1  0
 15 16  2  0
 16 17  1  0
 17 18  1  0
 18 19  1  0
 19 20  1  0
 20 21  1  0
 16 22  1  0
 22 23  2  0
  7  2  1  0
 12  8  1  0
 23 13  1  0
 21 17  1  0
  1 24  1  0
  1 25  1  0
  1 26  1  0
  3 27  1  0
  4 28  1  0
  5 29  1  0
  6 30  1  0
 10 31  1  0
 14 32  1  0
 15 33  1  0
 18 34  1  0
 18 35  1  0
 19 36  1  0
 19 37  1  0
 20 38  1  0
 20 39  1  0
 21 40  1  0
 21 41  1  0
 22 42  1  0
 23 43  1  0
M  CHG  1  10   1
M  END
>  <UniqueID>  (10) 
8

>  <SMILES>  (10) 
Cc1ccccc1-n1n[nH+]nc1-c1ccc(N2CCCC2)cc1

>  <Energy>  (10) 
97.09016254462003

>  <Genealogy>  (10) 
Cc1ccccc1-n1n[nH+]nc1-c1ccc(N2CCCC2)cc1 (protonated)
Cc1ccccc1-n1n[nH+]nc1-c1ccc(N2CCCC2)cc1 (3D coordinates assigned)
Cc1ccccc1-n1n[nH+]nc1-c1ccc(N2CCCC2)cc1 (nonaromatic ring conformer: 97.09016254462003 kcal/mol)

>  <smiles>  (10) 
Cc1ccccc1-n1nnnc1-c1ccc(N2CCCC2)cc1

>  <score_type>  (10) 
oracle

>  <origin>  (10) 
adg

>  <m_score__min__energy>  (10) 
-6.5199999999999996

>  <m_primary>  (10) 
energy

$$$$
10:0
     RDKit          3D

 47 47  0  0  0  0  0  0  0  0999 V2000
   60.4280   26.8520   46.6840 C   0  0  0  0  0  0  0  0  0  0  0  0
   60.3850   27.9620   45.6320 C   0  0  0  0  0  0  0  0  0  0  0  0
   59.6000   29.1250   46.1170 N   0  0  0  0  0  0  0  0  0  0  0  0
   60.2050   29.6570   47.3660 C   0  0  0  0  0  0  0  0  0  0  0  0
   61.1470   30.8280   47.0970 C   0  0  0  0  0  0  0  0  0  0  0  0
   58.1680   28.7690   46.3110 C   0  0  0  0  0  0  0  0  0  0  0  0
   57.6610   27.8500   45.1790 C   0  0  0  0  0  0  0  0  0  0  0  0
   57.7050   28.4830   43.7790 C   0  0  0  0  0  0  0  0  0  0  0  0
   56.8910   30.0760   43.6590 S   0  0  0  0  0  0  0  0  0  0  0  0
   55.7980   30.1010   44.6890 O   0  0  0  0  0  0  0  0  0  0  0  0
   56.2710   30.2180   42.2980 O   0  0  0  0  0  0  0  0  0  0  0  0
   58.0220   31.4380   43.9540 C   0  0  0  0  0  0  0  0  0  0  0  0
   57.4950   32.4390   45.0080 C   0  0  0  0  0  0  0  0  0  0  0  0
   58.1400   32.1920   46.4020 C   0  0  0  0  0  0  0  0  0  0  0  0
   58.2210   33.4740   47.2360 C   0  0  0  0  0  0  0  0  0  0  0  0
   59.0900   34.5430   46.5460 C   0  0  0  0  0  0  0  0  0  0  0  0
   59.0190   34.4890   45.0070 C   0  0  0  0  0  0  0  0  0  0  0  0
   57.6900   33.9020   44.5220 C   0  0  0  0  0  0  0  0  0  0  0  0
   60.4107   27.2986   47.6891 H   0  0  0  0  0  0  0  0  0  0  0  0
   59.5546   26.1949   46.5596 H   0  0  0  0  0  0  0  0  0  0  0  0
   61.3496   26.2644   46.5596 H   0  0  0  0  0  0  0  0  0  0  0  0
   61.4120   28.2882   45.4112 H   0  0  0  0  0  0  0  0  0  0  0  0
   59.9026   27.5672   44.7257 H   0  0  0  0  0  0  0  0  0  0  0  0
   59.3991   29.9966   48.0333 H   0  0  0  0  0  0  0  0  0  0  0  0
   60.7929   28.8496   47.8271 H   0  0  0  0  0  0  0  0  0  0  0  0
   61.4878   31.2516   48.0533 H   0  0  0  0  0  0  0  0  0  0  0  0
   62.0158   30.4751   46.5220 H   0  0  0  0  0  0  0  0  0  0  0  0
   60.6161   31.6010   46.5220 H   0  0  0  0  0  0  0  0  0  0  0  0
   58.0553   28.2480   47.2732 H   0  0  0  0  0  0  0  0  0  0  0  0
   57.5748   29.6953   46.2986 H   0  0  0  0  0  0  0  0  0  0  0  0
   58.2843   26.9438   45.1665 H   0  0  0  0  0  0  0  0  0  0  0  0
   56.6031   27.6401   45.3953 H   0  0  0  0  0  0  0  0  0  0  0  0
   58.7593   28.6133   43.4936 H   0  0  0  0  0  0  0  0  0  0  0  0
   57.1599   27.8013   43.1095 H   0  0  0  0  0  0  0  0  0  0  0  0
   58.9802   31.0287   44.3067 H   0  0  0  0  0  0  0  0  0  0  0  0
   58.1350   31.9849   43.0063 H   0  0  0  0  0  0  0  0  0  0  0  0
   56.4143   32.2730   45.1287 H   0  0  0  0  0  0  0  0  0  0  0  0
   57.5346   31.4525   46.9466 H   0  0  0  0  0  0  0  0  0  0  0  0
   59.1655   31.8282   46.2405 H   0  0  0  0  0  0  0  0  0  0  0  0
   57.2059   33.8742   47.3757 H   0  0  0  0  0  0  0  0  0  0  0  0
   58.6815   33.2273   48.2040 H   0  0  0  0  0  0  0  0  0  0  0  0
   58.7497   35.5355   46.8762 H   0  0  0  0  0  0  0  0  0  0  0  0
   60.1342   34.3460   46.8302 H   0  0  0  0  0  0  0  0  0  0  0  0
   59.1246   35.5091   44.6092 H   0  0  0  0  0  0  0  0  0  0  0  0
   59.8318   33.8403   44.6485 H   0  0  0  0  0  0  0  0  0  0  0  0
   56.8657   34.5189   44.9092 H   0  0  0  0  0  0  0  0  0  0  0  0
   57.6981   33.8992   43.4220 H   0  0  0  0  0  0  0  0  0  0  0  0
  1  2  1  0
  2  3  1  0
  3  4  1  0
  4  5  1  0
  3  6  1  0
  6  7  1  0
  7  8  1  0
  8  9  1  0
  9 10  2  0
  9 11  2  0
  9 12  1  0
 12 13  1  0
 13 14  1  0
 14 15  1  0
 15 16  1  0
 16 17  1  0
 17 18  1  0
 18 13  1  0
  1 19  1  0
  1 20  1  0
  1 21  1  0
  2 22  1  0
  2 23  1  0
  4 24  1  0
  4 25  1  0
  5 26  1  0
  5 27  1  0
  5 28  1  0
  6 29  1  0
  6 30  1  0
  7 31  1  0
  7 32  1  0
  8 33  1  0
  8 34  1  0
 12 35  1  0
 12 36  1  0
 13 37  1  0
 14 38  1  0
 14 39  1  0
 15 40  1  0
 15 41  1  0
 16 42  1  0
 16 43  1  0
 17 44  1  0
 17 45  1  0
 18 46  1  0
 18 47  1  0
M  END
>  <UniqueID>  (11) 
9

>  <SMILES>  (11) 
CCN(CC)CCCS(=O)(=O)CC1CCCCC1

>  <Energy>  (11) 
36.94516738192635

>  <Genealogy>  (11) 
CCN(CC)CCCS(=O)(=O)CC1CCCCC1 (3D coordinates assigned)
CCN(CC)CCCS(=O)(=O)CC1CCCCC1 (nonaromatic ring conformer: 36.94516738192635 kcal/mol)

>  <smiles>  (11) 
CCN(CC)CCCS(=O)(=O)CC1CCCCC1

>  <score_type>  (11) 
oracle

>  <origin>  (11) 
adg

>  <m_score__min__energy>  (11) 
-6.96

>  <m_primary>  (11) 
energy

$$$$
11:0
     RDKit          3D

 33 35  0  0  0  0  0  0  0  0999 V2000
   59.8930   30.7600   47.8630 C   0  0  0  0  0  0  0  0  0  0  0  0
   59.0270   31.1990   46.7100 C   0  0  0  0  0  0  0  0  0  0  0  0
   58.1300   30.2780   46.1410 C   0  0  0  0  0  0  0  0  0  0  0  0
   57.2940   30.6430   45.0740 C   0  0  0  0  0  0  0  0  0  0  0  0
   56.3530   29.6530   44.4960 C   0  0  0  0  0  0  0  0  0  0  0  0
   55.8980   29.8390   43.3370 O   0  0  0  0  0  0  0  0  0  0  0  0
   55.9020   28.5110   45.2350 N   0  0  0  0  0  0  0  0  0  0  0  0
   56.6940   27.3710   45.6010 C   0  0  0  0  0  0  0  0  0  0  0  0
   58.0460   27.3400   45.2360 C   0  0  0  0  0  0  0  0  0  0  0  0
   58.8480   26.2500   45.5880 C   0  0  0  0  0  0  0  0  0  0  0  0
   58.3070   25.1900   46.3210 C   0  0  0  0  0  0  0  0  0  0  0  0
   56.9650   25.2230   46.7090 C   0  0  0  0  0  0  0  0  0  0  0  0
   56.1600   26.3130   46.3590 C   0  0  0  0  0  0  0  0  0  0  0  0
   57.3790   31.9410   44.5500 C   0  0  0  0  0  0  0  0  0  0  0  0
   58.2620   32.8730   45.0990 C   0  0  0  0  0  0  0  0  0  0  0  0
   58.3180   34.1290   44.5800 N   0  0  0  0  0  0  0  0  0  0  0  0
   59.1560   35.0750   45.0770 C   0  0  0  0  0  0  0  0  0  0  0  0
   59.9940   34.7720   46.1490 C   0  0  0  0  0  0  0  0  0  0  0  0
   59.9650   33.4930   46.7040 C   0  0  0  0  0  0  0  0  0  0  0  0
   59.0940   32.5140   46.1870 C   0  0  0  0  0  0  0  0  0  0  0  0
   59.3961   31.0119   48.8115 H   0  0  0  0  0  0  0  0  0  0  0  0
   60.0514   29.6728   47.8095 H   0  0  0  0  0  0  0  0  0  0  0  0
   60.8635   31.2750   47.8095 H   0  0  0  0  0  0  0  0  0  0  0  0
   58.0824   29.2536   46.5388 H   0  0  0  0  0  0  0  0  0  0  0  0
   58.4791   28.1775   44.6695 H   0  0  0  0  0  0  0  0  0  0  0  0
   59.9060   26.2267   45.2877 H   0  0  0  0  0  0  0  0  0  0  0  0
   58.9373   24.3303   46.5923 H   0  0  0  0  0  0  0  0  0  0  0  0
   56.5407   24.3911   47.2903 H   0  0  0  0  0  0  0  0  0  0  0  0
   55.1075   26.3425   46.6773 H   0  0  0  0  0  0  0  0  0  0  0  0
   56.7442   32.2276   43.6986 H   0  0  0  0  0  0  0  0  0  0  0  0
   59.1735   36.0814   44.6332 H   0  0  0  0  0  0  0  0  0  0  0  0
   60.6733   35.5364   46.5543 H   0  0  0  0  0  0  0  0  0  0  0  0
   60.6250   33.2476   47.5490 H   0  0  0  0  0  0  0  0  0  0  0  0
  1  2  1  0
  2  3  2  0
  3  4  1  0
  4  5  1  0
  5  6  2  0
  5  7  1  0
  7  8  1  0
  8  9  2  0
  9 10  1  0
 10 11  2  0
 11 12  1  0
 12 13  2  0
  4 14  2  0
 14 15  1  0
 15 16  2  0
 16 17  1  0
 17 18  2  0
 18 19  1  0
 19 20  2  0
 20  2  1  0
 13  8  1  0
 20 15  1  0
  1 21  1  0
  1 22  1  0
  1 23  1  0
  3 24  1  0
  9 25  1  0
 10 26  1  0
 11 27  1  0
 12 28  1  0
 13 29  1  0
 14 30  1  0
 17 31  1  0
 18 32  1  0
 19 33  1  0
M  CHG  1   7  -1
M  END
>  <UniqueID>  (12) 
10

>  <SMILES>  (12) 
Cc1cc(C(=O)[N-]c2ccccc2)cc2ncccc12

>  <Energy>  (12) 
47.3040343048627

>  <Genealogy>  (12) 
Cc1cc(C(=O)[N-]c2ccccc2)cc2ncccc12 (protonated)
Cc1cc(C(=O)[N-]c2ccccc2)cc2ncccc12 (3D coordinates assigned)
Cc1cc(C(=O)[N-]c2ccccc2)cc2ncccc12 (optimized conformer: 47.3040343048627 kcal/mol)

>  <smiles>  (12) 
Cc1cc(C(=O)Nc2ccccc2)cc2ncccc12

>  <score_type>  (12) 
oracle

>  <origin>  (12) 
adg

>  <m_score__min__energy>  (12) 
-8.9499999999999993

>  <m_primary>  (12) 
energy

$$$$
12:0
     RDKit          3D

 71 74  0  0  0  0  0  0  0  0999 V2000
   58.9220   29.5091   45.0170 H   0  0  0  0  0  0  0  0  0  0  0  0
   58.8590   30.4360   45.6060 C   0  0  0  0  0  0  0  0  0  0  0  0
   57.7240   31.3450   45.3220 C   0  0  0  0  0  0  0  0  0  0  0  0
   56.6720   30.8850   44.7980 O   0  0  0  0  0  0  0  0  0  0  0  0
   57.7090   32.7520   45.7790 C   0  0  0  0  0  0  0  0  0  0  0  0
   56.7453   33.1438   46.1363 H   0  0  0  0  0  0  0  0  0  0  0  0
   58.7500   33.6010   45.8030 C   0  0  0  0  0  0  0  0  0  0  0  0
   58.9271   34.1972   44.8957 H   0  0  0  0  0  0  0  0  0  0  0  0
   59.6800   33.8100   46.9330 C   0  0  0  0  0  0  0  0  0  0  0  0
   61.0550   33.7420   46.6960 C   0  0  0  0  0  0  0  0  0  0  0  0
   61.4239   33.5678   45.6744 H   0  0  0  0  0  0  0  0  0  0  0  0
   61.9710   33.8940   47.7500 C   0  0  0  0  0  0  0  0  0  0  0  0
   63.3580   33.8610   47.5380 O   0  0  0  0  0  0  0  0  0  0  0  0
   64.0340   32.8870   46.7490 C   0  0  0  0  0  0  0  0  0  0  0  0
   64.5356   32.1642   47.4092 H   0  0  0  0  0  0  0  0  0  0  0  0
   63.3064   32.3601   46.1142 H   0  0  0  0  0  0  0  0  0  0  0  0
   64.7821   33.3843   46.1142 H   0  0  0  0  0  0  0  0  0  0  0  0
   61.5040   34.0940   49.0570 C   0  0  0  0  0  0  0  0  0  0  0  0
   62.4680   34.2860   50.0600 O   0  0  0  0  0  0  0  0  0  0  0  0
   63.4510   33.3250   50.4370 C   0  0  0  0  0  0  0  0  0  0  0  0
   63.5077   33.2696   51.5341 H   0  0  0  0  0  0  0  0  0  0  0  0
   63.1741   32.3397   50.0339 H   0  0  0  0  0  0  0  0  0  0  0  0
   64.4298   33.6242   50.0339 H   0  0  0  0  0  0  0  0  0  0  0  0
   60.1150   34.0870   49.3190 C   0  0  0  0  0  0  0  0  0  0  0  0
   59.6640   34.1700   50.6450 O   0  0  0  0  0  0  0  0  0  0  0  0
   60.2770   33.5260   51.7560 C   0  0  0  0  0  0  0  0  0  0  0  0
   59.8767   33.9466   52.6903 H   0  0  0  0  0  0  0  0  0  0  0  0
   60.0635   32.4476   51.7183 H   0  0  0  0  0  0  0  0  0  0  0  0
   61.3646   33.6860   51.7183 H   0  0  0  0  0  0  0  0  0  0  0  0
   59.2130   33.9550   48.2460 C   0  0  0  0  0  0  0  0  0  0  0  0
   58.1304   33.9658   48.4405 H   0  0  0  0  0  0  0  0  0  0  0  0
   59.8170   30.6490   46.5220 C   0  0  0  0  0  0  0  0  0  0  0  0
   60.7646   31.0765   46.1624 H   0  0  0  0  0  0  0  0  0  0  0  0
   59.7170   30.3620   47.9720 C   0  0  0  0  0  0  0  0  0  0  0  0
   58.6040   30.8270   48.6810 C   0  0  0  0  0  0  0  0  0  0  0  0
   57.7928   31.3406   48.1442 H   0  0  0  0  0  0  0  0  0  0  0  0
   58.5110   30.6450   50.0720 C   0  0  0  0  0  0  0  0  0  0  0  0
   57.4060   31.1000   50.8110 O   0  0  0  0  0  0  0  0  0  0  0  0
   57.4370   32.1980   51.7120 C   0  0  0  0  0  0  0  0  0  0  0  0
   57.4264   31.8239   52.7464 H   0  0  0  0  0  0  0  0  0  0  0  0
   58.3521   32.7848   51.5436 H   0  0  0  0  0  0  0  0  0  0  0  0
   56.5565   32.8355   51.5436 H   0  0  0  0  0  0  0  0  0  0  0  0
   59.5540   30.0100   50.7610 C   0  0  0  0  0  0  0  0  0  0  0  0
   59.4500   29.8930   52.1560 O   0  0  0  0  0  0  0  0  0  0  0  0
   59.0040   28.7120   52.8250 C   0  0  0  0  0  0  0  0  0  0  0  0
   59.1465   27.8443   52.1641 H   0  0  0  0  0  0  0  0  0  0  0  0
   59.5872   28.5807   53.7484 H   0  0  0  0  0  0  0  0  0  0  0  0
   57.5550   28.8330   53.1760 C   0  0  0  0  0  0  0  0  0  0  0  0
   57.0010   28.3750   54.3130 N   0  0  0  0  0  0  0  0  0  0  0  0
   55.7040   28.6260   54.2230 N   0  0  0  0  0  0  0  0  0  0  0  0
   55.5170   29.2240   53.0290 C   0  0  0  0  0  0  0  0  0  0  0  0
   54.2120   29.6660   52.5050 C   0  0  0  0  0  0  0  0  0  0  0  0
   54.1480   30.7640   51.6320 C   0  0  0  0  0  0  0  0  0  0  0  0
   55.0717   31.2861   51.3419 H   0  0  0  0  0  0  0  0  0  0  0  0
   52.9170   31.1980   51.1290 C   0  0  0  0  0  0  0  0  0  0  0  0
   52.8750   32.0600   50.4469 H   0  0  0  0  0  0  0  0  0  0  0  0
   51.7420   30.5380   51.4920 C   0  0  0  0  0  0  0  0  0  0  0  0
   50.7737   30.8833   51.1007 H   0  0  0  0  0  0  0  0  0  0  0  0
   51.7960   29.4380   52.3530 C   0  0  0  0  0  0  0  0  0  0  0  0
   50.8705   28.9131   52.6321 H   0  0  0  0  0  0  0  0  0  0  0  0
   53.0250   29.0040   52.8600 C   0  0  0  0  0  0  0  0  0  0  0  0
   53.0623   28.1402   53.5400 H   0  0  0  0  0  0  0  0  0  0  0  0
   56.6510   29.3560   52.3850 O   0  0  0  0  0  0  0  0  0  0  0  0
   60.6710   29.5150   50.0570 C   0  0  0  0  0  0  0  0  0  0  0  0
   61.6610   28.8110   50.7590 O   0  0  0  0  0  0  0  0  0  0  0  0
   61.5300   27.4690   51.2150 C   0  0  0  0  0  0  0  0  0  0  0  0
   61.5285   27.4540   52.3149 H   0  0  0  0  0  0  0  0  0  0  0  0
   60.5862   27.0452   50.8413 H   0  0  0  0  0  0  0  0  0  0  0  0
   62.3740   26.8707   50.8413 H   0  0  0  0  0  0  0  0  0  0  0  0
   60.7550   29.7220   48.6670 C   0  0  0  0  0  0  0  0  0  0  0  0
   61.6447   29.3781   48.1191 H   0  0  0  0  0  0  0  0  0  0  0  0
  1  2  1  0
  2  3  1  0
  3  4  2  0
  3  5  1  0
  5  6  1  0
  5  7  2  0
  7  8  1  0
  7  9  1  0
  9 10  2  0
 10 11  1  0
 10 12  1  0
 12 13  1  0
 13 14  1  0
 14 15  1  0
 14 16  1  0
 14 17  1  0
 12 18  2  0
 18 19  1  0
 19 20  1  0
 20 21  1  0
 20 22  1  0
 20 23  1  0
 18 24  1  0
 24 25  1  0
 25 26  1  0
 26 27  1  0
 26 28  1  0
 26 29  1  0
 24 30  2  0
 30 31  1  0
  2 32  2  3
 32 33  1  0
 32 34  1  0
 34 35  2  0
 35 36  1  0
 35 37  1  0
 37 38  1  0
 38 39  1  0
 39 40  1  0
 39 41  1  0
 39 42  1  0
 37 43  2  0
 43 44  1  0
 44 45  1  0
 45 46  1  0
 45 47  1  0
 45 48  1  0
 48 49  2  0
 49 50  1  0
 50 51  2  0
 51 52  1  0
 52 53  2  0
 53 54  1  0
 53 55  1  0
 55 56  1  0
 55 57  2  0
 57 58  1  0
 57 59  1  0
 59 60  1  0
 59 61  2  0
 61 62  1  0
 51 63  1  0
 43 64  1  0
 64 65  1  0
 65 66  1  0
 66 67  1  0
 66 68  1  0
 66 69  1  0
 64 70  2  0
 70 71  1  0
 30  9  1  0
 70 34  1  0
 63 48  1  0
 61 52  1  0
M  END
>  <UniqueID>  (13) 
11

>  <SMILES>  (13) 
COc1cc(/C=C\C(=O)C=Cc2cc(OC)c(OCc3nnc(-c4ccccc4)o3)c(OC)c2)cc(OC)c1OC

>  <Energy>  (13) 
126.06368899653228

>  <Genealogy>  (13) 
COc1cc(/C=C\C(=O)C=Cc2cc(OC)c(OCc3nnc(-c4ccccc4)o3)c(OC)c2)cc(OC)c1OC (cis-trans isomerization)
COc1cc(/C=C\C(=O)C=Cc2cc(OC)c(OCc3nnc(-c4ccccc4)o3)c(OC)c2)cc(OC)c1OC (3D coordinates assigned)
COc1cc(/C=C\C(=O)C=Cc2cc(OC)c(OCc3nnc(-c4ccccc4)o3)c(OC)c2)cc(OC)c1OC (optimized conformer: 126.06368899653228 kcal/mol)

>  <smiles>  (13) 
COc1cc(C=CC(=O)C=Cc2cc(OC)c(OCc3nnc(-c4ccccc4)o3)c(OC)c2)cc(OC)c1OC

>  <score_type>  (13) 
oracle

>  <origin>  (13) 
adg

>  <m_score__min__energy>  (13) 
-7.7699999999999996

>  <m_primary>  (13) 
energy

$$$$
13:0
     RDKit          3D

 43 45  0  0  0  0  0  0  0  0999 V2000
   57.9920   30.5650   51.9880 C   0  0  0  0  0  0  0  0  0  0  0  0
   57.8050   30.1230   50.6480 O   0  0  0  0  0  0  0  0  0  0  0  0
   58.6910   30.3920   49.5940 C   0  0  0  0  0  0  0  0  0  0  0  0
   59.7790   29.5330   49.4050 C   0  0  0  0  0  0  0  0  0  0  0  0
   60.6910   29.7600   48.3720 C   0  0  0  0  0  0  0  0  0  0  0  0
   60.5230   30.8480   47.5140 C   0  0  0  0  0  0  0  0  0  0  0  0
   59.4320   31.7190   47.6790 C   0  0  0  0  0  0  0  0  0  0  0  0
   59.2540   32.8810   46.7750 C   0  0  0  0  0  0  0  0  0  0  0  0
   60.1620   33.9530   46.8410 C   0  0  0  0  0  0  0  0  0  0  0  0
   60.0280   35.0490   45.9880 C   0  0  0  0  0  0  0  0  0  0  0  0
   58.9870   35.0910   45.0630 C   0  0  0  0  0  0  0  0  0  0  0  0
   58.0700   34.0410   44.9900 C   0  0  0  0  0  0  0  0  0  0  0  0
   58.1880   32.9270   45.8470 C   0  0  0  0  0  0  0  0  0  0  0  0
   57.2680   31.8670   45.8190 O   0  0  0  0  0  0  0  0  0  0  0  0
   57.2340   30.6200   44.6480 S   0  0  0  0  0  0  0  0  0  0  0  0
   55.8230   30.1310   44.4890 O   0  0  0  0  0  0  0  0  0  0  0  0
   57.7190   31.1660   43.3340 O   0  0  0  0  0  0  0  0  0  0  0  0
   58.2530   29.2820   45.1670 C   0  0  0  0  0  0  0  0  0  0  0  0
   57.7200   28.2450   45.9450 C   0  0  0  0  0  0  0  0  0  0  0  0
   58.5310   27.1810   46.3480 C   0  0  0  0  0  0  0  0  0  0  0  0
   59.8830   27.1370   45.9700 C   0  0  0  0  0  0  0  0  0  0  0  0
   60.7620   26.0160   46.4350 C   0  0  0  0  0  0  0  0  0  0  0  0
   60.4190   28.1890   45.2120 C   0  0  0  0  0  0  0  0  0  0  0  0
   59.6070   29.2540   44.8090 C   0  0  0  0  0  0  0  0  0  0  0  0
   58.5220   31.4910   48.7250 C   0  0  0  0  0  0  0  0  0  0  0  0
   57.6597   29.7797   52.6829 H   0  0  0  0  0  0  0  0  0  0  0  0
   59.0575   30.7785   52.1583 H   0  0  0  0  0  0  0  0  0  0  0  0
   57.4032   31.4784   52.1583 H   0  0  0  0  0  0  0  0  0  0  0  0
   59.9172   28.6719   50.0754 H   0  0  0  0  0  0  0  0  0  0  0  0
   61.5441   29.0794   48.2342 H   0  0  0  0  0  0  0  0  0  0  0  0
   61.2474   31.0247   46.7053 H   0  0  0  0  0  0  0  0  0  0  0  0
   60.9845   33.9272   47.5710 H   0  0  0  0  0  0  0  0  0  0  0  0
   60.7452   35.8810   46.0459 H   0  0  0  0  0  0  0  0  0  0  0  0
   58.8874   35.9540   44.3883 H   0  0  0  0  0  0  0  0  0  0  0  0
   57.2493   34.0827   44.2587 H   0  0  0  0  0  0  0  0  0  0  0  0
   56.6603   28.2689   46.2391 H   0  0  0  0  0  0  0  0  0  0  0  0
   58.1085   26.3738   46.9644 H   0  0  0  0  0  0  0  0  0  0  0  0
   60.7785   25.9950   47.5347 H   0  0  0  0  0  0  0  0  0  0  0  0
   60.3696   25.0609   46.0558 H   0  0  0  0  0  0  0  0  0  0  0  0
   61.7831   26.1693   46.0558 H   0  0  0  0  0  0  0  0  0  0  0  0
   61.4830   28.1761   44.9333 H   0  0  0  0  0  0  0  0  0  0  0  0
   60.0328   30.0719   44.2092 H   0  0  0  0  0  0  0  0  0  0  0  0
   57.6717   32.1741   48.8676 H   0  0  0  0  0  0  0  0  0  0  0  0
  1  2  1  0
  2  3  1  0
  3  4  2  0
  4  5  1  0
  5  6  2  0
  6  7  1  0
  7  8  1  0
  8  9  2  0
  9 10  1  0
 10 11  2  0
 11 12  1  0
 12 13  2  0
 13 14  1  0
 14 15  1  0
 15 16  2  0
 15 17  2  0
 15 18  1  0
 18 19  2  0
 19 20  1  0
 20 21  2  0
 21 22  1  0
 21 23  1  0
 23 24  2  0
  7 25  2  0
 25  3  1  0
 13  8  1  0
 24 18  1  0
  1 26  1  0
  1 27  1  0
  1 28  1  0
  4 29  1  0
  5 30  1  0
  6 31  1  0
  9 32  1  0
 10 33  1  0
 11 34  1  0
 12 35  1  0
 19 36  1  0
 20 37  1  0
 22 38  1  0
 22 39  1  0
 22 40  1  0
 23 41  1  0
 24 42  1  0
 25 43  1  0
M  END
>  <UniqueID>  (14) 
12

>  <SMILES>  (14) 
COc1cccc(-c2ccccc2OS(=O)(=O)c2ccc(C)cc2)c1

>  <Energy>  (14) 
49.791358883375615

>  <Genealogy>  (14) 
COc1cccc(-c2ccccc2OS(=O)(=O)c2ccc(C)cc2)c1 (3D coordinates assigned)
COc1cccc(-c2ccccc2OS(=O)(=O)c2ccc(C)cc2)c1 (optimized conformer: 49.791358883375615 kcal/mol)

>  <smiles>  (14) 
COc1cccc(-c2ccccc2OS(=O)(=O)c2ccc(C)cc2)c1

>  <score_type>  (14) 
oracle

>  <origin>  (14) 
adg

>  <m_score__min__energy>  (14) 
-8.8900000000000006

>  <m_primary>  (14) 
energy

$$$$
14:0
     RDKit          3D

 53 55  0  0  0  0  0  0  0  0999 V2000
   63.3130   33.1470   47.2130 C   0  0  0  0  0  0  0  0  0  0  0  0
   62.3760   32.0350   47.6040 C   0  0  0  0  0  0  0  0  0  0  0  0
   61.2980   31.7500   46.7540 C   0  0  0  0  0  0  0  0  0  0  0  0
   60.3230   30.8090   47.1090 C   0  0  0  0  0  0  0  0  0  0  0  0
   59.1680   30.5380   46.2080 C   0  0  0  0  0  0  0  0  0  0  0  0
   58.7940   31.4750   45.2260 C   0  0  0  0  0  0  0  0  0  0  0  0
   57.7020   31.2260   44.3900 C   0  0  0  0  0  0  0  0  0  0  0  0
   56.9840   30.0340   44.5090 C   0  0  0  0  0  0  0  0  0  0  0  0
   55.6240   29.7200   43.4450 Cl  0  0  0  0  0  0  0  0  0  0  0  0
   57.3550   29.0890   45.4690 C   0  0  0  0  0  0  0  0  0  0  0  0
   58.4370   29.3410   46.3200 C   0  0  0  0  0  0  0  0  0  0  0  0
   60.4280   30.1570   48.3480 C   0  0  0  0  0  0  0  0  0  0  0  0
   61.4760   30.4530   49.2310 C   0  0  0  0  0  0  0  0  0  0  0  0
   61.5200   29.7550   50.5670 C   0  0  0  0  0  0  0  0  0  0  0  0
   62.4800   31.3690   48.8490 C   0  0  0  0  0  0  0  0  0  0  0  0
   63.5290   31.6590   49.7330 O   0  0  0  0  0  0  0  0  0  0  0  0
   63.4350   32.6420   50.7660 C   0  0  0  0  0  0  0  0  0  0  0  0
   62.4450   33.7450   50.3710 C   0  0  0  0  0  0  0  0  0  0  0  0
   61.0090   33.4660   50.8420 C   0  0  0  0  0  0  0  0  0  0  0  0
   59.9860   33.4900   49.7230 C   0  0  0  0  0  0  0  0  0  0  0  0
   60.2090   34.3430   48.6270 C   0  0  0  0  0  0  0  0  0  0  0  0
   59.3260   34.3620   47.5380 C   0  0  0  0  0  0  0  0  0  0  0  0
   59.6330   35.2250   46.3430 C   0  0  0  0  0  0  0  0  0  0  0  0
   58.2200   33.4990   47.5540 C   0  0  0  0  0  0  0  0  0  0  0  0
   57.4180   33.4620   46.5820 O   0  0  0  0  0  0  0  0  0  0  0  0
   58.0060   32.6900   48.6230 N   0  0  0  0  0  0  0  0  0  0  0  0
   58.8440   32.6500   49.6980 C   0  0  0  0  0  0  0  0  0  0  0  0
   58.4860   31.7370   50.8350 C   0  0  0  0  0  0  0  0  0  0  0  0
   63.7147   33.6237   48.1193 H   0  0  0  0  0  0  0  0  0  0  0  0
   64.1412   32.7361   46.6170 H   0  0  0  0  0  0  0  0  0  0  0  0
   62.7676   33.8935   46.6170 H   0  0  0  0  0  0  0  0  0  0  0  0
   61.2164   32.2749   45.7908 H   0  0  0  0  0  0  0  0  0  0  0  0
   59.3648   32.4089   45.1160 H   0  0  0  0  0  0  0  0  0  0  0  0
   57.4072   31.9709   43.6362 H   0  0  0  0  0  0  0  0  0  0  0  0
   56.7959   28.1457   45.5560 H   0  0  0  0  0  0  0  0  0  0  0  0
   58.7178   28.5984   47.0814 H   0  0  0  0  0  0  0  0  0  0  0  0
   59.6777   29.4036   48.6298 H   0  0  0  0  0  0  0  0  0  0  0  0
   61.4729   30.5023   51.3728 H   0  0  0  0  0  0  0  0  0  0  0  0
   60.6632   29.0703   50.6514 H   0  0  0  0  0  0  0  0  0  0  0  0
   62.4560   29.1833   50.6514 H   0  0  0  0  0  0  0  0  0  0  0  0
   63.0896   32.1608   51.6929 H   0  0  0  0  0  0  0  0  0  0  0  0
   64.4267   33.0928   50.9188 H   0  0  0  0  0  0  0  0  0  0  0  0
   62.7813   34.6928   50.8167 H   0  0  0  0  0  0  0  0  0  0  0  0
   62.4260   33.7893   49.2721 H   0  0  0  0  0  0  0  0  0  0  0  0
   60.9849   32.4725   51.3136 H   0  0  0  0  0  0  0  0  0  0  0  0
   60.7383   34.2694   51.5429 H   0  0  0  0  0  0  0  0  0  0  0  0
   61.0881   35.0042   48.6242 H   0  0  0  0  0  0  0  0  0  0  0  0
   59.9836   36.2107   46.6829 H   0  0  0  0  0  0  0  0  0  0  0  0
   60.4160   34.7464   45.7365 H   0  0  0  0  0  0  0  0  0  0  0  0
   58.7236   35.3484   45.7365 H   0  0  0  0  0  0  0  0  0  0  0  0
   58.6853   32.2452   51.7900 H   0  0  0  0  0  0  0  0  0  0  0  0
   57.4191   31.4763   50.7740 H   0  0  0  0  0  0  0  0  0  0  0  0
   59.0914   30.8206   50.7740 H   0  0  0  0  0  0  0  0  0  0  0  0
  1  2  1  0
  2  3  2  0
  3  4  1  0
  4  5  1  0
  5  6  2  0
  6  7  1  0
  7  8  2  0
  8  9  1  0
  8 10  1  0
 10 11  2  0
  4 12  2  0
 12 13  1  0
 13 14  1  0
 13 15  2  0
 15 16  1  0
 16 17  1  0
 17 18  1  0
 18 19  1  0
 19 20  1  0
 20 21  1  0
 21 22  2  0
 22 23  1  0
 22 24  1  0
 24 25  2  0
 24 26  1  0
 26 27  1  0
 27 28  1  0
 15  2  1  0
 27 20  2  0
 11  5  1  0
  1 29  1  0
  1 30  1  0
  1 31  1  0
  3 32  1  0
  6 33  1  0
  7 34  1  0
 10 35  1  0
 11 36  1  0
 12 37  1  0
 14 38  1  0
 14 39  1  0
 14 40  1  0
 17 41  1  0
 17 42  1  0
 18 43  1  0
 18 44  1  0
 19 45  1  0
 19 46  1  0
 21 47  1  0
 23 48  1  0
 23 49  1  0
 23 50  1  0
 28 51  1  0
 28 52  1  0
 28 53  1  0
M  CHG  1  26  -1
M  END
>  <UniqueID>  (15) 
13

>  <SMILES>  (15) 
Cc1cc(-c2ccc(Cl)cc2)cc(C)c1OCCCc1cc(C)c(=O)[n-]c1C

>  <Energy>  (15) 
66.51198246794497

>  <Genealogy>  (15) 
Cc1cc(-c2ccc(Cl)cc2)cc(C)c1OCCCc1cc(C)c(=O)[n-]c1C (protonated)
Cc1cc(-c2ccc(Cl)cc2)cc(C)c1OCCCc1cc(C)c(=O)[n-]c1C (3D coordinates assigned)
Cc1cc(-c2ccc(Cl)cc2)cc(C)c1OCCCc1cc(C)c(=O)[n-]c1C (optimized conformer: 66.51198246794497 kcal/mol)

>  <smiles>  (15) 
Cc1cc(-c2ccc(Cl)cc2)cc(C)c1OCCCc1cc(C)c(=O)[nH]c1C

>  <score_type>  (15) 
oracle

>  <origin>  (15) 
adg

>  <m_score__min__energy>  (15) 
-10.859999999999999

>  <m_primary>  (15) 
energy

$$$$
15:0
     RDKit          3D

 39 41  0  0  0  0  0  0  0  0999 V2000
   58.0940   34.3590   45.5740 O   0  0  0  0  0  0  0  0  0  0  0  0
   58.1910   33.1020   45.6250 C   0  0  0  0  0  0  0  0  0  0  0  0
   58.7000   32.4660   46.8150 N   0  0  0  0  0  0  0  0  0  0  0  0
   58.8870   33.1360   48.1110 C   0  0  2  0  0  0  0  0  0  0  0  0
   59.9040   34.3000   48.0080 C   0  0  0  0  0  0  0  0  0  0  0  0
   61.3390   33.8650   47.9060 C   0  0  0  0  0  0  0  0  0  0  0  0
   61.9990   33.4550   46.7530 C   0  0  0  0  0  0  0  0  0  0  0  0
   63.3370   33.1110   46.9760 C   0  0  0  0  0  0  0  0  0  0  0  0
   63.7340   33.2400   48.3010 C   0  0  0  0  0  0  0  0  0  0  0  0
   62.4170   33.7810   49.1950 S   0  0  0  0  0  0  0  0  0  0  0  0
   59.1640   32.1480   49.2220 C   0  0  0  0  0  0  0  0  0  0  0  0
   59.3370   30.9250   48.9750 O   0  0  0  0  0  0  0  0  0  0  0  0
   59.2970   32.6090   50.5670 N   0  0  0  0  0  0  0  0  0  0  0  0
   59.5700   32.0190   51.8890 C   0  0  0  0  0  0  0  0  0  0  0  0
   59.5380   33.3050   52.6460 C   0  0  0  0  0  0  0  0  0  0  0  0
   59.2610   33.8870   51.3000 C   0  0  0  0  0  0  0  0  0  0  0  0
   57.7860   32.3000   44.4480 C   0  0  0  0  0  0  0  0  0  0  0  0
   57.0330   31.1230   44.5960 C   0  0  0  0  0  0  0  0  0  0  0  0
   56.6570   30.3960   43.4640 C   0  0  0  0  0  0  0  0  0  0  0  0
   57.0100   30.8300   42.2250 N   0  0  0  0  0  0  0  0  0  0  0  0
   57.7280   31.9690   42.0480 C   0  0  0  0  0  0  0  0  0  0  0  0
   58.1250   32.7260   43.1530 C   0  0  0  0  0  0  0  0  0  0  0  0
   59.0130   31.4720   46.7520 H   0  0  0  0  0  0  0  0  0  0  0  0
   57.9371   33.6125   48.3949 H   0  0  0  0  0  0  0  0  0  0  0  0
   59.6597   34.8918   47.1135 H   0  0  0  0  0  0  0  0  0  0  0  0
   59.8167   34.8760   48.9411 H   0  0  0  0  0  0  0  0  0  0  0  0
   61.5179   33.4060   45.7650 H   0  0  0  0  0  0  0  0  0  0  0  0
   64.0115   32.7702   46.1767 H   0  0  0  0  0  0  0  0  0  0  0  0
   64.7375   33.0251   48.6971 H   0  0  0  0  0  0  0  0  0  0  0  0
   58.7864   31.3173   52.2108 H   0  0  0  0  0  0  0  0  0  0  0  0
   60.4765   31.4034   51.9853 H   0  0  0  0  0  0  0  0  0  0  0  0
   58.7261   33.4027   53.3817 H   0  0  0  0  0  0  0  0  0  0  0  0
   60.3461   33.6478   53.3090 H   0  0  0  0  0  0  0  0  0  0  0  0
   58.2796   34.3808   51.2447 H   0  0  0  0  0  0  0  0  0  0  0  0
   59.9337   34.6841   50.9507 H   0  0  0  0  0  0  0  0  0  0  0  0
   56.7411   30.7758   45.5981 H   0  0  0  0  0  0  0  0  0  0  0  0
   56.0738   29.4700   43.5754 H   0  0  0  0  0  0  0  0  0  0  0  0
   57.9974   32.2961   41.0329 H   0  0  0  0  0  0  0  0  0  0  0  0
   58.7009   33.6522   43.0096 H   0  0  0  0  0  0  0  0  0  0  0  0
  1  2  2  0
  2  3  1  0
  3  4  1  0
  4  5  1  0
  5  6  1  0
  6  7  2  0
  7  8  1  0
  8  9  2  0
  9 10  1  0
  4 11  1  0
 11 12  2  0
 11 13  1  0
 13 14  1  0
 14 15  1  0
 15 16  1  0
  2 17  1  0
 17 18  2  0
 18 19  1  0
 19 20  2  0
 20 21  1  0
 21 22  2  0
 10  6  1  0
 16 13  1  0
 22 17  1  0
  3 23  1  0
  4 24  1  1
  5 25  1  0
  5 26  1  0
  7 27  1  0
  8 28  1  0
  9 29  1  0
 14 30  1  0
 14 31  1  0
 15 32  1  0
 15 33  1  0
 16 34  1  0
 16 35  1  0
 18 36  1  0
 19 37  1  0
 21 38  1  0
 22 39  1  0
M  END
>  <UniqueID>  (16) 
14

>  <SMILES>  (16) 
O=C(N[C@H](Cc1cccs1)C(=O)N1CCC1)c1ccncc1

>  <Energy>  (16) 
110.83314917914191

>  <Genealogy>  (16) 
O=C(N[C@H](Cc1cccs1)C(=O)N1CCC1)c1ccncc1 (chirality)
O=C(N[C@H](Cc1cccs1)C(=O)N1CCC1)c1ccncc1 (3D coordinates assigned)
O=C(N[C@H](Cc1cccs1)C(=O)N1CCC1)c1ccncc1 (nonaromatic ring conformer: 110.83314917914191 kcal/mol)

>  <smiles>  (16) 
O=C(NC(Cc1cccs1)C(=O)N1CCC1)c1ccncc1

>  <score_type>  (16) 
oracle

>  <origin>  (16) 
adg

>  <m_score__min__energy>  (16) 
-6.8399999999999999

>  <m_primary>  (16) 
energy

$$$$
16:0
     RDKit          3D

 41 43  0  0  0  0  0  0  0  0999 V2000
   58.0110   32.4230   42.3970 C   0  0  0  0  0  0  0  0  0  0  0  0
   58.1220   32.8170   43.8450 C   0  0  0  0  0  0  0  0  0  0  0  0
   59.0570   33.8020   44.2070 C   0  0  0  0  0  0  0  0  0  0  0  0
   59.1310   34.2610   45.5240 C   0  0  0  0  0  0  0  0  0  0  0  0
   58.2850   33.7330   46.4980 C   0  0  0  0  0  0  0  0  0  0  0  0
   58.3450   34.1950   47.7710 F   0  0  0  0  0  0  0  0  0  0  0  0
   57.3720   32.7300   46.1610 C   0  0  0  0  0  0  0  0  0  0  0  0
   57.3020   32.2420   44.8490 C   0  0  0  0  0  0  0  0  0  0  0  0
   56.3370   31.2190   44.5640 N   0  0  0  0  0  0  0  0  0  0  0  0
   56.5190   29.8210   44.8370 C   0  0  0  0  0  0  0  0  0  0  0  0
   55.5540   29.1130   45.2250 O   0  0  0  0  0  0  0  0  0  0  0  0
   57.8490   29.1810   44.5830 C   0  0  0  0  0  0  0  0  0  0  0  0
   58.4940   28.8350   45.8090 O   0  0  0  0  0  0  0  0  0  0  0  0
   59.3660   29.6670   46.5290 C   0  0  0  0  0  0  0  0  0  0  0  0
   60.6870   29.7790   46.0870 C   0  0  0  0  0  0  0  0  0  0  0  0
   61.5830   30.6320   46.7360 C   0  0  0  0  0  0  0  0  0  0  0  0
   61.1720   31.3930   47.8450 C   0  0  0  0  0  0  0  0  0  0  0  0
   62.1210   32.3250   48.5020 C   0  0  0  0  0  0  0  0  0  0  0  0
   61.7570   33.1440   49.4280 N   0  0  0  0  0  0  0  0  0  0  0  0
   62.9050   33.9110   49.8950 C   0  0  0  0  0  0  0  0  0  0  0  0
   64.1000   33.3600   49.1070 C   0  0  0  0  0  0  0  0  0  0  0  0
   63.5070   32.3840   48.2160 N   0  0  0  0  0  0  0  0  0  0  0  0
   59.8530   31.2510   48.3110 C   0  0  0  0  0  0  0  0  0  0  0  0
   58.9600   30.3920   47.6640 C   0  0  0  0  0  0  0  0  0  0  0  0
   57.7133   31.3664   42.3263 H   0  0  0  0  0  0  0  0  0  0  0  0
   57.2548   33.0508   41.9031 H   0  0  0  0  0  0  0  0  0  0  0  0
   58.9838   32.5637   41.9031 H   0  0  0  0  0  0  0  0  0  0  0  0
   59.7362   34.2149   43.4466 H   0  0  0  0  0  0  0  0  0  0  0  0
   59.8585   35.0409   45.7933 H   0  0  0  0  0  0  0  0  0  0  0  0
   56.7028   32.3202   46.9318 H   0  0  0  0  0  0  0  0  0  0  0  0
   57.7011   28.2697   43.9849 H   0  0  0  0  0  0  0  0  0  0  0  0
   58.4850   29.8980   44.0431 H   0  0  0  0  0  0  0  0  0  0  0  0
   61.0241   29.1906   45.2209 H   0  0  0  0  0  0  0  0  0  0  0  0
   62.6196   30.7092   46.3763 H   0  0  0  0  0  0  0  0  0  0  0  0
   62.7651   34.9818   49.6859 H   0  0  0  0  0  0  0  0  0  0  0  0
   63.0490   33.8176   50.9815 H   0  0  0  0  0  0  0  0  0  0  0  0
   64.5961   34.1598   48.5376 H   0  0  0  0  0  0  0  0  0  0  0  0
   64.8745   32.9268   49.7570 H   0  0  0  0  0  0  0  0  0  0  0  0
   64.0420   31.7930   47.5410 H   0  0  0  0  0  0  0  0  0  0  0  0
   59.5212   31.8204   49.1917 H   0  0  0  0  0  0  0  0  0  0  0  0
   57.9338   30.2823   48.0446 H   0  0  0  0  0  0  0  0  0  0  0  0
  1  2  1  0
  2  3  2  0
  3  4  1  0
  4  5  2  0
  5  6  1  0
  5  7  1  0
  7  8  2  0
  8  9  1  0
  9 10  1  0
 10 11  2  0
 10 12  1  0
 12 13  1  0
 13 14  1  0
 14 15  2  0
 15 16  1  0
 16 17  2  0
 17 18  1  0
 18 19  2  0
 19 20  1  0
 20 21  1  0
 21 22  1  0
 17 23  1  0
 23 24  2  0
  8  2  1  0
 24 14  1  0
 22 18  1  0
  1 25  1  0
  1 26  1  0
  1 27  1  0
  3 28  1  0
  4 29  1  0
  7 30  1  0
 12 31  1  0
 12 32  1  0
 15 33  1  0
 16 34  1  0
 20 35  1  0
 20 36  1  0
 21 37  1  0
 21 38  1  0
 22 39  1  0
 23 40  1  0
 24 41  1  0
M  CHG  1   9  -1
M  END
>  <UniqueID>  (17) 
15

>  <SMILES>  (17) 
Cc1ccc(F)cc1[N-]C(=O)COc1ccc(C2=NCCN2)cc1

>  <Energy>  (17) 
61.16853524009222

>  <Genealogy>  (17) 
Cc1ccc(F)cc1[N-]C(=O)COc1ccc(C2=NCCN2)cc1 (protonated)
Cc1ccc(F)cc1[N-]C(=O)COc1ccc(C2=NCCN2)cc1 (3D coordinates assigned)
Cc1ccc(F)cc1[N-]C(=O)COc1ccc(C2=NCCN2)cc1 (nonaromatic ring conformer: 61.16853524009222 kcal/mol)

>  <smiles>  (17) 
Cc1ccc(F)cc1NC(=O)COc1ccc(C2=NCCN2)cc1

>  <score_type>  (17) 
oracle

>  <origin>  (17) 
adg

>  <m_score__min__energy>  (17) 
-9.1799999999999997

>  <m_primary>  (17) 
energy

$$$$
17:0
     RDKit          3D

 31 33  0  0  0  0  0  0  0  0999 V2000
   55.3740   25.0400   45.6230 C   0  0  0  0  0  0  0  0  0  0  0  0
   55.4970   26.3100   46.2500 O   0  0  0  0  0  0  0  0  0  0  0  0
   56.3880   27.2900   45.8010 C   0  0  0  0  0  0  0  0  0  0  0  0
   55.9490   28.3310   45.2400 O   0  0  0  0  0  0  0  0  0  0  0  0
   57.8480   27.0760   45.9540 C   0  0  0  0  0  0  0  0  0  0  0  0
   58.2980   25.7950   46.3230 C   0  0  0  0  0  0  0  0  0  0  0  0
   59.6630   25.5150   46.4100 C   0  0  0  0  0  0  0  0  0  0  0  0
   60.6000   26.5090   46.1320 C   0  0  0  0  0  0  0  0  0  0  0  0
   60.1770   27.7910   45.7830 C   0  0  0  0  0  0  0  0  0  0  0  0
   58.8070   28.0970   45.7040 C   0  0  0  0  0  0  0  0  0  0  0  0
   58.4220   29.4990   45.4200 C   0  0  0  0  0  0  0  0  0  0  0  0
   58.0110   29.8730   44.1190 C   0  0  0  0  0  0  0  0  0  0  0  0
   57.6600   31.2020   43.8330 C   0  0  0  0  0  0  0  0  0  0  0  0
   57.2600   31.5500   42.5850 F   0  0  0  0  0  0  0  0  0  0  0  0
   57.7300   32.1540   44.8560 C   0  0  0  0  0  0  0  0  0  0  0  0
   57.4190   33.5140   44.7470 C   0  0  0  0  0  0  0  0  0  0  0  0
   57.5940   34.2030   45.9460 C   0  0  0  0  0  0  0  0  0  0  0  0
   58.1330   33.1240   47.1310 S   0  0  0  0  0  0  0  0  0  0  0  0
   58.1440   31.7830   46.1240 C   0  0  0  0  0  0  0  0  0  0  0  0
   58.4990   30.4740   46.4350 C   0  0  0  0  0  0  0  0  0  0  0  0
   55.2982   24.2572   46.3921 H   0  0  0  0  0  0  0  0  0  0  0  0
   54.4704   25.0267   44.9959 H   0  0  0  0  0  0  0  0  0  0  0  0
   56.2583   24.8535   44.9959 H   0  0  0  0  0  0  0  0  0  0  0  0
   57.5658   25.0049   46.5456 H   0  0  0  0  0  0  0  0  0  0  0  0
   59.9997   24.5083   46.6984 H   0  0  0  0  0  0  0  0  0  0  0  0
   61.6748   26.2816   46.1880 H   0  0  0  0  0  0  0  0  0  0  0  0
   60.9225   28.5706   45.5674 H   0  0  0  0  0  0  0  0  0  0  0  0
   57.9660   29.1148   43.3233 H   0  0  0  0  0  0  0  0  0  0  0  0
   57.0739   33.9879   43.8162 H   0  0  0  0  0  0  0  0  0  0  0  0
   57.4107   35.2770   46.0971 H   0  0  0  0  0  0  0  0  0  0  0  0
   58.8318   30.2065   47.4488 H   0  0  0  0  0  0  0  0  0  0  0  0
  1  2  1  0
  2  3  1  0
  3  4  2  0
  3  5  1  0
  5  6  2  0
  6  7  1  0
  7  8  2  0
  8  9  1  0
  9 10  2  0
 10 11  1  0
 11 12  2  0
 12 13  1  0
 13 14  1  0
 13 15  2  0
 15 16  1  0
 16 17  2  0
 17 18  1  0
 18 19  1  0
 19 20  2  0
 10  5  1  0
 20 11  1  0
 19 15  1  0
  1 21  1  0
  1 22  1  0
  1 23  1  0
  6 24  1  0
  7 25  1  0
  8 26  1  0
  9 27  1  0
 12 28  1  0
 16 29  1  0
 17 30  1  0
 20 31  1  0
M  END
>  <UniqueID>  (18) 
16

>  <SMILES>  (18) 
COC(=O)c1ccccc1-c1cc(F)c2ccsc2c1

>  <Energy>  (18) 
72.80563713496234

>  <Genealogy>  (18) 
COC(=O)c1ccccc1-c1cc(F)c2ccsc2c1 (3D coordinates assigned)
COC(=O)c1ccccc1-c1cc(F)c2ccsc2c1 (optimized conformer: 72.80563713496234 kcal/mol)

>  <smiles>  (18) 
COC(=O)c1ccccc1-c1cc(F)c2ccsc2c1

>  <score_type>  (18) 
oracle

>  <origin>  (18) 
adg

>  <m_score__min__energy>  (18) 
-7.0599999999999996

>  <m_primary>  (18) 
energy

$$$$
18:0
     RDKit          3D

 50 53  0  0  0  0  0  0  0  0999 V2000
   59.7610   28.4560   48.6960 C   0  0  0  0  0  0  0  0  0  0  0  0
   59.2360   27.5040   47.6200 C   0  0  0  0  0  0  0  0  0  0  0  0
   60.3480   27.0130   46.6790 C   0  0  0  0  0  0  0  0  0  0  0  0
   60.4880   27.8490   45.3940 C   0  0  0  0  0  0  0  0  0  0  0  0
   59.3340   28.7430   45.2080 N   0  0  0  0  0  0  0  0  0  0  0  0
   58.1820   28.4450   44.5350 C   0  0  0  0  0  0  0  0  0  0  0  0
   57.8340   27.1360   44.0340 N   0  0  0  0  0  0  0  0  0  0  0  0
   57.4590   26.2200   45.1250 C   0  0  0  0  0  0  0  0  0  0  0  0
   57.4550   24.7790   44.6740 C   0  0  0  0  0  0  0  0  0  0  0  0
   58.3470   23.8540   45.2430 C   0  0  0  0  0  0  0  0  0  0  0  0
   58.3790   22.5340   44.7850 C   0  0  0  0  0  0  0  0  0  0  0  0
   57.5240   22.1280   43.7570 C   0  0  0  0  0  0  0  0  0  0  0  0
   56.6360   23.0430   43.1850 C   0  0  0  0  0  0  0  0  0  0  0  0
   56.6010   24.3650   43.6380 C   0  0  0  0  0  0  0  0  0  0  0  0
   57.3410   29.5550   44.4800 C   0  0  0  0  0  0  0  0  0  0  0  0
   56.0400   29.6470   43.8740 C   0  0  0  0  0  0  0  0  0  0  0  0
   54.9920   29.7210   43.3860 N   0  0  0  0  0  0  0  0  0  0  0  0
   58.0140   30.5460   45.1440 C   0  0  0  0  0  0  0  0  0  0  0  0
   57.6250   31.8180   45.3770 N   0  0  0  0  0  0  0  0  0  0  0  0
   58.4560   32.6430   46.0750 C   0  0  0  0  0  0  0  0  0  0  0  0
   58.0560   33.9610   46.3150 C   0  0  0  0  0  0  0  0  0  0  0  0
   58.8930   34.8160   47.0270 C   0  0  0  0  0  0  0  0  0  0  0  0
   60.1180   34.3520   47.4960 C   0  0  0  0  0  0  0  0  0  0  0  0
   60.4990   33.0320   47.2480 C   0  0  0  0  0  0  0  0  0  0  0  0
   59.6800   32.1820   46.5450 N   0  0  0  0  0  0  0  0  0  0  0  0
   60.0660   30.8790   46.3070 C   0  0  0  0  0  0  0  0  0  0  0  0
   61.1660   30.4440   46.7430 O   0  0  0  0  0  0  0  0  0  0  0  0
   59.2050   30.0460   45.5780 C   0  0  0  0  0  0  0  0  0  0  0  0
   59.5345   28.0454   49.6910 H   0  0  0  0  0  0  0  0  0  0  0  0
   60.8495   28.5699   48.5854 H   0  0  0  0  0  0  0  0  0  0  0  0
   59.2765   29.4373   48.5854 H   0  0  0  0  0  0  0  0  0  0  0  0
   58.7790   26.6326   48.1117 H   0  0  0  0  0  0  0  0  0  0  0  0
   58.5023   28.0552   47.0134 H   0  0  0  0  0  0  0  0  0  0  0  0
   61.3036   27.0496   47.2225 H   0  0  0  0  0  0  0  0  0  0  0  0
   60.0787   25.9923   46.3697 H   0  0  0  0  0  0  0  0  0  0  0  0
   61.4037   28.4551   45.4591 H   0  0  0  0  0  0  0  0  0  0  0  0
   60.5357   27.1615   44.5366 H   0  0  0  0  0  0  0  0  0  0  0  0
   57.0140   27.2370   43.3900 H   0  0  0  0  0  0  0  0  0  0  0  0
   58.6100   26.7220   43.4710 H   0  0  0  0  0  0  0  0  0  0  0  0
   58.1801   26.3331   45.9479 H   0  0  0  0  0  0  0  0  0  0  0  0
   56.4408   26.4778   45.4517 H   0  0  0  0  0  0  0  0  0  0  0  0
   59.0224   24.1701   46.0517 H   0  0  0  0  0  0  0  0  0  0  0  0
   59.0783   21.8136   45.2344 H   0  0  0  0  0  0  0  0  0  0  0  0
   57.5499   21.0885   43.3981 H   0  0  0  0  0  0  0  0  0  0  0  0
   55.9629   22.7222   42.3763 H   0  0  0  0  0  0  0  0  0  0  0  0
   55.9032   25.0829   43.1823 H   0  0  0  0  0  0  0  0  0  0  0  0
   57.0852   34.3206   45.9433 H   0  0  0  0  0  0  0  0  0  0  0  0
   58.5868   35.8551   47.2181 H   0  0  0  0  0  0  0  0  0  0  0  0
   60.7834   35.0223   48.0598 H   0  0  0  0  0  0  0  0  0  0  0  0
   61.4678   32.6677   47.6204 H   0  0  0  0  0  0  0  0  0  0  0  0
  1  2  1  0
  2  3  1  0
  3  4  1  0
  4  5  1  0
  5  6  1  0
  6  7  1  0
  7  8  1  0
  8  9  1  0
  9 10  2  0
 10 11  1  0
 11 12  2  0
 12 13  1  0
 13 14  2  0
  6 15  2  0
 15 16  1  0
 16 17  3  0
 15 18  1  0
 18 19  1  0
 19 20  2  0
 20 21  1  0
 21 22  2  0
 22 23  1  0
 23 24  2  0
 24 25  1  0
 25 26  1  0
 26 27  2  0
 26 28  1  0
 28  5  1  0
 14  9  1  0
 28 18  2  0
 25 20  1  0
  1 29  1  0
  1 30  1  0
  1 31  1  0
  2 32  1  0
  2 33  1  0
  3 34  1  0
  3 35  1  0
  4 36  1  0
  4 37  1  0
  7 38  1  0
  7 39  1  0
  8 40  1  0
  8 41  1  0
 10 42  1  0
 11 43  1  0
 12 44  1  0
 13 45  1  0
 14 46  1  0
 21 47  1  0
 22 48  1  0
 23 49  1  0
 24 50  1  0
M  CHG  1   7   1
M  END
>  <UniqueID>  (19) 
17

>  <SMILES>  (19) 
CCCCn1c([NH2+]Cc2ccccc2)c(C#N)c2nc3ccccn3c(=O)c21

>  <Energy>  (19) 
91.65538439703964

>  <Genealogy>  (19) 
CCCCn1c([NH2+]Cc2ccccc2)c(C#N)c2nc3ccccn3c(=O)c21 (protonated)
CCCCn1c([NH2+]Cc2ccccc2)c(C#N)c2nc3ccccn3c(=O)c21 (3D coordinates assigned)
CCCCn1c([NH2+]Cc2ccccc2)c(C#N)c2nc3ccccn3c(=O)c21 (optimized conformer: 91.65538439703964 kcal/mol)

>  <smiles>  (19) 
CCCCn1c(NCc2ccccc2)c(C#N)c2nc3ccccn3c(=O)c21

>  <score_type>  (19) 
oracle

>  <origin>  (19) 
adg

>  <m_score__min__energy>  (19) 
-6.9199999999999999

>  <m_primary>  (19) 
energy

$$$$
19:0
     RDKit          3D

 50 52  0  0  0  0  0  0  0  0999 V2000
   59.3350   32.8550   49.3750 C   0  0  0  0  0  0  0  0  0  0  0  0
   58.8840   33.7590   48.3710 O   0  0  0  0  0  0  0  0  0  0  0  0
   58.6040   33.3960   47.0460 C   0  0  0  0  0  0  0  0  0  0  0  0
   59.0950   32.1740   46.5720 C   0  0  0  0  0  0  0  0  0  0  0  0
   58.8410   31.7650   45.2610 C   0  0  0  0  0  0  0  0  0  0  0  0
   58.0890   32.5790   44.3990 C   0  0  0  0  0  0  0  0  0  0  0  0
   57.7650   32.1150   43.0020 C   0  0  0  0  0  0  0  0  0  0  0  0
   56.8970   30.8510   43.0170 C   0  0  0  0  0  0  0  0  0  0  0  0
   57.6500   29.6950   43.5010 N   0  0  0  0  0  0  0  0  0  0  0  0
   57.2770   28.9660   44.6830 C   0  0  0  0  0  0  0  0  0  0  0  0
   56.3000   29.3480   45.3810 O   0  0  0  0  0  0  0  0  0  0  0  0
   58.0380   27.7280   45.0910 C   0  0  1  0  0  0  0  0  0  0  0  0
   58.5680   27.8820   46.5350 C   0  0  0  0  0  0  0  0  0  0  0  0
   58.8980   26.5160   47.1390 C   0  0  0  0  0  0  0  0  0  0  0  0
   57.6620   25.5890   47.1470 C   0  0  0  0  0  0  0  0  0  0  0  0
   56.6050   26.0470   46.2180 N   0  0  0  0  0  0  0  0  0  0  0  0
   55.4270   24.7810   45.9840 S   0  0  0  0  0  0  0  0  0  0  0  0
   54.0930   25.3780   45.6290 O   0  0  0  0  0  0  0  0  0  0  0  0
   55.2850   23.9740   47.2440 O   0  0  0  0  0  0  0  0  0  0  0  0
   55.9490   23.7170   44.6910 C   0  0  0  0  0  0  0  0  0  0  0  0
   55.1950   23.3430   43.6100 C   0  0  0  0  0  0  0  0  0  0  0  0
   55.9200   22.5050   42.8490 N   0  0  0  0  0  0  0  0  0  0  0  0
   57.0970   22.3990   43.5040 C   0  0  0  0  0  0  0  0  0  0  0  0
   57.1540   23.1250   44.6400 N   0  0  0  0  0  0  0  0  0  0  0  0
   57.1780   26.4500   44.9240 C   0  0  0  0  0  0  0  0  0  0  0  0
   57.5920   33.8040   44.8700 C   0  0  0  0  0  0  0  0  0  0  0  0
   57.8490   34.2130   46.1820 C   0  0  0  0  0  0  0  0  0  0  0  0
   59.1247   33.2764   50.3691 H   0  0  0  0  0  0  0  0  0  0  0  0
   58.8106   31.8942   49.2657 H   0  0  0  0  0  0  0  0  0  0  0  0
   60.4180   32.6961   49.2657 H   0  0  0  0  0  0  0  0  0  0  0  0
   59.6868   31.5294   47.2386 H   0  0  0  0  0  0  0  0  0  0  0  0
   59.2317   30.8013   44.9024 H   0  0  0  0  0  0  0  0  0  0  0  0
   57.2227   32.9148   42.4764 H   0  0  0  0  0  0  0  0  0  0  0  0
   58.7090   31.8794   42.4888 H   0  0  0  0  0  0  0  0  0  0  0  0
   56.0329   31.0176   43.6770 H   0  0  0  0  0  0  0  0  0  0  0  0
   56.5670   30.6443   41.9882 H   0  0  0  0  0  0  0  0  0  0  0  0
   58.5030   29.4080   42.9730 H   0  0  0  0  0  0  0  0  0  0  0  0
   58.9022   27.6134   44.4202 H   0  0  0  0  0  0  0  0  0  0  0  0
   59.4778   28.5001   46.5216 H   0  0  0  0  0  0  0  0  0  0  0  0
   57.7900   28.3607   47.1478 H   0  0  0  0  0  0  0  0  0  0  0  0
   59.6947   26.0450   46.5445 H   0  0  0  0  0  0  0  0  0  0  0  0
   59.2238   26.6671   48.1787 H   0  0  0  0  0  0  0  0  0  0  0  0
   57.9776   24.5775   46.8515 H   0  0  0  0  0  0  0  0  0  0  0  0
   57.2419   25.6003   48.1635 H   0  0  0  0  0  0  0  0  0  0  0  0
   54.1671   23.6735   43.3997 H   0  0  0  0  0  0  0  0  0  0  0  0
   57.9312   21.7786   43.1446 H   0  0  0  0  0  0  0  0  0  0  0  0
   57.8089   25.6361   44.5373 H   0  0  0  0  0  0  0  0  0  0  0  0
   56.3592   26.6593   44.2199 H   0  0  0  0  0  0  0  0  0  0  0  0
   56.9971   34.4457   44.2034 H   0  0  0  0  0  0  0  0  0  0  0  0
   57.4598   35.1771   46.5411 H   0  0  0  0  0  0  0  0  0  0  0  0
  1  2  1  0
  2  3  1  0
  3  4  2  0
  4  5  1  0
  5  6  2  0
  6  7  1  0
  7  8  1  0
  8  9  1  0
  9 10  1  0
 10 11  2  0
 10 12  1  0
 12 13  1  0
 13 14  1  0
 14 15  1  0
 15 16  1  0
 16 17  1  0
 17 18  2  0
 17 19  2  0
 17 20  1  0
 20 21  2  0
 21 22  1  0
 22 23  1  0
 23 24  2  0
 16 25  1  0
  6 26  1  0
 26 27  2  0
 27  3  1  0
 25 12  1  0
 24 20  1  0
  1 28  1  0
  1 29  1  0
  1 30  1  0
  4 31  1  0
  5 32  1  0
  7 33  1  0
  7 34  1  0
  8 35  1  0
  8 36  1  0
  9 37  1  0
 12 38  1  6
 13 39  1  0
 13 40  1  0
 14 41  1  0
 14 42  1  0
 15 43  1  0
 15 44  1  0
 21 45  1  0
 23 46  1  0
 25 47  1  0
 25 48  1  0
 26 49  1  0
 27 50  1  0
M  CHG  1  22  -1
M  END
>  <UniqueID>  (20) 
18

>  <SMILES>  (20) 
COc1ccc(CCNC(=O)[C@H]2CCCN(S(=O)(=O)c3c[n-]cn3)C2)cc1

>  <Energy>  (20) 
73.90995096721801

>  <Genealogy>  (20) 
COc1ccc(CCNC(=O)C2CCCN(S(=O)(=O)c3c[n-]cn3)C2)cc1 (protonated)
COc1ccc(CCNC(=O)[C@H]2CCCN(S(=O)(=O)c3c[n-]cn3)C2)cc1 (chirality)
COc1ccc(CCNC(=O)[C@H]2CCCN(S(=O)(=O)c3c[n-]cn3)C2)cc1 (3D coordinates assigned)
COc1ccc(CCNC(=O)[C@H]2CCCN(S(=O)(=O)c3c[n-]cn3)C2)cc1 (nonaromatic ring conformer: 73.90995096721801 kcal/mol)

>  <smiles>  (20) 
COc1ccc(CCNC(=O)C2CCCN(S(=O)(=O)c3c[nH]cn3)C2)cc1

>  <score_type>  (20) 
oracle

>  <origin>  (20) 
adg

>  <m_score__min__energy>  (20) 
-11.07

>  <m_primary>  (20) 
energy

$$$$
20:0
     RDKit          3D

 27 28  0  0  0  0  0  0  0  0999 V2000
   55.0020   25.2470   45.6390 C   0  0  0  0  0  0  0  0  0  0  0  0
   55.4670   26.5600   45.9250 O   0  0  0  0  0  0  0  0  0  0  0  0
   56.7910   26.9570   45.7110 C   0  0  0  0  0  0  0  0  0  0  0  0
   57.6930   26.0820   45.5810 O   0  0  0  0  0  0  0  0  0  0  0  0
   57.1440   28.3990   45.6360 C   0  0  0  0  0  0  0  0  0  0  0  0
   58.3500   28.8580   46.1910 C   0  0  0  0  0  0  0  0  0  0  0  0
   58.6810   30.2140   46.1200 C   0  0  0  0  0  0  0  0  0  0  0  0
   59.8760   30.7040   46.6620 C   0  0  0  0  0  0  0  0  0  0  0  0
   60.1770   32.0680   46.5750 C   0  0  0  0  0  0  0  0  0  0  0  0
   61.8180   32.7070   47.3250 Br  0  0  0  0  0  0  0  0  0  0  0  0
   59.2870   32.9550   45.9450 C   0  0  0  0  0  0  0  0  0  0  0  0
   59.6260   34.3160   45.8790 O   0  0  0  0  0  0  0  0  0  0  0  0
   59.2910   35.2800   46.8710 C   0  0  0  0  0  0  0  0  0  0  0  0
   58.0870   32.4560   45.4020 C   0  0  0  0  0  0  0  0  0  0  0  0
   57.7840   31.0930   45.4880 C   0  0  0  0  0  0  0  0  0  0  0  0
   56.6490   30.6330   44.9720 O   0  0  0  0  0  0  0  0  0  0  0  0
   56.2990   29.3500   45.0190 C   0  0  0  0  0  0  0  0  0  0  0  0
   55.2040   29.0050   44.5040 O   0  0  0  0  0  0  0  0  0  0  0  0
   54.8125   24.7118   46.5812 H   0  0  0  0  0  0  0  0  0  0  0  0
   54.0703   25.3066   45.0573 H   0  0  0  0  0  0  0  0  0  0  0  0
   55.7635   24.7069   45.0573 H   0  0  0  0  0  0  0  0  0  0  0  0
   59.0341   28.1500   46.6816 H   0  0  0  0  0  0  0  0  0  0  0  0
   60.5782   30.0165   47.1562 H   0  0  0  0  0  0  0  0  0  0  0  0
   59.4420   34.8455   47.8702 H   0  0  0  0  0  0  0  0  0  0  0  0
   59.9344   36.1646   46.7547 H   0  0  0  0  0  0  0  0  0  0  0  0
   58.2377   35.5749   46.7547 H   0  0  0  0  0  0  0  0  0  0  0  0
   57.3838   33.1422   44.9073 H   0  0  0  0  0  0  0  0  0  0  0  0
  1  2  1  0
  2  3  1  0
  3  4  2  0
  3  5  1  0
  5  6  2  0
  6  7  1  0
  7  8  2  0
  8  9  1  0
  9 10  1  0
  9 11  2  0
 11 12  1  0
 12 13  1  0
 11 14  1  0
 14 15  2  0
 15 16  1  0
 16 17  1  0
 17 18  2  0
 17  5  1  0
 15  7  1  0
  1 19  1  0
  1 20  1  0
  1 21  1  0
  6 22  1  0
  8 23  1  0
 13 24  1  0
 13 25  1  0
 13 26  1  0
 14 27  1  0
M  END
>  <UniqueID>  (21) 
19

>  <SMILES>  (21) 
COC(=O)c1cc2cc(Br)c(OC)cc2oc1=O

>  <Energy>  (21) 
31.260037078327628

>  <Genealogy>  (21) 
COC(=O)c1cc2cc(Br)c(OC)cc2oc1=O (3D coordinates assigned)
COC(=O)c1cc2cc(Br)c(OC)cc2oc1=O (optimized conformer: 31.260037078327628 kcal/mol)

>  <smiles>  (21) 
COC(=O)c1cc2cc(Br)c(OC)cc2oc1=O

>  <score_type>  (21) 
oracle

>  <origin>  (21) 
adg

>  <m_score__min__energy>  (21) 
-6.2699999999999996

>  <m_primary>  (21) 
energy

$$$$
21:0
     RDKit          3D

 46 48  0  0  0  0  0  0  0  0999 V2000
   59.2560   34.9420   45.0320 C   0  0  0  0  0  0  0  0  0  0  0  0
   58.3830   34.2840   46.0980 C   0  0  0  0  0  0  0  0  0  0  0  0
   59.0460   33.0920   46.6570 N   0  0  0  0  0  0  0  0  0  0  0  0
   60.0260   33.3070   47.7350 C   0  0  0  0  0  0  0  0  0  0  0  0
   59.6560   34.5320   48.5700 C   0  0  0  0  0  0  0  0  0  0  0  0
   58.7430   31.7540   46.1620 C   0  0  0  0  0  0  0  0  0  0  0  0
   57.7770   31.5510   45.1540 C   0  0  0  0  0  0  0  0  0  0  0  0
   57.4870   30.2680   44.6810 C   0  0  0  0  0  0  0  0  0  0  0  0
   58.1520   29.1470   45.2000 C   0  0  0  0  0  0  0  0  0  0  0  0
   57.8430   27.7850   44.6960 C   0  0  0  0  0  0  0  0  0  0  0  0
   58.0970   27.4470   43.3540 C   0  0  0  0  0  0  0  0  0  0  0  0
   57.8090   26.1650   42.8760 C   0  0  0  0  0  0  0  0  0  0  0  0
   57.2600   25.1990   43.7290 C   0  0  0  0  0  0  0  0  0  0  0  0
   56.9670   23.9100   43.2560 C   0  0  0  0  0  0  0  0  0  0  0  0
   56.4140   22.9440   44.1190 C   0  0  0  0  0  0  0  0  0  0  0  0
   56.1050   21.6440   43.6910 O   0  0  0  0  0  0  0  0  0  0  0  0
   57.0120   20.7810   43.0140 C   0  0  0  0  0  0  0  0  0  0  0  0
   56.1590   23.2810   45.4520 C   0  0  0  0  0  0  0  0  0  0  0  0
   56.4480   24.5610   45.9320 C   0  0  0  0  0  0  0  0  0  0  0  0
   56.9990   25.5270   45.0800 C   0  0  0  0  0  0  0  0  0  0  0  0
   57.2920   26.8150   45.5530 C   0  0  0  0  0  0  0  0  0  0  0  0
   59.1150   29.3380   46.2020 C   0  0  0  0  0  0  0  0  0  0  0  0
   59.4070   30.6190   46.6760 C   0  0  0  0  0  0  0  0  0  0  0  0
   60.0438   35.5358   45.5185 H   0  0  0  0  0  0  0  0  0  0  0  0
   59.7171   34.1649   44.4048 H   0  0  0  0  0  0  0  0  0  0  0  0
   58.6359   35.5993   44.4048 H   0  0  0  0  0  0  0  0  0  0  0  0
   58.1969   35.0056   46.9071 H   0  0  0  0  0  0  0  0  0  0  0  0
   57.4347   33.9744   45.6344 H   0  0  0  0  0  0  0  0  0  0  0  0
   60.0465   32.4202   48.3855 H   0  0  0  0  0  0  0  0  0  0  0  0
   61.0150   33.4744   47.2835 H   0  0  0  0  0  0  0  0  0  0  0  0
   59.7311   34.2834   49.6389 H   0  0  0  0  0  0  0  0  0  0  0  0
   60.3451   35.3569   48.3361 H   0  0  0  0  0  0  0  0  0  0  0  0
   58.6255   34.8375   48.3361 H   0  0  0  0  0  0  0  0  0  0  0  0
   57.2435   32.4162   44.7336 H   0  0  0  0  0  0  0  0  0  0  0  0
   56.7299   30.1360   43.8940 H   0  0  0  0  0  0  0  0  0  0  0  0
   58.5261   28.1982   42.6747 H   0  0  0  0  0  0  0  0  0  0  0  0
   58.0145   25.9138   41.8250 H   0  0  0  0  0  0  0  0  0  0  0  0
   57.1704   23.6532   42.2059 H   0  0  0  0  0  0  0  0  0  0  0  0
   57.6030   20.2186   43.7518 H   0  0  0  0  0  0  0  0  0  0  0  0
   56.4479   20.0780   42.3835 H   0  0  0  0  0  0  0  0  0  0  0  0
   57.6861   21.3794   42.3835 H   0  0  0  0  0  0  0  0  0  0  0  0
   55.7263   22.5305   46.1299 H   0  0  0  0  0  0  0  0  0  0  0  0
   56.2420   24.8112   46.9832 H   0  0  0  0  0  0  0  0  0  0  0  0
   57.0889   27.0687   46.6039 H   0  0  0  0  0  0  0  0  0  0  0  0
   59.6459   28.4695   46.6189 H   0  0  0  0  0  0  0  0  0  0  0  0
   60.1661   30.7455   47.4620 H   0  0  0  0  0  0  0  0  0  0  0  0
  1  2  1  0
  2  3  1  0
  3  4  1  0
  4  5  1  0
  3  6  1  0
  6  7  2  0
  7  8  1  0
  8  9  2  0
  9 10  1  0
 10 11  2  0
 11 12  1  0
 12 13  2  0
 13 14  1  0
 14 15  2  0
 15 16  1  0
 16 17  1  0
 15 18  1  0
 18 19  2  0
 19 20  1  0
 20 21  2  0
  9 22  1  0
 22 23  2  0
 23  6  1  0
 21 10  1  0
 20 13  1  0
  1 24  1  0
  1 25  1  0
  1 26  1  0
  2 27  1  0
  2 28  1  0
  4 29  1  0
  4 30  1  0
  5 31  1  0
  5 32  1  0
  5 33  1  0
  7 34  1  0
  8 35  1  0
 11 36  1  0
 12 37  1  0
 14 38  1  0
 17 39  1  0
 17 40  1  0
 17 41  1  0
 18 42  1  0
 19 43  1  0
 21 44  1  0
 22 45  1  0
 23 46  1  0
M  END
>  <UniqueID>  (22) 
20

>  <SMILES>  (22) 
CCN(CC)c1ccc(-c2ccc3cc(OC)ccc3c2)cc1

>  <Energy>  (22) 
54.5936223663287

>  <Genealogy>  (22) 
CCN(CC)c1ccc(-c2ccc3cc(OC)ccc3c2)cc1 (3D coordinates assigned)
CCN(CC)c1ccc(-c2ccc3cc(OC)ccc3c2)cc1 (optimized conformer: 54.5936223663287 kcal/mol)

>  <smiles>  (22) 
CCN(CC)c1ccc(-c2ccc3cc(OC)ccc3c2)cc1

>  <score_type>  (22) 
oracle

>  <origin>  (22) 
adg

>  <m_score__min__energy>  (22) 
-7.1500000000000004

>  <m_primary>  (22) 
energy

$$$$
22:0
     RDKit          3D

 42 44  0  0  0  0  0  0  0  0999 V2000
   57.4830   28.5680   45.0550 Cl  0  0  0  0  0  0  0  0  0  0  0  0
   57.7680   30.2980   44.9940 C   0  0  0  0  0  0  0  0  0  0  0  0
   57.5580   31.0000   43.8040 C   0  0  0  0  0  0  0  0  0  0  0  0
   57.7860   32.3770   43.7510 C   0  0  0  0  0  0  0  0  0  0  0  0
   58.2400   33.0610   44.8890 C   0  0  0  0  0  0  0  0  0  0  0  0
   58.4350   32.3600   46.0950 C   0  0  0  0  0  0  0  0  0  0  0  0
   58.2070   30.9750   46.1380 C   0  0  0  0  0  0  0  0  0  0  0  0
   58.9600   33.0820   47.3200 C   0  0  1  0  0  0  0  0  0  0  0  0
   60.4050   32.7830   47.5350 N   0  0  0  0  0  0  0  0  0  0  0  0
   61.2490   33.9930   47.5290 C   0  0  0  0  0  0  0  0  0  0  0  0
   62.0490   34.1690   48.8350 C   0  0  0  0  0  0  0  0  0  0  0  0
   63.4070   33.5910   48.7050 N   0  0  0  0  0  0  0  0  0  0  0  0
   63.6990   33.1220   47.3290 C   0  0  0  0  0  0  0  0  0  0  0  0
   63.3700   31.6280   47.1320 C   0  0  0  0  0  0  0  0  0  0  0  0
   62.3550   31.2210   48.0240 O   0  0  0  0  0  0  0  0  0  0  0  0
   62.8400   31.2410   49.3550 C   0  0  0  0  0  0  0  0  0  0  0  0
   63.6490   32.5180   49.6880 C   0  0  0  0  0  0  0  0  0  0  0  0
   58.7220   34.5980   47.1530 C   0  0  0  0  0  0  0  0  0  0  0  0
   59.2330   35.0340   45.9090 O   0  0  0  0  0  0  0  0  0  0  0  0
   58.4120   34.5620   44.8560 C   0  0  0  0  0  0  0  0  0  0  0  0
   57.2121   30.4665   42.9064 H   0  0  0  0  0  0  0  0  0  0  0  0
   57.6092   32.9267   42.8147 H   0  0  0  0  0  0  0  0  0  0  0  0
   58.3738   30.4205   47.0733 H   0  0  0  0  0  0  0  0  0  0  0  0
   58.4195   32.7298   48.2109 H   0  0  0  0  0  0  0  0  0  0  0  0
   60.7720   32.1050   46.8260 H   0  0  0  0  0  0  0  0  0  0  0  0
   60.5490   32.3130   48.4610 H   0  0  0  0  0  0  0  0  0  0  0  0
   61.9568   33.9238   46.6898 H   0  0  0  0  0  0  0  0  0  0  0  0
   60.5819   34.8620   47.4292 H   0  0  0  0  0  0  0  0  0  0  0  0
   62.1345   35.2417   49.0632 H   0  0  0  0  0  0  0  0  0  0  0  0
   61.5200   33.6449   49.6446 H   0  0  0  0  0  0  0  0  0  0  0  0
   63.0989   33.7118   46.6205 H   0  0  0  0  0  0  0  0  0  0  0  0
   64.7769   33.2530   47.1529 H   0  0  0  0  0  0  0  0  0  0  0  0
   63.0294   31.4660   46.0987 H   0  0  0  0  0  0  0  0  0  0  0  0
   64.2755   31.0362   47.3314 H   0  0  0  0  0  0  0  0  0  0  0  0
   61.9822   31.1813   50.0410 H   0  0  0  0  0  0  0  0  0  0  0  0
   63.5195   30.3835   49.4691 H   0  0  0  0  0  0  0  0  0  0  0  0
   63.3548   32.8760   50.6857 H   0  0  0  0  0  0  0  0  0  0  0  0
   64.7186   32.2626   49.6594 H   0  0  0  0  0  0  0  0  0  0  0  0
   57.6423   34.8040   47.1956 H   0  0  0  0  0  0  0  0  0  0  0  0
   59.2368   35.1355   47.9630 H   0  0  0  0  0  0  0  0  0  0  0  0
   57.4217   35.0331   44.9417 H   0  0  0  0  0  0  0  0  0  0  0  0
   58.9013   34.8230   43.9060 H   0  0  0  0  0  0  0  0  0  0  0  0
  1  2  1  0
  2  3  2  0
  3  4  1  0
  4  5  2  0
  5  6  1  0
  6  7  2  0
  6  8  1  0
  8  9  1  0
  9 10  1  0
 10 11  1  0
 11 12  1  0
 12 13  1  0
 13 14  1  0
 14 15  1  0
 15 16  1  0
 16 17  1  0
  8 18  1  0
 18 19  1  0
 19 20  1  0
  7  2  1  0
 17 12  1  0
 20  5  1  0
  3 21  1  0
  4 22  1  0
  7 23  1  0
  8 24  1  1
  9 25  1  0
  9 26  1  0
 10 27  1  0
 10 28  1  0
 11 29  1  0
 11 30  1  0
 13 31  1  0
 13 32  1  0
 14 33  1  0
 14 34  1  0
 16 35  1  0
 16 36  1  0
 17 37  1  0
 17 38  1  0
 18 39  1  0
 18 40  1  0
 20 41  1  0
 20 42  1  0
M  CHG  1   9   1
M  END
>  <UniqueID>  (23) 
21

>  <SMILES>  (23) 
Clc1ccc2c(c1)[C@@H]([NH2+]CCN1CCOCC1)COC2

>  <Energy>  (23) 
62.89092425738629

>  <Genealogy>  (23) 
Clc1ccc2c(c1)C([NH2+]CCN1CCOCC1)COC2 (protonated)
Clc1ccc2c(c1)[C@@H]([NH2+]CCN1CCOCC1)COC2 (chirality)
Clc1ccc2c(c1)[C@@H]([NH2+]CCN1CCOCC1)COC2 (3D coordinates assigned)
Clc1ccc2c(c1)[C@@H]([NH2+]CCN1CCOCC1)COC2 (nonaromatic ring conformer: 62.89092425738629 kcal/mol)

>  <smiles>  (23) 
Clc1ccc2c(c1)C(NCCN1CCOCC1)COC2

>  <score_type>  (23) 
oracle

>  <origin>  (23) 
adg

>  <m_score__min__energy>  (23) 
-4.9299999999999997

>  <m_primary>  (23) 
energy

$$$$
23:0
     RDKit          3D

 52 54  0  0  0  0  0  0  0  0999 V2000
   56.6600   22.0500   43.4620 C   0  0  0  0  0  0  0  0  0  0  0  0
   55.9100   23.3450   43.1730 C   0  0  0  0  0  0  0  0  0  0  0  0
   55.3290   23.8930   44.4060 N   0  0  0  0  0  0  0  0  0  0  0  0
   53.9850   23.4680   44.8220 C   0  0  0  0  0  0  0  0  0  0  0  0
   54.0080   22.9960   46.2730 C   0  0  0  0  0  0  0  0  0  0  0  0
   56.1250   24.7530   45.2500 C   0  0  0  0  0  0  0  0  0  0  0  0
   55.5930   25.7290   46.0220 N   0  0  0  0  0  0  0  0  0  0  0  0
   56.5460   26.4090   46.7110 C   0  0  0  0  0  0  0  0  0  0  0  0
   57.8500   25.9830   46.4780 C   0  0  0  0  0  0  0  0  0  0  0  0
   59.0730   26.5400   47.1390 C   0  0  0  0  0  0  0  0  0  0  0  0
   60.1830   26.6550   46.1770 N   0  0  0  0  0  0  0  0  0  0  0  0
   60.3670   28.0420   45.7120 C   0  0  0  0  0  0  0  0  0  0  0  0
   59.1100   28.5830   45.0690 C   0  0  0  0  0  0  0  0  0  0  0  0
   58.5040   27.8840   44.0110 C   0  0  0  0  0  0  0  0  0  0  0  0
   57.3960   28.4240   43.3510 C   0  0  0  0  0  0  0  0  0  0  0  0
   56.8840   29.6640   43.7440 C   0  0  0  0  0  0  0  0  0  0  0  0
   57.4580   30.3620   44.8130 C   0  0  0  0  0  0  0  0  0  0  0  0
   56.9320   31.6130   45.1650 O   0  0  0  0  0  0  0  0  0  0  0  0
   57.7040   32.7360   45.4960 C   0  0  0  0  0  0  0  0  0  0  0  0
   58.3560   33.4970   44.5010 C   0  0  0  0  0  0  0  0  0  0  0  0
   59.1420   34.5960   44.8640 C   0  0  0  0  0  0  0  0  0  0  0  0
   59.2750   34.9470   46.2100 C   0  0  0  0  0  0  0  0  0  0  0  0
   58.6310   34.1900   47.1970 C   0  0  0  0  0  0  0  0  0  0  0  0
   57.8570   33.0810   46.8440 C   0  0  0  0  0  0  0  0  0  0  0  0
   58.5730   29.8180   45.4720 C   0  0  0  0  0  0  0  0  0  0  0  0
   57.8080   24.6930   45.4020 S   0  0  0  0  0  0  0  0  0  0  0  0
   56.7419   21.9086   44.5498 H   0  0  0  0  0  0  0  0  0  0  0  0
   56.1125   21.2033   43.0224 H   0  0  0  0  0  0  0  0  0  0  0  0
   57.6669   22.1035   43.0224 H   0  0  0  0  0  0  0  0  0  0  0  0
   56.6084   24.0793   42.7451 H   0  0  0  0  0  0  0  0  0  0  0  0
   55.0977   23.1330   42.4623 H   0  0  0  0  0  0  0  0  0  0  0  0
   53.2900   24.3152   44.7263 H   0  0  0  0  0  0  0  0  0  0  0  0
   53.6556   22.6382   44.1794 H   0  0  0  0  0  0  0  0  0  0  0  0
   53.9655   23.8675   46.9428 H   0  0  0  0  0  0  0  0  0  0  0  0
   53.1404   22.3464   46.4611 H   0  0  0  0  0  0  0  0  0  0  0  0
   54.9346   22.4338   46.4611 H   0  0  0  0  0  0  0  0  0  0  0  0
   56.3055   27.2324   47.3996 H   0  0  0  0  0  0  0  0  0  0  0  0
   58.8419   27.5365   47.5434 H   0  0  0  0  0  0  0  0  0  0  0  0
   59.3771   25.8590   47.9475 H   0  0  0  0  0  0  0  0  0  0  0  0
   61.0750   26.3010   46.5970 H   0  0  0  0  0  0  0  0  0  0  0  0
   59.9650   26.0550   45.3460 H   0  0  0  0  0  0  0  0  0  0  0  0
   60.6294   28.6754   46.5722 H   0  0  0  0  0  0  0  0  0  0  0  0
   61.1698   28.0499   44.9601 H   0  0  0  0  0  0  0  0  0  0  0  0
   58.9034   26.9072   43.7006 H   0  0  0  0  0  0  0  0  0  0  0  0
   56.9271   27.8730   42.5224 H   0  0  0  0  0  0  0  0  0  0  0  0
   56.0242   30.0942   43.2095 H   0  0  0  0  0  0  0  0  0  0  0  0
   58.2459   33.2257   43.4407 H   0  0  0  0  0  0  0  0  0  0  0  0
   59.6557   35.1842   44.0893 H   0  0  0  0  0  0  0  0  0  0  0  0
   59.8850   35.8171   46.4942 H   0  0  0  0  0  0  0  0  0  0  0  0
   58.7350   34.4698   48.2557 H   0  0  0  0  0  0  0  0  0  0  0  0
   57.3684   32.4797   47.6249 H   0  0  0  0  0  0  0  0  0  0  0  0
   59.0300   30.3633   46.3109 H   0  0  0  0  0  0  0  0  0  0  0  0
  1  2  1  0
  2  3  1  0
  3  4  1  0
  4  5  1  0
  3  6  1  0
  6  7  2  0
  7  8  1  0
  8  9  2  0
  9 10  1  0
 10 11  1  0
 11 12  1  0
 12 13  1  0
 13 14  2  0
 14 15  1  0
 15 16  2  0
 16 17  1  0
 17 18  1  0
 18 19  1  0
 19 20  2  0
 20 21  1  0
 21 22  2  0
 22 23  1  0
 23 24  2  0
 17 25  2  0
  9 26  1  0
 26  6  1  0
 25 13  1  0
 24 19  1  0
  1 27  1  0
  1 28  1  0
  1 29  1  0
  2 30  1  0
  2 31  1  0
  4 32  1  0
  4 33  1  0
  5 34  1  0
  5 35  1  0
  5 36  1  0
  8 37  1  0
 10 38  1  0
 10 39  1  0
 11 40  1  0
 11 41  1  0
 12 42  1  0
 12 43  1  0
 14 44  1  0
 15 45  1  0
 16 46  1  0
 20 47  1  0
 21 48  1  0
 22 49  1  0
 23 50  1  0
 24 51  1  0
 25 52  1  0
M  CHG  1  11   1
M  END
>  <UniqueID>  (24) 
22

>  <SMILES>  (24) 
CCN(CC)c1ncc(C[NH2+]Cc2cccc(Oc3ccccc3)c2)s1

>  <Energy>  (24) 
82.717062119727

>  <Genealogy>  (24) 
CCN(CC)c1ncc(C[NH2+]Cc2cccc(Oc3ccccc3)c2)s1 (protonated)
CCN(CC)c1ncc(C[NH2+]Cc2cccc(Oc3ccccc3)c2)s1 (3D coordinates assigned)
CCN(CC)c1ncc(C[NH2+]Cc2cccc(Oc3ccccc3)c2)s1 (optimized conformer: 82.717062119727 kcal/mol)

>  <smiles>  (24) 
CCN(CC)c1ncc(CNCc2cccc(Oc3ccccc3)c2)s1

>  <score_type>  (24) 
oracle

>  <origin>  (24) 
adg

>  <m_score__min__energy>  (24) 
-6.0499999999999998

>  <m_primary>  (24) 
energy

$$$$
24:0
     RDKit          3D

 31 32  0  0  0  0  0  0  0  0999 V2000
   55.1450   29.3190   44.8710 O   0  0  0  0  0  0  0  0  0  0  0  0
   56.2810   29.8560   44.8180 C   0  0  0  0  0  0  0  0  0  0  0  0
   57.3980   29.0890   44.8940 N   0  0  0  0  0  0  0  0  0  0  0  0
   58.6240   29.6690   44.8370 C   0  0  0  0  0  0  0  0  0  0  0  0
   60.0970   28.6500   44.8980 S   0  0  0  0  0  0  0  0  0  0  0  0
   60.3220   28.7700   46.7090 C   0  0  0  0  0  0  0  0  0  0  0  0
   59.8800   30.1260   47.2560 C   0  0  0  0  0  0  0  0  0  0  0  0
   58.5070   30.1180   47.5240 O   0  0  0  0  0  0  0  0  0  0  0  0
   58.7330   31.0140   44.7020 N   0  0  0  0  0  0  0  0  0  0  0  0
   57.6160   31.7810   44.6320 C   0  0  0  0  0  0  0  0  0  0  0  0
   57.7640   33.5580   44.4750 S   0  0  0  0  0  0  0  0  0  0  0  0
   57.7490   33.8800   46.2740 C   0  0  0  0  0  0  0  0  0  0  0  0
   59.1360   33.8690   46.8570 C   0  0  0  0  0  0  0  0  0  0  0  0
   60.2620   33.8660   46.0160 C   0  0  0  0  0  0  0  0  0  0  0  0
   61.5490   33.8320   46.5630 C   0  0  0  0  0  0  0  0  0  0  0  0
   61.7210   33.8180   47.9490 C   0  0  0  0  0  0  0  0  0  0  0  0
   60.6050   33.8320   48.7920 C   0  0  0  0  0  0  0  0  0  0  0  0
   59.3170   33.8550   48.2490 C   0  0  0  0  0  0  0  0  0  0  0  0
   56.3900   31.2020   44.6830 N   0  0  0  0  0  0  0  0  0  0  0  0
   59.7270   27.9816   47.1931 H   0  0  0  0  0  0  0  0  0  0  0  0
   61.3941   28.6515   46.9250 H   0  0  0  0  0  0  0  0  0  0  0  0
   60.4296   30.3392   48.1847 H   0  0  0  0  0  0  0  0  0  0  0  0
   60.0932   30.9011   46.5052 H   0  0  0  0  0  0  0  0  0  0  0  0
   58.0550   30.2890   46.6560 H   0  0  0  0  0  0  0  0  0  0  0  0
   57.2948   34.8653   46.4552 H   0  0  0  0  0  0  0  0  0  0  0  0
   57.1689   33.0810   46.7587 H   0  0  0  0  0  0  0  0  0  0  0  0
   60.1308   33.8905   44.9241 H   0  0  0  0  0  0  0  0  0  0  0  0
   62.4270   33.8163   45.9005 H   0  0  0  0  0  0  0  0  0  0  0  0
   62.7339   33.7960   48.3775 H   0  0  0  0  0  0  0  0  0  0  0  0
   60.7409   33.8249   49.8835 H   0  0  0  0  0  0  0  0  0  0  0  0
   58.4418   33.8622   48.9152 H   0  0  0  0  0  0  0  0  0  0  0  0
  1  2  2  0
  2  3  1  0
  3  4  2  0
  4  5  1  0
  5  6  1  0
  6  7  1  0
  7  8  1  0
  4  9  1  0
  9 10  1  0
 10 11  1  0
 11 12  1  0
 12 13  1  0
 13 14  2  0
 14 15  1  0
 15 16  2  0
 16 17  1  0
 17 18  2  0
 10 19  2  0
 19  2  1  0
 18 13  1  0
  6 20  1  0
  6 21  1  0
  7 22  1  0
  7 23  1  0
  8 24  1  0
 12 25  1  0
 12 26  1  0
 14 27  1  0
 15 28  1  0
 16 29  1  0
 17 30  1  0
 18 31  1  0
M  CHG  1   9  -1
M  END
>  <UniqueID>  (25) 
23

>  <SMILES>  (25) 
O=c1nc(SCCO)[n-]c(SCc2ccccc2)n1

>  <Energy>  (25) 
20.498205061147363

>  <Genealogy>  (25) 
O=c1nc(SCCO)[n-]c(SCc2ccccc2)n1 (protonated)
O=c1nc(SCCO)[n-]c(SCc2ccccc2)n1 (3D coordinates assigned)
O=c1nc(SCCO)[n-]c(SCc2ccccc2)n1 (optimized conformer: 20.498205061147363 kcal/mol)

>  <smiles>  (25) 
O=c1nc(SCCO)[nH]c(SCc2ccccc2)n1

>  <score_type>  (25) 
oracle

>  <origin>  (25) 
adg

>  <m_score__min__energy>  (25) 
-8.6999999999999993

>  <m_primary>  (25) 
energy

$$$$
25:0
     RDKit          3D

 34 34  0  0  0  0  0  0  0  0999 V2000
   60.8270   28.5920   44.9010 C   0  0  0  0  0  0  0  0  0  0  0  0
   59.3780   28.9040   45.3000 C   0  0  0  0  0  0  0  0  0  0  0  0
   58.3960   28.7390   44.2050 N   0  0  0  0  0  0  0  0  0  0  0  0
   57.9150   27.3490   44.0710 C   0  0  0  0  0  0  0  0  0  0  0  0
   58.1360   26.8370   42.6510 C   0  0  0  0  0  0  0  0  0  0  0  0
   57.0750   29.8890   44.3080 S   0  0  0  0  0  0  0  0  0  0  0  0
   56.0160   29.3820   45.2470 O   0  0  0  0  0  0  0  0  0  0  0  0
   56.4530   30.0590   42.9510 O   0  0  0  0  0  0  0  0  0  0  0  0
   57.6780   31.4760   44.8160 C   0  0  0  0  0  0  0  0  0  0  0  0
   58.0560   31.6360   46.1580 C   0  0  0  0  0  0  0  0  0  0  0  0
   58.5230   32.8680   46.6250 C   0  0  0  0  0  0  0  0  0  0  0  0
   58.9040   33.0200   48.0040 C   0  0  0  0  0  0  0  0  0  0  0  0
   59.2120   33.1420   49.1140 N   0  0  0  0  0  0  0  0  0  0  0  0
   58.6150   33.9530   45.7490 C   0  0  0  0  0  0  0  0  0  0  0  0
   58.2410   33.8080   44.4120 C   0  0  0  0  0  0  0  0  0  0  0  0
   57.7690   32.5700   43.9280 C   0  0  0  0  0  0  0  0  0  0  0  0
   57.3870   32.4070   42.5880 O   0  0  0  0  0  0  0  0  0  0  0  0
   58.2910   32.3210   41.4910 C   0  0  0  0  0  0  0  0  0  0  0  0
   61.4367   28.4607   45.8071 H   0  0  0  0  0  0  0  0  0  0  0  0
   60.8523   27.6678   44.3050 H   0  0  0  0  0  0  0  0  0  0  0  0
   61.2304   29.4239   44.3050 H   0  0  0  0  0  0  0  0  0  0  0  0
   59.0942   28.2301   46.1218 H   0  0  0  0  0  0  0  0  0  0  0  0
   59.3523   29.9650   45.5891 H   0  0  0  0  0  0  0  0  0  0  0  0
   58.4640   26.7073   44.7759 H   0  0  0  0  0  0  0  0  0  0  0  0
   56.8378   27.3244   44.2924 H   0  0  0  0  0  0  0  0  0  0  0  0
   58.5717   25.8277   42.6888 H   0  0  0  0  0  0  0  0  0  0  0  0
   57.1732   26.8011   42.1202 H   0  0  0  0  0  0  0  0  0  0  0  0
   58.8224   27.5130   42.1202 H   0  0  0  0  0  0  0  0  0  0  0  0
   57.9841   30.7834   46.8493 H   0  0  0  0  0  0  0  0  0  0  0  0
   58.9829   34.9233   46.1139 H   0  0  0  0  0  0  0  0  0  0  0  0
   58.3151   34.6673   43.7293 H   0  0  0  0  0  0  0  0  0  0  0  0
   59.3191   32.2232   41.8699 H   0  0  0  0  0  0  0  0  0  0  0  0
   58.0410   31.4426   40.8779 H   0  0  0  0  0  0  0  0  0  0  0  0
   58.2112   33.2308   40.8779 H   0  0  0  0  0  0  0  0  0  0  0  0
  1  2  1  0
  2  3  1  0
  3  4  1  0
  4  5  1  0
  3  6  1  0
  6  7  2  0
  6  8  2  0
  6  9  1  0
  9 10  2  0
 10 11  1  0
 11 12  1  0
 12 13  3  0
 11 14  2  0
 14 15  1  0
 15 16  2  0
 16 17  1  0
 17 18  1  0
 16  9  1  0
  1 19  1  0
  1 20  1  0
  1 21  1  0
  2 22  1  0
  2 23  1  0
  4 24  1  0
  4 25  1  0
  5 26  1  0
  5 27  1  0
  5 28  1  0
 10 29  1  0
 14 30  1  0
 15 31  1  0
 18 32  1  0
 18 33  1  0
 18 34  1  0
M  END
>  <UniqueID>  (26) 
24

>  <SMILES>  (26) 
CCN(CC)S(=O)(=O)c1cc(C#N)ccc1OC

>  <Energy>  (26) 
31.20997741092243

>  <Genealogy>  (26) 
CCN(CC)S(=O)(=O)c1cc(C#N)ccc1OC (3D coordinates assigned)
CCN(CC)S(=O)(=O)c1cc(C#N)ccc1OC (optimized conformer: 31.20997741092243 kcal/mol)

>  <smiles>  (26) 
CCN(CC)S(=O)(=O)c1cc(C#N)ccc1OC

>  <score_type>  (26) 
oracle

>  <origin>  (26) 
adg

>  <m_score__min__energy>  (26) 
-6.1600000000000001

>  <m_primary>  (26) 
energy

$$$$
26:0
     RDKit          3D

 29 30  0  0  0  0  0  0  0  0999 V2000
   58.8511   31.5859   46.7612 H   0  0  0  0  0  0  0  0  0  0  0  0
   58.5490   30.6390   46.2900 C   0  0  0  0  0  0  0  0  0  0  0  0
   58.9550   29.5030   46.8710 C   0  0  0  0  0  0  0  0  0  0  0  0
   58.2580   28.2670   46.7290 N   0  0  0  0  0  0  0  0  0  0  0  0
   58.8970   27.3850   47.4400 C   0  0  0  0  0  0  0  0  0  0  0  0
   58.3380   25.6840   47.5640 S   0  0  0  0  0  0  0  0  0  0  0  0
   57.5850   25.6550   45.9010 C   0  0  0  0  0  0  0  0  0  0  0  0
   58.2374   26.1957   45.1996 H   0  0  0  0  0  0  0  0  0  0  0  0
   57.4682   24.6083   45.5835 H   0  0  0  0  0  0  0  0  0  0  0  0
   56.2370   26.3060   45.9200 C   0  0  0  0  0  0  0  0  0  0  0  0
   55.2380   25.6670   46.3470 O   0  0  0  0  0  0  0  0  0  0  0  0
   56.0820   27.6550   45.4850 N   0  0  0  0  0  0  0  0  0  0  0  0
   55.1440   28.1140   45.5130 H   0  0  0  0  0  0  0  0  0  0  0  0
   56.9030   28.2020   45.1430 H   0  0  0  0  0  0  0  0  0  0  0  0
   60.0570   27.8860   48.1170 N   0  0  0  0  0  0  0  0  0  0  0  0
   60.6680   27.3040   49.3060 C   0  0  0  0  0  0  0  0  0  0  0  0
   60.2093   27.7410   50.2052 H   0  0  0  0  0  0  0  0  0  0  0  0
   60.5084   26.2156   49.3049 H   0  0  0  0  0  0  0  0  0  0  0  0
   61.7473   27.5163   49.3049 H   0  0  0  0  0  0  0  0  0  0  0  0
   60.0570   29.2640   47.7870 C   0  0  0  0  0  0  0  0  0  0  0  0
   60.7950   30.1250   48.3370 O   0  0  0  0  0  0  0  0  0  0  0  0
   57.7300   30.7190   45.0700 C   0  0  0  0  0  0  0  0  0  0  0  0
   56.5540   30.1440   44.9580 O   0  0  0  0  0  0  0  0  0  0  0  0
   56.0970   30.3520   43.7440 C   0  0  0  0  0  0  0  0  0  0  0  0
   55.1292   29.9955   43.3617 H   0  0  0  0  0  0  0  0  0  0  0  0
   57.0160   31.0860   43.0210 C   0  0  0  0  0  0  0  0  0  0  0  0
   56.9223   31.4183   41.9766 H   0  0  0  0  0  0  0  0  0  0  0  0
   58.0740   31.3180   43.8720 C   0  0  0  0  0  0  0  0  0  0  0  0
   59.0005   31.8661   43.6456 H   0  0  0  0  0  0  0  0  0  0  0  0
  1  2  1  0
  2  3  2  0
  3  4  1  0
  4  5  2  0
  5  6  1  0
  6  7  1  0
  7  8  1  0
  7  9  1  0
  7 10  1  0
 10 11  2  0
 10 12  1  0
 12 13  1  0
 12 14  1  0
  5 15  1  0
 15 16  1  0
 16 17  1  0
 16 18  1  0
 16 19  1  0
 15 20  1  0
 20 21  2  0
  2 22  1  0
 22 23  1  0
 23 24  1  0
 24 25  1  0
 24 26  2  0
 26 27  1  0
 26 28  1  0
 28 29  1  0
 20  3  1  0
 28 22  2  0
M  END
>  <UniqueID>  (27) 
25

>  <SMILES>  (27) 
CN1C(=O)/C(=C\c2ccco2)N=C1SCC(N)=O

>  <Energy>  (27) 
81.36461146013013

>  <Genealogy>  (27) 
CN1C(=O)/C(=C\c2ccco2)N=C1SCC(N)=O (cis-trans isomerization)
CN1C(=O)/C(=C\c2ccco2)N=C1SCC(N)=O (3D coordinates assigned)
CN1C(=O)/C(=C\c2ccco2)N=C1SCC(N)=O (nonaromatic ring conformer: 81.36461146013013 kcal/mol)

>  <smiles>  (27) 
CN1C(=O)C(=Cc2ccco2)N=C1SCC(N)=O

>  <score_type>  (27) 
oracle

>  <origin>  (27) 
adg

>  <m_score__min__energy>  (27) 
-7.0599999999999996

>  <m_primary>  (27) 
energy

$$$$
27:0
     RDKit          3D

 42 44  0  0  0  0  0  0  0  0999 V2000
   63.1090   33.7640   47.5770 C   0  0  0  0  0  0  0  0  0  0  0  0
   62.1690   33.7260   46.3770 C   0  0  0  0  0  0  0  0  0  0  0  0
   61.3280   34.8780   46.3620 O   0  0  0  0  0  0  0  0  0  0  0  0
   59.9310   34.8150   46.4300 C   0  0  0  0  0  0  0  0  0  0  0  0
   59.2810   35.7140   47.0290 O   0  0  0  0  0  0  0  0  0  0  0  0
   59.2320   33.6780   45.8070 C   0  0  0  0  0  0  0  0  0  0  0  0
   58.7700   33.6330   44.5060 C   0  0  0  0  0  0  0  0  0  0  0  0
   58.2790   32.4060   44.2460 N   0  0  0  0  0  0  0  0  0  0  0  0
   58.4030   31.6720   45.3410 N   0  0  0  0  0  0  0  0  0  0  0  0
   57.9560   30.3070   45.4160 C   0  0  0  0  0  0  0  0  0  0  0  0
   56.7250   29.9160   44.8610 C   0  0  0  0  0  0  0  0  0  0  0  0
   56.3030   28.5870   44.9440 C   0  0  0  0  0  0  0  0  0  0  0  0
   57.1110   27.6270   45.5650 C   0  0  0  0  0  0  0  0  0  0  0  0
   56.5690   25.9570   45.6880 S   0  0  0  0  0  0  0  0  0  0  0  0
   54.8660   25.9230   45.9790 N   0  0  0  0  0  0  0  0  0  0  0  0
   56.8710   25.2280   44.4100 O   0  0  0  0  0  0  0  0  0  0  0  0
   57.2850   25.2700   46.8160 O   0  0  0  0  0  0  0  0  0  0  0  0
   58.3460   28.0080   46.1070 C   0  0  0  0  0  0  0  0  0  0  0  0
   58.7690   29.3380   46.0240 C   0  0  0  0  0  0  0  0  0  0  0  0
   58.9840   32.4100   46.3170 C   0  0  0  0  0  0  0  0  0  0  0  0
   59.3630   31.9040   47.6530 C   0  0  0  0  0  0  0  0  0  0  0  0
   60.5800   31.2280   47.8360 C   0  0  0  0  0  0  0  0  0  0  0  0
   60.9500   30.7810   49.1080 C   0  0  0  0  0  0  0  0  0  0  0  0
   60.1140   31.0110   50.2040 C   0  0  0  0  0  0  0  0  0  0  0  0
   58.9030   31.6910   50.0300 C   0  0  0  0  0  0  0  0  0  0  0  0
   57.7670   32.0180   51.5280 Br  0  0  0  0  0  0  0  0  0  0  0  0
   58.5280   32.1350   48.7580 C   0  0  0  0  0  0  0  0  0  0  0  0
   62.5195   33.7402   48.5054 H   0  0  0  0  0  0  0  0  0  0  0  0
   63.7791   32.8922   47.5456 H   0  0  0  0  0  0  0  0  0  0  0  0
   63.7065   34.6870   47.5456 H   0  0  0  0  0  0  0  0  0  0  0  0
   62.7641   33.7006   45.4522 H   0  0  0  0  0  0  0  0  0  0  0  0
   61.5386   32.8274   46.4483 H   0  0  0  0  0  0  0  0  0  0  0  0
   58.7987   34.4698   43.7926 H   0  0  0  0  0  0  0  0  0  0  0  0
   56.0905   30.6609   44.3585 H   0  0  0  0  0  0  0  0  0  0  0  0
   55.3316   28.2934   44.5196 H   0  0  0  0  0  0  0  0  0  0  0  0
   54.6090   26.8500   46.3900 H   0  0  0  0  0  0  0  0  0  0  0  0
   58.9840   27.2589   46.5988 H   0  0  0  0  0  0  0  0  0  0  0  0
   59.7462   29.6270   46.4383 H   0  0  0  0  0  0  0  0  0  0  0  0
   61.2435   31.0498   46.9770 H   0  0  0  0  0  0  0  0  0  0  0  0
   61.9016   30.2469   49.2465 H   0  0  0  0  0  0  0  0  0  0  0  0
   60.4077   30.6576   51.2034 H   0  0  0  0  0  0  0  0  0  0  0  0
   57.5750   32.6674   48.6226 H   0  0  0  0  0  0  0  0  0  0  0  0
  1  2  1  0
  2  3  1  0
  3  4  1  0
  4  5  2  0
  4  6  1  0
  6  7  1  0
  7  8  2  0
  8  9  1  0
  9 10  1  0
 10 11  2  0
 11 12  1  0
 12 13  2  0
 13 14  1  0
 14 15  1  0
 14 16  2  0
 14 17  2  0
 13 18  1  0
 18 19  2  0
  9 20  1  0
 20 21  1  0
 21 22  2  0
 22 23  1  0
 23 24  2  0
 24 25  1  0
 25 26  1  0
 25 27  2  0
 20  6  2  0
 27 21  1  0
 19 10  1  0
  1 28  1  0
  1 29  1  0
  1 30  1  0
  2 31  1  0
  2 32  1  0
  7 33  1  0
 11 34  1  0
 12 35  1  0
 15 36  1  0
 18 37  1  0
 19 38  1  0
 22 39  1  0
 23 40  1  0
 24 41  1  0
 27 42  1  0
M  CHG  1  15  -1
M  END
>  <UniqueID>  (28) 
26

>  <SMILES>  (28) 
CCOC(=O)c1cnn(-c2ccc(S([NH-])(=O)=O)cc2)c1-c1cccc(Br)c1

>  <Energy>  (28) 
80.3001963715891

>  <Genealogy>  (28) 
CCOC(=O)c1cnn(-c2ccc(S([NH-])(=O)=O)cc2)c1-c1cccc(Br)c1 (protonated)
CCOC(=O)c1cnn(-c2ccc(S([NH-])(=O)=O)cc2)c1-c1cccc(Br)c1 (3D coordinates assigned)
CCOC(=O)c1cnn(-c2ccc(S([NH-])(=O)=O)cc2)c1-c1cccc(Br)c1 (optimized conformer: 80.3001963715891 kcal/mol)

>  <smiles>  (28) 
CCOC(=O)c1cnn(-c2ccc(S(N)(=O)=O)cc2)c1-c1cccc(Br)c1

>  <score_type>  (28) 
oracle

>  <origin>  (28) 
adg

>  <m_score__min__energy>  (28) 
-11.24

>  <m_primary>  (28) 
energy

$$$$
28:0
     RDKit          3D

 45 47  0  0  0  0  0  0  0  0999 V2000
   61.3420   34.1190   48.9810 C   0  0  0  0  0  0  0  0  0  0  0  0
   61.9450   33.4800   47.7220 C   0  0  0  0  0  0  0  0  0  0  0  0
   63.4070   33.9270   47.5660 C   0  0  0  0  0  0  0  0  0  0  0  0
   61.2310   33.9450   46.5790 O   0  0  0  0  0  0  0  0  0  0  0  0
   60.0320   33.3810   46.1470 C   0  0  0  0  0  0  0  0  0  0  0  0
   59.2020   34.1330   45.3130 C   0  0  0  0  0  0  0  0  0  0  0  0
   57.9980   33.6050   44.8520 C   0  0  0  0  0  0  0  0  0  0  0  0
   57.6170   32.3010   45.2070 C   0  0  0  0  0  0  0  0  0  0  0  0
   56.4450   31.6970   44.7280 O   0  0  0  0  0  0  0  0  0  0  0  0
   56.3890   30.4990   43.9490 C   0  0  0  0  0  0  0  0  0  0  0  0
   55.8110   29.3360   44.7640 C   0  0  0  0  0  0  0  0  0  0  0  0
   56.8350   28.3430   45.0800 N   0  0  0  0  0  0  0  0  0  0  0  0
   58.4670   28.5150   44.8360 S   0  0  0  0  0  0  0  0  0  0  0  0
   58.9990   27.0640   45.4780 C   0  0  0  0  0  0  0  0  0  0  0  0
   57.8500   26.4030   45.9080 C   0  0  0  0  0  0  0  0  0  0  0  0
   56.6670   27.1320   45.6740 C   0  0  0  0  0  0  0  0  0  0  0  0
   55.5320   26.6940   46.0000 O   0  0  0  0  0  0  0  0  0  0  0  0
   58.4410   31.5580   46.0610 C   0  0  0  0  0  0  0  0  0  0  0  0
   59.6660   32.0770   46.5320 C   0  0  0  0  0  0  0  0  0  0  0  0
   60.6310   31.1960   47.3320 C   0  0  0  0  0  0  0  0  0  0  0  0
   61.1220   30.0530   46.4170 C   0  0  0  0  0  0  0  0  0  0  0  0
   59.9100   30.6040   48.5630 C   0  0  0  0  0  0  0  0  0  0  0  0
   61.8510   31.9680   47.8310 C   0  0  0  0  0  0  0  0  0  0  0  0
   62.7400   31.3580   48.4140 O   0  0  0  0  0  0  0  0  0  0  0  0
   61.7817   33.6531   49.8752 H   0  0  0  0  0  0  0  0  0  0  0  0
   61.5594   35.1973   48.9849 H   0  0  0  0  0  0  0  0  0  0  0  0
   60.2529   33.9645   48.9849 H   0  0  0  0  0  0  0  0  0  0  0  0
   63.8565   34.0644   48.5605 H   0  0  0  0  0  0  0  0  0  0  0  0
   63.9681   33.1594   47.0129 H   0  0  0  0  0  0  0  0  0  0  0  0
   63.4429   34.8772   47.0129 H   0  0  0  0  0  0  0  0  0  0  0  0
   59.5010   35.1496   45.0179 H   0  0  0  0  0  0  0  0  0  0  0  0
   57.3440   34.2114   44.2081 H   0  0  0  0  0  0  0  0  0  0  0  0
   55.7521   30.6723   43.0691 H   0  0  0  0  0  0  0  0  0  0  0  0
   57.4114   30.2350   43.6409 H   0  0  0  0  0  0  0  0  0  0  0  0
   55.3933   29.7298   45.7023 H   0  0  0  0  0  0  0  0  0  0  0  0
   55.0302   28.8474   44.1626 H   0  0  0  0  0  0  0  0  0  0  0  0
   60.0372   26.7071   45.5462 H   0  0  0  0  0  0  0  0  0  0  0  0
   57.8650   25.4109   46.3828 H   0  0  0  0  0  0  0  0  0  0  0  0
   58.1275   30.5502   46.3709 H   0  0  0  0  0  0  0  0  0  0  0  0
   61.4811   29.2170   47.0352 H   0  0  0  0  0  0  0  0  0  0  0  0
   60.2921   29.7094   45.7820 H   0  0  0  0  0  0  0  0  0  0  0  0
   61.9425   30.4184   45.7820 H   0  0  0  0  0  0  0  0  0  0  0  0
   60.3776   30.9880   49.4816 H   0  0  0  0  0  0  0  0  0  0  0  0
   58.8495   30.8953   48.5420 H   0  0  0  0  0  0  0  0  0  0  0  0
   59.9894   29.5071   48.5420 H   0  0  0  0  0  0  0  0  0  0  0  0
  1  2  1  0
  2  3  1  0
  2  4  1  0
  4  5  1  0
  5  6  2  0
  6  7  1  0
  7  8  2  0
  8  9  1  0
  9 10  1  0
 10 11  1  0
 11 12  1  0
 12 13  1  0
 13 14  1  0
 14 15  2  0
 15 16  1  0
 16 17  2  0
  8 18  1  0
 18 19  2  0
 19 20  1  0
 20 21  1  0
 20 22  1  0
 20 23  1  0
 23 24  2  0
 23  2  1  0
 19  5  1  0
 16 12  1  0
  1 25  1  0
  1 26  1  0
  1 27  1  0
  3 28  1  0
  3 29  1  0
  3 30  1  0
  6 31  1  0
  7 32  1  0
 10 33  1  0
 10 34  1  0
 11 35  1  0
 11 36  1  0
 14 37  1  0
 15 38  1  0
 18 39  1  0
 21 40  1  0
 21 41  1  0
 21 42  1  0
 22 43  1  0
 22 44  1  0
 22 45  1  0
M  END
>  <UniqueID>  (29) 
27

>  <SMILES>  (29) 
CC1(C)Oc2ccc(OCCn3sccc3=O)cc2C(C)(C)C1=O

>  <Energy>  (29) 
76.26207171033082

>  <Genealogy>  (29) 
CC1(C)Oc2ccc(OCCn3sccc3=O)cc2C(C)(C)C1=O (3D coordinates assigned)
CC1(C)Oc2ccc(OCCn3sccc3=O)cc2C(C)(C)C1=O (nonaromatic ring conformer: 76.26207171033082 kcal/mol)

>  <smiles>  (29) 
CC1(C)Oc2ccc(OCCn3sccc3=O)cc2C(C)(C)C1=O

>  <score_type>  (29) 
oracle

>  <origin>  (29) 
adg

>  <m_score__min__energy>  (29) 
-7.8600000000000003

>  <m_primary>  (29) 
energy

$$$$
29:0
     RDKit          3D

 84 88  0  0  0  0  0  0  0  0999 V2000
   60.9650   27.1920   49.9910 C   0  0  0  0  0  0  0  0  0  0  0  0
   60.1000   28.3590   50.4360 C   0  0  0  0  0  0  0  0  0  0  0  0
   59.9950   29.3110   49.3780 O   0  0  0  0  0  0  0  0  0  0  0  0
   60.9830   30.2540   49.0330 C   0  0  0  0  0  0  0  0  0  0  0  0
   62.0580   30.3940   49.9210 C   0  0  0  0  0  0  0  0  0  0  0  0
   63.0380   31.3680   49.7190 C   0  0  0  0  0  0  0  0  0  0  0  0
   64.0460   31.4780   50.5810 O   0  0  0  0  0  0  0  0  0  0  0  0
   65.0120   32.3890   50.4580 C   0  0  0  0  0  0  0  0  0  0  0  0
   66.1210   32.4010   51.4400 C   0  0  0  0  0  0  0  0  0  0  0  0
   67.1660   33.3380   51.3510 C   0  0  0  0  0  0  0  0  0  0  0  0
   68.2340   33.2900   52.2530 C   0  0  0  0  0  0  0  0  0  0  0  0
   68.2790   32.3020   53.2430 C   0  0  0  0  0  0  0  0  0  0  0  0
   69.3770   32.2500   54.0970 O   0  0  0  0  0  0  0  0  0  0  0  0
   67.2250   31.3760   53.3670 C   0  0  0  0  0  0  0  0  0  0  0  0
   67.2700   30.2670   54.3930 C   0  0  0  0  0  0  0  0  0  0  0  0
   67.0340   28.9300   53.7330 C   0  0  0  0  0  0  0  0  0  0  0  0
   67.7220   28.4940   52.6550 C   0  0  0  0  0  0  0  0  0  0  0  0
   69.1990   28.2230   52.8040 C   0  0  0  0  0  0  0  0  0  0  0  0
   67.0510   28.2700   51.3210 C   0  0  0  0  0  0  0  0  0  0  0  0
   66.1430   31.4450   52.4690 C   0  0  0  0  0  0  0  0  0  0  0  0
   64.9850   33.2870   49.3780 C   0  0  0  0  0  0  0  0  0  0  0  0
   63.9550   33.2000   48.4420 C   0  0  0  0  0  0  0  0  0  0  0  0
   63.9400   33.9910   47.4620 O   0  0  0  0  0  0  0  0  0  0  0  0
   62.9560   32.2260   48.6060 C   0  0  0  0  0  0  0  0  0  0  0  0
   61.9070   32.0660   47.6840 C   0  0  0  0  0  0  0  0  0  0  0  0
   60.9330   31.0720   47.8730 C   0  0  0  0  0  0  0  0  0  0  0  0
   59.9620   30.8350   46.7940 C   0  0  0  0  0  0  0  0  0  0  0  0
   59.0270   31.8180   46.4410 C   0  0  0  0  0  0  0  0  0  0  0  0
   58.0680   31.5250   45.4690 C   0  0  0  0  0  0  0  0  0  0  0  0
   57.2050   32.3990   45.1780 O   0  0  0  0  0  0  0  0  0  0  0  0
   58.0810   30.2630   44.8410 C   0  0  0  0  0  0  0  0  0  0  0  0
   57.1340   29.8760   43.8600 C   0  0  0  0  0  0  0  0  0  0  0  0
   56.1200   30.7470   43.4600 O   0  0  0  0  0  0  0  0  0  0  0  0
   57.2160   28.5990   43.2790 C   0  0  0  0  0  0  0  0  0  0  0  0
   58.2500   27.7210   43.6350 C   0  0  0  0  0  0  0  0  0  0  0  0
   58.4000   26.4800   43.0180 O   0  0  0  0  0  0  0  0  0  0  0  0
   57.3910   25.4800   42.9910 C   0  0  0  0  0  0  0  0  0  0  0  0
   57.2590   24.8600   44.3560 C   0  0  0  0  0  0  0  0  0  0  0  0
   58.2340   24.2150   44.8240 O   0  0  0  0  0  0  0  0  0  0  0  0
   56.0720   24.9890   45.1460 N   0  0  0  0  0  0  0  0  0  0  0  0
   55.7240   26.1110   46.0140 C   0  0  0  0  0  0  0  0  0  0  0  0
   56.9840   26.8450   46.4970 C   0  0  0  0  0  0  0  0  0  0  0  0
   58.0470   25.8920   46.8960 N   0  0  0  0  0  0  0  0  0  0  0  0
   59.1980   26.6170   47.4580 C   0  0  0  0  0  0  0  0  0  0  0  0
   57.5430   24.9320   47.8960 C   0  0  0  0  0  0  0  0  0  0  0  0
   59.1850   28.1040   44.5970 C   0  0  0  0  0  0  0  0  0  0  0  0
   59.0930   29.3500   45.2160 C   0  0  0  0  0  0  0  0  0  0  0  0
   59.9690   29.6630   46.1670 O   0  0  0  0  0  0  0  0  0  0  0  0
   61.3547   26.6663   50.8752 H   0  0  0  0  0  0  0  0  0  0  0  0
   60.3618   26.4975   49.3878 H   0  0  0  0  0  0  0  0  0  0  0  0
   61.8049   27.5672   49.3878 H   0  0  0  0  0  0  0  0  0  0  0  0
   59.0969   27.9915   50.6981 H   0  0  0  0  0  0  0  0  0  0  0  0
   60.5586   28.8386   51.3133 H   0  0  0  0  0  0  0  0  0  0  0  0
   62.1310   29.7256   50.7916 H   0  0  0  0  0  0  0  0  0  0  0  0
   67.1434   34.1115   50.5692 H   0  0  0  0  0  0  0  0  0  0  0  0
   69.0426   34.0326   52.1838 H   0  0  0  0  0  0  0  0  0  0  0  0
   68.2570   30.2623   54.8787 H   0  0  0  0  0  0  0  0  0  0  0  0
   66.4818   30.4401   55.1405 H   0  0  0  0  0  0  0  0  0  0  0  0
   66.2580   28.2736   54.1535 H   0  0  0  0  0  0  0  0  0  0  0  0
   69.4572   28.1756   53.8722 H   0  0  0  0  0  0  0  0  0  0  0  0
   69.4462   27.2645   52.3242 H   0  0  0  0  0  0  0  0  0  0  0  0
   69.7703   29.0313   52.3242 H   0  0  0  0  0  0  0  0  0  0  0  0
   66.0190   27.9255   51.4829 H   0  0  0  0  0  0  0  0  0  0  0  0
   67.0382   29.2126   50.7541 H   0  0  0  0  0  0  0  0  0  0  0  0
   67.6070   27.5087   50.7541 H   0  0  0  0  0  0  0  0  0  0  0  0
   65.3041   30.7413   52.5745 H   0  0  0  0  0  0  0  0  0  0  0  0
   65.7688   34.0514   49.2717 H   0  0  0  0  0  0  0  0  0  0  0  0
   61.8484   32.7258   46.8058 H   0  0  0  0  0  0  0  0  0  0  0  0
   59.0484   32.8065   46.9230 H   0  0  0  0  0  0  0  0  0  0  0  0
   56.2020   31.7510   43.5790 H   0  0  0  0  0  0  0  0  0  0  0  0
   56.4639   28.2859   42.5398 H   0  0  0  0  0  0  0  0  0  0  0  0
   56.4323   25.9348   42.7011 H   0  0  0  0  0  0  0  0  0  0  0  0
   57.6652   24.7035   42.2617 H   0  0  0  0  0  0  0  0  0  0  0  0
   55.0897   26.8148   45.4552 H   0  0  0  0  0  0  0  0  0  0  0  0
   55.1872   25.7217   46.8917 H   0  0  0  0  0  0  0  0  0  0  0  0
   57.3613   27.4814   45.6830 H   0  0  0  0  0  0  0  0  0  0  0  0
   56.7158   27.4511   47.3749 H   0  0  0  0  0  0  0  0  0  0  0  0
   59.1497   26.5866   48.5565 H   0  0  0  0  0  0  0  0  0  0  0  0
   60.1310   26.1432   47.1188 H   0  0  0  0  0  0  0  0  0  0  0  0
   59.1736   27.6631   47.1188 H   0  0  0  0  0  0  0  0  0  0  0  0
   57.7445   25.3159   48.9069 H   0  0  0  0  0  0  0  0  0  0  0  0
   56.4591   24.7996   47.7634 H   0  0  0  0  0  0  0  0  0  0  0  0
   58.0495   23.9646   47.7634 H   0  0  0  0  0  0  0  0  0  0  0  0
   60.0007   27.4180   44.8691 H   0  0  0  0  0  0  0  0  0  0  0  0
  1  2  1  0
  2  3  1  0
  3  4  1  0
  4  5  2  0
  5  6  1  0
  6  7  1  0
  7  8  1  0
  8  9  1  0
  9 10  2  0
 10 11  1  0
 11 12  2  0
 12 13  1  0
 12 14  1  0
 14 15  1  0
 15 16  1  0
 16 17  2  3
 17 18  1  0
 17 19  1  0
 14 20  2  0
  8 21  2  0
 21 22  1  0
 22 23  2  0
 22 24  1  0
 24 25  1  0
 25 26  2  0
 26 27  1  0
 27 28  2  0
 28 29  1  0
 29 30  2  0
 29 31  1  0
 31 32  2  0
 32 33  1  0
 32 34  1  0
 34 35  2  0
 35 36  1  0
 36 37  1  0
 37 38  1  0
 38 39  2  0
 38 40  1  0
 40 41  1  0
 41 42  1  0
 42 43  1  0
 43 44  1  0
 43 45  1  0
 35 46  1  0
 46 47  2  0
 47 48  1  0
 26  4  1  0
 48 27  1  0
 24  6  2  0
 47 31  1  0
 20  9  1  0
  1 49  1  0
  1 50  1  0
  1 51  1  0
  2 52  1  0
  2 53  1  0
  5 54  1  0
 10 55  1  0
 11 56  1  0
 15 57  1  0
 15 58  1  0
 16 59  1  0
 18 60  1  0
 18 61  1  0
 18 62  1  0
 19 63  1  0
 19 64  1  0
 19 65  1  0
 20 66  1  0
 21 67  1  0
 25 68  1  0
 28 69  1  0
 33 70  1  0
 34 71  1  0
 37 72  1  0
 37 73  1  0
 41 74  1  0
 41 75  1  0
 42 76  1  0
 42 77  1  0
 44 78  1  0
 44 79  1  0
 44 80  1  0
 45 81  1  0
 45 82  1  0
 45 83  1  0
 46 84  1  0
M  CHG  2  13  -1  40  -1
M  END
>  <UniqueID>  (30) 
28

>  <SMILES>  (30) 
CCOc1cc2oc(-c3ccc([O-])c(CC=C(C)C)c3)cc(=O)c2cc1-c1cc(=O)c2c(O)cc(OCC(=O)[N-]CCN(C)C)cc2o1

>  <Energy>  (30) 
111.64177660099926

>  <Genealogy>  (30) 
CCOc1cc2oc(-c3ccc([O-])c(CC=C(C)C)c3)cc(=O)c2cc1-c1cc(=O)c2c(O)cc(OCC(=O)[N-]CCN(C)C)cc2o1 (protonated)
CCOc1cc2oc(-c3ccc([O-])c(CC=C(C)C)c3)cc(=O)c2cc1-c1cc(=O)c2c(O)cc(OCC(=O)[N-]CCN(C)C)cc2o1 (3D coordinates assigned)
CCOc1cc2oc(-c3ccc([O-])c(CC=C(C)C)c3)cc(=O)c2cc1-c1cc(=O)c2c(O)cc(OCC(=O)[N-]CCN(C)C)cc2o1 (optimized conformer: 111.64177660099926 kcal/mol)

>  <smiles>  (30) 
CCOc1cc2oc(-c3ccc(O)c(CC=C(C)C)c3)cc(=O)c2cc1-c1cc(=O)c2c(O)cc(OCC(=O)NCCN(C)C)cc2o1

>  <score_type>  (30) 
oracle

>  <origin>  (30) 
adg

>  <m_score__min__energy>  (30) 
-9.3900000000000006

>  <m_primary>  (30) 
energy

$$$$
30:0
     RDKit          3D

 43 44  0  0  0  0  0  0  0  0999 V2000
   57.1060   21.4840   42.9540 C   0  0  0  0  0  0  0  0  0  0  0  0
   56.4650   22.8100   43.3660 C   0  0  0  0  0  0  0  0  0  0  0  0
   55.9170   22.7870   44.8030 C   0  0  0  0  0  0  0  0  0  0  0  0
   56.8280   22.0830   45.8280 C   0  0  0  0  0  0  0  0  0  0  0  0
   57.1690   22.9530   47.0560 C   0  0  0  0  0  0  0  0  0  0  0  0
   55.9880   23.8270   47.4990 C   0  0  0  0  0  0  0  0  0  0  0  0
   56.2640   25.2330   47.2280 N   0  0  0  0  0  0  0  0  0  0  0  0
   55.9430   25.8770   45.9910 C   0  0  0  0  0  0  0  0  0  0  0  0
   54.7820   26.3270   45.7900 O   0  0  0  0  0  0  0  0  0  0  0  0
   56.9760   25.9510   44.9080 C   0  0  0  0  0  0  0  0  0  0  0  0
   58.3030   26.4600   45.4330 C   0  0  0  0  0  0  0  0  0  0  0  0
   59.1640   25.5480   46.0710 C   0  0  0  0  0  0  0  0  0  0  0  0
   60.3740   25.9770   46.6220 C   0  0  0  0  0  0  0  0  0  0  0  0
   60.7370   27.3210   46.5480 C   0  0  0  0  0  0  0  0  0  0  0  0
   59.9010   28.2390   45.9090 C   0  0  0  0  0  0  0  0  0  0  0  0
   58.6920   27.8200   45.3310 C   0  0  0  0  0  0  0  0  0  0  0  0
   57.8680   28.8260   44.6340 C   0  0  0  0  0  0  0  0  0  0  0  0
   57.3370   28.7030   43.3570 C   0  0  0  0  0  0  0  0  0  0  0  0
   56.6490   29.8460   42.9330 C   0  0  0  0  0  0  0  0  0  0  0  0
   56.6500   30.8760   43.8660 C   0  0  0  0  0  0  0  0  0  0  0  0
   57.5120   30.3630   45.2170 S   0  0  0  0  0  0  0  0  0  0  0  0
   57.3813   20.9145   43.8540 H   0  0  0  0  0  0  0  0  0  0  0  0
   56.3903   20.9010   42.3558 H   0  0  0  0  0  0  0  0  0  0  0  0
   58.0075   21.6827   42.3558 H   0  0  0  0  0  0  0  0  0  0  0  0
   57.2222   23.6044   43.2915 H   0  0  0  0  0  0  0  0  0  0  0  0
   55.6156   22.9907   42.6909 H   0  0  0  0  0  0  0  0  0  0  0  0
   55.7715   23.8268   45.1310 H   0  0  0  0  0  0  0  0  0  0  0  0
   54.9816   22.2091   44.7698 H   0  0  0  0  0  0  0  0  0  0  0  0
   56.3186   21.1730   46.1779 H   0  0  0  0  0  0  0  0  0  0  0  0
   57.7768   21.8629   45.3167 H   0  0  0  0  0  0  0  0  0  0  0  0
   57.4522   22.2929   47.8891 H   0  0  0  0  0  0  0  0  0  0  0  0
   57.9949   23.6226   46.7741 H   0  0  0  0  0  0  0  0  0  0  0  0
   55.0856   23.5225   46.9485 H   0  0  0  0  0  0  0  0  0  0  0  0
   55.8343   23.6963   48.5804 H   0  0  0  0  0  0  0  0  0  0  0  0
   57.1218   24.9460   44.4852 H   0  0  0  0  0  0  0  0  0  0  0  0
   56.6186   26.6535   44.1407 H   0  0  0  0  0  0  0  0  0  0  0  0
   58.8816   24.4869   46.1365 H   0  0  0  0  0  0  0  0  0  0  0  0
   61.0407   25.2539   47.1145 H   0  0  0  0  0  0  0  0  0  0  0  0
   61.6840   27.6590   46.9939 H   0  0  0  0  0  0  0  0  0  0  0  0
   60.1919   29.2986   45.8581 H   0  0  0  0  0  0  0  0  0  0  0  0
   57.4460   27.7985   42.7406 H   0  0  0  0  0  0  0  0  0  0  0  0
   56.1541   29.9218   41.9535 H   0  0  0  0  0  0  0  0  0  0  0  0
   56.1698   31.8579   43.7425 H   0  0  0  0  0  0  0  0  0  0  0  0
  1  2  1  0
  2  3  1  0
  3  4  1  0
  4  5  1  0
  5  6  1  0
  6  7  1  0
  7  8  1  0
  8  9  2  0
  8 10  1  0
 10 11  1  0
 11 12  2  0
 12 13  1  0
 13 14  2  0
 14 15  1  0
 15 16  2  0
 16 17  1  0
 17 18  2  0
 18 19  1  0
 19 20  2  0
 20 21  1  0
 16 11  1  0
 21 17  1  0
  1 22  1  0
  1 23  1  0
  1 24  1  0
  2 25  1  0
  2 26  1  0
  3 27  1  0
  3 28  1  0
  4 29  1  0
  4 30  1  0
  5 31  1  0
  5 32  1  0
  6 33  1  0
  6 34  1  0
 10 35  1  0
 10 36  1  0
 12 37  1  0
 13 38  1  0
 14 39  1  0
 15 40  1  0
 18 41  1  0
 19 42  1  0
 20 43  1  0
M  CHG  1   7  -1
M  END
>  <UniqueID>  (31) 
29

>  <SMILES>  (31) 
CCCCCC[N-]C(=O)Cc1ccccc1-c1cccs1

>  <Energy>  (31) 
65.2340456844445

>  <Genealogy>  (31) 
CCCCCC[N-]C(=O)Cc1ccccc1-c1cccs1 (protonated)
CCCCCC[N-]C(=O)Cc1ccccc1-c1cccs1 (3D coordinates assigned)
CCCCCC[N-]C(=O)Cc1ccccc1-c1cccs1 (optimized conformer: 65.2340456844445 kcal/mol)

>  <smiles>  (31) 
CCCCCCNC(=O)Cc1ccccc1-c1cccs1

>  <score_type>  (31) 
oracle

>  <origin>  (31) 
adg

>  <m_score__min__energy>  (31) 
-8.9900000000000002

>  <m_primary>  (31) 
energy

$$$$
31:0
     RDKit          3D

 36 38  0  0  0  0  0  0  0  0999 V2000
   56.3997   29.1632   42.3677 H   0  0  0  0  0  0  0  0  0  0  0  0
   56.5190   30.2320   42.5990 C   0  0  0  0  0  0  0  0  0  0  0  0
   55.9704   30.9857   42.0151 H   0  0  0  0  0  0  0  0  0  0  0  0
   57.3310   30.6150   43.5900 C   0  0  0  0  0  0  0  0  0  0  0  0
   58.1180   29.8150   44.4240 C   0  0  0  0  0  0  0  0  0  0  0  0
   58.1560   28.4630   44.3880 C   0  0  0  0  0  0  0  0  0  0  0  0
   58.9441   27.9986   43.7771 H   0  0  0  0  0  0  0  0  0  0  0  0
   57.2360   27.5620   45.0940 C   0  0  0  0  0  0  0  0  0  0  0  0
   55.9100   27.8120   45.4130 C   0  0  0  0  0  0  0  0  0  0  0  0
   55.2780   29.0390   45.2520 O   0  0  0  0  0  0  0  0  0  0  0  0
   55.2800   26.7150   45.8970 N   0  0  0  0  0  0  0  0  0  0  0  0
   56.2220   25.7530   45.8510 C   0  0  0  0  0  0  0  0  0  0  0  0
   56.0640   24.4170   46.2170 C   0  0  0  0  0  0  0  0  0  0  0  0
   55.1087   24.0497   46.6200 H   0  0  0  0  0  0  0  0  0  0  0  0
   57.1610   23.5530   46.0560 C   0  0  0  0  0  0  0  0  0  0  0  0
   57.0685   22.4948   46.3417 H   0  0  0  0  0  0  0  0  0  0  0  0
   58.3820   24.0330   45.5300 C   0  0  0  0  0  0  0  0  0  0  0  0
   59.7390   22.9410   45.3310 Cl  0  0  0  0  0  0  0  0  0  0  0  0
   58.5130   25.3860   45.1640 C   0  0  0  0  0  0  0  0  0  0  0  0
   59.4540   25.7727   44.7457 H   0  0  0  0  0  0  0  0  0  0  0  0
   57.4110   26.2200   45.3490 C   0  0  0  0  0  0  0  0  0  0  0  0
   58.7830   30.6410   45.2880 N   0  0  0  0  0  0  0  0  0  0  0  0
   59.4990   30.3080   46.5310 C   0  0  0  0  0  0  0  0  0  0  0  0
   60.3324   29.6293   46.2968 H   0  0  0  0  0  0  0  0  0  0  0  0
   59.8783   31.2377   46.9803 H   0  0  0  0  0  0  0  0  0  0  0  0
   58.5640   29.6280   47.5270 C   0  0  0  0  0  0  0  0  0  0  0  0
   58.8868   29.8627   48.5520 H   0  0  0  0  0  0  0  0  0  0  0  0
   57.5374   29.9919   47.3735 H   0  0  0  0  0  0  0  0  0  0  0  0
   58.5939   28.5392   47.3735 H   0  0  0  0  0  0  0  0  0  0  0  0
   58.3880   31.8960   44.9480 C   0  0  0  0  0  0  0  0  0  0  0  0
   58.7980   33.1460   45.6660 C   0  0  0  0  0  0  0  0  0  0  0  0
   58.7435   32.9797   46.7520 H   0  0  0  0  0  0  0  0  0  0  0  0
   59.8291   33.4080   45.3865 H   0  0  0  0  0  0  0  0  0  0  0  0
   58.1223   33.9678   45.3865 H   0  0  0  0  0  0  0  0  0  0  0  0
   57.5190   31.9040   43.9210 N   0  0  0  0  0  0  0  0  0  0  0  0
   57.0640   32.7410   43.4890 H   0  0  0  0  0  0  0  0  0  0  0  0
  1  2  1  0
  2  3  1  0
  2  4  2  0
  4  5  1  0
  5  6  2  0
  6  7  1  0
  6  8  1  0
  8  9  2  0
  9 10  1  0
  9 11  1  0
 11 12  1  0
 12 13  2  0
 13 14  1  0
 13 15  1  0
 15 16  1  0
 15 17  2  0
 17 18  1  0
 17 19  1  0
 19 20  1  0
 19 21  2  0
  5 22  1  0
 22 23  1  0
 23 24  1  0
 23 25  1  0
 23 26  1  0
 26 27  1  0
 26 28  1  0
 26 29  1  0
 22 30  1  0
 30 31  1  0
 31 32  1  0
 31 33  1  0
 31 34  1  0
 30 35  2  0
 35 36  1  0
 35  4  1  0
 21  8  1  0
 21 12  1  0
M  CHG  3  10  -1  11  -1  35   1
M  END
>  <UniqueID>  (32) 
30

>  <SMILES>  (32) 
C=c1[nH+]c(C)n(CC)/c1=C\c1c([O-])[n-]c2ccc(Cl)cc12

>  <Energy>  (32) 
112.91361555681559

>  <Genealogy>  (32) 
C=c1[nH+]c(C)n(CC)c1=Cc1c([O-])[n-]c2ccc(Cl)cc12 (protonated)
C=c1[nH+]c(C)n(CC)/c1=C\c1c([O-])[n-]c2ccc(Cl)cc12 (cis-trans isomerization)
C=c1[nH+]c(C)n(CC)/c1=C\c1c([O-])[n-]c2ccc(Cl)cc12 (3D coordinates assigned)
C=c1[nH+]c(C)n(CC)/c1=C\c1c([O-])[n-]c2ccc(Cl)cc12 (optimized conformer: 112.91361555681559 kcal/mol)

>  <smiles>  (32) 
C=c1nc(C)n(CC)c1=Cc1c(O)[nH]c2ccc(Cl)cc12

>  <score_type>  (32) 
oracle

>  <origin>  (32) 
adg

>  <m_score__min__energy>  (32) 
-10.380000000000001

>  <m_primary>  (32) 
energy

$$$$
32:0
     RDKit          3D

 41 42  0  0  1  0  0  0  0  0999 V2000
   57.7760   31.8150   43.1890 C   0  0  0  0  0  0  0  0  0  0  0  0
   56.6550   30.8070   43.0760 C   0  0  0  0  0  0  0  0  0  0  0  0
   56.2650   30.4330   44.4210 N   0  0  0  0  0  0  0  0  0  0  0  0
   56.9720   29.6960   45.2070 C   0  0  0  0  0  0  0  0  0  0  0  0
   57.7700   30.2960   46.1150 N   0  0  0  0  0  0  0  0  0  0  0  0
   58.5150   29.5400   46.9410 C   0  0  0  0  0  0  0  0  0  0  0  0
   59.3840   30.0760   47.9290 N   0  0  0  0  0  0  0  0  0  0  0  0
   59.7840   29.3240   49.1040 C   0  0  0  0  0  0  0  0  0  0  0  0
   59.9120   31.4190   47.7980 C   0  0  0  0  0  0  0  0  0  0  0  0
   58.8620   32.4300   48.1440 C   0  0  0  0  0  0  0  0  0  0  0  0
   58.4440   28.2000   46.8390 N   0  0  0  0  0  0  0  0  0  0  0  0
   57.6510   27.5860   45.9370 C   0  0  0  0  0  0  0  0  0  0  0  0
   57.6520   26.1580   45.9090 N   0  0  0  0  0  0  0  0  0  0  0  0
   57.5990   25.4850   47.1900 C   0  0  0  0  0  0  0  0  0  0  0  0
   56.9680   24.1200   47.1130 C   0  0  0  0  0  0  0  0  0  0  0  0
   57.2340   23.4830   45.9030 O   0  0  0  0  0  0  0  0  0  0  0  0
   56.7640   24.2280   44.8330 C   0  0  0  0  0  0  0  0  0  0  0  0
   57.6980   25.4120   44.6570 C   0  0  0  0  0  0  0  0  0  0  0  0
   56.9020   28.3340   45.1070 N   0  0  0  0  0  0  0  0  0  0  0  0
   57.9902   32.0076   44.2506 H   0  0  0  0  0  0  0  0  0  0  0  0
   58.6772   31.4175   42.6993 H   0  0  0  0  0  0  0  0  0  0  0  0
   57.4762   32.7533   42.6993 H   0  0  0  0  0  0  0  0  0  0  0  0
   55.7999   31.2545   42.5482 H   0  0  0  0  0  0  0  0  0  0  0  0
   56.9852   29.9237   42.5097 H   0  0  0  0  0  0  0  0  0  0  0  0
   59.4907   29.8753   50.0096 H   0  0  0  0  0  0  0  0  0  0  0  0
   59.2893   28.3416   49.0965 H   0  0  0  0  0  0  0  0  0  0  0  0
   60.8752   29.1851   49.0965 H   0  0  0  0  0  0  0  0  0  0  0  0
   60.7687   31.5393   48.4774 H   0  0  0  0  0  0  0  0  0  0  0  0
   60.2297   31.5771   46.7568 H   0  0  0  0  0  0  0  0  0  0  0  0
   58.7776   32.5113   49.2377 H   0  0  0  0  0  0  0  0  0  0  0  0
   59.1417   33.4075   47.7242 H   0  0  0  0  0  0  0  0  0  0  0  0
   57.8958   32.1135   47.7242 H   0  0  0  0  0  0  0  0  0  0  0  0
   58.6251   25.3756   47.5710 H   0  0  0  0  0  0  0  0  0  0  0  0
   56.9756   26.0979   47.8576 H   0  0  0  0  0  0  0  0  0  0  0  0
   57.3619   23.5013   47.9328 H   0  0  0  0  0  0  0  0  0  0  0  0
   55.8784   24.2474   47.1943 H   0  0  0  0  0  0  0  0  0  0  0  0
   56.7600   23.6138   43.9205 H   0  0  0  0  0  0  0  0  0  0  0  0
   55.7355   24.5700   45.0207 H   0  0  0  0  0  0  0  0  0  0  0  0
   58.7222   25.0632   44.4587 H   0  0  0  0  0  0  0  0  0  0  0  0
   57.3933   26.0390   43.8061 H   0  0  0  0  0  0  0  0  0  0  0  0
   56.2800   27.8670   44.4020 H   0  0  0  0  0  0  0  0  0  0  0  0
  1  2  1  0
  2  3  1  0
  3  4  2  0
  4  5  1  0
  5  6  2  0
  6  7  1  0
  7  8  1  0
  7  9  1  0
  9 10  1  0
  6 11  1  0
 11 12  2  0
 12 13  1  0
 13 14  1  0
 14 15  1  0
 15 16  1  0
 16 17  1  0
 17 18  1  0
 12 19  1  0
 19  4  1  0
 18 13  1  0
  1 20  1  0
  1 21  1  0
  1 22  1  0
  2 23  1  0
  2 24  1  0
  8 25  1  0
  8 26  1  0
  8 27  1  0
  9 28  1  0
  9 29  1  0
 10 30  1  0
 10 31  1  0
 10 32  1  0
 14 33  1  0
 14 34  1  0
 15 35  1  0
 15 36  1  0
 17 37  1  0
 17 38  1  0
 18 39  1  0
 18 40  1  0
 19 41  1  0
M  END
>  <smiles>  (33) 
CCN=c1nc(N(C)CC)nc(N2CCOCC2)[nH]1

>  <score_type>  (33) 
oracle

>  <origin>  (33) 
adg

>  <m_score__min__energy>  (33) 
-5.4400000000000004

>  <m_primary>  (33) 
energy

$$$$
33:0
     RDKit          3D

 43 44  0  0  0  0  0  0  0  0999 V2000
   57.7510   26.5890   46.7270 C   0  0  0  0  0  0  0  0  0  0  0  0
   56.9740   27.2440   45.5950 C   0  0  0  0  0  0  0  0  0  0  0  0
   57.7390   28.3480   45.1300 N   0  0  0  0  0  0  0  0  0  0  0  0
   58.9680   27.9860   44.4770 C   0  0  0  0  0  0  0  0  0  0  0  0
   60.1910   28.6890   44.9710 C   0  0  0  0  0  0  0  0  0  0  0  0
   56.8810   29.6190   44.4050 S   0  0  0  0  0  0  0  0  0  0  0  0
   55.4530   29.7120   44.9230 O   0  0  0  0  0  0  0  0  0  0  0  0
   56.7620   29.3140   42.9320 O   0  0  0  0  0  0  0  0  0  0  0  0
   57.6920   31.1530   44.6910 C   0  0  0  0  0  0  0  0  0  0  0  0
   57.7830   32.0110   43.6050 C   0  0  0  0  0  0  0  0  0  0  0  0
   58.3960   33.2340   43.7620 C   0  0  0  0  0  0  0  0  0  0  0  0
   58.9060   33.5860   44.9890 C   0  0  0  0  0  0  0  0  0  0  0  0
   58.8050   32.7170   46.0560 C   0  0  0  0  0  0  0  0  0  0  0  0
   59.3180   33.0800   47.3240 N   0  0  0  0  0  0  0  0  0  0  0  0
   59.3100   34.3820   47.8630 C   0  0  0  0  0  0  0  0  0  0  0  0
   58.8220   35.3720   47.2240 O   0  0  0  0  0  0  0  0  0  0  0  0
   59.8990   34.5590   49.2230 C   0  0  0  0  0  0  0  0  0  0  0  0
   60.7320   33.0570   49.7920 S   0  0  0  0  0  0  0  0  0  0  0  0
   61.9390   32.4660   48.6480 C   0  0  0  0  0  0  0  0  0  0  0  0
   61.7370   31.4000   47.8190 N   0  0  0  0  0  0  0  0  0  0  0  0
   62.8620   31.2490   47.1000 C   0  0  0  0  0  0  0  0  0  0  0  0
   63.7470   32.2070   47.4780 N   0  0  0  0  0  0  0  0  0  0  0  0
   63.1810   32.9430   48.4190 N   0  0  0  0  0  0  0  0  0  0  0  0
   58.1960   31.4790   45.9360 C   0  0  0  0  0  0  0  0  0  0  0  0
   57.3482   26.9285   47.6927 H   0  0  0  0  0  0  0  0  0  0  0  0
   57.6544   25.4957   46.6534 H   0  0  0  0  0  0  0  0  0  0  0  0
   58.8122   26.8691   46.6534 H   0  0  0  0  0  0  0  0  0  0  0  0
   56.8217   26.5229   44.7784 H   0  0  0  0  0  0  0  0  0  0  0  0
   55.9874   27.5792   45.9475 H   0  0  0  0  0  0  0  0  0  0  0  0
   59.1194   26.9053   44.6150 H   0  0  0  0  0  0  0  0  0  0  0  0
   58.8510   28.2869   43.4254 H   0  0  0  0  0  0  0  0  0  0  0  0
   60.1939   28.6906   46.0710 H   0  0  0  0  0  0  0  0  0  0  0  0
   61.0872   28.1682   44.6028 H   0  0  0  0  0  0  0  0  0  0  0  0
   60.1920   29.7255   44.6028 H   0  0  0  0  0  0  0  0  0  0  0  0
   57.3699   31.7176   42.6287 H   0  0  0  0  0  0  0  0  0  0  0  0
   58.4771   33.9254   42.9103 H   0  0  0  0  0  0  0  0  0  0  0  0
   59.3955   34.5622   45.1205 H   0  0  0  0  0  0  0  0  0  0  0  0
   59.7360   32.2820   47.8900 H   0  0  0  0  0  0  0  0  0  0  0  0
   60.6290   35.3812   49.1911 H   0  0  0  0  0  0  0  0  0  0  0  0
   59.0818   34.7845   49.9240 H   0  0  0  0  0  0  0  0  0  0  0  0
   63.0367   30.4790   46.3341 H   0  0  0  0  0  0  0  0  0  0  0  0
   64.7170   32.3360   47.0840 H   0  0  0  0  0  0  0  0  0  0  0  0
   58.1173   30.7893   46.7893 H   0  0  0  0  0  0  0  0  0  0  0  0
  1  2  1  0
  2  3  1  0
  3  4  1  0
  4  5  1  0
  3  6  1  0
  6  7  2  0
  6  8  2  0
  6  9  1  0
  9 10  2  0
 10 11  1  0
 11 12  2  0
 12 13  1  0
 13 14  1  0
 14 15  1  0
 15 16  2  0
 15 17  1  0
 17 18  1  0
 18 19  1  0
 19 20  1  0
 20 21  2  0
 21 22  1  0
 22 23  1  0
 13 24  2  0
 24  9  1  0
 23 19  2  0
  1 25  1  0
  1 26  1  0
  1 27  1  0
  2 28  1  0
  2 29  1  0
  4 30  1  0
  4 31  1  0
  5 32  1  0
  5 33  1  0
  5 34  1  0
 10 35  1  0
 11 36  1  0
 12 37  1  0
 14 38  1  0
 17 39  1  0
 17 40  1  0
 21 41  1  0
 22 42  1  0
 24 43  1  0
M  END
>  <smiles>  (34) 
CCN(CC)S(=O)(=O)c1cccc(NC(=O)CSc2nc[nH]n2)c1

>  <score_type>  (34) 
oracle

>  <origin>  (34) 
adg

>  <m_score__min__energy>  (34) 
-7.7699999999999996

>  <m_primary>  (34) 
energy

$$$$
34:0
     RDKit          3D

 50 54  0  0  0  0  0  0  0  0999 V2000
   60.0200   26.5280   47.9390 O   0  0  0  0  0  0  0  0  0  0  0  0
   58.8950   26.9660   47.5790 C   0  0  0  0  0  0  0  0  0  0  0  0
   58.5280   28.3010   47.9480 N   0  0  0  0  0  0  0  0  0  0  0  0
   58.6100   29.4560   47.1020 C   0  0  0  0  0  0  0  0  0  0  0  0
   57.6500   29.7580   45.7570 S   0  0  0  0  0  0  0  0  0  0  0  0
   58.3070   31.2640   45.4070 C   0  0  0  0  0  0  0  0  0  0  0  0
   59.2660   31.5770   46.3770 C   0  0  0  0  0  0  0  0  0  0  0  0
   59.4500   30.5440   47.3300 C   0  0  0  0  0  0  0  0  0  0  0  0
   60.3920   30.6080   48.5060 C   0  0  0  0  0  0  0  0  0  0  0  0
   60.0420   31.7310   49.3740 N   0  0  0  0  0  0  0  0  0  0  0  0
   58.9550   31.8480   50.1550 C   0  0  0  0  0  0  0  0  0  0  0  0
   59.0340   33.0560   50.8110 C   0  0  0  0  0  0  0  0  0  0  0  0
   60.1630   33.6950   50.4460 N   0  0  0  0  0  0  0  0  0  0  0  0
   60.7550   32.8560   49.5690 C   0  0  0  0  0  0  0  0  0  0  0  0
   60.0350   32.8700   46.3440 C   0  0  0  0  0  0  0  0  0  0  0  0
   59.1340   34.0770   46.6520 C   0  0  0  0  0  0  0  0  0  0  0  0
   57.7380   34.0280   45.9920 C   0  0  0  0  0  0  0  0  0  0  0  0
   57.7910   33.6390   44.5040 C   0  0  0  0  0  0  0  0  0  0  0  0
   57.8590   32.1150   44.2420 C   0  0  0  0  0  0  0  0  0  0  0  0
   58.0100   26.1010   46.7640 C   0  0  0  0  0  0  0  0  0  0  0  0
   56.6350   26.3410   46.7470 C   0  0  0  0  0  0  0  0  0  0  0  0
   55.8170   25.5670   45.9960 N   0  0  0  0  0  0  0  0  0  0  0  0
   56.3010   24.5390   45.2530 C   0  0  0  0  0  0  0  0  0  0  0  0
   55.4130   23.7740   44.4910 C   0  0  0  0  0  0  0  0  0  0  0  0
   55.8980   22.7150   43.7280 C   0  0  0  0  0  0  0  0  0  0  0  0
   57.2590   22.4290   43.7310 C   0  0  0  0  0  0  0  0  0  0  0  0
   58.1260   23.2080   44.5020 C   0  0  0  0  0  0  0  0  0  0  0  0
   57.6500   24.2530   45.2560 N   0  0  0  0  0  0  0  0  0  0  0  0
   58.5040   25.0130   46.0180 C   0  0  0  0  0  0  0  0  0  0  0  0
   59.7360   24.7350   46.0690 O   0  0  0  0  0  0  0  0  0  0  0  0
   60.3225   29.6712   49.0784 H   0  0  0  0  0  0  0  0  0  0  0  0
   61.4185   30.7473   48.1359 H   0  0  0  0  0  0  0  0  0  0  0  0
   58.1455   31.1097   50.2530 H   0  0  0  0  0  0  0  0  0  0  0  0
   58.2897   33.4406   51.5238 H   0  0  0  0  0  0  0  0  0  0  0  0
   61.7122   33.0680   49.0701 H   0  0  0  0  0  0  0  0  0  0  0  0
   60.8392   32.8254   47.0932 H   0  0  0  0  0  0  0  0  0  0  0  0
   60.4452   32.9986   45.3315 H   0  0  0  0  0  0  0  0  0  0  0  0
   58.9956   34.1315   47.7419 H   0  0  0  0  0  0  0  0  0  0  0  0
   59.6432   34.9582   46.2348 H   0  0  0  0  0  0  0  0  0  0  0  0
   57.1232   33.2886   46.5262 H   0  0  0  0  0  0  0  0  0  0  0  0
   57.3089   35.0390   46.0532 H   0  0  0  0  0  0  0  0  0  0  0  0
   56.8883   34.0322   44.0135 H   0  0  0  0  0  0  0  0  0  0  0  0
   58.7203   34.0679   44.1010 H   0  0  0  0  0  0  0  0  0  0  0  0
   56.8543   31.7789   43.9459 H   0  0  0  0  0  0  0  0  0  0  0  0
   58.6249   31.9809   43.4639 H   0  0  0  0  0  0  0  0  0  0  0  0
   56.2146   27.1622   47.3461 H   0  0  0  0  0  0  0  0  0  0  0  0
   54.3380   24.0072   44.4942 H   0  0  0  0  0  0  0  0  0  0  0  0
   55.2074   22.1070   43.1252 H   0  0  0  0  0  0  0  0  0  0  0  0
   57.6506   21.5949   43.1303 H   0  0  0  0  0  0  0  0  0  0  0  0
   59.2025   22.9817   44.5051 H   0  0  0  0  0  0  0  0  0  0  0  0
  1  2  2  0
  2  3  1  0
  3  4  1  0
  4  5  1  0
  5  6  1  0
  6  7  2  0
  7  8  1  0
  8  9  1  0
  9 10  1  0
 10 11  1  0
 11 12  2  0
 12 13  1  0
 13 14  2  0
  7 15  1  0
 15 16  1  0
 16 17  1  0
 17 18  1  0
 18 19  1  0
  2 20  1  0
 20 21  2  0
 21 22  1  0
 22 23  2  0
 23 24  1  0
 24 25  2  0
 25 26  1  0
 26 27  2  0
 27 28  1  0
 28 29  1  0
 29 30  2  0
  8  4  2  0
 14 10  1  0
 29 20  1  0
 19  6  1  0
 28 23  1  0
  9 31  1  0
  9 32  1  0
 11 33  1  0
 12 34  1  0
 14 35  1  0
 15 36  1  0
 15 37  1  0
 16 38  1  0
 16 39  1  0
 17 40  1  0
 17 41  1  0
 18 42  1  0
 18 43  1  0
 19 44  1  0
 19 45  1  0
 21 46  1  0
 24 47  1  0
 25 48  1  0
 26 49  1  0
 27 50  1  0
M  CHG  1   3  -1
M  END
>  <UniqueID>  (35) 
31

>  <SMILES>  (35) 
O=C([N-]c1sc2c(c1Cn1ccnc1)CCCCC2)c1cnc2ccccn2c1=O

>  <Energy>  (35) 
127.61387964899997

>  <Genealogy>  (35) 
O=C([N-]c1sc2c(c1Cn1ccnc1)CCCCC2)c1cnc2ccccn2c1=O (protonated)
O=C([N-]c1sc2c(c1Cn1ccnc1)CCCCC2)c1cnc2ccccn2c1=O (3D coordinates assigned)
O=C([N-]c1sc2c(c1Cn1ccnc1)CCCCC2)c1cnc2ccccn2c1=O (nonaromatic ring conformer: 127.61387964899997 kcal/mol)

>  <smiles>  (35) 
O=C(Nc1sc2c(c1Cn1ccnc1)CCCCC2)c1cnc2ccccn2c1=O

>  <score_type>  (35) 
oracle

>  <origin>  (35) 
adg

>  <m_score__min__energy>  (35) 
-8.1500000000000004

>  <m_primary>  (35) 
energy

$$$$
35:0
     RDKit          3D

 42 44  0  0  0  0  0  0  0  0999 V2000
   57.8640   32.3450   41.2910 C   0  0  0  0  0  0  0  0  0  0  0  0
   57.9400   32.1120   42.6040 C   0  0  0  0  0  0  0  0  0  0  0  0
   57.0630   31.0940   43.2770 C   0  0  0  0  0  0  0  0  0  0  0  0
   57.8600   30.2390   44.1640 N   0  0  0  0  0  0  0  0  0  0  0  0
   58.5250   30.5820   45.2930 C   0  0  0  0  0  0  0  0  0  0  0  0
   58.6690   31.9560   45.8150 C   0  0  0  0  0  0  0  0  0  0  0  0
   57.5790   32.8400   45.7930 C   0  0  0  0  0  0  0  0  0  0  0  0
   57.7200   34.1430   46.2800 C   0  0  0  0  0  0  0  0  0  0  0  0
   58.9500   34.5720   46.7870 C   0  0  0  0  0  0  0  0  0  0  0  0
   60.0410   33.6990   46.8030 C   0  0  0  0  0  0  0  0  0  0  0  0
   59.9050   32.3970   46.3160 C   0  0  0  0  0  0  0  0  0  0  0  0
   59.0170   29.4250   45.8860 C   0  0  0  0  0  0  0  0  0  0  0  0
   59.7760   29.3390   47.1770 C   0  0  0  0  0  0  0  0  0  0  0  0
   58.6330   28.3640   45.1400 N   0  0  0  0  0  0  0  0  0  0  0  0
   58.9150   26.9450   45.3790 C   0  0  0  0  0  0  0  0  0  0  0  0
   57.6400   26.1440   45.3740 C   0  0  0  0  0  0  0  0  0  0  0  0
   57.5570   24.9400   44.6570 C   0  0  0  0  0  0  0  0  0  0  0  0
   56.3700   24.2050   44.6590 C   0  0  0  0  0  0  0  0  0  0  0  0
   55.2710   24.6830   45.3740 C   0  0  0  0  0  0  0  0  0  0  0  0
   55.3610   25.8540   46.0580 N   0  0  0  0  0  0  0  0  0  0  0  0
   56.5060   26.5890   46.0730 C   0  0  0  0  0  0  0  0  0  0  0  0
   57.9390   28.8920   44.1090 C   0  0  0  0  0  0  0  0  0  0  0  0
   57.3980   28.1990   43.2040 O   0  0  0  0  0  0  0  0  0  0  0  0
   58.5194   33.0967   40.8270 H   0  0  0  0  0  0  0  0  0  0  0  0
   57.1460   31.7852   40.6737 H   0  0  0  0  0  0  0  0  0  0  0  0
   58.6630   32.6797   43.2081 H   0  0  0  0  0  0  0  0  0  0  0  0
   56.2938   31.6124   43.8682 H   0  0  0  0  0  0  0  0  0  0  0  0
   56.5892   30.4667   42.5076 H   0  0  0  0  0  0  0  0  0  0  0  0
   56.6107   32.5066   45.3913 H   0  0  0  0  0  0  0  0  0  0  0  0
   56.8621   34.8313   46.2642 H   0  0  0  0  0  0  0  0  0  0  0  0
   59.0590   35.5962   47.1731 H   0  0  0  0  0  0  0  0  0  0  0  0
   61.0092   34.0380   47.2001 H   0  0  0  0  0  0  0  0  0  0  0  0
   60.7681   31.7151   46.3248 H   0  0  0  0  0  0  0  0  0  0  0  0
   59.0746   29.4185   48.0207 H   0  0  0  0  0  0  0  0  0  0  0  0
   60.3039   28.3753   47.2285 H   0  0  0  0  0  0  0  0  0  0  0  0
   60.5061   30.1602   47.2285 H   0  0  0  0  0  0  0  0  0  0  0  0
   59.5807   26.5702   44.5875 H   0  0  0  0  0  0  0  0  0  0  0  0
   59.3967   26.8395   46.3623 H   0  0  0  0  0  0  0  0  0  0  0  0
   58.4281   24.5753   44.0930 H   0  0  0  0  0  0  0  0  0  0  0  0
   56.3017   23.2586   44.1026 H   0  0  0  0  0  0  0  0  0  0  0  0
   54.3311   24.1116   45.3840 H   0  0  0  0  0  0  0  0  0  0  0  0
   56.5436   27.5344   46.6342 H   0  0  0  0  0  0  0  0  0  0  0  0
  1  2  2  0
  2  3  1  0
  3  4  1  0
  4  5  1  0
  5  6  1  0
  6  7  2  0
  7  8  1  0
  8  9  2  0
  9 10  1  0
 10 11  2  0
  5 12  2  0
 12 13  1  0
 12 14  1  0
 14 15  1  0
 15 16  1  0
 16 17  2  0
 17 18  1  0
 18 19  2  0
 19 20  1  0
 20 21  2  0
 14 22  1  0
 22 23  2  0
 22  4  1  0
 11  6  1  0
 21 16  1  0
  1 24  1  0
  1 25  1  0
  2 26  1  0
  3 27  1  0
  3 28  1  0
  7 29  1  0
  8 30  1  0
  9 31  1  0
 10 32  1  0
 11 33  1  0
 13 34  1  0
 13 35  1  0
 13 36  1  0
 15 37  1  0
 15 38  1  0
 17 39  1  0
 18 40  1  0
 19 41  1  0
 21 42  1  0
M  END
>  <UniqueID>  (36) 
32

>  <SMILES>  (36) 
C=CCn1c(-c2ccccc2)c(C)n(Cc2cccnc2)c1=O

>  <Energy>  (36) 
78.8526959905966

>  <Genealogy>  (36) 
C=CCn1c(-c2ccccc2)c(C)n(Cc2cccnc2)c1=O (3D coordinates assigned)
C=CCn1c(-c2ccccc2)c(C)n(Cc2cccnc2)c1=O (optimized conformer: 78.8526959905966 kcal/mol)

>  <smiles>  (36) 
C=CCn1c(-c2ccccc2)c(C)n(Cc2cccnc2)c1=O

>  <score_type>  (36) 
oracle

>  <origin>  (36) 
adg

>  <m_score__min__energy>  (36) 
-7.71

>  <m_primary>  (36) 
energy

$$$$
36:0
     RDKit          3D

 48 49  0  0  0  0  0  0  0  0999 V2000
   57.0710   28.4080   45.6120 C   0  0  0  0  0  0  0  0  0  0  0  0
   56.7480   29.7950   45.5470 O   0  0  0  0  0  0  0  0  0  0  0  0
   57.0810   30.6580   44.4960 C   0  0  0  0  0  0  0  0  0  0  0  0
   56.7420   30.3570   43.1710 C   0  0  0  0  0  0  0  0  0  0  0  0
   57.0800   31.2340   42.1420 C   0  0  0  0  0  0  0  0  0  0  0  0
   57.7630   32.4160   42.4180 C   0  0  0  0  0  0  0  0  0  0  0  0
   58.1050   32.7310   43.7310 C   0  0  0  0  0  0  0  0  0  0  0  0
   57.7590   31.8650   44.7800 C   0  0  0  0  0  0  0  0  0  0  0  0
   58.1490   32.2170   46.2030 C   0  0  0  0  0  0  0  0  0  0  0  0
   58.8290   31.1270   46.9740 N   0  0  0  0  0  0  0  0  0  0  0  0
   58.8530   31.4080   48.4220 C   0  0  0  0  0  0  0  0  0  0  0  0
   59.8060   32.5600   48.7860 C   0  0  0  0  0  0  0  0  0  0  0  0
   61.0580   32.5700   48.0100 N   0  0  0  0  0  0  0  0  0  0  0  0
   62.0340   33.5830   48.3500 C   0  0  0  0  0  0  0  0  0  0  0  0
   61.6670   34.6020   48.9840 O   0  0  0  0  0  0  0  0  0  0  0  0
   63.5030   33.4410   48.0340 C   0  0  0  0  0  0  0  0  0  0  0  0
   64.2240   32.4260   48.9470 C   0  0  0  0  0  0  0  0  0  0  0  0
   63.2490   31.6670   49.8550 C   0  0  0  0  0  0  0  0  0  0  0  0
   65.3470   33.0860   49.7610 C   0  0  0  0  0  0  0  0  0  0  0  0
   61.2750   31.7430   46.8100 C   0  0  0  0  0  0  0  0  0  0  0  0
   60.1770   30.7060   46.5420 C   0  0  0  0  0  0  0  0  0  0  0  0
   57.1433   28.0973   46.6647 H   0  0  0  0  0  0  0  0  0  0  0  0
   56.2847   27.8245   45.1107 H   0  0  0  0  0  0  0  0  0  0  0  0
   58.0342   28.2319   45.1107 H   0  0  0  0  0  0  0  0  0  0  0  0
   56.2064   29.4240   42.9414 H   0  0  0  0  0  0  0  0  0  0  0  0
   56.8055   30.9910   41.1049 H   0  0  0  0  0  0  0  0  0  0  0  0
   58.0321   33.1002   41.5998 H   0  0  0  0  0  0  0  0  0  0  0  0
   58.6487   33.6626   43.9468 H   0  0  0  0  0  0  0  0  0  0  0  0
   58.8299   33.0801   46.1641 H   0  0  0  0  0  0  0  0  0  0  0  0
   57.2066   32.4191   46.7331 H   0  0  0  0  0  0  0  0  0  0  0  0
   58.2270   30.2760   46.8600 H   0  0  0  0  0  0  0  0  0  0  0  0
   57.8365   31.6762   48.7456 H   0  0  0  0  0  0  0  0  0  0  0  0
   59.2154   30.5026   48.9309 H   0  0  0  0  0  0  0  0  0  0  0  0
   59.2822   33.5110   48.6096 H   0  0  0  0  0  0  0  0  0  0  0  0
   60.0863   32.4199   49.8404 H   0  0  0  0  0  0  0  0  0  0  0  0
   63.6060   33.1081   46.9907 H   0  0  0  0  0  0  0  0  0  0  0  0
   63.9707   34.4224   48.2015 H   0  0  0  0  0  0  0  0  0  0  0  0
   64.6899   31.6840   48.2819 H   0  0  0  0  0  0  0  0  0  0  0  0
   63.5005   31.8628   50.9078 H   0  0  0  0  0  0  0  0  0  0  0  0
   62.2218   32.0056   49.6543 H   0  0  0  0  0  0  0  0  0  0  0  0
   63.3253   30.5882   49.6543 H   0  0  0  0  0  0  0  0  0  0  0  0
   65.1412   32.9651   50.8348 H   0  0  0  0  0  0  0  0  0  0  0  0
   66.3071   32.6085   49.5156 H   0  0  0  0  0  0  0  0  0  0  0  0
   65.3969   34.1571   49.5156 H   0  0  0  0  0  0  0  0  0  0  0  0
   61.3353   32.4118   45.9387 H   0  0  0  0  0  0  0  0  0  0  0  0
   62.2021   31.1773   46.9847 H   0  0  0  0  0  0  0  0  0  0  0  0
   60.1464   30.5074   45.4605 H   0  0  0  0  0  0  0  0  0  0  0  0
   60.4339   29.8137   47.1317 H   0  0  0  0  0  0  0  0  0  0  0  0
  1  2  1  0
  2  3  1  0
  3  4  2  0
  4  5  1  0
  5  6  2  0
  6  7  1  0
  7  8  2  0
  8  9  1  0
  9 10  1  0
 10 11  1  0
 11 12  1  0
 12 13  1  0
 13 14  1  0
 14 15  2  0
 14 16  1  0
 16 17  1  0
 17 18  1  0
 17 19  1  0
 13 20  1  0
 20 21  1  0
  8  3  1  0
 21 10  1  0
  1 22  1  0
  1 23  1  0
  1 24  1  0
  4 25  1  0
  5 26  1  0
  6 27  1  0
  7 28  1  0
  9 29  1  0
  9 30  1  0
 10 31  1  0
 11 32  1  0
 11 33  1  0
 12 34  1  0
 12 35  1  0
 16 36  1  0
 16 37  1  0
 17 38  1  0
 18 39  1  0
 18 40  1  0
 18 41  1  0
 19 42  1  0
 19 43  1  0
 19 44  1  0
 20 45  1  0
 20 46  1  0
 21 47  1  0
 21 48  1  0
M  CHG  1  10   1
M  END
>  <UniqueID>  (37) 
33

>  <SMILES>  (37) 
COc1ccccc1C[NH+]1CCN(C(=O)CC(C)C)CC1

>  <Energy>  (37) 
55.72048709645385

>  <Genealogy>  (37) 
COc1ccccc1C[NH+]1CCN(C(=O)CC(C)C)CC1 (protonated)
COc1ccccc1C[NH+]1CCN(C(=O)CC(C)C)CC1 (3D coordinates assigned)
COc1ccccc1C[NH+]1CCN(C(=O)CC(C)C)CC1 (nonaromatic ring conformer: 55.72048709645385 kcal/mol)

>  <smiles>  (37) 
COc1ccccc1CN1CCN(C(=O)CC(C)C)CC1

>  <score_type>  (37) 
oracle

>  <origin>  (37) 
adg

>  <m_score__min__energy>  (37) 
-5.6699999999999999

>  <m_primary>  (37) 
energy

$$$$
37:0
     RDKit          3D

 25 26  0  0  0  0  0  0  0  0999 V2000
   57.3660   27.7480   46.8090 O   0  0  0  0  0  0  0  0  0  0  0  0
   57.2680   28.4480   45.7650 C   0  0  0  0  0  0  0  0  0  0  0  0
   58.5070   29.0190   45.1390 C   0  0  0  0  0  0  0  0  0  0  0  0
   58.2260   30.2800   44.2940 C   0  0  0  0  0  0  0  0  0  0  0  0
   58.1300   31.5470   45.1360 C   0  0  0  0  0  0  0  0  0  0  0  0
   58.5420   31.5170   46.4840 C   0  0  0  0  0  0  0  0  0  0  0  0
   58.4650   32.6640   47.2790 C   0  0  0  0  0  0  0  0  0  0  0  0
   57.9760   33.8560   46.7440 C   0  0  0  0  0  0  0  0  0  0  0  0
   57.5630   33.9030   45.4100 C   0  0  0  0  0  0  0  0  0  0  0  0
   57.6380   32.7600   44.6110 C   0  0  0  0  0  0  0  0  0  0  0  0
   57.0220   30.1010   43.3450 C   0  0  0  0  0  0  0  0  0  0  0  0
   55.8270   29.4970   44.0250 C   0  0  0  0  0  0  0  0  0  0  0  0
   54.6750   29.7060   43.5610 O   0  0  0  0  0  0  0  0  0  0  0  0
   55.9880   28.6390   45.1580 N   0  0  0  0  0  0  0  0  0  0  0  0
   59.2148   29.2828   45.9387 H   0  0  0  0  0  0  0  0  0  0  0  0
   58.9187   28.2541   44.4641 H   0  0  0  0  0  0  0  0  0  0  0  0
   59.1062   30.4153   43.6483 H   0  0  0  0  0  0  0  0  0  0  0  0
   58.9280   30.5812   46.9145 H   0  0  0  0  0  0  0  0  0  0  0  0
   58.7907   32.6267   48.3290 H   0  0  0  0  0  0  0  0  0  0  0  0
   57.9157   34.7575   47.3714 H   0  0  0  0  0  0  0  0  0  0  0  0
   57.1777   34.8429   44.9879 H   0  0  0  0  0  0  0  0  0  0  0  0
   57.3101   32.8063   43.5620 H   0  0  0  0  0  0  0  0  0  0  0  0
   56.7387   31.0868   42.9475 H   0  0  0  0  0  0  0  0  0  0  0  0
   57.3310   29.4110   42.5460 H   0  0  0  0  0  0  0  0  0  0  0  0
   55.1460   28.1950   45.5890 H   0  0  0  0  0  0  0  0  0  0  0  0
  1  2  2  0
  2  3  1  0
  3  4  1  0
  4  5  1  0
  5  6  2  0
  6  7  1  0
  7  8  2  0
  8  9  1  0
  9 10  2  0
  4 11  1  0
 11 12  1  0
 12 13  2  0
 12 14  1  0
 14  2  1  0
 10  5  1  0
  3 15  1  0
  3 16  1  0
  4 17  1  0
  6 18  1  0
  7 19  1  0
  8 20  1  0
  9 21  1  0
 10 22  1  0
 11 23  1  0
 11 24  1  0
 14 25  1  0
M  END
>  <UniqueID>  (38) 
34

>  <SMILES>  (38) 
O=C1CC(c2ccccc2)CC(=O)N1

>  <Energy>  (38) 
25.61281871297756

>  <Genealogy>  (38) 
O=C1CC(c2ccccc2)CC(=O)N1 (3D coordinates assigned)
O=C1CC(c2ccccc2)CC(=O)N1 (nonaromatic ring conformer: 25.61281871297756 kcal/mol)

>  <smiles>  (38) 
O=C1CC(c2ccccc2)CC(=O)N1

>  <score_type>  (38) 
oracle

>  <origin>  (38) 
adg

>  <m_score__min__energy>  (38) 
-6.4400000000000004

>  <m_primary>  (38) 
energy

$$$$
38:0
     RDKit          3D

 30 31  0  0  0  0  0  0  0  0999 V2000
   56.6440   28.2380   45.2330 C   0  0  0  0  0  0  0  0  0  0  0  0
   55.9870   29.4290   44.8090 O   0  0  0  0  0  0  0  0  0  0  0  0
   56.6430   30.5600   44.2990 C   0  0  0  0  0  0  0  0  0  0  0  0
   56.7310   30.8120   42.9200 C   0  0  0  0  0  0  0  0  0  0  0  0
   57.4020   31.9580   42.4900 C   0  0  0  0  0  0  0  0  0  0  0  0
   57.5190   32.2640   41.0310 C   0  0  0  0  0  0  0  0  0  0  0  0
   57.9510   32.7980   43.4040 N   0  0  0  0  0  0  0  0  0  0  0  0
   57.8630   32.5520   44.7380 C   0  0  0  0  0  0  0  0  0  0  0  0
   58.4610   33.4730   45.6690 N   0  0  0  0  0  0  0  0  0  0  0  0
   58.5840   33.2360   47.0980 C   0  0  0  0  0  0  0  0  0  0  0  0
   59.1230   34.5330   47.6870 C   0  0  0  0  0  0  0  0  0  0  0  0
   59.6750   35.3300   46.5080 C   0  0  0  0  0  0  0  0  0  0  0  0
   59.0050   34.7590   45.2670 C   0  0  0  0  0  0  0  0  0  0  0  0
   57.2110   31.4330   45.1740 N   0  0  0  0  0  0  0  0  0  0  0  0
   56.6640   28.2017   46.3322 H   0  0  0  0  0  0  0  0  0  0  0  0
   56.1012   27.3625   44.8471 H   0  0  0  0  0  0  0  0  0  0  0  0
   57.6740   28.2302   44.8471 H   0  0  0  0  0  0  0  0  0  0  0  0
   56.2801   30.1201   42.1934 H   0  0  0  0  0  0  0  0  0  0  0  0
   57.9091   33.2842   40.9005 H   0  0  0  0  0  0  0  0  0  0  0  0
   58.2059   31.5457   40.5596 H   0  0  0  0  0  0  0  0  0  0  0  0
   56.5281   32.1872   40.5596 H   0  0  0  0  0  0  0  0  0  0  0  0
   57.6024   32.9963   47.5327 H   0  0  0  0  0  0  0  0  0  0  0  0
   59.2486   32.3861   47.3124 H   0  0  0  0  0  0  0  0  0  0  0  0
   58.3161   35.0925   48.1829 H   0  0  0  0  0  0  0  0  0  0  0  0
   59.8982   34.3416   48.4436 H   0  0  0  0  0  0  0  0  0  0  0  0
   59.4293   36.3965   46.6188 H   0  0  0  0  0  0  0  0  0  0  0  0
   60.7706   35.2530   46.4466 H   0  0  0  0  0  0  0  0  0  0  0  0
   58.1998   35.4258   44.9249 H   0  0  0  0  0  0  0  0  0  0  0  0
   59.7155   34.6561   44.4336 H   0  0  0  0  0  0  0  0  0  0  0  0
   57.1400   31.2250   46.1940 H   0  0  0  0  0  0  0  0  0  0  0  0
  1  2  1  0
  2  3  1  0
  3  4  2  0
  4  5  1  0
  5  6  1  0
  5  7  2  0
  7  8  1  0
  8  9  1  0
  9 10  1  0
 10 11  1  0
 11 12  1  0
 12 13  1  0
  8 14  2  0
 14  3  1  0
 13  9  1  0
  1 15  1  0
  1 16  1  0
  1 17  1  0
  4 18  1  0
  6 19  1  0
  6 20  1  0
  6 21  1  0
 10 22  1  0
 10 23  1  0
 11 24  1  0
 11 25  1  0
 12 26  1  0
 12 27  1  0
 13 28  1  0
 13 29  1  0
 14 30  1  0
M  CHG  1  14   1
M  END
>  <UniqueID>  (39) 
35

>  <SMILES>  (39) 
COc1cc(C)nc(N2CCCC2)[nH+]1

>  <Energy>  (39) 
26.78151136204873

>  <Genealogy>  (39) 
COc1cc(C)nc(N2CCCC2)[nH+]1 (protonated)
COc1cc(C)nc(N2CCCC2)[nH+]1 (3D coordinates assigned)
COc1cc(C)nc(N2CCCC2)[nH+]1 (nonaromatic ring conformer: 26.78151136204873 kcal/mol)

>  <smiles>  (39) 
COc1cc(C)nc(N2CCCC2)n1

>  <score_type>  (39) 
oracle

>  <origin>  (39) 
adg

>  <m_score__min__energy>  (39) 
-4.3899999999999997

>  <m_primary>  (39) 
energy

$$$$
39:0
     RDKit          3D

 27 29  0  0  0  0  0  0  0  0999 V2000
   59.9910   34.5240   49.7510 O   0  0  0  0  0  0  0  0  0  0  0  0
   60.7120   34.2180   48.7620 C   0  0  0  0  0  0  0  0  0  0  0  0
   60.3160   34.5500   47.4600 O   0  0  0  0  0  0  0  0  0  0  0  0
   59.5440   33.7420   46.6130 C   0  0  0  0  0  0  0  0  0  0  0  0
   59.3870   32.3910   46.9430 C   0  0  0  0  0  0  0  0  0  0  0  0
   58.6180   31.5470   46.1360 C   0  0  0  0  0  0  0  0  0  0  0  0
   57.9810   32.0480   44.9890 C   0  0  0  0  0  0  0  0  0  0  0  0
   57.1680   31.1640   44.1320 C   0  0  0  0  0  0  0  0  0  0  0  0
   57.2890   31.0740   42.7930 N   0  0  0  0  0  0  0  0  0  0  0  0
   56.3940   30.1830   42.3990 N   0  0  0  0  0  0  0  0  0  0  0  0
   55.7580   29.7610   43.5080 C   0  0  0  0  0  0  0  0  0  0  0  0
   56.2300   30.3600   44.5740 O   0  0  0  0  0  0  0  0  0  0  0  0
   58.1210   33.4080   44.6680 C   0  0  0  0  0  0  0  0  0  0  0  0
   58.8910   34.2510   45.4750 C   0  0  0  0  0  0  0  0  0  0  0  0
   62.0090   33.5610   48.9950 C   0  0  0  0  0  0  0  0  0  0  0  0
   62.4980   32.9150   50.4700 S   0  0  0  0  0  0  0  0  0  0  0  0
   64.0040   32.3710   49.9590 C   0  0  0  0  0  0  0  0  0  0  0  0
   64.1450   32.6890   48.6160 C   0  0  0  0  0  0  0  0  0  0  0  0
   63.0370   33.3520   48.0720 C   0  0  0  0  0  0  0  0  0  0  0  0
   62.9950   33.8470   46.3870 Cl  0  0  0  0  0  0  0  0  0  0  0  0
   59.8726   31.9898   47.8448 H   0  0  0  0  0  0  0  0  0  0  0  0
   58.5113   30.4847   46.4010 H   0  0  0  0  0  0  0  0  0  0  0  0
   54.9507   29.0139   43.5181 H   0  0  0  0  0  0  0  0  0  0  0  0
   57.6214   33.8128   43.7755 H   0  0  0  0  0  0  0  0  0  0  0  0
   58.9868   35.3166   45.2193 H   0  0  0  0  0  0  0  0  0  0  0  0
   64.7485   31.8528   50.5813 H   0  0  0  0  0  0  0  0  0  0  0  0
   65.0441   32.4432   48.0319 H   0  0  0  0  0  0  0  0  0  0  0  0
  1  2  2  0
  2  3  1  0
  3  4  1  0
  4  5  2  0
  5  6  1  0
  6  7  2  0
  7  8  1  0
  8  9  2  0
  9 10  1  0
 10 11  2  0
 11 12  1  0
  7 13  1  0
 13 14  2  0
  2 15  1  0
 15 16  1  0
 16 17  1  0
 17 18  2  0
 18 19  1  0
 19 20  1  0
 14  4  1  0
 19 15  2  0
 12  8  1  0
  5 21  1  0
  6 22  1  0
 11 23  1  0
 13 24  1  0
 14 25  1  0
 17 26  1  0
 18 27  1  0
M  END
>  <UniqueID>  (40) 
36

>  <SMILES>  (40) 
O=C(Oc1ccc(-c2nnco2)cc1)c1sccc1Cl

>  <Energy>  (40) 
94.91030412335249

>  <Genealogy>  (40) 
O=C(Oc1ccc(-c2nnco2)cc1)c1sccc1Cl (3D coordinates assigned)
O=C(Oc1ccc(-c2nnco2)cc1)c1sccc1Cl (optimized conformer: 94.91030412335249 kcal/mol)

>  <smiles>  (40) 
O=C(Oc1ccc(-c2nnco2)cc1)c1sccc1Cl

>  <score_type>  (40) 
oracle

>  <origin>  (40) 
adg

>  <m_score__min__energy>  (40) 
-7.3899999999999997

>  <m_primary>  (40) 
energy

$$$$
40:0
     RDKit          3D

 33 36  0  0  0  0  0  0  0  0999 V2000
   53.9570   25.6740   46.3580 H   0  0  0  0  0  0  0  0  0  0  0  0
   54.8200   25.2100   45.9980 N   0  0  0  0  0  0  0  0  0  0  0  0
   55.8770   25.8920   45.7020 C   0  0  0  0  0  0  0  0  0  0  0  0
   57.3390   25.2130   45.2420 S   0  0  0  0  0  0  0  0  0  0  0  0
   58.0930   26.7110   45.0750 C   0  0  0  0  0  0  0  0  0  0  0  0
   59.1383   26.8744   44.7739 H   0  0  0  0  0  0  0  0  0  0  0  0
   57.1650   27.7120   45.3840 C   0  0  0  0  0  0  0  0  0  0  0  0
   57.4830   29.1610   45.3390 C   0  0  0  0  0  0  0  0  0  0  0  0
   56.7080   30.0390   44.5350 C   0  0  0  0  0  0  0  0  0  0  0  0
   55.8698   29.6364   43.9474 H   0  0  0  0  0  0  0  0  0  0  0  0
   56.9950   31.4150   44.4780 C   0  0  0  0  0  0  0  0  0  0  0  0
   56.3962   32.0915   43.8504 H   0  0  0  0  0  0  0  0  0  0  0  0
   58.0610   31.8990   45.2400 C   0  0  0  0  0  0  0  0  0  0  0  0
   58.8200   31.0480   46.0150 C   0  0  0  0  0  0  0  0  0  0  0  0
   58.5640   29.6800   46.0890 C   0  0  0  0  0  0  0  0  0  0  0  0
   59.1858   29.0219   46.7137 H   0  0  0  0  0  0  0  0  0  0  0  0
   59.7970   31.8210   46.5980 C   0  0  0  0  0  0  0  0  0  0  0  0
   60.8490   31.4910   47.4510 C   0  0  0  0  0  0  0  0  0  0  0  0
   60.9975   30.4575   47.7972 H   0  0  0  0  0  0  0  0  0  0  0  0
   61.7140   32.5240   47.8540 C   0  0  0  0  0  0  0  0  0  0  0  0
   62.5519   32.3014   48.5310 H   0  0  0  0  0  0  0  0  0  0  0  0
   61.5150   33.8450   47.3960 C   0  0  0  0  0  0  0  0  0  0  0  0
   62.2018   34.6422   47.7167 H   0  0  0  0  0  0  0  0  0  0  0  0
   60.4460   34.1510   46.5330 C   0  0  0  0  0  0  0  0  0  0  0  0
   60.2880   35.1771   46.1694 H   0  0  0  0  0  0  0  0  0  0  0  0
   59.5900   33.1120   46.1510 C   0  0  0  0  0  0  0  0  0  0  0  0
   58.5130   33.1750   45.3280 N   0  0  0  0  0  0  0  0  0  0  0  0
   58.0220   34.3430   44.5960 C   0  0  0  0  0  0  0  0  0  0  0  0
   57.6979   35.1139   45.3106 H   0  0  0  0  0  0  0  0  0  0  0  0
   58.8275   34.7446   43.9636 H   0  0  0  0  0  0  0  0  0  0  0  0
   57.1715   34.0485   43.9636 H   0  0  0  0  0  0  0  0  0  0  0  0
   55.9330   27.2420   45.7330 N   0  0  0  0  0  0  0  0  0  0  0  0
   55.1280   27.8430   46.0180 H   0  0  0  0  0  0  0  0  0  0  0  0
  1  2  1  0
  2  3  2  0
  3  4  1  0
  4  5  1  0
  5  6  1  0
  5  7  2  0
  7  8  1  0
  8  9  2  0
  9 10  1  0
  9 11  1  0
 11 12  1  0
 11 13  2  0
 13 14  1  0
 14 15  2  0
 15 16  1  0
 14 17  1  0
 17 18  2  0
 18 19  1  0
 18 20  1  0
 20 21  1  0
 20 22  2  0
 22 23  1  0
 22 24  1  0
 24 25  1  0
 24 26  2  0
 26 27  1  0
 27 28  1  0
 28 29  1  0
 28 30  1  0
 28 31  1  0
  7 32  1  0
 32 33  1  0
 32  3  1  0
 15  8  1  0
 26 17  1  0
 27 13  1  0
M  END
>  <UniqueID>  (41) 
37

>  <SMILES>  (41) 
[H]/N=c1\[nH]c(-c2ccc3c(c2)c2ccccc2n3C)cs1

>  <Energy>  (41) 
112.41882483581054

>  <Genealogy>  (41) 
[H]/N=c1\[nH]c(-c2ccc3c(c2)c2ccccc2n3C)cs1 (cis-trans isomerization)
[H]/N=c1\[nH]c(-c2ccc3c(c2)c2ccccc2n3C)cs1 (3D coordinates assigned)
[H]/N=c1\[nH]c(-c2ccc3c(c2)c2ccccc2n3C)cs1 (optimized conformer: 112.41882483581054 kcal/mol)

>  <smiles>  (41) 
Cn1c2ccccc2c2cc(-c3csc(=N)[nH]3)ccc21

>  <score_type>  (41) 
oracle

>  <origin>  (41) 
adg

>  <m_score__min__energy>  (41) 
-8.1899999999999995

>  <m_primary>  (41) 
energy

$$$$
41:0
     RDKit          3D

 83 89  0  0  0  0  0  0  0  0999 V2000
   60.4070   28.4250   48.5700 C   0  0  0  0  0  0  0  0  0  0  0  0
   60.3510   27.8990   47.2560 O   0  0  0  0  0  0  0  0  0  0  0  0
   59.4790   28.3410   46.2480 C   0  0  0  0  0  0  0  0  0  0  0  0
   59.3920   29.6960   45.8770 C   0  0  0  0  0  0  0  0  0  0  0  0
   58.5080   30.1060   44.8670 C   0  0  0  0  0  0  0  0  0  0  0  0
   58.4110   31.4570   44.4780 C   0  0  0  0  0  0  0  0  0  0  0  0
   59.2530   32.4100   45.0880 O   0  0  0  0  0  0  0  0  0  0  0  0
   59.3080   32.7270   46.4540 C   0  0  0  0  0  0  0  0  0  0  0  0
   58.2790   32.3870   47.3550 C   0  0  0  0  0  0  0  0  0  0  0  0
   58.3920   32.7210   48.7110 C   0  0  0  0  0  0  0  0  0  0  0  0
   59.5450   33.3700   49.1790 C   0  0  0  0  0  0  0  0  0  0  0  0
   59.6570   33.8050   50.5350 N   0  0  0  0  0  0  0  0  0  0  0  0
   58.6800   33.4360   51.5090 C   0  0  0  0  0  0  0  0  0  0  0  0
   58.2850   34.2740   52.3690 O   0  0  0  0  0  0  0  0  0  0  0  0
   58.2610   32.0290   51.6060 C   0  0  0  0  0  0  0  0  0  0  0  0
   56.9300   31.7380   51.7160 N   0  0  0  0  0  0  0  0  0  0  0  0
   56.4950   30.4600   51.9530 C   0  0  0  0  0  0  0  0  0  0  0  0
   55.0590   30.1730   52.2100 C   0  0  0  0  0  0  0  0  0  0  0  0
   54.0520   30.8540   51.5020 C   0  0  0  0  0  0  0  0  0  0  0  0
   52.7010   30.6180   51.7800 C   0  0  0  0  0  0  0  0  0  0  0  0
   52.3290   29.6960   52.7670 C   0  0  0  0  0  0  0  0  0  0  0  0
   50.8810   29.4900   53.1110 C   0  0  0  0  0  0  0  0  0  0  0  0
   53.3270   29.0270   53.4900 C   0  0  0  0  0  0  0  0  0  0  0  0
   54.6810   29.2620   53.2180 C   0  0  0  0  0  0  0  0  0  0  0  0
   57.3980   29.4450   52.0160 N   0  0  0  0  0  0  0  0  0  0  0  0
   58.7280   29.6780   51.8810 C   0  0  0  0  0  0  0  0  0  0  0  0
   59.6170   28.6500   51.9530 N   0  0  0  0  0  0  0  0  0  0  0  0
   60.9540   28.8760   51.8360 C   0  0  0  0  0  0  0  0  0  0  0  0
   61.4240   30.1820   51.6500 C   0  0  0  0  0  0  0  0  0  0  0  0
   60.5360   31.2100   51.5780 N   0  0  0  0  0  0  0  0  0  0  0  0
   59.1990   30.9890   51.6900 C   0  0  0  0  0  0  0  0  0  0  0  0
   60.5790   33.6630   48.2920 C   0  0  0  0  0  0  0  0  0  0  0  0
   60.4650   33.3430   46.9380 C   0  0  0  0  0  0  0  0  0  0  0  0
   61.4700   33.6660   46.0860 F   0  0  0  0  0  0  0  0  0  0  0  0
   57.5190   31.8050   43.4500 C   0  0  0  0  0  0  0  0  0  0  0  0
   56.7260   30.8210   42.8550 C   0  0  0  0  0  0  0  0  0  0  0  0
   56.8320   29.5250   43.2500 N   0  0  0  0  0  0  0  0  0  0  0  0
   57.6980   29.1440   44.2250 C   0  0  0  0  0  0  0  0  0  0  0  0
   57.7830   27.7970   44.5960 C   0  0  0  0  0  0  0  0  0  0  0  0
   58.6760   27.3870   45.6070 C   0  0  0  0  0  0  0  0  0  0  0  0
   58.8160   26.0470   46.0030 O   0  0  0  0  0  0  0  0  0  0  0  0
   58.1040   25.3940   47.0510 C   0  0  0  0  0  0  0  0  0  0  0  0
   56.6370   25.1980   46.6660 C   0  0  0  0  0  0  0  0  0  0  0  0
   56.4620   23.9160   45.9510 N   0  0  0  0  0  0  0  0  0  0  0  0
   55.5880   24.0640   44.7500 C   0  0  0  0  0  0  0  0  0  0  0  0
   56.3290   23.8510   43.4210 C   0  0  0  0  0  0  0  0  0  0  0  0
   57.0010   22.4700   43.3820 C   0  0  0  0  0  0  0  0  0  0  0  0
   57.6090   22.0700   44.7410 C   0  0  0  0  0  0  0  0  0  0  0  0
   57.7650   23.2710   45.6820 C   0  0  0  0  0  0  0  0  0  0  0  0
   60.3196   27.6045   49.2974 H   0  0  0  0  0  0  0  0  0  0  0  0
   61.3655   28.9444   48.7165 H   0  0  0  0  0  0  0  0  0  0  0  0
   59.5793   29.1346   48.7165 H   0  0  0  0  0  0  0  0  0  0  0  0
   60.0231   30.4409   46.3837 H   0  0  0  0  0  0  0  0  0  0  0  0
   57.3851   31.8582   46.9928 H   0  0  0  0  0  0  0  0  0  0  0  0
   57.5776   32.4747   49.4082 H   0  0  0  0  0  0  0  0  0  0  0  0
   56.2410   32.5200   51.6480 H   0  0  0  0  0  0  0  0  0  0  0  0
   54.3292   31.5789   50.7225 H   0  0  0  0  0  0  0  0  0  0  0  0
   51.9254   31.1604   51.2194 H   0  0  0  0  0  0  0  0  0  0  0  0
   50.7627   29.4732   54.2045 H   0  0  0  0  0  0  0  0  0  0  0  0
   50.2836   30.3122   52.6902 H   0  0  0  0  0  0  0  0  0  0  0  0
   50.5366   28.5338   52.6902 H   0  0  0  0  0  0  0  0  0  0  0  0
   53.0445   28.3121   54.2769 H   0  0  0  0  0  0  0  0  0  0  0  0
   55.4541   28.7327   53.7942 H   0  0  0  0  0  0  0  0  0  0  0  0
   61.6626   28.0362   51.8873 H   0  0  0  0  0  0  0  0  0  0  0  0
   62.5034   30.3752   51.5628 H   0  0  0  0  0  0  0  0  0  0  0  0
   61.4930   34.1507   48.6619 H   0  0  0  0  0  0  0  0  0  0  0  0
   57.4452   32.8500   43.1144 H   0  0  0  0  0  0  0  0  0  0  0  0
   56.0131   31.0961   42.0638 H   0  0  0  0  0  0  0  0  0  0  0  0
   57.1477   27.0521   44.0945 H   0  0  0  0  0  0  0  0  0  0  0  0
   58.5618   24.4121   47.2416 H   0  0  0  0  0  0  0  0  0  0  0  0
   58.1524   26.0190   47.9549 H   0  0  0  0  0  0  0  0  0  0  0  0
   56.0202   25.1929   47.5768 H   0  0  0  0  0  0  0  0  0  0  0  0
   56.3268   26.0215   46.0060 H   0  0  0  0  0  0  0  0  0  0  0  0
   54.7757   23.3253   44.8177 H   0  0  0  0  0  0  0  0  0  0  0  0
   55.2134   25.0982   44.7487 H   0  0  0  0  0  0  0  0  0  0  0  0
   55.6098   23.9249   42.5920 H   0  0  0  0  0  0  0  0  0  0  0  0
   57.1070   24.6227   43.3253 H   0  0  0  0  0  0  0  0  0  0  0  0
   56.2486   21.7196   43.0977 H   0  0  0  0  0  0  0  0  0  0  0  0
   57.8211   22.5182   42.6505 H   0  0  0  0  0  0  0  0  0  0  0  0
   56.9516   21.3287   45.2188 H   0  0  0  0  0  0  0  0  0  0  0  0
   58.6105   21.6553   44.5539 H   0  0  0  0  0  0  0  0  0  0  0  0
   58.1976   22.9271   46.6331 H   0  0  0  0  0  0  0  0  0  0  0  0
   58.4235   24.0075   45.1984 H   0  0  0  0  0  0  0  0  0  0  0  0
  1  2  1  0
  2  3  1  0
  3  4  2  0
  4  5  1  0
  5  6  2  0
  6  7  1  0
  7  8  1  0
  8  9  2  0
  9 10  1  0
 10 11  2  0
 11 12  1  0
 12 13  1  0
 13 14  2  0
 13 15  1  0
 15 16  2  0
 16 17  1  0
 17 18  1  0
 18 19  2  0
 19 20  1  0
 20 21  2  0
 21 22  1  0
 21 23  1  0
 23 24  2  0
 17 25  2  0
 25 26  1  0
 26 27  2  0
 27 28  1  0
 28 29  2  0
 29 30  1  0
 30 31  2  0
 11 32  1  0
 32 33  2  0
 33 34  1  0
  6 35  1  0
 35 36  2  0
 36 37  1  0
 37 38  2  0
 38 39  1  0
 39 40  2  0
 40 41  1  0
 41 42  1  0
 42 43  1  0
 43 44  1  0
 44 45  1  0
 45 46  1  0
 46 47  1  0
 47 48  1  0
 48 49  1  0
 40  3  1  0
 49 44  1  0
 38  5  1  0
 33  8  1  0
 31 15  1  0
 24 18  1  0
 31 26  1  0
  1 50  1  0
  1 51  1  0
  1 52  1  0
  4 53  1  0
  9 54  1  0
 10 55  1  0
 16 56  1  0
 19 57  1  0
 20 58  1  0
 22 59  1  0
 22 60  1  0
 22 61  1  0
 23 62  1  0
 24 63  1  0
 28 64  1  0
 29 65  1  0
 32 66  1  0
 35 67  1  0
 36 68  1  0
 39 69  1  0
 42 70  1  0
 42 71  1  0
 43 72  1  0
 43 73  1  0
 45 74  1  0
 45 75  1  0
 46 76  1  0
 46 77  1  0
 47 78  1  0
 47 79  1  0
 48 80  1  0
 48 81  1  0
 49 82  1  0
 49 83  1  0
M  CHG  2  12  -1  16   1
M  END
>  <UniqueID>  (42) 
38

>  <SMILES>  (42) 
COc1cc2c(Oc3ccc([N-]C(=O)c4[nH+]c(-c5ccc(C)cc5)nc5nccnc45)cc3F)ccnc2cc1OCCN1CCCCC1

>  <Energy>  (42) 
137.51937364840785

>  <Genealogy>  (42) 
COc1cc2c(Oc3ccc([N-]C(=O)c4[nH+]c(-c5ccc(C)cc5)nc5nccnc45)cc3F)ccnc2cc1OCCN1CCCCC1 (protonated)
COc1cc2c(Oc3ccc([N-]C(=O)c4[nH+]c(-c5ccc(C)cc5)nc5nccnc45)cc3F)ccnc2cc1OCCN1CCCCC1 (3D coordinates assigned)
COc1cc2c(Oc3ccc([N-]C(=O)c4[nH+]c(-c5ccc(C)cc5)nc5nccnc45)cc3F)ccnc2cc1OCCN1CCCCC1 (nonaromatic ring conformer: 137.51937364840785 kcal/mol)

>  <smiles>  (42) 
COc1cc2c(Oc3ccc(NC(=O)c4nc(-c5ccc(C)cc5)nc5nccnc45)cc3F)ccnc2cc1OCCN1CCCCC1

>  <score_type>  (42) 
oracle

>  <origin>  (42) 
adg

>  <m_score__min__energy>  (42) 
-9.5800000000000001

>  <m_primary>  (42) 
energy

$$$$
42:0
     RDKit          3D

 44 46  0  0  0  0  0  0  0  0999 V2000
   59.6605   35.1493   44.0340 H   0  0  0  0  0  0  0  0  0  0  0  0
   59.1080   34.3420   44.5370 C   0  0  0  0  0  0  0  0  0  0  0  0
   58.3230   33.0720   43.7790 S   0  0  0  0  0  0  0  0  0  0  0  0
   57.8190   32.3640   45.2130 C   0  0  0  0  0  0  0  0  0  0  0  0
   57.1750   31.2290   45.2170 N   0  0  0  0  0  0  0  0  0  0  0  0
   57.6840   29.9100   45.4330 C   0  0  0  0  0  0  0  0  0  0  0  0
   58.9900   29.7510   45.9160 C   0  0  0  0  0  0  0  0  0  0  0  0
   59.6193   30.6352   46.0956 H   0  0  0  0  0  0  0  0  0  0  0  0
   59.4950   28.4750   46.1700 C   0  0  0  0  0  0  0  0  0  0  0  0
   60.5266   28.3548   46.5323 H   0  0  0  0  0  0  0  0  0  0  0  0
   58.6930   27.3510   45.9650 C   0  0  0  0  0  0  0  0  0  0  0  0
   59.0973   26.3458   46.1552 H   0  0  0  0  0  0  0  0  0  0  0  0
   57.3760   27.5010   45.5180 C   0  0  0  0  0  0  0  0  0  0  0  0
   56.7453   26.6130   45.3642 H   0  0  0  0  0  0  0  0  0  0  0  0
   56.8540   28.7850   45.2640 C   0  0  0  0  0  0  0  0  0  0  0  0
   55.5290   28.9820   44.8460 O   0  0  0  0  0  0  0  0  0  0  0  0
   55.1510   29.7280   43.6940 C   0  0  0  0  0  0  0  0  0  0  0  0
   54.6743   30.6688   44.0065 H   0  0  0  0  0  0  0  0  0  0  0  0
   56.0445   29.9518   43.0926 H   0  0  0  0  0  0  0  0  0  0  0  0
   54.4421   29.1399   43.0926 H   0  0  0  0  0  0  0  0  0  0  0  0
   58.1960   33.1090   46.3020 N   0  0  0  0  0  0  0  0  0  0  0  0
   57.8230   32.8370   47.6980 C   0  0  0  0  0  0  0  0  0  0  0  0
   58.5256   33.3493   48.3717 H   0  0  0  0  0  0  0  0  0  0  0  0
   56.8030   33.2048   47.8833 H   0  0  0  0  0  0  0  0  0  0  0  0
   57.8614   31.7534   47.8833 H   0  0  0  0  0  0  0  0  0  0  0  0
   58.9420   34.2020   45.9150 C   0  0  0  0  0  0  0  0  0  0  0  0
   59.6130   35.1600   46.8690 C   0  0  0  0  0  0  0  0  0  0  0  0
   60.2824   35.8263   46.3051 H   0  0  0  0  0  0  0  0  0  0  0  0
   58.8436   35.7529   47.3852 H   0  0  0  0  0  0  0  0  0  0  0  0
   60.4100   34.4000   47.8840 C   0  0  0  0  0  0  0  0  0  0  0  0
   60.2910   34.6940   49.1060 O   0  0  0  0  0  0  0  0  0  0  0  0
   61.2970   33.3490   47.4730 N   0  0  0  0  0  0  0  0  0  0  0  0
   61.1110   32.8800   46.5560 H   0  0  0  0  0  0  0  0  0  0  0  0
   62.3980   32.8720   48.2660 C   0  0  0  0  0  0  0  0  0  0  0  0
   62.2570   31.7710   49.1330 C   0  0  0  0  0  0  0  0  0  0  0  0
   61.2945   31.2421   49.1954 H   0  0  0  0  0  0  0  0  0  0  0  0
   63.3370   31.3480   49.9150 C   0  0  0  0  0  0  0  0  0  0  0  0
   63.2248   30.4806   50.5821 H   0  0  0  0  0  0  0  0  0  0  0  0
   64.5570   32.0240   49.8510 C   0  0  0  0  0  0  0  0  0  0  0  0
   65.6030   31.6100   50.6100 F   0  0  0  0  0  0  0  0  0  0  0  0
   64.7000   33.1310   49.0090 C   0  0  0  0  0  0  0  0  0  0  0  0
   65.6594   33.6671   48.9637 H   0  0  0  0  0  0  0  0  0  0  0  0
   63.6230   33.5570   48.2240 C   0  0  0  0  0  0  0  0  0  0  0  0
   63.7366   34.4340   47.5698 H   0  0  0  0  0  0  0  0  0  0  0  0
  1  2  1  0
  2  3  1  0
  3  4  1  0
  4  5  2  0
  5  6  1  0
  6  7  2  0
  7  8  1  0
  7  9  1  0
  9 10  1  0
  9 11  2  0
 11 12  1  0
 11 13  1  0
 13 14  1  0
 13 15  2  0
 15 16  1  0
 16 17  1  0
 17 18  1  0
 17 19  1  0
 17 20  1  0
  4 21  1  0
 21 22  1  0
 22 23  1  0
 22 24  1  0
 22 25  1  0
 21 26  1  0
 26 27  1  0
 27 28  1  0
 27 29  1  0
 27 30  1  0
 30 31  2  0
 30 32  1  0
 32 33  1  0
 32 34  1  0
 34 35  2  0
 35 36  1  0
 35 37  1  0
 37 38  1  0
 37 39  2  0
 39 40  1  0
 39 41  1  0
 41 42  1  0
 41 43  2  0
 43 44  1  0
 26  2  2  0
 43 34  1  0
 15  6  1  0
M  END
>  <UniqueID>  (43) 
39

>  <SMILES>  (43) 
COc1ccccc1/N=c1/scc(CC(=O)Nc2ccc(F)cc2)n1C

>  <Energy>  (43) 
90.98824682558974

>  <Genealogy>  (43) 
COc1ccccc1/N=c1/scc(CC(=O)Nc2ccc(F)cc2)n1C (cis-trans isomerization)
COc1ccccc1/N=c1/scc(CC(=O)Nc2ccc(F)cc2)n1C (3D coordinates assigned)
COc1ccccc1/N=c1/scc(CC(=O)Nc2ccc(F)cc2)n1C (optimized conformer: 90.98824682558974 kcal/mol)

>  <smiles>  (43) 
COc1ccccc1N=c1scc(CC(=O)Nc2ccc(F)cc2)n1C

>  <score_type>  (43) 
oracle

>  <origin>  (43) 
adg

>  <m_score__min__energy>  (43) 
-8.1500000000000004

>  <m_primary>  (43) 
energy

$$$$
43:0
     RDKit          3D

 33 35  0  0  0  0  0  0  0  0999 V2000
   56.9270   30.3500   43.5840 C   0  0  0  0  0  0  0  0  0  0  0  0
   56.6880   30.0370   44.9520 O   0  0  0  0  0  0  0  0  0  0  0  0
   57.6760   30.0230   45.9500 C   0  0  0  0  0  0  0  0  0  0  0  0
   58.1510   31.2060   46.5470 C   0  0  0  0  0  0  0  0  0  0  0  0
   59.1160   31.1460   47.5510 C   0  0  0  0  0  0  0  0  0  0  0  0
   59.6020   29.9040   47.9580 C   0  0  0  0  0  0  0  0  0  0  0  0
   59.1420   28.7690   47.3730 N   0  0  0  0  0  0  0  0  0  0  0  0
   58.2020   28.7900   46.3870 C   0  0  0  0  0  0  0  0  0  0  0  0
   57.7600   27.5100   45.7870 C   0  0  0  0  0  0  0  0  0  0  0  0
   56.7980   26.7300   46.4590 C   0  0  0  0  0  0  0  0  0  0  0  0
   56.3740   25.5780   45.8860 N   0  0  0  0  0  0  0  0  0  0  0  0
   55.4770   24.7460   46.3880 N   0  0  0  0  0  0  0  0  0  0  0  0
   55.3400   23.7340   45.5010 C   0  0  0  0  0  0  0  0  0  0  0  0
   56.1770   23.9450   44.4120 C   0  0  0  0  0  0  0  0  0  0  0  0
   56.3080   23.0640   43.2420 C   0  0  0  0  0  0  0  0  0  0  0  0
   55.9360   21.8620   43.2850 O   0  0  0  0  0  0  0  0  0  0  0  0
   56.8180   25.1360   44.7010 C   0  0  0  0  0  0  0  0  0  0  0  0
   57.7690   25.8550   43.9770 C   0  0  0  0  0  0  0  0  0  0  0  0
   58.2590   27.0570   44.5300 C   0  0  0  0  0  0  0  0  0  0  0  0
   59.2920   27.8410   43.7650 C   0  0  0  0  0  0  0  0  0  0  0  0
   57.5934   31.2227   43.5185 H   0  0  0  0  0  0  0  0  0  0  0  0
   57.4000   29.4895   43.0882 H   0  0  0  0  0  0  0  0  0  0  0  0
   55.9723   30.5796   43.0882 H   0  0  0  0  0  0  0  0  0  0  0  0
   57.7595   32.1806   46.2202 H   0  0  0  0  0  0  0  0  0  0  0  0
   59.4904   32.0691   48.0176 H   0  0  0  0  0  0  0  0  0  0  0  0
   60.3589   29.8441   48.7539 H   0  0  0  0  0  0  0  0  0  0  0  0
   56.3981   27.0510   47.4322 H   0  0  0  0  0  0  0  0  0  0  0  0
   54.6667   22.8728   45.6234 H   0  0  0  0  0  0  0  0  0  0  0  0
   56.7391   23.4626   42.3118 H   0  0  0  0  0  0  0  0  0  0  0  0
   58.1272   25.4947   43.0014 H   0  0  0  0  0  0  0  0  0  0  0  0
   59.9633   28.3505   44.4720 H   0  0  0  0  0  0  0  0  0  0  0  0
   59.8767   27.1572   43.1321 H   0  0  0  0  0  0  0  0  0  0  0  0
   58.7907   28.5881   43.1321 H   0  0  0  0  0  0  0  0  0  0  0  0
  1  2  1  0
  2  3  1  0
  3  4  2  0
  4  5  1  0
  5  6  2  0
  6  7  1  0
  7  8  2  0
  8  9  1  0
  9 10  2  0
 10 11  1  0
 11 12  1  0
 12 13  2  0
 13 14  1  0
 14 15  1  0
 15 16  2  0
 14 17  2  0
 17 18  1  0
 18 19  2  0
 19 20  1  0
  8  3  1  0
 19  9  1  0
 17 11  1  0
  1 21  1  0
  1 22  1  0
  1 23  1  0
  4 24  1  0
  5 25  1  0
  6 26  1  0
 10 27  1  0
 13 28  1  0
 15 29  1  0
 18 30  1  0
 20 31  1  0
 20 32  1  0
 20 33  1  0
M  END
>  <UniqueID>  (44) 
40

>  <SMILES>  (44) 
COc1cccnc1-c1cn2ncc(C=O)c2cc1C

>  <Energy>  (44) 
78.06983371095455

>  <Genealogy>  (44) 
COc1cccnc1-c1cn2ncc(C=O)c2cc1C (3D coordinates assigned)
COc1cccnc1-c1cn2ncc(C=O)c2cc1C (optimized conformer: 78.06983371095455 kcal/mol)

>  <smiles>  (44) 
COc1cccnc1-c1cn2ncc(C=O)c2cc1C

>  <score_type>  (44) 
oracle

>  <origin>  (44) 
adg

>  <m_score__min__energy>  (44) 
-6.46

>  <m_primary>  (44) 
energy

$$$$
44:0
     RDKit          3D

 30 31  0  0  0  0  0  0  0  0999 V2000
   58.9430   32.8502   43.0383 H   0  0  0  0  0  0  0  0  0  0  0  0
   58.4590   32.8040   44.0250 C   0  0  0  0  0  0  0  0  0  0  0  0
   58.5770   33.8650   44.8390 C   0  0  0  0  0  0  0  0  0  0  0  0
   58.0498   34.7906   44.5646 H   0  0  0  0  0  0  0  0  0  0  0  0
   59.3790   33.8600   46.0890 C   0  0  0  0  0  0  0  0  0  0  0  0
   58.7900   33.8920   47.3680 C   0  0  0  0  0  0  0  0  0  0  0  0
   57.6949   33.9314   47.4644 H   0  0  0  0  0  0  0  0  0  0  0  0
   59.5880   33.8740   48.5160 C   0  0  0  0  0  0  0  0  0  0  0  0
   59.1173   33.9085   49.5096 H   0  0  0  0  0  0  0  0  0  0  0  0
   60.9900   33.8120   48.4080 C   0  0  0  0  0  0  0  0  0  0  0  0
   61.8320   33.7940   49.5300 O   0  0  0  0  0  0  0  0  0  0  0  0
   63.2310   33.5330   49.4800 C   0  0  0  0  0  0  0  0  0  0  0  0
   63.6270   33.4591   50.5036 H   0  0  0  0  0  0  0  0  0  0  0  0
   63.4086   32.5862   48.9489 H   0  0  0  0  0  0  0  0  0  0  0  0
   63.7380   34.3520   48.9489 H   0  0  0  0  0  0  0  0  0  0  0  0
   61.5720   33.7640   47.1380 C   0  0  0  0  0  0  0  0  0  0  0  0
   62.6665   33.7116   47.0418 H   0  0  0  0  0  0  0  0  0  0  0  0
   60.7760   33.7820   45.9890 C   0  0  0  0  0  0  0  0  0  0  0  0
   61.2495   33.7346   44.9973 H   0  0  0  0  0  0  0  0  0  0  0  0
   57.7120   31.5720   44.3820 C   0  0  0  0  0  0  0  0  0  0  0  0
   56.6360   31.1790   43.5660 C   0  0  0  0  0  0  0  0  0  0  0  0
   56.3639   31.7883   42.6915 H   0  0  0  0  0  0  0  0  0  0  0  0
   55.9090   30.0200   43.8570 C   0  0  0  0  0  0  0  0  0  0  0  0
   55.0641   29.7265   43.2167 H   0  0  0  0  0  0  0  0  0  0  0  0
   56.2540   29.2350   44.9590 C   0  0  0  0  0  0  0  0  0  0  0  0
   55.5300   28.0850   45.2470 O   0  0  0  0  0  0  0  0  0  0  0  0
   57.3310   29.6050   45.7690 C   0  0  0  0  0  0  0  0  0  0  0  0
   57.6054   28.9831   46.6338 H   0  0  0  0  0  0  0  0  0  0  0  0
   58.0610   30.7630   45.4840 C   0  0  0  0  0  0  0  0  0  0  0  0
   58.9116   31.0447   46.1221 H   0  0  0  0  0  0  0  0  0  0  0  0
  1  2  1  0
  2  3  2  0
  3  4  1  0
  3  5  1  0
  5  6  2  0
  6  7  1  0
  6  8  1  0
  8  9  1  0
  8 10  2  0
 10 11  1  0
 11 12  1  0
 12 13  1  0
 12 14  1  0
 12 15  1  0
 10 16  1  0
 16 17  1  0
 16 18  2  0
 18 19  1  0
  2 20  1  0
 20 21  2  0
 21 22  1  0
 21 23  1  0
 23 24  1  0
 23 25  2  0
 25 26  1  0
 25 27  1  0
 27 28  1  0
 27 29  2  0
 29 30  1  0
 18  5  1  0
 29 20  1  0
M  CHG  1  26  -1
M  END
>  <UniqueID>  (45) 
41

>  <SMILES>  (45) 
COc1ccc(/C=C/c2ccc([O-])cc2)cc1

>  <Energy>  (45) 
35.166731667048914

>  <Genealogy>  (45) 
COc1ccc(C=Cc2ccc([O-])cc2)cc1 (protonated)
COc1ccc(/C=C/c2ccc([O-])cc2)cc1 (cis-trans isomerization)
COc1ccc(/C=C/c2ccc([O-])cc2)cc1 (3D coordinates assigned)
COc1ccc(/C=C/c2ccc([O-])cc2)cc1 (optimized conformer: 35.166731667048914 kcal/mol)

>  <smiles>  (45) 
COc1ccc(C=Cc2ccc(O)cc2)cc1

>  <score_type>  (45) 
oracle

>  <origin>  (45) 
adg

>  <m_score__min__energy>  (45) 
-9.7400000000000002

>  <m_primary>  (45) 
energy

$$$$
45:0
     RDKit          3D

 42 44  0  0  1  0  0  0  0  0999 V2000
   57.3900   31.6390   42.3160 C   0  0  0  0  0  0  0  0  0  0  0  0
   56.6210   30.4040   42.6790 C   0  0  0  0  0  0  0  0  0  0  0  0
   56.1690   30.5110   44.1220 C   0  0  0  0  0  0  0  0  0  0  0  0
   56.7900   29.3940   44.8840 C   0  0  0  0  0  0  0  0  0  0  0  0
   56.2580   28.2110   45.2490 N   0  0  0  0  0  0  0  0  0  0  0  0
   57.1450   27.4630   45.9340 C   0  0  0  0  0  0  0  0  0  0  0  0
   58.2900   28.2260   45.9950 C   0  0  0  0  0  0  0  0  0  0  0  0
   58.0720   29.4070   45.3530 N   0  0  0  0  0  0  0  0  0  0  0  0
   58.9900   30.4870   45.1800 C   0  0  0  0  0  0  0  0  0  0  0  0
   58.6380   31.7020   45.9420 C   0  0  0  0  0  0  0  0  0  0  0  0
   58.4270   31.7180   47.2550 C   0  0  0  0  0  0  0  0  0  0  0  0
   58.5180   33.0550   47.9250 C   0  0  0  0  0  0  0  0  0  0  0  0
   58.2510   34.1120   46.9020 C   0  0  2  0  0  0  0  0  0  0  0  0
   57.2860   33.6600   45.8110 C   0  0  0  0  0  0  0  0  0  0  0  0
   58.5130   32.9810   45.1860 C   0  0  1  0  0  0  0  0  0  0  0  0
   59.3160   34.0930   45.8130 C   0  0  0  0  0  0  0  0  0  0  0  0
   60.7070   33.7750   46.2510 C   0  0  0  0  0  0  0  0  0  0  0  0
   59.2370   35.3420   45.0030 C   0  0  0  0  0  0  0  0  0  0  0  0
   57.7108   32.1541   43.2335 H   0  0  0  0  0  0  0  0  0  0  0  0
   58.2741   31.3597   41.7241 H   0  0  0  0  0  0  0  0  0  0  0  0
   56.7493   32.3092   41.7241 H   0  0  0  0  0  0  0  0  0  0  0  0
   55.7428   30.3103   42.0233 H   0  0  0  0  0  0  0  0  0  0  0  0
   57.2605   29.5177   42.5544 H   0  0  0  0  0  0  0  0  0  0  0  0
   56.4914   31.4746   44.5434 H   0  0  0  0  0  0  0  0  0  0  0  0
   55.0723   30.4515   44.1837 H   0  0  0  0  0  0  0  0  0  0  0  0
   56.9883   26.4586   46.3543 H   0  0  0  0  0  0  0  0  0  0  0  0
   59.2296   27.9291   46.4838 H   0  0  0  0  0  0  0  0  0  0  0  0
   59.9853   30.1506   45.5058 H   0  0  0  0  0  0  0  0  0  0  0  0
   58.9631   30.7602   44.1148 H   0  0  0  0  0  0  0  0  0  0  0  0
   58.1984   30.8008   47.8177 H   0  0  0  0  0  0  0  0  0  0  0  0
   57.7710   33.1193   48.7299 H   0  0  0  0  0  0  0  0  0  0  0  0
   59.5186   33.1933   48.3605 H   0  0  0  0  0  0  0  0  0  0  0  0
   58.0411   34.9823   47.5411 H   0  0  0  0  0  0  0  0  0  0  0  0
   56.4918   32.9755   46.1437 H   0  0  0  0  0  0  0  0  0  0  0  0
   56.6413   34.3576   45.2563 H   0  0  0  0  0  0  0  0  0  0  0  0
   58.6587   32.7246   44.1263 H   0  0  0  0  0  0  0  0  0  0  0  0
   60.7520   33.7647   47.3500 H   0  0  0  0  0  0  0  0  0  0  0  0
   60.9969   32.7874   45.8629 H   0  0  0  0  0  0  0  0  0  0  0  0
   61.3972   34.5385   45.8629 H   0  0  0  0  0  0  0  0  0  0  0  0
   59.1820   36.2116   45.6744 H   0  0  0  0  0  0  0  0  0  0  0  0
   60.1317   35.4247   44.3684 H   0  0  0  0  0  0  0  0  0  0  0  0
   58.3390   35.3113   44.3684 H   0  0  0  0  0  0  0  0  0  0  0  0
  1  2  1  0
  2  3  1  0
  3  4  1  0
  4  5  2  0
  5  6  1  0
  6  7  2  0
  7  8  1  0
  8  9  1  0
  9 10  1  0
 10 11  2  0
 11 12  1  0
 12 13  1  0
 13 14  1  0
 14 15  1  0
 15 16  1  0
 16 17  1  0
 16 18  1  0
  8  4  1  0
 15 10  1  0
 16 13  1  0
  1 19  1  0
  1 20  1  0
  1 21  1  0
  2 22  1  0
  2 23  1  0
  3 24  1  0
  3 25  1  0
  6 26  1  0
  7 27  1  0
  9 28  1  0
  9 29  1  0
 11 30  1  0
 12 31  1  0
 12 32  1  0
 13 33  1  1
 14 34  1  0
 14 35  1  0
 15 36  1  6
 17 37  1  0
 17 38  1  0
 17 39  1  0
 18 40  1  0
 18 41  1  0
 18 42  1  0
M  END
>  <smiles>  (46) 
CCCc1nccn1CC1=CCC2CC1C2(C)C

>  <score_type>  (46) 
oracle

>  <origin>  (46) 
adg

>  <m_score__min__energy>  (46) 
-7.04

>  <m_primary>  (46) 
energy

$$$$
46:0
     RDKit          3D

 32 34  0  0  0  0  0  0  0  0999 V2000
   58.1230   22.1330   45.3730 C   0  0  0  0  0  0  0  0  0  0  0  0
   57.9860   23.0970   46.4120 O   0  0  0  0  0  0  0  0  0  0  0  0
   57.7970   24.4700   46.1980 C   0  0  0  0  0  0  0  0  0  0  0  0
   58.9220   25.2670   45.9590 C   0  0  0  0  0  0  0  0  0  0  0  0
   58.7870   26.6400   45.7400 C   0  0  0  0  0  0  0  0  0  0  0  0
   57.5180   27.2440   45.7560 C   0  0  0  0  0  0  0  0  0  0  0  0
   57.3990   28.7010   45.5220 C   0  0  0  0  0  0  0  0  0  0  0  0
   58.3140   29.6860   45.8500 C   0  0  0  0  0  0  0  0  0  0  0  0
   57.7130   30.8560   45.4150 C   0  0  0  0  0  0  0  0  0  0  0  0
   58.2550   32.2330   45.5140 C   0  0  0  0  0  0  0  0  0  0  0  0
   59.3550   32.4950   46.3510 C   0  0  0  0  0  0  0  0  0  0  0  0
   59.8770   33.7900   46.4540 C   0  0  0  0  0  0  0  0  0  0  0  0
   59.3080   34.8350   45.7240 C   0  0  0  0  0  0  0  0  0  0  0  0
   59.8140   36.0880   45.8260 F   0  0  0  0  0  0  0  0  0  0  0  0
   58.2160   34.5880   44.8900 C   0  0  0  0  0  0  0  0  0  0  0  0
   57.6900   33.2960   44.7820 C   0  0  0  0  0  0  0  0  0  0  0  0
   56.5170   30.5600   44.8680 N   0  0  0  0  0  0  0  0  0  0  0  0
   56.3640   29.2710   44.9490 O   0  0  0  0  0  0  0  0  0  0  0  0
   56.3880   26.4440   45.9950 C   0  0  0  0  0  0  0  0  0  0  0  0
   56.5240   25.0690   46.2150 C   0  0  0  0  0  0  0  0  0  0  0  0
   58.2648   21.1356   45.8146 H   0  0  0  0  0  0  0  0  0  0  0  0
   57.2158   22.1330   44.7509 H   0  0  0  0  0  0  0  0  0  0  0  0
   58.9943   22.3857   44.7509 H   0  0  0  0  0  0  0  0  0  0  0  0
   59.9217   24.8082   45.9434 H   0  0  0  0  0  0  0  0  0  0  0  0
   59.6809   27.2533   45.5536 H   0  0  0  0  0  0  0  0  0  0  0  0
   59.2909   29.5676   46.3416 H   0  0  0  0  0  0  0  0  0  0  0  0
   59.8084   31.6762   46.9289 H   0  0  0  0  0  0  0  0  0  0  0  0
   60.7372   33.9844   47.1115 H   0  0  0  0  0  0  0  0  0  0  0  0
   57.7675   35.4121   44.3157 H   0  0  0  0  0  0  0  0  0  0  0  0
   56.8303   33.1091   44.1217 H   0  0  0  0  0  0  0  0  0  0  0  0
   55.3882   26.9025   46.0093 H   0  0  0  0  0  0  0  0  0  0  0  0
   55.6317   24.4535   46.4021 H   0  0  0  0  0  0  0  0  0  0  0  0
  1  2  1  0
  2  3  1  0
  3  4  2  0
  4  5  1  0
  5  6  2  0
  6  7  1  0
  7  8  2  0
  8  9  1  0
  9 10  1  0
 10 11  2  0
 11 12  1  0
 12 13  2  0
 13 14  1  0
 13 15  1  0
 15 16  2  0
  9 17  2  0
 17 18  1  0
  6 19  1  0
 19 20  2  0
 20  3  1  0
 18  7  1  0
 16 10  1  0
  1 21  1  0
  1 22  1  0
  1 23  1  0
  4 24  1  0
  5 25  1  0
  8 26  1  0
 11 27  1  0
 12 28  1  0
 15 29  1  0
 16 30  1  0
 19 31  1  0
 20 32  1  0
M  END
>  <UniqueID>  (47) 
42

>  <SMILES>  (47) 
COc1ccc(-c2cc(-c3ccc(F)cc3)no2)cc1

>  <Energy>  (47) 
66.86777518562508

>  <Genealogy>  (47) 
COc1ccc(-c2cc(-c3ccc(F)cc3)no2)cc1 (3D coordinates assigned)
COc1ccc(-c2cc(-c3ccc(F)cc3)no2)cc1 (optimized conformer: 66.86777518562508 kcal/mol)

>  <smiles>  (47) 
COc1ccc(-c2cc(-c3ccc(F)cc3)no2)cc1

>  <score_type>  (47) 
oracle

>  <origin>  (47) 
adg

>  <m_score__min__energy>  (47) 
-7.2400000000000002

>  <m_primary>  (47) 
energy

$$$$
