0:0
     RDKit          3D

 37 38  0  0  0  0  0  0  0  0999 V2000
   61.3960   30.9130   47.2330 C   0  0  0  0  0  0  0  0  0  0  0  0
   60.9530   31.9330   48.2800 C   0  0  0  0  0  0  0  0  0  0  0  0
   61.6510   33.2290   48.1130 N   0  0  0  0  0  0  0  0  0  0  0  0
   63.0700   33.1130   47.6970 C   0  0  0  0  0  0  0  0  0  0  0  0
   63.3940   33.8250   46.3770 C   0  0  0  0  0  0  0  0  0  0  0  0
   60.8810   34.1760   47.2730 C   0  0  0  0  0  0  0  0  0  0  0  0
   59.3800   33.8970   47.4020 C   0  0  0  0  0  0  0  0  0  0  0  0
   58.8300   33.3530   46.1500 N   0  0  0  0  0  0  0  0  0  0  0  0
   58.9660   34.0840   44.9920 C   0  0  0  0  0  0  0  0  0  0  0  0
   58.5210   33.5960   43.7980 N   0  0  0  0  0  0  0  0  0  0  0  0
   57.9370   32.3740   43.7480 C   0  0  0  0  0  0  0  0  0  0  0  0
   57.4470   31.7510   42.5940 C   0  0  0  0  0  0  0  0  0  0  0  0
   57.5340   32.3420   41.2220 C   0  0  0  0  0  0  0  0  0  0  0  0
   56.9290   30.4790   42.8560 C   0  0  0  0  0  0  0  0  0  0  0  0
   57.0680   30.1570   44.5120 S   0  0  0  0  0  0  0  0  0  0  0  0
   57.7920   31.6250   44.8910 C   0  0  0  0  0  0  0  0  0  0  0  0
   58.2400   32.1100   46.1120 C   0  0  0  0  0  0  0  0  0  0  0  0
   58.1140   31.4110   47.1540 O   0  0  0  0  0  0  0  0  0  0  0  0
   61.7856   30.0161   47.7367 H   0  0  0  0  0  0  0  0  0  0  0  0
   60.5369   30.6364   46.6041 H   0  0  0  0  0  0  0  0  0  0  0  0
   62.1845   31.3520   46.6041 H   0  0  0  0  0  0  0  0  0  0  0  0
   59.8696   32.0965   48.1822 H   0  0  0  0  0  0  0  0  0  0  0  0
   61.2037   31.5345   49.2741 H   0  0  0  0  0  0  0  0  0  0  0  0
   63.6989   33.5478   48.4879 H   0  0  0  0  0  0  0  0  0  0  0  0
   63.2684   32.0428   47.5381 H   0  0  0  0  0  0  0  0  0  0  0  0
   63.8410   34.8072   46.5903 H   0  0  0  0  0  0  0  0  0  0  0  0
   64.1041   33.2171   45.7972 H   0  0  0  0  0  0  0  0  0  0  0  0
   62.4692   33.9611   45.7972 H   0  0  0  0  0  0  0  0  0  0  0  0
   61.0889   35.2050   47.6014 H   0  0  0  0  0  0  0  0  0  0  0  0
   61.1808   34.0496   46.2222 H   0  0  0  0  0  0  0  0  0  0  0  0
   59.2186   33.1692   48.2109 H   0  0  0  0  0  0  0  0  0  0  0  0
   58.8676   34.8445   47.6247 H   0  0  0  0  0  0  0  0  0  0  0  0
   59.4402   35.0758   45.0295 H   0  0  0  0  0  0  0  0  0  0  0  0
   57.6938   33.4275   41.2998 H   0  0  0  0  0  0  0  0  0  0  0  0
   58.3746   31.8856   40.6788 H   0  0  0  0  0  0  0  0  0  0  0  0
   56.5975   32.1473   40.6788 H   0  0  0  0  0  0  0  0  0  0  0  0
   56.5002   29.7973   42.1067 H   0  0  0  0  0  0  0  0  0  0  0  0
  1  2  1  0
  2  3  1  0
  3  4  1  0
  4  5  1  0
  3  6  1  0
  6  7  1  0
  7  8  1  0
  8  9  1  0
  9 10  2  0
 10 11  1  0
 11 12  1  0
 12 13  1  0
 12 14  2  0
 14 15  1  0
 15 16  1  0
 16 17  1  0
 17 18  2  0
 17  8  1  0
 16 11  2  0
  1 19  1  0
  1 20  1  0
  1 21  1  0
  2 22  1  0
  2 23  1  0
  4 24  1  0
  4 25  1  0
  5 26  1  0
  5 27  1  0
  5 28  1  0
  6 29  1  0
  6 30  1  0
  7 31  1  0
  7 32  1  0
  9 33  1  0
 13 34  1  0
 13 35  1  0
 13 36  1  0
 14 37  1  0
M  END
>  <UniqueID>  (1) 
1

>  <SMILES>  (1) 
CCN(CC)CCn1cnc2c(C)csc2c1=O

>  <Energy>  (1) 
69.62583331101828

>  <Genealogy>  (1) 
CCN(CC)CCn1cnc2c(C)csc2c1=O (3D coordinates assigned)
CCN(CC)CCn1cnc2c(C)csc2c1=O (optimized conformer: 69.62583331101828 kcal/mol)

>  <smiles>  (1) 
CCN(CC)CCn1cnc2c(C)csc2c1=O

>  <score_type>  (1) 
oracle

>  <origin>  (1) 
adg

>  <m_score__min__energy>  (1) 
-6.0899999999999999

>  <m_primary>  (1) 
energy

$$$$
1:0
     RDKit          3D

 46 48  0  0  0  0  0  0  0  0999 V2000
   57.6650   26.2400   47.0060 C   0  0  0  0  0  0  0  0  0  0  0  0
   56.8570   26.2650   45.7130 C   0  0  0  0  0  0  0  0  0  0  0  0
   56.0980   27.4700   45.6130 O   0  0  0  0  0  0  0  0  0  0  0  0
   56.5880   28.7100   45.1700 C   0  0  0  0  0  0  0  0  0  0  0  0
   57.9330   29.1000   45.3230 C   0  0  0  0  0  0  0  0  0  0  0  0
   58.3610   30.3490   44.8680 C   0  0  0  0  0  0  0  0  0  0  0  0
   57.4540   31.2400   44.2730 C   0  0  0  0  0  0  0  0  0  0  0  0
   57.9200   32.5850   43.7750 C   0  0  0  0  0  0  0  0  0  0  0  0
   58.0940   33.5900   44.8450 N   0  0  0  0  0  0  0  0  0  0  0  0
   59.4170   34.2380   44.9440 C   0  0  0  0  0  0  0  0  0  0  0  0
   60.3270   33.5790   45.9850 C   0  0  0  0  0  0  0  0  0  0  0  0
   59.6000   33.3850   47.2390 N   0  0  0  0  0  0  0  0  0  0  0  0
   60.2850   33.5420   48.4970 C   0  0  0  0  0  0  0  0  0  0  0  0
   59.5910   33.3570   49.7040 C   0  0  0  0  0  0  0  0  0  0  0  0
   60.2500   33.5070   50.9280 C   0  0  0  0  0  0  0  0  0  0  0  0
   61.6070   33.8400   50.9560 C   0  0  0  0  0  0  0  0  0  0  0  0
   62.3060   34.0240   49.7610 C   0  0  0  0  0  0  0  0  0  0  0  0
   61.6510   33.8750   48.5350 C   0  0  0  0  0  0  0  0  0  0  0  0
   58.3240   32.6730   47.1710 C   0  0  0  0  0  0  0  0  0  0  0  0
   57.4100   33.3260   46.1270 C   0  0  0  0  0  0  0  0  0  0  0  0
   56.1190   30.8420   44.1020 C   0  0  0  0  0  0  0  0  0  0  0  0
   55.6910   29.5920   44.5560 C   0  0  0  0  0  0  0  0  0  0  0  0
   56.9803   26.2612   47.8667 H   0  0  0  0  0  0  0  0  0  0  0  0
   58.2710   25.3227   47.0420 H   0  0  0  0  0  0  0  0  0  0  0  0
   58.3265   27.1181   47.0420 H   0  0  0  0  0  0  0  0  0  0  0  0
   57.5445   26.1996   44.8568 H   0  0  0  0  0  0  0  0  0  0  0  0
   56.1640   25.4107   45.7136 H   0  0  0  0  0  0  0  0  0  0  0  0
   58.6496   28.4174   45.8032 H   0  0  0  0  0  0  0  0  0  0  0  0
   59.4171   30.6369   44.9767 H   0  0  0  0  0  0  0  0  0  0  0  0
   58.8854   32.4506   43.2652 H   0  0  0  0  0  0  0  0  0  0  0  0
   57.1378   32.9659   43.1019 H   0  0  0  0  0  0  0  0  0  0  0  0
   59.9094   34.1824   43.9619 H   0  0  0  0  0  0  0  0  0  0  0  0
   59.2521   35.2784   45.2610 H   0  0  0  0  0  0  0  0  0  0  0  0
   60.6656   32.6033   45.6063 H   0  0  0  0  0  0  0  0  0  0  0  0
   61.1936   34.2310   46.1691 H   0  0  0  0  0  0  0  0  0  0  0  0
   58.5234   33.0927   49.6862 H   0  0  0  0  0  0  0  0  0  0  0  0
   59.7000   33.3628   51.8696 H   0  0  0  0  0  0  0  0  0  0  0  0
   62.1247   33.9572   51.9195 H   0  0  0  0  0  0  0  0  0  0  0  0
   63.3739   34.2866   49.7845 H   0  0  0  0  0  0  0  0  0  0  0  0
   62.2061   34.0188   47.5963 H   0  0  0  0  0  0  0  0  0  0  0  0
   58.5067   31.6253   46.8899 H   0  0  0  0  0  0  0  0  0  0  0  0
   57.8347   32.7171   48.1552 H   0  0  0  0  0  0  0  0  0  0  0  0
   56.5585   32.6556   45.9384 H   0  0  0  0  0  0  0  0  0  0  0  0
   57.0872   34.2959   46.5333 H   0  0  0  0  0  0  0  0  0  0  0  0
   55.4057   31.5180   43.6078 H   0  0  0  0  0  0  0  0  0  0  0  0
   54.6386   29.2979   44.4297 H   0  0  0  0  0  0  0  0  0  0  0  0
  1  2  1  0
  2  3  1  0
  3  4  1  0
  4  5  2  0
  5  6  1  0
  6  7  2  0
  7  8  1  0
  8  9  1  0
  9 10  1  0
 10 11  1  0
 11 12  1  0
 12 13  1  0
 13 14  2  0
 14 15  1  0
 15 16  2  0
 16 17  1  0
 17 18  2  0
 12 19  1  0
 19 20  1  0
  7 21  1  0
 21 22  2  0
 22  4  1  0
 20  9  1  0
 18 13  1  0
  1 23  1  0
  1 24  1  0
  1 25  1  0
  2 26  1  0
  2 27  1  0
  5 28  1  0
  6 29  1  0
  8 30  1  0
  8 31  1  0
 10 32  1  0
 10 33  1  0
 11 34  1  0
 11 35  1  0
 14 36  1  0
 15 37  1  0
 16 38  1  0
 17 39  1  0
 18 40  1  0
 19 41  1  0
 19 42  1  0
 20 43  1  0
 20 44  1  0
 21 45  1  0
 22 46  1  0
M  END
>  <UniqueID>  (2) 
2

>  <SMILES>  (2) 
CCOc1ccc(CN2CCN(c3ccccc3)CC2)cc1

>  <Energy>  (2) 
57.27012366244577

>  <Genealogy>  (2) 
CCOc1ccc(CN2CCN(c3ccccc3)CC2)cc1 (3D coordinates assigned)
CCOc1ccc(CN2CCN(c3ccccc3)CC2)cc1 (nonaromatic ring conformer: 57.27012366244577 kcal/mol)

>  <smiles>  (2) 
CCOc1ccc(CN2CCN(c3ccccc3)CC2)cc1

>  <score_type>  (2) 
oracle

>  <origin>  (2) 
adg

>  <m_score__min__energy>  (2) 
-6.9900000000000002

>  <m_primary>  (2) 
energy

$$$$
2:0
     RDKit          3D

 48 50  0  0  0  0  0  0  0  0999 V2000
   63.4100   33.3570   46.7690 C   0  0  0  0  0  0  0  0  0  0  0  0
   62.9090   33.8380   48.1350 C   0  0  0  0  0  0  0  0  0  0  0  0
   62.5950   32.7120   49.0540 N   0  0  1  0  0  0  0  0  0  0  0  0
   63.7050   32.4970   50.0050 C   0  0  0  0  0  0  0  0  0  0  0  0
   61.3400   32.9780   49.8050 C   0  0  0  0  0  0  0  0  0  0  0  0
   60.2670   31.9020   49.5530 C   0  0  0  0  0  0  0  0  0  0  0  0
   60.7970   30.8270   48.7770 O   0  0  0  0  0  0  0  0  0  0  0  0
   60.8250   30.8290   47.3770 C   0  0  0  0  0  0  0  0  0  0  0  0
   61.9190   30.7620   46.7520 O   0  0  0  0  0  0  0  0  0  0  0  0
   59.5550   30.8870   46.6240 C   0  0  0  0  0  0  0  0  0  0  0  0
   58.9790   32.1380   46.2930 C   0  0  0  0  0  0  0  0  0  0  0  0
   57.7650   32.1700   45.5880 C   0  0  0  0  0  0  0  0  0  0  0  0
   57.1590   31.0170   45.2110 N   0  0  0  0  0  0  0  0  0  0  0  0
   57.6900   29.7990   45.4870 C   0  0  0  0  0  0  0  0  0  0  0  0
   57.0190   28.6450   45.0670 C   0  0  0  0  0  0  0  0  0  0  0  0
   57.5350   27.3830   45.3700 C   0  0  0  0  0  0  0  0  0  0  0  0
   58.7150   27.2680   46.1040 C   0  0  0  0  0  0  0  0  0  0  0  0
   59.3930   28.4130   46.5310 C   0  0  0  0  0  0  0  0  0  0  0  0
   58.9010   29.6980   46.2140 C   0  0  0  0  0  0  0  0  0  0  0  0
   57.0920   33.4870   45.3250 C   0  0  0  0  0  0  0  0  0  0  0  0
   58.0880   34.5810   44.8880 C   0  0  0  0  0  0  0  0  0  0  0  0
   59.5200   34.4240   45.4540 C   0  0  0  0  0  0  0  0  0  0  0  0
   59.6080   33.4670   46.6510 C   0  0  0  0  0  0  0  0  0  0  0  0
   64.1967   32.6017   46.9122 H   0  0  0  0  0  0  0  0  0  0  0  0
   62.5744   32.9141   46.2071 H   0  0  0  0  0  0  0  0  0  0  0  0
   63.8185   34.2099   46.2071 H   0  0  0  0  0  0  0  0  0  0  0  0
   63.6875   34.4635   48.5962 H   0  0  0  0  0  0  0  0  0  0  0  0
   61.9806   34.4046   47.9704 H   0  0  0  0  0  0  0  0  0  0  0  0
   62.4830   31.8320   48.4990 H   0  0  0  0  0  0  0  0  0  0  0  0
   63.3251   32.5706   51.0347 H   0  0  0  0  0  0  0  0  0  0  0  0
   64.1374   31.4984   49.8442 H   0  0  0  0  0  0  0  0  0  0  0  0
   64.4790   33.2619   49.8442 H   0  0  0  0  0  0  0  0  0  0  0  0
   61.5701   33.0027   50.8804 H   0  0  0  0  0  0  0  0  0  0  0  0
   60.9381   33.9411   49.4572 H   0  0  0  0  0  0  0  0  0  0  0  0
   59.9159   31.5101   50.5190 H   0  0  0  0  0  0  0  0  0  0  0  0
   59.4340   32.3589   48.9985 H   0  0  0  0  0  0  0  0  0  0  0  0
   56.0825   28.7321   44.4966 H   0  0  0  0  0  0  0  0  0  0  0  0
   57.0098   26.4786   45.0291 H   0  0  0  0  0  0  0  0  0  0  0  0
   59.1137   26.2722   46.3479 H   0  0  0  0  0  0  0  0  0  0  0  0
   60.3174   28.3124   47.1188 H   0  0  0  0  0  0  0  0  0  0  0  0
   56.3465   33.3495   44.5279 H   0  0  0  0  0  0  0  0  0  0  0  0
   56.6231   33.8168   46.2638 H   0  0  0  0  0  0  0  0  0  0  0  0
   58.1513   34.5662   43.7899 H   0  0  0  0  0  0  0  0  0  0  0  0
   57.7003   35.5288   45.2897 H   0  0  0  0  0  0  0  0  0  0  0  0
   60.1697   34.0401   44.6537 H   0  0  0  0  0  0  0  0  0  0  0  0
   59.8355   35.4155   45.8108 H   0  0  0  0  0  0  0  0  0  0  0  0
   60.6639   33.3113   46.9170 H   0  0  0  0  0  0  0  0  0  0  0  0
   59.0708   33.9043   47.5055 H   0  0  0  0  0  0  0  0  0  0  0  0
  1  2  1  0
  2  3  1  0
  3  4  1  0
  3  5  1  0
  5  6  1  0
  6  7  1  0
  7  8  1  0
  8  9  2  0
  8 10  1  0
 10 11  2  0
 11 12  1  0
 12 13  2  0
 13 14  1  0
 14 15  2  0
 15 16  1  0
 16 17  2  0
 17 18  1  0
 18 19  2  0
 12 20  1  0
 20 21  1  0
 21 22  1  0
 22 23  1  0
 19 10  1  0
 23 11  1  0
 19 14  1  0
  1 24  1  0
  1 25  1  0
  1 26  1  0
  2 27  1  0
  2 28  1  0
  3 29  1  6
  4 30  1  0
  4 31  1  0
  4 32  1  0
  5 33  1  0
  5 34  1  0
  6 35  1  0
  6 36  1  0
 15 37  1  0
 16 38  1  0
 17 39  1  0
 18 40  1  0
 20 41  1  0
 20 42  1  0
 21 43  1  0
 21 44  1  0
 22 45  1  0
 22 46  1  0
 23 47  1  0
 23 48  1  0
M  CHG  1   3   1
M  END
>  <UniqueID>  (3) 
3

>  <SMILES>  (3) 
CC[N@@H+](C)CCOC(=O)c1c2c(nc3ccccc13)CCCC2

>  <Energy>  (3) 
64.04400139677395

>  <Genealogy>  (3) 
CC[NH+](C)CCOC(=O)c1c2c(nc3ccccc13)CCCC2 (protonated)
CC[N@@H+](C)CCOC(=O)c1c2c(nc3ccccc13)CCCC2 (chirality)
CC[N@@H+](C)CCOC(=O)c1c2c(nc3ccccc13)CCCC2 (3D coordinates assigned)
CC[N@@H+](C)CCOC(=O)c1c2c(nc3ccccc13)CCCC2 (nonaromatic ring conformer: 64.04400139677395 kcal/mol)

>  <smiles>  (3) 
CCN(C)CCOC(=O)c1c2c(nc3ccccc13)CCCC2

>  <score_type>  (3) 
oracle

>  <origin>  (3) 
adg

>  <m_score__min__energy>  (3) 
-5.6200000000000001

>  <m_primary>  (3) 
energy

$$$$
3:0
     RDKit          3D

 46 48  0  0  0  0  0  0  0  0999 V2000
   59.7320   34.0900   47.7140 C   0  0  0  0  0  0  0  0  0  0  0  0
   61.1700   33.6290   47.9440 C   0  0  0  0  0  0  0  0  0  0  0  0
   61.3320   32.2090   47.5640 N   0  0  0  0  0  0  0  0  0  0  0  0
   62.7430   31.7520   47.5720 C   0  0  0  0  0  0  0  0  0  0  0  0
   63.6480   32.8950   47.1320 C   0  0  0  0  0  0  0  0  0  0  0  0
   60.4310   31.3070   48.3170 C   0  0  0  0  0  0  0  0  0  0  0  0
   60.7240   29.8110   48.0870 C   0  0  0  0  0  0  0  0  0  0  0  0
   60.4810   29.4460   46.6910 N   0  0  0  0  0  0  0  0  0  0  0  0
   59.1500   29.3130   46.1630 C   0  0  0  0  0  0  0  0  0  0  0  0
   58.5140   30.4140   45.5420 C   0  0  0  0  0  0  0  0  0  0  0  0
   59.1990   31.6280   45.3250 C   0  0  0  0  0  0  0  0  0  0  0  0
   58.5550   32.7120   44.7280 C   0  0  0  0  0  0  0  0  0  0  0  0
   57.2270   32.6020   44.3250 C   0  0  0  0  0  0  0  0  0  0  0  0
   56.5370   31.4030   44.5050 C   0  0  0  0  0  0  0  0  0  0  0  0
   57.1700   30.2960   45.1020 C   0  0  0  0  0  0  0  0  0  0  0  0
   56.4840   29.0780   45.2520 C   0  0  0  0  0  0  0  0  0  0  0  0
   55.1620   28.9680   44.8240 O   0  0  0  0  0  0  0  0  0  0  0  0
   57.1290   27.9670   45.8250 C   0  0  0  0  0  0  0  0  0  0  0  0
   56.4530   26.7380   45.9590 C   0  0  0  0  0  0  0  0  0  0  0  0
   57.0930   25.6370   46.5280 C   0  0  0  0  0  0  0  0  0  0  0  0
   58.4090   25.7420   46.9690 C   0  0  0  0  0  0  0  0  0  0  0  0
   59.0960   26.9500   46.8460 C   0  0  0  0  0  0  0  0  0  0  0  0
   58.4700   28.0790   46.2750 C   0  0  0  0  0  0  0  0  0  0  0  0
   59.2381   34.2483   48.6841 H   0  0  0  0  0  0  0  0  0  0  0  0
   59.7354   35.0321   47.1462 H   0  0  0  0  0  0  0  0  0  0  0  0
   59.1870   33.3216   47.1462 H   0  0  0  0  0  0  0  0  0  0  0  0
   61.8482   34.2451   47.3353 H   0  0  0  0  0  0  0  0  0  0  0  0
   61.4093   33.7383   49.0121 H   0  0  0  0  0  0  0  0  0  0  0  0
   63.0202   31.4349   48.5882 H   0  0  0  0  0  0  0  0  0  0  0  0
   62.8585   30.9049   46.8799 H   0  0  0  0  0  0  0  0  0  0  0  0
   64.0519   33.4051   48.0189 H   0  0  0  0  0  0  0  0  0  0  0  0
   64.4770   32.4952   46.5296 H   0  0  0  0  0  0  0  0  0  0  0  0
   63.0687   33.6103   46.5296 H   0  0  0  0  0  0  0  0  0  0  0  0
   60.5407   31.5221   49.3902 H   0  0  0  0  0  0  0  0  0  0  0  0
   59.4093   31.4954   47.9555 H   0  0  0  0  0  0  0  0  0  0  0  0
   61.7757   29.6064   48.3361 H   0  0  0  0  0  0  0  0  0  0  0  0
   60.0575   29.2168   48.7295 H   0  0  0  0  0  0  0  0  0  0  0  0
   61.2910   29.1920   46.0820 H   0  0  0  0  0  0  0  0  0  0  0  0
   60.2519   31.7209   45.6297 H   0  0  0  0  0  0  0  0  0  0  0  0
   59.0981   33.6563   44.5753 H   0  0  0  0  0  0  0  0  0  0  0  0
   56.7206   33.4626   43.8635 H   0  0  0  0  0  0  0  0  0  0  0  0
   55.4899   31.3217   44.1779 H   0  0  0  0  0  0  0  0  0  0  0  0
   55.4131   26.6462   45.6124 H   0  0  0  0  0  0  0  0  0  0  0  0
   56.5558   24.6824   46.6286 H   0  0  0  0  0  0  0  0  0  0  0  0
   58.9088   24.8699   47.4158 H   0  0  0  0  0  0  0  0  0  0  0  0
   60.1358   27.0234   47.1974 H   0  0  0  0  0  0  0  0  0  0  0  0
  1  2  1  0
  2  3  1  0
  3  4  1  0
  4  5  1  0
  3  6  1  0
  6  7  1  0
  7  8  1  0
  8  9  1  0
  9 10  2  0
 10 11  1  0
 11 12  2  0
 12 13  1  0
 13 14  2  0
 14 15  1  0
 15 16  2  0
 16 17  1  0
 16 18  1  0
 18 19  2  0
 19 20  1  0
 20 21  2  0
 21 22  1  0
 22 23  2  0
 23  9  1  0
 15 10  1  0
 23 18  1  0
  1 24  1  0
  1 25  1  0
  1 26  1  0
  2 27  1  0
  2 28  1  0
  4 29  1  0
  4 30  1  0
  5 31  1  0
  5 32  1  0
  5 33  1  0
  6 34  1  0
  6 35  1  0
  7 36  1  0
  7 37  1  0
  8 38  1  0
 11 39  1  0
 12 40  1  0
 13 41  1  0
 14 42  1  0
 19 43  1  0
 20 44  1  0
 21 45  1  0
 22 46  1  0
M  CHG  1  17  -1
M  END
>  <UniqueID>  (4) 
4

>  <SMILES>  (4) 
CCN(CC)CCNc1c2ccccc2c([O-])c2ccccc12

>  <Energy>  (4) 
62.887072260986876

>  <Genealogy>  (4) 
CCN(CC)CCNc1c2ccccc2c([O-])c2ccccc12 (protonated)
CCN(CC)CCNc1c2ccccc2c([O-])c2ccccc12 (3D coordinates assigned)
CCN(CC)CCNc1c2ccccc2c([O-])c2ccccc12 (optimized conformer: 62.887072260986876 kcal/mol)

>  <smiles>  (4) 
CCN(CC)CCNc1c2ccccc2c(O)c2ccccc12

>  <score_type>  (4) 
oracle

>  <origin>  (4) 
adg

>  <m_score__min__energy>  (4) 
-9.8200000000000003

>  <m_primary>  (4) 
energy

$$$$
4:0
     RDKit          3D

 35 36  0  0  0  0  0  0  0  0999 V2000
   57.5370   25.9100   46.6990 C   0  0  0  0  0  0  0  0  0  0  0  0
   57.3090   26.7070   45.4200 C   0  0  0  0  0  0  0  0  0  0  0  0
   56.2670   27.7090   45.6210 N   0  0  0  0  0  0  0  0  0  0  0  0
   56.2590   29.0330   45.0700 C   0  0  0  0  0  0  0  0  0  0  0  0
   55.1490   29.5920   44.8660 O   0  0  0  0  0  0  0  0  0  0  0  0
   57.5290   29.7330   44.6420 C   0  0  1  0  0  0  0  0  0  0  0  0
   57.2120   30.9980   43.7960 C   0  0  0  0  0  0  0  0  0  0  0  0
   57.9140   32.0880   44.5290 C   0  0  0  0  0  0  0  0  0  0  0  0
   58.0370   33.4270   44.1560 C   0  0  0  0  0  0  0  0  0  0  0  0
   58.8040   34.2810   44.9640 C   0  0  0  0  0  0  0  0  0  0  0  0
   59.4450   33.7800   46.1130 C   0  0  0  0  0  0  0  0  0  0  0  0
   59.3130   32.4280   46.4640 C   0  0  0  0  0  0  0  0  0  0  0  0
   58.5130   31.6040   45.6620 C   0  0  0  0  0  0  0  0  0  0  0  0
   58.2800   30.2110   45.8090 N   0  0  0  0  0  0  0  0  0  0  0  0
   58.8400   29.3480   46.8110 C   0  0  0  0  0  0  0  0  0  0  0  0
   58.4140   29.4170   47.9960 O   0  0  0  0  0  0  0  0  0  0  0  0
   59.9670   28.4110   46.4830 C   0  0  0  0  0  0  0  0  0  0  0  0
   60.6820   28.8390   45.2050 C   0  0  0  0  0  0  0  0  0  0  0  0
   57.3525   26.5550   47.5708 H   0  0  0  0  0  0  0  0  0  0  0  0
   56.8480   25.0529   46.7247 H   0  0  0  0  0  0  0  0  0  0  0  0
   58.5750   25.5469   46.7247 H   0  0  0  0  0  0  0  0  0  0  0  0
   58.2449   27.2101   45.1353 H   0  0  0  0  0  0  0  0  0  0  0  0
   56.9912   26.0181   44.6234 H   0  0  0  0  0  0  0  0  0  0  0  0
   58.1070   28.9984   44.0622 H   0  0  0  0  0  0  0  0  0  0  0  0
   57.6036   30.8958   42.7731 H   0  0  0  0  0  0  0  0  0  0  0  0
   56.1331   31.1809   43.6846 H   0  0  0  0  0  0  0  0  0  0  0  0
   57.5436   33.8051   43.2485 H   0  0  0  0  0  0  0  0  0  0  0  0
   58.9044   35.3438   44.6989 H   0  0  0  0  0  0  0  0  0  0  0  0
   60.0519   34.4514   46.7382 H   0  0  0  0  0  0  0  0  0  0  0  0
   59.8262   32.0241   47.3491 H   0  0  0  0  0  0  0  0  0  0  0  0
   60.6871   28.4100   47.3146 H   0  0  0  0  0  0  0  0  0  0  0  0
   59.5514   27.4040   46.3307 H   0  0  0  0  0  0  0  0  0  0  0  0
   61.5992   29.3881   45.4643 H   0  0  0  0  0  0  0  0  0  0  0  0
   60.9424   27.9481   44.6146 H   0  0  0  0  0  0  0  0  0  0  0  0
   60.0198   29.4894   44.6146 H   0  0  0  0  0  0  0  0  0  0  0  0
  1  2  1  0
  2  3  1  0
  3  4  1  0
  4  5  2  0
  4  6  1  0
  6  7  1  0
  7  8  1  0
  8  9  2  0
  9 10  1  0
 10 11  2  0
 11 12  1  0
 12 13  2  0
 13 14  1  0
 14 15  1  0
 15 16  2  0
 15 17  1  0
 17 18  1  0
 14  6  1  0
 13  8  1  0
  1 19  1  0
  1 20  1  0
  1 21  1  0
  2 22  1  0
  2 23  1  0
  6 24  1  6
  7 25  1  0
  7 26  1  0
  9 27  1  0
 10 28  1  0
 11 29  1  0
 12 30  1  0
 17 31  1  0
 17 32  1  0
 18 33  1  0
 18 34  1  0
 18 35  1  0
M  CHG  1   3  -1
M  END
>  <UniqueID>  (5) 
5

>  <SMILES>  (5) 
CC[N-]C(=O)[C@H]1Cc2ccccc2N1C(=O)CC

>  <Energy>  (5) 
46.082667073024226

>  <Genealogy>  (5) 
CC[N-]C(=O)C1Cc2ccccc2N1C(=O)CC (protonated)
CC[N-]C(=O)[C@H]1Cc2ccccc2N1C(=O)CC (chirality)
CC[N-]C(=O)[C@H]1Cc2ccccc2N1C(=O)CC (3D coordinates assigned)
CC[N-]C(=O)[C@H]1Cc2ccccc2N1C(=O)CC (nonaromatic ring conformer: 46.082667073024226 kcal/mol)

>  <smiles>  (5) 
CCNC(=O)C1Cc2ccccc2N1C(=O)CC

>  <score_type>  (5) 
oracle

>  <origin>  (5) 
adg

>  <m_score__min__energy>  (5) 
-8.3399999999999999

>  <m_primary>  (5) 
energy

$$$$
5:0
     RDKit          3D

 31 33  0  0  0  0  0  0  0  0999 V2000
   59.2810   32.6280   50.5150 C   0  0  0  0  0  0  0  0  0  0  0  0
   60.0390   33.8990   50.1380 C   0  0  0  0  0  0  0  0  0  0  0  0
   61.1360   33.5970   49.2130 N   0  0  0  0  0  0  0  0  0  0  0  0
   61.1280   33.5660   47.8460 C   0  0  0  0  0  0  0  0  0  0  0  0
   59.9420   33.7970   46.9950 C   0  0  0  0  0  0  0  0  0  0  0  0
   58.7630   33.0530   47.1710 C   0  0  0  0  0  0  0  0  0  0  0  0
   57.6600   33.2710   46.3400 C   0  0  0  0  0  0  0  0  0  0  0  0
   57.7290   34.2220   45.3190 C   0  0  0  0  0  0  0  0  0  0  0  0
   56.6590   34.4310   44.5120 F   0  0  0  0  0  0  0  0  0  0  0  0
   58.9050   34.9500   45.1210 C   0  0  0  0  0  0  0  0  0  0  0  0
   60.0100   34.7350   45.9510 C   0  0  0  0  0  0  0  0  0  0  0  0
   62.3610   33.3660   47.3050 N   0  0  0  0  0  0  0  0  0  0  0  0
   63.1470   33.2550   48.3890 C   0  0  0  0  0  0  0  0  0  0  0  0
   64.4910   33.0720   48.3940 N   0  0  0  0  0  0  0  0  0  0  0  0
   65.1490   33.0290   49.5940 C   0  0  0  0  0  0  0  0  0  0  0  0
   64.4390   33.1850   50.8060 C   0  0  0  0  0  0  0  0  0  0  0  0
   63.0470   33.3820   50.7810 C   0  0  0  0  0  0  0  0  0  0  0  0
   62.4280   33.4000   49.5320 C   0  0  0  0  0  0  0  0  0  0  0  0
   59.2301   32.5427   51.6105 H   0  0  0  0  0  0  0  0  0  0  0  0
   58.2620   32.6729   50.1030 H   0  0  0  0  0  0  0  0  0  0  0  0
   59.8048   31.7528   50.1030 H   0  0  0  0  0  0  0  0  0  0  0  0
   59.3448   34.6032   49.6562 H   0  0  0  0  0  0  0  0  0  0  0  0
   60.4610   34.3417   51.0523 H   0  0  0  0  0  0  0  0  0  0  0  0
   58.7076   32.2953   47.9665 H   0  0  0  0  0  0  0  0  0  0  0  0
   56.7364   32.6928   46.4904 H   0  0  0  0  0  0  0  0  0  0  0  0
   58.9618   35.6928   44.3117 H   0  0  0  0  0  0  0  0  0  0  0  0
   60.9372   35.3032   45.7856 H   0  0  0  0  0  0  0  0  0  0  0  0
   65.0180   32.9720   47.4980 H   0  0  0  0  0  0  0  0  0  0  0  0
   66.2375   32.8720   49.6148 H   0  0  0  0  0  0  0  0  0  0  0  0
   64.9741   33.1524   51.7665 H   0  0  0  0  0  0  0  0  0  0  0  0
   62.4706   33.5163   51.7082 H   0  0  0  0  0  0  0  0  0  0  0  0
  1  2  1  0
  2  3  1  0
  3  4  1  0
  4  5  1  0
  5  6  2  0
  6  7  1  0
  7  8  2  0
  8  9  1  0
  8 10  1  0
 10 11  2  0
  4 12  2  0
 12 13  1  0
 13 14  2  0
 14 15  1  0
 15 16  2  0
 16 17  1  0
 17 18  2  0
 18  3  1  0
 11  5  1  0
 18 13  1  0
  1 19  1  0
  1 20  1  0
  1 21  1  0
  2 22  1  0
  2 23  1  0
  6 24  1  0
  7 25  1  0
 10 26  1  0
 11 27  1  0
 14 28  1  0
 15 29  1  0
 16 30  1  0
 17 31  1  0
M  CHG  1  14   1
M  END
>  <UniqueID>  (6) 
6

>  <SMILES>  (6) 
CCn1c(-c2ccc(F)cc2)nc2[nH+]cccc21

>  <Energy>  (6) 
74.98395990001684

>  <Genealogy>  (6) 
CCn1c(-c2ccc(F)cc2)nc2[nH+]cccc21 (protonated)
CCn1c(-c2ccc(F)cc2)nc2[nH+]cccc21 (3D coordinates assigned)
CCn1c(-c2ccc(F)cc2)nc2[nH+]cccc21 (optimized conformer: 74.98395990001684 kcal/mol)

>  <smiles>  (6) 
CCn1c(-c2ccc(F)cc2)nc2ncccc21

>  <score_type>  (6) 
oracle

>  <origin>  (6) 
adg

>  <m_score__min__energy>  (6) 
-5.0199999999999996

>  <m_primary>  (6) 
energy

$$$$
6:0
     RDKit          3D

 40 41  0  0  0  0  0  0  0  0999 V2000
   57.3940   33.5770   45.0520 C   0  0  0  0  0  0  0  0  0  0  0  0
   57.5410   32.2960   44.2380 C   0  0  0  0  0  0  0  0  0  0  0  0
   56.9380   31.2080   44.9150 O   0  0  0  0  0  0  0  0  0  0  0  0
   56.0830   30.4750   44.0570 C   0  0  0  0  0  0  0  0  0  0  0  0
   56.8540   29.3460   43.3760 C   0  0  0  0  0  0  0  0  0  0  0  0
   57.0370   28.2900   44.2950 O   0  0  0  0  0  0  0  0  0  0  0  0
   58.2740   27.6410   44.0680 C   0  0  0  0  0  0  0  0  0  0  0  0
   59.3610   28.2590   44.9530 C   0  0  0  0  0  0  0  0  0  0  0  0
   58.9480   29.5760   45.4380 N   0  0  0  0  0  0  0  0  0  0  0  0
   59.7630   30.4630   46.2310 C   0  0  0  0  0  0  0  0  0  0  0  0
   61.0450   30.2520   46.3910 N   0  0  0  0  0  0  0  0  0  0  0  0
   61.9410   31.0950   47.1980 C   0  0  0  0  0  0  0  0  0  0  0  0
   61.2720   32.3080   47.7910 C   0  0  0  0  0  0  0  0  0  0  0  0
   62.0080   33.2230   48.5520 C   0  0  0  0  0  0  0  0  0  0  0  0
   61.3740   34.3380   49.1050 C   0  0  0  0  0  0  0  0  0  0  0  0
   60.0070   34.5230   48.8900 C   0  0  0  0  0  0  0  0  0  0  0  0
   59.3070   33.6230   48.1490 N   0  0  0  0  0  0  0  0  0  0  0  0
   59.9050   32.5300   47.6000 C   0  0  0  0  0  0  0  0  0  0  0  0
   59.1430   31.6080   46.8290 N   0  0  0  0  0  0  0  0  0  0  0  0
   57.4218   33.3350   46.1247 H   0  0  0  0  0  0  0  0  0  0  0  0
   58.2194   34.2624   44.8093 H   0  0  0  0  0  0  0  0  0  0  0  0
   56.4348   34.0576   44.8093 H   0  0  0  0  0  0  0  0  0  0  0  0
   57.0537   32.4297   43.2609 H   0  0  0  0  0  0  0  0  0  0  0  0
   58.6112   32.0816   44.1009 H   0  0  0  0  0  0  0  0  0  0  0  0
   55.2584   30.0471   44.6460 H   0  0  0  0  0  0  0  0  0  0  0  0
   55.6852   31.1514   43.2862 H   0  0  0  0  0  0  0  0  0  0  0  0
   56.2850   28.9835   42.5072 H   0  0  0  0  0  0  0  0  0  0  0  0
   57.8331   29.7172   43.0392 H   0  0  0  0  0  0  0  0  0  0  0  0
   58.1737   26.5721   44.3074 H   0  0  0  0  0  0  0  0  0  0  0  0
   58.5565   27.7623   43.0118 H   0  0  0  0  0  0  0  0  0  0  0  0
   59.5443   27.5988   45.8135 H   0  0  0  0  0  0  0  0  0  0  0  0
   60.2784   28.3740   44.3570 H   0  0  0  0  0  0  0  0  0  0  0  0
   57.9770   29.8850   45.2070 H   0  0  0  0  0  0  0  0  0  0  0  0
   61.5040   29.4330   45.9360 H   0  0  0  0  0  0  0  0  0  0  0  0
   62.3425   30.4847   48.0204 H   0  0  0  0  0  0  0  0  0  0  0  0
   62.7263   31.4634   46.5215 H   0  0  0  0  0  0  0  0  0  0  0  0
   63.0843   33.0644   48.7145 H   0  0  0  0  0  0  0  0  0  0  0  0
   61.9457   35.0626   49.7035 H   0  0  0  0  0  0  0  0  0  0  0  0
   59.4961   35.3970   49.3201 H   0  0  0  0  0  0  0  0  0  0  0  0
   58.1190   31.7740   46.6960 H   0  0  0  0  0  0  0  0  0  0  0  0
  1  2  1  0
  2  3  1  0
  3  4  1  0
  4  5  1  0
  5  6  1  0
  6  7  1  0
  7  8  1  0
  8  9  1  0
  9 10  1  0
 10 11  2  0
 11 12  1  0
 12 13  1  0
 13 14  2  0
 14 15  1  0
 15 16  2  0
 16 17  1  0
 17 18  2  0
 18 19  1  0
 19 10  1  0
 18 13  1  0
  1 20  1  0
  1 21  1  0
  1 22  1  0
  2 23  1  0
  2 24  1  0
  4 25  1  0
  4 26  1  0
  5 27  1  0
  5 28  1  0
  7 29  1  0
  7 30  1  0
  8 31  1  0
  8 32  1  0
  9 33  1  0
 11 34  1  0
 12 35  1  0
 12 36  1  0
 14 37  1  0
 15 38  1  0
 16 39  1  0
 19 40  1  0
M  CHG  1  11   1
M  END
>  <UniqueID>  (7) 
7

>  <SMILES>  (7) 
CCOCCOCCNC1=[NH+]Cc2cccnc2N1

>  <Energy>  (7) 
40.14355530481856

>  <Genealogy>  (7) 
CCOCCOCCNC1=[NH+]Cc2cccnc2N1 (protonated)
CCOCCOCCNC1=[NH+]Cc2cccnc2N1 (3D coordinates assigned)
CCOCCOCCNC1=[NH+]Cc2cccnc2N1 (nonaromatic ring conformer: 40.14355530481856 kcal/mol)

>  <smiles>  (7) 
CCOCCOCCNC1=NCc2cccnc2N1

>  <score_type>  (7) 
oracle

>  <origin>  (7) 
adg

>  <m_score__min__energy>  (7) 
-3.79

>  <m_primary>  (7) 
energy

$$$$
7:0
     RDKit          3D

 59 61  0  0  0  0  0  0  0  0999 V2000
   57.3450   32.3520   40.9910 C   0  0  0  0  0  0  0  0  0  0  0  0
   57.6870   31.7850   42.3640 C   0  0  0  0  0  0  0  0  0  0  0  0
   56.8610   30.5310   42.6650 C   0  0  0  0  0  0  0  0  0  0  0  0
   56.3570   30.5410   44.1180 C   0  0  0  0  0  0  0  0  0  0  0  0
   57.3340   29.8460   45.0790 C   0  0  0  0  0  0  0  0  0  0  0  0
   58.8050   30.2940   44.9290 C   0  0  0  0  0  0  0  0  0  0  0  0
   59.2780   31.0790   46.1030 N   0  0  0  0  0  0  0  0  0  0  0  0
   59.3340   32.4700   46.0570 C   0  0  0  0  0  0  0  0  0  0  0  0
   58.8780   33.2200   44.9360 C   0  0  0  0  0  0  0  0  0  0  0  0
   58.9540   34.6080   44.9040 C   0  0  0  0  0  0  0  0  0  0  0  0
   59.4780   35.3040   45.9840 C   0  0  0  0  0  0  0  0  0  0  0  0
   59.9270   34.6130   47.1020 C   0  0  0  0  0  0  0  0  0  0  0  0
   59.8640   33.2040   47.1570 C   0  0  0  0  0  0  0  0  0  0  0  0
   60.3330   32.5230   48.2890 C   0  0  0  0  0  0  0  0  0  0  0  0
   60.9340   33.2520   49.3740 N   0  0  0  0  0  0  0  0  0  0  0  0
   62.2410   33.8920   49.2370 C   0  0  0  0  0  0  0  0  0  0  0  0
   63.3390   32.8250   49.0850 C   0  0  0  0  0  0  0  0  0  0  0  0
   63.8110   32.6850   47.6860 N   0  0  0  0  0  0  0  0  0  0  0  0
   63.3470   33.8000   46.8390 C   0  0  0  0  0  0  0  0  0  0  0  0
   63.3290   31.4110   47.1210 C   0  0  0  0  0  0  0  0  0  0  0  0
   60.2070   31.1280   48.3620 C   0  0  0  0  0  0  0  0  0  0  0  0
   60.5810   30.4420   49.5390 C   0  0  0  0  0  0  0  0  0  0  0  0
   60.4640   29.0600   49.6270 C   0  0  0  0  0  0  0  0  0  0  0  0
   59.9630   28.3390   48.5550 C   0  0  0  0  0  0  0  0  0  0  0  0
   59.5700   28.9930   47.3890 C   0  0  0  0  0  0  0  0  0  0  0  0
   59.6760   30.4070   47.2560 C   0  0  0  0  0  0  0  0  0  0  0  0
   56.7803   33.2883   41.1112 H   0  0  0  0  0  0  0  0  0  0  0  0
   58.2730   32.5523   40.4355 H   0  0  0  0  0  0  0  0  0  0  0  0
   56.7349   31.6246   40.4355 H   0  0  0  0  0  0  0  0  0  0  0  0
   58.7557   31.5257   42.3894 H   0  0  0  0  0  0  0  0  0  0  0  0
   57.4552   32.5462   43.1235 H   0  0  0  0  0  0  0  0  0  0  0  0
   55.9974   30.4968   41.9846 H   0  0  0  0  0  0  0  0  0  0  0  0
   57.4994   29.6469   42.5207 H   0  0  0  0  0  0  0  0  0  0  0  0
   56.2264   31.5847   44.4399 H   0  0  0  0  0  0  0  0  0  0  0  0
   55.4058   29.9893   44.1480 H   0  0  0  0  0  0  0  0  0  0  0  0
   57.0130   30.0590   46.1093 H   0  0  0  0  0  0  0  0  0  0  0  0
   57.3060   28.7741   44.8337 H   0  0  0  0  0  0  0  0  0  0  0  0
   59.4380   29.4007   44.8222 H   0  0  0  0  0  0  0  0  0  0  0  0
   58.8715   30.9411   44.0419 H   0  0  0  0  0  0  0  0  0  0  0  0
   58.4542   32.6871   44.0721 H   0  0  0  0  0  0  0  0  0  0  0  0
   58.5975   35.1562   44.0195 H   0  0  0  0  0  0  0  0  0  0  0  0
   59.5377   36.4020   45.9547 H   0  0  0  0  0  0  0  0  0  0  0  0
   60.3373   35.1714   47.9563 H   0  0  0  0  0  0  0  0  0  0  0  0
   60.4040   33.3680   50.2640 H   0  0  0  0  0  0  0  0  0  0  0  0
   62.2375   34.5397   48.3479 H   0  0  0  0  0  0  0  0  0  0  0  0
   62.4441   34.4919   50.1364 H   0  0  0  0  0  0  0  0  0  0  0  0
   64.1933   33.1064   49.7182 H   0  0  0  0  0  0  0  0  0  0  0  0
   62.9084   31.8594   49.3887 H   0  0  0  0  0  0  0  0  0  0  0  0
   64.8590   32.6630   47.6720 H   0  0  0  0  0  0  0  0  0  0  0  0
   63.0029   34.6269   47.4775 H   0  0  0  0  0  0  0  0  0  0  0  0
   64.1753   34.1473   46.2039 H   0  0  0  0  0  0  0  0  0  0  0  0
   62.5168   33.4572   46.2039 H   0  0  0  0  0  0  0  0  0  0  0  0
   63.0685   30.7226   47.9385 H   0  0  0  0  0  0  0  0  0  0  0  0
   62.4394   31.5979   46.5015 H   0  0  0  0  0  0  0  0  0  0  0  0
   64.1195   30.9622   46.5015 H   0  0  0  0  0  0  0  0  0  0  0  0
   60.9700   31.0094   50.3973 H   0  0  0  0  0  0  0  0  0  0  0  0
   60.7688   28.5391   50.5466 H   0  0  0  0  0  0  0  0  0  0  0  0
   59.8751   27.2447   48.6248 H   0  0  0  0  0  0  0  0  0  0  0  0
   59.1685   28.4033   46.5517 H   0  0  0  0  0  0  0  0  0  0  0  0
  1  2  1  0
  2  3  1  0
  3  4  1  0
  4  5  1  0
  5  6  1  0
  6  7  1  0
  7  8  2  0
  8  9  1  0
  9 10  2  0
 10 11  1  0
 11 12  2  0
 12 13  1  0
 13 14  2  0
 14 15  1  0
 15 16  1  0
 16 17  1  0
 17 18  1  0
 18 19  1  0
 18 20  1  0
 14 21  1  0
 21 22  2  0
 22 23  1  0
 23 24  2  0
 24 25  1  0
 25 26  2  0
 26  7  1  0
 13  8  1  0
 26 21  1  0
  1 27  1  0
  1 28  1  0
  1 29  1  0
  2 30  1  0
  2 31  1  0
  3 32  1  0
  3 33  1  0
  4 34  1  0
  4 35  1  0
  5 36  1  0
  5 37  1  0
  6 38  1  0
  6 39  1  0
  9 40  1  0
 10 41  1  0
 11 42  1  0
 12 43  1  0
 15 44  1  0
 16 45  1  0
 16 46  1  0
 17 47  1  0
 17 48  1  0
 18 49  1  0
 19 50  1  0
 19 51  1  0
 19 52  1  0
 20 53  1  0
 20 54  1  0
 20 55  1  0
 22 56  1  0
 23 57  1  0
 24 58  1  0
 25 59  1  0
M  CHG  2   7   1  18   1
M  END
>  <UniqueID>  (8) 
8

>  <SMILES>  (8) 
CCCCCC[n+]1c2ccccc2c(NCC[NH+](C)C)c2ccccc21

>  <Energy>  (8) 
78.79795807694806

>  <Genealogy>  (8) 
CCCCCC[n+]1c2ccccc2c(NCC[NH+](C)C)c2ccccc21 (protonated)
CCCCCC[n+]1c2ccccc2c(NCC[NH+](C)C)c2ccccc21 (3D coordinates assigned)
CCCCCC[n+]1c2ccccc2c(NCC[NH+](C)C)c2ccccc21 (optimized conformer: 78.79795807694806 kcal/mol)

>  <smiles>  (8) 
CCCCCC[n+]1c2ccccc2c(NCCN(C)C)c2ccccc21

>  <score_type>  (8) 
oracle

>  <origin>  (8) 
adg

>  <m_score__min__energy>  (8) 
-5.1100000000000003

>  <m_primary>  (8) 
energy

$$$$
8:0
     RDKit          3D

 58 60  0  0  0  0  0  0  0  0999 V2000
   59.3330   30.1220   45.4110 C   0  0  0  0  0  0  0  0  0  0  0  0
   58.0550   30.6940   46.0170 C   0  0  0  0  0  0  0  0  0  0  0  0
   57.0340   30.8930   44.9610 N   0  0  0  0  0  0  0  0  0  0  0  0
   56.5960   29.5920   44.4010 C   0  0  0  0  0  0  0  0  0  0  0  0
   56.3250   29.7190   42.9040 C   0  0  0  0  0  0  0  0  0  0  0  0
   57.5340   31.7890   43.8920 C   0  0  0  0  0  0  0  0  0  0  0  0
   57.6200   33.2410   44.3830 C   0  0  0  0  0  0  0  0  0  0  0  0
   59.0080   33.7320   44.2960 N   0  0  0  0  0  0  0  0  0  0  0  0
   59.2650   34.8730   45.1860 C   0  0  0  0  0  0  0  0  0  0  0  0
   59.6960   34.3940   46.5350 C   0  0  0  0  0  0  0  0  0  0  0  0
   58.8630   34.0360   47.5700 C   0  0  0  0  0  0  0  0  0  0  0  0
   59.6260   33.5500   48.5650 N   0  0  0  0  0  0  0  0  0  0  0  0
   59.1520   33.0880   49.8410 C   0  0  0  0  0  0  0  0  0  0  0  0
   58.3970   31.9060   49.9410 C   0  0  0  0  0  0  0  0  0  0  0  0
   57.9170   31.4780   51.1820 C   0  0  0  0  0  0  0  0  0  0  0  0
   58.1880   32.2220   52.3340 C   0  0  0  0  0  0  0  0  0  0  0  0
   57.7140   31.7990   53.5320 F   0  0  0  0  0  0  0  0  0  0  0  0
   58.9490   33.3950   52.2460 C   0  0  0  0  0  0  0  0  0  0  0  0
   59.2900   34.3400   53.6870 Cl  0  0  0  0  0  0  0  0  0  0  0  0
   59.4340   33.8220   51.0060 C   0  0  0  0  0  0  0  0  0  0  0  0
   60.9000   33.6110   48.1030 C   0  0  0  0  0  0  0  0  0  0  0  0
   62.0820   33.0620   48.7970 C   0  0  0  0  0  0  0  0  0  0  0  0
   63.1790   33.9020   49.0410 C   0  0  0  0  0  0  0  0  0  0  0  0
   64.3100   33.4120   49.6970 C   0  0  0  0  0  0  0  0  0  0  0  0
   64.3600   32.0780   50.1030 C   0  0  0  0  0  0  0  0  0  0  0  0
   63.2860   31.2250   49.8420 C   0  0  0  0  0  0  0  0  0  0  0  0
   62.1420   31.7040   49.1740 C   0  0  0  0  0  0  0  0  0  0  0  0
   61.0660   30.8590   48.8520 O   0  0  0  0  0  0  0  0  0  0  0  0
   60.8400   29.5770   49.4260 C   0  0  0  0  0  0  0  0  0  0  0  0
   60.9770   34.1240   46.8570 N   0  0  0  0  0  0  0  0  0  0  0  0
   60.0161   29.8162   46.2171 H   0  0  0  0  0  0  0  0  0  0  0  0
   59.0852   29.2489   44.7895 H   0  0  0  0  0  0  0  0  0  0  0  0
   59.8191   30.8885   44.7895 H   0  0  0  0  0  0  0  0  0  0  0  0
   57.6659   29.9949   46.7719 H   0  0  0  0  0  0  0  0  0  0  0  0
   58.2816   31.6632   46.4853 H   0  0  0  0  0  0  0  0  0  0  0  0
   57.3854   28.8435   44.5639 H   0  0  0  0  0  0  0  0  0  0  0  0
   55.6692   29.2812   44.9055 H   0  0  0  0  0  0  0  0  0  0  0  0
   55.3391   30.1811   42.7478 H   0  0  0  0  0  0  0  0  0  0  0  0
   57.1015   30.3470   42.4428 H   0  0  0  0  0  0  0  0  0  0  0  0
   56.3392   28.7205   42.4428 H   0  0  0  0  0  0  0  0  0  0  0  0
   58.5351   31.4547   43.5821 H   0  0  0  0  0  0  0  0  0  0  0  0
   56.8331   31.7475   43.0452 H   0  0  0  0  0  0  0  0  0  0  0  0
   56.9720   33.8737   43.7587 H   0  0  0  0  0  0  0  0  0  0  0  0
   57.2919   33.2828   45.4321 H   0  0  0  0  0  0  0  0  0  0  0  0
   59.1790   34.0570   43.3150 H   0  0  0  0  0  0  0  0  0  0  0  0
   60.0590   35.4991   44.7528 H   0  0  0  0  0  0  0  0  0  0  0  0
   58.3395   35.4576   45.2935 H   0  0  0  0  0  0  0  0  0  0  0  0
   57.7671   34.1306   47.5815 H   0  0  0  0  0  0  0  0  0  0  0  0
   58.1831   31.3152   49.0381 H   0  0  0  0  0  0  0  0  0  0  0  0
   57.3247   30.5537   51.2523 H   0  0  0  0  0  0  0  0  0  0  0  0
   60.0399   34.7379   50.9419 H   0  0  0  0  0  0  0  0  0  0  0  0
   63.1479   34.9518   48.7139 H   0  0  0  0  0  0  0  0  0  0  0  0
   65.1627   34.0785   49.8940 H   0  0  0  0  0  0  0  0  0  0  0  0
   65.2475   31.6976   50.6299 H   0  0  0  0  0  0  0  0  0  0  0  0
   63.3334   30.1730   50.1598 H   0  0  0  0  0  0  0  0  0  0  0  0
   60.8544   29.6587   50.5229 H   0  0  0  0  0  0  0  0  0  0  0  0
   59.8609   29.1965   49.0995 H   0  0  0  0  0  0  0  0  0  0  0  0
   61.6299   28.8846   49.0995 H   0  0  0  0  0  0  0  0  0  0  0  0
  1  2  1  0
  2  3  1  0
  3  4  1  0
  4  5  1  0
  3  6  1  0
  6  7  1  0
  7  8  1  0
  8  9  1  0
  9 10  1  0
 10 11  2  0
 11 12  1  0
 12 13  1  0
 13 14  2  0
 14 15  1  0
 15 16  2  0
 16 17  1  0
 16 18  1  0
 18 19  1  0
 18 20  2  0
 12 21  1  0
 21 22  1  0
 22 23  2  0
 23 24  1  0
 24 25  2  0
 25 26  1  0
 26 27  2  0
 27 28  1  0
 28 29  1  0
 21 30  2  0
 30 10  1  0
 20 13  1  0
 27 22  1  0
  1 31  1  0
  1 32  1  0
  1 33  1  0
  2 34  1  0
  2 35  1  0
  4 36  1  0
  4 37  1  0
  5 38  1  0
  5 39  1  0
  5 40  1  0
  6 41  1  0
  6 42  1  0
  7 43  1  0
  7 44  1  0
  8 45  1  0
  9 46  1  0
  9 47  1  0
 11 48  1  0
 14 49  1  0
 15 50  1  0
 20 51  1  0
 23 52  1  0
 24 53  1  0
 25 54  1  0
 26 55  1  0
 29 56  1  0
 29 57  1  0
 29 58  1  0
M  END
>  <UniqueID>  (9) 
9

>  <SMILES>  (9) 
CCN(CC)CCNCc1cn(-c2ccc(F)c(Cl)c2)c(-c2ccccc2OC)n1

>  <Energy>  (9) 
91.49280285560894

>  <Genealogy>  (9) 
CCN(CC)CCNCc1cn(-c2ccc(F)c(Cl)c2)c(-c2ccccc2OC)n1 (3D coordinates assigned)
CCN(CC)CCNCc1cn(-c2ccc(F)c(Cl)c2)c(-c2ccccc2OC)n1 (optimized conformer: 91.49280285560894 kcal/mol)

>  <smiles>  (9) 
CCN(CC)CCNCc1cn(-c2ccc(F)c(Cl)c2)c(-c2ccccc2OC)n1

>  <score_type>  (9) 
oracle

>  <origin>  (9) 
adg

>  <m_score__min__energy>  (9) 
-7.5199999999999996

>  <m_primary>  (9) 
energy

$$$$
9:0
     RDKit          3D

 46 47  0  0  0  0  0  0  0  0999 V2000
   56.7830   31.2570   52.0920 C   0  0  0  0  0  0  0  0  0  0  0  0
   57.7650   32.0400   51.3440 C   0  0  0  0  0  0  0  0  0  0  0  0
   58.5760   32.6900   50.7310 C   0  0  0  0  0  0  0  0  0  0  0  0
   59.5620   33.4780   49.9880 C   0  0  0  0  0  0  0  0  0  0  0  0
   59.8850   32.8180   48.7180 N   0  0  0  0  0  0  0  0  0  0  0  0
   60.6630   31.5730   48.6970 C   0  0  0  0  0  0  0  0  0  0  0  0
   59.9410   30.5220   47.9120 C   0  0  0  0  0  0  0  0  0  0  0  0
   59.0870   29.7930   48.4880 O   0  0  0  0  0  0  0  0  0  0  0  0
   60.2700   30.3020   46.5330 N   0  0  0  0  0  0  0  0  0  0  0  0
   59.7110   29.1810   45.7700 C   0  0  2  0  0  0  0  0  0  0  0  0
   60.7480   28.6300   44.7870 C   0  0  0  0  0  0  0  0  0  0  0  0
   58.4630   29.6140   45.0330 C   0  0  0  0  0  0  0  0  0  0  0  0
   57.2370   28.9590   45.2500 C   0  0  0  0  0  0  0  0  0  0  0  0
   56.0850   29.3730   44.5740 C   0  0  0  0  0  0  0  0  0  0  0  0
   56.1440   30.4470   43.6820 C   0  0  0  0  0  0  0  0  0  0  0  0
   57.3560   31.1110   43.4680 C   0  0  0  0  0  0  0  0  0  0  0  0
   58.5100   30.7010   44.1420 C   0  0  0  0  0  0  0  0  0  0  0  0
   59.1780   33.2180   47.5290 C   0  0  0  0  0  0  0  0  0  0  0  0
   57.7800   33.1030   47.4950 C   0  0  0  0  0  0  0  0  0  0  0  0
   57.0700   33.4730   46.3510 C   0  0  0  0  0  0  0  0  0  0  0  0
   57.7490   33.9540   45.2300 C   0  0  0  0  0  0  0  0  0  0  0  0
   59.1420   34.0710   45.2490 C   0  0  0  0  0  0  0  0  0  0  0  0
   59.7850   34.5360   44.1480 F   0  0  0  0  0  0  0  0  0  0  0  0
   59.8640   33.7050   46.3960 C   0  0  0  0  0  0  0  0  0  0  0  0
   61.3020   33.8250   46.3910 C   0  0  0  0  0  0  0  0  0  0  0  0
   62.4550   33.9190   46.3870 N   0  0  0  0  0  0  0  0  0  0  0  0
   56.9516   31.3914   53.1707 H   0  0  0  0  0  0  0  0  0  0  0  0
   55.7693   31.5974   51.8341 H   0  0  0  0  0  0  0  0  0  0  0  0
   56.8892   30.1929   51.8341 H   0  0  0  0  0  0  0  0  0  0  0  0
   59.1494   34.4770   49.7837 H   0  0  0  0  0  0  0  0  0  0  0  0
   60.4784   33.5661   50.5900 H   0  0  0  0  0  0  0  0  0  0  0  0
   61.6416   31.7645   48.2327 H   0  0  0  0  0  0  0  0  0  0  0  0
   60.7986   31.2184   49.7294 H   0  0  0  0  0  0  0  0  0  0  0  0
   60.9690   30.9340   46.0820 H   0  0  0  0  0  0  0  0  0  0  0  0
   59.4409   28.3811   46.4751 H   0  0  0  0  0  0  0  0  0  0  0  0
   61.5841   28.1857   45.3469 H   0  0  0  0  0  0  0  0  0  0  0  0
   60.2809   27.8611   44.1540 H   0  0  0  0  0  0  0  0  0  0  0  0
   61.1238   29.4474   44.1540 H   0  0  0  0  0  0  0  0  0  0  0  0
   57.1843   28.1165   45.9553 H   0  0  0  0  0  0  0  0  0  0  0  0
   55.1311   28.8525   44.7447 H   0  0  0  0  0  0  0  0  0  0  0  0
   55.2378   30.7699   43.1486 H   0  0  0  0  0  0  0  0  0  0  0  0
   57.4014   31.9580   42.7676 H   0  0  0  0  0  0  0  0  0  0  0  0
   59.4592   31.2311   43.9747 H   0  0  0  0  0  0  0  0  0  0  0  0
   57.2408   32.7195   48.3737 H   0  0  0  0  0  0  0  0  0  0  0  0
   55.9736   33.3853   46.3330 H   0  0  0  0  0  0  0  0  0  0  0  0
   57.1865   34.2417   44.3295 H   0  0  0  0  0  0  0  0  0  0  0  0
  1  2  1  0
  2  3  3  0
  3  4  1  0
  4  5  1  0
  5  6  1  0
  6  7  1  0
  7  8  2  0
  7  9  1  0
  9 10  1  0
 10 11  1  0
 10 12  1  0
 12 13  2  0
 13 14  1  0
 14 15  2  0
 15 16  1  0
 16 17  2  0
  5 18  1  0
 18 19  2  0
 19 20  1  0
 20 21  2  0
 21 22  1  0
 22 23  1  0
 22 24  2  0
 24 25  1  0
 25 26  3  0
 17 12  1  0
 24 18  1  0
  1 27  1  0
  1 28  1  0
  1 29  1  0
  4 30  1  0
  4 31  1  0
  6 32  1  0
  6 33  1  0
  9 34  1  0
 10 35  1  1
 11 36  1  0
 11 37  1  0
 11 38  1  0
 13 39  1  0
 14 40  1  0
 15 41  1  0
 16 42  1  0
 17 43  1  0
 19 44  1  0
 20 45  1  0
 21 46  1  0
M  END
>  <UniqueID>  (10) 
10

>  <SMILES>  (10) 
CC#CCN(CC(=O)N[C@H](C)c1ccccc1)c1cccc(F)c1C#N

>  <Energy>  (10) 
37.97305409486019

>  <Genealogy>  (10) 
CC#CCN(CC(=O)N[C@H](C)c1ccccc1)c1cccc(F)c1C#N (chirality)
CC#CCN(CC(=O)N[C@H](C)c1ccccc1)c1cccc(F)c1C#N (3D coordinates assigned)
CC#CCN(CC(=O)N[C@H](C)c1ccccc1)c1cccc(F)c1C#N (optimized conformer: 37.97305409486019 kcal/mol)

>  <smiles>  (10) 
CC#CCN(CC(=O)NC(C)c1ccccc1)c1cccc(F)c1C#N

>  <score_type>  (10) 
oracle

>  <origin>  (10) 
adg

>  <m_score__min__energy>  (10) 
-7.2400000000000002

>  <m_primary>  (10) 
energy

$$$$
10:0
     RDKit          3D

 49 50  0  0  0  0  0  0  0  0999 V2000
   65.3460   32.0810   50.0890 C   0  0  0  0  0  0  0  0  0  0  0  0
   65.0490   33.2000   49.2610 O   0  0  0  0  0  0  0  0  0  0  0  0
   63.7690   33.5080   48.7690 C   0  0  0  0  0  0  0  0  0  0  0  0
   63.4690   33.4770   47.3970 C   0  0  0  0  0  0  0  0  0  0  0  0
   62.1860   33.7910   46.9440 C   0  0  0  0  0  0  0  0  0  0  0  0
   61.1760   34.1510   47.8510 C   0  0  0  0  0  0  0  0  0  0  0  0
   59.8310   34.4740   47.4310 N   0  0  0  0  0  0  0  0  0  0  0  0
   58.8330   33.5540   46.8610 C   0  0  0  0  0  0  0  0  0  0  0  0
   58.4660   33.9290   45.4160 C   0  0  0  0  0  0  0  0  0  0  0  0
   57.3830   32.9800   44.8930 C   0  0  0  0  0  0  0  0  0  0  0  0
   57.7360   31.5690   45.1170 N   0  0  0  0  0  0  0  0  0  0  0  0
   56.8780   30.5570   44.5510 C   0  0  0  0  0  0  0  0  0  0  0  0
   55.6400   30.7780   44.4570 O   0  0  0  0  0  0  0  0  0  0  0  0
   57.4230   29.2260   44.0920 C   0  0  0  0  0  0  0  0  0  0  0  0
   57.4250   28.1780   45.2070 C   0  0  0  0  0  0  0  0  0  0  0  0
   58.1350   26.6010   44.6160 S   0  0  0  0  0  0  0  0  0  0  0  0
   58.1420   27.0890   42.8630 C   0  0  0  0  0  0  0  0  0  0  0  0
   58.9980   31.2090   45.7830 C   0  0  0  0  0  0  0  0  0  0  0  0
   59.2400   32.0690   47.0370 C   0  0  0  0  0  0  0  0  0  0  0  0
   61.4760   34.1700   49.2220 C   0  0  0  0  0  0  0  0  0  0  0  0
   62.7690   33.8550   49.6880 C   0  0  0  0  0  0  0  0  0  0  0  0
   63.0940   33.8750   51.0530 O   0  0  0  0  0  0  0  0  0  0  0  0
   64.0400   34.7590   51.6460 C   0  0  0  0  0  0  0  0  0  0  0  0
   65.2677   32.3759   51.1459 H   0  0  0  0  0  0  0  0  0  0  0  0
   64.6318   31.2708   49.8805 H   0  0  0  0  0  0  0  0  0  0  0  0
   66.3680   31.7316   49.8805 H   0  0  0  0  0  0  0  0  0  0  0  0
   64.2511   33.2031   46.6736 H   0  0  0  0  0  0  0  0  0  0  0  0
   61.9644   33.7561   45.8671 H   0  0  0  0  0  0  0  0  0  0  0  0
   59.5600   35.4830   47.4400 H   0  0  0  0  0  0  0  0  0  0  0  0
   57.9059   33.6720   47.4412 H   0  0  0  0  0  0  0  0  0  0  0  0
   58.0893   34.9622   45.3912 H   0  0  0  0  0  0  0  0  0  0  0  0
   59.3601   33.8453   44.7807 H   0  0  0  0  0  0  0  0  0  0  0  0
   56.4383   33.1972   45.4129 H   0  0  0  0  0  0  0  0  0  0  0  0
   57.2843   33.1391   43.8091 H   0  0  0  0  0  0  0  0  0  0  0  0
   56.8016   28.8574   43.2625 H   0  0  0  0  0  0  0  0  0  0  0  0
   58.4656   29.3820   43.7778 H   0  0  0  0  0  0  0  0  0  0  0  0
   58.0254   28.5500   46.0502 H   0  0  0  0  0  0  0  0  0  0  0  0
   56.3870   27.9997   45.5245 H   0  0  0  0  0  0  0  0  0  0  0  0
   58.1577   28.1863   42.7879 H   0  0  0  0  0  0  0  0  0  0  0  0
   59.0343   26.6750   42.3707 H   0  0  0  0  0  0  0  0  0  0  0  0
   57.2382   26.7007   42.3707 H   0  0  0  0  0  0  0  0  0  0  0  0
   58.9569   30.1502   46.0783 H   0  0  0  0  0  0  0  0  0  0  0  0
   59.8233   31.3873   45.0779 H   0  0  0  0  0  0  0  0  0  0  0  0
   58.6562   31.6448   47.8672 H   0  0  0  0  0  0  0  0  0  0  0  0
   60.3221   32.0531   47.2343 H   0  0  0  0  0  0  0  0  0  0  0  0
   60.6899   34.4348   49.9444 H   0  0  0  0  0  0  0  0  0  0  0  0
   63.9680   34.6918   52.7416 H   0  0  0  0  0  0  0  0  0  0  0  0
   65.0546   34.4778   51.3272 H   0  0  0  0  0  0  0  0  0  0  0  0
   63.8281   35.7903   51.3272 H   0  0  0  0  0  0  0  0  0  0  0  0
  1  2  1  0
  2  3  1  0
  3  4  2  0
  4  5  1  0
  5  6  2  0
  6  7  1  0
  7  8  1  0
  8  9  1  0
  9 10  1  0
 10 11  1  0
 11 12  1  0
 12 13  2  0
 12 14  1  0
 14 15  1  0
 15 16  1  0
 16 17  1  0
 11 18  1  0
 18 19  1  0
  6 20  1  0
 20 21  2  0
 21 22  1  0
 22 23  1  0
 21  3  1  0
 19  8  1  0
  1 24  1  0
  1 25  1  0
  1 26  1  0
  4 27  1  0
  5 28  1  0
  7 29  1  0
  8 30  1  0
  9 31  1  0
  9 32  1  0
 10 33  1  0
 10 34  1  0
 14 35  1  0
 14 36  1  0
 15 37  1  0
 15 38  1  0
 17 39  1  0
 17 40  1  0
 17 41  1  0
 18 42  1  0
 18 43  1  0
 19 44  1  0
 19 45  1  0
 20 46  1  0
 23 47  1  0
 23 48  1  0
 23 49  1  0
M  END
>  <UniqueID>  (11) 
11

>  <SMILES>  (11) 
COc1ccc(NC2CCN(C(=O)CCSC)CC2)cc1OC

>  <Energy>  (11) 
46.7328471274619

>  <Genealogy>  (11) 
COc1ccc(NC2CCN(C(=O)CCSC)CC2)cc1OC (3D coordinates assigned)
COc1ccc(NC2CCN(C(=O)CCSC)CC2)cc1OC (nonaromatic ring conformer: 46.7328471274619 kcal/mol)

>  <smiles>  (11) 
COc1ccc(NC2CCN(C(=O)CCSC)CC2)cc1OC

>  <score_type>  (11) 
oracle

>  <origin>  (11) 
adg

>  <m_score__min__energy>  (11) 
-6.9500000000000002

>  <m_primary>  (11) 
energy

$$$$
11:0
     RDKit          3D

 54 57  0  0  0  0  0  0  0  0999 V2000
   54.2300   30.8260   51.7690 C   0  0  0  0  0  0  0  0  0  0  0  0
   55.5610   30.8490   52.5250 C   0  0  0  0  0  0  0  0  0  0  0  0
   56.6460   31.5070   51.7520 N   0  0  0  0  0  0  0  0  0  0  0  0
   57.0400   32.7970   52.3740 C   0  0  0  0  0  0  0  0  0  0  0  0
   58.5440   32.9230   52.6680 C   0  0  0  0  0  0  0  0  0  0  0  0
   57.8270   30.6130   51.5440 C   0  0  0  0  0  0  0  0  0  0  0  0
   58.3720   30.6810   50.1050 C   0  0  0  0  0  0  0  0  0  0  0  0
   58.3740   32.0540   49.6010 N   0  0  0  0  0  0  0  0  0  0  0  0
   59.4760   32.5390   48.8220 C   0  0  0  0  0  0  0  0  0  0  0  0
   59.2800   33.2270   47.6040 C   0  0  0  0  0  0  0  0  0  0  0  0
   57.9820   33.4700   47.1160 C   0  0  0  0  0  0  0  0  0  0  0  0
   57.7890   34.1820   45.9350 C   0  0  0  0  0  0  0  0  0  0  0  0
   58.8820   34.6730   45.2260 C   0  0  0  0  0  0  0  0  0  0  0  0
   60.1810   34.4340   45.6770 C   0  0  0  0  0  0  0  0  0  0  0  0
   60.4180   33.6800   46.8520 C   0  0  0  0  0  0  0  0  0  0  0  0
   61.7040   33.3980   47.2910 N   0  0  0  0  0  0  0  0  0  0  0  0
   62.8790   33.6040   46.4280 C   0  0  0  0  0  0  0  0  0  0  0  0
   61.8520   32.8480   48.5390 C   0  0  0  0  0  0  0  0  0  0  0  0
   60.7810   32.3950   49.2780 C   0  0  0  0  0  0  0  0  0  0  0  0
   61.1740   31.8930   50.4680 N   0  0  0  0  0  0  0  0  0  0  0  0
   62.5120   32.0440   50.4910 C   0  0  0  0  0  0  0  0  0  0  0  0
   63.3600   31.7260   51.5490 C   0  0  0  0  0  0  0  0  0  0  0  0
   64.7230   32.0370   51.4220 C   0  0  0  0  0  0  0  0  0  0  0  0
   65.2040   32.6810   50.2630 C   0  0  0  0  0  0  0  0  0  0  0  0
   66.9020   33.1070   50.1460 Cl  0  0  0  0  0  0  0  0  0  0  0  0
   64.3280   33.0050   49.2100 C   0  0  0  0  0  0  0  0  0  0  0  0
   62.9800   32.6420   49.3340 C   0  0  0  0  0  0  0  0  0  0  0  0
   53.3991   30.8116   52.4897 H   0  0  0  0  0  0  0  0  0  0  0  0
   54.1517   31.7229   51.1370 H   0  0  0  0  0  0  0  0  0  0  0  0
   54.1828   29.9269   51.1370 H   0  0  0  0  0  0  0  0  0  0  0  0
   55.4203   31.3951   53.4695 H   0  0  0  0  0  0  0  0  0  0  0  0
   55.8625   29.8058   52.7005 H   0  0  0  0  0  0  0  0  0  0  0  0
   56.2410   31.7700   50.8230 H   0  0  0  0  0  0  0  0  0  0  0  0
   56.7528   33.6106   51.6917 H   0  0  0  0  0  0  0  0  0  0  0  0
   56.5233   32.8506   53.3436 H   0  0  0  0  0  0  0  0  0  0  0  0
   58.7050   32.9365   53.7561 H   0  0  0  0  0  0  0  0  0  0  0  0
   59.0764   32.0663   52.2291 H   0  0  0  0  0  0  0  0  0  0  0  0
   58.9265   33.8563   52.2291 H   0  0  0  0  0  0  0  0  0  0  0  0
   58.6250   30.9154   52.2381 H   0  0  0  0  0  0  0  0  0  0  0  0
   57.5003   29.5791   51.7292 H   0  0  0  0  0  0  0  0  0  0  0  0
   59.4015   30.2936   50.0932 H   0  0  0  0  0  0  0  0  0  0  0  0
   57.7203   30.0751   49.4583 H   0  0  0  0  0  0  0  0  0  0  0  0
   57.5100   32.6390   49.6540 H   0  0  0  0  0  0  0  0  0  0  0  0
   57.1115   33.0936   47.6733 H   0  0  0  0  0  0  0  0  0  0  0  0
   56.7695   34.3571   45.5609 H   0  0  0  0  0  0  0  0  0  0  0  0
   58.7208   35.2526   44.3051 H   0  0  0  0  0  0  0  0  0  0  0  0
   61.0337   34.8375   45.1111 H   0  0  0  0  0  0  0  0  0  0  0  0
   63.7704   33.7603   47.0534 H   0  0  0  0  0  0  0  0  0  0  0  0
   63.0273   32.7182   45.7930 H   0  0  0  0  0  0  0  0  0  0  0  0
   62.7172   34.4875   45.7930 H   0  0  0  0  0  0  0  0  0  0  0  0
   60.5730   31.5240   51.2390 H   0  0  0  0  0  0  0  0  0  0  0  0
   62.9725   31.2445   52.4589 H   0  0  0  0  0  0  0  0  0  0  0  0
   65.4205   31.7767   52.2318 H   0  0  0  0  0  0  0  0  0  0  0  0
   64.6916   33.5290   48.3138 H   0  0  0  0  0  0  0  0  0  0  0  0
  1  2  1  0
  2  3  1  0
  3  4  1  0
  4  5  1  0
  3  6  1  0
  6  7  1  0
  7  8  1  0
  8  9  1  0
  9 10  2  0
 10 11  1  0
 11 12  2  0
 12 13  1  0
 13 14  2  0
 14 15  1  0
 15 16  2  0
 16 17  1  0
 16 18  1  0
 18 19  2  0
 19 20  1  0
 20 21  1  0
 21 22  2  0
 22 23  1  0
 23 24  2  0
 24 25  1  0
 24 26  1  0
 26 27  2  0
 19  9  1  0
 27 21  1  0
 15 10  1  0
 27 18  1  0
  1 28  1  0
  1 29  1  0
  1 30  1  0
  2 31  1  0
  2 32  1  0
  3 33  1  0
  4 34  1  0
  4 35  1  0
  5 36  1  0
  5 37  1  0
  5 38  1  0
  6 39  1  0
  6 40  1  0
  7 41  1  0
  7 42  1  0
  8 43  1  0
 11 44  1  0
 12 45  1  0
 13 46  1  0
 14 47  1  0
 17 48  1  0
 17 49  1  0
 17 50  1  0
 20 51  1  0
 22 52  1  0
 23 53  1  0
 26 54  1  0
M  CHG  2   3   1  16   1
M  END
>  <UniqueID>  (12) 
12

>  <SMILES>  (12) 
CC[NH+](CC)CCNc1c2ccccc2[n+](C)c2c1[nH]c1ccc(Cl)cc12

>  <Energy>  (12) 
120.37534936520161

>  <Genealogy>  (12) 
CC[NH+](CC)CCNc1c2ccccc2[n+](C)c2c1[nH]c1ccc(Cl)cc12 (protonated)
CC[NH+](CC)CCNc1c2ccccc2[n+](C)c2c1[nH]c1ccc(Cl)cc12 (3D coordinates assigned)
CC[NH+](CC)CCNc1c2ccccc2[n+](C)c2c1[nH]c1ccc(Cl)cc12 (optimized conformer: 120.37534936520161 kcal/mol)

>  <smiles>  (12) 
CCN(CC)CCNc1c2ccccc2[n+](C)c2c1[nH]c1ccc(Cl)cc12

>  <score_type>  (12) 
oracle

>  <origin>  (12) 
adg

>  <m_score__min__energy>  (12) 
-5.3200000000000003

>  <m_primary>  (12) 
energy

$$$$
12:0
     RDKit          3D

 48 50  0  0  0  0  0  0  0  0999 V2000
   59.0680   26.0360   45.6000 C   0  0  0  0  0  0  0  0  0  0  0  0
   58.9030   27.5010   45.5620 N   0  0  0  0  0  0  0  0  0  0  0  0
   57.7450   27.8900   44.7250 C   0  0  0  0  0  0  0  0  0  0  0  0
   56.5370   28.3230   45.5660 C   0  0  0  0  0  0  0  0  0  0  0  0
   55.6310   29.1680   44.7750 N   0  0  0  0  0  0  0  0  0  0  0  0
   56.2770   29.6400   43.5430 C   0  0  0  0  0  0  0  0  0  0  0  0
   57.0130   30.9160   43.8100 C   0  0  0  0  0  0  0  0  0  0  0  0
   57.5920   31.7470   42.8720 C   0  0  0  0  0  0  0  0  0  0  0  0
   58.2130   32.7070   43.5190 O   0  0  0  0  0  0  0  0  0  0  0  0
   58.0410   32.4890   44.8060 C   0  0  0  0  0  0  0  0  0  0  0  0
   58.6050   33.3440   45.8580 C   0  0  0  0  0  0  0  0  0  0  0  0
   59.4070   34.4660   45.6710 C   0  0  0  0  0  0  0  0  0  0  0  0
   59.7810   35.0810   46.8720 C   0  0  0  0  0  0  0  0  0  0  0  0
   59.2780   34.4490   48.0030 C   0  0  0  0  0  0  0  0  0  0  0  0
   58.3660   33.1260   47.5080 S   0  0  0  0  0  0  0  0  0  0  0  0
   57.3000   31.3860   45.0350 N   0  0  0  0  0  0  0  0  0  0  0  0
   60.1480   28.1590   45.0910 C   0  0  0  0  0  0  0  0  0  0  0  0
   60.0260   29.6800   45.2180 C   0  0  0  0  0  0  0  0  0  0  0  0
   60.1330   30.1400   46.6500 C   0  0  0  0  0  0  0  0  0  0  0  0
   59.1490   29.7780   47.5860 C   0  0  0  0  0  0  0  0  0  0  0  0
   59.2640   30.1840   48.9190 C   0  0  0  0  0  0  0  0  0  0  0  0
   60.3530   30.9570   49.3260 C   0  0  0  0  0  0  0  0  0  0  0  0
   61.3320   31.3270   48.3990 C   0  0  0  0  0  0  0  0  0  0  0  0
   61.2290   30.9140   47.0670 C   0  0  0  0  0  0  0  0  0  0  0  0
   59.1060   25.6983   46.6462 H   0  0  0  0  0  0  0  0  0  0  0  0
   58.2180   25.5580   45.0911 H   0  0  0  0  0  0  0  0  0  0  0  0
   60.0030   25.7590   45.0911 H   0  0  0  0  0  0  0  0  0  0  0  0
   58.0427   28.7272   44.0766 H   0  0  0  0  0  0  0  0  0  0  0  0
   57.4462   27.0110   44.1351 H   0  0  0  0  0  0  0  0  0  0  0  0
   55.9934   27.4287   45.9048 H   0  0  0  0  0  0  0  0  0  0  0  0
   56.8960   28.9009   46.4304 H   0  0  0  0  0  0  0  0  0  0  0  0
   54.8100   28.5790   44.4990 H   0  0  0  0  0  0  0  0  0  0  0  0
   56.9859   28.8776   43.1878 H   0  0  0  0  0  0  0  0  0  0  0  0
   55.5083   29.8189   42.7768 H   0  0  0  0  0  0  0  0  0  0  0  0
   57.5423   31.6270   41.7797 H   0  0  0  0  0  0  0  0  0  0  0  0
   59.7156   34.8323   44.6807 H   0  0  0  0  0  0  0  0  0  0  0  0
   60.4135   35.9799   46.9162 H   0  0  0  0  0  0  0  0  0  0  0  0
   59.4476   34.7610   49.0441 H   0  0  0  0  0  0  0  0  0  0  0  0
   57.0160   30.9780   45.9530 H   0  0  0  0  0  0  0  0  0  0  0  0
   60.9952   27.8108   45.7001 H   0  0  0  0  0  0  0  0  0  0  0  0
   60.3118   27.9002   44.0345 H   0  0  0  0  0  0  0  0  0  0  0  0
   60.8303   30.1504   44.6333 H   0  0  0  0  0  0  0  0  0  0  0  0
   59.0349   29.9730   44.8413 H   0  0  0  0  0  0  0  0  0  0  0  0
   58.2862   29.1737   47.2690 H   0  0  0  0  0  0  0  0  0  0  0  0
   58.4942   29.8935   49.6491 H   0  0  0  0  0  0  0  0  0  0  0  0
   60.4407   31.2748   50.3754 H   0  0  0  0  0  0  0  0  0  0  0  0
   62.1849   31.9441   48.7180 H   0  0  0  0  0  0  0  0  0  0  0  0
   62.0082   31.1959   46.3436 H   0  0  0  0  0  0  0  0  0  0  0  0
  1  2  1  0
  2  3  1  0
  3  4  1  0
  4  5  1  0
  5  6  1  0
  6  7  1  0
  7  8  2  0
  8  9  1  0
  9 10  1  0
 10 11  1  0
 11 12  2  0
 12 13  1  0
 13 14  2  0
 14 15  1  0
 10 16  2  0
  2 17  1  0
 17 18  1  0
 18 19  1  0
 19 20  2  0
 20 21  1  0
 21 22  2  0
 22 23  1  0
 23 24  2  0
 16  7  1  0
 24 19  1  0
 15 11  1  0
  1 25  1  0
  1 26  1  0
  1 27  1  0
  3 28  1  0
  3 29  1  0
  4 30  1  0
  4 31  1  0
  5 32  1  0
  6 33  1  0
  6 34  1  0
  8 35  1  0
 12 36  1  0
 13 37  1  0
 14 38  1  0
 16 39  1  0
 17 40  1  0
 17 41  1  0
 18 42  1  0
 18 43  1  0
 20 44  1  0
 21 45  1  0
 22 46  1  0
 23 47  1  0
 24 48  1  0
M  CHG  1  16   1
M  END
>  <UniqueID>  (13) 
13

>  <SMILES>  (13) 
CN(CCNCc1coc(-c2cccs2)[nH+]1)CCc1ccccc1

>  <Energy>  (13) 
99.76289170575981

>  <Genealogy>  (13) 
CN(CCNCc1coc(-c2cccs2)[nH+]1)CCc1ccccc1 (protonated)
CN(CCNCc1coc(-c2cccs2)[nH+]1)CCc1ccccc1 (3D coordinates assigned)
CN(CCNCc1coc(-c2cccs2)[nH+]1)CCc1ccccc1 (optimized conformer: 99.76289170575981 kcal/mol)

>  <smiles>  (13) 
CN(CCNCc1coc(-c2cccs2)n1)CCc1ccccc1

>  <score_type>  (13) 
oracle

>  <origin>  (13) 
adg

>  <m_score__min__energy>  (13) 
-6.1200000000000001

>  <m_primary>  (13) 
energy

$$$$
13:0
     RDKit          3D

 38 39  0  0  0  0  0  0  0  0999 V2000
   63.0790   32.9900   47.2170 C   0  0  0  0  0  0  0  0  0  0  0  0
   62.3720   32.0410   47.4440 C   0  0  0  0  0  0  0  0  0  0  0  0
   61.5060   30.8780   47.7210 C   0  0  0  0  0  0  0  0  0  0  0  0
   60.1890   30.9570   47.0420 N   0  0  2  0  0  0  0  0  0  0  0  0
   59.0620   30.9440   48.0220 C   0  0  0  0  0  0  0  0  0  0  0  0
   58.5690   32.3610   48.3680 C   0  0  0  0  0  0  0  0  0  0  0  0
   58.5270   33.2450   47.1510 C   0  0  0  0  0  0  0  0  0  0  0  0
   57.3470   33.3760   46.4020 C   0  0  0  0  0  0  0  0  0  0  0  0
   57.3480   34.1760   45.2580 C   0  0  0  0  0  0  0  0  0  0  0  0
   58.5170   34.8320   44.8700 C   0  0  0  0  0  0  0  0  0  0  0  0
   59.6740   34.6770   45.6370 C   0  0  0  0  0  0  0  0  0  0  0  0
   59.6550   33.8930   46.7480 N   0  0  0  0  0  0  0  0  0  0  0  0
   60.0440   29.8940   46.0130 C   0  0  0  0  0  0  0  0  0  0  0  0
   58.7240   30.0020   45.2800 C   0  0  0  0  0  0  0  0  0  0  0  0
   58.5160   31.0100   44.3210 C   0  0  0  0  0  0  0  0  0  0  0  0
   57.3040   31.0840   43.6290 C   0  0  0  0  0  0  0  0  0  0  0  0
   56.2900   30.1590   43.8890 C   0  0  0  0  0  0  0  0  0  0  0  0
   56.4860   29.1580   44.8440 C   0  0  0  0  0  0  0  0  0  0  0  0
   57.6980   29.0780   45.5350 C   0  0  0  0  0  0  0  0  0  0  0  0
   63.7244   33.8563   47.0098 H   0  0  0  0  0  0  0  0  0  0  0  0
   62.0218   29.9684   47.3794 H   0  0  0  0  0  0  0  0  0  0  0  0
   61.3156   30.8619   48.8043 H   0  0  0  0  0  0  0  0  0  0  0  0
   60.2010   31.8730   46.5350 H   0  0  0  0  0  0  0  0  0  0  0  0
   58.2255   30.3743   47.5909 H   0  0  0  0  0  0  0  0  0  0  0  0
   59.4294   30.4808   48.9496 H   0  0  0  0  0  0  0  0  0  0  0  0
   57.5575   32.2928   48.7949 H   0  0  0  0  0  0  0  0  0  0  0  0
   59.2711   32.8029   49.0904 H   0  0  0  0  0  0  0  0  0  0  0  0
   56.4306   32.8534   46.7135 H   0  0  0  0  0  0  0  0  0  0  0  0
   56.4293   34.2891   44.6637 H   0  0  0  0  0  0  0  0  0  0  0  0
   58.5272   35.4643   43.9699 H   0  0  0  0  0  0  0  0  0  0  0  0
   60.6015   35.1896   45.3421 H   0  0  0  0  0  0  0  0  0  0  0  0
   60.8643   29.9870   45.2860 H   0  0  0  0  0  0  0  0  0  0  0  0
   60.0762   28.9185   46.5202 H   0  0  0  0  0  0  0  0  0  0  0  0
   59.3102   31.7427   44.1150 H   0  0  0  0  0  0  0  0  0  0  0  0
   57.1482   31.8724   42.8779 H   0  0  0  0  0  0  0  0  0  0  0  0
   55.3375   30.2186   43.3421 H   0  0  0  0  0  0  0  0  0  0  0  0
   55.6858   28.4325   45.0520 H   0  0  0  0  0  0  0  0  0  0  0  0
   57.8492   28.2862   46.2834 H   0  0  0  0  0  0  0  0  0  0  0  0
  1  2  3  0
  2  3  1  0
  3  4  1  0
  4  5  1  0
  5  6  1  0
  6  7  1  0
  7  8  2  0
  8  9  1  0
  9 10  2  0
 10 11  1  0
 11 12  2  0
  4 13  1  0
 13 14  1  0
 14 15  2  0
 15 16  1  0
 16 17  2  0
 17 18  1  0
 18 19  2  0
 12  7  1  0
 19 14  1  0
  1 20  1  0
  3 21  1  0
  3 22  1  0
  4 23  1  6
  5 24  1  0
  5 25  1  0
  6 26  1  0
  6 27  1  0
  8 28  1  0
  9 29  1  0
 10 30  1  0
 11 31  1  0
 13 32  1  0
 13 33  1  0
 15 34  1  0
 16 35  1  0
 17 36  1  0
 18 37  1  0
 19 38  1  0
M  CHG  1   4   1
M  END
>  <UniqueID>  (14) 
14

>  <SMILES>  (14) 
C#CC[N@H+](CCc1ccccn1)Cc1ccccc1

>  <Energy>  (14) 
38.238793535085875

>  <Genealogy>  (14) 
C#CC[NH+](CCc1ccccn1)Cc1ccccc1 (protonated)
C#CC[N@H+](CCc1ccccn1)Cc1ccccc1 (chirality)
C#CC[N@H+](CCc1ccccn1)Cc1ccccc1 (3D coordinates assigned)
C#CC[N@H+](CCc1ccccn1)Cc1ccccc1 (optimized conformer: 38.238793535085875 kcal/mol)

>  <smiles>  (14) 
C#CCN(CCc1ccccn1)Cc1ccccc1

>  <score_type>  (14) 
oracle

>  <origin>  (14) 
adg

>  <m_score__min__energy>  (14) 
-5.2199999999999998

>  <m_primary>  (14) 
energy

$$$$
14:0
     RDKit          3D

 62 66  0  0  0  0  0  0  0  0999 V2000
   65.5440   33.0890   49.8110 C   0  0  0  0  0  0  0  0  0  0  0  0
   64.2840   32.8030   49.0470 C   0  0  0  0  0  0  0  0  0  0  0  0
   63.2860   31.9910   49.6100 C   0  0  0  0  0  0  0  0  0  0  0  0
   62.0920   31.7620   48.9210 C   0  0  0  0  0  0  0  0  0  0  0  0
   61.8800   32.3390   47.6590 C   0  0  0  0  0  0  0  0  0  0  0  0
   60.6290   32.1720   46.9740 N   0  0  0  0  0  0  0  0  0  0  0  0
   60.1180   30.9740   46.7210 N   0  0  0  0  0  0  0  0  0  0  0  0
   58.9740   31.1670   46.0460 C   0  0  0  0  0  0  0  0  0  0  0  0
   58.1000   30.2020   45.5430 C   0  0  0  0  0  0  0  0  0  0  0  0
   58.3310   28.7900   45.7280 N   0  0  0  0  0  0  0  0  0  0  0  0
   58.8040   28.2950   47.0280 C   0  0  0  0  0  0  0  0  0  0  0  0
   58.1810   26.9310   47.3540 C   0  0  0  0  0  0  0  0  0  0  0  0
   58.2660   25.9170   46.1820 C   0  0  0  0  0  0  0  0  0  0  0  0
   56.9410   25.2320   45.9080 C   0  0  0  0  0  0  0  0  0  0  0  0
   55.8840   25.7410   46.3740 O   0  0  0  0  0  0  0  0  0  0  0  0
   56.8570   23.9940   45.1840 N   0  0  0  0  0  0  0  0  0  0  0  0
   56.1520   22.8420   45.7180 C   0  0  0  0  0  0  0  0  0  0  0  0
   55.8490   21.9430   44.5250 C   0  0  0  0  0  0  0  0  0  0  0  0
   56.6730   22.4840   43.3590 C   0  0  0  0  0  0  0  0  0  0  0  0
   57.1180   23.8840   43.7600 C   0  0  0  0  0  0  0  0  0  0  0  0
   58.8790   26.5070   44.8950 C   0  0  0  0  0  0  0  0  0  0  0  0
   58.3230   27.8940   44.5590 C   0  0  0  0  0  0  0  0  0  0  0  0
   57.0040   30.6540   44.8560 N   0  0  0  0  0  0  0  0  0  0  0  0
   56.7810   31.9630   44.6630 N   0  0  0  0  0  0  0  0  0  0  0  0
   57.6270   32.9270   45.1340 C   0  0  0  0  0  0  0  0  0  0  0  0
   57.3180   34.3680   44.8730 C   0  0  0  0  0  0  0  0  0  0  0  0
   58.7470   32.5000   45.8540 C   0  0  0  0  0  0  0  0  0  0  0  0
   59.8120   33.1400   46.4750 C   0  0  0  0  0  0  0  0  0  0  0  0
   60.0270   34.6200   46.6170 C   0  0  0  0  0  0  0  0  0  0  0  0
   62.8630   33.1790   47.1140 C   0  0  0  0  0  0  0  0  0  0  0  0
   64.0570   33.4090   47.8030 C   0  0  0  0  0  0  0  0  0  0  0  0
   65.3370   33.0420   50.8903 H   0  0  0  0  0  0  0  0  0  0  0  0
   66.3080   32.3414   49.5513 H   0  0  0  0  0  0  0  0  0  0  0  0
   65.9104   34.0932   49.5513 H   0  0  0  0  0  0  0  0  0  0  0  0
   63.4449   31.5333   50.5976 H   0  0  0  0  0  0  0  0  0  0  0  0
   61.3144   31.1264   49.3698 H   0  0  0  0  0  0  0  0  0  0  0  0
   59.8988   28.1930   46.9979 H   0  0  0  0  0  0  0  0  0  0  0  0
   58.5064   29.0126   47.8068 H   0  0  0  0  0  0  0  0  0  0  0  0
   58.7073   26.5059   48.2214 H   0  0  0  0  0  0  0  0  0  0  0  0
   57.1137   27.1025   47.5575 H   0  0  0  0  0  0  0  0  0  0  0  0
   58.9690   25.1440   46.5258 H   0  0  0  0  0  0  0  0  0  0  0  0
   56.7836   22.3112   46.4456 H   0  0  0  0  0  0  0  0  0  0  0  0
   55.2314   23.1405   46.2409 H   0  0  0  0  0  0  0  0  0  0  0  0
   56.1389   20.9054   44.7469 H   0  0  0  0  0  0  0  0  0  0  0  0
   54.7748   21.9421   44.2883 H   0  0  0  0  0  0  0  0  0  0  0  0
   57.5489   21.8425   43.1822 H   0  0  0  0  0  0  0  0  0  0  0  0
   56.0844   22.5035   42.4299 H   0  0  0  0  0  0  0  0  0  0  0  0
   58.1908   24.0171   43.5566 H   0  0  0  0  0  0  0  0  0  0  0  0
   56.5801   24.6564   43.1908 H   0  0  0  0  0  0  0  0  0  0  0  0
   59.9680   26.5869   45.0282 H   0  0  0  0  0  0  0  0  0  0  0  0
   58.6198   25.8343   44.0642 H   0  0  0  0  0  0  0  0  0  0  0  0
   58.9393   28.3408   43.7649 H   0  0  0  0  0  0  0  0  0  0  0  0
   57.2799   27.7717   44.2320 H   0  0  0  0  0  0  0  0  0  0  0  0
   56.3070   29.9740   44.4790 H   0  0  0  0  0  0  0  0  0  0  0  0
   57.2044   34.8979   45.8303 H   0  0  0  0  0  0  0  0  0  0  0  0
   58.1394   34.8209   44.2985 H   0  0  0  0  0  0  0  0  0  0  0  0
   56.3831   34.4443   44.2985 H   0  0  0  0  0  0  0  0  0  0  0  0
   60.0654   34.8842   47.6841 H   0  0  0  0  0  0  0  0  0  0  0  0
   60.9753   34.9006   46.1354 H   0  0  0  0  0  0  0  0  0  0  0  0
   59.1977   35.1589   46.1354 H   0  0  0  0  0  0  0  0  0  0  0  0
   62.6929   33.6591   46.1390 H   0  0  0  0  0  0  0  0  0  0  0  0
   64.8222   34.0684   47.3675 H   0  0  0  0  0  0  0  0  0  0  0  0
  1  2  1  0
  2  3  2  0
  3  4  1  0
  4  5  2  0
  5  6  1  0
  6  7  1  0
  7  8  2  0
  8  9  1  0
  9 10  1  0
 10 11  1  0
 11 12  1  0
 12 13  1  0
 13 14  1  0
 14 15  2  0
 14 16  1  0
 16 17  1  0
 17 18  1  0
 18 19  1  0
 19 20  1  0
 13 21  1  0
 21 22  1  0
  9 23  2  0
 23 24  1  0
 24 25  2  0
 25 26  1  0
 25 27  1  0
 27 28  2  0
 28 29  1  0
  5 30  1  0
 30 31  2  0
 31  2  1  0
 28  6  1  0
 27  8  1  0
 22 10  1  0
 20 16  1  0
  1 32  1  0
  1 33  1  0
  1 34  1  0
  3 35  1  0
  4 36  1  0
 11 37  1  0
 11 38  1  0
 12 39  1  0
 12 40  1  0
 13 41  1  0
 17 42  1  0
 17 43  1  0
 18 44  1  0
 18 45  1  0
 19 46  1  0
 19 47  1  0
 20 48  1  0
 20 49  1  0
 21 50  1  0
 21 51  1  0
 22 52  1  0
 22 53  1  0
 23 54  1  0
 26 55  1  0
 26 56  1  0
 26 57  1  0
 29 58  1  0
 29 59  1  0
 29 60  1  0
 30 61  1  0
 31 62  1  0
M  CHG  1  23   1
M  END
>  <UniqueID>  (15) 
15

>  <SMILES>  (15) 
Cc1ccc(-n2nc3c(N4CCC(C(=O)N5CCCC5)CC4)[nH+]nc(C)c3c2C)cc1

>  <Energy>  (15) 
117.19582319979527

>  <Genealogy>  (15) 
Cc1ccc(-n2nc3c(N4CCC(C(=O)N5CCCC5)CC4)[nH+]nc(C)c3c2C)cc1 (protonated)
Cc1ccc(-n2nc3c(N4CCC(C(=O)N5CCCC5)CC4)[nH+]nc(C)c3c2C)cc1 (3D coordinates assigned)
Cc1ccc(-n2nc3c(N4CCC(C(=O)N5CCCC5)CC4)[nH+]nc(C)c3c2C)cc1 (nonaromatic ring conformer: 117.19582319979527 kcal/mol)

>  <smiles>  (15) 
Cc1ccc(-n2nc3c(N4CCC(C(=O)N5CCCC5)CC4)nnc(C)c3c2C)cc1

>  <score_type>  (15) 
oracle

>  <origin>  (15) 
adg

>  <m_score__min__energy>  (15) 
-8.7699999999999996

>  <m_primary>  (15) 
energy

$$$$
15:0
     RDKit          3D

 43 45  0  0  0  0  0  0  0  0999 V2000
   63.9570   32.4970   49.3500 C   0  0  0  0  0  0  0  0  0  0  0  0
   62.9000   32.9290   48.4220 N   0  0  0  0  0  0  0  0  0  0  0  0
   63.4770   33.1800   47.0920 C   0  0  0  0  0  0  0  0  0  0  0  0
   62.2080   34.1360   48.9240 C   0  0  0  0  0  0  0  0  0  0  0  0
   60.7810   34.2170   48.3680 C   0  0  0  0  0  0  0  0  0  0  0  0
   60.4230   32.9840   47.6640 N   0  0  0  0  0  0  0  0  0  0  0  0
   59.5250   32.9700   46.5410 C   0  0  0  0  0  0  0  0  0  0  0  0
   59.1130   34.1840   45.9800 C   0  0  0  0  0  0  0  0  0  0  0  0
   58.2550   34.2000   44.8870 C   0  0  0  0  0  0  0  0  0  0  0  0
   57.7740   33.0080   44.3500 C   0  0  0  0  0  0  0  0  0  0  0  0
   58.1390   31.7570   44.9040 C   0  0  0  0  0  0  0  0  0  0  0  0
   59.0600   31.7490   45.9890 C   0  0  0  0  0  0  0  0  0  0  0  0
   59.5390   30.5210   46.4570 C   0  0  0  0  0  0  0  0  0  0  0  0
   59.1660   29.3350   45.8350 C   0  0  0  0  0  0  0  0  0  0  0  0
   59.7330   28.1190   46.2520 C   0  0  0  0  0  0  0  0  0  0  0  0
   59.4030   26.9300   45.6060 C   0  0  0  0  0  0  0  0  0  0  0  0
   58.5190   26.9450   44.5300 C   0  0  0  0  0  0  0  0  0  0  0  0
   57.9410   28.1450   44.1090 C   0  0  0  0  0  0  0  0  0  0  0  0
   58.2300   29.3650   44.7720 C   0  0  0  0  0  0  0  0  0  0  0  0
   57.6480   30.5650   44.3990 N   0  0  0  0  0  0  0  0  0  0  0  0
   56.4900   30.5700   43.4780 C   0  0  0  0  0  0  0  0  0  0  0  0
   63.6149   32.6368   50.3861 H   0  0  0  0  0  0  0  0  0  0  0  0
   64.1833   31.4342   49.1788 H   0  0  0  0  0  0  0  0  0  0  0  0
   64.8629   33.0970   49.1788 H   0  0  0  0  0  0  0  0  0  0  0  0
   64.4804   33.6165   47.2041 H   0  0  0  0  0  0  0  0  0  0  0  0
   63.5492   32.2320   46.5388 H   0  0  0  0  0  0  0  0  0  0  0  0
   62.8327   33.8792   46.5388 H   0  0  0  0  0  0  0  0  0  0  0  0
   62.1653   34.0965   50.0225 H   0  0  0  0  0  0  0  0  0  0  0  0
   62.7657   35.0248   48.5940 H   0  0  0  0  0  0  0  0  0  0  0  0
   60.0787   34.3733   49.2001 H   0  0  0  0  0  0  0  0  0  0  0  0
   60.7280   35.0551   47.6575 H   0  0  0  0  0  0  0  0  0  0  0  0
   60.9100   32.1010   47.9390 H   0  0  0  0  0  0  0  0  0  0  0  0
   59.4709   35.1324   46.4073 H   0  0  0  0  0  0  0  0  0  0  0  0
   57.9537   35.1602   44.4429 H   0  0  0  0  0  0  0  0  0  0  0  0
   57.0997   33.0391   43.4815 H   0  0  0  0  0  0  0  0  0  0  0  0
   60.2159   30.4935   47.3237 H   0  0  0  0  0  0  0  0  0  0  0  0
   60.4415   28.1059   47.0934 H   0  0  0  0  0  0  0  0  0  0  0  0
   59.8404   25.9795   45.9456 H   0  0  0  0  0  0  0  0  0  0  0  0
   58.2747   26.0074   44.0091 H   0  0  0  0  0  0  0  0  0  0  0  0
   57.2522   28.1437   43.2514 H   0  0  0  0  0  0  0  0  0  0  0  0
   55.5575   30.5740   44.0614 H   0  0  0  0  0  0  0  0  0  0  0  0
   56.5297   31.4680   42.8439 H   0  0  0  0  0  0  0  0  0  0  0  0
   56.5219   29.6717   42.8439 H   0  0  0  0  0  0  0  0  0  0  0  0
  1  2  1  0
  2  3  1  0
  2  4  1  0
  4  5  1  0
  5  6  1  0
  6  7  1  0
  7  8  2  0
  8  9  1  0
  9 10  2  0
 10 11  1  0
 11 12  2  0
 12 13  1  0
 13 14  2  0
 14 15  1  0
 15 16  2  0
 16 17  1  0
 17 18  2  0
 18 19  1  0
 19 20  2  0
 20 21  1  0
 12  7  1  0
 19 14  1  0
 20 11  1  0
  1 22  1  0
  1 23  1  0
  1 24  1  0
  3 25  1  0
  3 26  1  0
  3 27  1  0
  4 28  1  0
  4 29  1  0
  5 30  1  0
  5 31  1  0
  6 32  1  0
  8 33  1  0
  9 34  1  0
 10 35  1  0
 13 36  1  0
 15 37  1  0
 16 38  1  0
 17 39  1  0
 18 40  1  0
 21 41  1  0
 21 42  1  0
 21 43  1  0
M  CHG  1  20   1
M  END
>  <UniqueID>  (16) 
16

>  <SMILES>  (16) 
CN(C)CCNc1cccc2c1cc1ccccc1[n+]2C

>  <Energy>  (16) 
64.21789804508703

>  <Genealogy>  (16) 
CN(C)CCNc1cccc2c1cc1ccccc1[n+]2C (3D coordinates assigned)
CN(C)CCNc1cccc2c1cc1ccccc1[n+]2C (optimized conformer: 64.21789804508703 kcal/mol)

>  <smiles>  (16) 
CN(C)CCNc1cccc2c1cc1ccccc1[n+]2C

>  <score_type>  (16) 
oracle

>  <origin>  (16) 
adg

>  <m_score__min__energy>  (16) 
-5.25

>  <m_primary>  (16) 
energy

$$$$
16:0
     RDKit          3D

 49 52  0  0  0  0  0  0  0  0999 V2000
   56.7520   30.4590   43.2320 C   0  0  0  0  0  0  0  0  0  0  0  0
   56.5550   30.8450   44.5880 O   0  0  0  0  0  0  0  0  0  0  0  0
   57.2930   31.8660   45.1940 C   0  0  0  0  0  0  0  0  0  0  0  0
   57.0970   33.1890   44.7890 C   0  0  0  0  0  0  0  0  0  0  0  0
   57.8300   34.2110   45.3940 C   0  0  0  0  0  0  0  0  0  0  0  0
   58.7560   33.9050   46.4000 C   0  0  0  0  0  0  0  0  0  0  0  0
   59.4970   34.9130   47.0310 C   0  0  0  0  0  0  0  0  0  0  0  0
   60.4080   34.5830   48.0380 C   0  0  0  0  0  0  0  0  0  0  0  0
   60.5870   33.2510   48.4170 C   0  0  0  0  0  0  0  0  0  0  0  0
   59.8560   32.2250   47.7950 C   0  0  0  0  0  0  0  0  0  0  0  0
   60.0710   30.8570   48.1890 N   0  0  0  0  0  0  0  0  0  0  0  0
   59.2210   30.2360   49.2110 C   0  0  0  0  0  0  0  0  0  0  0  0
   59.1050   28.7220   48.9700 C   0  0  0  0  0  0  0  0  0  0  0  0
   59.0790   28.4350   47.5180 N   0  0  0  0  0  0  0  0  0  0  0  0
   58.7270   27.0130   47.2900 C   0  0  0  0  0  0  0  0  0  0  0  0
   58.4130   26.7390   45.8370 C   0  0  0  0  0  0  0  0  0  0  0  0
   58.6080   27.7340   44.8640 C   0  0  0  0  0  0  0  0  0  0  0  0
   58.2900   27.4820   43.5250 C   0  0  0  0  0  0  0  0  0  0  0  0
   57.7740   26.2400   43.1500 C   0  0  0  0  0  0  0  0  0  0  0  0
   57.5730   25.2460   44.1130 C   0  0  0  0  0  0  0  0  0  0  0  0
   57.8890   25.4940   45.4510 C   0  0  0  0  0  0  0  0  0  0  0  0
   60.3780   28.7800   46.8770 C   0  0  0  0  0  0  0  0  0  0  0  0
   61.0540   30.0250   47.4910 C   0  0  0  0  0  0  0  0  0  0  0  0
   58.9350   32.5550   46.7800 C   0  0  0  0  0  0  0  0  0  0  0  0
   58.1970   31.5860   46.1730 N   0  0  0  0  0  0  0  0  0  0  0  0
   57.2518   29.4797   43.1985 H   0  0  0  0  0  0  0  0  0  0  0  0
   55.7782   30.3912   42.7249 H   0  0  0  0  0  0  0  0  0  0  0  0
   57.3782   31.2078   42.7249 H   0  0  0  0  0  0  0  0  0  0  0  0
   56.3693   33.4235   43.9981 H   0  0  0  0  0  0  0  0  0  0  0  0
   57.6810   35.2551   45.0815 H   0  0  0  0  0  0  0  0  0  0  0  0
   59.3617   35.9634   46.7339 H   0  0  0  0  0  0  0  0  0  0  0  0
   60.9866   35.3760   48.5343 H   0  0  0  0  0  0  0  0  0  0  0  0
   61.3074   33.0026   49.2103 H   0  0  0  0  0  0  0  0  0  0  0  0
   59.6617   30.4115   50.2034 H   0  0  0  0  0  0  0  0  0  0  0  0
   58.2170   30.6821   49.1567 H   0  0  0  0  0  0  0  0  0  0  0  0
   59.9684   28.2146   49.4251 H   0  0  0  0  0  0  0  0  0  0  0  0
   58.1720   28.3571   49.4243 H   0  0  0  0  0  0  0  0  0  0  0  0
   58.3260   29.0270   47.0880 H   0  0  0  0  0  0  0  0  0  0  0  0
   59.5749   26.3827   47.5961 H   0  0  0  0  0  0  0  0  0  0  0  0
   57.8296   26.7833   47.8832 H   0  0  0  0  0  0  0  0  0  0  0  0
   59.0121   28.7145   45.1561 H   0  0  0  0  0  0  0  0  0  0  0  0
   58.4467   28.2634   42.7668 H   0  0  0  0  0  0  0  0  0  0  0  0
   57.5255   26.0433   42.0967 H   0  0  0  0  0  0  0  0  0  0  0  0
   57.1658   24.2681   43.8167 H   0  0  0  0  0  0  0  0  0  0  0  0
   57.7267   24.7106   46.2060 H   0  0  0  0  0  0  0  0  0  0  0  0
   61.0594   27.9235   46.9871 H   0  0  0  0  0  0  0  0  0  0  0  0
   60.1680   29.0118   45.8224 H   0  0  0  0  0  0  0  0  0  0  0  0
   61.8255   29.7016   48.2053 H   0  0  0  0  0  0  0  0  0  0  0  0
   61.5069   30.6166   46.6818 H   0  0  0  0  0  0  0  0  0  0  0  0
  1  2  1  0
  2  3  1  0
  3  4  2  0
  4  5  1  0
  5  6  2  0
  6  7  1  0
  7  8  2  0
  8  9  1  0
  9 10  2  0
 10 11  1  0
 11 12  1  0
 12 13  1  0
 13 14  1  0
 14 15  1  0
 15 16  1  0
 16 17  2  0
 17 18  1  0
 18 19  2  0
 19 20  1  0
 20 21  2  0
 14 22  1  0
 22 23  1  0
 10 24  1  0
 24 25  2  0
 25  3  1  0
 24  6  1  0
 23 11  1  0
 21 16  1  0
  1 26  1  0
  1 27  1  0
  1 28  1  0
  4 29  1  0
  5 30  1  0
  7 31  1  0
  8 32  1  0
  9 33  1  0
 12 34  1  0
 12 35  1  0
 13 36  1  0
 13 37  1  0
 14 38  1  0
 15 39  1  0
 15 40  1  0
 17 41  1  0
 18 42  1  0
 19 43  1  0
 20 44  1  0
 21 45  1  0
 22 46  1  0
 22 47  1  0
 23 48  1  0
 23 49  1  0
M  CHG  1  14   1
M  END
>  <UniqueID>  (17) 
17

>  <SMILES>  (17) 
COc1ccc2cccc(N3CC[NH+](Cc4ccccc4)CC3)c2n1

>  <Energy>  (17) 
64.70656552118608

>  <Genealogy>  (17) 
COc1ccc2cccc(N3CC[NH+](Cc4ccccc4)CC3)c2n1 (protonated)
COc1ccc2cccc(N3CC[NH+](Cc4ccccc4)CC3)c2n1 (3D coordinates assigned)
COc1ccc2cccc(N3CC[NH+](Cc4ccccc4)CC3)c2n1 (nonaromatic ring conformer: 64.70656552118608 kcal/mol)

>  <smiles>  (17) 
COc1ccc2cccc(N3CCN(Cc4ccccc4)CC3)c2n1

>  <score_type>  (17) 
oracle

>  <origin>  (17) 
adg

>  <m_score__min__energy>  (17) 
-6.3799999999999999

>  <m_primary>  (17) 
energy

$$$$
17:0
     RDKit          3D

 41 42  0  0  0  0  0  0  0  0999 V2000
   57.7000   33.3050   44.4640 C   0  0  0  0  0  0  0  0  0  0  0  0
   57.6130   31.8620   43.9960 C   0  0  0  0  0  0  0  0  0  0  0  0
   56.4750   31.2330   44.5780 O   0  0  0  0  0  0  0  0  0  0  0  0
   56.2430   29.8590   44.4680 C   0  0  0  0  0  0  0  0  0  0  0  0
   55.1510   29.3590   44.8560 O   0  0  0  0  0  0  0  0  0  0  0  0
   57.2980   28.9690   43.8830 C   0  0  0  0  0  0  0  0  0  0  0  0
   58.3030   28.5990   44.9000 N   0  0  0  0  0  0  0  0  0  0  0  0
   58.3680   27.1440   45.0930 C   0  0  0  0  0  0  0  0  0  0  0  0
   59.1990   26.8380   46.3470 C   0  0  0  0  0  0  0  0  0  0  0  0
   60.3970   27.7100   46.4910 N   0  0  0  0  0  0  0  0  0  0  0  0
   60.2880   28.6060   47.6310 C   0  0  0  0  0  0  0  0  0  0  0  0
   60.3030   28.1270   48.7970 O   0  0  0  0  0  0  0  0  0  0  0  0
   60.1340   30.0640   47.4870 C   0  0  0  0  0  0  0  0  0  0  0  0
   61.2690   30.8660   47.2990 C   0  0  0  0  0  0  0  0  0  0  0  0
   61.1350   32.2510   47.1600 C   0  0  0  0  0  0  0  0  0  0  0  0
   59.8690   32.8430   47.2230 C   0  0  0  0  0  0  0  0  0  0  0  0
   59.7010   34.5790   47.0440 Cl  0  0  0  0  0  0  0  0  0  0  0  0
   58.7380   32.0470   47.4340 C   0  0  0  0  0  0  0  0  0  0  0  0
   58.8680   30.6630   47.5730 C   0  0  0  0  0  0  0  0  0  0  0  0
   60.7980   28.4050   45.2430 C   0  0  0  0  0  0  0  0  0  0  0  0
   59.6320   29.1230   44.5180 C   0  0  0  0  0  0  0  0  0  0  0  0
   57.7018   33.3344   45.5636 H   0  0  0  0  0  0  0  0  0  0  0  0
   58.6271   33.7586   44.0836 H   0  0  0  0  0  0  0  0  0  0  0  0
   56.8341   33.8667   44.0836 H   0  0  0  0  0  0  0  0  0  0  0  0
   57.5224   31.8385   42.9000 H   0  0  0  0  0  0  0  0  0  0  0  0
   58.5220   31.3249   44.3047 H   0  0  0  0  0  0  0  0  0  0  0  0
   56.8236   28.0547   43.4970 H   0  0  0  0  0  0  0  0  0  0  0  0
   57.8045   29.5128   43.0719 H   0  0  0  0  0  0  0  0  0  0  0  0
   57.3512   26.7437   45.2187 H   0  0  0  0  0  0  0  0  0  0  0  0
   58.8370   26.6753   44.2153 H   0  0  0  0  0  0  0  0  0  0  0  0
   58.5593   26.9759   47.2312 H   0  0  0  0  0  0  0  0  0  0  0  0
   59.5605   25.8035   46.2519 H   0  0  0  0  0  0  0  0  0  0  0  0
   61.2000   27.0730   46.7130 H   0  0  0  0  0  0  0  0  0  0  0  0
   62.2668   30.4046   47.2608 H   0  0  0  0  0  0  0  0  0  0  0  0
   62.0262   32.8758   47.0009 H   0  0  0  0  0  0  0  0  0  0  0  0
   57.7430   32.5125   47.4906 H   0  0  0  0  0  0  0  0  0  0  0  0
   57.9772   30.0424   47.7500 H   0  0  0  0  0  0  0  0  0  0  0  0
   61.5624   29.1548   45.4951 H   0  0  0  0  0  0  0  0  0  0  0  0
   61.1724   27.6325   44.5552 H   0  0  0  0  0  0  0  0  0  0  0  0
   59.6711   30.1938   44.7667 H   0  0  0  0  0  0  0  0  0  0  0  0
   59.7572   28.9467   43.4395 H   0  0  0  0  0  0  0  0  0  0  0  0
  1  2  1  0
  2  3  1  0
  3  4  1  0
  4  5  2  0
  4  6  1  0
  6  7  1  0
  7  8  1  0
  8  9  1  0
  9 10  1  0
 10 11  1  0
 11 12  2  0
 11 13  1  0
 13 14  2  0
 14 15  1  0
 15 16  2  0
 16 17  1  0
 16 18  1  0
 18 19  2  0
 10 20  1  0
 20 21  1  0
 21  7  1  0
 19 13  1  0
  1 22  1  0
  1 23  1  0
  1 24  1  0
  2 25  1  0
  2 26  1  0
  6 27  1  0
  6 28  1  0
  8 29  1  0
  8 30  1  0
  9 31  1  0
  9 32  1  0
 10 33  1  0
 14 34  1  0
 15 35  1  0
 18 36  1  0
 19 37  1  0
 20 38  1  0
 20 39  1  0
 21 40  1  0
 21 41  1  0
M  CHG  1  10   1
M  END
>  <UniqueID>  (18) 
18

>  <SMILES>  (18) 
CCOC(=O)CN1CC[NH+](C(=O)c2ccc(Cl)cc2)CC1

>  <Energy>  (18) 
54.14245730397804

>  <Genealogy>  (18) 
CCOC(=O)CN1CC[NH+](C(=O)c2ccc(Cl)cc2)CC1 (protonated)
CCOC(=O)CN1CC[NH+](C(=O)c2ccc(Cl)cc2)CC1 (3D coordinates assigned)
CCOC(=O)CN1CC[NH+](C(=O)c2ccc(Cl)cc2)CC1 (nonaromatic ring conformer: 54.14245730397804 kcal/mol)

>  <smiles>  (18) 
CCOC(=O)CN1CCN(C(=O)c2ccc(Cl)cc2)CC1

>  <score_type>  (18) 
oracle

>  <origin>  (18) 
adg

>  <m_score__min__energy>  (18) 
-6

>  <m_primary>  (18) 
energy

$$$$
18:0
     RDKit          3D

 35 36  0  0  0  0  0  0  0  0999 V2000
   57.6290   25.6170   44.2540 C   0  0  0  0  0  0  0  0  0  0  0  0
   57.6230   26.7470   45.2940 C   0  0  0  0  0  0  0  0  0  0  0  0
   58.1670   28.0430   44.7990 N   0  0  0  0  0  0  0  0  0  0  0  0
   59.6390   28.1660   44.9650 C   0  0  0  0  0  0  0  0  0  0  0  0
   60.0480   29.3630   45.8310 C   0  0  0  0  0  0  0  0  0  0  0  0
   57.7700   28.2820   43.3830 C   0  0  0  0  0  0  0  0  0  0  0  0
   56.6960   29.3770   43.2490 C   0  0  0  0  0  0  0  0  0  0  0  0
   57.2550   30.6840   43.6330 N   0  0  0  0  0  0  0  0  0  0  0  0
   57.5910   31.5800   42.6440 C   0  0  0  0  0  0  0  0  0  0  0  0
   58.0850   32.8110   42.9540 N   0  0  0  0  0  0  0  0  0  0  0  0
   58.2360   33.1460   44.2540 C   0  0  0  0  0  0  0  0  0  0  0  0
   58.8160   34.5940   44.8680 S   0  0  0  0  0  0  0  0  0  0  0  0
   58.6420   34.1310   46.4890 C   0  0  0  0  0  0  0  0  0  0  0  0
   58.1270   32.8360   46.5470 C   0  0  0  0  0  0  0  0  0  0  0  0
   57.9020   32.2910   45.2770 C   0  0  0  0  0  0  0  0  0  0  0  0
   57.3940   31.0320   44.9580 C   0  0  0  0  0  0  0  0  0  0  0  0
   57.0670   30.2330   45.8780 O   0  0  0  0  0  0  0  0  0  0  0  0
   57.6342   24.6449   44.7688 H   0  0  0  0  0  0  0  0  0  0  0  0
   56.7304   25.6936   43.6241 H   0  0  0  0  0  0  0  0  0  0  0  0
   58.5267   25.7031   43.6241 H   0  0  0  0  0  0  0  0  0  0  0  0
   56.5846   26.9111   45.6176 H   0  0  0  0  0  0  0  0  0  0  0  0
   58.2817   26.4228   46.1132 H   0  0  0  0  0  0  0  0  0  0  0  0
   57.7190   28.7840   45.3880 H   0  0  0  0  0  0  0  0  0  0  0  0
   60.0162   27.2469   45.4373 H   0  0  0  0  0  0  0  0  0  0  0  0
   60.0702   28.3217   43.9651 H   0  0  0  0  0  0  0  0  0  0  0  0
   59.9564   29.0949   46.8939 H   0  0  0  0  0  0  0  0  0  0  0  0
   61.0904   29.6361   45.6103 H   0  0  0  0  0  0  0  0  0  0  0  0
   59.3906   30.2169   45.6103 H   0  0  0  0  0  0  0  0  0  0  0  0
   58.6599   28.5891   42.8141 H   0  0  0  0  0  0  0  0  0  0  0  0
   57.3438   27.3460   42.9926 H   0  0  0  0  0  0  0  0  0  0  0  0
   56.3501   29.4216   42.2057 H   0  0  0  0  0  0  0  0  0  0  0  0
   55.8526   29.1371   43.9131 H   0  0  0  0  0  0  0  0  0  0  0  0
   57.4589   31.2983   41.5889 H   0  0  0  0  0  0  0  0  0  0  0  0
   58.8955   34.7542   47.3592 H   0  0  0  0  0  0  0  0  0  0  0  0
   57.9205   32.3021   47.4863 H   0  0  0  0  0  0  0  0  0  0  0  0
  1  2  1  0
  2  3  1  0
  3  4  1  0
  4  5  1  0
  3  6  1  0
  6  7  1  0
  7  8  1  0
  8  9  1  0
  9 10  2  0
 10 11  1  0
 11 12  1  0
 12 13  1  0
 13 14  2  0
 14 15  1  0
 15 16  1  0
 16 17  2  0
 16  8  1  0
 15 11  2  0
  1 18  1  0
  1 19  1  0
  1 20  1  0
  2 21  1  0
  2 22  1  0
  3 23  1  0
  4 24  1  0
  4 25  1  0
  5 26  1  0
  5 27  1  0
  5 28  1  0
  6 29  1  0
  6 30  1  0
  7 31  1  0
  7 32  1  0
  9 33  1  0
 13 34  1  0
 14 35  1  0
M  CHG  1   3   1
M  END
>  <UniqueID>  (19) 
19

>  <SMILES>  (19) 
CC[NH+](CC)CCn1cnc2sccc2c1=O

>  <Energy>  (19) 
71.56025450504306

>  <Genealogy>  (19) 
CC[NH+](CC)CCn1cnc2sccc2c1=O (protonated)
CC[NH+](CC)CCn1cnc2sccc2c1=O (3D coordinates assigned)
CC[NH+](CC)CCn1cnc2sccc2c1=O (optimized conformer: 71.56025450504306 kcal/mol)

>  <smiles>  (19) 
CCN(CC)CCn1cnc2sccc2c1=O

>  <score_type>  (19) 
oracle

>  <origin>  (19) 
adg

>  <m_score__min__energy>  (19) 
-3.6800000000000002

>  <m_primary>  (19) 
energy

$$$$
19:0
     RDKit          3D

 61 63  0  0  0  0  0  0  0  0999 V2000
   65.1870   33.0040   49.6480 C   0  0  0  0  0  0  0  0  0  0  0  0
   63.9900   32.0650   49.4970 C   0  0  0  0  0  0  0  0  0  0  0  0
   63.0120   32.6400   48.5430 N   0  0  0  0  0  0  0  0  0  0  0  0
   63.4800   32.5000   47.1460 C   0  0  0  0  0  0  0  0  0  0  0  0
   63.3510   33.8280   46.4150 C   0  0  0  0  0  0  0  0  0  0  0  0
   62.7150   34.0560   48.8650 C   0  0  0  0  0  0  0  0  0  0  0  0
   62.0270   34.1600   50.2270 C   0  0  0  0  0  0  0  0  0  0  0  0
   60.6460   33.8910   50.0760 O   0  0  0  0  0  0  0  0  0  0  0  0
   60.2760   32.7390   50.8100 C   0  0  0  0  0  0  0  0  0  0  0  0
   59.8300   31.6300   49.8520 C   0  0  0  0  0  0  0  0  0  0  0  0
   60.5570   31.6800   48.5720 N   0  0  0  0  0  0  0  0  0  0  0  0
   59.7300   31.1380   47.5040 C   0  0  0  0  0  0  0  0  0  0  0  0
   59.0540   32.0090   46.6040 C   0  0  0  0  0  0  0  0  0  0  0  0
   59.2180   33.4200   46.6560 C   0  0  0  0  0  0  0  0  0  0  0  0
   58.5050   34.2590   45.8050 C   0  0  0  0  0  0  0  0  0  0  0  0
   57.6110   33.7240   44.8880 C   0  0  0  0  0  0  0  0  0  0  0  0
   57.4600   32.3460   44.7830 C   0  0  0  0  0  0  0  0  0  0  0  0
   58.2100   31.4580   45.6030 C   0  0  0  0  0  0  0  0  0  0  0  0
   58.1250   30.0910   45.4340 N   0  0  0  0  0  0  0  0  0  0  0  0
   57.6360   29.5570   44.1420 C   0  0  0  0  0  0  0  0  0  0  0  0
   58.6290   29.2360   46.3960 C   0  0  0  0  0  0  0  0  0  0  0  0
   58.2570   27.8570   46.4500 C   0  0  0  0  0  0  0  0  0  0  0  0
   57.1690   27.3890   45.6890 O   0  0  0  0  0  0  0  0  0  0  0  0
   56.9880   26.0500   45.2540 C   0  0  0  0  0  0  0  0  0  0  0  0
   58.9480   26.9830   47.3050 C   0  0  0  0  0  0  0  0  0  0  0  0
   59.9560   27.4550   48.1300 C   0  0  0  0  0  0  0  0  0  0  0  0
   60.2440   28.8120   48.1780 C   0  0  0  0  0  0  0  0  0  0  0  0
   59.5410   29.7350   47.3710 C   0  0  0  0  0  0  0  0  0  0  0  0
   65.3935   33.1660   50.7162 H   0  0  0  0  0  0  0  0  0  0  0  0
   66.0687   32.5542   49.1682 H   0  0  0  0  0  0  0  0  0  0  0  0
   64.9600   33.9675   49.1682 H   0  0  0  0  0  0  0  0  0  0  0  0
   64.3362   31.0910   49.1210 H   0  0  0  0  0  0  0  0  0  0  0  0
   63.5062   31.9362   50.4765 H   0  0  0  0  0  0  0  0  0  0  0  0
   64.5341   32.1854   47.1454 H   0  0  0  0  0  0  0  0  0  0  0  0
   62.8637   31.7463   46.6340 H   0  0  0  0  0  0  0  0  0  0  0  0
   63.2717   34.6440   47.1484 H   0  0  0  0  0  0  0  0  0  0  0  0
   64.2379   33.9869   45.7841 H   0  0  0  0  0  0  0  0  0  0  0  0
   62.4501   33.8132   45.7841 H   0  0  0  0  0  0  0  0  0  0  0  0
   63.6549   34.6270   48.8891 H   0  0  0  0  0  0  0  0  0  0  0  0
   62.0445   34.4641   48.0944 H   0  0  0  0  0  0  0  0  0  0  0  0
   62.4701   33.4288   50.9191 H   0  0  0  0  0  0  0  0  0  0  0  0
   62.1625   35.1740   50.6314 H   0  0  0  0  0  0  0  0  0  0  0  0
   61.1376   32.3887   51.3973 H   0  0  0  0  0  0  0  0  0  0  0  0
   59.4439   32.9912   51.4837 H   0  0  0  0  0  0  0  0  0  0  0  0
   60.0143   30.6552   50.3271 H   0  0  0  0  0  0  0  0  0  0  0  0
   58.7602   31.7741   49.6405 H   0  0  0  0  0  0  0  0  0  0  0  0
   61.4630   31.1640   48.6320 H   0  0  0  0  0  0  0  0  0  0  0  0
   60.8670   32.6570   48.3640 H   0  0  0  0  0  0  0  0  0  0  0  0
   59.9206   33.8562   47.3814 H   0  0  0  0  0  0  0  0  0  0  0  0
   58.6502   35.3480   45.8592 H   0  0  0  0  0  0  0  0  0  0  0  0
   57.0208   34.3916   44.2431 H   0  0  0  0  0  0  0  0  0  0  0  0
   56.7476   31.9349   44.0526 H   0  0  0  0  0  0  0  0  0  0  0  0
   56.9040   28.7576   44.3292 H   0  0  0  0  0  0  0  0  0  0  0  0
   57.1581   30.3650   43.5686 H   0  0  0  0  0  0  0  0  0  0  0  0
   58.4828   29.1518   43.5686 H   0  0  0  0  0  0  0  0  0  0  0  0
   56.8987   25.3892   46.1288 H   0  0  0  0  0  0  0  0  0  0  0  0
   56.0725   25.9819   44.6480 H   0  0  0  0  0  0  0  0  0  0  0  0
   57.8526   25.7413   44.6480 H   0  0  0  0  0  0  0  0  0  0  0  0
   58.6867   25.9146   47.3198 H   0  0  0  0  0  0  0  0  0  0  0  0
   60.5307   26.7511   48.7498 H   0  0  0  0  0  0  0  0  0  0  0  0
   61.0317   29.1747   48.8547 H   0  0  0  0  0  0  0  0  0  0  0  0
  1  2  1  0
  2  3  1  0
  3  4  1  0
  4  5  1  0
  3  6  1  0
  6  7  1  0
  7  8  1  0
  8  9  1  0
  9 10  1  0
 10 11  1  0
 11 12  1  0
 12 13  2  0
 13 14  1  0
 14 15  2  0
 15 16  1  0
 16 17  2  0
 17 18  1  0
 18 19  2  0
 19 20  1  0
 19 21  1  0
 21 22  2  0
 22 23  1  0
 23 24  1  0
 22 25  1  0
 25 26  2  0
 26 27  1  0
 27 28  2  0
 28 12  1  0
 18 13  1  0
 28 21  1  0
  1 29  1  0
  1 30  1  0
  1 31  1  0
  2 32  1  0
  2 33  1  0
  4 34  1  0
  4 35  1  0
  5 36  1  0
  5 37  1  0
  5 38  1  0
  6 39  1  0
  6 40  1  0
  7 41  1  0
  7 42  1  0
  9 43  1  0
  9 44  1  0
 10 45  1  0
 10 46  1  0
 11 47  1  0
 11 48  1  0
 14 49  1  0
 15 50  1  0
 16 51  1  0
 17 52  1  0
 20 53  1  0
 20 54  1  0
 20 55  1  0
 24 56  1  0
 24 57  1  0
 24 58  1  0
 25 59  1  0
 26 60  1  0
 27 61  1  0
M  CHG  2  11   1  19   1
M  END
>  <UniqueID>  (20) 
20

>  <SMILES>  (20) 
CCN(CC)CCOCC[NH2+]c1c2ccccc2[n+](C)c2c(OC)cccc12

>  <Energy>  (20) 
93.51241056217052

>  <Genealogy>  (20) 
CCN(CC)CCOCC[NH2+]c1c2ccccc2[n+](C)c2c(OC)cccc12 (protonated)
CCN(CC)CCOCC[NH2+]c1c2ccccc2[n+](C)c2c(OC)cccc12 (3D coordinates assigned)
CCN(CC)CCOCC[NH2+]c1c2ccccc2[n+](C)c2c(OC)cccc12 (optimized conformer: 93.51241056217052 kcal/mol)

>  <smiles>  (20) 
CCN(CC)CCOCCNc1c2ccccc2[n+](C)c2c(OC)cccc12

>  <score_type>  (20) 
oracle

>  <origin>  (20) 
adg

>  <m_score__min__energy>  (20) 
-3.4700000000000002

>  <m_primary>  (20) 
energy

$$$$
20:0
     RDKit          3D

 56 58  0  0  0  0  0  0  0  0999 V2000
   57.0970   27.2590   45.6860 C   0  0  0  0  0  0  0  0  0  0  0  0
   58.1520   26.9260   46.7440 C   0  0  0  0  0  0  0  0  0  0  0  0
   59.5030   27.4600   46.4510 N   0  0  0  0  0  0  0  0  0  0  0  0
   59.7010   27.9120   45.0520 C   0  0  0  0  0  0  0  0  0  0  0  0
   60.8610   28.9030   44.8580 C   0  0  0  0  0  0  0  0  0  0  0  0
   60.6400   26.7130   47.0380 C   0  0  0  0  0  0  0  0  0  0  0  0
   60.6370   26.7720   48.5670 C   0  0  0  0  0  0  0  0  0  0  0  0
   61.0090   28.0670   48.9940 O   0  0  0  0  0  0  0  0  0  0  0  0
   60.0340   28.6040   49.8660 C   0  0  0  0  0  0  0  0  0  0  0  0
   59.0460   29.4670   49.0820 C   0  0  0  0  0  0  0  0  0  0  0  0
   59.6410   29.9040   47.8200 N   0  0  0  0  0  0  0  0  0  0  0  0
   59.6140   31.2880   47.4330 C   0  0  0  0  0  0  0  0  0  0  0  0
   60.2560   32.2570   48.2250 C   0  0  0  0  0  0  0  0  0  0  0  0
   60.8400   31.9070   49.4620 C   0  0  0  0  0  0  0  0  0  0  0  0
   61.4390   32.8730   50.2660 C   0  0  0  0  0  0  0  0  0  0  0  0
   61.4490   34.2040   49.8640 C   0  0  0  0  0  0  0  0  0  0  0  0
   60.8720   34.5750   48.6500 C   0  0  0  0  0  0  0  0  0  0  0  0
   60.2870   33.6090   47.7900 C   0  0  0  0  0  0  0  0  0  0  0  0
   59.7370   33.9580   46.5710 N   0  0  0  0  0  0  0  0  0  0  0  0
   60.0180   35.2890   45.9880 C   0  0  0  0  0  0  0  0  0  0  0  0
   58.9420   33.0570   45.8880 C   0  0  0  0  0  0  0  0  0  0  0  0
   58.1440   33.4530   44.7850 C   0  0  0  0  0  0  0  0  0  0  0  0
   57.3970   32.5220   44.0640 C   0  0  0  0  0  0  0  0  0  0  0  0
   57.4150   31.1790   44.4260 C   0  0  0  0  0  0  0  0  0  0  0  0
   56.4840   30.0110   43.5050 Cl  0  0  0  0  0  0  0  0  0  0  0  0
   58.1550   30.7660   45.5320 C   0  0  0  0  0  0  0  0  0  0  0  0
   58.9010   31.6940   46.2900 C   0  0  0  0  0  0  0  0  0  0  0  0
   56.1608   27.5545   46.1821 H   0  0  0  0  0  0  0  0  0  0  0  0
   57.4564   28.0874   45.0578 H   0  0  0  0  0  0  0  0  0  0  0  0
   56.9157   26.3744   45.0578 H   0  0  0  0  0  0  0  0  0  0  0  0
   57.8184   27.3431   47.7056 H   0  0  0  0  0  0  0  0  0  0  0  0
   58.2446   25.8300   46.7608 H   0  0  0  0  0  0  0  0  0  0  0  0
   59.8984   27.0265   44.4299 H   0  0  0  0  0  0  0  0  0  0  0  0
   58.7833   28.4456   44.7637 H   0  0  0  0  0  0  0  0  0  0  0  0
   61.2370   29.2242   45.8406 H   0  0  0  0  0  0  0  0  0  0  0  0
   61.6712   28.4139   44.2973 H   0  0  0  0  0  0  0  0  0  0  0  0
   60.5044   29.7797   44.2973 H   0  0  0  0  0  0  0  0  0  0  0  0
   60.5741   25.6611   46.7232 H   0  0  0  0  0  0  0  0  0  0  0  0
   61.5714   27.1775   46.6821 H   0  0  0  0  0  0  0  0  0  0  0  0
   59.6286   26.5395   48.9400 H   0  0  0  0  0  0  0  0  0  0  0  0
   61.3549   26.0379   48.9615 H   0  0  0  0  0  0  0  0  0  0  0  0
   59.4907   27.7818   50.3547 H   0  0  0  0  0  0  0  0  0  0  0  0
   60.5326   29.2260   50.6239 H   0  0  0  0  0  0  0  0  0  0  0  0
   58.1398   28.8801   48.8715 H   0  0  0  0  0  0  0  0  0  0  0  0
   58.7915   30.3530   49.6823 H   0  0  0  0  0  0  0  0  0  0  0  0
   60.3080   29.2580   47.3430 H   0  0  0  0  0  0  0  0  0  0  0  0
   60.8215   30.8586   49.7944 H   0  0  0  0  0  0  0  0  0  0  0  0
   61.9045   32.5831   51.2196 H   0  0  0  0  0  0  0  0  0  0  0  0
   61.9137   34.9669   50.5059 H   0  0  0  0  0  0  0  0  0  0  0  0
   60.8701   35.6343   48.3537 H   0  0  0  0  0  0  0  0  0  0  0  0
   60.1720   36.0185   46.7968 H   0  0  0  0  0  0  0  0  0  0  0  0
   60.9242   35.2334   45.3669 H   0  0  0  0  0  0  0  0  0  0  0  0
   59.1667   35.6044   45.3669 H   0  0  0  0  0  0  0  0  0  0  0  0
   58.1136   34.5131   44.4929 H   0  0  0  0  0  0  0  0  0  0  0  0
   56.7916   32.8506   43.2064 H   0  0  0  0  0  0  0  0  0  0  0  0
   58.1579   29.7038   45.8179 H   0  0  0  0  0  0  0  0  0  0  0  0
  1  2  1  0
  2  3  1  0
  3  4  1  0
  4  5  1  0
  3  6  1  0
  6  7  1  0
  7  8  1  0
  8  9  1  0
  9 10  1  0
 10 11  1  0
 11 12  1  0
 12 13  2  0
 13 14  1  0
 14 15  2  0
 15 16  1  0
 16 17  2  0
 17 18  1  0
 18 19  2  0
 19 20  1  0
 19 21  1  0
 21 22  2  0
 22 23  1  0
 23 24  2  0
 24 25  1  0
 24 26  1  0
 26 27  2  0
 27 12  1  0
 18 13  1  0
 27 21  1  0
  1 28  1  0
  1 29  1  0
  1 30  1  0
  2 31  1  0
  2 32  1  0
  4 33  1  0
  4 34  1  0
  5 35  1  0
  5 36  1  0
  5 37  1  0
  6 38  1  0
  6 39  1  0
  7 40  1  0
  7 41  1  0
  9 42  1  0
  9 43  1  0
 10 44  1  0
 10 45  1  0
 11 46  1  0
 14 47  1  0
 15 48  1  0
 16 49  1  0
 17 50  1  0
 20 51  1  0
 20 52  1  0
 20 53  1  0
 22 54  1  0
 23 55  1  0
 26 56  1  0
M  CHG  1  19   1
M  END
>  <UniqueID>  (21) 
21

>  <SMILES>  (21) 
CCN(CC)CCOCCNc1c2ccccc2[n+](C)c2ccc(Cl)cc12

>  <Energy>  (21) 
87.33395824114503

>  <Genealogy>  (21) 
CCN(CC)CCOCCNc1c2ccccc2[n+](C)c2ccc(Cl)cc12 (3D coordinates assigned)
CCN(CC)CCOCCNc1c2ccccc2[n+](C)c2ccc(Cl)cc12 (optimized conformer: 87.33395824114503 kcal/mol)

>  <smiles>  (21) 
CCN(CC)CCOCCNc1c2ccccc2[n+](C)c2ccc(Cl)cc12

>  <score_type>  (21) 
oracle

>  <origin>  (21) 
adg

>  <m_score__min__energy>  (21) 
-6.1600000000000001

>  <m_primary>  (21) 
energy

$$$$
21:0
     RDKit          3D

 63 66  0  0  0  0  0  0  0  0999 V2000
   61.2940   34.1810   49.4480 C   0  0  0  0  0  0  0  0  0  0  0  0
   62.7130   34.2120   50.0090 C   0  0  0  0  0  0  0  0  0  0  0  0
   63.6800   33.7700   48.9760 N   0  0  0  0  0  0  0  0  0  0  0  0
   63.0690   33.8170   47.6280 C   0  0  0  0  0  0  0  0  0  0  0  0
   63.6420   32.7110   46.7480 C   0  0  0  0  0  0  0  0  0  0  0  0
   64.2080   32.4180   49.2780 C   0  0  0  0  0  0  0  0  0  0  0  0
   63.4350   31.7840   50.4340 C   0  0  0  0  0  0  0  0  0  0  0  0
   62.6170   30.7420   49.9410 O   0  0  0  0  0  0  0  0  0  0  0  0
   61.3360   30.7870   50.5460 C   0  0  0  0  0  0  0  0  0  0  0  0
   60.2280   30.8650   49.4900 C   0  0  0  0  0  0  0  0  0  0  0  0
   60.7350   30.5100   48.1650 N   0  0  0  0  0  0  0  0  0  0  0  0
   59.8760   29.9690   47.1520 C   0  0  0  0  0  0  0  0  0  0  0  0
   59.5410   28.5970   47.1300 C   0  0  0  0  0  0  0  0  0  0  0  0
   59.9910   27.7260   48.1420 C   0  0  0  0  0  0  0  0  0  0  0  0
   59.6340   26.3800   48.1330 C   0  0  0  0  0  0  0  0  0  0  0  0
   58.8140   25.8800   47.1260 C   0  0  0  0  0  0  0  0  0  0  0  0
   58.3670   26.7160   46.1020 C   0  0  0  0  0  0  0  0  0  0  0  0
   58.7450   28.0800   46.0560 C   0  0  0  0  0  0  0  0  0  0  0  0
   58.3710   28.8990   45.0030 N   0  0  0  0  0  0  0  0  0  0  0  0
   57.9100   28.3100   43.7330 C   0  0  0  0  0  0  0  0  0  0  0  0
   58.5580   30.2570   45.1350 C   0  0  0  0  0  0  0  0  0  0  0  0
   59.3140   30.7840   46.1680 C   0  0  0  0  0  0  0  0  0  0  0  0
   59.2950   32.1590   46.0080 C   0  0  0  0  0  0  0  0  0  0  0  0
   59.8030   33.2010   46.7910 C   0  0  0  0  0  0  0  0  0  0  0  0
   59.5780   34.5200   46.3670 C   0  0  0  0  0  0  0  0  0  0  0  0
   58.8410   34.7760   45.1950 C   0  0  0  0  0  0  0  0  0  0  0  0
   58.3030   33.7180   44.4460 C   0  0  0  0  0  0  0  0  0  0  0  0
   58.5360   32.4060   44.8830 C   0  0  0  0  0  0  0  0  0  0  0  0
   58.0470   31.2570   44.3520 N   0  0  0  0  0  0  0  0  0  0  0  0
   57.0180   31.1840   43.3080 C   0  0  0  0  0  0  0  0  0  0  0  0
   60.5720   34.1652   50.2777 H   0  0  0  0  0  0  0  0  0  0  0  0
   61.1240   35.0756   48.8310 H   0  0  0  0  0  0  0  0  0  0  0  0
   61.1633   33.2798   48.8310 H   0  0  0  0  0  0  0  0  0  0  0  0
   62.9582   35.2378   50.3214 H   0  0  0  0  0  0  0  0  0  0  0  0
   62.7734   33.5328   50.8722 H   0  0  0  0  0  0  0  0  0  0  0  0
   61.9810   33.6821   47.7179 H   0  0  0  0  0  0  0  0  0  0  0  0
   63.2914   34.7913   47.1682 H   0  0  0  0  0  0  0  0  0  0  0  0
   64.0550   31.9138   47.3835 H   0  0  0  0  0  0  0  0  0  0  0  0
   62.8446   32.2976   46.1129 H   0  0  0  0  0  0  0  0  0  0  0  0
   64.4396   33.1239   46.1129 H   0  0  0  0  0  0  0  0  0  0  0  0
   64.1081   31.7832   48.3852 H   0  0  0  0  0  0  0  0  0  0  0  0
   65.2660   32.5068   49.5656 H   0  0  0  0  0  0  0  0  0  0  0  0
   64.1445   31.3761   51.1690 H   0  0  0  0  0  0  0  0  0  0  0  0
   62.8053   32.5470   50.9150 H   0  0  0  0  0  0  0  0  0  0  0  0
   61.1924   29.8794   51.1506 H   0  0  0  0  0  0  0  0  0  0  0  0
   61.2799   31.6859   51.1775 H   0  0  0  0  0  0  0  0  0  0  0  0
   59.4214   30.1690   49.7640 H   0  0  0  0  0  0  0  0  0  0  0  0
   59.8527   31.8984   49.4542 H   0  0  0  0  0  0  0  0  0  0  0  0
   61.6850   30.8470   47.8920 H   0  0  0  0  0  0  0  0  0  0  0  0
   60.6314   28.1135   48.9481 H   0  0  0  0  0  0  0  0  0  0  0  0
   60.0013   25.7100   48.9243 H   0  0  0  0  0  0  0  0  0  0  0  0
   58.5168   24.8210   47.1372 H   0  0  0  0  0  0  0  0  0  0  0  0
   57.7109   26.3092   45.3184 H   0  0  0  0  0  0  0  0  0  0  0  0
   57.2445   27.4598   43.9434 H   0  0  0  0  0  0  0  0  0  0  0  0
   57.3634   29.0689   43.1539 H   0  0  0  0  0  0  0  0  0  0  0  0
   58.7780   27.9618   43.1539 H   0  0  0  0  0  0  0  0  0  0  0  0
   60.3637   32.9923   47.7141 H   0  0  0  0  0  0  0  0  0  0  0  0
   59.9800   35.3589   46.9541 H   0  0  0  0  0  0  0  0  0  0  0  0
   58.6856   35.8134   44.8638 H   0  0  0  0  0  0  0  0  0  0  0  0
   57.7130   33.9131   43.5384 H   0  0  0  0  0  0  0  0  0  0  0  0
   56.0251   31.1136   43.7761 H   0  0  0  0  0  0  0  0  0  0  0  0
   57.0653   32.0878   42.6827 H   0  0  0  0  0  0  0  0  0  0  0  0
   57.1924   30.2960   42.6827 H   0  0  0  0  0  0  0  0  0  0  0  0
  1  2  1  0
  2  3  1  0
  3  4  1  0
  4  5  1  0
  3  6  1  0
  6  7  1  0
  7  8  1  0
  8  9  1  0
  9 10  1  0
 10 11  1  0
 11 12  1  0
 12 13  2  0
 13 14  1  0
 14 15  2  0
 15 16  1  0
 16 17  2  0
 17 18  1  0
 18 19  2  0
 19 20  1  0
 19 21  1  0
 21 22  2  0
 22 23  1  0
 23 24  2  0
 24 25  1  0
 25 26  2  0
 26 27  1  0
 27 28  2  0
 28 29  1  0
 29 30  1  0
 22 12  1  0
 28 23  1  0
 18 13  1  0
 29 21  1  0
  1 31  1  0
  1 32  1  0
  1 33  1  0
  2 34  1  0
  2 35  1  0
  4 36  1  0
  4 37  1  0
  5 38  1  0
  5 39  1  0
  5 40  1  0
  6 41  1  0
  6 42  1  0
  7 43  1  0
  7 44  1  0
  9 45  1  0
  9 46  1  0
 10 47  1  0
 10 48  1  0
 11 49  1  0
 14 50  1  0
 15 51  1  0
 16 52  1  0
 17 53  1  0
 20 54  1  0
 20 55  1  0
 20 56  1  0
 24 57  1  0
 25 58  1  0
 26 59  1  0
 27 60  1  0
 30 61  1  0
 30 62  1  0
 30 63  1  0
M  CHG  1  19   1
M  END
>  <UniqueID>  (22) 
22

>  <SMILES>  (22) 
CCN(CC)CCOCCNc1c2ccccc2[n+](C)c2c1c1ccccc1n2C

>  <Energy>  (22) 
125.32993666232464

>  <Genealogy>  (22) 
CCN(CC)CCOCCNc1c2ccccc2[n+](C)c2c1c1ccccc1n2C (3D coordinates assigned)
CCN(CC)CCOCCNc1c2ccccc2[n+](C)c2c1c1ccccc1n2C (optimized conformer: 125.32993666232464 kcal/mol)

>  <smiles>  (22) 
CCN(CC)CCOCCNc1c2ccccc2[n+](C)c2c1c1ccccc1n2C

>  <score_type>  (22) 
oracle

>  <origin>  (22) 
adg

>  <m_score__min__energy>  (22) 
-5.7999999999999998

>  <m_primary>  (22) 
energy

$$$$
22:0
     RDKit          3D

 56 59  0  0  0  0  0  0  0  0999 V2000
   62.9550   34.2390   49.9030 C   0  0  0  0  0  0  0  0  0  0  0  0
   64.0190   33.4360   49.1590 C   0  0  0  0  0  0  0  0  0  0  0  0
   63.4390   32.1890   48.6160 N   0  0  0  0  0  0  0  0  0  0  0  0
   63.3120   32.2090   47.1390 C   0  0  0  0  0  0  0  0  0  0  0  0
   63.4080   33.6090   46.5110 C   0  0  0  0  0  0  0  0  0  0  0  0
   62.1960   31.7820   49.3140 C   0  0  0  0  0  0  0  0  0  0  0  0
   61.4290   30.7350   48.4990 C   0  0  0  0  0  0  0  0  0  0  0  0
   60.0190   31.1010   48.3570 N   0  0  0  0  0  0  0  0  0  0  0  0
   59.3870   31.0840   47.0600 C   0  0  0  0  0  0  0  0  0  0  0  0
   59.3790   32.3590   46.3480 C   0  0  0  0  0  0  0  0  0  0  0  0
   60.1600   33.3900   46.9670 C   0  0  0  0  0  0  0  0  0  0  0  0
   60.0980   34.7230   46.5910 C   0  0  0  0  0  0  0  0  0  0  0  0
   59.2650   35.1090   45.5690 C   0  0  0  0  0  0  0  0  0  0  0  0
   58.5740   34.1500   44.8500 C   0  0  0  0  0  0  0  0  0  0  0  0
   58.6790   32.7560   45.1280 C   0  0  0  0  0  0  0  0  0  0  0  0
   58.1380   31.8930   44.1960 N   0  0  0  0  0  0  0  0  0  0  0  0
   57.8430   32.3380   42.8170 C   0  0  0  0  0  0  0  0  0  0  0  0
   57.8100   30.6240   44.4950 C   0  0  0  0  0  0  0  0  0  0  0  0
   57.0670   29.6210   43.8880 C   0  0  0  0  0  0  0  0  0  0  0  0
   56.2780   29.4600   42.6290 C   0  0  0  0  0  0  0  0  0  0  0  0
   57.3710   28.7870   44.9290 C   0  0  0  0  0  0  0  0  0  0  0  0
   57.0860   27.4880   45.2470 C   0  0  0  0  0  0  0  0  0  0  0  0
   57.5680   26.8950   46.3990 C   0  0  0  0  0  0  0  0  0  0  0  0
   58.3970   27.4750   47.3680 C   0  0  0  0  0  0  0  0  0  0  0  0
   58.9410   28.7760   47.4920 C   0  0  0  0  0  0  0  0  0  0  0  0
   58.7860   29.8900   46.6800 N   0  0  0  0  0  0  0  0  0  0  0  0
   58.0790   29.7910   45.5420 C   0  0  0  0  0  0  0  0  0  0  0  0
   63.1029   34.1274   50.9873 H   0  0  0  0  0  0  0  0  0  0  0  0
   63.0388   35.3010   49.6289 H   0  0  0  0  0  0  0  0  0  0  0  0
   61.9567   33.8672   49.6289 H   0  0  0  0  0  0  0  0  0  0  0  0
   64.4165   34.0412   48.3310 H   0  0  0  0  0  0  0  0  0  0  0  0
   64.8260   33.1778   49.8605 H   0  0  0  0  0  0  0  0  0  0  0  0
   64.1147   31.5869   46.7164 H   0  0  0  0  0  0  0  0  0  0  0  0
   62.3064   31.8292   46.9057 H   0  0  0  0  0  0  0  0  0  0  0  0
   63.4599   34.3655   47.3078 H   0  0  0  0  0  0  0  0  0  0  0  0
   64.3124   33.6701   45.8879 H   0  0  0  0  0  0  0  0  0  0  0  0
   62.5204   33.7930   45.8879 H   0  0  0  0  0  0  0  0  0  0  0  0
   62.4564   31.3556   50.2940 H   0  0  0  0  0  0  0  0  0  0  0  0
   61.5564   32.6683   49.4383 H   0  0  0  0  0  0  0  0  0  0  0  0
   61.8815   30.6569   47.4994 H   0  0  0  0  0  0  0  0  0  0  0  0
   61.4865   29.7723   49.0281 H   0  0  0  0  0  0  0  0  0  0  0  0
   59.4480   31.3820   49.1870 H   0  0  0  0  0  0  0  0  0  0  0  0
   60.8433   33.1089   47.7819 H   0  0  0  0  0  0  0  0  0  0  0  0
   60.7152   35.4708   47.1105 H   0  0  0  0  0  0  0  0  0  0  0  0
   59.1480   36.1749   45.3237 H   0  0  0  0  0  0  0  0  0  0  0  0
   57.9169   34.4766   44.0305 H   0  0  0  0  0  0  0  0  0  0  0  0
   57.2355   33.2544   42.8495 H   0  0  0  0  0  0  0  0  0  0  0  0
   58.7856   32.5416   42.2878 H   0  0  0  0  0  0  0  0  0  0  0  0
   57.2884   31.5490   42.2878 H   0  0  0  0  0  0  0  0  0  0  0  0
   55.2284   29.2458   42.8789 H   0  0  0  0  0  0  0  0  0  0  0  0
   56.3329   30.3878   42.0407 H   0  0  0  0  0  0  0  0  0  0  0  0
   56.6920   28.6278   42.0407 H   0  0  0  0  0  0  0  0  0  0  0  0
   56.4549   26.8977   44.5664 H   0  0  0  0  0  0  0  0  0  0  0  0
   57.2671   25.8516   46.5743 H   0  0  0  0  0  0  0  0  0  0  0  0
   58.6773   26.7927   48.1841 H   0  0  0  0  0  0  0  0  0  0  0  0
   59.5875   28.9272   48.3690 H   0  0  0  0  0  0  0  0  0  0  0  0
  1  2  1  0
  2  3  1  0
  3  4  1  0
  4  5  1  0
  3  6  1  0
  6  7  1  0
  7  8  1  0
  8  9  1  0
  9 10  2  0
 10 11  1  0
 11 12  2  0
 12 13  1  0
 13 14  2  0
 14 15  1  0
 15 16  2  0
 16 17  1  0
 16 18  1  0
 18 19  1  0
 19 20  1  0
 19 21  2  0
 21 22  1  0
 22 23  2  0
 23 24  1  0
 24 25  2  0
 25 26  1  0
 26 27  1  0
 26  9  1  0
 15 10  1  0
 27 18  2  0
 27 21  1  0
  1 28  1  0
  1 29  1  0
  1 30  1  0
  2 31  1  0
  2 32  1  0
  4 33  1  0
  4 34  1  0
  5 35  1  0
  5 36  1  0
  5 37  1  0
  6 38  1  0
  6 39  1  0
  7 40  1  0
  7 41  1  0
  8 42  1  0
 11 43  1  0
 12 44  1  0
 13 45  1  0
 14 46  1  0
 17 47  1  0
 17 48  1  0
 17 49  1  0
 20 50  1  0
 20 51  1  0
 20 52  1  0
 22 53  1  0
 23 54  1  0
 24 55  1  0
 25 56  1  0
M  CHG  1  16   1
M  END
>  <UniqueID>  (23) 
23

>  <SMILES>  (23) 
CCN(CC)CCNc1c2ccccc2[n+](C)c2c(C)c3ccccn1c32

>  <Energy>  (23) 
113.70939452637829

>  <Genealogy>  (23) 
CCN(CC)CCNc1c2ccccc2[n+](C)c2c(C)c3ccccn1c32 (3D coordinates assigned)
CCN(CC)CCNc1c2ccccc2[n+](C)c2c(C)c3ccccn1c32 (optimized conformer: 113.70939452637829 kcal/mol)

>  <smiles>  (23) 
CCN(CC)CCNc1c2ccccc2[n+](C)c2c(C)c3ccccn1c32

>  <score_type>  (23) 
oracle

>  <origin>  (23) 
adg

>  <m_score__min__energy>  (23) 
-6.7800000000000002

>  <m_primary>  (23) 
energy

$$$$
23:0
     RDKit          3D

 51 53  0  0  0  0  0  0  0  0999 V2000
   62.5810   30.9700   51.3910 C   0  0  0  0  0  0  0  0  0  0  0  0
   62.1510   32.1750   50.7720 O   0  0  0  0  0  0  0  0  0  0  0  0
   62.4390   32.6290   49.4710 C   0  0  0  0  0  0  0  0  0  0  0  0
   61.3950   32.6630   48.5960 N   0  0  0  0  0  0  0  0  0  0  0  0
   61.5450   33.0760   47.3050 C   0  0  0  0  0  0  0  0  0  0  0  0
   60.3550   33.1340   46.3750 C   0  0  0  0  0  0  0  0  0  0  0  0
   59.2800   32.1080   46.7970 C   0  0  0  0  0  0  0  0  0  0  0  0
   57.8460   32.5890   46.4970 C   0  0  0  0  0  0  0  0  0  0  0  0
   57.7570   33.3930   45.2570 N   0  0  0  0  0  0  0  0  0  0  0  0
   57.9500   32.5900   44.0270 C   0  0  0  0  0  0  0  0  0  0  0  0
   57.7830   31.1190   44.3110 C   0  0  0  0  0  0  0  0  0  0  0  0
   56.5030   30.5780   44.4830 C   0  0  0  0  0  0  0  0  0  0  0  0
   56.3410   29.2190   44.7650 C   0  0  0  0  0  0  0  0  0  0  0  0
   57.4600   28.3670   44.8870 C   0  0  0  0  0  0  0  0  0  0  0  0
   57.2920   26.9560   45.1820 N   0  0  0  0  0  0  0  0  0  0  0  0
   57.7770   25.9340   44.2460 C   0  0  0  0  0  0  0  0  0  0  0  0
   56.6350   26.5260   46.4230 C   0  0  0  0  0  0  0  0  0  0  0  0
   58.7440   28.9260   44.7160 C   0  0  0  0  0  0  0  0  0  0  0  0
   58.9020   30.2850   44.4320 C   0  0  0  0  0  0  0  0  0  0  0  0
   58.6100   34.6120   45.2880 C   0  0  0  0  0  0  0  0  0  0  0  0
   59.7680   34.5510   46.3060 C   0  0  0  0  0  0  0  0  0  0  0  0
   62.7620   33.4940   46.8740 N   0  0  0  0  0  0  0  0  0  0  0  0
   63.8380   33.4840   47.6940 C   0  0  0  0  0  0  0  0  0  0  0  0
   63.7200   33.0500   49.0180 C   0  0  0  0  0  0  0  0  0  0  0  0
   65.3380   33.0920   50.0500 Br  0  0  0  0  0  0  0  0  0  0  0  0
   62.5401   31.0845   52.4843 H   0  0  0  0  0  0  0  0  0  0  0  0
   61.9219   30.1446   51.0839 H   0  0  0  0  0  0  0  0  0  0  0  0
   63.6137   30.7483   51.0839 H   0  0  0  0  0  0  0  0  0  0  0  0
   60.4520   32.3630   48.9330 H   0  0  0  0  0  0  0  0  0  0  0  0
   60.7031   32.8702   45.3654 H   0  0  0  0  0  0  0  0  0  0  0  0
   59.4571   31.1689   46.2522 H   0  0  0  0  0  0  0  0  0  0  0  0
   59.3626   31.9697   47.8851 H   0  0  0  0  0  0  0  0  0  0  0  0
   57.1949   31.7086   46.3923 H   0  0  0  0  0  0  0  0  0  0  0  0
   57.5317   33.2327   47.3318 H   0  0  0  0  0  0  0  0  0  0  0  0
   57.2076   32.8980   43.2760 H   0  0  0  0  0  0  0  0  0  0  0  0
   58.9701   32.7613   43.6529 H   0  0  0  0  0  0  0  0  0  0  0  0
   55.6192   31.2270   44.3956 H   0  0  0  0  0  0  0  0  0  0  0  0
   55.3288   28.8079   44.8935 H   0  0  0  0  0  0  0  0  0  0  0  0
   58.1816   25.0815   44.8113 H   0  0  0  0  0  0  0  0  0  0  0  0
   56.9450   25.5924   43.6127 H   0  0  0  0  0  0  0  0  0  0  0  0
   58.5678   26.3625   43.6127 H   0  0  0  0  0  0  0  0  0  0  0  0
   57.2043   26.8986   47.2874 H   0  0  0  0  0  0  0  0  0  0  0  0
   55.6125   26.9302   46.4556 H   0  0  0  0  0  0  0  0  0  0  0  0
   56.5962   25.4272   46.4556 H   0  0  0  0  0  0  0  0  0  0  0  0
   59.6323   28.2837   44.8074 H   0  0  0  0  0  0  0  0  0  0  0  0
   59.9114   30.7026   44.3026 H   0  0  0  0  0  0  0  0  0  0  0  0
   59.0396   34.7574   44.2859 H   0  0  0  0  0  0  0  0  0  0  0  0
   57.9603   35.4432   45.5994 H   0  0  0  0  0  0  0  0  0  0  0  0
   60.5563   35.2540   45.9989 H   0  0  0  0  0  0  0  0  0  0  0  0
   59.3808   34.8224   47.2992 H   0  0  0  0  0  0  0  0  0  0  0  0
   64.8146   33.8204   47.3157 H   0  0  0  0  0  0  0  0  0  0  0  0
  1  2  1  0
  2  3  1  0
  3  4  2  0
  4  5  1  0
  5  6  1  0
  6  7  1  0
  7  8  1  0
  8  9  1  0
  9 10  1  0
 10 11  1  0
 11 12  2  0
 12 13  1  0
 13 14  2  0
 14 15  1  0
 15 16  1  0
 15 17  1  0
 14 18  1  0
 18 19  2  0
  9 20  1  0
 20 21  1  0
  5 22  2  0
 22 23  1  0
 23 24  2  0
 24 25  1  0
 24  3  1  0
 21  6  1  0
 19 11  1  0
  1 26  1  0
  1 27  1  0
  1 28  1  0
  4 29  1  0
  6 30  1  0
  7 31  1  0
  7 32  1  0
  8 33  1  0
  8 34  1  0
 10 35  1  0
 10 36  1  0
 12 37  1  0
 13 38  1  0
 16 39  1  0
 16 40  1  0
 16 41  1  0
 17 42  1  0
 17 43  1  0
 17 44  1  0
 18 45  1  0
 19 46  1  0
 20 47  1  0
 20 48  1  0
 21 49  1  0
 21 50  1  0
 23 51  1  0
M  CHG  1   4   1
M  END
>  <UniqueID>  (24) 
24

>  <SMILES>  (24) 
COc1[nH+]c(C2CCN(Cc3ccc(N(C)C)cc3)CC2)ncc1Br

>  <Energy>  (24) 
69.61120673946286

>  <Genealogy>  (24) 
COc1[nH+]c(C2CCN(Cc3ccc(N(C)C)cc3)CC2)ncc1Br (protonated)
COc1[nH+]c(C2CCN(Cc3ccc(N(C)C)cc3)CC2)ncc1Br (3D coordinates assigned)
COc1[nH+]c(C2CCN(Cc3ccc(N(C)C)cc3)CC2)ncc1Br (nonaromatic ring conformer: 69.61120673946286 kcal/mol)

>  <smiles>  (24) 
COc1nc(C2CCN(Cc3ccc(N(C)C)cc3)CC2)ncc1Br

>  <score_type>  (24) 
oracle

>  <origin>  (24) 
adg

>  <m_score__min__energy>  (24) 
-6.4900000000000002

>  <m_primary>  (24) 
energy

$$$$
24:0
     RDKit          3D

104108  0  0  0  0  0  0  0  0999 V2000
   61.5401   35.2765   45.8645 H   0  0  0  0  0  0  0  0  0  0  0  0
   60.8520   34.5800   46.3660 C   0  0  0  0  0  0  0  0  0  0  0  0
   61.2840   33.8430   47.4570 C   0  0  0  0  0  0  0  0  0  0  0  0
   62.5440   33.8640   47.8510 O   0  0  0  0  0  0  0  0  0  0  0  0
   62.9790   33.0800   48.8360 C   0  0  0  0  0  0  0  0  0  0  0  0
   64.3250   33.1030   49.1680 C   0  0  0  0  0  0  0  0  0  0  0  0
   64.9985   33.7904   48.6352 H   0  0  0  0  0  0  0  0  0  0  0  0
   64.8430   32.2760   50.1600 C   0  0  0  0  0  0  0  0  0  0  0  0
   66.2810   32.1700   50.2480 N   0  0  0  0  0  0  0  0  0  0  0  0
   66.8040   31.8180   49.4210 H   0  0  0  0  0  0  0  0  0  0  0  0
   67.0670   32.5200   51.4310 C   0  0  0  0  0  0  0  0  0  0  0  0
   67.7376   33.3561   51.1838 H   0  0  0  0  0  0  0  0  0  0  0  0
   66.3782   32.8071   52.2392 H   0  0  0  0  0  0  0  0  0  0  0  0
   67.9060   31.3250   51.9020 C   0  0  0  0  0  0  0  0  0  0  0  0
   68.7559   31.1874   51.2174 H   0  0  0  0  0  0  0  0  0  0  0  0
   68.2680   31.5247   52.9213 H   0  0  0  0  0  0  0  0  0  0  0  0
   67.0910   30.0940   51.9180 N   0  0  0  0  0  0  0  0  0  0  0  0
   67.5300   29.1730   50.8530 C   0  0  0  0  0  0  0  0  0  0  0  0
   67.2369   29.5865   49.8767 H   0  0  0  0  0  0  0  0  0  0  0  0
   68.6229   29.0636   50.9133 H   0  0  0  0  0  0  0  0  0  0  0  0
   66.8860   27.7790   51.0250 C   0  0  0  0  0  0  0  0  0  0  0  0
   66.5347   27.4224   50.0455 H   0  0  0  0  0  0  0  0  0  0  0  0
   67.6413   27.0943   51.4381 H   0  0  0  0  0  0  0  0  0  0  0  0
   65.7890   27.8300   51.9190 O   0  0  0  0  0  0  0  0  0  0  0  0
   66.2270   28.1680   53.2280 C   0  0  0  0  0  0  0  0  0  0  0  0
   65.3478   28.3886   53.8512 H   0  0  0  0  0  0  0  0  0  0  0  0
   66.7934   27.3144   53.6288 H   0  0  0  0  0  0  0  0  0  0  0  0
   67.1630   29.4070   53.2240 C   0  0  0  0  0  0  0  0  0  0  0  0
   66.8507   30.1013   54.0180 H   0  0  0  0  0  0  0  0  0  0  0  0
   68.1974   29.0771   53.4005 H   0  0  0  0  0  0  0  0  0  0  0  0
   63.9680   31.4280   50.9220 C   0  0  0  0  0  0  0  0  0  0  0  0
   64.4310   30.7210   52.1160 N   0  0  0  0  0  0  0  0  0  0  0  0
   65.0450   29.8730   51.9890 H   0  0  0  0  0  0  0  0  0  0  0  0
   63.8570   30.7010   53.4640 C   0  0  0  0  0  0  0  0  0  0  0  0
   63.0923   29.9122   53.5185 H   0  0  0  0  0  0  0  0  0  0  0  0
   64.6625   30.5046   54.1869 H   0  0  0  0  0  0  0  0  0  0  0  0
   63.2050   32.0650   53.8060 C   0  0  0  0  0  0  0  0  0  0  0  0
   63.1414   32.1664   54.8995 H   0  0  0  0  0  0  0  0  0  0  0  0
   63.8273   32.8625   53.3738 H   0  0  0  0  0  0  0  0  0  0  0  0
   61.8330   32.1770   53.2280 N   0  0  0  0  0  0  0  0  0  0  0  0
   60.7580   31.6240   54.0930 C   0  0  0  0  0  0  0  0  0  0  0  0
   60.3071   30.7621   53.5794 H   0  0  0  0  0  0  0  0  0  0  0  0
   61.2249   31.3438   55.0488 H   0  0  0  0  0  0  0  0  0  0  0  0
   59.6480   32.6330   54.4130 C   0  0  0  0  0  0  0  0  0  0  0  0
   58.8496   32.1253   54.9741 H   0  0  0  0  0  0  0  0  0  0  0  0
   60.0758   33.4504   55.0120 H   0  0  0  0  0  0  0  0  0  0  0  0
   59.0600   33.2230   53.1220 C   0  0  0  0  0  0  0  0  0  0  0  0
   58.3442   32.5003   52.7033 H   0  0  0  0  0  0  0  0  0  0  0  0
   58.5812   34.1763   53.3904 H   0  0  0  0  0  0  0  0  0  0  0  0
   60.1260   33.5360   52.0460 C   0  0  0  0  0  0  0  0  0  0  0  0
   60.0398   32.7952   51.2374 H   0  0  0  0  0  0  0  0  0  0  0  0
   59.9424   34.5566   51.6790 H   0  0  0  0  0  0  0  0  0  0  0  0
   61.5560   33.4900   52.6070 C   0  0  0  0  0  0  0  0  0  0  0  0
   62.2705   33.6599   51.7881 H   0  0  0  0  0  0  0  0  0  0  0  0
   61.6600   34.2722   53.3734 H   0  0  0  0  0  0  0  0  0  0  0  0
   62.5850   31.3110   50.5080 C   0  0  0  0  0  0  0  0  0  0  0  0
   61.6890   30.3650   51.1840 N   0  0  0  0  0  0  0  0  0  0  0  0
   61.8980   30.3530   52.2040 H   0  0  0  0  0  0  0  0  0  0  0  0
   60.7050   30.7060   51.0650 H   0  0  0  0  0  0  0  0  0  0  0  0
   61.7140   28.9350   50.8070 C   0  0  0  0  0  0  0  0  0  0  0  0
   61.6016   28.3370   51.7234 H   0  0  0  0  0  0  0  0  0  0  0  0
   62.6725   28.7655   50.2946 H   0  0  0  0  0  0  0  0  0  0  0  0
   60.6070   28.5090   49.8150 C   0  0  0  0  0  0  0  0  0  0  0  0
   60.0054   27.7157   50.2826 H   0  0  0  0  0  0  0  0  0  0  0  0
   61.1064   28.1638   48.8977 H   0  0  0  0  0  0  0  0  0  0  0  0
   59.6990   29.6270   49.4300 N   0  0  0  0  0  0  0  0  0  0  0  0
   58.6080   29.7360   50.4280 C   0  0  0  0  0  0  0  0  0  0  0  0
   58.9617   29.3255   51.3853 H   0  0  0  0  0  0  0  0  0  0  0  0
   57.7437   29.1736   50.0450 H   0  0  0  0  0  0  0  0  0  0  0  0
   58.1650   31.1840   50.6470 C   0  0  0  0  0  0  0  0  0  0  0  0
   58.1023   31.3891   51.7259 H   0  0  0  0  0  0  0  0  0  0  0  0
   58.8960   31.8647   50.1863 H   0  0  0  0  0  0  0  0  0  0  0  0
   57.1783   31.3392   50.1863 H   0  0  0  0  0  0  0  0  0  0  0  0
   59.1520   29.4420   48.0550 C   0  0  0  0  0  0  0  0  0  0  0  0
   58.8052   28.4049   47.9362 H   0  0  0  0  0  0  0  0  0  0  0  0
   58.3102   30.1335   47.9024 H   0  0  0  0  0  0  0  0  0  0  0  0
   60.2480   29.7370   47.0150 C   0  0  0  0  0  0  0  0  0  0  0  0
   61.1856   29.9894   47.5319 H   0  0  0  0  0  0  0  0  0  0  0  0
   60.4042   28.8489   46.3850 H   0  0  0  0  0  0  0  0  0  0  0  0
   59.9373   30.5835   46.3850 H   0  0  0  0  0  0  0  0  0  0  0  0
   62.0910   32.2150   49.5150 C   0  0  0  0  0  0  0  0  0  0  0  0
   60.7930   32.2540   49.1880 O   0  0  0  0  0  0  0  0  0  0  0  0
   60.3400   32.9890   48.1820 C   0  0  0  0  0  0  0  0  0  0  0  0
   59.0080   32.9520   47.7740 C   0  0  0  0  0  0  0  0  0  0  0  0
   58.2691   32.3994   48.3729 H   0  0  0  0  0  0  0  0  0  0  0  0
   58.6000   33.6170   46.6000 C   0  0  0  0  0  0  0  0  0  0  0  0
   57.3790   33.3870   46.1840 N   0  0  0  0  0  0  0  0  0  0  0  0
   56.9250   32.7120   44.9690 C   0  0  0  0  0  0  0  0  0  0  0  0
   55.8433   32.5295   45.0506 H   0  0  0  0  0  0  0  0  0  0  0  0
   57.1632   33.3650   44.1164 H   0  0  0  0  0  0  0  0  0  0  0  0
   57.6340   31.3700   44.7390 C   0  0  0  0  0  0  0  0  0  0  0  0
   58.0883   31.3643   43.7372 H   0  0  0  0  0  0  0  0  0  0  0  0
   58.4152   31.2373   45.5019 H   0  0  0  0  0  0  0  0  0  0  0  0
   56.6580   30.2610   44.8420 N   0  0  0  0  0  0  0  0  0  0  0  0
   57.2540   28.9940   45.3010 C   0  0  0  0  0  0  0  0  0  0  0  0
   57.2648   28.9711   46.4007 H   0  0  0  0  0  0  0  0  0  0  0  0
   56.6584   28.1502   44.9225 H   0  0  0  0  0  0  0  0  0  0  0  0
   58.2838   28.9149   44.9225 H   0  0  0  0  0  0  0  0  0  0  0  0
   55.8980   30.0710   43.6010 C   0  0  0  0  0  0  0  0  0  0  0  0
   54.8573   29.8108   43.8445 H   0  0  0  0  0  0  0  0  0  0  0  0
   55.9157   31.0012   43.0141 H   0  0  0  0  0  0  0  0  0  0  0  0
   56.3513   29.2585   43.0141 H   0  0  0  0  0  0  0  0  0  0  0  0
   59.5390   34.4370   45.9030 C   0  0  0  0  0  0  0  0  0  0  0  0
   59.2200   35.0830   44.8790 O   0  0  0  0  0  0  0  0  0  0  0  0
  1  2  1  0
  2  3  2  0
  3  4  1  0
  4  5  1  0
  5  6  2  0
  6  7  1  0
  6  8  1  0
  8  9  1  0
  9 10  1  0
  9 11  1  0
 11 12  1  0
 11 13  1  0
 11 14  1  0
 14 15  1  0
 14 16  1  0
 14 17  1  0
 17 18  1  0
 18 19  1  0
 18 20  1  0
 18 21  1  0
 21 22  1  0
 21 23  1  0
 21 24  1  0
 24 25  1  0
 25 26  1  0
 25 27  1  0
 25 28  1  0
 28 29  1  0
 28 30  1  0
  8 31  2  0
 31 32  1  0
 32 33  1  0
 32 34  1  0
 34 35  1  0
 34 36  1  0
 34 37  1  0
 37 38  1  0
 37 39  1  0
 37 40  1  0
 40 41  1  0
 41 42  1  0
 41 43  1  0
 41 44  1  0
 44 45  1  0
 44 46  1  0
 44 47  1  0
 47 48  1  0
 47 49  1  0
 47 50  1  0
 50 51  1  0
 50 52  1  0
 50 53  1  0
 53 54  1  0
 53 55  1  0
 31 56  1  0
 56 57  1  0
 57 58  1  0
 57 59  1  0
 57 60  1  0
 60 61  1  0
 60 62  1  0
 60 63  1  0
 63 64  1  0
 63 65  1  0
 63 66  1  0
 66 67  1  0
 67 68  1  0
 67 69  1  0
 67 70  1  0
 70 71  1  0
 70 72  1  0
 70 73  1  0
 66 74  1  0
 74 75  1  0
 74 76  1  0
 74 77  1  0
 77 78  1  0
 77 79  1  0
 77 80  1  0
 56 81  2  0
 81 82  1  0
 82 83  1  0
 83 84  2  0
 84 85  1  0
 84 86  1  0
 86 87  2  0
 87 88  1  0
 88 89  1  0
 88 90  1  0
 88 91  1  0
 91 92  1  0
 91 93  1  0
 91 94  1  0
 94 95  1  0
 95 96  1  0
 95 97  1  0
 95 98  1  0
 94 99  1  0
 99100  1  0
 99101  1  0
 99102  1  0
 86103  1  0
103104  2  0
103  2  1  0
 83  3  1  0
 81  5  1  0
 28 17  1  0
 53 40  1  0
M  CHG  1  57   1
M  END
>  <UniqueID>  (25) 
25

>  <SMILES>  (25) 
CCN(CC)CC[NH2+]c1c(NCCN2CCCCC2)c(NCCN2CCOCC2)cc2oc3cc(=O)/c(=N\CCN(C)C)cc-3oc12

>  <Energy>  (25) 
169.6333058790959

>  <Genealogy>  (25) 
CCN(CC)CC[NH2+]c1c(NCCN2CCCCC2)c(NCCN2CCOCC2)cc2oc3cc(=O)c(=NCCN(C)C)cc-3oc12 (protonated)
CCN(CC)CC[NH2+]c1c(NCCN2CCCCC2)c(NCCN2CCOCC2)cc2oc3cc(=O)/c(=N\CCN(C)C)cc-3oc12 (cis-trans isomerization)
CCN(CC)CC[NH2+]c1c(NCCN2CCCCC2)c(NCCN2CCOCC2)cc2oc3cc(=O)/c(=N\CCN(C)C)cc-3oc12 (3D coordinates assigned)
CCN(CC)CC[NH2+]c1c(NCCN2CCCCC2)c(NCCN2CCOCC2)cc2oc3cc(=O)/c(=N\CCN(C)C)cc-3oc12 (nonaromatic ring conformer: 169.6333058790959 kcal/mol)

>  <smiles>  (25) 
CCN(CC)CCNc1c(NCCN2CCCCC2)c(NCCN2CCOCC2)cc2oc3cc(=O)c(=NCCN(C)C)cc-3oc12

>  <score_type>  (25) 
oracle

>  <origin>  (25) 
adg

>  <m_score__min__energy>  (25) 
-7.1600000000000001

>  <m_primary>  (25) 
energy

$$$$
25:0
     RDKit          3D

 37 38  0  0  0  0  0  0  0  0999 V2000
   56.2910   30.0160   43.4400 N   0  0  0  0  0  0  0  0  0  0  0  0
   56.8670   30.8700   43.9670 C   0  0  0  0  0  0  0  0  0  0  0  0
   57.5850   31.9340   44.6240 C   0  0  0  0  0  0  0  0  0  0  0  0
   57.8300   33.1260   43.9300 C   0  0  0  0  0  0  0  0  0  0  0  0
   58.5280   34.1660   44.5460 C   0  0  0  0  0  0  0  0  0  0  0  0
   58.9810   34.0220   45.8580 C   0  0  0  0  0  0  0  0  0  0  0  0
   58.7390   32.8370   46.5600 C   0  0  0  0  0  0  0  0  0  0  0  0
   58.0430   31.7740   45.9470 C   0  0  0  0  0  0  0  0  0  0  0  0
   57.7750   30.5600   46.6050 O   0  0  0  0  0  0  0  0  0  0  0  0
   58.6260   29.4110   46.6640 C   0  0  0  0  0  0  0  0  0  0  0  0
   58.0940   28.2660   45.7830 C   0  0  1  0  0  0  0  0  0  0  0  0
   56.7010   28.3840   45.6390 O   0  0  0  0  0  0  0  0  0  0  0  0
   58.7570   28.2530   44.3900 C   0  0  0  0  0  0  0  0  0  0  0  0
   57.8030   27.9300   43.3100 N   0  0  0  0  0  0  0  0  0  0  0  0
   58.1410   26.6710   42.6270 C   0  0  0  0  0  0  0  0  0  0  0  0
   57.7220   25.4970   43.4600 C   0  0  0  0  0  0  0  0  0  0  0  0
   57.0110   24.3930   43.0070 C   0  0  0  0  0  0  0  0  0  0  0  0
   56.8300   23.4150   43.9920 C   0  0  0  0  0  0  0  0  0  0  0  0
   57.4080   23.7390   45.2130 C   0  0  0  0  0  0  0  0  0  0  0  0
   58.1480   25.2420   45.0660 S   0  0  0  0  0  0  0  0  0  0  0  0
   57.4713   33.2427   42.8967 H   0  0  0  0  0  0  0  0  0  0  0  0
   58.7211   35.0995   43.9970 H   0  0  0  0  0  0  0  0  0  0  0  0
   59.5302   34.8433   46.3416 H   0  0  0  0  0  0  0  0  0  0  0  0
   59.0934   32.7331   47.5962 H   0  0  0  0  0  0  0  0  0  0  0  0
   59.6306   29.6925   46.3153 H   0  0  0  0  0  0  0  0  0  0  0  0
   58.6562   29.0583   47.7055 H   0  0  0  0  0  0  0  0  0  0  0  0
   58.3436   27.3189   46.2837 H   0  0  0  0  0  0  0  0  0  0  0  0
   56.5060   29.3510   45.5200 H   0  0  0  0  0  0  0  0  0  0  0  0
   59.1866   29.2467   44.1950 H   0  0  0  0  0  0  0  0  0  0  0  0
   59.5303   27.4708   44.3964 H   0  0  0  0  0  0  0  0  0  0  0  0
   57.8380   28.7070   42.6070 H   0  0  0  0  0  0  0  0  0  0  0  0
   56.8270   27.8820   43.6860 H   0  0  0  0  0  0  0  0  0  0  0  0
   57.6206   26.6327   41.6586 H   0  0  0  0  0  0  0  0  0  0  0  0
   59.2293   26.6293   42.4726 H   0  0  0  0  0  0  0  0  0  0  0  0
   56.6294   24.2971   41.9798 H   0  0  0  0  0  0  0  0  0  0  0  0
   56.2816   22.4779   43.8158 H   0  0  0  0  0  0  0  0  0  0  0  0
   57.3855   23.1184   46.1209 H   0  0  0  0  0  0  0  0  0  0  0  0
  1  2  3  0
  2  3  1  0
  3  4  2  0
  4  5  1  0
  5  6  2  0
  6  7  1  0
  7  8  2  0
  8  9  1  0
  9 10  1  0
 10 11  1  0
 11 12  1  0
 11 13  1  0
 13 14  1  0
 14 15  1  0
 15 16  1  0
 16 17  2  0
 17 18  1  0
 18 19  2  0
 19 20  1  0
  8  3  1  0
 20 16  1  0
  4 21  1  0
  5 22  1  0
  6 23  1  0
  7 24  1  0
 10 25  1  0
 10 26  1  0
 11 27  1  1
 12 28  1  0
 13 29  1  0
 13 30  1  0
 14 31  1  0
 14 32  1  0
 15 33  1  0
 15 34  1  0
 17 35  1  0
 18 36  1  0
 19 37  1  0
M  CHG  1  14   1
M  END
>  <UniqueID>  (26) 
26

>  <SMILES>  (26) 
N#Cc1ccccc1OC[C@@H](O)C[NH2+]Cc1cccs1

>  <Energy>  (26) 
61.94500779823396

>  <Genealogy>  (26) 
N#Cc1ccccc1OCC(O)C[NH2+]Cc1cccs1 (protonated)
N#Cc1ccccc1OC[C@@H](O)C[NH2+]Cc1cccs1 (chirality)
N#Cc1ccccc1OC[C@@H](O)C[NH2+]Cc1cccs1 (3D coordinates assigned)
N#Cc1ccccc1OC[C@@H](O)C[NH2+]Cc1cccs1 (optimized conformer: 61.94500779823396 kcal/mol)

>  <smiles>  (26) 
N#Cc1ccccc1OCC(O)CNCc1cccs1

>  <score_type>  (26) 
oracle

>  <origin>  (26) 
adg

>  <m_score__min__energy>  (26) 
-4.04

>  <m_primary>  (26) 
energy

$$$$
26:0
     RDKit          3D

 38 41  0  0  0  0  0  0  0  0999 V2000
   56.3670   25.6040   45.6480 C   0  0  0  0  0  0  0  0  0  0  0  0
   56.1660   27.0140   45.6680 O   0  0  0  0  0  0  0  0  0  0  0  0
   57.1750   27.9530   45.9260 C   0  0  0  0  0  0  0  0  0  0  0  0
   57.9310   27.8130   47.0940 C   0  0  0  0  0  0  0  0  0  0  0  0
   58.9470   28.7240   47.3990 C   0  0  0  0  0  0  0  0  0  0  0  0
   59.2150   29.8010   46.5380 C   0  0  0  0  0  0  0  0  0  0  0  0
   60.2920   30.7680   46.8450 C   0  0  0  0  0  0  0  0  0  0  0  0
   61.5090   30.4060   47.3130 N   0  0  0  0  0  0  0  0  0  0  0  0
   62.2080   31.5070   47.5200 N   0  0  0  0  0  0  0  0  0  0  0  0
   63.4830   31.5960   47.9700 C   0  0  0  0  0  0  0  0  0  0  0  0
   64.0480   32.8310   48.0820 N   0  0  0  0  0  0  0  0  0  0  0  0
   63.3500   33.9580   47.7470 C   0  0  0  0  0  0  0  0  0  0  0  0
   62.0300   33.8640   47.2800 C   0  0  0  0  0  0  0  0  0  0  0  0
   61.4820   32.5850   47.1940 C   0  0  0  0  0  0  0  0  0  0  0  0
   60.2330   32.1670   46.7540 C   0  0  0  0  0  0  0  0  0  0  0  0
   59.1460   33.0080   46.2090 C   0  0  0  0  0  0  0  0  0  0  0  0
   57.8080   32.7380   46.5320 C   0  0  0  0  0  0  0  0  0  0  0  0
   56.7980   33.5410   46.0010 C   0  0  0  0  0  0  0  0  0  0  0  0
   57.1090   34.5770   45.1760 N   0  0  0  0  0  0  0  0  0  0  0  0
   58.3970   34.8600   44.8470 C   0  0  0  0  0  0  0  0  0  0  0  0
   59.4390   34.0840   45.3570 C   0  0  0  0  0  0  0  0  0  0  0  0
   58.4680   29.9350   45.3570 C   0  0  0  0  0  0  0  0  0  0  0  0
   57.4520   29.0230   45.0540 C   0  0  0  0  0  0  0  0  0  0  0  0
   56.4208   25.2266   46.6798 H   0  0  0  0  0  0  0  0  0  0  0  0
   55.5286   25.1215   45.1244 H   0  0  0  0  0  0  0  0  0  0  0  0
   57.3069   25.3750   45.1244 H   0  0  0  0  0  0  0  0  0  0  0  0
   57.7244   26.9780   47.7796 H   0  0  0  0  0  0  0  0  0  0  0  0
   59.5390   28.5967   48.3173 H   0  0  0  0  0  0  0  0  0  0  0  0
   61.8490   29.4360   47.5010 H   0  0  0  0  0  0  0  0  0  0  0  0
   64.0491   30.6919   48.2388 H   0  0  0  0  0  0  0  0  0  0  0  0
   63.8262   34.9448   47.8442 H   0  0  0  0  0  0  0  0  0  0  0  0
   61.4548   34.7574   46.9952 H   0  0  0  0  0  0  0  0  0  0  0  0
   57.5569   31.8998   47.1987 H   0  0  0  0  0  0  0  0  0  0  0  0
   55.7465   33.3356   46.2504 H   0  0  0  0  0  0  0  0  0  0  0  0
   58.6189   35.7034   44.1766 H   0  0  0  0  0  0  0  0  0  0  0  0
   60.4818   34.3140   45.0932 H   0  0  0  0  0  0  0  0  0  0  0  0
   58.6832   30.7628   44.6653 H   0  0  0  0  0  0  0  0  0  0  0  0
   56.8667   29.1422   44.1303 H   0  0  0  0  0  0  0  0  0  0  0  0
  1  2  1  0
  2  3  1  0
  3  4  2  0
  4  5  1  0
  5  6  2  0
  6  7  1  0
  7  8  2  0
  8  9  1  0
  9 10  1  0
 10 11  2  0
 11 12  1  0
 12 13  2  0
 13 14  1  0
 14 15  2  0
 15 16  1  0
 16 17  2  0
 17 18  1  0
 18 19  2  0
 19 20  1  0
 20 21  2  0
  6 22  1  0
 22 23  2  0
 23  3  1  0
 15  7  1  0
 21 16  1  0
 14  9  1  0
  1 24  1  0
  1 25  1  0
  1 26  1  0
  4 27  1  0
  5 28  1  0
  8 29  1  0
 10 30  1  0
 12 31  1  0
 13 32  1  0
 17 33  1  0
 18 34  1  0
 20 35  1  0
 21 36  1  0
 22 37  1  0
 23 38  1  0
M  CHG  1   8   1
M  END
>  <UniqueID>  (27) 
27

>  <SMILES>  (27) 
COc1ccc(-c2[nH+]n3cnccc3c2-c2ccncc2)cc1

>  <Energy>  (27) 
89.31807039830886

>  <Genealogy>  (27) 
COc1ccc(-c2[nH+]n3cnccc3c2-c2ccncc2)cc1 (protonated)
COc1ccc(-c2[nH+]n3cnccc3c2-c2ccncc2)cc1 (3D coordinates assigned)
COc1ccc(-c2[nH+]n3cnccc3c2-c2ccncc2)cc1 (optimized conformer: 89.31807039830886 kcal/mol)

>  <smiles>  (27) 
COc1ccc(-c2nn3cnccc3c2-c2ccncc2)cc1

>  <score_type>  (27) 
oracle

>  <origin>  (27) 
adg

>  <m_score__min__energy>  (27) 
-5.5899999999999999

>  <m_primary>  (27) 
energy

$$$$
27:0
     RDKit          3D

 40 42  0  0  0  0  0  0  0  0999 V2000
   59.3614   35.0737   48.1370 H   0  0  0  0  0  0  0  0  0  0  0  0
   59.2380   34.4850   47.2160 C   0  0  0  0  0  0  0  0  0  0  0  0
   58.0900   33.9130   46.9950 N   0  0  0  0  0  0  0  0  0  0  0  0
   57.6170   33.4710   45.7170 C   0  0  0  0  0  0  0  0  0  0  0  0
   57.2060   34.3260   44.8880 O   0  0  0  0  0  0  0  0  0  0  0  0
   57.5360   32.0320   45.3960 C   0  0  0  0  0  0  0  0  0  0  0  0
   56.5930   31.5950   44.4960 N   0  0  0  0  0  0  0  0  0  0  0  0
   56.4570   30.2800   44.1530 C   0  0  0  0  0  0  0  0  0  0  0  0
   55.6902   29.9604   43.4320 H   0  0  0  0  0  0  0  0  0  0  0  0
   57.3140   29.3570   44.7400 C   0  0  0  0  0  0  0  0  0  0  0  0
   58.2710   29.7680   45.6380 C   0  0  0  0  0  0  0  0  0  0  0  0
   58.4190   31.1040   45.9940 C   0  0  0  0  0  0  0  0  0  0  0  0
   59.1899   31.4249   46.7100 H   0  0  0  0  0  0  0  0  0  0  0  0
   58.9410   28.6300   46.0260 C   0  0  0  0  0  0  0  0  0  0  0  0
   59.9990   28.4290   46.9110 C   0  0  0  0  0  0  0  0  0  0  0  0
   60.4568   29.2701   47.4522 H   0  0  0  0  0  0  0  0  0  0  0  0
   60.4600   27.1120   47.0870 C   0  0  0  0  0  0  0  0  0  0  0  0
   61.2944   26.9136   47.7758 H   0  0  0  0  0  0  0  0  0  0  0  0
   59.8600   26.0410   46.3860 C   0  0  0  0  0  0  0  0  0  0  0  0
   60.2310   25.0162   46.5350 H   0  0  0  0  0  0  0  0  0  0  0  0
   58.7920   26.2740   45.4990 C   0  0  0  0  0  0  0  0  0  0  0  0
   58.3192   25.4464   44.9499 H   0  0  0  0  0  0  0  0  0  0  0  0
   58.3530   27.5870   45.3390 C   0  0  0  0  0  0  0  0  0  0  0  0
   57.3490   28.0210   44.5440 N   0  0  0  0  0  0  0  0  0  0  0  0
   56.7370   27.4510   43.9180 H   0  0  0  0  0  0  0  0  0  0  0  0
   60.4060   34.3790   46.2700 C   0  0  0  0  0  0  0  0  0  0  0  0
   60.9338   35.3434   46.2327 H   0  0  0  0  0  0  0  0  0  0  0  0
   60.0371   34.1178   45.2672 H   0  0  0  0  0  0  0  0  0  0  0  0
   61.3390   33.3260   46.7360 N   0  0  0  0  0  0  0  0  0  0  0  0
   60.9690   32.8700   48.0860 C   0  0  0  0  0  0  0  0  0  0  0  0
   61.4761   33.4949   48.8359 H   0  0  0  0  0  0  0  0  0  0  0  0
   59.8798   32.9531   48.2154 H   0  0  0  0  0  0  0  0  0  0  0  0
   61.2747   31.8213   48.2154 H   0  0  0  0  0  0  0  0  0  0  0  0
   62.7460   33.7890   46.7400 C   0  0  0  0  0  0  0  0  0  0  0  0
   62.7971   34.7685   47.2380 H   0  0  0  0  0  0  0  0  0  0  0  0
   63.0862   33.8579   45.6962 H   0  0  0  0  0  0  0  0  0  0  0  0
   63.6630   32.8120   47.4750 C   0  0  0  0  0  0  0  0  0  0  0  0
   63.5417   32.9413   48.5606 H   0  0  0  0  0  0  0  0  0  0  0  0
   63.3988   31.7811   47.1967 H   0  0  0  0  0  0  0  0  0  0  0  0
   64.7086   33.0104   47.1967 H   0  0  0  0  0  0  0  0  0  0  0  0
  1  2  1  0
  2  3  2  0
  3  4  1  0
  4  5  2  0
  4  6  1  0
  6  7  2  0
  7  8  1  0
  8  9  1  0
  8 10  2  0
 10 11  1  0
 11 12  2  0
 12 13  1  0
 11 14  1  0
 14 15  2  0
 15 16  1  0
 15 17  1  0
 17 18  1  0
 17 19  2  0
 19 20  1  0
 19 21  1  0
 21 22  1  0
 21 23  2  0
 23 24  1  0
 24 25  1  0
  2 26  1  0
 26 27  1  0
 26 28  1  0
 26 29  1  0
 29 30  1  0
 30 31  1  0
 30 32  1  0
 30 33  1  0
 29 34  1  0
 34 35  1  0
 34 36  1  0
 34 37  1  0
 37 38  1  0
 37 39  1  0
 37 40  1  0
 12  6  1  0
 23 14  1  0
 24 10  1  0
M  END
>  <UniqueID>  (28) 
28

>  <SMILES>  (28) 
CCN(C)C/C=N\C(=O)c1cc2c(cn1)[nH]c1ccccc12

>  <Energy>  (28) 
90.63373171486077

>  <Genealogy>  (28) 
CCN(C)C/C=N\C(=O)c1cc2c(cn1)[nH]c1ccccc12 (cis-trans isomerization)
CCN(C)C/C=N\C(=O)c1cc2c(cn1)[nH]c1ccccc12 (3D coordinates assigned)
CCN(C)C/C=N\C(=O)c1cc2c(cn1)[nH]c1ccccc12 (optimized conformer: 90.63373171486077 kcal/mol)

>  <smiles>  (28) 
CCN(C)CC=NC(=O)c1cc2c(cn1)[nH]c1ccccc12

>  <score_type>  (28) 
oracle

>  <origin>  (28) 
adg

>  <m_score__min__energy>  (28) 
-7.3700000000000001

>  <m_primary>  (28) 
energy

$$$$
28:0
     RDKit          3D

 67 67  0  0  0  0  0  0  0  0999 V2000
   58.3060   32.6320   51.2610 C   0  0  0  0  0  0  0  0  0  0  0  0
   59.4320   33.5070   50.7240 C   0  0  0  0  0  0  0  0  0  0  0  0
   59.6130   33.2580   49.2880 N   0  0  0  0  0  0  0  0  0  0  0  0
   59.6620   34.5010   48.5020 C   0  0  0  0  0  0  0  0  0  0  0  0
   59.7550   34.2350   46.9860 C   0  0  0  0  0  0  0  0  0  0  0  0
   61.1390   33.7000   46.5630 C   0  0  0  0  0  0  0  0  0  0  0  0
   61.4940   32.4130   47.1850 N   0  0  0  0  0  0  0  0  0  0  0  0
   62.9340   32.1270   47.1160 C   0  0  0  0  0  0  0  0  0  0  0  0
   63.7430   33.4100   47.3360 C   0  0  0  0  0  0  0  0  0  0  0  0
   63.7590   33.8280   48.8190 C   0  0  0  0  0  0  0  0  0  0  0  0
   62.4180   33.7760   49.4260 N   0  0  0  0  0  0  0  0  0  0  0  0
   62.4500   33.8520   50.8960 C   0  0  0  0  0  0  0  0  0  0  0  0
   62.9910   32.5490   51.5090 C   0  0  0  0  0  0  0  0  0  0  0  0
   62.8950   31.3320   50.5610 C   0  0  0  0  0  0  0  0  0  0  0  0
   61.5340   31.1090   50.0420 N   0  0  0  0  0  0  0  0  0  0  0  0
   61.3290   29.7340   49.5540 C   0  0  0  0  0  0  0  0  0  0  0  0
   59.8940   29.2630   49.8220 C   0  0  0  0  0  0  0  0  0  0  0  0
   58.8510   30.2280   49.2470 C   0  0  0  0  0  0  0  0  0  0  0  0
   59.4470   31.0000   48.1410 N   0  0  0  0  0  0  0  0  0  0  0  0
   59.7130   30.1740   46.9540 C   0  0  0  0  0  0  0  0  0  0  0  0
   58.6430   30.3700   45.9110 C   0  0  0  0  0  0  0  0  0  0  0  0
   58.3580   31.6530   45.4150 C   0  0  0  0  0  0  0  0  0  0  0  0
   57.3870   31.8250   44.4230 C   0  0  0  0  0  0  0  0  0  0  0  0
   56.6990   30.7180   43.9190 C   0  0  0  0  0  0  0  0  0  0  0  0
   56.9810   29.4380   44.4040 C   0  0  0  0  0  0  0  0  0  0  0  0
   57.9520   29.2630   45.3950 C   0  0  0  0  0  0  0  0  0  0  0  0
   58.3236   32.6457   52.3608 H   0  0  0  0  0  0  0  0  0  0  0  0
   57.3396   33.0185   50.9049 H   0  0  0  0  0  0  0  0  0  0  0  0
   58.4419   31.6001   50.9049 H   0  0  0  0  0  0  0  0  0  0  0  0
   59.1790   34.5658   50.8821 H   0  0  0  0  0  0  0  0  0  0  0  0
   60.3646   33.2658   51.2551 H   0  0  0  0  0  0  0  0  0  0  0  0
   60.5000   32.7180   49.1420 H   0  0  0  0  0  0  0  0  0  0  0  0
   58.7501   35.0823   48.7033 H   0  0  0  0  0  0  0  0  0  0  0  0
   60.5658   35.0518   48.8018 H   0  0  0  0  0  0  0  0  0  0  0  0
   58.9910   33.4931   46.7106 H   0  0  0  0  0  0  0  0  0  0  0  0
   59.5947   35.1924   46.4686 H   0  0  0  0  0  0  0  0  0  0  0  0
   61.1415   33.5698   45.4707 H   0  0  0  0  0  0  0  0  0  0  0  0
   61.8839   34.4355   46.9009 H   0  0  0  0  0  0  0  0  0  0  0  0
   61.1810   32.3890   48.1820 H   0  0  0  0  0  0  0  0  0  0  0  0
   63.1961   31.3950   47.8941 H   0  0  0  0  0  0  0  0  0  0  0  0
   63.1706   31.7213   46.1213 H   0  0  0  0  0  0  0  0  0  0  0  0
   64.7774   33.2405   47.0025 H   0  0  0  0  0  0  0  0  0  0  0  0
   63.2690   34.2170   46.7580 H   0  0  0  0  0  0  0  0  0  0  0  0
   64.4246   33.1484   49.3715 H   0  0  0  0  0  0  0  0  0  0  0  0
   64.1142   34.8677   48.8731 H   0  0  0  0  0  0  0  0  0  0  0  0
   61.9320   32.8960   49.1350 H   0  0  0  0  0  0  0  0  0  0  0  0
   63.0991   34.6871   51.1980 H   0  0  0  0  0  0  0  0  0  0  0  0
   61.4234   34.0076   51.2591 H   0  0  0  0  0  0  0  0  0  0  0  0
   64.0479   32.7016   51.7729 H   0  0  0  0  0  0  0  0  0  0  0  0
   62.3685   32.3233   52.3874 H   0  0  0  0  0  0  0  0  0  0  0  0
   63.5715   31.4973   49.7096 H   0  0  0  0  0  0  0  0  0  0  0  0
   63.1743   30.4409   51.1423 H   0  0  0  0  0  0  0  0  0  0  0  0
   61.3270   31.7790   49.2670 H   0  0  0  0  0  0  0  0  0  0  0  0
   61.5209   29.7044   48.4713 H   0  0  0  0  0  0  0  0  0  0  0  0
   62.0219   29.0663   50.0870 H   0  0  0  0  0  0  0  0  0  0  0  0
   59.7538   28.2741   49.3611 H   0  0  0  0  0  0  0  0  0  0  0  0
   59.7504   29.2207   50.9118 H   0  0  0  0  0  0  0  0  0  0  0  0
   57.9903   29.6552   48.8713 H   0  0  0  0  0  0  0  0  0  0  0  0
   58.5182   30.9183   50.0361 H   0  0  0  0  0  0  0  0  0  0  0  0
   60.3670   31.3800   48.4660 H   0  0  0  0  0  0  0  0  0  0  0  0
   60.6868   30.4580   46.5286 H   0  0  0  0  0  0  0  0  0  0  0  0
   59.7193   29.1164   47.2563 H   0  0  0  0  0  0  0  0  0  0  0  0
   58.9004   32.5255   45.8081 H   0  0  0  0  0  0  0  0  0  0  0  0
   57.1649   32.8318   44.0395 H   0  0  0  0  0  0  0  0  0  0  0  0
   55.9347   30.8542   43.1397 H   0  0  0  0  0  0  0  0  0  0  0  0
   56.4388   28.5676   44.0059 H   0  0  0  0  0  0  0  0  0  0  0  0
   58.1750   28.2538   45.7715 H   0  0  0  0  0  0  0  0  0  0  0  0
  1  2  1  0
  2  3  1  0
  3  4  1  0
  4  5  1  0
  5  6  1  0
  6  7  1  0
  7  8  1  0
  8  9  1  0
  9 10  1  0
 10 11  1  0
 11 12  1  0
 12 13  1  0
 13 14  1  0
 14 15  1  0
 15 16  1  0
 16 17  1  0
 17 18  1  0
 18 19  1  0
 19 20  1  0
 20 21  1  0
 21 22  2  0
 22 23  1  0
 23 24  2  0
 24 25  1  0
 25 26  2  0
 26 21  1  0
  1 27  1  0
  1 28  1  0
  1 29  1  0
  2 30  1  0
  2 31  1  0
  3 32  1  0
  4 33  1  0
  4 34  1  0
  5 35  1  0
  5 36  1  0
  6 37  1  0
  6 38  1  0
  7 39  1  0
  8 40  1  0
  8 41  1  0
  9 42  1  0
  9 43  1  0
 10 44  1  0
 10 45  1  0
 11 46  1  0
 12 47  1  0
 12 48  1  0
 13 49  1  0
 13 50  1  0
 14 51  1  0
 14 52  1  0
 15 53  1  0
 16 54  1  0
 16 55  1  0
 17 56  1  0
 17 57  1  0
 18 58  1  0
 18 59  1  0
 19 60  1  0
 20 61  1  0
 20 62  1  0
 22 63  1  0
 23 64  1  0
 24 65  1  0
 25 66  1  0
 26 67  1  0
M  END
>  <UniqueID>  (29) 
29

>  <SMILES>  (29) 
CCNCCCNCCCNCCCNCCCNCc1ccccc1

>  <Energy>  (29) 
53.152245400325654

>  <Genealogy>  (29) 
CCNCCCNCCCNCCCNCCCNCc1ccccc1 (3D coordinates assigned)
CCNCCCNCCCNCCCNCCCNCc1ccccc1 (optimized conformer: 53.152245400325654 kcal/mol)

>  <smiles>  (29) 
CCNCCCNCCCNCCCNCCCNCc1ccccc1

>  <score_type>  (29) 
oracle

>  <origin>  (29) 
adg

>  <m_score__min__energy>  (29) 
-3.9199999999999999

>  <m_primary>  (29) 
energy

$$$$
29:0
     RDKit          3D

 48 50  0  0  0  0  0  0  0  0999 V2000
   63.5880   33.8330   47.4510 C   0  0  0  0  0  0  0  0  0  0  0  0
   64.1210   32.6510   48.1490 N   0  0  0  0  0  0  0  0  0  0  0  0
   64.8450   33.0770   49.3620 C   0  0  0  0  0  0  0  0  0  0  0  0
   63.0160   31.7170   48.4750 C   0  0  0  0  0  0  0  0  0  0  0  0
   62.2650   31.2380   47.2210 C   0  0  0  0  0  0  0  0  0  0  0  0
   60.8250   31.1550   47.4970 N   0  0  0  0  0  0  0  0  0  0  0  0
   60.0980   32.3070   48.0460 C   0  0  0  0  0  0  0  0  0  0  0  0
   59.3530   33.0360   46.9560 C   0  0  0  0  0  0  0  0  0  0  0  0
   58.0590   32.6290   46.5850 C   0  0  0  0  0  0  0  0  0  0  0  0
   57.3870   33.2770   45.5430 C   0  0  0  0  0  0  0  0  0  0  0  0
   58.0000   34.3350   44.8650 C   0  0  0  0  0  0  0  0  0  0  0  0
   59.2840   34.7510   45.2310 C   0  0  0  0  0  0  0  0  0  0  0  0
   59.9590   34.1060   46.2730 C   0  0  0  0  0  0  0  0  0  0  0  0
   60.1080   29.9640   47.1380 C   0  0  0  0  0  0  0  0  0  0  0  0
   59.6940   29.0660   48.1230 C   0  0  0  0  0  0  0  0  0  0  0  0
   59.0040   27.9100   47.7680 C   0  0  0  0  0  0  0  0  0  0  0  0
   58.7300   27.6570   46.4160 C   0  0  0  0  0  0  0  0  0  0  0  0
   58.0430   26.4910   46.0480 C   0  0  0  0  0  0  0  0  0  0  0  0
   57.7800   26.2420   44.7020 C   0  0  0  0  0  0  0  0  0  0  0  0
   58.1950   27.1540   43.7350 C   0  0  0  0  0  0  0  0  0  0  0  0
   58.8730   28.3110   44.1260 C   0  0  0  0  0  0  0  0  0  0  0  0
   59.1370   28.5530   45.4490 N   0  0  0  0  0  0  0  0  0  0  0  0
   59.8100   29.6910   45.7980 C   0  0  0  0  0  0  0  0  0  0  0  0
   63.2532   34.5754   48.1904 H   0  0  0  0  0  0  0  0  0  0  0  0
   64.3751   34.2725   46.8206 H   0  0  0  0  0  0  0  0  0  0  0  0
   62.7376   33.5341   46.8206 H   0  0  0  0  0  0  0  0  0  0  0  0
   64.8000   32.1820   47.5030 H   0  0  0  0  0  0  0  0  0  0  0  0
   64.2901   32.7505   50.2539 H   0  0  0  0  0  0  0  0  0  0  0  0
   65.8478   32.6250   49.3682 H   0  0  0  0  0  0  0  0  0  0  0  0
   64.9369   34.1731   49.3682 H   0  0  0  0  0  0  0  0  0  0  0  0
   63.4346   30.8411   48.9924 H   0  0  0  0  0  0  0  0  0  0  0  0
   62.2980   32.2553   49.1112 H   0  0  0  0  0  0  0  0  0  0  0  0
   62.4378   31.9489   46.3996 H   0  0  0  0  0  0  0  0  0  0  0  0
   62.6356   30.2419   46.9375 H   0  0  0  0  0  0  0  0  0  0  0  0
   59.3796   31.9543   48.8007 H   0  0  0  0  0  0  0  0  0  0  0  0
   60.8225   32.9977   48.5021 H   0  0  0  0  0  0  0  0  0  0  0  0
   57.5731   31.7975   47.1164 H   0  0  0  0  0  0  0  0  0  0  0  0
   56.3753   32.9538   45.2568 H   0  0  0  0  0  0  0  0  0  0  0  0
   57.4719   34.8405   44.0431 H   0  0  0  0  0  0  0  0  0  0  0  0
   59.7636   35.5860   44.6992 H   0  0  0  0  0  0  0  0  0  0  0  0
   60.9681   34.4371   46.5594 H   0  0  0  0  0  0  0  0  0  0  0  0
   59.9131   29.2718   49.1811 H   0  0  0  0  0  0  0  0  0  0  0  0
   58.6762   27.2005   48.5421 H   0  0  0  0  0  0  0  0  0  0  0  0
   57.7136   25.7770   46.8172 H   0  0  0  0  0  0  0  0  0  0  0  0
   57.2460   25.3275   44.4044 H   0  0  0  0  0  0  0  0  0  0  0  0
   57.9904   26.9647   42.6709 H   0  0  0  0  0  0  0  0  0  0  0  0
   59.1983   29.0351   43.3645 H   0  0  0  0  0  0  0  0  0  0  0  0
   60.1208   30.4001   45.0166 H   0  0  0  0  0  0  0  0  0  0  0  0
  1  2  1  0
  2  3  1  0
  2  4  1  0
  4  5  1  0
  5  6  1  0
  6  7  1  0
  7  8  1  0
  8  9  2  0
  9 10  1  0
 10 11  2  0
 11 12  1  0
 12 13  2  0
  6 14  1  0
 14 15  2  0
 15 16  1  0
 16 17  2  0
 17 18  1  0
 18 19  2  0
 19 20  1  0
 20 21  2  0
 21 22  1  0
 22 23  2  0
 13  8  1  0
 23 14  1  0
 22 17  1  0
  1 24  1  0
  1 25  1  0
  1 26  1  0
  2 27  1  0
  3 28  1  0
  3 29  1  0
  3 30  1  0
  4 31  1  0
  4 32  1  0
  5 33  1  0
  5 34  1  0
  7 35  1  0
  7 36  1  0
  9 37  1  0
 10 38  1  0
 11 39  1  0
 12 40  1  0
 13 41  1  0
 15 42  1  0
 16 43  1  0
 18 44  1  0
 19 45  1  0
 20 46  1  0
 21 47  1  0
 23 48  1  0
M  CHG  2   2   1  22   1
M  END
>  <UniqueID>  (30) 
30

>  <SMILES>  (30) 
C[NH+](C)CCN(Cc1ccccc1)c1ccc2cccc[n+]2c1

>  <Energy>  (30) 
54.860803640196686

>  <Genealogy>  (30) 
C[NH+](C)CCN(Cc1ccccc1)c1ccc2cccc[n+]2c1 (protonated)
C[NH+](C)CCN(Cc1ccccc1)c1ccc2cccc[n+]2c1 (3D coordinates assigned)
C[NH+](C)CCN(Cc1ccccc1)c1ccc2cccc[n+]2c1 (optimized conformer: 54.860803640196686 kcal/mol)

>  <smiles>  (30) 
CN(C)CCN(Cc1ccccc1)c1ccc2cccc[n+]2c1

>  <score_type>  (30) 
oracle

>  <origin>  (30) 
adg

>  <m_score__min__energy>  (30) 
-4.5300000000000002

>  <m_primary>  (30) 
energy

$$$$
30:0
     RDKit          3D

 66 69  0  0  0  0  0  0  0  0999 V2000
   57.5650   30.4320   52.0240 C   0  0  0  0  0  0  0  0  0  0  0  0
   58.6990   31.2580   51.5780 N   0  0  0  0  0  0  0  0  0  0  0  0
   58.2000   32.3470   50.7190 C   0  0  0  0  0  0  0  0  0  0  0  0
   59.4330   31.7960   52.7460 C   0  0  0  0  0  0  0  0  0  0  0  0
   60.9340   31.4850   52.6250 C   0  0  0  0  0  0  0  0  0  0  0  0
   61.2220   30.4280   51.6320 N   0  0  0  0  0  0  0  0  0  0  0  0
   61.6780   30.9710   50.3560 C   0  0  0  0  0  0  0  0  0  0  0  0
   62.8890   31.7170   50.2890 C   0  0  0  0  0  0  0  0  0  0  0  0
   63.7230   31.8920   51.4230 C   0  0  0  0  0  0  0  0  0  0  0  0
   64.9310   32.5780   51.3320 C   0  0  0  0  0  0  0  0  0  0  0  0
   65.3460   33.0980   50.1170 C   0  0  0  0  0  0  0  0  0  0  0  0
   64.5410   32.9620   48.9900 C   0  0  0  0  0  0  0  0  0  0  0  0
   63.2830   32.3080   49.0560 C   0  0  0  0  0  0  0  0  0  0  0  0
   62.4620   32.2300   47.9530 N   0  0  0  0  0  0  0  0  0  0  0  0
   62.6960   33.1220   46.7940 C   0  0  0  0  0  0  0  0  0  0  0  0
   61.4030   31.3470   47.9400 C   0  0  0  0  0  0  0  0  0  0  0  0
   60.7470   31.0130   46.7250 C   0  0  0  0  0  0  0  0  0  0  0  0
   59.6330   30.1620   46.7030 C   0  0  0  0  0  0  0  0  0  0  0  0
   58.9650   29.8050   45.5200 O   0  0  0  0  0  0  0  0  0  0  0  0
   57.8130   30.4540   44.9780 C   0  0  0  0  0  0  0  0  0  0  0  0
   58.1390   31.8900   44.5540 C   0  0  0  0  0  0  0  0  0  0  0  0
   57.4080   32.8530   45.4090 N   0  0  0  0  0  0  0  0  0  0  0  0
   57.4490   34.2290   44.8740 C   0  0  0  0  0  0  0  0  0  0  0  0
   58.8620   34.8400   44.9460 C   0  0  0  0  0  0  0  0  0  0  0  0
   59.6420   34.3950   46.1950 C   0  0  0  0  0  0  0  0  0  0  0  0
   58.7050   33.9330   47.3110 C   0  0  0  0  0  0  0  0  0  0  0  0
   57.7980   32.7750   46.8420 C   0  0  0  0  0  0  0  0  0  0  0  0
   59.1560   29.6470   47.9000 C   0  0  0  0  0  0  0  0  0  0  0  0
   59.8020   29.9210   49.1010 C   0  0  0  0  0  0  0  0  0  0  0  0
   60.9570   30.7400   49.1480 C   0  0  0  0  0  0  0  0  0  0  0  0
   57.5365   30.4113   53.1234 H   0  0  0  0  0  0  0  0  0  0  0  0
   56.6268   30.8597   51.6409 H   0  0  0  0  0  0  0  0  0  0  0  0
   57.6844   29.4078   51.6409 H   0  0  0  0  0  0  0  0  0  0  0  0
   57.8241   33.1673   51.3481 H   0  0  0  0  0  0  0  0  0  0  0  0
   59.0183   32.7173   50.0839 H   0  0  0  0  0  0  0  0  0  0  0  0
   57.3852   31.9690   50.0839 H   0  0  0  0  0  0  0  0  0  0  0  0
   59.2912   32.8858   52.7927 H   0  0  0  0  0  0  0  0  0  0  0  0
   59.0434   31.3248   53.6604 H   0  0  0  0  0  0  0  0  0  0  0  0
   61.4599   32.4030   52.3237 H   0  0  0  0  0  0  0  0  0  0  0  0
   61.2768   31.1211   53.6048 H   0  0  0  0  0  0  0  0  0  0  0  0
   60.3550   29.8670   51.4720 H   0  0  0  0  0  0  0  0  0  0  0  0
   61.8690   29.7150   52.0260 H   0  0  0  0  0  0  0  0  0  0  0  0
   63.4093   31.4779   52.3926 H   0  0  0  0  0  0  0  0  0  0  0  0
   65.5574   32.7074   52.2270 H   0  0  0  0  0  0  0  0  0  0  0  0
   66.3122   33.6186   50.0430 H   0  0  0  0  0  0  0  0  0  0  0  0
   64.8866   33.3696   48.0285 H   0  0  0  0  0  0  0  0  0  0  0  0
   62.9599   34.1278   47.1528 H   0  0  0  0  0  0  0  0  0  0  0  0
   63.5197   32.7224   46.1842 H   0  0  0  0  0  0  0  0  0  0  0  0
   61.7822   33.1782   46.1842 H   0  0  0  0  0  0  0  0  0  0  0  0
   61.1218   31.4318   45.7794 H   0  0  0  0  0  0  0  0  0  0  0  0
   57.4626   29.8908   44.1005 H   0  0  0  0  0  0  0  0  0  0  0  0
   57.0326   30.4864   45.7526 H   0  0  0  0  0  0  0  0  0  0  0  0
   59.2207   32.0622   44.6552 H   0  0  0  0  0  0  0  0  0  0  0  0
   57.8326   32.0340   43.5074 H   0  0  0  0  0  0  0  0  0  0  0  0
   57.1243   34.2103   43.8232 H   0  0  0  0  0  0  0  0  0  0  0  0
   56.7809   34.8502   45.4886 H   0  0  0  0  0  0  0  0  0  0  0  0
   59.4242   34.5313   44.0523 H   0  0  0  0  0  0  0  0  0  0  0  0
   58.7475   35.9327   44.9994 H   0  0  0  0  0  0  0  0  0  0  0  0
   60.3084   33.5636   45.9218 H   0  0  0  0  0  0  0  0  0  0  0  0
   60.2179   35.2561   46.5649 H   0  0  0  0  0  0  0  0  0  0  0  0
   59.3075   33.5920   48.1658 H   0  0  0  0  0  0  0  0  0  0  0  0
   58.0644   34.7800   47.5979 H   0  0  0  0  0  0  0  0  0  0  0  0
   58.3347   31.8285   47.0032 H   0  0  0  0  0  0  0  0  0  0  0  0
   56.8695   32.8412   47.4281 H   0  0  0  0  0  0  0  0  0  0  0  0
   58.2561   29.0144   47.8991 H   0  0  0  0  0  0  0  0  0  0  0  0
   59.4076   29.4926   50.0342 H   0  0  0  0  0  0  0  0  0  0  0  0
  1  2  1  0
  2  3  1  0
  2  4  1  0
  4  5  1  0
  5  6  1  0
  6  7  1  0
  7  8  2  0
  8  9  1  0
  9 10  2  0
 10 11  1  0
 11 12  2  0
 12 13  1  0
 13 14  2  0
 14 15  1  0
 14 16  1  0
 16 17  2  0
 17 18  1  0
 18 19  1  0
 19 20  1  0
 20 21  1  0
 21 22  1  0
 22 23  1  0
 23 24  1  0
 24 25  1  0
 25 26  1  0
 26 27  1  0
 18 28  2  0
 28 29  1  0
 29 30  2  0
 30  7  1  0
 13  8  1  0
 30 16  1  0
 27 22  1  0
  1 31  1  0
  1 32  1  0
  1 33  1  0
  3 34  1  0
  3 35  1  0
  3 36  1  0
  4 37  1  0
  4 38  1  0
  5 39  1  0
  5 40  1  0
  6 41  1  0
  6 42  1  0
  9 43  1  0
 10 44  1  0
 11 45  1  0
 12 46  1  0
 15 47  1  0
 15 48  1  0
 15 49  1  0
 17 50  1  0
 20 51  1  0
 20 52  1  0
 21 53  1  0
 21 54  1  0
 23 55  1  0
 23 56  1  0
 24 57  1  0
 24 58  1  0
 25 59  1  0
 25 60  1  0
 26 61  1  0
 26 62  1  0
 27 63  1  0
 27 64  1  0
 28 65  1  0
 29 66  1  0
M  CHG  2   6   1  14   1
M  END
>  <UniqueID>  (31) 
31

>  <SMILES>  (31) 
CN(C)CC[NH2+]c1c2ccccc2[n+](C)c2cc(OCCN3CCCCC3)ccc12

>  <Energy>  (31) 
104.15143769363584

>  <Genealogy>  (31) 
CN(C)CC[NH2+]c1c2ccccc2[n+](C)c2cc(OCCN3CCCCC3)ccc12 (protonated)
CN(C)CC[NH2+]c1c2ccccc2[n+](C)c2cc(OCCN3CCCCC3)ccc12 (3D coordinates assigned)
CN(C)CC[NH2+]c1c2ccccc2[n+](C)c2cc(OCCN3CCCCC3)ccc12 (nonaromatic ring conformer: 104.15143769363584 kcal/mol)

>  <smiles>  (31) 
CN(C)CCNc1c2ccccc2[n+](C)c2cc(OCCN3CCCCC3)ccc12

>  <score_type>  (31) 
oracle

>  <origin>  (31) 
adg

>  <m_score__min__energy>  (31) 
-5.3700000000000001

>  <m_primary>  (31) 
energy

$$$$
31:0
     RDKit          3D

 38 39  0  0  0  0  0  0  0  0999 V2000
   63.7420   32.3900   48.4000 C   0  0  0  0  0  0  0  0  0  0  0  0
   63.0250   32.4980   47.1910 O   0  0  0  0  0  0  0  0  0  0  0  0
   62.5720   33.8250   47.0300 C   0  0  0  0  0  0  0  0  0  0  0  0
   61.5270   34.1560   48.1040 C   0  0  0  0  0  0  0  0  0  0  0  0
   60.1590   34.2290   47.5410 N   0  0  0  0  0  0  0  0  0  0  0  0
   60.1570   34.0330   46.0690 C   0  0  0  0  0  0  0  0  0  0  0  0
   58.7890   33.5580   45.5570 C   0  0  0  0  0  0  0  0  0  0  0  0
   58.3850   32.2590   46.1550 N   0  0  0  0  0  0  0  0  0  0  0  0
   58.6300   31.1260   45.2390 C   0  0  0  0  0  0  0  0  0  0  0  0
   57.3860   30.3020   45.0800 C   0  0  0  0  0  0  0  0  0  0  0  0
   56.2680   30.7520   44.4850 N   0  0  0  0  0  0  0  0  0  0  0  0
   55.4140   29.7080   44.5650 C   0  0  0  0  0  0  0  0  0  0  0  0
   55.9360   28.6250   45.1800 N   0  0  0  0  0  0  0  0  0  0  0  0
   57.1820   29.0070   45.5050 C   0  0  0  0  0  0  0  0  0  0  0  0
   58.1620   28.1310   46.2170 C   0  0  0  0  0  0  0  0  0  0  0  0
   59.0080   32.0020   47.4740 C   0  0  0  0  0  0  0  0  0  0  0  0
   59.2320   33.3070   48.2500 C   0  0  0  0  0  0  0  0  0  0  0  0
   63.0490   32.4944   49.2479 H   0  0  0  0  0  0  0  0  0  0  0  0
   64.2344   31.4075   48.4477 H   0  0  0  0  0  0  0  0  0  0  0  0
   64.5020   33.1838   48.4477 H   0  0  0  0  0  0  0  0  0  0  0  0
   63.4235   34.5148   47.1252 H   0  0  0  0  0  0  0  0  0  0  0  0
   62.1146   33.9326   46.0354 H   0  0  0  0  0  0  0  0  0  0  0  0
   61.5519   33.3739   48.8771 H   0  0  0  0  0  0  0  0  0  0  0  0
   61.7740   35.1408   48.5273 H   0  0  0  0  0  0  0  0  0  0  0  0
   60.4070   34.9875   45.5827 H   0  0  0  0  0  0  0  0  0  0  0  0
   60.8996   33.2585   45.8269 H   0  0  0  0  0  0  0  0  0  0  0  0
   58.0331   34.3154   45.8118 H   0  0  0  0  0  0  0  0  0  0  0  0
   58.8660   33.4188   44.4686 H   0  0  0  0  0  0  0  0  0  0  0  0
   58.9354   31.5143   44.2562 H   0  0  0  0  0  0  0  0  0  0  0  0
   59.4253   30.4931   45.6597 H   0  0  0  0  0  0  0  0  0  0  0  0
   54.3892   29.7375   44.1664 H   0  0  0  0  0  0  0  0  0  0  0  0
   58.0341   28.2453   47.3035 H   0  0  0  0  0  0  0  0  0  0  0  0
   57.9879   27.0819   45.9357 H   0  0  0  0  0  0  0  0  0  0  0  0
   59.1851   28.4212   45.9357 H   0  0  0  0  0  0  0  0  0  0  0  0
   58.3479   31.3457   48.0601 H   0  0  0  0  0  0  0  0  0  0  0  0
   59.9852   31.5248   47.3088 H   0  0  0  0  0  0  0  0  0  0  0  0
   58.2634   33.8112   48.3827 H   0  0  0  0  0  0  0  0  0  0  0  0
   59.6854   33.0507   49.2189 H   0  0  0  0  0  0  0  0  0  0  0  0
  1  2  1  0
  2  3  1  0
  3  4  1  0
  4  5  1  0
  5  6  1  0
  6  7  1  0
  7  8  1  0
  8  9  1  0
  9 10  1  0
 10 11  1  0
 11 12  2  0
 12 13  1  0
 13 14  1  0
 14 15  1  0
  8 16  1  0
 16 17  1  0
 17  5  1  0
 14 10  2  0
  1 18  1  0
  1 19  1  0
  1 20  1  0
  3 21  1  0
  3 22  1  0
  4 23  1  0
  4 24  1  0
  6 25  1  0
  6 26  1  0
  7 27  1  0
  7 28  1  0
  9 29  1  0
  9 30  1  0
 12 31  1  0
 15 32  1  0
 15 33  1  0
 15 34  1  0
 16 35  1  0
 16 36  1  0
 17 37  1  0
 17 38  1  0
M  CHG  1  13  -1
M  END
>  <UniqueID>  (32) 
32

>  <SMILES>  (32) 
COCCN1CCN(Cc2nc[n-]c2C)CC1

>  <Energy>  (32) 
75.70369616273183

>  <Genealogy>  (32) 
COCCN1CCN(Cc2nc[n-]c2C)CC1 (protonated)
COCCN1CCN(Cc2nc[n-]c2C)CC1 (3D coordinates assigned)
COCCN1CCN(Cc2nc[n-]c2C)CC1 (nonaromatic ring conformer: 75.70369616273183 kcal/mol)

>  <smiles>  (32) 
COCCN1CCN(Cc2nc[nH]c2C)CC1

>  <score_type>  (32) 
oracle

>  <origin>  (32) 
adg

>  <m_score__min__energy>  (32) 
-7.4800000000000004

>  <m_primary>  (32) 
energy

$$$$
32:0
     RDKit          3D

 60 64  0  0  0  0  0  0  0  0999 V2000
   56.2740   25.8150   46.2220 C   0  0  0  0  0  0  0  0  0  0  0  0
   57.4680   26.6050   46.7440 C   0  0  0  0  0  0  0  0  0  0  0  0
   58.2360   27.1790   45.6090 N   0  0  0  0  0  0  0  0  0  0  0  0
   58.1110   26.2880   44.4260 C   0  0  0  0  0  0  0  0  0  0  0  0
   58.1990   27.0730   43.1220 C   0  0  0  0  0  0  0  0  0  0  0  0
   59.6660   27.3590   45.9710 C   0  0  0  0  0  0  0  0  0  0  0  0
   59.8640   28.3400   47.1520 C   0  0  0  0  0  0  0  0  0  0  0  0
   58.8010   29.3650   47.2530 N   0  0  0  0  0  0  0  0  0  0  0  0
   59.1030   30.5710   46.4860 C   0  0  0  0  0  0  0  0  0  0  0  0
   58.4180   30.8830   45.2760 C   0  0  0  0  0  0  0  0  0  0  0  0
   57.6580   29.9230   44.5580 C   0  0  0  0  0  0  0  0  0  0  0  0
   56.9960   30.2620   43.3800 C   0  0  0  0  0  0  0  0  0  0  0  0
   57.1010   31.5430   42.8640 C   0  0  0  0  0  0  0  0  0  0  0  0
   57.8650   32.5010   43.5240 C   0  0  0  0  0  0  0  0  0  0  0  0
   58.5200   32.2040   44.7450 C   0  0  0  0  0  0  0  0  0  0  0  0
   59.2510   33.1650   45.4080 N   0  0  0  0  0  0  0  0  0  0  0  0
   59.0550   34.5980   45.0950 C   0  0  0  0  0  0  0  0  0  0  0  0
   60.1690   32.7880   46.3620 C   0  0  0  0  0  0  0  0  0  0  0  0
   61.1840   33.6880   46.8000 C   0  0  0  0  0  0  0  0  0  0  0  0
   62.0710   33.2770   47.7860 C   0  0  0  0  0  0  0  0  0  0  0  0
   63.0810   33.9980   48.3220 N   0  0  0  0  0  0  0  0  0  0  0  0
   63.6500   33.1720   49.2250 C   0  0  0  0  0  0  0  0  0  0  0  0
   64.7330   33.4530   50.0570 C   0  0  0  0  0  0  0  0  0  0  0  0
   65.1690   32.4380   50.9330 C   0  0  0  0  0  0  0  0  0  0  0  0
   64.5190   31.1830   50.9610 C   0  0  0  0  0  0  0  0  0  0  0  0
   63.4250   30.9270   50.1140 C   0  0  0  0  0  0  0  0  0  0  0  0
   63.0180   31.9480   49.2570 C   0  0  0  0  0  0  0  0  0  0  0  0
   62.0030   32.0210   48.3290 C   0  0  0  0  0  0  0  0  0  0  0  0
   61.0550   31.0920   47.9240 C   0  0  0  0  0  0  0  0  0  0  0  0
   60.1070   31.4700   46.9300 C   0  0  0  0  0  0  0  0  0  0  0  0
   55.6904   25.4289   47.0707 H   0  0  0  0  0  0  0  0  0  0  0  0
   55.6392   26.4720   45.6092 H   0  0  0  0  0  0  0  0  0  0  0  0
   56.6304   24.9739   45.6092 H   0  0  0  0  0  0  0  0  0  0  0  0
   57.1105   27.4200   47.3905 H   0  0  0  0  0  0  0  0  0  0  0  0
   58.1222   25.9318   47.3175 H   0  0  0  0  0  0  0  0  0  0  0  0
   58.9218   25.5450   44.4511 H   0  0  0  0  0  0  0  0  0  0  0  0
   57.1276   25.7968   44.4669 H   0  0  0  0  0  0  0  0  0  0  0  0
   58.3190   28.1433   43.3457 H   0  0  0  0  0  0  0  0  0  0  0  0
   59.0633   26.7210   42.5397 H   0  0  0  0  0  0  0  0  0  0  0  0
   57.2782   26.9211   42.5397 H   0  0  0  0  0  0  0  0  0  0  0  0
   60.0837   26.3810   46.2520 H   0  0  0  0  0  0  0  0  0  0  0  0
   60.1794   27.7842   45.0960 H   0  0  0  0  0  0  0  0  0  0  0  0
   59.8790   27.7607   48.0870 H   0  0  0  0  0  0  0  0  0  0  0  0
   60.8105   28.8719   46.9754 H   0  0  0  0  0  0  0  0  0  0  0  0
   58.6480   29.5300   48.2660 H   0  0  0  0  0  0  0  0  0  0  0  0
   57.8970   28.9600   46.9170 H   0  0  0  0  0  0  0  0  0  0  0  0
   57.5905   28.8931   44.9384 H   0  0  0  0  0  0  0  0  0  0  0  0
   56.3874   29.5092   42.8576 H   0  0  0  0  0  0  0  0  0  0  0  0
   56.5797   31.8036   41.9311 H   0  0  0  0  0  0  0  0  0  0  0  0
   57.9622   33.5070   43.0899 H   0  0  0  0  0  0  0  0  0  0  0  0
   58.9767   35.1704   46.0311 H   0  0  0  0  0  0  0  0  0  0  0  0
   59.9112   34.9661   44.5106 H   0  0  0  0  0  0  0  0  0  0  0  0
   58.1314   34.7227   44.5106 H   0  0  0  0  0  0  0  0  0  0  0  0
   61.2634   34.6943   46.3628 H   0  0  0  0  0  0  0  0  0  0  0  0
   63.3610   34.9750   48.0880 H   0  0  0  0  0  0  0  0  0  0  0  0
   65.2305   34.4337   50.0308 H   0  0  0  0  0  0  0  0  0  0  0  0
   66.0229   32.6244   51.6009 H   0  0  0  0  0  0  0  0  0  0  0  0
   64.8710   30.4010   51.6499 H   0  0  0  0  0  0  0  0  0  0  0  0
   62.9092   29.9555   50.1277 H   0  0  0  0  0  0  0  0  0  0  0  0
   61.0359   30.0832   48.3620 H   0  0  0  0  0  0  0  0  0  0  0  0
  1  2  1  0
  2  3  1  0
  3  4  1  0
  4  5  1  0
  3  6  1  0
  6  7  1  0
  7  8  1  0
  8  9  1  0
  9 10  2  0
 10 11  1  0
 11 12  2  0
 12 13  1  0
 13 14  2  0
 14 15  1  0
 15 16  2  0
 16 17  1  0
 16 18  1  0
 18 19  2  0
 19 20  1  0
 20 21  1  0
 21 22  1  0
 22 23  2  0
 23 24  1  0
 24 25  2  0
 25 26  1  0
 26 27  2  0
 27 28  1  0
 28 29  1  0
 29 30  2  0
 30  9  1  0
 15 10  1  0
 30 18  1  0
 28 20  2  0
 27 22  1  0
  1 31  1  0
  1 32  1  0
  1 33  1  0
  2 34  1  0
  2 35  1  0
  4 36  1  0
  4 37  1  0
  5 38  1  0
  5 39  1  0
  5 40  1  0
  6 41  1  0
  6 42  1  0
  7 43  1  0
  7 44  1  0
  8 45  1  0
  8 46  1  0
 11 47  1  0
 12 48  1  0
 13 49  1  0
 14 50  1  0
 17 51  1  0
 17 52  1  0
 17 53  1  0
 19 54  1  0
 21 55  1  0
 23 56  1  0
 24 57  1  0
 25 58  1  0
 26 59  1  0
 29 60  1  0
M  CHG  2   8   1  16   1
M  END
>  <UniqueID>  (33) 
33

>  <SMILES>  (33) 
CCN(CC)CC[NH2+]c1c2ccccc2[n+](C)c2cc3[nH]c4ccccc4c3cc12

>  <Energy>  (33) 
133.0503138067317

>  <Genealogy>  (33) 
CCN(CC)CC[NH2+]c1c2ccccc2[n+](C)c2cc3[nH]c4ccccc4c3cc12 (protonated)
CCN(CC)CC[NH2+]c1c2ccccc2[n+](C)c2cc3[nH]c4ccccc4c3cc12 (3D coordinates assigned)
CCN(CC)CC[NH2+]c1c2ccccc2[n+](C)c2cc3[nH]c4ccccc4c3cc12 (optimized conformer: 133.0503138067317 kcal/mol)

>  <smiles>  (33) 
CCN(CC)CCNc1c2ccccc2[n+](C)c2cc3[nH]c4ccccc4c3cc12

>  <score_type>  (33) 
oracle

>  <origin>  (33) 
adg

>  <m_score__min__energy>  (33) 
-5.5599999999999996

>  <m_primary>  (33) 
energy

$$$$
33:0
     RDKit          3D

 58 60  0  0  0  0  0  0  0  0999 V2000
   58.3210   25.5120   46.3830 C   0  0  0  0  0  0  0  0  0  0  0  0
   57.9490   26.4050   45.1990 C   0  0  0  0  0  0  0  0  0  0  0  0
   57.0150   27.5610   45.5970 C   0  0  0  0  0  0  0  0  0  0  0  0
   56.8790   28.6440   44.5190 C   0  0  0  0  0  0  0  0  0  0  0  0
   56.0700   29.7130   44.9850 O   0  0  0  0  0  0  0  0  0  0  0  0
   56.1260   30.8420   44.1290 C   0  0  0  0  0  0  0  0  0  0  0  0
   57.4570   30.8850   43.3660 C   0  0  0  0  0  0  0  0  0  0  0  0
   58.5120   31.7280   44.0890 C   0  0  0  0  0  0  0  0  0  0  0  0
   58.7670   31.1900   45.4410 N   0  0  0  0  0  0  0  0  0  0  0  0
   58.4260   31.9120   46.5640 C   0  0  0  0  0  0  0  0  0  0  0  0
   57.6360   33.5320   46.4660 S   0  0  0  0  0  0  0  0  0  0  0  0
   58.9480   34.4210   47.3750 C   0  0  0  0  0  0  0  0  0  0  0  0
   60.3240   33.9240   47.0110 C   0  0  0  0  0  0  0  0  0  0  0  0
   60.7810   34.2090   45.9110 O   0  0  0  0  0  0  0  0  0  0  0  0
   61.0720   33.0650   47.9150 N   0  0  0  0  0  0  0  0  0  0  0  0
   61.9790   33.8400   48.7750 C   0  0  0  0  0  0  0  0  0  0  0  0
   63.3260   33.9040   48.0730 C   0  0  0  0  0  0  0  0  0  0  0  0
   63.3360   32.7240   47.1180 C   0  0  0  0  0  0  0  0  0  0  0  0
   61.9290   32.1300   47.1700 C   0  0  0  0  0  0  0  0  0  0  0  0
   58.7100   31.4300   47.8000 N   0  0  0  0  0  0  0  0  0  0  0  0
   59.3180   30.2340   47.9760 C   0  0  0  0  0  0  0  0  0  0  0  0
   59.5790   29.7630   49.2680 C   0  0  0  0  0  0  0  0  0  0  0  0
   60.2080   28.5290   49.4500 C   0  0  0  0  0  0  0  0  0  0  0  0
   60.5820   27.7630   48.3420 C   0  0  0  0  0  0  0  0  0  0  0  0
   60.3250   28.2260   47.0480 C   0  0  0  0  0  0  0  0  0  0  0  0
   59.6860   29.4670   46.8570 C   0  0  0  0  0  0  0  0  0  0  0  0
   59.4060   29.9800   45.5790 C   0  0  0  0  0  0  0  0  0  0  0  0
   59.7490   29.3210   44.5560 O   0  0  0  0  0  0  0  0  0  0  0  0
   58.1014   26.0392   47.3231 H   0  0  0  0  0  0  0  0  0  0  0  0
   57.7355   24.5818   46.3389 H   0  0  0  0  0  0  0  0  0  0  0  0
   59.3937   25.2725   46.3389 H   0  0  0  0  0  0  0  0  0  0  0  0
   58.8712   26.8281   44.7741 H   0  0  0  0  0  0  0  0  0  0  0  0
   57.4129   25.7815   44.4684 H   0  0  0  0  0  0  0  0  0  0  0  0
   56.0166   27.1464   45.8004 H   0  0  0  0  0  0  0  0  0  0  0  0
   57.4582   28.0421   46.4814 H   0  0  0  0  0  0  0  0  0  0  0  0
   57.8776   29.0298   44.2660 H   0  0  0  0  0  0  0  0  0  0  0  0
   56.4056   28.2022   43.6298 H   0  0  0  0  0  0  0  0  0  0  0  0
   55.2983   30.7877   43.4066 H   0  0  0  0  0  0  0  0  0  0  0  0
   56.0423   31.7520   44.7414 H   0  0  0  0  0  0  0  0  0  0  0  0
   57.8369   29.8583   43.2584 H   0  0  0  0  0  0  0  0  0  0  0  0
   57.2693   31.3474   42.3857 H   0  0  0  0  0  0  0  0  0  0  0  0
   59.4474   31.7112   43.5104 H   0  0  0  0  0  0  0  0  0  0  0  0
   58.1412   32.7595   44.1808 H   0  0  0  0  0  0  0  0  0  0  0  0
   58.8826   35.4925   47.1351 H   0  0  0  0  0  0  0  0  0  0  0  0
   58.7963   34.2437   48.4500 H   0  0  0  0  0  0  0  0  0  0  0  0
   60.4110   32.5180   48.5180 H   0  0  0  0  0  0  0  0  0  0  0  0
   61.5825   34.8556   48.9212 H   0  0  0  0  0  0  0  0  0  0  0  0
   62.0776   33.3661   49.7628 H   0  0  0  0  0  0  0  0  0  0  0  0
   63.4274   34.8489   47.5191 H   0  0  0  0  0  0  0  0  0  0  0  0
   64.1626   33.8619   48.7860 H   0  0  0  0  0  0  0  0  0  0  0  0
   63.5718   33.0599   46.0974 H   0  0  0  0  0  0  0  0  0  0  0  0
   64.0977   31.9825   47.4008 H   0  0  0  0  0  0  0  0  0  0  0  0
   61.5405   31.9989   46.1493 H   0  0  0  0  0  0  0  0  0  0  0  0
   61.9454   31.1475   47.6644 H   0  0  0  0  0  0  0  0  0  0  0  0
   59.2884   30.3654   50.1413 H   0  0  0  0  0  0  0  0  0  0  0  0
   60.4092   28.1596   50.4664 H   0  0  0  0  0  0  0  0  0  0  0  0
   61.0799   26.7932   48.4886 H   0  0  0  0  0  0  0  0  0  0  0  0
   60.6219   27.6210   46.1786 H   0  0  0  0  0  0  0  0  0  0  0  0
  1  2  1  0
  2  3  1  0
  3  4  1  0
  4  5  1  0
  5  6  1  0
  6  7  1  0
  7  8  1  0
  8  9  1  0
  9 10  1  0
 10 11  1  0
 11 12  1  0
 12 13  1  0
 13 14  2  0
 13 15  1  0
 15 16  1  0
 16 17  1  0
 17 18  1  0
 18 19  1  0
 10 20  2  0
 20 21  1  0
 21 22  2  0
 22 23  1  0
 23 24  2  0
 24 25  1  0
 25 26  2  0
 26 27  1  0
 27 28  2  0
 27  9  1  0
 19 15  1  0
 26 21  1  0
  1 29  1  0
  1 30  1  0
  1 31  1  0
  2 32  1  0
  2 33  1  0
  3 34  1  0
  3 35  1  0
  4 36  1  0
  4 37  1  0
  6 38  1  0
  6 39  1  0
  7 40  1  0
  7 41  1  0
  8 42  1  0
  8 43  1  0
 12 44  1  0
 12 45  1  0
 15 46  1  0
 16 47  1  0
 16 48  1  0
 17 49  1  0
 17 50  1  0
 18 51  1  0
 18 52  1  0
 19 53  1  0
 19 54  1  0
 22 55  1  0
 23 56  1  0
 24 57  1  0
 25 58  1  0
M  CHG  1  15   1
M  END
>  <UniqueID>  (34) 
34

>  <SMILES>  (34) 
CCCCOCCCn1c(SCC(=O)[NH+]2CCCC2)nc2ccccc2c1=O

>  <Energy>  (34) 
58.62326256323191

>  <Genealogy>  (34) 
CCCCOCCCn1c(SCC(=O)[NH+]2CCCC2)nc2ccccc2c1=O (protonated)
CCCCOCCCn1c(SCC(=O)[NH+]2CCCC2)nc2ccccc2c1=O (3D coordinates assigned)
CCCCOCCCn1c(SCC(=O)[NH+]2CCCC2)nc2ccccc2c1=O (nonaromatic ring conformer: 58.62326256323191 kcal/mol)

>  <smiles>  (34) 
CCCCOCCCn1c(SCC(=O)N2CCCC2)nc2ccccc2c1=O

>  <score_type>  (34) 
oracle

>  <origin>  (34) 
adg

>  <m_score__min__energy>  (34) 
-6.0300000000000002

>  <m_primary>  (34) 
energy

$$$$
34:0
     RDKit          3D

 54 57  0  0  0  0  0  0  0  0999 V2000
   63.1090   33.8940   46.3630 C   0  0  0  0  0  0  0  0  0  0  0  0
   63.7660   33.7700   47.7430 C   0  0  0  0  0  0  0  0  0  0  0  0
   63.9230   32.3640   48.2000 N   0  0  0  0  0  0  0  0  0  0  0  0
   64.2590   32.2470   49.6480 C   0  0  0  0  0  0  0  0  0  0  0  0
   65.6720   32.7210   50.0240 C   0  0  0  0  0  0  0  0  0  0  0  0
   62.7170   31.5880   47.8050 C   0  0  0  0  0  0  0  0  0  0  0  0
   61.8830   31.1030   49.0050 C   0  0  0  0  0  0  0  0  0  0  0  0
   60.5140   31.6090   48.9080 N   0  0  0  0  0  0  0  0  0  0  0  0
   59.7870   31.5460   47.6720 C   0  0  0  0  0  0  0  0  0  0  0  0
   59.5500   32.6880   46.8740 C   0  0  0  0  0  0  0  0  0  0  0  0
   59.9160   33.9710   47.3250 C   0  0  0  0  0  0  0  0  0  0  0  0
   59.6520   35.0990   46.5530 C   0  0  0  0  0  0  0  0  0  0  0  0
   58.9950   34.9720   45.3320 C   0  0  0  0  0  0  0  0  0  0  0  0
   58.6080   33.7170   44.8640 C   0  0  0  0  0  0  0  0  0  0  0  0
   58.8910   32.5430   45.6050 C   0  0  0  0  0  0  0  0  0  0  0  0
   58.5300   31.2850   45.1450 N   0  0  0  0  0  0  0  0  0  0  0  0
   58.1170   31.0610   43.7490 C   0  0  0  0  0  0  0  0  0  0  0  0
   58.6320   30.2280   46.0140 C   0  0  0  0  0  0  0  0  0  0  0  0
   59.2720   30.3350   47.2300 C   0  0  0  0  0  0  0  0  0  0  0  0
   59.3240   29.1490   47.8730 N   0  0  0  0  0  0  0  0  0  0  0  0
   58.6740   28.2850   47.0680 C   0  0  0  0  0  0  0  0  0  0  0  0
   58.4290   26.9380   47.3300 C   0  0  0  0  0  0  0  0  0  0  0  0
   57.6780   26.2080   46.3940 C   0  0  0  0  0  0  0  0  0  0  0  0
   57.3000   24.3640   46.7140 Br  0  0  0  0  0  0  0  0  0  0  0  0
   57.1730   26.8400   45.2370 C   0  0  0  0  0  0  0  0  0  0  0  0
   57.4290   28.2000   44.9930 C   0  0  0  0  0  0  0  0  0  0  0  0
   58.2170   28.9010   45.9160 C   0  0  0  0  0  0  0  0  0  0  0  0
   62.0348   34.0967   46.4852 H   0  0  0  0  0  0  0  0  0  0  0  0
   63.5770   34.7197   45.8069 H   0  0  0  0  0  0  0  0  0  0  0  0
   63.2439   32.9545   45.8069 H   0  0  0  0  0  0  0  0  0  0  0  0
   64.7619   34.2348   47.6977 H   0  0  0  0  0  0  0  0  0  0  0  0
   63.1039   34.2727   48.4633 H   0  0  0  0  0  0  0  0  0  0  0  0
   64.7310   31.9590   47.6680 H   0  0  0  0  0  0  0  0  0  0  0  0
   63.5342   32.8480   50.2168 H   0  0  0  0  0  0  0  0  0  0  0  0
   64.2188   31.1744   49.8887 H   0  0  0  0  0  0  0  0  0  0  0  0
   65.7685   32.7534   51.1193 H   0  0  0  0  0  0  0  0  0  0  0  0
   66.4150   32.0229   49.6109 H   0  0  0  0  0  0  0  0  0  0  0  0
   65.8437   33.7259   49.6109 H   0  0  0  0  0  0  0  0  0  0  0  0
   62.0818   32.2274   47.1744 H   0  0  0  0  0  0  0  0  0  0  0  0
   63.0671   30.6932   47.2695 H   0  0  0  0  0  0  0  0  0  0  0  0
   61.8639   30.0032   49.0131 H   0  0  0  0  0  0  0  0  0  0  0  0
   62.3388   31.4782   49.9332 H   0  0  0  0  0  0  0  0  0  0  0  0
   59.9780   31.7490   49.7950 H   0  0  0  0  0  0  0  0  0  0  0  0
   60.4161   34.0831   48.2983 H   0  0  0  0  0  0  0  0  0  0  0  0
   59.9630   36.0925   46.9083 H   0  0  0  0  0  0  0  0  0  0  0  0
   58.7797   35.8685   44.7321 H   0  0  0  0  0  0  0  0  0  0  0  0
   58.0750   33.6371   43.9051 H   0  0  0  0  0  0  0  0  0  0  0  0
   57.1502   30.5366   43.7323 H   0  0  0  0  0  0  0  0  0  0  0  0
   58.0180   32.0290   43.2361 H   0  0  0  0  0  0  0  0  0  0  0  0
   58.8744   30.4501   43.2361 H   0  0  0  0  0  0  0  0  0  0  0  0
   59.7490   28.9450   48.8050 H   0  0  0  0  0  0  0  0  0  0  0  0
   58.8128   26.4604   48.2436 H   0  0  0  0  0  0  0  0  0  0  0  0
   56.5729   26.2618   44.5190 H   0  0  0  0  0  0  0  0  0  0  0  0
   57.0221   28.7007   44.1021 H   0  0  0  0  0  0  0  0  0  0  0  0
  1  2  1  0
  2  3  1  0
  3  4  1  0
  4  5  1  0
  3  6  1  0
  6  7  1  0
  7  8  1  0
  8  9  1  0
  9 10  2  0
 10 11  1  0
 11 12  2  0
 12 13  1  0
 13 14  2  0
 14 15  1  0
 15 16  2  0
 16 17  1  0
 16 18  1  0
 18 19  2  0
 19 20  1  0
 20 21  1  0
 21 22  2  0
 22 23  1  0
 23 24  1  0
 23 25  2  0
 25 26  1  0
 26 27  2  0
 19  9  1  0
 27 21  1  0
 15 10  1  0
 27 18  1  0
  1 28  1  0
  1 29  1  0
  1 30  1  0
  2 31  1  0
  2 32  1  0
  3 33  1  0
  4 34  1  0
  4 35  1  0
  5 36  1  0
  5 37  1  0
  5 38  1  0
  6 39  1  0
  6 40  1  0
  7 41  1  0
  7 42  1  0
  8 43  1  0
 11 44  1  0
 12 45  1  0
 13 46  1  0
 14 47  1  0
 17 48  1  0
 17 49  1  0
 17 50  1  0
 20 51  1  0
 22 52  1  0
 25 53  1  0
 26 54  1  0
M  CHG  2   3   1  16   1
M  END
>  <UniqueID>  (35) 
35

>  <SMILES>  (35) 
CC[NH+](CC)CCNc1c2ccccc2[n+](C)c2c1[nH]c1cc(Br)ccc12

>  <Energy>  (35) 
119.70419041573254

>  <Genealogy>  (35) 
CC[NH+](CC)CCNc1c2ccccc2[n+](C)c2c1[nH]c1cc(Br)ccc12 (protonated)
CC[NH+](CC)CCNc1c2ccccc2[n+](C)c2c1[nH]c1cc(Br)ccc12 (3D coordinates assigned)
CC[NH+](CC)CCNc1c2ccccc2[n+](C)c2c1[nH]c1cc(Br)ccc12 (optimized conformer: 119.70419041573254 kcal/mol)

>  <smiles>  (35) 
CCN(CC)CCNc1c2ccccc2[n+](C)c2c1[nH]c1cc(Br)ccc12

>  <score_type>  (35) 
oracle

>  <origin>  (35) 
adg

>  <m_score__min__energy>  (35) 
-5.5099999999999998

>  <m_primary>  (35) 
energy

$$$$
35:0
     RDKit          3D

 42 43  0  0  0  0  0  0  0  0999 V2000
   62.9080   33.4660   46.9470 C   0  0  0  0  0  0  0  0  0  0  0  0
   61.3920   33.5450   47.1200 C   0  0  0  0  0  0  0  0  0  0  0  0
   60.7900   32.2830   47.7720 C   0  0  0  0  0  0  0  0  0  0  0  0
   59.8490   31.5470   46.9020 N   0  0  0  0  0  0  0  0  0  0  0  0
   60.3710   30.2620   46.3990 C   0  0  0  0  0  0  0  0  0  0  0  0
   59.2630   29.2890   46.0480 C   0  0  0  0  0  0  0  0  0  0  0  0
   59.5200   27.9140   46.1380 C   0  0  0  0  0  0  0  0  0  0  0  0
   58.5270   26.9890   45.8300 C   0  0  0  0  0  0  0  0  0  0  0  0
   57.2670   27.4210   45.4300 C   0  0  0  0  0  0  0  0  0  0  0  0
   56.9740   28.7970   45.3340 C   0  0  0  0  0  0  0  0  0  0  0  0
   55.7030   29.2310   44.9240 O   0  0  0  0  0  0  0  0  0  0  0  0
   55.3850   29.7160   43.6230 C   0  0  0  0  0  0  0  0  0  0  0  0
   57.9820   29.7450   45.6560 C   0  0  0  0  0  0  0  0  0  0  0  0
   57.7770   31.1380   45.6120 O   0  0  0  0  0  0  0  0  0  0  0  0
   57.7210   31.9610   44.4520 C   0  0  0  0  0  0  0  0  0  0  0  0
   57.3480   33.3830   44.8760 C   0  0  0  0  0  0  0  0  0  0  0  0
   58.5120   34.2880   45.2500 C   0  0  0  0  0  0  0  0  0  0  0  0
   57.6170   33.7090   46.3360 C   0  0  0  0  0  0  0  0  0  0  0  0
   63.3891   33.4409   47.9359 H   0  0  0  0  0  0  0  0  0  0  0  0
   63.1664   32.5532   46.3903 H   0  0  0  0  0  0  0  0  0  0  0  0
   63.2599   34.3470   46.3903 H   0  0  0  0  0  0  0  0  0  0  0  0
   61.1569   34.4126   47.7541 H   0  0  0  0  0  0  0  0  0  0  0  0
   60.9520   33.6368   46.1160 H   0  0  0  0  0  0  0  0  0  0  0  0
   61.6142   31.6059   48.0407 H   0  0  0  0  0  0  0  0  0  0  0  0
   60.2160   32.6204   48.6476 H   0  0  0  0  0  0  0  0  0  0  0  0
   59.6130   32.1580   46.0850 H   0  0  0  0  0  0  0  0  0  0  0  0
   58.9530   31.3730   47.4100 H   0  0  0  0  0  0  0  0  0  0  0  0
   60.9727   30.4529   45.4982 H   0  0  0  0  0  0  0  0  0  0  0  0
   60.9764   29.8088   47.1978 H   0  0  0  0  0  0  0  0  0  0  0  0
   60.5136   27.5637   46.4543 H   0  0  0  0  0  0  0  0  0  0  0  0
   58.7394   25.9122   45.9032 H   0  0  0  0  0  0  0  0  0  0  0  0
   56.4904   26.6812   45.1858 H   0  0  0  0  0  0  0  0  0  0  0  0
   54.7838   30.6330   43.7104 H   0  0  0  0  0  0  0  0  0  0  0  0
   56.3139   29.9372   43.0770 H   0  0  0  0  0  0  0  0  0  0  0  0
   54.8117   28.9523   43.0770 H   0  0  0  0  0  0  0  0  0  0  0  0
   58.7027   31.9683   43.9558 H   0  0  0  0  0  0  0  0  0  0  0  0
   56.9688   31.5697   43.7512 H   0  0  0  0  0  0  0  0  0  0  0  0
   56.4849   33.4703   44.1997 H   0  0  0  0  0  0  0  0  0  0  0  0
   59.5458   33.9287   45.1395 H   0  0  0  0  0  0  0  0  0  0  0  0
   58.8336   35.3004   44.9644 H   0  0  0  0  0  0  0  0  0  0  0  0
   58.0039   32.9313   47.0109 H   0  0  0  0  0  0  0  0  0  0  0  0
   57.0235   34.1298   47.1611 H   0  0  0  0  0  0  0  0  0  0  0  0
  1  2  1  0
  2  3  1  0
  3  4  1  0
  4  5  1  0
  5  6  1  0
  6  7  2  0
  7  8  1  0
  8  9  2  0
  9 10  1  0
 10 11  1  0
 11 12  1  0
 10 13  2  0
 13 14  1  0
 14 15  1  0
 15 16  1  0
 16 17  1  0
 17 18  1  0
 13  6  1  0
 18 16  1  0
  1 19  1  0
  1 20  1  0
  1 21  1  0
  2 22  1  0
  2 23  1  0
  3 24  1  0
  3 25  1  0
  4 26  1  0
  4 27  1  0
  5 28  1  0
  5 29  1  0
  7 30  1  0
  8 31  1  0
  9 32  1  0
 12 33  1  0
 12 34  1  0
 12 35  1  0
 15 36  1  0
 15 37  1  0
 16 38  1  0
 17 39  1  0
 17 40  1  0
 18 41  1  0
 18 42  1  0
M  CHG  1   4   1
M  END
>  <UniqueID>  (36) 
36

>  <SMILES>  (36) 
CCC[NH2+]Cc1cccc(OC)c1OCC1CC1

>  <Energy>  (36) 
302.60534219634354

>  <Genealogy>  (36) 
CCC[NH2+]Cc1cccc(OC)c1OCC1CC1 (protonated)
CCC[NH2+]Cc1cccc(OC)c1OCC1CC1 (3D coordinates assigned)
CCC[NH2+]Cc1cccc(OC)c1OCC1CC1 (nonaromatic ring conformer: 302.60534219634354 kcal/mol)

>  <smiles>  (36) 
CCCNCc1cccc(OC)c1OCC1CC1

>  <score_type>  (36) 
oracle

>  <origin>  (36) 
adg

>  <m_score__min__energy>  (36) 
-4.0099999999999998

>  <m_primary>  (36) 
energy

$$$$
36:0
     RDKit          3D

 59 63  0  0  0  0  0  0  0  0999 V2000
   63.7560   32.4780   47.1290 C   0  0  0  0  0  0  0  0  0  0  0  0
   63.0280   33.8140   46.9290 C   0  0  0  0  0  0  0  0  0  0  0  0
   61.6370   33.8350   47.4490 N   0  0  0  0  0  0  0  0  0  0  0  0
   60.6020   33.8500   46.3870 C   0  0  0  0  0  0  0  0  0  0  0  0
   59.6630   35.0480   46.5290 C   0  0  0  0  0  0  0  0  0  0  0  0
   61.3920   32.7590   48.4350 C   0  0  0  0  0  0  0  0  0  0  0  0
   60.2480   33.1580   49.3800 C   0  0  0  0  0  0  0  0  0  0  0  0
   59.3440   32.0330   49.6870 N   0  0  0  0  0  0  0  0  0  0  0  0
   59.1210   31.1810   48.5320 C   0  0  0  0  0  0  0  0  0  0  0  0
   58.6090   31.7750   47.3730 C   0  0  0  0  0  0  0  0  0  0  0  0
   58.3030   31.0260   46.2350 C   0  0  0  0  0  0  0  0  0  0  0  0
   57.7620   31.6480   45.0920 C   0  0  0  0  0  0  0  0  0  0  0  0
   57.6010   32.8980   45.0270 O   0  0  0  0  0  0  0  0  0  0  0  0
   57.4010   30.8590   44.0590 N   0  0  0  0  0  0  0  0  0  0  0  0
   56.8020   31.1330   42.8900 C   0  0  0  0  0  0  0  0  0  0  0  0
   56.5030   29.9860   42.2400 N   0  0  0  0  0  0  0  0  0  0  0  0
   56.9100   28.9740   43.0020 N   0  0  0  0  0  0  0  0  0  0  0  0
   57.4640   29.5300   44.0980 C   0  0  0  0  0  0  0  0  0  0  0  0
   57.9520   28.8610   45.1860 N   0  0  0  0  0  0  0  0  0  0  0  0
   57.6420   27.4540   45.2970 C   0  0  0  0  0  0  0  0  0  0  0  0
   58.1490   26.5340   44.3620 C   0  0  0  0  0  0  0  0  0  0  0  0
   57.8400   25.1750   44.4730 C   0  0  0  0  0  0  0  0  0  0  0  0
   57.0210   24.7250   45.5120 C   0  0  0  0  0  0  0  0  0  0  0  0
   56.5050   25.6340   46.4400 C   0  0  0  0  0  0  0  0  0  0  0  0
   56.8090   26.9940   46.3320 C   0  0  0  0  0  0  0  0  0  0  0  0
   58.4940   29.6100   46.2290 C   0  0  0  0  0  0  0  0  0  0  0  0
   59.2340   29.0370   47.3130 C   0  0  0  0  0  0  0  0  0  0  0  0
   59.8400   27.7610   47.2110 C   0  0  0  0  0  0  0  0  0  0  0  0
   60.4790   27.1740   48.2990 C   0  0  0  0  0  0  0  0  0  0  0  0
   60.5760   27.8610   49.5000 C   0  0  0  0  0  0  0  0  0  0  0  0
   60.0970   29.1640   49.6010 C   0  0  0  0  0  0  0  0  0  0  0  0
   59.4710   29.7990   48.5010 C   0  0  0  0  0  0  0  0  0  0  0  0
   63.8653   32.2775   48.2050 H   0  0  0  0  0  0  0  0  0  0  0  0
   63.1736   31.6697   46.6627 H   0  0  0  0  0  0  0  0  0  0  0  0
   64.7509   32.5292   46.6627 H   0  0  0  0  0  0  0  0  0  0  0  0
   63.6006   34.5991   47.4446 H   0  0  0  0  0  0  0  0  0  0  0  0
   62.9613   33.9773   45.8432 H   0  0  0  0  0  0  0  0  0  0  0  0
   61.0981   33.9002   45.4065 H   0  0  0  0  0  0  0  0  0  0  0  0
   60.0029   32.9321   46.4793 H   0  0  0  0  0  0  0  0  0  0  0  0
   59.4972   35.2595   47.5957 H   0  0  0  0  0  0  0  0  0  0  0  0
   60.1150   35.9273   46.0468 H   0  0  0  0  0  0  0  0  0  0  0  0
   58.7012   34.8192   46.0468 H   0  0  0  0  0  0  0  0  0  0  0  0
   61.1198   31.8347   47.9045 H   0  0  0  0  0  0  0  0  0  0  0  0
   62.3060   32.5970   49.0251 H   0  0  0  0  0  0  0  0  0  0  0  0
   60.6816   33.5278   50.3209 H   0  0  0  0  0  0  0  0  0  0  0  0
   59.6538   33.9328   48.8735 H   0  0  0  0  0  0  0  0  0  0  0  0
   58.4220   32.4420   49.9710 H   0  0  0  0  0  0  0  0  0  0  0  0
   59.6660   31.5140   50.5310 H   0  0  0  0  0  0  0  0  0  0  0  0
   58.4430   32.8623   47.3580 H   0  0  0  0  0  0  0  0  0  0  0  0
   56.5856   32.1442   42.5150 H   0  0  0  0  0  0  0  0  0  0  0  0
   58.7909   26.8848   43.5405 H   0  0  0  0  0  0  0  0  0  0  0  0
   58.2422   24.4589   43.7413 H   0  0  0  0  0  0  0  0  0  0  0  0
   56.7823   23.6548   45.5996 H   0  0  0  0  0  0  0  0  0  0  0  0
   55.8589   25.2786   47.2563 H   0  0  0  0  0  0  0  0  0  0  0  0
   56.3948   27.7073   47.0598 H   0  0  0  0  0  0  0  0  0  0  0  0
   59.8049   27.2230   46.2522 H   0  0  0  0  0  0  0  0  0  0  0  0
   60.9072   26.1650   48.2065 H   0  0  0  0  0  0  0  0  0  0  0  0
   61.0326   27.3749   50.3748 H   0  0  0  0  0  0  0  0  0  0  0  0
   60.2065   29.7090   50.5502 H   0  0  0  0  0  0  0  0  0  0  0  0
  1  2  1  0
  2  3  1  0
  3  4  1  0
  4  5  1  0
  3  6  1  0
  6  7  1  0
  7  8  1  0
  8  9  1  0
  9 10  2  0
 10 11  1  0
 11 12  1  0
 12 13  2  0
 12 14  1  0
 14 15  1  0
 15 16  2  0
 16 17  1  0
 17 18  2  0
 18 19  1  0
 19 20  1  0
 20 21  2  0
 21 22  1  0
 22 23  2  0
 23 24  1  0
 24 25  2  0
 19 26  1  0
 26 27  1  0
 27 28  2  0
 28 29  1  0
 29 30  2  0
 30 31  1  0
 31 32  2  0
 32  9  1  0
 26 11  2  0
 32 27  1  0
 18 14  1  0
 25 20  1  0
  1 33  1  0
  1 34  1  0
  1 35  1  0
  2 36  1  0
  2 37  1  0
  4 38  1  0
  4 39  1  0
  5 40  1  0
  5 41  1  0
  5 42  1  0
  6 43  1  0
  6 44  1  0
  7 45  1  0
  7 46  1  0
  8 47  1  0
  8 48  1  0
 10 49  1  0
 15 50  1  0
 21 51  1  0
 22 52  1  0
 23 53  1  0
 24 54  1  0
 25 55  1  0
 28 56  1  0
 29 57  1  0
 30 58  1  0
 31 59  1  0
M  CHG  1   8   1
M  END
>  <UniqueID>  (37) 
37

>  <SMILES>  (37) 
CCN(CC)CC[NH2+]c1cc2c(=O)n3cnnc3n(-c3ccccc3)c2c2ccccc12

>  <Energy>  (37) 
143.47358782484213

>  <Genealogy>  (37) 
CCN(CC)CC[NH2+]c1cc2c(=O)n3cnnc3n(-c3ccccc3)c2c2ccccc12 (protonated)
CCN(CC)CC[NH2+]c1cc2c(=O)n3cnnc3n(-c3ccccc3)c2c2ccccc12 (3D coordinates assigned)
CCN(CC)CC[NH2+]c1cc2c(=O)n3cnnc3n(-c3ccccc3)c2c2ccccc12 (optimized conformer: 143.47358782484213 kcal/mol)

>  <smiles>  (37) 
CCN(CC)CCNc1cc2c(=O)n3cnnc3n(-c3ccccc3)c2c2ccccc12

>  <score_type>  (37) 
oracle

>  <origin>  (37) 
adg

>  <m_score__min__energy>  (37) 
-6.9800000000000004

>  <m_primary>  (37) 
energy

$$$$
