0:0
     RDKit          3D

 38 39  0  0  0  0  0  0  0  0999 V2000
   57.7980   33.2300   45.9890 C   0  0  0  0  0  0  0  0  0  0  0  0
   57.7690   31.7400   45.6220 C   0  0  0  0  0  0  0  0  0  0  0  0
   57.2100   31.4540   44.2820 N   0  0  0  0  0  0  0  0  0  0  0  0
   58.1460   31.7830   43.1860 C   0  0  0  0  0  0  0  0  0  0  0  0
   57.3850   31.9990   41.8830 C   0  0  0  0  0  0  0  0  0  0  0  0
   56.5880   29.8190   44.1490 S   0  0  0  0  0  0  0  0  0  0  0  0
   55.2590   29.7270   44.8430 O   0  0  0  0  0  0  0  0  0  0  0  0
   56.3920   29.4520   42.7040 O   0  0  0  0  0  0  0  0  0  0  0  0
   57.6880   28.6860   44.9440 C   0  0  0  0  0  0  0  0  0  0  0  0
   57.1390   27.6200   45.6690 C   0  0  0  0  0  0  0  0  0  0  0  0
   57.9670   26.7200   46.3610 C   0  0  0  0  0  0  0  0  0  0  0  0
   57.3840   25.5980   47.1360 C   0  0  0  0  0  0  0  0  0  0  0  0
   58.1320   24.9090   47.8790 O   0  0  0  0  0  0  0  0  0  0  0  0
   56.0000   25.2290   47.0280 N   0  0  0  0  0  0  0  0  0  0  0  0
   55.4520   24.6420   46.0060 C   0  0  0  0  0  0  0  0  0  0  0  0
   54.1200   24.4750   45.8470 N   0  0  0  0  0  0  0  0  0  0  0  0
   53.8370   23.8070   44.6980 C   0  0  0  0  0  0  0  0  0  0  0  0
   54.9440   23.4340   43.9440 C   0  0  0  0  0  0  0  0  0  0  0  0
   56.3270   23.9580   44.7490 S   0  0  0  0  0  0  0  0  0  0  0  0
   59.3600   26.8750   46.2820 C   0  0  0  0  0  0  0  0  0  0  0  0
   59.9110   27.9320   45.5530 C   0  0  0  0  0  0  0  0  0  0  0  0
   59.0840   28.8400   44.8890 C   0  0  0  0  0  0  0  0  0  0  0  0
   59.6510   29.8600   44.1980 F   0  0  0  0  0  0  0  0  0  0  0  0
   57.8001   33.3380   47.0837 H   0  0  0  0  0  0  0  0  0  0  0  0
   58.7053   33.6925   45.5732 H   0  0  0  0  0  0  0  0  0  0  0  0
   56.9094   33.7274   45.5732 H   0  0  0  0  0  0  0  0  0  0  0  0
   58.7997   31.3571   45.6543 H   0  0  0  0  0  0  0  0  0  0  0  0
   57.1076   31.2487   46.3508 H   0  0  0  0  0  0  0  0  0  0  0  0
   58.6947   32.7015   43.4416 H   0  0  0  0  0  0  0  0  0  0  0  0
   58.8485   30.9468   43.0541 H   0  0  0  0  0  0  0  0  0  0  0  0
   56.3491   32.2930   42.1078 H   0  0  0  0  0  0  0  0  0  0  0  0
   57.8736   32.7939   41.3005 H   0  0  0  0  0  0  0  0  0  0  0  0
   57.3831   31.0659   41.3005 H   0  0  0  0  0  0  0  0  0  0  0  0
   56.0475   27.4862   45.6967 H   0  0  0  0  0  0  0  0  0  0  0  0
   52.8070   23.5780   44.3870 H   0  0  0  0  0  0  0  0  0  0  0  0
   54.9204   22.8909   42.9877 H   0  0  0  0  0  0  0  0  0  0  0  0
   60.0205   26.1613   46.7962 H   0  0  0  0  0  0  0  0  0  0  0  0
   61.0035   28.0495   45.5019 H   0  0  0  0  0  0  0  0  0  0  0  0
  1  2  1  0
  2  3  1  0
  3  4  1  0
  4  5  1  0
  3  6  1  0
  6  7  2  0
  6  8  2  0
  6  9  1  0
  9 10  2  0
 10 11  1  0
 11 12  1  0
 12 13  2  0
 12 14  1  0
 14 15  2  3
 15 16  1  0
 16 17  1  0
 17 18  2  0
 18 19  1  0
 11 20  2  0
 20 21  1  0
 21 22  2  0
 22 23  1  0
 22  9  1  0
 19 15  1  0
  1 24  1  0
  1 25  1  0
  1 26  1  0
  2 27  1  0
  2 28  1  0
  4 29  1  0
  4 30  1  0
  5 31  1  0
  5 32  1  0
  5 33  1  0
 10 34  1  0
 17 35  1  0
 18 36  1  0
 20 37  1  0
 21 38  1  0
M  CHG  1  16  -1
M  END
>  <UniqueID>  (1) 
1

>  <SMILES>  (1) 
CCN(CC)S(=O)(=O)c1cc(C(=O)N=c2[n-]ccs2)ccc1F

>  <Energy>  (1) 
74.33659697466108

>  <Genealogy>  (1) 
CCN(CC)S(=O)(=O)c1cc(C(=O)N=c2[n-]ccs2)ccc1F (protonated)
CCN(CC)S(=O)(=O)c1cc(C(=O)N=c2[n-]ccs2)ccc1F (3D coordinates assigned)
CCN(CC)S(=O)(=O)c1cc(C(=O)N=c2[n-]ccs2)ccc1F (optimized conformer: 74.33659697466108 kcal/mol)

>  <smiles>  (1) 
CCN(CC)S(=O)(=O)c1cc(C(=O)N=c2[nH]ccs2)ccc1F

>  <score_type>  (1) 
oracle

>  <origin>  (1) 
adg

>  <m_score__min__energy>  (1) 
-9.5800000000000001

>  <m_primary>  (1) 
energy

$$$$
1:0
     RDKit          3D

 71 74  0  0  0  0  0  0  0  0999 V2000
   55.8700   25.5780   46.0050 C   0  0  0  0  0  0  0  0  0  0  0  0
   57.3130   25.0690   46.0280 C   0  0  0  0  0  0  0  0  0  0  0  0
   58.2630   26.1630   45.7260 N   0  0  0  0  0  0  0  0  0  0  0  0
   58.1230   26.5750   44.3170 C   0  0  0  0  0  0  0  0  0  0  0  0
   59.6590   25.7600   46.0160 C   0  0  0  0  0  0  0  0  0  0  0  0
   60.2560   26.6300   47.1380 C   0  0  0  0  0  0  0  0  0  0  0  0
   59.2170   27.1620   48.0470 N   0  0  0  0  0  0  0  0  0  0  0  0
   59.4160   28.5760   48.3250 C   0  0  0  0  0  0  0  0  0  0  0  0
   59.8260   28.9780   49.6170 C   0  0  0  0  0  0  0  0  0  0  0  0
   60.1260   27.9960   50.5780 O   0  0  0  0  0  0  0  0  0  0  0  0
   61.2510   28.0270   51.4520 C   0  0  0  0  0  0  0  0  0  0  0  0
   59.9050   30.3420   49.9250 C   0  0  0  0  0  0  0  0  0  0  0  0
   59.6600   31.3040   48.9550 C   0  0  0  0  0  0  0  0  0  0  0  0
   59.3970   30.9490   47.6200 C   0  0  0  0  0  0  0  0  0  0  0  0
   59.1590   29.5740   47.3310 C   0  0  0  0  0  0  0  0  0  0  0  0
   58.6270   29.2360   46.0740 C   0  0  0  0  0  0  0  0  0  0  0  0
   58.2610   30.2200   45.1670 C   0  0  0  0  0  0  0  0  0  0  0  0
   58.5350   31.5700   45.4170 C   0  0  0  0  0  0  0  0  0  0  0  0
   58.1240   32.5510   44.4950 C   0  0  0  0  0  0  0  0  0  0  0  0
   57.3910   32.1660   43.3580 O   0  0  0  0  0  0  0  0  0  0  0  0
   57.8740   32.2210   42.0190 C   0  0  0  0  0  0  0  0  0  0  0  0
   58.4380   33.8940   44.7380 C   0  0  0  0  0  0  0  0  0  0  0  0
   59.2650   34.2600   45.8050 C   0  0  0  0  0  0  0  0  0  0  0  0
   59.6360   35.7140   45.9490 C   0  0  0  0  0  0  0  0  0  0  0  0
   59.7960   33.2590   46.6600 C   0  0  0  0  0  0  0  0  0  0  0  0
   61.0630   33.5860   47.4560 C   0  0  0  0  0  0  0  0  0  0  0  0
   62.2690   32.9640   46.8600 N   0  0  0  0  0  0  0  0  0  0  0  0
   63.4820   33.8020   47.0160 C   0  0  0  0  0  0  0  0  0  0  0  0
   64.3160   33.4150   48.2540 C   0  0  0  0  0  0  0  0  0  0  0  0
   63.4890   32.8650   49.2560 O   0  0  0  0  0  0  0  0  0  0  0  0
   62.9890   31.6060   48.8380 C   0  0  0  0  0  0  0  0  0  0  0  0
   62.4930   31.5980   47.3720 C   0  0  0  0  0  0  0  0  0  0  0  0
   59.2440   31.9360   46.5940 C   0  0  0  0  0  0  0  0  0  0  0  0
   55.5096   25.7051   47.0365 H   0  0  0  0  0  0  0  0  0  0  0  0
   55.8304   26.5444   45.4810 H   0  0  0  0  0  0  0  0  0  0  0  0
   55.2328   24.8504   45.4810 H   0  0  0  0  0  0  0  0  0  0  0  0
   57.5361   24.6633   47.0258 H   0  0  0  0  0  0  0  0  0  0  0  0
   57.4224   24.2868   45.2624 H   0  0  0  0  0  0  0  0  0  0  0  0
   57.7694   27.6157   44.2727 H   0  0  0  0  0  0  0  0  0  0  0  0
   59.0980   26.4973   43.8136 H   0  0  0  0  0  0  0  0  0  0  0  0
   57.3972   25.9194   43.8136 H   0  0  0  0  0  0  0  0  0  0  0  0
   59.6724   24.7061   46.3307 H   0  0  0  0  0  0  0  0  0  0  0  0
   60.2619   25.8948   45.1058 H   0  0  0  0  0  0  0  0  0  0  0  0
   60.9594   26.0194   47.7231 H   0  0  0  0  0  0  0  0  0  0  0  0
   60.7628   27.4856   46.6678 H   0  0  0  0  0  0  0  0  0  0  0  0
   58.2690   26.9810   47.6470 H   0  0  0  0  0  0  0  0  0  0  0  0
   59.2250   26.6270   48.9450 H   0  0  0  0  0  0  0  0  0  0  0  0
   60.9046   28.0175   52.4960 H   0  0  0  0  0  0  0  0  0  0  0  0
   61.8832   27.1459   51.2673 H   0  0  0  0  0  0  0  0  0  0  0  0
   61.8337   28.9415   51.2673 H   0  0  0  0  0  0  0  0  0  0  0  0
   60.1642   30.6544   50.9474 H   0  0  0  0  0  0  0  0  0  0  0  0
   59.6718   32.3673   49.2367 H   0  0  0  0  0  0  0  0  0  0  0  0
   58.4992   28.1768   45.8061 H   0  0  0  0  0  0  0  0  0  0  0  0
   57.7475   29.9350   44.2369 H   0  0  0  0  0  0  0  0  0  0  0  0
   58.9669   32.3455   42.0283 H   0  0  0  0  0  0  0  0  0  0  0  0
   57.6157   31.2876   41.4974 H   0  0  0  0  0  0  0  0  0  0  0  0
   57.4124   33.0724   41.4974 H   0  0  0  0  0  0  0  0  0  0  0  0
   58.0277   34.6735   44.0792 H   0  0  0  0  0  0  0  0  0  0  0  0
   59.7017   35.9717   47.0164 H   0  0  0  0  0  0  0  0  0  0  0  0
   60.6087   35.8936   45.4679 H   0  0  0  0  0  0  0  0  0  0  0  0
   58.8682   36.3377   45.4679 H   0  0  0  0  0  0  0  0  0  0  0  0
   61.1988   34.6774   47.4749 H   0  0  0  0  0  0  0  0  0  0  0  0
   60.9395   33.1828   48.4720 H   0  0  0  0  0  0  0  0  0  0  0  0
   64.1082   33.6856   46.1191 H   0  0  0  0  0  0  0  0  0  0  0  0
   63.1524   34.8430   47.1489 H   0  0  0  0  0  0  0  0  0  0  0  0
   65.0735   32.6726   47.9623 H   0  0  0  0  0  0  0  0  0  0  0  0
   64.8025   34.3181   48.6511 H   0  0  0  0  0  0  0  0  0  0  0  0
   63.7920   30.8610   48.9385 H   0  0  0  0  0  0  0  0  0  0  0  0
   62.1233   31.3724   49.4752 H   0  0  0  0  0  0  0  0  0  0  0  0
   63.2476   31.1019   46.7439 H   0  0  0  0  0  0  0  0  0  0  0  0
   61.5342   31.0598   47.3391 H   0  0  0  0  0  0  0  0  0  0  0  0
  1  2  1  0
  2  3  1  0
  3  4  1  0
  3  5  1  0
  5  6  1  0
  6  7  1  0
  7  8  1  0
  8  9  2  0
  9 10  1  0
 10 11  1  0
  9 12  1  0
 12 13  2  0
 13 14  1  0
 14 15  2  0
 15 16  1  0
 16 17  2  0
 17 18  1  0
 18 19  2  0
 19 20  1  0
 20 21  1  0
 19 22  1  0
 22 23  2  0
 23 24  1  0
 23 25  1  0
 25 26  1  0
 26 27  1  0
 27 28  1  0
 28 29  1  0
 29 30  1  0
 30 31  1  0
 31 32  1  0
 25 33  2  0
 15  8  1  0
 33 18  1  0
 33 14  1  0
 32 27  1  0
  1 34  1  0
  1 35  1  0
  1 36  1  0
  2 37  1  0
  2 38  1  0
  4 39  1  0
  4 40  1  0
  4 41  1  0
  5 42  1  0
  5 43  1  0
  6 44  1  0
  6 45  1  0
  7 46  1  0
  7 47  1  0
 11 48  1  0
 11 49  1  0
 11 50  1  0
 12 51  1  0
 13 52  1  0
 16 53  1  0
 17 54  1  0
 21 55  1  0
 21 56  1  0
 21 57  1  0
 22 58  1  0
 24 59  1  0
 24 60  1  0
 24 61  1  0
 26 62  1  0
 26 63  1  0
 28 64  1  0
 28 65  1  0
 29 66  1  0
 29 67  1  0
 31 68  1  0
 31 69  1  0
 32 70  1  0
 32 71  1  0
M  CHG  1   7   1
M  END
>  <UniqueID>  (2) 
2

>  <SMILES>  (2) 
CCN(C)CC[NH2+]c1c(OC)ccc2c1ccc1c(OC)cc(C)c(CN3CCOCC3)c12

>  <Energy>  (2) 
117.12931867927122

>  <Genealogy>  (2) 
CCN(C)CC[NH2+]c1c(OC)ccc2c1ccc1c(OC)cc(C)c(CN3CCOCC3)c12 (protonated)
CCN(C)CC[NH2+]c1c(OC)ccc2c1ccc1c(OC)cc(C)c(CN3CCOCC3)c12 (3D coordinates assigned)
CCN(C)CC[NH2+]c1c(OC)ccc2c1ccc1c(OC)cc(C)c(CN3CCOCC3)c12 (nonaromatic ring conformer: 117.12931867927122 kcal/mol)

>  <smiles>  (2) 
CCN(C)CCNc1c(OC)ccc2c1ccc1c(OC)cc(C)c(CN3CCOCC3)c12

>  <score_type>  (2) 
oracle

>  <origin>  (2) 
adg

>  <m_score__min__energy>  (2) 
-5.7699999999999996

>  <m_primary>  (2) 
energy

$$$$
2:0
     RDKit          3D

 58 61  0  0  0  0  0  0  0  0999 V2000
   63.3070   33.8460   46.3540 C   0  0  0  0  0  0  0  0  0  0  0  0
   63.7930   33.7610   47.8120 C   0  0  0  0  0  0  0  0  0  0  0  0
   63.8680   32.3840   48.3850 N   0  0  0  0  0  0  0  0  0  0  0  0
   64.4260   32.3430   49.7630 C   0  0  0  0  0  0  0  0  0  0  0  0
   65.9110   32.7220   49.8250 C   0  0  0  0  0  0  0  0  0  0  0  0
   62.6120   31.6070   48.1980 C   0  0  0  0  0  0  0  0  0  0  0  0
   61.3130   32.4080   48.4000 C   0  0  0  0  0  0  0  0  0  0  0  0
   60.1720   31.5060   48.5660 N   0  0  0  0  0  0  0  0  0  0  0  0
   59.4200   31.0330   47.4370 C   0  0  0  0  0  0  0  0  0  0  0  0
   58.7210   31.9430   46.6270 C   0  0  0  0  0  0  0  0  0  0  0  0
   58.7630   33.3320   46.8670 C   0  0  0  0  0  0  0  0  0  0  0  0
   58.0930   34.2170   46.0240 C   0  0  0  0  0  0  0  0  0  0  0  0
   57.3880   33.7350   44.9250 C   0  0  0  0  0  0  0  0  0  0  0  0
   57.3580   32.3660   44.6570 C   0  0  0  0  0  0  0  0  0  0  0  0
   58.0310   31.4460   45.4980 C   0  0  0  0  0  0  0  0  0  0  0  0
   58.0320   30.0950   45.2370 N   0  0  0  0  0  0  0  0  0  0  0  0
   57.7580   29.6300   43.8630 C   0  0  0  0  0  0  0  0  0  0  0  0
   58.5030   29.2230   46.1970 C   0  0  0  0  0  0  0  0  0  0  0  0
   59.3540   29.6910   47.1660 N   0  0  0  0  0  0  0  0  0  0  0  0
   60.3420   28.7590   47.7450 C   0  0  0  0  0  0  0  0  0  0  0  0
   59.6980   27.4520   48.1880 C   0  0  0  0  0  0  0  0  0  0  0  0
   58.7650   26.9040   47.1470 C   0  0  0  0  0  0  0  0  0  0  0  0
   58.4100   25.5470   47.2160 C   0  0  0  0  0  0  0  0  0  0  0  0
   57.3610   25.0520   46.4460 C   0  0  0  0  0  0  0  0  0  0  0  0
   56.6150   25.9210   45.6530 C   0  0  0  0  0  0  0  0  0  0  0  0
   56.9530   27.2740   45.5850 C   0  0  0  0  0  0  0  0  0  0  0  0
   58.0930   27.7730   46.2560 C   0  0  0  0  0  0  0  0  0  0  0  0
   62.2235   34.0355   46.3391 H   0  0  0  0  0  0  0  0  0  0  0  0
   63.8298   34.6663   45.8405 H   0  0  0  0  0  0  0  0  0  0  0  0
   63.5203   32.8969   45.8405 H   0  0  0  0  0  0  0  0  0  0  0  0
   64.7989   34.2035   47.8604 H   0  0  0  0  0  0  0  0  0  0  0  0
   63.0434   34.2976   48.4122 H   0  0  0  0  0  0  0  0  0  0  0  0
   64.5690   31.8880   47.7840 H   0  0  0  0  0  0  0  0  0  0  0  0
   63.8592   33.0463   50.3908 H   0  0  0  0  0  0  0  0  0  0  0  0
   64.3379   31.3065   50.1207 H   0  0  0  0  0  0  0  0  0  0  0  0
   66.2254   32.8022   50.8761 H   0  0  0  0  0  0  0  0  0  0  0  0
   66.5084   31.9475   49.3217 H   0  0  0  0  0  0  0  0  0  0  0  0
   66.0642   33.6880   49.3217 H   0  0  0  0  0  0  0  0  0  0  0  0
   62.6090   31.2052   47.1740 H   0  0  0  0  0  0  0  0  0  0  0  0
   62.6153   30.8275   48.9741 H   0  0  0  0  0  0  0  0  0  0  0  0
   61.4113   33.0357   49.2980 H   0  0  0  0  0  0  0  0  0  0  0  0
   61.1423   33.0363   47.5134 H   0  0  0  0  0  0  0  0  0  0  0  0
   59.9230   31.1590   49.5190 H   0  0  0  0  0  0  0  0  0  0  0  0
   59.3291   33.7202   47.7265 H   0  0  0  0  0  0  0  0  0  0  0  0
   58.1215   35.2976   46.2275 H   0  0  0  0  0  0  0  0  0  0  0  0
   56.8532   34.4350   44.2662 H   0  0  0  0  0  0  0  0  0  0  0  0
   56.8045   31.9963   43.7812 H   0  0  0  0  0  0  0  0  0  0  0  0
   57.1999   28.6829   43.9009 H   0  0  0  0  0  0  0  0  0  0  0  0
   57.1612   30.3863   43.3321 H   0  0  0  0  0  0  0  0  0  0  0  0
   58.7088   29.4744   43.3321 H   0  0  0  0  0  0  0  0  0  0  0  0
   61.1093   28.5388   46.9882 H   0  0  0  0  0  0  0  0  0  0  0  0
   60.7847   29.2383   48.6306 H   0  0  0  0  0  0  0  0  0  0  0  0
   60.4898   26.7129   48.3797 H   0  0  0  0  0  0  0  0  0  0  0  0
   59.1126   27.6526   49.0974 H   0  0  0  0  0  0  0  0  0  0  0  0
   58.9646   24.8706   47.8830 H   0  0  0  0  0  0  0  0  0  0  0  0
   57.1221   23.9784   46.4638 H   0  0  0  0  0  0  0  0  0  0  0  0
   55.7574   25.5403   45.0789 H   0  0  0  0  0  0  0  0  0  0  0  0
   56.3234   27.9615   45.0011 H   0  0  0  0  0  0  0  0  0  0  0  0
  1  2  1  0
  2  3  1  0
  3  4  1  0
  4  5  1  0
  3  6  1  0
  6  7  1  0
  7  8  1  0
  8  9  1  0
  9 10  2  0
 10 11  1  0
 11 12  2  0
 12 13  1  0
 13 14  2  0
 14 15  1  0
 15 16  2  0
 16 17  1  0
 16 18  1  0
 18 19  2  0
 19 20  1  0
 20 21  1  0
 21 22  1  0
 22 23  2  0
 23 24  1  0
 24 25  2  0
 25 26  1  0
 26 27  2  0
 19  9  1  0
 27 22  1  0
 15 10  1  0
 27 18  1  0
  1 28  1  0
  1 29  1  0
  1 30  1  0
  2 31  1  0
  2 32  1  0
  3 33  1  0
  4 34  1  0
  4 35  1  0
  5 36  1  0
  5 37  1  0
  5 38  1  0
  6 39  1  0
  6 40  1  0
  7 41  1  0
  7 42  1  0
  8 43  1  0
 11 44  1  0
 12 45  1  0
 13 46  1  0
 14 47  1  0
 17 48  1  0
 17 49  1  0
 17 50  1  0
 20 51  1  0
 20 52  1  0
 21 53  1  0
 21 54  1  0
 23 55  1  0
 24 56  1  0
 25 57  1  0
 26 58  1  0
M  CHG  3   3   1  16   1  19   1
M  END
>  <UniqueID>  (3) 
3

>  <SMILES>  (3) 
CC[NH+](CC)CCNc1c2ccccc2[n+](C)c2[n+]1CCc1ccccc1-2

>  <Energy>  (3) 
106.77319876471745

>  <Genealogy>  (3) 
CC[NH+](CC)CCNc1c2ccccc2[n+](C)c2[n+]1CCc1ccccc1-2 (protonated)
CC[NH+](CC)CCNc1c2ccccc2[n+](C)c2[n+]1CCc1ccccc1-2 (3D coordinates assigned)
CC[NH+](CC)CCNc1c2ccccc2[n+](C)c2[n+]1CCc1ccccc1-2 (nonaromatic ring conformer: 106.77319876471745 kcal/mol)

>  <smiles>  (3) 
CCN(CC)CCNc1c2ccccc2[n+](C)c2[n+]1CCc1ccccc1-2

>  <score_type>  (3) 
oracle

>  <origin>  (3) 
adg

>  <m_score__min__energy>  (3) 
-3.8100000000000001

>  <m_primary>  (3) 
energy

$$$$
3:0
     RDKit          3D

 68 70  0  0  0  0  0  0  0  0999 V2000
   63.7000   32.9490   47.1400 C   0  0  0  0  0  0  0  0  0  0  0  0
   62.5550   33.8430   46.6640 C   0  0  0  0  0  0  0  0  0  0  0  0
   61.3110   33.5000   47.3720 N   0  0  0  0  0  0  0  0  0  0  0  0
   60.3560   34.6170   47.3630 C   0  0  0  0  0  0  0  0  0  0  0  0
   59.8660   34.8830   45.9380 C   0  0  0  0  0  0  0  0  0  0  0  0
   58.3710   34.5490   45.7820 C   0  0  0  0  0  0  0  0  0  0  0  0
   57.9900   33.2010   46.4220 C   0  0  0  0  0  0  0  0  0  0  0  0
   59.0500   32.1950   46.2710 N   0  0  0  0  0  0  0  0  0  0  0  0
   58.7560   30.8000   46.1010 C   0  0  0  0  0  0  0  0  0  0  0  0
   58.0630   30.3820   44.9510 C   0  0  0  0  0  0  0  0  0  0  0  0
   57.4030   31.3160   44.1230 C   0  0  0  0  0  0  0  0  0  0  0  0
   56.7010   30.8970   42.9930 C   0  0  0  0  0  0  0  0  0  0  0  0
   56.6310   29.5450   42.6800 C   0  0  0  0  0  0  0  0  0  0  0  0
   57.2770   28.6060   43.4830 C   0  0  0  0  0  0  0  0  0  0  0  0
   58.0230   29.0050   44.6230 C   0  0  0  0  0  0  0  0  0  0  0  0
   58.6980   28.0930   45.4060 N   0  0  0  0  0  0  0  0  0  0  0  0
   58.9450   26.7250   44.8930 C   0  0  0  0  0  0  0  0  0  0  0  0
   59.1490   28.4590   46.6620 C   0  0  0  0  0  0  0  0  0  0  0  0
   59.5470   27.4810   47.6050 C   0  0  0  0  0  0  0  0  0  0  0  0
   60.0250   27.8380   48.8570 C   0  0  0  0  0  0  0  0  0  0  0  0
   60.0920   29.1710   49.2250 C   0  0  0  0  0  0  0  0  0  0  0  0
   59.6790   30.1800   48.3470 C   0  0  0  0  0  0  0  0  0  0  0  0
   59.7030   31.5330   48.8320 N   0  0  0  0  0  0  0  0  0  0  0  0
   58.6160   32.0890   49.6410 C   0  0  0  0  0  0  0  0  0  0  0  0
   59.1610   32.7830   50.8990 C   0  0  0  0  0  0  0  0  0  0  0  0
   60.2210   33.8480   50.5700 C   0  0  0  0  0  0  0  0  0  0  0  0
   61.5270   33.2120   50.2850 N   0  0  0  0  0  0  0  0  0  0  0  0
   62.6040   34.2150   50.3180 C   0  0  0  0  0  0  0  0  0  0  0  0
   61.8230   32.1410   51.2550 C   0  0  0  0  0  0  0  0  0  0  0  0
   59.2030   29.8360   47.0400 C   0  0  0  0  0  0  0  0  0  0  0  0
   63.7201   32.9333   48.2397 H   0  0  0  0  0  0  0  0  0  0  0  0
   63.5492   31.9273   46.7614 H   0  0  0  0  0  0  0  0  0  0  0  0
   64.6546   33.3431   46.7614 H   0  0  0  0  0  0  0  0  0  0  0  0
   62.8083   34.8946   46.8641 H   0  0  0  0  0  0  0  0  0  0  0  0
   62.4064   33.6900   45.5849 H   0  0  0  0  0  0  0  0  0  0  0  0
   61.5520   33.2980   48.3710 H   0  0  0  0  0  0  0  0  0  0  0  0
   59.4965   34.3651   48.0015 H   0  0  0  0  0  0  0  0  0  0  0  0
   60.8561   35.5194   47.7445 H   0  0  0  0  0  0  0  0  0  0  0  0
   60.0213   35.9455   45.6994 H   0  0  0  0  0  0  0  0  0  0  0  0
   60.4361   34.2393   45.2520 H   0  0  0  0  0  0  0  0  0  0  0  0
   57.7814   35.3445   46.2611 H   0  0  0  0  0  0  0  0  0  0  0  0
   58.1589   34.4757   44.7051 H   0  0  0  0  0  0  0  0  0  0  0  0
   57.8016   33.3587   47.4942 H   0  0  0  0  0  0  0  0  0  0  0  0
   57.0927   32.8253   45.9085 H   0  0  0  0  0  0  0  0  0  0  0  0
   60.0470   32.4880   46.3850 H   0  0  0  0  0  0  0  0  0  0  0  0
   57.4429   32.3867   44.3721 H   0  0  0  0  0  0  0  0  0  0  0  0
   56.2027   31.6370   42.3495 H   0  0  0  0  0  0  0  0  0  0  0  0
   56.0646   29.2148   41.7967 H   0  0  0  0  0  0  0  0  0  0  0  0
   57.2075   27.5380   43.2289 H   0  0  0  0  0  0  0  0  0  0  0  0
   59.0699   26.0331   45.7390 H   0  0  0  0  0  0  0  0  0  0  0  0
   58.0904   26.4036   44.2796 H   0  0  0  0  0  0  0  0  0  0  0  0
   59.8581   26.7227   44.2796 H   0  0  0  0  0  0  0  0  0  0  0  0
   59.4757   26.4160   47.3392 H   0  0  0  0  0  0  0  0  0  0  0  0
   60.3524   27.0586   49.5608 H   0  0  0  0  0  0  0  0  0  0  0  0
   60.4748   29.4407   50.2203 H   0  0  0  0  0  0  0  0  0  0  0  0
   60.5650   32.1020   48.7120 H   0  0  0  0  0  0  0  0  0  0  0  0
   58.0591   32.8222   49.0391 H   0  0  0  0  0  0  0  0  0  0  0  0
   57.9575   31.2655   49.9542 H   0  0  0  0  0  0  0  0  0  0  0  0
   58.3252   33.2675   51.4250 H   0  0  0  0  0  0  0  0  0  0  0  0
   59.6405   32.0152   51.5239 H   0  0  0  0  0  0  0  0  0  0  0  0
   59.8972   34.4200   49.6880 H   0  0  0  0  0  0  0  0  0  0  0  0
   60.3334   34.5163   51.4365 H   0  0  0  0  0  0  0  0  0  0  0  0
   62.8552   34.4490   51.3631 H   0  0  0  0  0  0  0  0  0  0  0  0
   63.4929   33.8155   49.8078 H   0  0  0  0  0  0  0  0  0  0  0  0
   62.2687   35.1300   49.8078 H   0  0  0  0  0  0  0  0  0  0  0  0
   61.7149   32.5321   52.2774 H   0  0  0  0  0  0  0  0  0  0  0  0
   61.1217   31.3068   51.1055 H   0  0  0  0  0  0  0  0  0  0  0  0
   62.8531   31.7853   51.1055 H   0  0  0  0  0  0  0  0  0  0  0  0
  1  2  1  0
  2  3  1  0
  3  4  1  0
  4  5  1  0
  5  6  1  0
  6  7  1  0
  7  8  1  0
  8  9  1  0
  9 10  2  0
 10 11  1  0
 11 12  2  0
 12 13  1  0
 13 14  2  0
 14 15  1  0
 15 16  2  0
 16 17  1  0
 16 18  1  0
 18 19  2  0
 19 20  1  0
 20 21  2  0
 21 22  1  0
 22 23  1  0
 23 24  1  0
 24 25  1  0
 25 26  1  0
 26 27  1  0
 27 28  1  0
 27 29  1  0
 22 30  2  0
 30  9  1  0
 15 10  1  0
 30 18  1  0
  1 31  1  0
  1 32  1  0
  1 33  1  0
  2 34  1  0
  2 35  1  0
  3 36  1  0
  4 37  1  0
  4 38  1  0
  5 39  1  0
  5 40  1  0
  6 41  1  0
  6 42  1  0
  7 43  1  0
  7 44  1  0
  8 45  1  0
 11 46  1  0
 12 47  1  0
 13 48  1  0
 14 49  1  0
 17 50  1  0
 17 51  1  0
 17 52  1  0
 19 53  1  0
 20 54  1  0
 21 55  1  0
 23 56  1  0
 24 57  1  0
 24 58  1  0
 25 59  1  0
 25 60  1  0
 26 61  1  0
 26 62  1  0
 28 63  1  0
 28 64  1  0
 28 65  1  0
 29 66  1  0
 29 67  1  0
 29 68  1  0
M  CHG  1  16   1
M  END
>  <UniqueID>  (4) 
4

>  <SMILES>  (4) 
CCNCCCCNc1c2ccccc2[n+](C)c2cccc(NCCCN(C)C)c12

>  <Energy>  (4) 
94.89195926865104

>  <Genealogy>  (4) 
CCNCCCCNc1c2ccccc2[n+](C)c2cccc(NCCCN(C)C)c12 (3D coordinates assigned)
CCNCCCCNc1c2ccccc2[n+](C)c2cccc(NCCCN(C)C)c12 (optimized conformer: 94.89195926865104 kcal/mol)

>  <smiles>  (4) 
CCNCCCCNc1c2ccccc2[n+](C)c2cccc(NCCCN(C)C)c12

>  <score_type>  (4) 
oracle

>  <origin>  (4) 
adg

>  <m_score__min__energy>  (4) 
-5.5800000000000001

>  <m_primary>  (4) 
energy

$$$$
4:0
     RDKit          3D

 49 51  0  0  0  0  0  0  0  0999 V2000
   56.3260   29.5790   42.6320 C   0  0  0  0  0  0  0  0  0  0  0  0
   55.5640   29.7160   43.9530 C   0  0  0  0  0  0  0  0  0  0  0  0
   56.1870   30.6850   44.8680 N   0  0  0  0  0  0  0  0  0  0  0  0
   57.3120   31.3950   44.2470 C   0  0  0  0  0  0  0  0  0  0  0  0
   58.5060   31.3790   45.1810 C   0  0  0  0  0  0  0  0  0  0  0  0
   59.0210   32.5540   45.8110 C   0  0  0  0  0  0  0  0  0  0  0  0
   58.4490   33.8250   45.5800 C   0  0  0  0  0  0  0  0  0  0  0  0
   58.9320   34.9590   46.2280 C   0  0  0  0  0  0  0  0  0  0  0  0
   59.9920   34.8590   47.1210 C   0  0  0  0  0  0  0  0  0  0  0  0
   60.5970   33.6270   47.3610 C   0  0  0  0  0  0  0  0  0  0  0  0
   60.1480   32.4590   46.7050 C   0  0  0  0  0  0  0  0  0  0  0  0
   60.7890   31.2000   46.9170 C   0  0  0  0  0  0  0  0  0  0  0  0
   61.9330   31.0370   47.7910 N   0  0  0  0  0  0  0  0  0  0  0  0
   63.1430   31.5940   47.1630 C   0  0  0  0  0  0  0  0  0  0  0  0
   63.7650   32.7530   47.9790 C   0  0  0  0  0  0  0  0  0  0  0  0
   63.3400   32.8620   49.3950 N   0  0  0  0  0  0  0  0  0  0  0  0
   62.8330   34.1910   49.7740 C   0  0  0  0  0  0  0  0  0  0  0  0
   64.3160   32.3480   50.3660 C   0  0  0  0  0  0  0  0  0  0  0  0
   60.2580   30.0890   46.2570 C   0  0  0  0  0  0  0  0  0  0  0  0
   60.6930   28.8540   46.3190 O   0  0  0  0  0  0  0  0  0  0  0  0
   59.9300   28.1130   45.5410 C   0  0  0  0  0  0  0  0  0  0  0  0
   58.9540   28.8970   44.9450 C   0  0  0  0  0  0  0  0  0  0  0  0
   59.1770   30.1740   45.4240 C   0  0  0  0  0  0  0  0  0  0  0  0
   57.3891   29.3879   42.8401 H   0  0  0  0  0  0  0  0  0  0  0  0
   55.9092   28.7414   42.0535 H   0  0  0  0  0  0  0  0  0  0  0  0
   56.2271   30.5093   42.0535 H   0  0  0  0  0  0  0  0  0  0  0  0
   54.5378   30.0468   43.7350 H   0  0  0  0  0  0  0  0  0  0  0  0
   55.5773   28.7340   44.4485 H   0  0  0  0  0  0  0  0  0  0  0  0
   56.5190   30.1870   45.7260 H   0  0  0  0  0  0  0  0  0  0  0  0
   57.5803   30.8993   43.3024 H   0  0  0  0  0  0  0  0  0  0  0  0
   57.0196   32.4366   44.0482 H   0  0  0  0  0  0  0  0  0  0  0  0
   57.6085   33.9204   44.8769 H   0  0  0  0  0  0  0  0  0  0  0  0
   58.4721   35.9389   46.0320 H   0  0  0  0  0  0  0  0  0  0  0  0
   60.3555   35.7574   47.6413 H   0  0  0  0  0  0  0  0  0  0  0  0
   61.4352   33.5629   48.0705 H   0  0  0  0  0  0  0  0  0  0  0  0
   62.0550   30.0320   48.0470 H   0  0  0  0  0  0  0  0  0  0  0  0
   61.7530   31.5510   48.6820 H   0  0  0  0  0  0  0  0  0  0  0  0
   63.8897   30.7920   47.0669 H   0  0  0  0  0  0  0  0  0  0  0  0
   62.8501   31.9995   46.1833 H   0  0  0  0  0  0  0  0  0  0  0  0
   64.8573   32.6234   47.9661 H   0  0  0  0  0  0  0  0  0  0  0  0
   63.4110   33.6752   47.4950 H   0  0  0  0  0  0  0  0  0  0  0  0
   62.8019   34.2726   50.8705 H   0  0  0  0  0  0  0  0  0  0  0  0
   63.4983   34.9669   49.3673 H   0  0  0  0  0  0  0  0  0  0  0  0
   61.8200   34.3266   49.3673 H   0  0  0  0  0  0  0  0  0  0  0  0
   63.9532   32.5391   51.3867 H   0  0  0  0  0  0  0  0  0  0  0  0
   64.4442   31.2654   50.2190 H   0  0  0  0  0  0  0  0  0  0  0  0
   65.2812   32.8548   50.2190 H   0  0  0  0  0  0  0  0  0  0  0  0
   60.0499   27.0305   45.3869 H   0  0  0  0  0  0  0  0  0  0  0  0
   58.1717   28.5728   44.2430 H   0  0  0  0  0  0  0  0  0  0  0  0
  1  2  1  0
  2  3  1  0
  3  4  1  0
  4  5  1  0
  5  6  2  0
  6  7  1  0
  7  8  2  0
  8  9  1  0
  9 10  2  0
 10 11  1  0
 11 12  2  0
 12 13  1  0
 13 14  1  0
 14 15  1  0
 15 16  1  0
 16 17  1  0
 16 18  1  0
 12 19  1  0
 19 20  1  0
 20 21  1  0
 21 22  2  0
 22 23  1  0
 23  5  1  0
 11  6  1  0
 23 19  2  0
  1 24  1  0
  1 25  1  0
  1 26  1  0
  2 27  1  0
  2 28  1  0
  3 29  1  0
  4 30  1  0
  4 31  1  0
  7 32  1  0
  8 33  1  0
  9 34  1  0
 10 35  1  0
 13 36  1  0
 13 37  1  0
 14 38  1  0
 14 39  1  0
 15 40  1  0
 15 41  1  0
 17 42  1  0
 17 43  1  0
 17 44  1  0
 18 45  1  0
 18 46  1  0
 18 47  1  0
 21 48  1  0
 22 49  1  0
M  CHG  1  13   1
M  END
>  <UniqueID>  (5) 
5

>  <SMILES>  (5) 
CCNCc1c2ccccc2c([NH2+]CCN(C)C)c2occc12

>  <Energy>  (5) 
95.88338259855283

>  <Genealogy>  (5) 
CCNCc1c2ccccc2c([NH2+]CCN(C)C)c2occc12 (protonated)
CCNCc1c2ccccc2c([NH2+]CCN(C)C)c2occc12 (3D coordinates assigned)
CCNCc1c2ccccc2c([NH2+]CCN(C)C)c2occc12 (optimized conformer: 95.88338259855283 kcal/mol)

>  <smiles>  (5) 
CCNCc1c2ccccc2c(NCCN(C)C)c2occc12

>  <score_type>  (5) 
oracle

>  <origin>  (5) 
adg

>  <m_score__min__energy>  (5) 
-5.8700000000000001

>  <m_primary>  (5) 
energy

$$$$
5:0
     RDKit          3D

 55 57  0  0  0  0  0  0  0  0999 V2000
   61.6280   33.8420   50.8900 C   0  0  0  0  0  0  0  0  0  0  0  0
   62.9120   33.9290   50.0670 C   0  0  0  0  0  0  0  0  0  0  0  0
   63.2810   32.6040   49.5190 N   0  0  0  0  0  0  0  0  0  0  0  0
   64.2100   31.8910   50.4270 C   0  0  0  0  0  0  0  0  0  0  0  0
   65.6510   32.3400   50.1870 C   0  0  0  0  0  0  0  0  0  0  0  0
   63.8240   32.7090   48.1380 C   0  0  0  0  0  0  0  0  0  0  0  0
   62.6810   32.6750   47.1210 C   0  0  0  0  0  0  0  0  0  0  0  0
   61.3770   32.7470   47.7790 N   0  0  0  0  0  0  0  0  0  0  0  0
   60.2750   31.9940   47.2550 C   0  0  0  0  0  0  0  0  0  0  0  0
   59.4060   32.6140   46.3420 C   0  0  0  0  0  0  0  0  0  0  0  0
   59.4260   34.0130   46.1580 C   0  0  0  0  0  0  0  0  0  0  0  0
   58.5160   34.6300   45.3020 C   0  0  0  0  0  0  0  0  0  0  0  0
   57.5710   33.8670   44.6250 C   0  0  0  0  0  0  0  0  0  0  0  0
   57.5590   32.4800   44.7660 C   0  0  0  0  0  0  0  0  0  0  0  0
   58.5060   31.8200   45.5910 C   0  0  0  0  0  0  0  0  0  0  0  0
   58.5880   30.4450   45.6540 N   0  0  0  0  0  0  0  0  0  0  0  0
   57.9370   29.6210   44.6090 C   0  0  0  0  0  0  0  0  0  0  0  0
   59.3000   29.8390   46.6750 C   0  0  0  0  0  0  0  0  0  0  0  0
   59.2330   28.4410   46.8820 C   0  0  0  0  0  0  0  0  0  0  0  0
   60.0040   27.8210   47.8540 C   0  0  0  0  0  0  0  0  0  0  0  0
   60.7750   28.5750   48.7230 C   0  0  0  0  0  0  0  0  0  0  0  0
   60.7650   29.9840   48.6670 C   0  0  0  0  0  0  0  0  0  0  0  0
   61.3810   30.7630   49.7330 N   0  0  0  0  0  0  0  0  0  0  0  0
   60.8250   30.5140   51.0720 C   0  0  0  0  0  0  0  0  0  0  0  0
   60.1240   30.6160   47.5460 C   0  0  0  0  0  0  0  0  0  0  0  0
   61.8773   33.8589   51.9613 H   0  0  0  0  0  0  0  0  0  0  0  0
   60.9804   34.6983   50.6507 H   0  0  0  0  0  0  0  0  0  0  0  0
   61.1018   32.9061   50.6507 H   0  0  0  0  0  0  0  0  0  0  0  0
   62.7594   34.6326   49.2353 H   0  0  0  0  0  0  0  0  0  0  0  0
   63.7250   34.2768   50.7212 H   0  0  0  0  0  0  0  0  0  0  0  0
   63.9332   32.1074   51.4694 H   0  0  0  0  0  0  0  0  0  0  0  0
   64.1385   30.8113   50.2294 H   0  0  0  0  0  0  0  0  0  0  0  0
   66.1522   32.4962   51.1536 H   0  0  0  0  0  0  0  0  0  0  0  0
   66.1862   31.5660   49.6173 H   0  0  0  0  0  0  0  0  0  0  0  0
   65.6518   33.2810   49.6173 H   0  0  0  0  0  0  0  0  0  0  0  0
   64.3753   33.6552   48.0345 H   0  0  0  0  0  0  0  0  0  0  0  0
   64.4989   31.8609   47.9504 H   0  0  0  0  0  0  0  0  0  0  0  0
   62.7846   33.5309   46.4379 H   0  0  0  0  0  0  0  0  0  0  0  0
   62.7376   31.7251   46.5692 H   0  0  0  0  0  0  0  0  0  0  0  0
   61.1810   33.4810   48.4950 H   0  0  0  0  0  0  0  0  0  0  0  0
   60.1673   34.6224   46.6957 H   0  0  0  0  0  0  0  0  0  0  0  0
   58.5452   35.7206   45.1618 H   0  0  0  0  0  0  0  0  0  0  0  0
   56.8311   34.3590   43.9766 H   0  0  0  0  0  0  0  0  0  0  0  0
   56.8033   31.8879   44.2291 H   0  0  0  0  0  0  0  0  0  0  0  0
   57.3224   28.8431   45.0855 H   0  0  0  0  0  0  0  0  0  0  0  0
   57.2979   30.2608   43.9828 H   0  0  0  0  0  0  0  0  0  0  0  0
   58.7074   29.1473   43.9828 H   0  0  0  0  0  0  0  0  0  0  0  0
   58.5572   27.8349   46.2608 H   0  0  0  0  0  0  0  0  0  0  0  0
   60.0031   26.7240   47.9352 H   0  0  0  0  0  0  0  0  0  0  0  0
   61.4048   28.0670   49.4682 H   0  0  0  0  0  0  0  0  0  0  0  0
   61.2060   31.7780   49.5610 H   0  0  0  0  0  0  0  0  0  0  0  0
   62.4090   30.5730   49.7560 H   0  0  0  0  0  0  0  0  0  0  0  0
   61.5479   30.8378   51.8352 H   0  0  0  0  0  0  0  0  0  0  0  0
   59.8886   31.0787   51.1910 H   0  0  0  0  0  0  0  0  0  0  0  0
   60.6227   29.4393   51.1910 H   0  0  0  0  0  0  0  0  0  0  0  0
  1  2  1  0
  2  3  1  0
  3  4  1  0
  4  5  1  0
  3  6  1  0
  6  7  1  0
  7  8  1  0
  8  9  1  0
  9 10  2  0
 10 11  1  0
 11 12  2  0
 12 13  1  0
 13 14  2  0
 14 15  1  0
 15 16  2  0
 16 17  1  0
 16 18  1  0
 18 19  2  0
 19 20  1  0
 20 21  2  0
 21 22  1  0
 22 23  1  0
 23 24  1  0
 22 25  2  0
 25  9  1  0
 15 10  1  0
 25 18  1  0
  1 26  1  0
  1 27  1  0
  1 28  1  0
  2 29  1  0
  2 30  1  0
  4 31  1  0
  4 32  1  0
  5 33  1  0
  5 34  1  0
  5 35  1  0
  6 36  1  0
  6 37  1  0
  7 38  1  0
  7 39  1  0
  8 40  1  0
 11 41  1  0
 12 42  1  0
 13 43  1  0
 14 44  1  0
 17 45  1  0
 17 46  1  0
 17 47  1  0
 19 48  1  0
 20 49  1  0
 21 50  1  0
 23 51  1  0
 23 52  1  0
 24 53  1  0
 24 54  1  0
 24 55  1  0
M  CHG  2  16   1  23   1
M  END
>  <UniqueID>  (6) 
6

>  <SMILES>  (6) 
CCN(CC)CCNc1c2ccccc2[n+](C)c2cccc([NH2+]C)c12

>  <Energy>  (6) 
94.59066120001194

>  <Genealogy>  (6) 
CCN(CC)CCNc1c2ccccc2[n+](C)c2cccc([NH2+]C)c12 (protonated)
CCN(CC)CCNc1c2ccccc2[n+](C)c2cccc([NH2+]C)c12 (3D coordinates assigned)
CCN(CC)CCNc1c2ccccc2[n+](C)c2cccc([NH2+]C)c12 (optimized conformer: 94.59066120001194 kcal/mol)

>  <smiles>  (6) 
CCN(CC)CCNc1c2ccccc2[n+](C)c2cccc(NC)c12

>  <score_type>  (6) 
oracle

>  <origin>  (6) 
adg

>  <m_score__min__energy>  (6) 
-3.8100000000000001

>  <m_primary>  (6) 
energy

$$$$
6:0
     RDKit          3D

 63 65  0  0  0  0  0  0  0  0999 V2000
   63.2970   33.6010   47.5350 C   0  0  0  0  0  0  0  0  0  0  0  0
   62.8850   33.0620   48.9080 C   0  0  0  0  0  0  0  0  0  0  0  0
   62.3960   31.6730   48.8490 N   0  0  0  0  0  0  0  0  0  0  0  0
   62.1930   31.1850   47.4760 C   0  0  0  0  0  0  0  0  0  0  0  0
   61.1400   30.0610   47.4310 C   0  0  0  0  0  0  0  0  0  0  0  0
   59.8000   30.5800   47.7050 N   0  0  0  0  0  0  0  0  0  0  0  0
   59.0280   31.2390   46.6850 C   0  0  0  0  0  0  0  0  0  0  0  0
   58.2680   30.4670   45.7940 C   0  0  0  0  0  0  0  0  0  0  0  0
   57.9500   29.1230   46.0840 C   0  0  0  0  0  0  0  0  0  0  0  0
   57.1590   28.3750   45.2140 C   0  0  0  0  0  0  0  0  0  0  0  0
   56.6630   28.9550   44.0520 C   0  0  0  0  0  0  0  0  0  0  0  0
   56.9840   30.2740   43.7350 C   0  0  0  0  0  0  0  0  0  0  0  0
   57.8250   31.0440   44.5780 C   0  0  0  0  0  0  0  0  0  0  0  0
   58.2350   32.3170   44.2340 N   0  0  0  0  0  0  0  0  0  0  0  0
   58.1040   32.7790   42.8330 C   0  0  0  0  0  0  0  0  0  0  0  0
   58.7790   33.1490   45.1960 C   0  0  0  0  0  0  0  0  0  0  0  0
   59.0030   34.5230   44.9350 C   0  0  0  0  0  0  0  0  0  0  0  0
   59.6030   35.3440   45.8800 C   0  0  0  0  0  0  0  0  0  0  0  0
   59.8900   34.8620   47.1450 C   0  0  0  0  0  0  0  0  0  0  0  0
   59.5490   33.5450   47.5140 C   0  0  0  0  0  0  0  0  0  0  0  0
   59.6210   33.1410   48.9120 N   0  0  0  0  0  0  0  0  0  0  0  0
   59.6390   34.2760   49.8600 C   0  0  0  0  0  0  0  0  0  0  0  0
   59.6470   33.8100   51.3280 C   0  0  0  0  0  0  0  0  0  0  0  0
   60.3130   32.4250   51.4990 C   0  0  0  0  0  0  0  0  0  0  0  0
   59.7040   31.3530   50.6790 N   0  0  0  0  0  0  0  0  0  0  0  0
   58.2590   31.2040   50.9100 C   0  0  0  0  0  0  0  0  0  0  0  0
   60.4000   30.0630   50.8040 C   0  0  0  0  0  0  0  0  0  0  0  0
   59.1260   32.6390   46.4840 C   0  0  0  0  0  0  0  0  0  0  0  0
   63.9603   34.4687   47.6657 H   0  0  0  0  0  0  0  0  0  0  0  0
   63.8269   32.8153   46.9766 H   0  0  0  0  0  0  0  0  0  0  0  0
   62.3998   33.9061   46.9766 H   0  0  0  0  0  0  0  0  0  0  0  0
   63.7570   33.1002   49.5775 H   0  0  0  0  0  0  0  0  0  0  0  0
   62.0609   33.6895   49.2783 H   0  0  0  0  0  0  0  0  0  0  0  0
   61.4910   31.6020   49.3720 H   0  0  0  0  0  0  0  0  0  0  0  0
   61.8530   32.0199   46.8456 H   0  0  0  0  0  0  0  0  0  0  0  0
   63.1473   30.7816   47.1064 H   0  0  0  0  0  0  0  0  0  0  0  0
   61.1491   29.6006   46.4320 H   0  0  0  0  0  0  0  0  0  0  0  0
   61.3903   29.3182   48.2027 H   0  0  0  0  0  0  0  0  0  0  0  0
   59.3850   30.4430   48.6550 H   0  0  0  0  0  0  0  0  0  0  0  0
   58.3306   28.6608   47.0068 H   0  0  0  0  0  0  0  0  0  0  0  0
   56.9270   27.3252   45.4468 H   0  0  0  0  0  0  0  0  0  0  0  0
   56.0155   28.3716   43.3809 H   0  0  0  0  0  0  0  0  0  0  0  0
   56.5787   30.7244   42.8169 H   0  0  0  0  0  0  0  0  0  0  0  0
   57.8039   33.8372   42.8224 H   0  0  0  0  0  0  0  0  0  0  0  0
   59.0695   32.6665   42.3180 H   0  0  0  0  0  0  0  0  0  0  0  0
   57.3413   32.1764   42.3180 H   0  0  0  0  0  0  0  0  0  0  0  0
   58.6964   34.9466   43.9673 H   0  0  0  0  0  0  0  0  0  0  0  0
   59.8518   36.3839   45.6217 H   0  0  0  0  0  0  0  0  0  0  0  0
   60.3916   35.5162   47.8733 H   0  0  0  0  0  0  0  0  0  0  0  0
   58.7690   32.5880   49.1520 H   0  0  0  0  0  0  0  0  0  0  0  0
   60.4820   32.5630   49.0470 H   0  0  0  0  0  0  0  0  0  0  0  0
   60.5411   34.8776   49.6747 H   0  0  0  0  0  0  0  0  0  0  0  0
   58.7239   34.8647   49.6983 H   0  0  0  0  0  0  0  0  0  0  0  0
   60.2005   34.5457   51.9299 H   0  0  0  0  0  0  0  0  0  0  0  0
   58.6019   33.7248   51.6603 H   0  0  0  0  0  0  0  0  0  0  0  0
   61.3726   32.5147   51.2176 H   0  0  0  0  0  0  0  0  0  0  0  0
   60.1743   32.1354   52.5511 H   0  0  0  0  0  0  0  0  0  0  0  0
   58.0608   31.1836   51.9918 H   0  0  0  0  0  0  0  0  0  0  0  0
   57.7257   32.0519   50.4555 H   0  0  0  0  0  0  0  0  0  0  0  0
   57.9099   30.2651   50.4555 H   0  0  0  0  0  0  0  0  0  0  0  0
   60.5316   29.8190   51.8685 H   0  0  0  0  0  0  0  0  0  0  0  0
   59.8040   29.2762   50.3185 H   0  0  0  0  0  0  0  0  0  0  0  0
   61.3848   30.1292   50.3185 H   0  0  0  0  0  0  0  0  0  0  0  0
  1  2  1  0
  2  3  1  0
  3  4  1  0
  4  5  1  0
  5  6  1  0
  6  7  1  0
  7  8  2  0
  8  9  1  0
  9 10  2  0
 10 11  1  0
 11 12  2  0
 12 13  1  0
 13 14  2  0
 14 15  1  0
 14 16  1  0
 16 17  2  0
 17 18  1  0
 18 19  2  0
 19 20  1  0
 20 21  1  0
 21 22  1  0
 22 23  1  0
 23 24  1  0
 24 25  1  0
 25 26  1  0
 25 27  1  0
 20 28  2  0
 28  7  1  0
 13  8  1  0
 28 16  1  0
  1 29  1  0
  1 30  1  0
  1 31  1  0
  2 32  1  0
  2 33  1  0
  3 34  1  0
  4 35  1  0
  4 36  1  0
  5 37  1  0
  5 38  1  0
  6 39  1  0
  9 40  1  0
 10 41  1  0
 11 42  1  0
 12 43  1  0
 15 44  1  0
 15 45  1  0
 15 46  1  0
 17 47  1  0
 18 48  1  0
 19 49  1  0
 21 50  1  0
 21 51  1  0
 22 52  1  0
 22 53  1  0
 23 54  1  0
 23 55  1  0
 24 56  1  0
 24 57  1  0
 26 58  1  0
 26 59  1  0
 26 60  1  0
 27 61  1  0
 27 62  1  0
 27 63  1  0
M  CHG  2  14   1  21   1
M  END
>  <UniqueID>  (7) 
7

>  <SMILES>  (7) 
CCNCCNc1c2ccccc2[n+](C)c2cccc([NH2+]CCCN(C)C)c12

>  <Energy>  (7) 
103.17264635597182

>  <Genealogy>  (7) 
CCNCCNc1c2ccccc2[n+](C)c2cccc([NH2+]CCCN(C)C)c12 (protonated)
CCNCCNc1c2ccccc2[n+](C)c2cccc([NH2+]CCCN(C)C)c12 (3D coordinates assigned)
CCNCCNc1c2ccccc2[n+](C)c2cccc([NH2+]CCCN(C)C)c12 (optimized conformer: 103.17264635597182 kcal/mol)

>  <smiles>  (7) 
CCNCCNc1c2ccccc2[n+](C)c2cccc(NCCCN(C)C)c12

>  <score_type>  (7) 
oracle

>  <origin>  (7) 
adg

>  <m_score__min__energy>  (7) 
-3.4300000000000002

>  <m_primary>  (7) 
energy

$$$$
7:0
     RDKit          3D

 57 59  0  0  0  0  0  0  0  0999 V2000
   57.4550   33.8600   45.6010 C   0  0  0  0  0  0  0  0  0  0  0  0
   58.1460   33.5290   46.9330 C   0  0  0  0  0  0  0  0  0  0  0  0
   59.2730   34.4340   47.2650 N   0  0  0  0  0  0  0  0  0  0  0  0
   59.6280   34.4120   48.7010 C   0  0  0  0  0  0  0  0  0  0  0  0
   59.2450   33.0750   49.3260 C   0  0  0  0  0  0  0  0  0  0  0  0
   60.4360   34.2640   46.3630 C   0  0  0  0  0  0  0  0  0  0  0  0
   61.7210   34.1950   47.1990 C   0  0  0  0  0  0  0  0  0  0  0  0
   62.9510   33.7820   46.3710 C   0  0  0  0  0  0  0  0  0  0  0  0
   63.6200   32.5920   46.9130 N   0  0  0  0  0  0  0  0  0  0  0  0
   63.1470   31.8790   48.0710 C   0  0  0  0  0  0  0  0  0  0  0  0
   63.7960   32.0480   49.3060 C   0  0  0  0  0  0  0  0  0  0  0  0
   64.9560   32.8480   49.4080 C   0  0  0  0  0  0  0  0  0  0  0  0
   65.5530   33.0830   50.6430 C   0  0  0  0  0  0  0  0  0  0  0  0
   65.0010   32.5400   51.7970 C   0  0  0  0  0  0  0  0  0  0  0  0
   63.8660   31.7340   51.7190 C   0  0  0  0  0  0  0  0  0  0  0  0
   63.2600   31.4370   50.4710 C   0  0  0  0  0  0  0  0  0  0  0  0
   62.1630   30.6000   50.3750 N   0  0  0  0  0  0  0  0  0  0  0  0
   61.7670   29.7670   51.5320 C   0  0  0  0  0  0  0  0  0  0  0  0
   61.4620   30.5090   49.1860 C   0  0  0  0  0  0  0  0  0  0  0  0
   60.2090   29.8530   49.1070 C   0  0  0  0  0  0  0  0  0  0  0  0
   59.5590   29.6770   47.8860 C   0  0  0  0  0  0  0  0  0  0  0  0
   60.1380   30.1440   46.7000 C   0  0  0  0  0  0  0  0  0  0  0  0
   59.5120   29.9380   45.4190 N   0  0  0  0  0  0  0  0  0  0  0  0
   58.2240   30.5150   45.0480 C   0  0  0  0  0  0  0  0  0  0  0  0
   61.3490   30.8410   46.7670 C   0  0  0  0  0  0  0  0  0  0  0  0
   61.9870   31.0860   48.0010 C   0  0  0  0  0  0  0  0  0  0  0  0
   56.4794   34.3274   45.8003 H   0  0  0  0  0  0  0  0  0  0  0  0
   58.0835   34.5548   45.0246 H   0  0  0  0  0  0  0  0  0  0  0  0
   57.3075   32.9348   45.0246 H   0  0  0  0  0  0  0  0  0  0  0  0
   57.3987   33.5966   47.7373 H   0  0  0  0  0  0  0  0  0  0  0  0
   58.5668   32.5177   46.8324 H   0  0  0  0  0  0  0  0  0  0  0  0
   60.7121   34.5642   48.8081 H   0  0  0  0  0  0  0  0  0  0  0  0
   59.0794   35.2149   49.2152 H   0  0  0  0  0  0  0  0  0  0  0  0
   59.2700   33.1622   50.4223 H   0  0  0  0  0  0  0  0  0  0  0  0
   58.2309   32.7965   49.0033 H   0  0  0  0  0  0  0  0  0  0  0  0
   59.9578   32.3018   49.0033 H   0  0  0  0  0  0  0  0  0  0  0  0
   60.3217   33.3335   45.7876 H   0  0  0  0  0  0  0  0  0  0  0  0
   60.4926   35.1167   45.6703 H   0  0  0  0  0  0  0  0  0  0  0  0
   61.9090   35.1865   47.6367 H   0  0  0  0  0  0  0  0  0  0  0  0
   61.5710   33.4283   47.9734 H   0  0  0  0  0  0  0  0  0  0  0  0
   62.6275   33.5668   45.3419 H   0  0  0  0  0  0  0  0  0  0  0  0
   63.6703   34.6136   46.4032 H   0  0  0  0  0  0  0  0  0  0  0  0
   64.5420   32.3150   46.5070 H   0  0  0  0  0  0  0  0  0  0  0  0
   65.3925   33.2904   48.5004 H   0  0  0  0  0  0  0  0  0  0  0  0
   66.4623   33.6989   50.7057 H   0  0  0  0  0  0  0  0  0  0  0  0
   65.4608   32.7467   52.7747 H   0  0  0  0  0  0  0  0  0  0  0  0
   63.4325   31.3209   52.6417 H   0  0  0  0  0  0  0  0  0  0  0  0
   62.0170   30.2930   52.4652 H   0  0  0  0  0  0  0  0  0  0  0  0
   60.6836   29.5800   51.4955 H   0  0  0  0  0  0  0  0  0  0  0  0
   62.3059   28.8088   51.4955 H   0  0  0  0  0  0  0  0  0  0  0  0
   59.7395   29.4749   50.0271 H   0  0  0  0  0  0  0  0  0  0  0  0
   58.5845   29.1677   47.8544 H   0  0  0  0  0  0  0  0  0  0  0  0
   59.9960   29.3420   44.7090 H   0  0  0  0  0  0  0  0  0  0  0  0
   57.6598   30.7678   45.9578 H   0  0  0  0  0  0  0  0  0  0  0  0
   58.3879   31.4257   44.4533 H   0  0  0  0  0  0  0  0  0  0  0  0
   57.6535   29.7864   44.4533 H   0  0  0  0  0  0  0  0  0  0  0  0
   61.8131   31.2054   45.8387 H   0  0  0  0  0  0  0  0  0  0  0  0
  1  2  1  0
  2  3  1  0
  3  4  1  0
  4  5  1  0
  3  6  1  0
  6  7  1  0
  7  8  1  0
  8  9  1  0
  9 10  1  0
 10 11  2  0
 11 12  1  0
 12 13  2  0
 13 14  1  0
 14 15  2  0
 15 16  1  0
 16 17  2  0
 17 18  1  0
 17 19  1  0
 19 20  2  0
 20 21  1  0
 21 22  2  0
 22 23  1  0
 23 24  1  0
 22 25  1  0
 25 26  2  0
 26 10  1  0
 16 11  1  0
 26 19  1  0
  1 27  1  0
  1 28  1  0
  1 29  1  0
  2 30  1  0
  2 31  1  0
  4 32  1  0
  4 33  1  0
  5 34  1  0
  5 35  1  0
  5 36  1  0
  6 37  1  0
  6 38  1  0
  7 39  1  0
  7 40  1  0
  8 41  1  0
  8 42  1  0
  9 43  1  0
 12 44  1  0
 13 45  1  0
 14 46  1  0
 15 47  1  0
 18 48  1  0
 18 49  1  0
 18 50  1  0
 20 51  1  0
 21 52  1  0
 23 53  1  0
 24 54  1  0
 24 55  1  0
 24 56  1  0
 25 57  1  0
M  CHG  1  17   1
M  END
>  <UniqueID>  (8) 
8

>  <SMILES>  (8) 
CCN(CC)CCCNc1c2ccccc2[n+](C)c2ccc(NC)cc12

>  <Energy>  (8) 
80.18570212964889

>  <Genealogy>  (8) 
CCN(CC)CCCNc1c2ccccc2[n+](C)c2ccc(NC)cc12 (3D coordinates assigned)
CCN(CC)CCCNc1c2ccccc2[n+](C)c2ccc(NC)cc12 (optimized conformer: 80.18570212964889 kcal/mol)

>  <smiles>  (8) 
CCN(CC)CCCNc1c2ccccc2[n+](C)c2ccc(NC)cc12

>  <score_type>  (8) 
oracle

>  <origin>  (8) 
adg

>  <m_score__min__energy>  (8) 
-6.1600000000000001

>  <m_primary>  (8) 
energy

$$$$
8:0
     RDKit          3D

 60 62  0  0  0  0  0  0  0  0999 V2000
   58.4790   27.7010   43.8860 C   0  0  0  0  0  0  0  0  0  0  0  0
   59.6850   28.4180   44.4970 C   0  0  0  0  0  0  0  0  0  0  0  0
   59.3140   29.6170   45.2960 N   0  0  0  0  0  0  0  0  0  0  0  0
   59.9370   29.5630   46.6490 C   0  0  0  0  0  0  0  0  0  0  0  0
   58.9290   29.2280   47.7560 C   0  0  0  0  0  0  0  0  0  0  0  0
   57.8400   29.8460   45.3790 C   0  0  0  0  0  0  0  0  0  0  0  0
   57.3340   31.1740   44.7790 C   0  0  0  0  0  0  0  0  0  0  0  0
   58.3600   32.1480   44.8030 O   0  0  0  0  0  0  0  0  0  0  0  0
   57.8020   33.4310   44.6280 C   0  0  0  0  0  0  0  0  0  0  0  0
   58.4810   34.4320   45.5680 C   0  0  0  0  0  0  0  0  0  0  0  0
   58.2500   34.1330   47.0570 C   0  0  0  0  0  0  0  0  0  0  0  0
   58.7230   32.7960   47.4250 N   0  0  0  0  0  0  0  0  0  0  0  0
   59.8170   32.5950   48.3470 C   0  0  0  0  0  0  0  0  0  0  0  0
   61.1460   32.8790   47.9620 C   0  0  0  0  0  0  0  0  0  0  0  0
   61.4270   33.5480   46.7500 C   0  0  0  0  0  0  0  0  0  0  0  0
   62.7360   33.8450   46.3810 C   0  0  0  0  0  0  0  0  0  0  0  0
   63.7870   33.5230   47.2300 C   0  0  0  0  0  0  0  0  0  0  0  0
   63.5360   32.8840   48.4440 C   0  0  0  0  0  0  0  0  0  0  0  0
   62.2180   32.5230   48.8260 C   0  0  0  0  0  0  0  0  0  0  0  0
   61.9640   31.8670   50.0180 N   0  0  0  0  0  0  0  0  0  0  0  0
   63.0680   31.2170   50.7540 C   0  0  0  0  0  0  0  0  0  0  0  0
   60.6670   31.7700   50.4870 C   0  0  0  0  0  0  0  0  0  0  0  0
   60.3860   31.3150   51.8000 C   0  0  0  0  0  0  0  0  0  0  0  0
   59.0740   31.1480   52.2420 C   0  0  0  0  0  0  0  0  0  0  0  0
   58.0080   31.4620   51.4080 C   0  0  0  0  0  0  0  0  0  0  0  0
   56.3580   31.2430   51.9690 Cl  0  0  0  0  0  0  0  0  0  0  0  0
   58.2520   31.9580   50.1270 C   0  0  0  0  0  0  0  0  0  0  0  0
   59.5720   32.1200   49.6500 C   0  0  0  0  0  0  0  0  0  0  0  0
   57.8341   27.3176   44.6904 H   0  0  0  0  0  0  0  0  0  0  0  0
   57.9090   28.4070   43.2642 H   0  0  0  0  0  0  0  0  0  0  0  0
   58.8270   26.8630   43.2642 H   0  0  0  0  0  0  0  0  0  0  0  0
   60.2156   27.7120   45.1527 H   0  0  0  0  0  0  0  0  0  0  0  0
   60.3150   28.7636   43.6641 H   0  0  0  0  0  0  0  0  0  0  0  0
   59.7020   30.4560   44.8000 H   0  0  0  0  0  0  0  0  0  0  0  0
   60.7219   28.7924   46.6437 H   0  0  0  0  0  0  0  0  0  0  0  0
   60.3457   30.5612   46.8649 H   0  0  0  0  0  0  0  0  0  0  0  0
   59.3982   29.3839   48.7386 H   0  0  0  0  0  0  0  0  0  0  0  0
   58.0498   29.8822   47.6616 H   0  0  0  0  0  0  0  0  0  0  0  0
   58.6163   28.1776   47.6616 H   0  0  0  0  0  0  0  0  0  0  0  0
   57.3398   29.0229   44.8477 H   0  0  0  0  0  0  0  0  0  0  0  0
   57.6041   29.8931   46.4524 H   0  0  0  0  0  0  0  0  0  0  0  0
   57.0187   31.0050   43.7388 H   0  0  0  0  0  0  0  0  0  0  0  0
   56.4845   31.5354   45.3771 H   0  0  0  0  0  0  0  0  0  0  0  0
   57.9486   33.7527   43.5864 H   0  0  0  0  0  0  0  0  0  0  0  0
   56.7273   33.3912   44.8592 H   0  0  0  0  0  0  0  0  0  0  0  0
   59.5635   34.4124   45.3734 H   0  0  0  0  0  0  0  0  0  0  0  0
   58.0366   35.4175   45.3646 H   0  0  0  0  0  0  0  0  0  0  0  0
   58.7904   34.8794   47.6577 H   0  0  0  0  0  0  0  0  0  0  0  0
   57.1680   34.1772   47.2500 H   0  0  0  0  0  0  0  0  0  0  0  0
   58.2880   31.9660   46.9560 H   0  0  0  0  0  0  0  0  0  0  0  0
   60.5985   33.8388   46.0874 H   0  0  0  0  0  0  0  0  0  0  0  0
   62.9380   34.3347   45.4170 H   0  0  0  0  0  0  0  0  0  0  0  0
   64.8195   33.7725   46.9443 H   0  0  0  0  0  0  0  0  0  0  0  0
   64.3751   32.6557   49.1176 H   0  0  0  0  0  0  0  0  0  0  0  0
   62.8968   31.3178   51.8359 H   0  0  0  0  0  0  0  0  0  0  0  0
   63.1089   30.1507   50.4870 H   0  0  0  0  0  0  0  0  0  0  0  0
   64.0203   31.6986   50.4870 H   0  0  0  0  0  0  0  0  0  0  0  0
   61.2184   31.0895   52.4828 H   0  0  0  0  0  0  0  0  0  0  0  0
   58.8821   30.7659   53.2555 H   0  0  0  0  0  0  0  0  0  0  0  0
   57.4046   32.2268   49.4792 H   0  0  0  0  0  0  0  0  0  0  0  0
  1  2  1  0
  2  3  1  0
  3  4  1  0
  4  5  1  0
  3  6  1  0
  6  7  1  0
  7  8  1  0
  8  9  1  0
  9 10  1  0
 10 11  1  0
 11 12  1  0
 12 13  1  0
 13 14  2  0
 14 15  1  0
 15 16  2  0
 16 17  1  0
 17 18  2  0
 18 19  1  0
 19 20  2  0
 20 21  1  0
 20 22  1  0
 22 23  2  0
 23 24  1  0
 24 25  2  0
 25 26  1  0
 25 27  1  0
 27 28  2  0
 28 13  1  0
 19 14  1  0
 28 22  1  0
  1 29  1  0
  1 30  1  0
  1 31  1  0
  2 32  1  0
  2 33  1  0
  3 34  1  0
  4 35  1  0
  4 36  1  0
  5 37  1  0
  5 38  1  0
  5 39  1  0
  6 40  1  0
  6 41  1  0
  7 42  1  0
  7 43  1  0
  9 44  1  0
  9 45  1  0
 10 46  1  0
 10 47  1  0
 11 48  1  0
 11 49  1  0
 12 50  1  0
 15 51  1  0
 16 52  1  0
 17 53  1  0
 18 54  1  0
 21 55  1  0
 21 56  1  0
 21 57  1  0
 23 58  1  0
 24 59  1  0
 27 60  1  0
M  CHG  2   3   1  20   1
M  END
>  <UniqueID>  (9) 
9

>  <SMILES>  (9) 
CC[NH+](CC)CCOCCCNc1c2ccccc2[n+](C)c2ccc(Cl)cc12

>  <Energy>  (9) 
80.09901022900654

>  <Genealogy>  (9) 
CC[NH+](CC)CCOCCCNc1c2ccccc2[n+](C)c2ccc(Cl)cc12 (protonated)
CC[NH+](CC)CCOCCCNc1c2ccccc2[n+](C)c2ccc(Cl)cc12 (3D coordinates assigned)
CC[NH+](CC)CCOCCCNc1c2ccccc2[n+](C)c2ccc(Cl)cc12 (optimized conformer: 80.09901022900654 kcal/mol)

>  <smiles>  (9) 
CCN(CC)CCOCCCNc1c2ccccc2[n+](C)c2ccc(Cl)cc12

>  <score_type>  (9) 
oracle

>  <origin>  (9) 
adg

>  <m_score__min__energy>  (9) 
-4.4100000000000001

>  <m_primary>  (9) 
energy

$$$$
9:0
     RDKit          3D

 41 41  0  0  0  0  0  0  0  0999 V2000
   55.1740   28.2230   44.8720 H   0  0  0  0  0  0  0  0  0  0  0  0
   55.1550   29.2150   44.9280 O   0  0  0  0  0  0  0  0  0  0  0  0
   56.1710   29.6850   44.0860 C   0  0  0  0  0  0  0  0  0  0  0  0
   55.8892   29.4794   43.0428 H   0  0  0  0  0  0  0  0  0  0  0  0
   57.1018   29.1670   44.3603 H   0  0  0  0  0  0  0  0  0  0  0  0
   56.4100   31.2020   44.2460 C   0  0  0  0  0  0  0  0  0  0  0  0
   55.7467   31.5549   45.0494 H   0  0  0  0  0  0  0  0  0  0  0  0
   56.2127   31.6186   43.2472 H   0  0  0  0  0  0  0  0  0  0  0  0
   57.8070   31.6670   44.5800 N   0  0  0  0  0  0  0  0  0  0  0  0
   57.6600   32.7040   45.6640 C   0  0  0  0  0  0  0  0  0  0  0  0
   56.5874   32.8997   45.8094 H   0  0  0  0  0  0  0  0  0  0  0  0
   58.1466   32.2917   46.5602 H   0  0  0  0  0  0  0  0  0  0  0  0
   58.3460   34.0220   45.3680 C   0  0  0  0  0  0  0  0  0  0  0  0
   58.3424   34.4096   44.3386 H   0  0  0  0  0  0  0  0  0  0  0  0
   58.9570   34.7270   46.3300 C   0  0  0  0  0  0  0  0  0  0  0  0
   58.4815   35.6582   46.6718 H   0  0  0  0  0  0  0  0  0  0  0  0
   60.2370   34.3240   46.9600 C   0  0  0  0  0  0  0  0  0  0  0  0
   61.3480   33.8890   46.2070 C   0  0  0  0  0  0  0  0  0  0  0  0
   61.2848   33.8525   45.1094 H   0  0  0  0  0  0  0  0  0  0  0  0
   62.5290   33.5040   46.8490 C   0  0  0  0  0  0  0  0  0  0  0  0
   63.3927   33.1716   46.2544 H   0  0  0  0  0  0  0  0  0  0  0  0
   62.6160   33.5400   48.2430 C   0  0  0  0  0  0  0  0  0  0  0  0
   64.1000   33.0550   49.0430 Cl  0  0  0  0  0  0  0  0  0  0  0  0
   61.5160   33.9530   48.9980 C   0  0  0  0  0  0  0  0  0  0  0  0
   61.5814   33.9754   50.0958 H   0  0  0  0  0  0  0  0  0  0  0  0
   60.3320   34.3380   48.3620 C   0  0  0  0  0  0  0  0  0  0  0  0
   59.4675   34.6545   48.9641 H   0  0  0  0  0  0  0  0  0  0  0  0
   58.4340   32.3700   43.3990 C   0  0  0  0  0  0  0  0  0  0  0  0
   59.4718   32.0149   43.3159 H   0  0  0  0  0  0  0  0  0  0  0  0
   58.3225   33.4424   43.6170 H   0  0  0  0  0  0  0  0  0  0  0  0
   57.7650   32.1740   42.0210 C   0  0  0  0  0  0  0  0  0  0  0  0
   56.7181   31.8673   42.1620 H   0  0  0  0  0  0  0  0  0  0  0  0
   57.7977   33.1195   41.4597 H   0  0  0  0  0  0  0  0  0  0  0  0
   58.3027   31.3956   41.4597 H   0  0  0  0  0  0  0  0  0  0  0  0
   58.6300   30.5120   45.0830 C   0  0  0  0  0  0  0  0  0  0  0  0
   57.9644   29.6439   45.1986 H   0  0  0  0  0  0  0  0  0  0  0  0
   59.4267   30.3568   44.3406 H   0  0  0  0  0  0  0  0  0  0  0  0
   59.3390   30.7530   46.4300 C   0  0  0  0  0  0  0  0  0  0  0  0
   58.6495   30.5186   47.2544 H   0  0  0  0  0  0  0  0  0  0  0  0
   60.2258   30.1058   46.4985 H   0  0  0  0  0  0  0  0  0  0  0  0
   59.6477   31.8066   46.4985 H   0  0  0  0  0  0  0  0  0  0  0  0
  1  2  1  0
  2  3  1  0
  3  4  1  0
  3  5  1  0
  3  6  1  0
  6  7  1  0
  6  8  1  0
  6  9  1  0
  9 10  1  0
 10 11  1  0
 10 12  1  0
 10 13  1  0
 13 14  1  0
 13 15  2  0
 15 16  1  0
 15 17  1  0
 17 18  2  0
 18 19  1  0
 18 20  1  0
 20 21  1  0
 20 22  2  0
 22 23  1  0
 22 24  1  0
 24 25  1  0
 24 26  2  0
 26 27  1  0
  9 28  1  0
 28 29  1  0
 28 30  1  0
 28 31  1  0
 31 32  1  0
 31 33  1  0
 31 34  1  0
  9 35  1  0
 35 36  1  0
 35 37  1  0
 35 38  1  0
 38 39  1  0
 38 40  1  0
 38 41  1  0
 26 17  1  0
M  CHG  1   9   1
M  END
>  <UniqueID>  (10) 
10

>  <SMILES>  (10) 
CC[N+](CC)(C/C=C/c1ccc(Cl)cc1)CCO

>  <Energy>  (10) 
62.512752742185995

>  <Genealogy>  (10) 
CC[N+](CC)(C/C=C/c1ccc(Cl)cc1)CCO (cis-trans isomerization)
CC[N+](CC)(C/C=C/c1ccc(Cl)cc1)CCO (3D coordinates assigned)
CC[N+](CC)(C/C=C/c1ccc(Cl)cc1)CCO (optimized conformer: 62.512752742185995 kcal/mol)

>  <smiles>  (10) 
CC[N+](CC)(CC=Cc1ccc(Cl)cc1)CCO

>  <score_type>  (10) 
oracle

>  <origin>  (10) 
adg

>  <m_score__min__energy>  (10) 
-5.4199999999999999

>  <m_primary>  (10) 
energy

$$$$
10:0
     RDKit          3D

 31 32  0  0  0  0  0  0  0  0999 V2000
   60.3780   27.2060   46.3500 C   0  0  0  0  0  0  0  0  0  0  0  0
   59.7890   27.8060   47.3880 C   0  0  0  0  0  0  0  0  0  0  0  0
   60.1870   29.1910   47.8350 C   0  0  0  0  0  0  0  0  0  0  0  0
   60.6600   30.0110   46.7070 N   0  0  0  0  0  0  0  0  0  0  0  0
   59.5930   30.8200   46.1580 C   0  0  0  0  0  0  0  0  0  0  0  0
   58.4710   30.1990   45.5790 C   0  0  0  0  0  0  0  0  0  0  0  0
   57.4040   30.9630   45.0700 C   0  0  0  0  0  0  0  0  0  0  0  0
   56.2680   30.3750   44.4930 O   0  0  0  0  0  0  0  0  0  0  0  0
   56.2530   29.7230   43.2280 C   0  0  0  0  0  0  0  0  0  0  0  0
   57.4630   32.3580   45.1370 C   0  0  0  0  0  0  0  0  0  0  0  0
   58.5700   32.9960   45.7130 C   0  0  0  0  0  0  0  0  0  0  0  0
   58.6350   34.3940   45.7930 C   0  0  0  0  0  0  0  0  0  0  0  0
   59.7450   35.0060   46.3760 C   0  0  0  0  0  0  0  0  0  0  0  0
   60.7810   34.2160   46.8750 C   0  0  0  0  0  0  0  0  0  0  0  0
   60.7070   32.8620   46.7900 N   0  0  0  0  0  0  0  0  0  0  0  0
   59.6390   32.2300   46.2280 C   0  0  0  0  0  0  0  0  0  0  0  0
   60.0651   26.1954   46.0488 H   0  0  0  0  0  0  0  0  0  0  0  0
   61.1760   27.7225   45.7964 H   0  0  0  0  0  0  0  0  0  0  0  0
   58.9926   27.2763   47.9313 H   0  0  0  0  0  0  0  0  0  0  0  0
   59.3157   29.6824   48.2925 H   0  0  0  0  0  0  0  0  0  0  0  0
   61.0098   29.0952   48.5588 H   0  0  0  0  0  0  0  0  0  0  0  0
   61.4340   30.6320   47.0410 H   0  0  0  0  0  0  0  0  0  0  0  0
   61.0710   29.3930   45.9690 H   0  0  0  0  0  0  0  0  0  0  0  0
   58.4271   29.1013   45.5234 H   0  0  0  0  0  0  0  0  0  0  0  0
   56.2279   28.6335   43.3773 H   0  0  0  0  0  0  0  0  0  0  0  0
   55.3618   30.0365   42.6645 H   0  0  0  0  0  0  0  0  0  0  0  0
   57.1576   29.9951   42.6645 H   0  0  0  0  0  0  0  0  0  0  0  0
   56.6345   32.9594   44.7347 H   0  0  0  0  0  0  0  0  0  0  0  0
   57.8123   35.0074   45.3968 H   0  0  0  0  0  0  0  0  0  0  0  0
   59.8028   36.1025   46.4417 H   0  0  0  0  0  0  0  0  0  0  0  0
   61.6591   34.6900   47.3379 H   0  0  0  0  0  0  0  0  0  0  0  0
  1  2  2  0
  2  3  1  0
  3  4  1  0
  4  5  1  0
  5  6  2  0
  6  7  1  0
  7  8  1  0
  8  9  1  0
  7 10  2  0
 10 11  1  0
 11 12  2  0
 12 13  1  0
 13 14  2  0
 14 15  1  0
 15 16  2  0
 16  5  1  0
 16 11  1  0
  1 17  1  0
  1 18  1  0
  2 19  1  0
  3 20  1  0
  3 21  1  0
  4 22  1  0
  4 23  1  0
  6 24  1  0
  9 25  1  0
  9 26  1  0
  9 27  1  0
 10 28  1  0
 12 29  1  0
 13 30  1  0
 14 31  1  0
M  CHG  1   4   1
M  END
>  <UniqueID>  (11) 
11

>  <SMILES>  (11) 
C=CC[NH2+]c1cc(OC)cc2cccnc12

>  <Energy>  (11) 
33.27380592100006

>  <Genealogy>  (11) 
C=CC[NH2+]c1cc(OC)cc2cccnc12 (protonated)
C=CC[NH2+]c1cc(OC)cc2cccnc12 (3D coordinates assigned)
C=CC[NH2+]c1cc(OC)cc2cccnc12 (optimized conformer: 33.27380592100006 kcal/mol)

>  <smiles>  (11) 
C=CCNc1cc(OC)cc2cccnc12

>  <score_type>  (11) 
oracle

>  <origin>  (11) 
adg

>  <m_score__min__energy>  (11) 
-3.9500000000000002

>  <m_primary>  (11) 
energy

$$$$
11:0
     RDKit          3D

 34 36  0  0  0  0  0  0  0  0999 V2000
   58.1360   32.6900   42.4210 C   0  0  0  0  0  0  0  0  0  0  0  0
   58.1120   32.5600   43.8770 N   0  0  0  0  0  0  0  0  0  0  0  0
   57.5800   31.5420   44.6170 C   0  0  0  0  0  0  0  0  0  0  0  0
   56.8690   30.3480   44.0480 C   0  0  0  0  0  0  0  0  0  0  0  0
   56.3530   29.4800   45.1170 N   0  0  0  0  0  0  0  0  0  0  0  0
   57.2620   28.3540   45.4190 C   0  0  0  0  0  0  0  0  0  0  0  0
   58.2850   28.1580   44.3050 C   0  0  0  0  0  0  0  0  0  0  0  0
   59.4790   27.4970   44.9680 C   0  0  0  0  0  0  0  0  0  0  0  0
   59.4560   27.9440   46.4260 C   0  0  0  0  0  0  0  0  0  0  0  0
   58.1100   28.6250   46.6630 C   0  0  0  0  0  0  0  0  0  0  0  0
   57.7720   31.7600   45.9890 C   0  0  0  0  0  0  0  0  0  0  0  0
   58.4440   32.9540   46.0310 C   0  0  0  0  0  0  0  0  0  0  0  0
   59.0910   34.0060   47.1600 S   0  0  0  0  0  0  0  0  0  0  0  0
   59.6430   35.0920   45.9560 C   0  0  0  0  0  0  0  0  0  0  0  0
   59.3110   34.6130   44.6790 C   0  0  0  0  0  0  0  0  0  0  0  0
   58.6340   33.4030   44.7840 C   0  0  0  0  0  0  0  0  0  0  0  0
   58.3296   33.7383   42.1496 H   0  0  0  0  0  0  0  0  0  0  0  0
   58.9315   32.0517   42.0089 H   0  0  0  0  0  0  0  0  0  0  0  0
   57.1650   32.3778   42.0089 H   0  0  0  0  0  0  0  0  0  0  0  0
   56.0284   30.6924   43.4277 H   0  0  0  0  0  0  0  0  0  0  0  0
   57.5843   29.7706   43.4438 H   0  0  0  0  0  0  0  0  0  0  0  0
   56.2860   30.0780   45.9740 H   0  0  0  0  0  0  0  0  0  0  0  0
   56.6050   27.4815   45.5498 H   0  0  0  0  0  0  0  0  0  0  0  0
   57.8755   27.5105   43.5157 H   0  0  0  0  0  0  0  0  0  0  0  0
   58.5573   29.1104   43.8267 H   0  0  0  0  0  0  0  0  0  0  0  0
   59.3938   26.4022   44.9032 H   0  0  0  0  0  0  0  0  0  0  0  0
   60.4204   27.7823   44.4756 H   0  0  0  0  0  0  0  0  0  0  0  0
   59.5608   27.0732   47.0898 H   0  0  0  0  0  0  0  0  0  0  0  0
   60.2871   28.6325   46.6387 H   0  0  0  0  0  0  0  0  0  0  0  0
   57.6225   28.2036   47.5545 H   0  0  0  0  0  0  0  0  0  0  0  0
   58.2345   29.7047   46.8325 H   0  0  0  0  0  0  0  0  0  0  0  0
   57.4583   31.1247   46.8304 H   0  0  0  0  0  0  0  0  0  0  0  0
   60.1808   36.0307   46.1550 H   0  0  0  0  0  0  0  0  0  0  0  0
   59.5513   35.1207   43.7333 H   0  0  0  0  0  0  0  0  0  0  0  0
  1  2  1  0
  2  3  1  0
  3  4  1  0
  4  5  1  0
  5  6  1  0
  6  7  1  0
  7  8  1  0
  8  9  1  0
  9 10  1  0
  3 11  2  0
 11 12  1  0
 12 13  1  0
 13 14  1  0
 14 15  2  0
 15 16  1  0
 16  2  1  0
 10  6  1  0
 16 12  2  0
  1 17  1  0
  1 18  1  0
  1 19  1  0
  4 20  1  0
  4 21  1  0
  5 22  1  0
  6 23  1  0
  7 24  1  0
  7 25  1  0
  8 26  1  0
  8 27  1  0
  9 28  1  0
  9 29  1  0
 10 30  1  0
 10 31  1  0
 11 32  1  0
 14 33  1  0
 15 34  1  0
M  END
>  <UniqueID>  (12) 
12

>  <SMILES>  (12) 
Cn1c(CNC2CCCC2)cc2sccc21

>  <Energy>  (12) 
107.79247949615844

>  <Genealogy>  (12) 
Cn1c(CNC2CCCC2)cc2sccc21 (3D coordinates assigned)
Cn1c(CNC2CCCC2)cc2sccc21 (nonaromatic ring conformer: 107.79247949615844 kcal/mol)

>  <smiles>  (12) 
Cn1c(CNC2CCCC2)cc2sccc21

>  <score_type>  (12) 
oracle

>  <origin>  (12) 
adg

>  <m_score__min__energy>  (12) 
-6.5300000000000002

>  <m_primary>  (12) 
energy

$$$$
12:0
     RDKit          3D

 91 93  0  0  0  0  0  0  0  0999 V2000
   57.2100   25.6620   46.3050 C   0  0  0  0  0  0  0  0  0  0  0  0
   58.2690   26.3530   47.1590 C   0  0  0  0  0  0  0  0  0  0  0  0
   59.6480   26.3070   46.4810 C   0  0  0  0  0  0  0  0  0  0  0  0
   60.4030   27.6470   46.6090 C   0  0  0  0  0  0  0  0  0  0  0  0
   60.7600   28.2870   45.2550 C   0  0  0  0  0  0  0  0  0  0  0  0
   59.6560   29.2140   44.7270 C   0  0  0  0  0  0  0  0  0  0  0  0
   58.4870   28.3990   44.1510 C   0  0  0  0  0  0  0  0  0  0  0  0
   57.1340   28.7400   44.8040 C   0  0  0  0  0  0  0  0  0  0  0  0
   56.3330   29.8620   44.1130 C   0  0  0  0  0  0  0  0  0  0  0  0
   57.1130   31.1760   43.9890 C   0  0  0  0  0  0  0  0  0  0  0  0
   57.3250   31.7240   45.2900 O   0  0  0  0  0  0  0  0  0  0  0  0
   58.1100   32.8510   45.5690 C   0  0  0  0  0  0  0  0  0  0  0  0
   58.3050   33.8530   44.6000 C   0  0  0  0  0  0  0  0  0  0  0  0
   59.1030   34.9620   44.8800 C   0  0  0  0  0  0  0  0  0  0  0  0
   59.7090   35.0880   46.1280 C   0  0  0  0  0  0  0  0  0  0  0  0
   59.5240   34.1030   47.1000 C   0  0  0  0  0  0  0  0  0  0  0  0
   58.7430   32.9590   46.8290 C   0  0  0  0  0  0  0  0  0  0  0  0
   58.4350   31.9160   47.8960 C   0  0  0  0  0  0  0  0  0  0  0  0
   59.1250   30.5470   47.7370 C   0  0  0  0  0  0  0  0  0  0  0  0
   58.9090   29.6150   48.9430 C   0  0  0  0  0  0  0  0  0  0  0  0
   59.4680   30.2240   50.1560 N   0  0  0  0  0  0  0  0  0  0  0  0
   58.4460   30.9660   50.9060 C   0  0  0  0  0  0  0  0  0  0  0  0
   58.9430   32.3950   51.1480 C   0  0  0  0  0  0  0  0  0  0  0  0
   59.9620   32.4980   52.2990 C   0  0  0  0  0  0  0  0  0  0  0  0
   61.3870   32.0070   51.9520 C   0  0  0  0  0  0  0  0  0  0  0  0
   61.5460   30.5430   52.0460 N   0  0  0  0  0  0  0  0  0  0  0  0
   62.5100   30.0090   51.0690 C   0  0  0  0  0  0  0  0  0  0  0  0
   63.4680   31.1070   50.6090 C   0  0  0  0  0  0  0  0  0  0  0  0
   63.2610   31.7680   49.3600 C   0  0  0  0  0  0  0  0  0  0  0  0
   62.1900   31.4550   48.4880 C   0  0  0  0  0  0  0  0  0  0  0  0
   62.0350   32.1300   47.2740 C   0  0  0  0  0  0  0  0  0  0  0  0
   62.9380   33.1220   46.9000 C   0  0  0  0  0  0  0  0  0  0  0  0
   64.0060   33.4420   47.7360 C   0  0  0  0  0  0  0  0  0  0  0  0
   64.1750   32.7730   48.9590 C   0  0  0  0  0  0  0  0  0  0  0  0
   65.2550   33.0930   49.7770 C   0  0  0  0  0  0  0  0  0  0  0  0
   65.4460   32.4050   50.9670 C   0  0  0  0  0  0  0  0  0  0  0  0
   64.5860   31.4180   51.3630 N   0  0  0  0  0  0  0  0  0  0  0  0
   64.8880   30.7260   52.6270 C   0  0  0  0  0  0  0  0  0  0  0  0
   56.4694   25.1788   46.9592 H   0  0  0  0  0  0  0  0  0  0  0  0
   56.7078   26.4067   45.6701 H   0  0  0  0  0  0  0  0  0  0  0  0
   57.6894   24.9024   45.6701 H   0  0  0  0  0  0  0  0  0  0  0  0
   57.9786   27.4031   47.3103 H   0  0  0  0  0  0  0  0  0  0  0  0
   58.3371   25.8264   48.1223 H   0  0  0  0  0  0  0  0  0  0  0  0
   60.2487   25.5151   46.9522 H   0  0  0  0  0  0  0  0  0  0  0  0
   59.4926   26.1067   45.4106 H   0  0  0  0  0  0  0  0  0  0  0  0
   59.7698   28.3504   47.1696 H   0  0  0  0  0  0  0  0  0  0  0  0
   61.3512   27.4342   47.1244 H   0  0  0  0  0  0  0  0  0  0  0  0
   61.6833   28.8727   45.3754 H   0  0  0  0  0  0  0  0  0  0  0  0
   60.8862   27.4728   44.5262 H   0  0  0  0  0  0  0  0  0  0  0  0
   59.2865   29.8408   45.5520 H   0  0  0  0  0  0  0  0  0  0  0  0
   60.0757   29.8416   43.9271 H   0  0  0  0  0  0  0  0  0  0  0  0
   58.4164   28.6022   43.0722 H   0  0  0  0  0  0  0  0  0  0  0  0
   58.6931   27.3383   44.3573 H   0  0  0  0  0  0  0  0  0  0  0  0
   56.5162   27.8299   44.8009 H   0  0  0  0  0  0  0  0  0  0  0  0
   57.3680   29.1104   45.8130 H   0  0  0  0  0  0  0  0  0  0  0  0
   56.0571   29.5232   43.1035 H   0  0  0  0  0  0  0  0  0  0  0  0
   55.4507   30.0646   44.7378 H   0  0  0  0  0  0  0  0  0  0  0  0
   58.0838   30.9831   43.5090 H   0  0  0  0  0  0  0  0  0  0  0  0
   56.5392   31.8886   43.3783 H   0  0  0  0  0  0  0  0  0  0  0  0
   57.8246   33.7608   43.6148 H   0  0  0  0  0  0  0  0  0  0  0  0
   59.2540   35.7377   44.1149 H   0  0  0  0  0  0  0  0  0  0  0  0
   60.3347   35.9655   46.3481 H   0  0  0  0  0  0  0  0  0  0  0  0
   59.9923   34.2199   48.0884 H   0  0  0  0  0  0  0  0  0  0  0  0
   58.7380   32.3324   48.8680 H   0  0  0  0  0  0  0  0  0  0  0  0
   57.3580   31.7125   47.8027 H   0  0  0  0  0  0  0  0  0  0  0  0
   58.7232   30.0553   46.8388 H   0  0  0  0  0  0  0  0  0  0  0  0
   60.2062   30.7333   47.6575 H   0  0  0  0  0  0  0  0  0  0  0  0
   57.8313   29.4459   49.0840 H   0  0  0  0  0  0  0  0  0  0  0  0
   59.4159   28.6572   48.7539 H   0  0  0  0  0  0  0  0  0  0  0  0
   60.2140   30.9010   49.8690 H   0  0  0  0  0  0  0  0  0  0  0  0
   57.5113   30.9939   50.3267 H   0  0  0  0  0  0  0  0  0  0  0  0
   58.2592   30.4696   51.8697 H   0  0  0  0  0  0  0  0  0  0  0  0
   59.4193   32.7600   50.2261 H   0  0  0  0  0  0  0  0  0  0  0  0
   58.0694   33.0008   51.4305 H   0  0  0  0  0  0  0  0  0  0  0  0
   60.0286   33.5530   52.6032 H   0  0  0  0  0  0  0  0  0  0  0  0
   59.5936   31.8374   53.0977 H   0  0  0  0  0  0  0  0  0  0  0  0
   61.6207   32.3169   50.9228 H   0  0  0  0  0  0  0  0  0  0  0  0
   62.0708   32.4540   52.6887 H   0  0  0  0  0  0  0  0  0  0  0  0
   61.8230   30.2620   53.0120 H   0  0  0  0  0  0  0  0  0  0  0  0
   60.6140   30.1090   51.8560 H   0  0  0  0  0  0  0  0  0  0  0  0
   63.0870   29.1972   51.5360 H   0  0  0  0  0  0  0  0  0  0  0  0
   61.9590   29.6285   50.1963 H   0  0  0  0  0  0  0  0  0  0  0  0
   61.4714   30.6712   48.7695 H   0  0  0  0  0  0  0  0  0  0  0  0
   61.1952   31.8763   46.6104 H   0  0  0  0  0  0  0  0  0  0  0  0
   62.8083   33.6527   45.9452 H   0  0  0  0  0  0  0  0  0  0  0  0
   64.7205   34.2228   47.4363 H   0  0  0  0  0  0  0  0  0  0  0  0
   65.9547   33.8886   49.4811 H   0  0  0  0  0  0  0  0  0  0  0  0
   66.3060   32.6585   51.6043 H   0  0  0  0  0  0  0  0  0  0  0  0
   64.6071   31.3697   53.4736 H   0  0  0  0  0  0  0  0  0  0  0  0
   64.3181   29.7864   52.6759 H   0  0  0  0  0  0  0  0  0  0  0  0
   65.9644   30.5049   52.6759 H   0  0  0  0  0  0  0  0  0  0  0  0
  1  2  1  0
  2  3  1  0
  3  4  1  0
  4  5  1  0
  5  6  1  0
  6  7  1  0
  7  8  1  0
  8  9  1  0
  9 10  1  0
 10 11  1  0
 11 12  1  0
 12 13  2  0
 13 14  1  0
 14 15  2  0
 15 16  1  0
 16 17  2  0
 17 18  1  0
 18 19  1  0
 19 20  1  0
 20 21  1  0
 21 22  1  0
 22 23  1  0
 23 24  1  0
 24 25  1  0
 25 26  1  0
 26 27  1  0
 27 28  1  0
 28 29  1  0
 29 30  2  0
 30 31  1  0
 31 32  2  0
 32 33  1  0
 33 34  2  0
 34 35  1  0
 35 36  2  0
 36 37  1  0
 37 38  1  0
 17 12  1  0
 37 28  2  0
 34 29  1  0
  1 39  1  0
  1 40  1  0
  1 41  1  0
  2 42  1  0
  2 43  1  0
  3 44  1  0
  3 45  1  0
  4 46  1  0
  4 47  1  0
  5 48  1  0
  5 49  1  0
  6 50  1  0
  6 51  1  0
  7 52  1  0
  7 53  1  0
  8 54  1  0
  8 55  1  0
  9 56  1  0
  9 57  1  0
 10 58  1  0
 10 59  1  0
 13 60  1  0
 14 61  1  0
 15 62  1  0
 16 63  1  0
 18 64  1  0
 18 65  1  0
 19 66  1  0
 19 67  1  0
 20 68  1  0
 20 69  1  0
 21 70  1  0
 22 71  1  0
 22 72  1  0
 23 73  1  0
 23 74  1  0
 24 75  1  0
 24 76  1  0
 25 77  1  0
 25 78  1  0
 26 79  1  0
 26 80  1  0
 27 81  1  0
 27 82  1  0
 30 83  1  0
 31 84  1  0
 32 85  1  0
 33 86  1  0
 35 87  1  0
 36 88  1  0
 38 89  1  0
 38 90  1  0
 38 91  1  0
M  CHG  2  26   1  37   1
M  END
>  <UniqueID>  (13) 
13

>  <SMILES>  (13) 
CCCCCCCCCCOc1ccccc1CCCNCCCC[NH2+]Cc1c2ccccc2cc[n+]1C

>  <Energy>  (13) 
81.63127627166105

>  <Genealogy>  (13) 
CCCCCCCCCCOc1ccccc1CCCNCCCC[NH2+]Cc1c2ccccc2cc[n+]1C (protonated)
CCCCCCCCCCOc1ccccc1CCCNCCCC[NH2+]Cc1c2ccccc2cc[n+]1C (3D coordinates assigned)
CCCCCCCCCCOc1ccccc1CCCNCCCC[NH2+]Cc1c2ccccc2cc[n+]1C (optimized conformer: 81.63127627166105 kcal/mol)

>  <smiles>  (13) 
CCCCCCCCCCOc1ccccc1CCCNCCCCNCc1c2ccccc2cc[n+]1C

>  <score_type>  (13) 
oracle

>  <origin>  (13) 
adg

>  <m_score__min__energy>  (13) 
-5.5

>  <m_primary>  (13) 
energy

$$$$
13:0
     RDKit          3D

 53 55  0  0  0  0  0  0  0  0999 V2000
   63.3150   33.8650   46.4680 C   0  0  0  0  0  0  0  0  0  0  0  0
   63.6880   32.5590   47.1650 C   0  0  0  0  0  0  0  0  0  0  0  0
   63.3570   32.5820   48.6090 N   0  0  0  0  0  0  0  0  0  0  0  0
   62.8320   33.9170   48.9530 C   0  0  0  0  0  0  0  0  0  0  0  0
   62.3740   31.5340   48.9860 C   0  0  0  0  0  0  0  0  0  0  0  0
   61.7640   30.8530   47.7510 C   0  0  0  0  0  0  0  0  0  0  0  0
   60.2970   30.8280   47.7900 N   0  0  0  0  0  0  0  0  0  0  0  0
   59.4790   31.2420   46.6790 C   0  0  0  0  0  0  0  0  0  0  0  0
   59.4200   32.5990   46.3160 C   0  0  0  0  0  0  0  0  0  0  0  0
   60.0360   33.5920   47.1090 C   0  0  0  0  0  0  0  0  0  0  0  0
   59.9600   34.9370   46.7520 C   0  0  0  0  0  0  0  0  0  0  0  0
   59.2590   35.3160   45.6140 C   0  0  0  0  0  0  0  0  0  0  0  0
   58.6520   34.3520   44.8090 C   0  0  0  0  0  0  0  0  0  0  0  0
   58.7440   32.9730   45.1240 C   0  0  0  0  0  0  0  0  0  0  0  0
   58.1930   32.0030   44.3080 N   0  0  0  0  0  0  0  0  0  0  0  0
   57.7690   32.3450   42.9310 C   0  0  0  0  0  0  0  0  0  0  0  0
   58.0450   30.7120   44.7770 C   0  0  0  0  0  0  0  0  0  0  0  0
   57.2180   29.7700   44.1160 C   0  0  0  0  0  0  0  0  0  0  0  0
   57.0760   28.4700   44.5990 C   0  0  0  0  0  0  0  0  0  0  0  0
   57.7340   28.0680   45.7610 C   0  0  0  0  0  0  0  0  0  0  0  0
   57.5310   26.7350   46.2610 N   0  0  0  0  0  0  0  0  0  0  0  0
   56.2670   26.0560   46.2470 C   0  0  0  0  0  0  0  0  0  0  0  0
   56.1960   24.6090   46.6160 C   0  0  0  0  0  0  0  0  0  0  0  0
   55.2010   26.6840   46.0050 O   0  0  0  0  0  0  0  0  0  0  0  0
   58.5110   29.0010   46.4630 C   0  0  0  0  0  0  0  0  0  0  0  0
   58.6980   30.3090   45.9720 C   0  0  0  0  0  0  0  0  0  0  0  0
   63.0954   34.6340   47.2233 H   0  0  0  0  0  0  0  0  0  0  0  0
   64.1540   34.1977   45.8392 H   0  0  0  0  0  0  0  0  0  0  0  0
   62.4268   33.7044   45.8392 H   0  0  0  0  0  0  0  0  0  0  0  0
   63.1387   31.7336   46.6886 H   0  0  0  0  0  0  0  0  0  0  0  0
   64.7754   32.4234   47.0695 H   0  0  0  0  0  0  0  0  0  0  0  0
   62.7900   34.0238   50.0470 H   0  0  0  0  0  0  0  0  0  0  0  0
   63.4931   34.6901   48.5343 H   0  0  0  0  0  0  0  0  0  0  0  0
   61.8214   34.0327   48.5343 H   0  0  0  0  0  0  0  0  0  0  0  0
   62.8813   30.7735   49.5978 H   0  0  0  0  0  0  0  0  0  0  0  0
   61.5600   32.0151   49.5482 H   0  0  0  0  0  0  0  0  0  0  0  0
   62.0837   31.4007   46.8522 H   0  0  0  0  0  0  0  0  0  0  0  0
   62.1157   29.8109   47.7361 H   0  0  0  0  0  0  0  0  0  0  0  0
   59.8320   30.5780   48.6920 H   0  0  0  0  0  0  0  0  0  0  0  0
   60.5818   33.3006   48.0185 H   0  0  0  0  0  0  0  0  0  0  0  0
   60.4554   35.6990   47.3717 H   0  0  0  0  0  0  0  0  0  0  0  0
   59.1823   36.3803   45.3468 H   0  0  0  0  0  0  0  0  0  0  0  0
   58.0930   34.6669   43.9155 H   0  0  0  0  0  0  0  0  0  0  0  0
   56.9134   33.0351   42.9716 H   0  0  0  0  0  0  0  0  0  0  0  0
   58.6032   32.8260   42.3993 H   0  0  0  0  0  0  0  0  0  0  0  0
   57.4754   31.4279   42.3993 H   0  0  0  0  0  0  0  0  0  0  0  0
   56.6785   30.0699   43.2055 H   0  0  0  0  0  0  0  0  0  0  0  0
   56.4389   27.7545   44.0584 H   0  0  0  0  0  0  0  0  0  0  0  0
   58.3310   26.2620   46.7430 H   0  0  0  0  0  0  0  0  0  0  0  0
   56.1911   24.5098   47.7115 H   0  0  0  0  0  0  0  0  0  0  0  0
   55.2752   24.1703   46.2040 H   0  0  0  0  0  0  0  0  0  0  0  0
   57.0694   24.0823   46.2040 H   0  0  0  0  0  0  0  0  0  0  0  0
   58.9823   28.7072   47.4125 H   0  0  0  0  0  0  0  0  0  0  0  0
  1  2  1  0
  2  3  1  0
  3  4  1  0
  3  5  1  0
  5  6  1  0
  6  7  1  0
  7  8  1  0
  8  9  2  0
  9 10  1  0
 10 11  2  0
 11 12  1  0
 12 13  2  0
 13 14  1  0
 14 15  2  0
 15 16  1  0
 15 17  1  0
 17 18  2  0
 18 19  1  0
 19 20  2  0
 20 21  1  0
 21 22  1  0
 22 23  1  0
 22 24  2  0
 20 25  1  0
 25 26  2  0
 26  8  1  0
 14  9  1  0
 26 17  1  0
  1 27  1  0
  1 28  1  0
  1 29  1  0
  2 30  1  0
  2 31  1  0
  4 32  1  0
  4 33  1  0
  4 34  1  0
  5 35  1  0
  5 36  1  0
  6 37  1  0
  6 38  1  0
  7 39  1  0
 10 40  1  0
 11 41  1  0
 12 42  1  0
 13 43  1  0
 16 44  1  0
 16 45  1  0
 16 46  1  0
 18 47  1  0
 19 48  1  0
 21 49  1  0
 23 50  1  0
 23 51  1  0
 23 52  1  0
 25 53  1  0
M  CHG  1  15   1
M  END
>  <UniqueID>  (14) 
14

>  <SMILES>  (14) 
CCN(C)CCNc1c2ccccc2[n+](C)c2ccc(NC(C)=O)cc12

>  <Energy>  (14) 
80.65124425210051

>  <Genealogy>  (14) 
CCN(C)CCNc1c2ccccc2[n+](C)c2ccc(NC(C)=O)cc12 (3D coordinates assigned)
CCN(C)CCNc1c2ccccc2[n+](C)c2ccc(NC(C)=O)cc12 (optimized conformer: 80.65124425210051 kcal/mol)

>  <smiles>  (14) 
CCN(C)CCNc1c2ccccc2[n+](C)c2ccc(NC(C)=O)cc12

>  <score_type>  (14) 
oracle

>  <origin>  (14) 
adg

>  <m_score__min__energy>  (14) 
-6.9699999999999998

>  <m_primary>  (14) 
energy

$$$$
14:0
     RDKit          3D

 51 54  0  0  0  0  0  0  0  0999 V2000
   59.0660   31.1440   50.4830 C   0  0  0  0  0  0  0  0  0  0  0  0
   59.0790   29.8390   49.6740 C   0  0  0  0  0  0  0  0  0  0  0  0
   60.1750   28.9050   50.0360 N   0  0  2  0  0  0  0  0  0  0  0  0
   61.3030   29.6140   50.6720 C   0  0  0  0  0  0  0  0  0  0  0  0
   60.6170   28.0950   48.8710 C   0  0  0  0  0  0  0  0  0  0  0  0
   59.7890   28.3650   47.6000 C   0  0  0  0  0  0  0  0  0  0  0  0
   60.3960   29.4180   46.7840 N   0  0  0  0  0  0  0  0  0  0  0  0
   59.6120   30.5190   46.3020 C   0  0  0  0  0  0  0  0  0  0  0  0
   58.6010   30.3400   45.3280 C   0  0  0  0  0  0  0  0  0  0  0  0
   58.3930   29.0840   44.7250 C   0  0  0  0  0  0  0  0  0  0  0  0
   57.4090   28.9130   43.7540 C   0  0  0  0  0  0  0  0  0  0  0  0
   56.6220   29.9890   43.3580 C   0  0  0  0  0  0  0  0  0  0  0  0
   56.8010   31.2440   43.9390 C   0  0  0  0  0  0  0  0  0  0  0  0
   57.7710   31.4510   44.9500 C   0  0  0  0  0  0  0  0  0  0  0  0
   57.9350   32.6880   45.5580 N   0  0  0  0  0  0  0  0  0  0  0  0
   57.0260   33.8140   45.2700 C   0  0  0  0  0  0  0  0  0  0  0  0
   58.9830   32.8520   46.4250 C   0  0  0  0  0  0  0  0  0  0  0  0
   59.3830   34.0160   46.9960 N   0  0  0  0  0  0  0  0  0  0  0  0
   60.4710   33.6960   47.7240 C   0  0  0  0  0  0  0  0  0  0  0  0
   61.2660   34.5700   48.4640 C   0  0  0  0  0  0  0  0  0  0  0  0
   62.3990   34.0460   49.1100 C   0  0  0  0  0  0  0  0  0  0  0  0
   62.7230   32.6770   48.9910 C   0  0  0  0  0  0  0  0  0  0  0  0
   64.2850   31.9920   49.8510 Br  0  0  0  0  0  0  0  0  0  0  0  0
   61.9110   31.8160   48.2310 C   0  0  0  0  0  0  0  0  0  0  0  0
   60.7720   32.3530   47.6240 C   0  0  0  0  0  0  0  0  0  0  0  0
   59.8070   31.8070   46.7940 C   0  0  0  0  0  0  0  0  0  0  0  0
   59.0683   30.9092   51.5577 H   0  0  0  0  0  0  0  0  0  0  0  0
   59.9583   31.7378   50.2355 H   0  0  0  0  0  0  0  0  0  0  0  0
   58.1621   31.7199   50.2355 H   0  0  0  0  0  0  0  0  0  0  0  0
   58.1205   29.3242   49.8358 H   0  0  0  0  0  0  0  0  0  0  0  0
   59.2412   30.1220   48.6235 H   0  0  0  0  0  0  0  0  0  0  0  0
   59.7760   28.2630   50.7610 H   0  0  0  0  0  0  0  0  0  0  0  0
   61.2049   29.5523   51.7659 H   0  0  0  0  0  0  0  0  0  0  0  0
   62.2502   29.1486   50.3620 H   0  0  0  0  0  0  0  0  0  0  0  0
   61.2943   30.6694   50.3620 H   0  0  0  0  0  0  0  0  0  0  0  0
   61.6704   28.3310   48.6596 H   0  0  0  0  0  0  0  0  0  0  0  0
   60.4779   27.0363   49.1351 H   0  0  0  0  0  0  0  0  0  0  0  0
   59.7311   27.4404   47.0068 H   0  0  0  0  0  0  0  0  0  0  0  0
   58.7848   28.6960   47.9034 H   0  0  0  0  0  0  0  0  0  0  0  0
   61.3350   29.2430   46.3600 H   0  0  0  0  0  0  0  0  0  0  0  0
   59.0152   28.2278   45.0246 H   0  0  0  0  0  0  0  0  0  0  0  0
   57.2539   27.9236   43.2990 H   0  0  0  0  0  0  0  0  0  0  0  0
   55.8544   29.8494   42.5825 H   0  0  0  0  0  0  0  0  0  0  0  0
   56.1782   32.0875   43.6064 H   0  0  0  0  0  0  0  0  0  0  0  0
   56.6730   34.2513   46.2156 H   0  0  0  0  0  0  0  0  0  0  0  0
   57.5625   34.5792   44.6899 H   0  0  0  0  0  0  0  0  0  0  0  0
   56.1648   33.4509   44.6899 H   0  0  0  0  0  0  0  0  0  0  0  0
   58.9960   34.9770   46.8750 H   0  0  0  0  0  0  0  0  0  0  0  0
   61.0141   35.6381   48.5401 H   0  0  0  0  0  0  0  0  0  0  0  0
   63.0382   34.7077   49.7130 H   0  0  0  0  0  0  0  0  0  0  0  0
   62.1647   30.7517   48.1176 H   0  0  0  0  0  0  0  0  0  0  0  0
  1  2  1  0
  2  3  1  0
  3  4  1  0
  3  5  1  0
  5  6  1  0
  6  7  1  0
  7  8  1  0
  8  9  2  0
  9 10  1  0
 10 11  2  0
 11 12  1  0
 12 13  2  0
 13 14  1  0
 14 15  2  0
 15 16  1  0
 15 17  1  0
 17 18  1  0
 18 19  1  0
 19 20  2  0
 20 21  1  0
 21 22  2  0
 22 23  1  0
 22 24  1  0
 24 25  2  0
 25 26  1  0
 26  8  1  0
 14  9  1  0
 26 17  2  0
 25 19  1  0
  1 27  1  0
  1 28  1  0
  1 29  1  0
  2 30  1  0
  2 31  1  0
  3 32  1  1
  4 33  1  0
  4 34  1  0
  4 35  1  0
  5 36  1  0
  5 37  1  0
  6 38  1  0
  6 39  1  0
  7 40  1  0
 10 41  1  0
 11 42  1  0
 12 43  1  0
 13 44  1  0
 16 45  1  0
 16 46  1  0
 16 47  1  0
 18 48  1  0
 20 49  1  0
 21 50  1  0
 24 51  1  0
M  CHG  2   3   1  15   1
M  END
>  <UniqueID>  (15) 
15

>  <SMILES>  (15) 
CC[N@H+](C)CCNc1c2ccccc2[n+](C)c2[nH]c3ccc(Br)cc3c12

>  <Energy>  (15) 
112.11941913939691

>  <Genealogy>  (15) 
CC[NH+](C)CCNc1c2ccccc2[n+](C)c2[nH]c3ccc(Br)cc3c12 (protonated)
CC[N@H+](C)CCNc1c2ccccc2[n+](C)c2[nH]c3ccc(Br)cc3c12 (chirality)
CC[N@H+](C)CCNc1c2ccccc2[n+](C)c2[nH]c3ccc(Br)cc3c12 (3D coordinates assigned)
CC[N@H+](C)CCNc1c2ccccc2[n+](C)c2[nH]c3ccc(Br)cc3c12 (optimized conformer: 112.11941913939691 kcal/mol)

>  <smiles>  (15) 
CCN(C)CCNc1c2ccccc2[n+](C)c2[nH]c3ccc(Br)cc3c12

>  <score_type>  (15) 
oracle

>  <origin>  (15) 
adg

>  <m_score__min__energy>  (15) 
-4.8200000000000003

>  <m_primary>  (15) 
energy

$$$$
15:0
     RDKit          3D

 63 65  0  0  0  0  0  0  0  0999 V2000
   63.3850   34.1980   47.9780 C   0  0  0  0  0  0  0  0  0  0  0  0
   63.4170   33.3070   46.7420 C   0  0  0  0  0  0  0  0  0  0  0  0
   63.5590   31.9010   47.1440 N   0  0  0  0  0  0  0  0  0  0  0  0
   63.5520   31.7480   48.6050 C   0  0  0  0  0  0  0  0  0  0  0  0
   62.1400   31.4760   49.1460 C   0  0  0  0  0  0  0  0  0  0  0  0
   61.3520   30.5050   48.2450 C   0  0  0  0  0  0  0  0  0  0  0  0
   61.1730   31.0280   46.8780 N   0  0  0  0  0  0  0  0  0  0  0  0
   59.8030   30.8350   46.4060 C   0  0  0  0  0  0  0  0  0  0  0  0
   59.4240   29.5980   45.8340 C   0  0  0  0  0  0  0  0  0  0  0  0
   59.9480   28.3710   46.3000 C   0  0  0  0  0  0  0  0  0  0  0  0
   59.5530   27.1640   45.7260 C   0  0  0  0  0  0  0  0  0  0  0  0
   58.6200   27.1530   44.6960 C   0  0  0  0  0  0  0  0  0  0  0  0
   58.0800   28.3490   44.2280 C   0  0  0  0  0  0  0  0  0  0  0  0
   58.4830   29.5930   44.7710 C   0  0  0  0  0  0  0  0  0  0  0  0
   57.9940   30.7860   44.2840 N   0  0  0  0  0  0  0  0  0  0  0  0
   57.3710   30.8360   42.9440 C   0  0  0  0  0  0  0  0  0  0  0  0
   58.0920   31.9280   45.0560 C   0  0  0  0  0  0  0  0  0  0  0  0
   57.3530   33.0910   44.7430 C   0  0  0  0  0  0  0  0  0  0  0  0
   57.4320   34.2270   45.5370 C   0  0  0  0  0  0  0  0  0  0  0  0
   58.1820   34.2150   46.7020 C   0  0  0  0  0  0  0  0  0  0  0  0
   58.9130   33.0750   47.0770 C   0  0  0  0  0  0  0  0  0  0  0  0
   59.4290   32.9820   48.4210 N   0  0  0  0  0  0  0  0  0  0  0  0
   59.8220   34.1250   49.2530 C   0  0  0  0  0  0  0  0  0  0  0  0
   59.6820   33.8250   50.7550 C   0  0  0  0  0  0  0  0  0  0  0  0
   59.2480   32.4330   51.0070 N   0  0  0  0  0  0  0  0  0  0  0  0
   57.8330   32.3780   51.4140 C   0  0  0  0  0  0  0  0  0  0  0  0
   60.0830   31.8390   52.0650 C   0  0  0  0  0  0  0  0  0  0  0  0
   58.9420   31.9470   46.2020 C   0  0  0  0  0  0  0  0  0  0  0  0
   63.4075   33.5718   48.8821 H   0  0  0  0  0  0  0  0  0  0  0  0
   64.2598   34.8649   47.9720 H   0  0  0  0  0  0  0  0  0  0  0  0
   62.4646   34.8004   47.9720 H   0  0  0  0  0  0  0  0  0  0  0  0
   62.4813   33.4324   46.1774 H   0  0  0  0  0  0  0  0  0  0  0  0
   64.2721   33.5920   46.1115 H   0  0  0  0  0  0  0  0  0  0  0  0
   64.4880   31.5660   46.7950 H   0  0  0  0  0  0  0  0  0  0  0  0
   64.2055   30.9062   48.8775 H   0  0  0  0  0  0  0  0  0  0  0  0
   63.9113   32.6886   49.0479 H   0  0  0  0  0  0  0  0  0  0  0  0
   62.2235   31.0383   50.1517 H   0  0  0  0  0  0  0  0  0  0  0  0
   61.5965   32.4320   49.1712 H   0  0  0  0  0  0  0  0  0  0  0  0
   61.8982   29.5518   48.1900 H   0  0  0  0  0  0  0  0  0  0  0  0
   60.3536   30.3720   48.6871 H   0  0  0  0  0  0  0  0  0  0  0  0
   61.8660   30.5640   46.2610 H   0  0  0  0  0  0  0  0  0  0  0  0
   61.4590   32.0300   46.8900 H   0  0  0  0  0  0  0  0  0  0  0  0
   60.6757   28.3686   47.1249 H   0  0  0  0  0  0  0  0  0  0  0  0
   59.9807   26.2178   46.0890 H   0  0  0  0  0  0  0  0  0  0  0  0
   58.3072   26.1977   44.2492 H   0  0  0  0  0  0  0  0  0  0  0  0
   57.3292   28.3265   43.4244 H   0  0  0  0  0  0  0  0  0  0  0  0
   56.2796   30.9236   43.0501 H   0  0  0  0  0  0  0  0  0  0  0  0
   57.7568   31.7061   42.3925 H   0  0  0  0  0  0  0  0  0  0  0  0
   57.6131   29.9155   42.3925 H   0  0  0  0  0  0  0  0  0  0  0  0
   56.7039   33.0963   43.8549 H   0  0  0  0  0  0  0  0  0  0  0  0
   56.8967   35.1409   45.2399 H   0  0  0  0  0  0  0  0  0  0  0  0
   58.2055   35.1096   47.3417 H   0  0  0  0  0  0  0  0  0  0  0  0
   59.3970   32.0500   48.8940 H   0  0  0  0  0  0  0  0  0  0  0  0
   60.8713   34.3756   49.0380 H   0  0  0  0  0  0  0  0  0  0  0  0
   59.1528   34.9642   49.0122 H   0  0  0  0  0  0  0  0  0  0  0  0
   60.6555   33.9864   51.2411 H   0  0  0  0  0  0  0  0  0  0  0  0
   58.9146   34.4983   51.1646 H   0  0  0  0  0  0  0  0  0  0  0  0
   57.7671   32.3754   52.5120 H   0  0  0  0  0  0  0  0  0  0  0  0
   57.3028   33.2562   51.0169 H   0  0  0  0  0  0  0  0  0  0  0  0
   57.3726   31.4613   51.0169 H   0  0  0  0  0  0  0  0  0  0  0  0
   59.6838   32.1230   53.0499 H   0  0  0  0  0  0  0  0  0  0  0  0
   60.0738   30.7434   51.9676 H   0  0  0  0  0  0  0  0  0  0  0  0
   61.1150   32.2071   51.9676 H   0  0  0  0  0  0  0  0  0  0  0  0
  1  2  1  0
  2  3  1  0
  3  4  1  0
  4  5  1  0
  5  6  1  0
  6  7  1  0
  7  8  1  0
  8  9  2  0
  9 10  1  0
 10 11  2  0
 11 12  1  0
 12 13  2  0
 13 14  1  0
 14 15  2  0
 15 16  1  0
 15 17  1  0
 17 18  2  0
 18 19  1  0
 19 20  2  0
 20 21  1  0
 21 22  1  0
 22 23  1  0
 23 24  1  0
 24 25  1  0
 25 26  1  0
 25 27  1  0
 21 28  2  0
 28  8  1  0
 14  9  1  0
 28 17  1  0
  1 29  1  0
  1 30  1  0
  1 31  1  0
  2 32  1  0
  2 33  1  0
  3 34  1  0
  4 35  1  0
  4 36  1  0
  5 37  1  0
  5 38  1  0
  6 39  1  0
  6 40  1  0
  7 41  1  0
  7 42  1  0
 10 43  1  0
 11 44  1  0
 12 45  1  0
 13 46  1  0
 16 47  1  0
 16 48  1  0
 16 49  1  0
 18 50  1  0
 19 51  1  0
 20 52  1  0
 22 53  1  0
 23 54  1  0
 23 55  1  0
 24 56  1  0
 24 57  1  0
 26 58  1  0
 26 59  1  0
 26 60  1  0
 27 61  1  0
 27 62  1  0
 27 63  1  0
M  CHG  2   7   1  15   1
M  END
>  <UniqueID>  (16) 
16

>  <SMILES>  (16) 
CCNCCC[NH2+]c1c2ccccc2[n+](C)c2cccc(NCCN(C)C)c12

>  <Energy>  (16) 
97.6471569465863

>  <Genealogy>  (16) 
CCNCCC[NH2+]c1c2ccccc2[n+](C)c2cccc(NCCN(C)C)c12 (protonated)
CCNCCC[NH2+]c1c2ccccc2[n+](C)c2cccc(NCCN(C)C)c12 (3D coordinates assigned)
CCNCCC[NH2+]c1c2ccccc2[n+](C)c2cccc(NCCN(C)C)c12 (optimized conformer: 97.6471569465863 kcal/mol)

>  <smiles>  (16) 
CCNCCCNc1c2ccccc2[n+](C)c2cccc(NCCN(C)C)c12

>  <score_type>  (16) 
oracle

>  <origin>  (16) 
adg

>  <m_score__min__energy>  (16) 
-3.9300000000000002

>  <m_primary>  (16) 
energy

$$$$
16:0
     RDKit          3D

 45 47  0  0  0  0  0  0  0  0999 V2000
   63.3480   33.8540   46.3880 C   0  0  0  0  0  0  0  0  0  0  0  0
   63.3040   32.6040   47.2670 C   0  0  0  0  0  0  0  0  0  0  0  0
   62.1720   32.6340   48.2200 N   0  0  0  0  0  0  0  0  0  0  0  0
   62.3360   33.7380   49.1820 C   0  0  0  0  0  0  0  0  0  0  0  0
   61.8900   31.3440   48.8970 C   0  0  0  0  0  0  0  0  0  0  0  0
   61.1460   30.3120   48.0260 C   0  0  0  0  0  0  0  0  0  0  0  0
   59.7340   30.6700   47.9030 N   0  0  0  0  0  0  0  0  0  0  0  0
   59.1710   30.9560   46.6160 C   0  0  0  0  0  0  0  0  0  0  0  0
   59.0690   32.2840   46.1660 C   0  0  0  0  0  0  0  0  0  0  0  0
   59.5050   33.3520   46.9790 C   0  0  0  0  0  0  0  0  0  0  0  0
   59.4070   34.6680   46.5340 C   0  0  0  0  0  0  0  0  0  0  0  0
   58.8760   34.9420   45.2790 C   0  0  0  0  0  0  0  0  0  0  0  0
   58.4390   33.9020   44.4580 C   0  0  0  0  0  0  0  0  0  0  0  0
   58.5260   32.5490   44.8790 C   0  0  0  0  0  0  0  0  0  0  0  0
   58.1010   31.5090   44.0750 N   0  0  0  0  0  0  0  0  0  0  0  0
   57.5500   31.7910   42.7310 C   0  0  0  0  0  0  0  0  0  0  0  0
   58.1820   30.2070   44.5210 C   0  0  0  0  0  0  0  0  0  0  0  0
   57.7450   29.1760   43.7390 N   0  0  0  0  0  0  0  0  0  0  0  0
   57.7960   27.8790   44.1340 C   0  0  0  0  0  0  0  0  0  0  0  0
   58.3080   27.5540   45.3870 C   0  0  0  0  0  0  0  0  0  0  0  0
   58.7650   28.5710   46.2200 C   0  0  0  0  0  0  0  0  0  0  0  0
   58.7140   29.9120   45.7980 C   0  0  0  0  0  0  0  0  0  0  0  0
   63.3795   34.7497   47.0257 H   0  0  0  0  0  0  0  0  0  0  0  0
   64.2457   33.8242   45.7529 H   0  0  0  0  0  0  0  0  0  0  0  0
   62.4505   33.8874   45.7529 H   0  0  0  0  0  0  0  0  0  0  0  0
   63.2008   31.7195   46.6212 H   0  0  0  0  0  0  0  0  0  0  0  0
   64.2365   32.5659   47.8492 H   0  0  0  0  0  0  0  0  0  0  0  0
   62.2773   33.3430   50.2069 H   0  0  0  0  0  0  0  0  0  0  0  0
   63.3149   34.2156   49.0286 H   0  0  0  0  0  0  0  0  0  0  0  0
   61.5382   34.4796   49.0286 H   0  0  0  0  0  0  0  0  0  0  0  0
   62.8485   30.9030   49.2083 H   0  0  0  0  0  0  0  0  0  0  0  0
   61.2263   31.5743   49.7434 H   0  0  0  0  0  0  0  0  0  0  0  0
   61.6018   30.2871   47.0252 H   0  0  0  0  0  0  0  0  0  0  0  0
   61.2225   29.3232   48.5019 H   0  0  0  0  0  0  0  0  0  0  0  0
   59.1410   30.8200   48.7490 H   0  0  0  0  0  0  0  0  0  0  0  0
   59.9262   33.1430   47.9735 H   0  0  0  0  0  0  0  0  0  0  0  0
   59.7504   35.4920   47.1768 H   0  0  0  0  0  0  0  0  0  0  0  0
   58.8000   35.9830   44.9317 H   0  0  0  0  0  0  0  0  0  0  0  0
   58.0200   34.1343   43.4678 H   0  0  0  0  0  0  0  0  0  0  0  0
   56.5749   32.2900   42.8318 H   0  0  0  0  0  0  0  0  0  0  0  0
   58.2419   32.4458   42.1810 H   0  0  0  0  0  0  0  0  0  0  0  0
   57.4235   30.8468   42.1810 H   0  0  0  0  0  0  0  0  0  0  0  0
   57.4331   27.0850   43.4647 H   0  0  0  0  0  0  0  0  0  0  0  0
   58.3509   26.5050   45.7151 H   0  0  0  0  0  0  0  0  0  0  0  0
   59.1681   28.3250   47.2134 H   0  0  0  0  0  0  0  0  0  0  0  0
  1  2  1  0
  2  3  1  0
  3  4  1  0
  3  5  1  0
  5  6  1  0
  6  7  1  0
  7  8  1  0
  8  9  2  0
  9 10  1  0
 10 11  2  0
 11 12  1  0
 12 13  2  0
 13 14  1  0
 14 15  2  0
 15 16  1  0
 15 17  1  0
 17 18  2  0
 18 19  1  0
 19 20  2  0
 20 21  1  0
 21 22  2  0
 22  8  1  0
 14  9  1  0
 22 17  1  0
  1 23  1  0
  1 24  1  0
  1 25  1  0
  2 26  1  0
  2 27  1  0
  4 28  1  0
  4 29  1  0
  4 30  1  0
  5 31  1  0
  5 32  1  0
  6 33  1  0
  6 34  1  0
  7 35  1  0
 10 36  1  0
 11 37  1  0
 12 38  1  0
 13 39  1  0
 16 40  1  0
 16 41  1  0
 16 42  1  0
 19 43  1  0
 20 44  1  0
 21 45  1  0
M  CHG  1  15   1
M  END
>  <UniqueID>  (17) 
17

>  <SMILES>  (17) 
CCN(C)CCNc1c2ccccc2[n+](C)c2ncccc12

>  <Energy>  (17) 
68.81231488134833

>  <Genealogy>  (17) 
CCN(C)CCNc1c2ccccc2[n+](C)c2ncccc12 (3D coordinates assigned)
CCN(C)CCNc1c2ccccc2[n+](C)c2ncccc12 (optimized conformer: 68.81231488134833 kcal/mol)

>  <smiles>  (17) 
CCN(C)CCNc1c2ccccc2[n+](C)c2ncccc12

>  <score_type>  (17) 
oracle

>  <origin>  (17) 
adg

>  <m_score__min__energy>  (17) 
-5.3399999999999999

>  <m_primary>  (17) 
energy

$$$$
17:0
     RDKit          3D

 76 79  0  0  0  0  0  0  0  0999 V2000
   63.3910   33.6720   46.4130 C   0  0  0  0  0  0  0  0  0  0  0  0
   63.3290   32.5460   47.4500 C   0  0  0  0  0  0  0  0  0  0  0  0
   62.9000   32.9720   48.8030 N   0  0  0  0  0  0  0  0  0  0  0  0
   62.5730   34.3860   49.1010 C   0  0  0  0  0  0  0  0  0  0  0  0
   63.0190   34.8510   50.4910 C   0  0  0  0  0  0  0  0  0  0  0  0
   63.1610   32.0450   49.8840 C   0  0  0  0  0  0  0  0  0  0  0  0
   64.4830   31.8750   50.3450 C   0  0  0  0  0  0  0  0  0  0  0  0
   65.5540   32.6050   49.7810 C   0  0  0  0  0  0  0  0  0  0  0  0
   66.8710   32.3360   50.1400 C   0  0  0  0  0  0  0  0  0  0  0  0
   67.1480   31.3340   51.0610 C   0  0  0  0  0  0  0  0  0  0  0  0
   66.1060   30.6290   51.6620 C   0  0  0  0  0  0  0  0  0  0  0  0
   64.7500   30.9180   51.3570 C   0  0  0  0  0  0  0  0  0  0  0  0
   63.7040   30.3030   52.0190 N   0  0  0  0  0  0  0  0  0  0  0  0
   63.9430   29.0300   52.7510 C   0  0  0  0  0  0  0  0  0  0  0  0
   63.1690   27.8340   52.1670 C   0  0  0  0  0  0  0  0  0  0  0  0
   62.4030   30.7150   51.7790 C   0  0  0  0  0  0  0  0  0  0  0  0
   62.1000   31.3970   50.5730 C   0  0  0  0  0  0  0  0  0  0  0  0
   60.7490   31.4230   50.1370 C   0  0  0  0  0  0  0  0  0  0  0  0
   60.4100   31.8000   48.7950 N   0  0  0  0  0  0  0  0  0  0  0  0
   60.3090   30.7810   47.7470 C   0  0  0  0  0  0  0  0  0  0  0  0
   59.8810   31.3750   46.3860 C   0  0  0  0  0  0  0  0  0  0  0  0
   59.0640   32.6190   46.5140 N   0  0  0  0  0  0  0  0  0  0  0  0
   57.8260   32.5790   45.6900 C   0  0  0  0  0  0  0  0  0  0  0  0
   57.4840   33.8910   44.9750 C   0  0  0  0  0  0  0  0  0  0  0  0
   59.8100   33.9060   46.3910 C   0  0  0  0  0  0  0  0  0  0  0  0
   59.5620   34.9500   47.4940 C   0  0  0  0  0  0  0  0  0  0  0  0
   59.7320   30.9540   50.9910 C   0  0  0  0  0  0  0  0  0  0  0  0
   58.3730   31.0160   50.6130 C   0  0  0  0  0  0  0  0  0  0  0  0
   57.3720   30.5530   51.4660 C   0  0  0  0  0  0  0  0  0  0  0  0
   57.7060   30.0330   52.7110 C   0  0  0  0  0  0  0  0  0  0  0  0
   59.0390   29.9920   53.1180 C   0  0  0  0  0  0  0  0  0  0  0  0
   60.0730   30.4690   52.2740 C   0  0  0  0  0  0  0  0  0  0  0  0
   61.3860   30.4730   52.6840 N   0  0  0  0  0  0  0  0  0  0  0  0
   61.6750   30.4820   54.1300 C   0  0  0  0  0  0  0  0  0  0  0  0
   63.4444   34.6424   46.9282 H   0  0  0  0  0  0  0  0  0  0  0  0
   64.2833   33.5416   45.7831 H   0  0  0  0  0  0  0  0  0  0  0  0
   62.4898   33.6404   45.7831 H   0  0  0  0  0  0  0  0  0  0  0  0
   62.6197   31.7867   47.0891 H   0  0  0  0  0  0  0  0  0  0  0  0
   64.3553   32.1646   47.5557 H   0  0  0  0  0  0  0  0  0  0  0  0
   63.0660   35.0204   48.3497 H   0  0  0  0  0  0  0  0  0  0  0  0
   61.4766   34.4707   49.0746 H   0  0  0  0  0  0  0  0  0  0  0  0
   62.4744   34.2832   51.2598 H   0  0  0  0  0  0  0  0  0  0  0  0
   64.0996   34.6801   50.6056 H   0  0  0  0  0  0  0  0  0  0  0  0
   62.8032   35.9235   50.6056 H   0  0  0  0  0  0  0  0  0  0  0  0
   65.3431   33.3973   49.0476 H   0  0  0  0  0  0  0  0  0  0  0  0
   67.6924   32.9166   49.6947 H   0  0  0  0  0  0  0  0  0  0  0  0
   68.1911   31.0962   51.3167 H   0  0  0  0  0  0  0  0  0  0  0  0
   66.3389   29.8342   52.3859 H   0  0  0  0  0  0  0  0  0  0  0  0
   65.0184   28.8020   52.7119 H   0  0  0  0  0  0  0  0  0  0  0  0
   63.5860   29.1759   53.7812 H   0  0  0  0  0  0  0  0  0  0  0  0
   62.7710   27.2189   52.9875 H   0  0  0  0  0  0  0  0  0  0  0  0
   62.3375   28.2023   51.5481 H   0  0  0  0  0  0  0  0  0  0  0  0
   63.8456   27.2263   51.5481 H   0  0  0  0  0  0  0  0  0  0  0  0
   60.1610   32.7930   48.6080 H   0  0  0  0  0  0  0  0  0  0  0  0
   61.2901   30.2978   47.6286 H   0  0  0  0  0  0  0  0  0  0  0  0
   59.5382   30.0591   48.0548 H   0  0  0  0  0  0  0  0  0  0  0  0
   60.7866   31.6102   45.8076 H   0  0  0  0  0  0  0  0  0  0  0  0
   59.2528   30.6231   45.8859 H   0  0  0  0  0  0  0  0  0  0  0  0
   58.6840   32.6330   47.4920 H   0  0  0  0  0  0  0  0  0  0  0  0
   57.9484   31.7960   44.9272 H   0  0  0  0  0  0  0  0  0  0  0  0
   56.9978   32.3824   46.3868 H   0  0  0  0  0  0  0  0  0  0  0  0
   57.2802   34.6730   45.7213 H   0  0  0  0  0  0  0  0  0  0  0  0
   58.3323   34.1973   44.3453 H   0  0  0  0  0  0  0  0  0  0  0  0
   56.5941   33.7442   44.3453 H   0  0  0  0  0  0  0  0  0  0  0  0
   60.8846   33.6708   46.3886 H   0  0  0  0  0  0  0  0  0  0  0  0
   59.4423   34.3688   45.4633 H   0  0  0  0  0  0  0  0  0  0  0  0
   59.6747   34.4755   48.4800 H   0  0  0  0  0  0  0  0  0  0  0  0
   60.2908   35.7680   47.3952 H   0  0  0  0  0  0  0  0  0  0  0  0
   58.5432   35.3528   47.3952 H   0  0  0  0  0  0  0  0  0  0  0  0
   58.1005   31.4349   49.6331 H   0  0  0  0  0  0  0  0  0  0  0  0
   56.3183   30.5992   51.1538 H   0  0  0  0  0  0  0  0  0  0  0  0
   56.9170   29.6530   53.3766 H   0  0  0  0  0  0  0  0  0  0  0  0
   59.2916   29.5838   54.1077 H   0  0  0  0  0  0  0  0  0  0  0  0
   60.7304   30.4526   54.6929 H   0  0  0  0  0  0  0  0  0  0  0  0
   62.2831   29.6024   54.3879 H   0  0  0  0  0  0  0  0  0  0  0  0
   62.2271   31.3978   54.3879 H   0  0  0  0  0  0  0  0  0  0  0  0
  1  2  1  0
  2  3  1  0
  3  4  1  0
  4  5  1  0
  3  6  1  0
  6  7  2  0
  7  8  1  0
  8  9  2  0
  9 10  1  0
 10 11  2  0
 11 12  1  0
 12 13  2  0
 13 14  1  0
 14 15  1  0
 13 16  1  0
 16 17  2  0
 17 18  1  0
 18 19  1  0
 19 20  1  0
 20 21  1  0
 21 22  1  0
 22 23  1  0
 23 24  1  0
 22 25  1  0
 25 26  1  0
 18 27  2  0
 27 28  1  0
 28 29  2  0
 29 30  1  0
 30 31  2  0
 31 32  1  0
 32 33  2  0
 33 34  1  0
 17  6  1  0
 32 27  1  0
 12  7  1  0
 33 16  1  0
  1 35  1  0
  1 36  1  0
  1 37  1  0
  2 38  1  0
  2 39  1  0
  4 40  1  0
  4 41  1  0
  5 42  1  0
  5 43  1  0
  5 44  1  0
  8 45  1  0
  9 46  1  0
 10 47  1  0
 11 48  1  0
 14 49  1  0
 14 50  1  0
 15 51  1  0
 15 52  1  0
 15 53  1  0
 19 54  1  0
 20 55  1  0
 20 56  1  0
 21 57  1  0
 21 58  1  0
 22 59  1  0
 23 60  1  0
 23 61  1  0
 24 62  1  0
 24 63  1  0
 24 64  1  0
 25 65  1  0
 25 66  1  0
 26 67  1  0
 26 68  1  0
 26 69  1  0
 28 70  1  0
 29 71  1  0
 30 72  1  0
 31 73  1  0
 34 74  1  0
 34 75  1  0
 34 76  1  0
M  CHG  3  13   1  22   1  33   1
M  END
>  <UniqueID>  (18) 
18

>  <SMILES>  (18) 
CCN(CC)c1c2ccccc2[n+](CC)c2c1c(NCC[NH+](CC)CC)c1ccccc1[n+]2C

>  <Energy>  (18) 
150.29044391708356

>  <Genealogy>  (18) 
CCN(CC)c1c2ccccc2[n+](CC)c2c1c(NCC[NH+](CC)CC)c1ccccc1[n+]2C (protonated)
CCN(CC)c1c2ccccc2[n+](CC)c2c1c(NCC[NH+](CC)CC)c1ccccc1[n+]2C (3D coordinates assigned)
CCN(CC)c1c2ccccc2[n+](CC)c2c1c(NCC[NH+](CC)CC)c1ccccc1[n+]2C (optimized conformer: 150.29044391708356 kcal/mol)

>  <smiles>  (18) 
CCN(CC)CCNc1c2ccccc2[n+](C)c2c1c(N(CC)CC)c1ccccc1[n+]2CC

>  <score_type>  (18) 
oracle

>  <origin>  (18) 
adg

>  <m_score__min__energy>  (18) 
-3.7400000000000002

>  <m_primary>  (18) 
energy

$$$$
18:0
     RDKit          3D

 38 39  0  0  0  0  0  0  0  0999 V2000
   57.8430   33.0940   47.1860 C   0  0  0  0  0  0  0  0  0  0  0  0
   57.8490   32.6920   45.7460 C   0  0  0  0  0  0  0  0  0  0  0  0
   57.3120   31.5130   45.3330 N   0  0  0  0  0  0  0  0  0  0  0  0
   57.4110   31.3540   43.9940 C   0  0  0  0  0  0  0  0  0  0  0  0
   56.8170   30.1930   43.2590 C   0  0  0  0  0  0  0  0  0  0  0  0
   56.9110   28.9430   44.0330 N   0  0  0  0  0  0  0  0  0  0  0  0
   58.1070   28.1320   43.7390 C   0  0  0  0  0  0  0  0  0  0  0  0
   59.3280   28.5220   44.6000 C   0  0  0  0  0  0  0  0  0  0  0  0
   58.9700   29.4840   45.6560 N   0  0  0  0  0  0  0  0  0  0  0  0
   59.5980   29.1480   46.9150 C   0  0  0  0  0  0  0  0  0  0  0  0
   59.5540   27.8270   47.3990 C   0  0  0  0  0  0  0  0  0  0  0  0
   60.1290   27.5070   48.6330 C   0  0  0  0  0  0  0  0  0  0  0  0
   60.7560   28.4970   49.3910 C   0  0  0  0  0  0  0  0  0  0  0  0
   60.8080   29.8110   48.9210 C   0  0  0  0  0  0  0  0  0  0  0  0
   60.2310   30.1400   47.6900 C   0  0  0  0  0  0  0  0  0  0  0  0
   60.2870   31.4240   47.2540 F   0  0  0  0  0  0  0  0  0  0  0  0
   58.1400   32.6820   43.2630 S   0  0  0  0  0  0  0  0  0  0  0  0
   58.3740   33.4830   44.7240 C   0  0  0  0  0  0  0  0  0  0  0  0
   58.9680   34.8470   44.8690 C   0  0  0  0  0  0  0  0  0  0  0  0
   57.8564   32.1938   47.8180 H   0  0  0  0  0  0  0  0  0  0  0  0
   58.7321   33.7054   47.3997 H   0  0  0  0  0  0  0  0  0  0  0  0
   56.9360   33.6786   47.3997 H   0  0  0  0  0  0  0  0  0  0  0  0
   55.7571   30.4060   43.0559 H   0  0  0  0  0  0  0  0  0  0  0  0
   57.3819   30.0574   42.3249 H   0  0  0  0  0  0  0  0  0  0  0  0
   56.0570   28.3700   43.8360 H   0  0  0  0  0  0  0  0  0  0  0  0
   57.8685   27.0749   43.9276 H   0  0  0  0  0  0  0  0  0  0  0  0
   58.3755   28.3115   42.6875 H   0  0  0  0  0  0  0  0  0  0  0  0
   59.7369   27.6149   45.0689 H   0  0  0  0  0  0  0  0  0  0  0  0
   60.0708   28.9977   43.9428 H   0  0  0  0  0  0  0  0  0  0  0  0
   59.2300   30.4540   45.3600 H   0  0  0  0  0  0  0  0  0  0  0  0
   57.9310   29.4750   45.7820 H   0  0  0  0  0  0  0  0  0  0  0  0
   59.0647   27.0422   46.8035 H   0  0  0  0  0  0  0  0  0  0  0  0
   60.0870   26.4733   49.0068 H   0  0  0  0  0  0  0  0  0  0  0  0
   61.2099   28.2419   50.3600 H   0  0  0  0  0  0  0  0  0  0  0  0
   61.3038   30.5890   49.5201 H   0  0  0  0  0  0  0  0  0  0  0  0
   59.0735   35.0893   45.9368 H   0  0  0  0  0  0  0  0  0  0  0  0
   59.9572   34.8691   44.3885 H   0  0  0  0  0  0  0  0  0  0  0  0
   58.3103   35.5863   44.3885 H   0  0  0  0  0  0  0  0  0  0  0  0
  1  2  1  0
  2  3  1  0
  3  4  2  0
  4  5  1  0
  5  6  1  0
  6  7  1  0
  7  8  1  0
  8  9  1  0
  9 10  1  0
 10 11  2  0
 11 12  1  0
 12 13  2  0
 13 14  1  0
 14 15  2  0
 15 16  1  0
  4 17  1  0
 17 18  1  0
 18 19  1  0
 18  2  2  0
 15 10  1  0
  1 20  1  0
  1 21  1  0
  1 22  1  0
  5 23  1  0
  5 24  1  0
  6 25  1  0
  7 26  1  0
  7 27  1  0
  8 28  1  0
  8 29  1  0
  9 30  1  0
  9 31  1  0
 11 32  1  0
 12 33  1  0
 13 34  1  0
 14 35  1  0
 19 36  1  0
 19 37  1  0
 19 38  1  0
M  CHG  1   9   1
M  END
>  <UniqueID>  (19) 
19

>  <SMILES>  (19) 
Cc1nc(CNCC[NH2+]c2ccccc2F)sc1C

>  <Energy>  (19) 
63.302970007405705

>  <Genealogy>  (19) 
Cc1nc(CNCC[NH2+]c2ccccc2F)sc1C (protonated)
Cc1nc(CNCC[NH2+]c2ccccc2F)sc1C (3D coordinates assigned)
Cc1nc(CNCC[NH2+]c2ccccc2F)sc1C (optimized conformer: 63.302970007405705 kcal/mol)

>  <smiles>  (19) 
Cc1nc(CNCCNc2ccccc2F)sc1C

>  <score_type>  (19) 
oracle

>  <origin>  (19) 
adg

>  <m_score__min__energy>  (19) 
-4.9299999999999997

>  <m_primary>  (19) 
energy

$$$$
19:0
     RDKit          3D

 70 72  0  0  0  0  0  0  0  0999 V2000
   58.2460   33.0030   51.9790 C   0  0  0  0  0  0  0  0  0  0  0  0
   57.4480   31.9550   51.2080 C   0  0  0  0  0  0  0  0  0  0  0  0
   58.3470   30.8930   50.7390 N   0  0  0  0  0  0  0  0  0  0  0  0
   58.4980   29.8200   51.7350 C   0  0  0  0  0  0  0  0  0  0  0  0
   59.9590   29.3790   51.8160 C   0  0  0  0  0  0  0  0  0  0  0  0
   60.6570   29.8470   50.6780 O   0  0  0  0  0  0  0  0  0  0  0  0
   60.9290   28.7890   49.7800 C   0  0  0  0  0  0  0  0  0  0  0  0
   60.0890   28.9400   48.4940 C   0  0  0  0  0  0  0  0  0  0  0  0
   59.1400   30.0860   48.4650 N   0  0  0  0  0  0  0  0  0  0  0  0
   58.9820   30.7580   47.1810 C   0  0  0  0  0  0  0  0  0  0  0  0
   58.5090   30.0250   46.0630 C   0  0  0  0  0  0  0  0  0  0  0  0
   58.4250   28.6100   46.0930 C   0  0  0  0  0  0  0  0  0  0  0  0
   57.8880   27.8980   45.0240 C   0  0  0  0  0  0  0  0  0  0  0  0
   57.4040   28.5730   43.9110 C   0  0  0  0  0  0  0  0  0  0  0  0
   57.5050   29.9590   43.8390 C   0  0  0  0  0  0  0  0  0  0  0  0
   58.1100   30.7100   44.8830 C   0  0  0  0  0  0  0  0  0  0  0  0
   58.2890   32.0730   44.7770 N   0  0  0  0  0  0  0  0  0  0  0  0
   58.1230   32.7330   43.4590 C   0  0  0  0  0  0  0  0  0  0  0  0
   58.6830   32.8140   45.8730 C   0  0  0  0  0  0  0  0  0  0  0  0
   58.6190   34.2300   45.8540 C   0  0  0  0  0  0  0  0  0  0  0  0
   59.1290   34.9890   46.8940 C   0  0  0  0  0  0  0  0  0  0  0  0
   59.7440   34.3690   47.9690 C   0  0  0  0  0  0  0  0  0  0  0  0
   59.7910   32.9670   48.0600 C   0  0  0  0  0  0  0  0  0  0  0  0
   60.4990   32.3560   49.1090 O   0  0  0  0  0  0  0  0  0  0  0  0
   61.1930   33.0190   50.1670 C   0  0  0  0  0  0  0  0  0  0  0  0
   62.5480   33.5540   49.6560 C   0  0  0  0  0  0  0  0  0  0  0  0
   63.5290   32.5060   49.2350 N   0  0  0  0  0  0  0  0  0  0  0  0
   64.8960   33.0450   49.4520 C   0  0  0  0  0  0  0  0  0  0  0  0
   63.3830   32.1730   47.7970 C   0  0  0  0  0  0  0  0  0  0  0  0
   63.3760   31.2750   50.0500 C   0  0  0  0  0  0  0  0  0  0  0  0
   59.1520   32.1700   47.0570 C   0  0  0  0  0  0  0  0  0  0  0  0
   58.1203   32.8380   53.0593 H   0  0  0  0  0  0  0  0  0  0  0  0
   59.3110   32.9191   51.7167 H   0  0  0  0  0  0  0  0  0  0  0  0
   57.8818   34.0073   51.7167 H   0  0  0  0  0  0  0  0  0  0  0  0
   56.6822   31.5207   51.8675 H   0  0  0  0  0  0  0  0  0  0  0  0
   56.9641   32.4307   50.3422 H   0  0  0  0  0  0  0  0  0  0  0  0
   59.2870   31.3250   50.5770 H   0  0  0  0  0  0  0  0  0  0  0  0
   58.1746   30.1894   52.7193 H   0  0  0  0  0  0  0  0  0  0  0  0
   57.8793   28.9613   51.4351 H   0  0  0  0  0  0  0  0  0  0  0  0
   60.4179   29.7959   52.7246 H   0  0  0  0  0  0  0  0  0  0  0  0
   60.0089   28.2807   51.8505 H   0  0  0  0  0  0  0  0  0  0  0  0
   61.9972   28.8026   49.5180 H   0  0  0  0  0  0  0  0  0  0  0  0
   60.6687   27.8363   50.2644 H   0  0  0  0  0  0  0  0  0  0  0  0
   60.7843   29.0575   47.6498 H   0  0  0  0  0  0  0  0  0  0  0  0
   59.4641   28.0363   48.4403 H   0  0  0  0  0  0  0  0  0  0  0  0
   58.2050   29.7630   48.8050 H   0  0  0  0  0  0  0  0  0  0  0  0
   59.3800   30.7750   49.2120 H   0  0  0  0  0  0  0  0  0  0  0  0
   58.7904   28.0654   46.9761 H   0  0  0  0  0  0  0  0  0  0  0  0
   57.8470   26.7994   45.0610 H   0  0  0  0  0  0  0  0  0  0  0  0
   56.9407   28.0119   43.0861 H   0  0  0  0  0  0  0  0  0  0  0  0
   57.1089   30.4835   42.9570 H   0  0  0  0  0  0  0  0  0  0  0  0
   57.8572   33.7898   43.6090 H   0  0  0  0  0  0  0  0  0  0  0  0
   59.0654   32.6684   42.8953 H   0  0  0  0  0  0  0  0  0  0  0  0
   57.3233   32.2302   42.8953 H   0  0  0  0  0  0  0  0  0  0  0  0
   58.1545   34.7365   44.9951 H   0  0  0  0  0  0  0  0  0  0  0  0
   59.0456   36.0855   46.8663 H   0  0  0  0  0  0  0  0  0  0  0  0
   60.2010   34.9808   48.7608 H   0  0  0  0  0  0  0  0  0  0  0  0
   60.5839   33.8591   50.5319 H   0  0  0  0  0  0  0  0  0  0  0  0
   61.3719   32.3051   50.9845 H   0  0  0  0  0  0  0  0  0  0  0  0
   62.3525   34.2043   48.7906 H   0  0  0  0  0  0  0  0  0  0  0  0
   63.0086   34.0794   50.5056 H   0  0  0  0  0  0  0  0  0  0  0  0
   65.0925   33.1225   50.5315 H   0  0  0  0  0  0  0  0  0  0  0  0
   65.6334   32.3703   48.9926 H   0  0  0  0  0  0  0  0  0  0  0  0
   64.9745   34.0414   48.9926 H   0  0  0  0  0  0  0  0  0  0  0  0
   62.9432   31.1699   47.6958 H   0  0  0  0  0  0  0  0  0  0  0  0
   62.7262   32.9117   47.3144 H   0  0  0  0  0  0  0  0  0  0  0  0
   64.3713   32.1905   47.3144 H   0  0  0  0  0  0  0  0  0  0  0  0
   63.4084   31.5360   51.1181 H   0  0  0  0  0  0  0  0  0  0  0  0
   62.4118   30.7991   49.8180 H   0  0  0  0  0  0  0  0  0  0  0  0
   64.1944   30.5776   49.8180 H   0  0  0  0  0  0  0  0  0  0  0  0
  1  2  1  0
  2  3  1  0
  3  4  1  0
  4  5  1  0
  5  6  1  0
  6  7  1  0
  7  8  1  0
  8  9  1  0
  9 10  1  0
 10 11  2  0
 11 12  1  0
 12 13  2  0
 13 14  1  0
 14 15  2  0
 15 16  1  0
 16 17  2  0
 17 18  1  0
 17 19  1  0
 19 20  2  0
 20 21  1  0
 21 22  2  0
 22 23  1  0
 23 24  1  0
 24 25  1  0
 25 26  1  0
 26 27  1  0
 27 28  1  0
 27 29  1  0
 27 30  1  0
 23 31  2  0
 31 10  1  0
 16 11  1  0
 31 19  1  0
  1 32  1  0
  1 33  1  0
  1 34  1  0
  2 35  1  0
  2 36  1  0
  3 37  1  0
  4 38  1  0
  4 39  1  0
  5 40  1  0
  5 41  1  0
  7 42  1  0
  7 43  1  0
  8 44  1  0
  8 45  1  0
  9 46  1  0
  9 47  1  0
 12 48  1  0
 13 49  1  0
 14 50  1  0
 15 51  1  0
 18 52  1  0
 18 53  1  0
 18 54  1  0
 20 55  1  0
 21 56  1  0
 22 57  1  0
 25 58  1  0
 25 59  1  0
 26 60  1  0
 26 61  1  0
 28 62  1  0
 28 63  1  0
 28 64  1  0
 29 65  1  0
 29 66  1  0
 29 67  1  0
 30 68  1  0
 30 69  1  0
 30 70  1  0
M  CHG  3   9   1  17   1  27   1
M  END
>  <UniqueID>  (20) 
20

>  <SMILES>  (20) 
CCNCCOCC[NH2+]c1c2ccccc2[n+](C)c2cccc(OCC[N+](C)(C)C)c12

>  <Energy>  (20) 
112.059882900302

>  <Genealogy>  (20) 
CCNCCOCC[NH2+]c1c2ccccc2[n+](C)c2cccc(OCC[N+](C)(C)C)c12 (protonated)
CCNCCOCC[NH2+]c1c2ccccc2[n+](C)c2cccc(OCC[N+](C)(C)C)c12 (3D coordinates assigned)
CCNCCOCC[NH2+]c1c2ccccc2[n+](C)c2cccc(OCC[N+](C)(C)C)c12 (optimized conformer: 112.059882900302 kcal/mol)

>  <smiles>  (20) 
CCNCCOCCNc1c2ccccc2[n+](C)c2cccc(OCC[N+](C)(C)C)c12

>  <score_type>  (20) 
oracle

>  <origin>  (20) 
adg

>  <m_score__min__energy>  (20) 
-1.8

>  <m_primary>  (20) 
energy

$$$$
20:0
     RDKit          3D

 84 87  0  0  0  0  0  0  0  0999 V2000
   63.3770   33.1860   46.8960 C   0  0  0  0  0  0  0  0  0  0  0  0
   63.3160   32.1020   47.9700 C   0  0  0  0  0  0  0  0  0  0  0  0
   62.9920   32.6860   49.2890 N   0  0  0  0  0  0  0  0  0  0  0  0
   63.1450   34.1600   49.3420 C   0  0  0  0  0  0  0  0  0  0  0  0
   63.3990   34.5950   50.7800 C   0  0  0  0  0  0  0  0  0  0  0  0
   63.6590   31.9890   50.4150 C   0  0  0  0  0  0  0  0  0  0  0  0
   62.7090   31.5730   51.5550 C   0  0  0  0  0  0  0  0  0  0  0  0
   61.5330   31.0020   51.0210 O   0  0  0  0  0  0  0  0  0  0  0  0
   61.8210   29.7270   50.4910 C   0  0  0  0  0  0  0  0  0  0  0  0
   61.1100   29.5780   49.1480 C   0  0  0  0  0  0  0  0  0  0  0  0
   59.6280   29.2370   49.3350 C   0  0  0  0  0  0  0  0  0  0  0  0
   58.7900   30.3960   49.0290 N   0  0  0  0  0  0  0  0  0  0  0  0
   58.8400   30.9860   47.7250 C   0  0  0  0  0  0  0  0  0  0  0  0
   58.5350   30.1730   46.6190 C   0  0  0  0  0  0  0  0  0  0  0  0
   58.4240   28.7710   46.7560 C   0  0  0  0  0  0  0  0  0  0  0  0
   58.1600   27.9650   45.6530 C   0  0  0  0  0  0  0  0  0  0  0  0
   58.0100   28.5360   44.3950 C   0  0  0  0  0  0  0  0  0  0  0  0
   58.0960   29.9180   44.2400 C   0  0  0  0  0  0  0  0  0  0  0  0
   58.3250   30.7670   45.3540 C   0  0  0  0  0  0  0  0  0  0  0  0
   58.3360   32.1390   45.2300 N   0  0  0  0  0  0  0  0  0  0  0  0
   57.7600   32.7700   44.0210 C   0  0  0  0  0  0  0  0  0  0  0  0
   58.8660   32.9220   46.2400 C   0  0  0  0  0  0  0  0  0  0  0  0
   59.1710   34.2840   46.0030 C   0  0  0  0  0  0  0  0  0  0  0  0
   59.6790   35.0950   47.0020 C   0  0  0  0  0  0  0  0  0  0  0  0
   59.9400   34.5760   48.2550 C   0  0  0  0  0  0  0  0  0  0  0  0
   59.7070   33.2210   48.5510 C   0  0  0  0  0  0  0  0  0  0  0  0
   60.1650   32.7510   49.8470 N   0  0  0  0  0  0  0  0  0  0  0  0
   60.2650   33.8470   50.8320 C   0  0  0  0  0  0  0  0  0  0  0  0
   58.9570   34.0840   51.6140 C   0  0  0  0  0  0  0  0  0  0  0  0
   58.6190   32.9370   52.5830 C   0  0  0  0  0  0  0  0  0  0  0  0
   58.3710   31.6740   51.8520 N   0  0  0  0  0  0  0  0  0  0  0  0
   58.7740   30.4920   52.6520 C   0  0  0  0  0  0  0  0  0  0  0  0
   58.0070   29.2350   52.2090 C   0  0  0  0  0  0  0  0  0  0  0  0
   56.5970   29.3410   52.3640 O   0  0  0  0  0  0  0  0  0  0  0  0
   56.1130   30.6760   52.2790 C   0  0  0  0  0  0  0  0  0  0  0  0
   56.9680   31.5860   51.3790 C   0  0  0  0  0  0  0  0  0  0  0  0
   59.1360   32.3670   47.5330 C   0  0  0  0  0  0  0  0  0  0  0  0
   63.4326   34.1745   47.3754 H   0  0  0  0  0  0  0  0  0  0  0  0
   64.2679   33.0317   46.2695 H   0  0  0  0  0  0  0  0  0  0  0  0
   62.4744   33.1326   46.2695 H   0  0  0  0  0  0  0  0  0  0  0  0
   62.5407   31.3700   47.6997 H   0  0  0  0  0  0  0  0  0  0  0  0
   64.2994   31.6132   48.0333 H   0  0  0  0  0  0  0  0  0  0  0  0
   63.9945   34.4630   48.7122 H   0  0  0  0  0  0  0  0  0  0  0  0
   62.2250   34.6367   48.9727 H   0  0  0  0  0  0  0  0  0  0  0  0
   62.9666   33.8544   51.4689 H   0  0  0  0  0  0  0  0  0  0  0  0
   64.4825   34.6694   50.9546 H   0  0  0  0  0  0  0  0  0  0  0  0
   62.9313   35.5752   50.9546 H   0  0  0  0  0  0  0  0  0  0  0  0
   64.1424   31.0827   50.0214 H   0  0  0  0  0  0  0  0  0  0  0  0
   64.3761   32.7026   50.8469 H   0  0  0  0  0  0  0  0  0  0  0  0
   63.2124   30.8357   52.1976 H   0  0  0  0  0  0  0  0  0  0  0  0
   62.4423   32.4624   52.1448 H   0  0  0  0  0  0  0  0  0  0  0  0
   62.9067   29.6233   50.3476 H   0  0  0  0  0  0  0  0  0  0  0  0
   61.4738   28.9475   51.1852 H   0  0  0  0  0  0  0  0  0  0  0  0
   61.1923   30.5239   48.5926 H   0  0  0  0  0  0  0  0  0  0  0  0
   61.5869   28.7567   48.5930 H   0  0  0  0  0  0  0  0  0  0  0  0
   59.3599   28.4093   48.6619 H   0  0  0  0  0  0  0  0  0  0  0  0
   59.4608   28.9454   50.3824 H   0  0  0  0  0  0  0  0  0  0  0  0
   58.3430   30.9350   49.8050 H   0  0  0  0  0  0  0  0  0  0  0  0
   58.5479   28.3109   47.7474 H   0  0  0  0  0  0  0  0  0  0  0  0
   58.0700   26.8757   45.7768 H   0  0  0  0  0  0  0  0  0  0  0  0
   57.8231   27.8959   43.5202 H   0  0  0  0  0  0  0  0  0  0  0  0
   57.9846   30.3581   43.2381 H   0  0  0  0  0  0  0  0  0  0  0  0
   57.0463   33.5518   44.3201 H   0  0  0  0  0  0  0  0  0  0  0  0
   58.5662   33.2190   43.4223 H   0  0  0  0  0  0  0  0  0  0  0  0
   57.2395   32.0080   43.4223 H   0  0  0  0  0  0  0  0  0  0  0  0
   59.0002   34.7069   45.0020 H   0  0  0  0  0  0  0  0  0  0  0  0
   59.8759   36.1577   46.7975 H   0  0  0  0  0  0  0  0  0  0  0  0
   60.3389   35.2369   49.0386 H   0  0  0  0  0  0  0  0  0  0  0  0
   61.0620   32.2370   49.7640 H   0  0  0  0  0  0  0  0  0  0  0  0
   59.5230   32.0140   50.2170 H   0  0  0  0  0  0  0  0  0  0  0  0
   61.0613   33.6002   51.5497 H   0  0  0  0  0  0  0  0  0  0  0  0
   60.4828   34.7691   50.2732 H   0  0  0  0  0  0  0  0  0  0  0  0
   59.0585   35.0137   52.1932 H   0  0  0  0  0  0  0  0  0  0  0  0
   58.1408   34.1449   50.8790 H   0  0  0  0  0  0  0  0  0  0  0  0
   59.4618   32.7916   53.2747 H   0  0  0  0  0  0  0  0  0  0  0  0
   57.7060   33.2050   53.1349 H   0  0  0  0  0  0  0  0  0  0  0  0
   59.8524   30.3198   52.5200 H   0  0  0  0  0  0  0  0  0  0  0  0
   58.5400   30.6894   53.7085 H   0  0  0  0  0  0  0  0  0  0  0  0
   58.2267   29.0504   51.1471 H   0  0  0  0  0  0  0  0  0  0  0  0
   58.3404   28.4104   52.8562 H   0  0  0  0  0  0  0  0  0  0  0  0
   55.0901   30.6499   51.8753 H   0  0  0  0  0  0  0  0  0  0  0  0
   56.1519   31.0982   53.2940 H   0  0  0  0  0  0  0  0  0  0  0  0
   56.9626   31.1807   50.3564 H   0  0  0  0  0  0  0  0  0  0  0  0
   56.5352   32.5968   51.4082 H   0  0  0  0  0  0  0  0  0  0  0  0
  1  2  1  0
  2  3  1  0
  3  4  1  0
  4  5  1  0
  3  6  1  0
  6  7  1  0
  7  8  1  0
  8  9  1  0
  9 10  1  0
 10 11  1  0
 11 12  1  0
 12 13  1  0
 13 14  2  0
 14 15  1  0
 15 16  2  0
 16 17  1  0
 17 18  2  0
 18 19  1  0
 19 20  2  0
 20 21  1  0
 20 22  1  0
 22 23  2  0
 23 24  1  0
 24 25  2  0
 25 26  1  0
 26 27  1  0
 27 28  1  0
 28 29  1  0
 29 30  1  0
 30 31  1  0
 31 32  1  0
 32 33  1  0
 33 34  1  0
 34 35  1  0
 35 36  1  0
 26 37  2  0
 37 13  1  0
 19 14  1  0
 37 22  1  0
 36 31  1  0
  1 38  1  0
  1 39  1  0
  1 40  1  0
  2 41  1  0
  2 42  1  0
  4 43  1  0
  4 44  1  0
  5 45  1  0
  5 46  1  0
  5 47  1  0
  6 48  1  0
  6 49  1  0
  7 50  1  0
  7 51  1  0
  9 52  1  0
  9 53  1  0
 10 54  1  0
 10 55  1  0
 11 56  1  0
 11 57  1  0
 12 58  1  0
 15 59  1  0
 16 60  1  0
 17 61  1  0
 18 62  1  0
 21 63  1  0
 21 64  1  0
 21 65  1  0
 23 66  1  0
 24 67  1  0
 25 68  1  0
 27 69  1  0
 27 70  1  0
 28 71  1  0
 28 72  1  0
 29 73  1  0
 29 74  1  0
 30 75  1  0
 30 76  1  0
 32 77  1  0
 32 78  1  0
 33 79  1  0
 33 80  1  0
 35 81  1  0
 35 82  1  0
 36 83  1  0
 36 84  1  0
M  CHG  2  20   1  27   1
M  END
>  <UniqueID>  (21) 
21

>  <SMILES>  (21) 
CCN(CC)CCOCCCNc1c2ccccc2[n+](C)c2cccc([NH2+]CCCN3CCOCC3)c12

>  <Energy>  (21) 
133.34103717723946

>  <Genealogy>  (21) 
CCN(CC)CCOCCCNc1c2ccccc2[n+](C)c2cccc([NH2+]CCCN3CCOCC3)c12 (protonated)
CCN(CC)CCOCCCNc1c2ccccc2[n+](C)c2cccc([NH2+]CCCN3CCOCC3)c12 (3D coordinates assigned)
CCN(CC)CCOCCCNc1c2ccccc2[n+](C)c2cccc([NH2+]CCCN3CCOCC3)c12 (nonaromatic ring conformer: 133.34103717723946 kcal/mol)

>  <smiles>  (21) 
CCN(CC)CCOCCCNc1c2ccccc2[n+](C)c2cccc(NCCCN3CCOCC3)c12

>  <score_type>  (21) 
oracle

>  <origin>  (21) 
adg

>  <m_score__min__energy>  (21) 
-4.7800000000000002

>  <m_primary>  (21) 
energy

$$$$
21:0
     RDKit          3D

 72 74  0  0  0  0  0  0  0  0999 V2000
   63.0070   30.9350   50.3160 C   0  0  0  0  0  0  0  0  0  0  0  0
   63.9420   31.8420   49.5160 C   0  0  0  0  0  0  0  0  0  0  0  0
   63.1800   32.7070   48.5880 N   0  0  0  0  0  0  0  0  0  0  0  0
   63.6120   32.6090   47.1760 C   0  0  0  0  0  0  0  0  0  0  0  0
   63.3540   33.8800   46.3630 C   0  0  0  0  0  0  0  0  0  0  0  0
   62.8590   34.0820   49.0510 C   0  0  0  0  0  0  0  0  0  0  0  0
   62.1060   34.1620   50.3960 C   0  0  0  0  0  0  0  0  0  0  0  0
   60.9000   33.4230   50.3320 O   0  0  0  0  0  0  0  0  0  0  0  0
   59.8220   34.2160   49.8610 C   0  0  0  0  0  0  0  0  0  0  0  0
   59.3830   33.7430   48.4740 C   0  0  0  0  0  0  0  0  0  0  0  0
   60.1870   32.6020   48.0320 N   0  0  0  0  0  0  0  0  0  0  0  0
   59.5660   31.4710   47.3820 C   0  0  0  0  0  0  0  0  0  0  0  0
   58.9250   31.6500   46.1440 C   0  0  0  0  0  0  0  0  0  0  0  0
   58.3670   32.8960   45.7950 C   0  0  0  0  0  0  0  0  0  0  0  0
   57.7050   33.0610   44.5810 C   0  0  0  0  0  0  0  0  0  0  0  0
   57.5760   31.9860   43.7070 C   0  0  0  0  0  0  0  0  0  0  0  0
   58.1200   30.7440   44.0360 C   0  0  0  0  0  0  0  0  0  0  0  0
   58.8200   30.5560   45.2530 C   0  0  0  0  0  0  0  0  0  0  0  0
   59.4040   29.3500   45.5810 N   0  0  0  0  0  0  0  0  0  0  0  0
   59.6450   28.3360   44.5320 C   0  0  0  0  0  0  0  0  0  0  0  0
   59.7490   29.0940   46.8960 C   0  0  0  0  0  0  0  0  0  0  0  0
   60.0770   27.7860   47.3280 C   0  0  0  0  0  0  0  0  0  0  0  0
   60.3930   27.5260   48.6540 C   0  0  0  0  0  0  0  0  0  0  0  0
   60.3080   28.5330   49.6040 C   0  0  0  0  0  0  0  0  0  0  0  0
   59.9500   29.8400   49.2390 C   0  0  0  0  0  0  0  0  0  0  0  0
   59.5410   30.7610   50.2710 N   0  0  0  0  0  0  0  0  0  0  0  0
   58.7750   30.3990   51.4690 C   0  0  0  0  0  0  0  0  0  0  0  0
   57.3830   31.0470   51.4690 C   0  0  0  0  0  0  0  0  0  0  0  0
   56.3420   30.0900   51.9050 N   0  0  0  0  0  0  0  0  0  0  0  0
   55.0360   30.7600   52.0470 C   0  0  0  0  0  0  0  0  0  0  0  0
   56.7160   29.4720   53.1870 C   0  0  0  0  0  0  0  0  0  0  0  0
   59.7570   30.1490   47.8570 C   0  0  0  0  0  0  0  0  0  0  0  0
   63.1723   31.0953   51.3916 H   0  0  0  0  0  0  0  0  0  0  0  0
   61.9626   31.1732   50.0660 H   0  0  0  0  0  0  0  0  0  0  0  0
   63.2133   29.8838   50.0660 H   0  0  0  0  0  0  0  0  0  0  0  0
   64.5107   32.4756   50.2125 H   0  0  0  0  0  0  0  0  0  0  0  0
   64.6215   31.2097   48.9257 H   0  0  0  0  0  0  0  0  0  0  0  0
   64.6914   32.3980   47.1571 H   0  0  0  0  0  0  0  0  0  0  0  0
   63.0188   31.8063   46.7137 H   0  0  0  0  0  0  0  0  0  0  0  0
   63.1826   34.7243   47.0470 H   0  0  0  0  0  0  0  0  0  0  0  0
   64.2272   34.0932   45.7289 H   0  0  0  0  0  0  0  0  0  0  0  0
   62.4668   33.7359   45.7289 H   0  0  0  0  0  0  0  0  0  0  0  0
   63.8039   34.6352   49.1563 H   0  0  0  0  0  0  0  0  0  0  0  0
   62.1826   34.5089   48.2959 H   0  0  0  0  0  0  0  0  0  0  0  0
   62.7422   33.7489   51.1926 H   0  0  0  0  0  0  0  0  0  0  0  0
   61.8682   35.2146   50.6094 H   0  0  0  0  0  0  0  0  0  0  0  0
   58.9759   34.1298   50.5587 H   0  0  0  0  0  0  0  0  0  0  0  0
   60.1500   35.2639   49.7951 H   0  0  0  0  0  0  0  0  0  0  0  0
   58.3251   33.4443   48.5136 H   0  0  0  0  0  0  0  0  0  0  0  0
   59.5229   34.5686   47.7607 H   0  0  0  0  0  0  0  0  0  0  0  0
   61.1760   32.8370   47.8320 H   0  0  0  0  0  0  0  0  0  0  0  0
   58.4551   33.7459   46.4877 H   0  0  0  0  0  0  0  0  0  0  0  0
   57.2840   34.0413   44.3130 H   0  0  0  0  0  0  0  0  0  0  0  0
   57.0433   32.1158   42.7534 H   0  0  0  0  0  0  0  0  0  0  0  0
   58.0037   29.8994   43.3409 H   0  0  0  0  0  0  0  0  0  0  0  0
   59.8749   27.3688   45.0029 H   0  0  0  0  0  0  0  0  0  0  0  0
   58.7459   28.2348   43.9064 H   0  0  0  0  0  0  0  0  0  0  0  0
   60.4935   28.6501   43.9064 H   0  0  0  0  0  0  0  0  0  0  0  0
   60.0814   26.9616   46.5998 H   0  0  0  0  0  0  0  0  0  0  0  0
   60.7123   26.5167   48.9530 H   0  0  0  0  0  0  0  0  0  0  0  0
   60.5241   28.3041   50.6580 H   0  0  0  0  0  0  0  0  0  0  0  0
   59.7560   31.7760   50.1310 H   0  0  0  0  0  0  0  0  0  0  0  0
   58.6594   29.3056   51.5016 H   0  0  0  0  0  0  0  0  0  0  0  0
   59.3233   30.7633   52.3503 H   0  0  0  0  0  0  0  0  0  0  0  0
   57.3885   31.9069   52.1550 H   0  0  0  0  0  0  0  0  0  0  0  0
   57.1504   31.3678   50.4428 H   0  0  0  0  0  0  0  0  0  0  0  0
   54.8001   30.8810   53.1146 H   0  0  0  0  0  0  0  0  0  0  0  0
   55.0768   31.7485   51.5662 H   0  0  0  0  0  0  0  0  0  0  0  0
   54.2569   30.1503   51.5662 H   0  0  0  0  0  0  0  0  0  0  0  0
   56.3414   30.0910   54.0155 H   0  0  0  0  0  0  0  0  0  0  0  0
   56.2747   28.4665   53.2519 H   0  0  0  0  0  0  0  0  0  0  0  0
   57.8115   29.3965   53.2519 H   0  0  0  0  0  0  0  0  0  0  0  0
  1  2  1  0
  2  3  1  0
  3  4  1  0
  4  5  1  0
  3  6  1  0
  6  7  1  0
  7  8  1  0
  8  9  1  0
  9 10  1  0
 10 11  1  0
 11 12  1  0
 12 13  2  0
 13 14  1  0
 14 15  2  0
 15 16  1  0
 16 17  2  0
 17 18  1  0
 18 19  2  0
 19 20  1  0
 19 21  1  0
 21 22  2  0
 22 23  1  0
 23 24  2  0
 24 25  1  0
 25 26  1  0
 26 27  1  0
 27 28  1  0
 28 29  1  0
 29 30  1  0
 29 31  1  0
 25 32  2  0
 32 12  1  0
 18 13  1  0
 32 21  1  0
  1 33  1  0
  1 34  1  0
  1 35  1  0
  2 36  1  0
  2 37  1  0
  4 38  1  0
  4 39  1  0
  5 40  1  0
  5 41  1  0
  5 42  1  0
  6 43  1  0
  6 44  1  0
  7 45  1  0
  7 46  1  0
  9 47  1  0
  9 48  1  0
 10 49  1  0
 10 50  1  0
 11 51  1  0
 14 52  1  0
 15 53  1  0
 16 54  1  0
 17 55  1  0
 20 56  1  0
 20 57  1  0
 20 58  1  0
 22 59  1  0
 23 60  1  0
 24 61  1  0
 26 62  1  0
 27 63  1  0
 27 64  1  0
 28 65  1  0
 28 66  1  0
 30 67  1  0
 30 68  1  0
 30 69  1  0
 31 70  1  0
 31 71  1  0
 31 72  1  0
M  CHG  1  19   1
M  END
>  <UniqueID>  (22) 
22

>  <SMILES>  (22) 
CCN(CC)CCOCCNc1c2ccccc2[n+](C)c2cccc(NCCN(C)C)c12

>  <Energy>  (22) 
115.8308222551762

>  <Genealogy>  (22) 
CCN(CC)CCOCCNc1c2ccccc2[n+](C)c2cccc(NCCN(C)C)c12 (3D coordinates assigned)
CCN(CC)CCOCCNc1c2ccccc2[n+](C)c2cccc(NCCN(C)C)c12 (optimized conformer: 115.8308222551762 kcal/mol)

>  <smiles>  (22) 
CCN(CC)CCOCCNc1c2ccccc2[n+](C)c2cccc(NCCN(C)C)c12

>  <score_type>  (22) 
oracle

>  <origin>  (22) 
adg

>  <m_score__min__energy>  (22) 
-5.5199999999999996

>  <m_primary>  (22) 
energy

$$$$
22:0
     RDKit          3D

 36 35  0  0  0  0  0  0  0  0999 V2000
   59.8380   34.1940   48.9390 C   0  0  0  0  0  0  0  0  0  0  0  0
   58.8770   33.8330   47.7940 C   0  0  0  0  0  0  0  0  0  0  0  0
   59.4660   33.8990   46.4170 N   0  0  0  0  0  0  0  0  0  0  0  0
   59.6570   35.3210   46.0260 C   0  0  0  0  0  0  0  0  0  0  0  0
   60.8120   33.2730   46.4590 C   0  0  0  0  0  0  0  0  0  0  0  0
   58.6210   33.2420   45.3670 C   0  0  0  0  0  0  0  0  0  0  0  0
   57.1570   32.9380   45.7670 C   0  0  0  0  0  0  0  0  0  0  0  0
   56.6850   31.7010   45.1330 N   0  0  0  0  0  0  0  0  0  0  0  0
   57.4050   31.4580   43.8770 C   0  0  0  0  0  0  0  0  0  0  0  0
   56.9250   30.1620   43.2090 C   0  0  0  0  0  0  0  0  0  0  0  0
   56.6000   29.0520   44.2190 C   0  0  0  0  0  0  0  0  0  0  0  0
   55.4880   29.4380   45.0830 N   0  0  0  0  0  0  0  0  0  0  0  0
   59.3443   34.0085   49.9043 H   0  0  0  0  0  0  0  0  0  0  0  0
   60.7444   33.5751   48.8659 H   0  0  0  0  0  0  0  0  0  0  0  0
   60.1127   35.2566   48.8659 H   0  0  0  0  0  0  0  0  0  0  0  0
   58.5195   32.8063   47.9616 H   0  0  0  0  0  0  0  0  0  0  0  0
   58.0776   34.5883   47.8189 H   0  0  0  0  0  0  0  0  0  0  0  0
   59.7404   35.9419   46.9302 H   0  0  0  0  0  0  0  0  0  0  0  0
   60.5761   35.4169   45.4293 H   0  0  0  0  0  0  0  0  0  0  0  0
   58.7958   35.6561   45.4293 H   0  0  0  0  0  0  0  0  0  0  0  0
   61.1177   33.1308   47.5060 H   0  0  0  0  0  0  0  0  0  0  0  0
   60.7789   32.2979   45.9510 H   0  0  0  0  0  0  0  0  0  0  0  0
   61.5364   33.9266   45.9510 H   0  0  0  0  0  0  0  0  0  0  0  0
   58.5995   33.9045   44.4891 H   0  0  0  0  0  0  0  0  0  0  0  0
   59.0870   32.2632   45.1807 H   0  0  0  0  0  0  0  0  0  0  0  0
   57.0982   32.8273   46.8598 H   0  0  0  0  0  0  0  0  0  0  0  0
   56.5213   33.7698   45.4294 H   0  0  0  0  0  0  0  0  0  0  0  0
   56.8930   30.9060   45.7830 H   0  0  0  0  0  0  0  0  0  0  0  0
   57.2297   32.3014   43.1930 H   0  0  0  0  0  0  0  0  0  0  0  0
   58.4774   31.3600   44.1014 H   0  0  0  0  0  0  0  0  0  0  0  0
   56.0183   30.3827   42.6266 H   0  0  0  0  0  0  0  0  0  0  0  0
   57.7437   29.7975   42.5711 H   0  0  0  0  0  0  0  0  0  0  0  0
   56.3295   28.1366   43.6724 H   0  0  0  0  0  0  0  0  0  0  0  0
   57.4869   28.8792   44.8464 H   0  0  0  0  0  0  0  0  0  0  0  0
   55.8850   29.7220   46.0080 H   0  0  0  0  0  0  0  0  0  0  0  0
   55.0370   30.2900   44.6770 H   0  0  0  0  0  0  0  0  0  0  0  0
  1  2  1  0
  2  3  1  0
  3  4  1  0
  3  5  1  0
  3  6  1  0
  6  7  1  0
  7  8  1  0
  8  9  1  0
  9 10  1  0
 10 11  1  0
 11 12  1  0
  1 13  1  0
  1 14  1  0
  1 15  1  0
  2 16  1  0
  2 17  1  0
  4 18  1  0
  4 19  1  0
  4 20  1  0
  5 21  1  0
  5 22  1  0
  5 23  1  0
  6 24  1  0
  6 25  1  0
  7 26  1  0
  7 27  1  0
  8 28  1  0
  9 29  1  0
  9 30  1  0
 10 31  1  0
 10 32  1  0
 11 33  1  0
 11 34  1  0
 12 35  1  0
 12 36  1  0
M  CHG  1   3   1
M  END
>  <UniqueID>  (23) 
23

>  <SMILES>  (23) 
CC[N+](C)(C)CCNCCCN

>  <Energy>  (23) 
33.41826215537482

>  <Genealogy>  (23) 
CC[N+](C)(C)CCNCCCN (3D coordinates assigned)
CC[N+](C)(C)CCNCCCN (optimized conformer: 33.41826215537482 kcal/mol)

>  <smiles>  (23) 
CC[N+](C)(C)CCNCCCN

>  <score_type>  (23) 
oracle

>  <origin>  (23) 
adg

>  <m_score__min__energy>  (23) 
-3.1600000000000001

>  <m_primary>  (23) 
energy

$$$$
23:0
     RDKit          3D

 59 63  0  0  0  0  0  0  0  0999 V2000
   57.6780   31.0150   51.2590 C   0  0  0  0  0  0  0  0  0  0  0  0
   58.2440   32.4310   51.3170 C   0  0  0  0  0  0  0  0  0  0  0  0
   59.5510   32.5150   50.6210 N   0  0  0  0  0  0  0  0  0  0  0  0
   59.7360   33.8820   50.0960 C   0  0  0  0  0  0  0  0  0  0  0  0
   59.6050   31.5180   49.5230 C   0  0  0  0  0  0  0  0  0  0  0  0
   61.0370   31.2170   49.0280 C   0  0  0  0  0  0  0  0  0  0  0  0
   61.1840   31.1980   47.5560 N   0  0  0  0  0  0  0  0  0  0  0  0
   59.9520   30.8680   46.8460 C   0  0  0  0  0  0  0  0  0  0  0  0
   59.5310   29.5130   46.7110 C   0  0  0  0  0  0  0  0  0  0  0  0
   58.4680   29.2070   45.8200 C   0  0  0  0  0  0  0  0  0  0  0  0
   57.9910   30.1760   44.9700 N   0  0  0  0  0  0  0  0  0  0  0  0
   57.3880   29.8100   43.6760 C   0  0  0  0  0  0  0  0  0  0  0  0
   58.1710   31.5020   45.2860 C   0  0  0  0  0  0  0  0  0  0  0  0
   57.3930   32.5090   44.6600 C   0  0  0  0  0  0  0  0  0  0  0  0
   57.5370   33.8470   45.0090 C   0  0  0  0  0  0  0  0  0  0  0  0
   58.4480   34.2150   45.9880 C   0  0  0  0  0  0  0  0  0  0  0  0
   59.2370   33.2520   46.6130 C   0  0  0  0  0  0  0  0  0  0  0  0
   59.1340   31.8800   46.2620 C   0  0  0  0  0  0  0  0  0  0  0  0
   57.8880   27.8280   45.8910 C   0  0  0  0  0  0  0  0  0  0  0  0
   56.7370   27.3750   45.3250 N   0  0  0  0  0  0  0  0  0  0  0  0
   56.5260   26.1530   45.8450 C   0  0  0  0  0  0  0  0  0  0  0  0
   55.4320   25.3190   45.6170 C   0  0  0  0  0  0  0  0  0  0  0  0
   55.3540   24.1160   46.3450 C   0  0  0  0  0  0  0  0  0  0  0  0
   53.8820   22.9320   46.0690 Br  0  0  0  0  0  0  0  0  0  0  0  0
   56.3510   23.7910   47.2940 C   0  0  0  0  0  0  0  0  0  0  0  0
   57.4330   24.6620   47.5170 C   0  0  0  0  0  0  0  0  0  0  0  0
   57.4950   25.8290   46.7570 C   0  0  0  0  0  0  0  0  0  0  0  0
   58.3690   26.8920   46.7930 C   0  0  0  0  0  0  0  0  0  0  0  0
   59.3650   27.2200   47.8510 C   0  0  0  0  0  0  0  0  0  0  0  0
   60.2800   28.3550   47.3780 C   0  0  0  0  0  0  0  0  0  0  0  0
   57.5274   30.6382   52.2814 H   0  0  0  0  0  0  0  0  0  0  0  0
   56.7153   31.0264   50.7269 H   0  0  0  0  0  0  0  0  0  0  0  0
   58.3833   30.3597   50.7269 H   0  0  0  0  0  0  0  0  0  0  0  0
   57.5356   33.1206   50.8346 H   0  0  0  0  0  0  0  0  0  0  0  0
   58.3931   32.7036   52.3722 H   0  0  0  0  0  0  0  0  0  0  0  0
   59.8314   34.5871   50.9349 H   0  0  0  0  0  0  0  0  0  0  0  0
   60.6473   33.9184   49.4809 H   0  0  0  0  0  0  0  0  0  0  0  0
   58.8672   34.1593   49.4809 H   0  0  0  0  0  0  0  0  0  0  0  0
   59.1577   30.5799   49.8833 H   0  0  0  0  0  0  0  0  0  0  0  0
   59.0540   31.9460   48.6726 H   0  0  0  0  0  0  0  0  0  0  0  0
   61.7095   31.9887   49.4309 H   0  0  0  0  0  0  0  0  0  0  0  0
   61.2847   30.2051   49.3811 H   0  0  0  0  0  0  0  0  0  0  0  0
   61.5370   32.1250   47.2300 H   0  0  0  0  0  0  0  0  0  0  0  0
   61.9640   30.5470   47.3540 H   0  0  0  0  0  0  0  0  0  0  0  0
   56.4596   29.2465   43.8504 H   0  0  0  0  0  0  0  0  0  0  0  0
   57.1612   30.7230   43.1059 H   0  0  0  0  0  0  0  0  0  0  0  0
   58.0932   29.1874   43.1059 H   0  0  0  0  0  0  0  0  0  0  0  0
   56.6640   32.2269   43.8860 H   0  0  0  0  0  0  0  0  0  0  0  0
   56.9281   34.6142   44.5084 H   0  0  0  0  0  0  0  0  0  0  0  0
   58.5480   35.2729   46.2724 H   0  0  0  0  0  0  0  0  0  0  0  0
   59.9513   33.5594   47.3910 H   0  0  0  0  0  0  0  0  0  0  0  0
   56.0650   27.8780   44.7100 H   0  0  0  0  0  0  0  0  0  0  0  0
   54.6531   25.5926   44.8901 H   0  0  0  0  0  0  0  0  0  0  0  0
   56.2800   22.8513   47.8613 H   0  0  0  0  0  0  0  0  0  0  0  0
   58.2044   24.4299   48.2661 H   0  0  0  0  0  0  0  0  0  0  0  0
   58.8368   27.5344   48.7632 H   0  0  0  0  0  0  0  0  0  0  0  0
   59.9749   26.3289   48.0605 H   0  0  0  0  0  0  0  0  0  0  0  0
   60.8233   28.7491   48.2495 H   0  0  0  0  0  0  0  0  0  0  0  0
   60.9542   27.9295   46.6201 H   0  0  0  0  0  0  0  0  0  0  0  0
  1  2  1  0
  2  3  1  0
  3  4  1  0
  3  5  1  0
  5  6  1  0
  6  7  1  0
  7  8  1  0
  8  9  2  0
  9 10  1  0
 10 11  2  0
 11 12  1  0
 11 13  1  0
 13 14  2  0
 14 15  1  0
 15 16  2  0
 16 17  1  0
 17 18  2  0
 10 19  1  0
 19 20  1  0
 20 21  1  0
 21 22  2  0
 22 23  1  0
 23 24  1  0
 23 25  2  0
 25 26  1  0
 26 27  2  0
 27 28  1  0
 28 29  1  0
 29 30  1  0
 18  8  1  0
 28 19  2  0
 30  9  1  0
 18 13  1  0
 27 21  1  0
  1 31  1  0
  1 32  1  0
  1 33  1  0
  2 34  1  0
  2 35  1  0
  4 36  1  0
  4 37  1  0
  4 38  1  0
  5 39  1  0
  5 40  1  0
  6 41  1  0
  6 42  1  0
  7 43  1  0
  7 44  1  0
 12 45  1  0
 12 46  1  0
 12 47  1  0
 14 48  1  0
 15 49  1  0
 16 50  1  0
 17 51  1  0
 20 52  1  0
 22 53  1  0
 25 54  1  0
 26 55  1  0
 29 56  1  0
 29 57  1  0
 30 58  1  0
 30 59  1  0
M  CHG  2   7   1  11   1
M  END
>  <UniqueID>  (24) 
24

>  <SMILES>  (24) 
CCN(C)CC[NH2+]c1c2c([n+](C)c3ccccc13)-c1[nH]c3cc(Br)ccc3c1CC2

>  <Energy>  (24) 
134.0988541066133

>  <Genealogy>  (24) 
CCN(C)CC[NH2+]c1c2c([n+](C)c3ccccc13)-c1[nH]c3cc(Br)ccc3c1CC2 (protonated)
CCN(C)CC[NH2+]c1c2c([n+](C)c3ccccc13)-c1[nH]c3cc(Br)ccc3c1CC2 (3D coordinates assigned)
CCN(C)CC[NH2+]c1c2c([n+](C)c3ccccc13)-c1[nH]c3cc(Br)ccc3c1CC2 (nonaromatic ring conformer: 134.0988541066133 kcal/mol)

>  <smiles>  (24) 
CCN(C)CCNc1c2c([n+](C)c3ccccc13)-c1[nH]c3cc(Br)ccc3c1CC2

>  <score_type>  (24) 
oracle

>  <origin>  (24) 
adg

>  <m_score__min__energy>  (24) 
-6.0700000000000003

>  <m_primary>  (24) 
energy

$$$$
24:0
     RDKit          3D

 71 74  0  0  0  0  0  0  0  0999 V2000
   56.0990   30.8430   51.9870 C   0  0  0  0  0  0  0  0  0  0  0  0
   57.0090   32.0190   52.3240 C   0  0  0  0  0  0  0  0  0  0  0  0
   58.4400   31.6580   52.1510 N   0  0  0  0  0  0  0  0  0  0  0  0
   58.9110   30.8970   53.3340 C   0  0  0  0  0  0  0  0  0  0  0  0
   60.2350   31.4640   53.8400 C   0  0  0  0  0  0  0  0  0  0  0  0
   59.2390   32.8920   51.9520 C   0  0  0  0  0  0  0  0  0  0  0  0
   59.3620   33.3160   50.4780 C   0  0  0  0  0  0  0  0  0  0  0  0
   58.4150   32.6190   49.6040 N   0  0  0  0  0  0  0  0  0  0  0  0
   58.8030   32.1320   48.3100 C   0  0  0  0  0  0  0  0  0  0  0  0
   58.9520   33.0610   47.2640 C   0  0  0  0  0  0  0  0  0  0  0  0
   59.1270   34.4360   47.5310 C   0  0  0  0  0  0  0  0  0  0  0  0
   59.3010   35.3470   46.4920 C   0  0  0  0  0  0  0  0  0  0  0  0
   59.3120   34.9040   45.1750 C   0  0  0  0  0  0  0  0  0  0  0  0
   59.1370   33.5500   44.8880 C   0  0  0  0  0  0  0  0  0  0  0  0
   58.9330   32.6060   45.9260 C   0  0  0  0  0  0  0  0  0  0  0  0
   58.7170   31.2720   45.6620 N   0  0  0  0  0  0  0  0  0  0  0  0
   58.3050   30.8510   44.3050 C   0  0  0  0  0  0  0  0  0  0  0  0
   58.8860   30.3360   46.6670 C   0  0  0  0  0  0  0  0  0  0  0  0
   59.0080   28.9640   46.3480 C   0  0  0  0  0  0  0  0  0  0  0  0
   59.1870   28.0090   47.3330 C   0  0  0  0  0  0  0  0  0  0  0  0
   59.3130   28.3910   48.6550 C   0  0  0  0  0  0  0  0  0  0  0  0
   59.2440   29.7420   49.0440 C   0  0  0  0  0  0  0  0  0  0  0  0
   59.6410   30.0270   50.4130 N   0  0  0  0  0  0  0  0  0  0  0  0
   60.7560   29.1640   50.8430 C   0  0  0  0  0  0  0  0  0  0  0  0
   62.1340   29.7590   50.4950 C   0  0  0  0  0  0  0  0  0  0  0  0
   62.2050   31.2640   50.7910 C   0  0  0  0  0  0  0  0  0  0  0  0
   62.4440   32.0360   49.5620 N   0  0  0  0  0  0  0  0  0  0  0  0
   62.4070   31.4020   48.3490 C   0  0  0  0  0  0  0  0  0  0  0  0
   62.6650   32.1080   47.1720 C   0  0  0  0  0  0  0  0  0  0  0  0
   62.9630   33.4670   47.2420 C   0  0  0  0  0  0  0  0  0  0  0  0
   62.9980   34.1060   48.4800 C   0  0  0  0  0  0  0  0  0  0  0  0
   62.7300   33.3730   49.6380 C   0  0  0  0  0  0  0  0  0  0  0  0
   58.9720   30.7440   48.0400 C   0  0  0  0  0  0  0  0  0  0  0  0
   55.7399   30.3789   52.9174 H   0  0  0  0  0  0  0  0  0  0  0  0
   55.2400   31.2005   51.4002 H   0  0  0  0  0  0  0  0  0  0  0  0
   56.6606   30.1012   51.4002 H   0  0  0  0  0  0  0  0  0  0  0  0
   56.7684   32.8611   51.6584 H   0  0  0  0  0  0  0  0  0  0  0  0
   56.8445   32.2965   53.3756 H   0  0  0  0  0  0  0  0  0  0  0  0
   58.1581   30.9667   54.1329 H   0  0  0  0  0  0  0  0  0  0  0  0
   59.0603   29.8461   53.0455 H   0  0  0  0  0  0  0  0  0  0  0  0
   60.2370   31.4649   54.9400 H   0  0  0  0  0  0  0  0  0  0  0  0
   61.0646   30.8422   53.4723 H   0  0  0  0  0  0  0  0  0  0  0  0
   60.3574   32.4935   53.4723 H   0  0  0  0  0  0  0  0  0  0  0  0
   58.7602   33.7100   52.5102 H   0  0  0  0  0  0  0  0  0  0  0  0
   60.2563   32.6788   52.3120 H   0  0  0  0  0  0  0  0  0  0  0  0
   59.1747   34.3976   50.4070 H   0  0  0  0  0  0  0  0  0  0  0  0
   60.3761   33.0536   50.1423 H   0  0  0  0  0  0  0  0  0  0  0  0
   57.6360   32.1150   50.0850 H   0  0  0  0  0  0  0  0  0  0  0  0
   59.1259   34.7921   48.5718 H   0  0  0  0  0  0  0  0  0  0  0  0
   59.4297   36.4167   46.7138 H   0  0  0  0  0  0  0  0  0  0  0  0
   59.4592   35.6234   44.3559 H   0  0  0  0  0  0  0  0  0  0  0  0
   59.1576   33.2101   43.8420 H   0  0  0  0  0  0  0  0  0  0  0  0
   57.5375   30.0667   44.3816 H   0  0  0  0  0  0  0  0  0  0  0  0
   57.8937   31.7148   43.7622 H   0  0  0  0  0  0  0  0  0  0  0  0
   59.1775   30.4584   43.7622 H   0  0  0  0  0  0  0  0  0  0  0  0
   58.9596   28.6494   45.2951 H   0  0  0  0  0  0  0  0  0  0  0  0
   59.2291   26.9434   47.0632 H   0  0  0  0  0  0  0  0  0  0  0  0
   59.4713   27.6196   49.4230 H   0  0  0  0  0  0  0  0  0  0  0  0
   58.8280   29.8160   51.0380 H   0  0  0  0  0  0  0  0  0  0  0  0
   59.8420   31.0190   50.6170 H   0  0  0  0  0  0  0  0  0  0  0  0
   60.6961   29.0279   51.9329 H   0  0  0  0  0  0  0  0  0  0  0  0
   60.6618   28.2070   50.3089 H   0  0  0  0  0  0  0  0  0  0  0  0
   62.9030   29.2440   51.0894 H   0  0  0  0  0  0  0  0  0  0  0  0
   62.3015   29.6176   49.4171 H   0  0  0  0  0  0  0  0  0  0  0  0
   61.2536   31.5871   51.2386 H   0  0  0  0  0  0  0  0  0  0  0  0
   63.0400   31.4442   51.4840 H   0  0  0  0  0  0  0  0  0  0  0  0
   62.1723   30.3284   48.3012 H   0  0  0  0  0  0  0  0  0  0  0  0
   62.6332   31.5959   46.1990 H   0  0  0  0  0  0  0  0  0  0  0  0
   63.1701   34.0342   46.3226 H   0  0  0  0  0  0  0  0  0  0  0  0
   63.2346   35.1783   48.5444 H   0  0  0  0  0  0  0  0  0  0  0  0
   62.7488   33.8729   50.6177 H   0  0  0  0  0  0  0  0  0  0  0  0
  1  2  1  0
  2  3  1  0
  3  4  1  0
  4  5  1  0
  3  6  1  0
  6  7  1  0
  7  8  1  0
  8  9  1  0
  9 10  2  0
 10 11  1  0
 11 12  2  0
 12 13  1  0
 13 14  2  0
 14 15  1  0
 15 16  2  0
 16 17  1  0
 16 18  1  0
 18 19  2  0
 19 20  1  0
 20 21  2  0
 21 22  1  0
 22 23  1  0
 23 24  1  0
 24 25  1  0
 25 26  1  0
 26 27  1  0
 27 28  2  0
 28 29  1  0
 29 30  2  0
 30 31  1  0
 31 32  2  0
 22 33  2  0
 33  9  1  0
 15 10  1  0
 33 18  1  0
 32 27  1  0
  1 34  1  0
  1 35  1  0
  1 36  1  0
  2 37  1  0
  2 38  1  0
  4 39  1  0
  4 40  1  0
  5 41  1  0
  5 42  1  0
  5 43  1  0
  6 44  1  0
  6 45  1  0
  7 46  1  0
  7 47  1  0
  8 48  1  0
 11 49  1  0
 12 50  1  0
 13 51  1  0
 14 52  1  0
 17 53  1  0
 17 54  1  0
 17 55  1  0
 19 56  1  0
 20 57  1  0
 21 58  1  0
 23 59  1  0
 23 60  1  0
 24 61  1  0
 24 62  1  0
 25 63  1  0
 25 64  1  0
 26 65  1  0
 26 66  1  0
 28 67  1  0
 29 68  1  0
 30 69  1  0
 31 70  1  0
 32 71  1  0
M  CHG  3  16   1  23   1  27   1
M  END
>  <UniqueID>  (25) 
25

>  <SMILES>  (25) 
CCN(CC)CCNc1c2ccccc2[n+](C)c2cccc([NH2+]CCC[n+]3ccccc3)c12

>  <Energy>  (25) 
109.26225177917406

>  <Genealogy>  (25) 
CCN(CC)CCNc1c2ccccc2[n+](C)c2cccc([NH2+]CCC[n+]3ccccc3)c12 (protonated)
CCN(CC)CCNc1c2ccccc2[n+](C)c2cccc([NH2+]CCC[n+]3ccccc3)c12 (3D coordinates assigned)
CCN(CC)CCNc1c2ccccc2[n+](C)c2cccc([NH2+]CCC[n+]3ccccc3)c12 (optimized conformer: 109.26225177917406 kcal/mol)

>  <smiles>  (25) 
CCN(CC)CCNc1c2ccccc2[n+](C)c2cccc(NCCC[n+]3ccccc3)c12

>  <score_type>  (25) 
oracle

>  <origin>  (25) 
adg

>  <m_score__min__energy>  (25) 
-3.3199999999999998

>  <m_primary>  (25) 
energy

$$$$
25:0
     RDKit          3D

 51 53  0  0  0  0  0  0  0  0999 V2000
   63.3220   33.8320   46.5220 C   0  0  0  0  0  0  0  0  0  0  0  0
   63.1060   32.6200   47.4470 C   0  0  0  0  0  0  0  0  0  0  0  0
   61.7890   32.5680   48.1480 N   0  0  0  0  0  0  0  0  0  0  0  0
   61.5050   33.7910   48.9480 C   0  0  0  0  0  0  0  0  0  0  0  0
   60.0210   34.1490   49.0870 C   0  0  0  0  0  0  0  0  0  0  0  0
   61.5490   31.2910   48.8720 C   0  0  0  0  0  0  0  0  0  0  0  0
   61.0530   30.1490   47.9550 C   0  0  0  0  0  0  0  0  0  0  0  0
   59.5970   30.1920   47.7960 N   0  0  0  0  0  0  0  0  0  0  0  0
   58.9850   30.0680   46.5000 C   0  0  0  0  0  0  0  0  0  0  0  0
   58.6910   28.7980   45.9720 C   0  0  0  0  0  0  0  0  0  0  0  0
   59.1200   27.6240   46.6300 C   0  0  0  0  0  0  0  0  0  0  0  0
   58.8640   26.3680   46.0850 C   0  0  0  0  0  0  0  0  0  0  0  0
   58.1980   26.2590   44.8710 C   0  0  0  0  0  0  0  0  0  0  0  0
   57.7700   27.4030   44.1980 C   0  0  0  0  0  0  0  0  0  0  0  0
   57.9880   28.6960   44.7400 C   0  0  0  0  0  0  0  0  0  0  0  0
   57.5560   29.8380   44.0930 N   0  0  0  0  0  0  0  0  0  0  0  0
   56.5840   29.7370   42.9810 C   0  0  0  0  0  0  0  0  0  0  0  0
   58.0250   31.0750   44.4910 C   0  0  0  0  0  0  0  0  0  0  0  0
   57.8450   32.2310   43.6910 C   0  0  0  0  0  0  0  0  0  0  0  0
   58.2660   33.4860   44.1310 C   0  0  0  0  0  0  0  0  0  0  0  0
   58.8870   33.6220   45.3700 C   0  0  0  0  0  0  0  0  0  0  0  0
   59.3050   34.9220   45.8280 C   0  0  0  0  0  0  0  0  0  0  0  0
   59.6420   35.9670   46.1940 N   0  0  0  0  0  0  0  0  0  0  0  0
   59.1200   32.4940   46.1580 C   0  0  0  0  0  0  0  0  0  0  0  0
   58.7170   31.2130   45.7250 C   0  0  0  0  0  0  0  0  0  0  0  0
   63.4827   34.7339   47.1309 H   0  0  0  0  0  0  0  0  0  0  0  0
   64.2030   33.6564   45.8872 H   0  0  0  0  0  0  0  0  0  0  0  0
   62.4346   33.9715   45.8872 H   0  0  0  0  0  0  0  0  0  0  0  0
   63.2011   31.7088   46.8381 H   0  0  0  0  0  0  0  0  0  0  0  0
   63.8643   32.7080   48.2390 H   0  0  0  0  0  0  0  0  0  0  0  0
   61.0820   32.5920   47.3730 H   0  0  0  0  0  0  0  0  0  0  0  0
   61.9149   33.6402   49.9576 H   0  0  0  0  0  0  0  0  0  0  0  0
   61.9714   34.6264   48.4052 H   0  0  0  0  0  0  0  0  0  0  0  0
   59.7575   34.2126   50.1531 H   0  0  0  0  0  0  0  0  0  0  0  0
   59.8309   35.1188   48.6038 H   0  0  0  0  0  0  0  0  0  0  0  0
   59.4097   33.3726   48.6038 H   0  0  0  0  0  0  0  0  0  0  0  0
   62.4912   30.9752   49.3436 H   0  0  0  0  0  0  0  0  0  0  0  0
   60.7571   31.4808   49.6115 H   0  0  0  0  0  0  0  0  0  0  0  0
   61.5251   30.2516   46.9668 H   0  0  0  0  0  0  0  0  0  0  0  0
   61.3249   29.1883   48.4167 H   0  0  0  0  0  0  0  0  0  0  0  0
   58.9950   30.1590   48.6480 H   0  0  0  0  0  0  0  0  0  0  0  0
   59.6624   27.7026   47.5837 H   0  0  0  0  0  0  0  0  0  0  0  0
   59.1896   25.4616   46.6165 H   0  0  0  0  0  0  0  0  0  0  0  0
   58.0073   25.2658   44.4384 H   0  0  0  0  0  0  0  0  0  0  0  0
   57.2551   27.3013   43.2313 H   0  0  0  0  0  0  0  0  0  0  0  0
   55.5684   29.6315   43.3902 H   0  0  0  0  0  0  0  0  0  0  0  0
   56.6378   30.6456   42.3633 H   0  0  0  0  0  0  0  0  0  0  0  0
   56.8235   28.8589   42.3633 H   0  0  0  0  0  0  0  0  0  0  0  0
   57.3649   32.1369   42.7058 H   0  0  0  0  0  0  0  0  0  0  0  0
   58.1070   34.3710   43.4973 H   0  0  0  0  0  0  0  0  0  0  0  0
   59.6244   32.6050   47.1292 H   0  0  0  0  0  0  0  0  0  0  0  0
  1  2  1  0
  2  3  1  0
  3  4  1  0
  4  5  1  0
  3  6  1  0
  6  7  1  0
  7  8  1  0
  8  9  1  0
  9 10  2  0
 10 11  1  0
 11 12  2  0
 12 13  1  0
 13 14  2  0
 14 15  1  0
 15 16  2  0
 16 17  1  0
 16 18  1  0
 18 19  2  0
 19 20  1  0
 20 21  2  0
 21 22  1  0
 22 23  3  0
 21 24  1  0
 24 25  2  0
 25  9  1  0
 15 10  1  0
 25 18  1  0
  1 26  1  0
  1 27  1  0
  1 28  1  0
  2 29  1  0
  2 30  1  0
  3 31  1  0
  4 32  1  0
  4 33  1  0
  5 34  1  0
  5 35  1  0
  5 36  1  0
  6 37  1  0
  6 38  1  0
  7 39  1  0
  7 40  1  0
  8 41  1  0
 11 42  1  0
 12 43  1  0
 13 44  1  0
 14 45  1  0
 17 46  1  0
 17 47  1  0
 17 48  1  0
 19 49  1  0
 20 50  1  0
 24 51  1  0
M  CHG  2   3   1  16   1
M  END
>  <UniqueID>  (26) 
26

>  <SMILES>  (26) 
CC[NH+](CC)CCNc1c2ccccc2[n+](C)c2ccc(C#N)cc12

>  <Energy>  (26) 
86.86339887570846

>  <Genealogy>  (26) 
CC[NH+](CC)CCNc1c2ccccc2[n+](C)c2ccc(C#N)cc12 (protonated)
CC[NH+](CC)CCNc1c2ccccc2[n+](C)c2ccc(C#N)cc12 (3D coordinates assigned)
CC[NH+](CC)CCNc1c2ccccc2[n+](C)c2ccc(C#N)cc12 (optimized conformer: 86.86339887570846 kcal/mol)

>  <smiles>  (26) 
CCN(CC)CCNc1c2ccccc2[n+](C)c2ccc(C#N)cc12

>  <score_type>  (26) 
oracle

>  <origin>  (26) 
adg

>  <m_score__min__energy>  (26) 
-4.6399999999999997

>  <m_primary>  (26) 
energy

$$$$
26:0
     RDKit          3D

 61 63  0  0  0  0  0  0  0  0999 V2000
   68.3290   34.1970   50.5150 C   0  0  0  0  0  0  0  0  0  0  0  0
   68.1130   32.8430   51.1990 C   0  0  0  0  0  0  0  0  0  0  0  0
   66.9270   32.1180   50.6720 N   0  0  1  0  0  0  0  0  0  0  0  0
   67.0700   30.6630   50.8860 C   0  0  0  0  0  0  0  0  0  0  0  0
   65.6800   32.5880   51.3310 C   0  0  0  0  0  0  0  0  0  0  0  0
   64.5760   33.0190   50.3380 C   0  0  0  0  0  0  0  0  0  0  0  0
   64.9670   32.8010   48.9950 O   0  0  0  0  0  0  0  0  0  0  0  0
   64.1070   33.4820   48.1030 C   0  0  0  0  0  0  0  0  0  0  0  0
   63.1550   32.4760   47.4670 C   0  0  0  0  0  0  0  0  0  0  0  0
   61.8800   32.6030   48.0580 O   0  0  0  0  0  0  0  0  0  0  0  0
   61.6390   31.5440   48.9680 C   0  0  0  0  0  0  0  0  0  0  0  0
   60.8910   30.4000   48.2780 C   0  0  0  0  0  0  0  0  0  0  0  0
   60.9030   30.5650   46.8250 N   0  0  0  0  0  0  0  0  0  0  0  0
   59.6770   30.5060   46.0770 C   0  0  0  0  0  0  0  0  0  0  0  0
   58.9660   31.6840   45.7890 C   0  0  0  0  0  0  0  0  0  0  0  0
   59.4060   32.9300   46.2780 C   0  0  0  0  0  0  0  0  0  0  0  0
   58.6660   34.0870   46.0480 C   0  0  0  0  0  0  0  0  0  0  0  0
   57.4700   34.0210   45.3480 C   0  0  0  0  0  0  0  0  0  0  0  0
   57.0220   32.8030   44.8420 C   0  0  0  0  0  0  0  0  0  0  0  0
   57.7740   31.6120   45.0190 C   0  0  0  0  0  0  0  0  0  0  0  0
   57.3680   30.4060   44.4790 N   0  0  0  0  0  0  0  0  0  0  0  0
   56.3030   30.3800   43.4490 C   0  0  0  0  0  0  0  0  0  0  0  0
   57.9750   29.2290   44.8780 C   0  0  0  0  0  0  0  0  0  0  0  0
   57.4400   27.9580   44.5370 C   0  0  0  0  0  0  0  0  0  0  0  0
   58.1000   26.7810   44.8900 C   0  0  0  0  0  0  0  0  0  0  0  0
   57.4260   25.2230   44.4350 Cl  0  0  0  0  0  0  0  0  0  0  0  0
   59.2960   26.8370   45.6030 C   0  0  0  0  0  0  0  0  0  0  0  0
   59.8210   28.0660   45.9860 C   0  0  0  0  0  0  0  0  0  0  0  0
   59.1640   29.2680   45.6530 C   0  0  0  0  0  0  0  0  0  0  0  0
   68.4536   34.9782   51.2793 H   0  0  0  0  0  0  0  0  0  0  0  0
   69.2312   34.1509   49.8873 H   0  0  0  0  0  0  0  0  0  0  0  0
   67.4573   34.4339   49.8873 H   0  0  0  0  0  0  0  0  0  0  0  0
   69.0059   32.2210   51.0385 H   0  0  0  0  0  0  0  0  0  0  0  0
   67.9381   33.0344   52.2680 H   0  0  0  0  0  0  0  0  0  0  0  0
   66.8510   32.2730   49.6400 H   0  0  0  0  0  0  0  0  0  0  0  0
   67.0908   30.4514   51.9653 H   0  0  0  0  0  0  0  0  0  0  0  0
   66.2190   30.1393   50.4260 H   0  0  0  0  0  0  0  0  0  0  0  0
   68.0067   30.3150   50.4260 H   0  0  0  0  0  0  0  0  0  0  0  0
   65.2871   31.7707   51.9536 H   0  0  0  0  0  0  0  0  0  0  0  0
   65.9447   33.4768   51.9226 H   0  0  0  0  0  0  0  0  0  0  0  0
   63.6650   32.4376   50.5431 H   0  0  0  0  0  0  0  0  0  0  0  0
   64.3945   34.0956   50.4724 H   0  0  0  0  0  0  0  0  0  0  0  0
   63.5295   34.2394   48.6533 H   0  0  0  0  0  0  0  0  0  0  0  0
   64.7001   33.9785   47.3209 H   0  0  0  0  0  0  0  0  0  0  0  0
   63.0807   32.6722   46.3872 H   0  0  0  0  0  0  0  0  0  0  0  0
   63.5355   31.4564   47.6268 H   0  0  0  0  0  0  0  0  0  0  0  0
   62.6003   31.1692   49.3493 H   0  0  0  0  0  0  0  0  0  0  0  0
   61.0222   31.9220   49.7966 H   0  0  0  0  0  0  0  0  0  0  0  0
   61.3757   29.4467   48.5355 H   0  0  0  0  0  0  0  0  0  0  0  0
   59.8463   30.4074   48.6222 H   0  0  0  0  0  0  0  0  0  0  0  0
   61.6870   31.1130   46.4040 H   0  0  0  0  0  0  0  0  0  0  0  0
   60.3449   32.9895   46.8480 H   0  0  0  0  0  0  0  0  0  0  0  0
   59.0304   35.0551   46.4220 H   0  0  0  0  0  0  0  0  0  0  0  0
   56.8742   34.9325   45.1922 H   0  0  0  0  0  0  0  0  0  0  0  0
   56.0683   32.7633   44.2954 H   0  0  0  0  0  0  0  0  0  0  0  0
   55.3188   30.3560   43.9397 H   0  0  0  0  0  0  0  0  0  0  0  0
   56.3779   31.2802   42.8213 H   0  0  0  0  0  0  0  0  0  0  0  0
   56.4217   29.4845   42.8213 H   0  0  0  0  0  0  0  0  0  0  0  0
   56.4899   27.9011   43.9856 H   0  0  0  0  0  0  0  0  0  0  0  0
   59.8250   25.9082   45.8629 H   0  0  0  0  0  0  0  0  0  0  0  0
   60.7610   28.1010   46.5562 H   0  0  0  0  0  0  0  0  0  0  0  0
  1  2  1  0
  2  3  1  0
  3  4  1  0
  3  5  1  0
  5  6  1  0
  6  7  1  0
  7  8  1  0
  8  9  1  0
  9 10  1  0
 10 11  1  0
 11 12  1  0
 12 13  1  0
 13 14  1  0
 14 15  2  0
 15 16  1  0
 16 17  2  0
 17 18  1  0
 18 19  2  0
 19 20  1  0
 20 21  2  0
 21 22  1  0
 21 23  1  0
 23 24  2  0
 24 25  1  0
 25 26  1  0
 25 27  2  0
 27 28  1  0
 28 29  2  0
 29 14  1  0
 20 15  1  0
 29 23  1  0
  1 30  1  0
  1 31  1  0
  1 32  1  0
  2 33  1  0
  2 34  1  0
  3 35  1  6
  4 36  1  0
  4 37  1  0
  4 38  1  0
  5 39  1  0
  5 40  1  0
  6 41  1  0
  6 42  1  0
  8 43  1  0
  8 44  1  0
  9 45  1  0
  9 46  1  0
 11 47  1  0
 11 48  1  0
 12 49  1  0
 12 50  1  0
 13 51  1  0
 16 52  1  0
 17 53  1  0
 18 54  1  0
 19 55  1  0
 22 56  1  0
 22 57  1  0
 22 58  1  0
 24 59  1  0
 27 60  1  0
 28 61  1  0
M  CHG  2   3   1  21   1
M  END
>  <UniqueID>  (27) 
27

>  <SMILES>  (27) 
CC[N@@H+](C)CCOCCOCCNc1c2ccccc2[n+](C)c2cc(Cl)ccc12

>  <Energy>  (27) 
86.42343038653682

>  <Genealogy>  (27) 
CC[NH+](C)CCOCCOCCNc1c2ccccc2[n+](C)c2cc(Cl)ccc12 (protonated)
CC[N@@H+](C)CCOCCOCCNc1c2ccccc2[n+](C)c2cc(Cl)ccc12 (chirality)
CC[N@@H+](C)CCOCCOCCNc1c2ccccc2[n+](C)c2cc(Cl)ccc12 (3D coordinates assigned)
CC[N@@H+](C)CCOCCOCCNc1c2ccccc2[n+](C)c2cc(Cl)ccc12 (optimized conformer: 86.42343038653682 kcal/mol)

>  <smiles>  (27) 
CCN(C)CCOCCOCCNc1c2ccccc2[n+](C)c2cc(Cl)ccc12

>  <score_type>  (27) 
oracle

>  <origin>  (27) 
adg

>  <m_score__min__energy>  (27) 
-3.96

>  <m_primary>  (27) 
energy

$$$$
27:0
     RDKit          3D

 50 52  0  0  0  0  0  0  0  0999 V2000
   63.6010   33.1150   46.8220 C   0  0  0  0  0  0  0  0  0  0  0  0
   62.9360   32.9430   48.1840 C   0  0  0  0  0  0  0  0  0  0  0  0
   62.1860   34.2040   48.6350 C   0  0  0  0  0  0  0  0  0  0  0  0
   60.7790   33.9070   49.1040 C   0  0  0  0  0  0  0  0  0  0  0  0
   60.5010   34.0870   50.2830 O   0  0  0  0  0  0  0  0  0  0  0  0
   59.7520   33.4620   48.1730 N   0  0  1  0  0  0  0  0  0  0  0  0
   60.0030   34.0690   46.8420 C   0  0  0  0  0  0  0  0  0  0  0  0
   58.8460   33.7840   45.8740 C   0  0  0  0  0  0  0  0  0  0  0  0
   58.5750   32.3200   45.8820 C   0  0  0  0  0  0  0  0  0  0  0  0
   58.9730   31.4660   46.8940 C   0  0  0  0  0  0  0  0  0  0  0  0
   58.7120   30.1750   46.5460 N   0  0  0  0  0  0  0  0  0  0  0  0
   59.0700   28.9650   47.2870 C   0  0  0  0  0  0  0  0  0  0  0  0
   58.0750   30.2370   45.3520 C   0  0  0  0  0  0  0  0  0  0  0  0
   57.5640   29.1840   44.5820 C   0  0  0  0  0  0  0  0  0  0  0  0
   56.9590   29.4970   43.3520 C   0  0  0  0  0  0  0  0  0  0  0  0
   56.8750   30.8340   42.9120 C   0  0  0  0  0  0  0  0  0  0  0  0
   57.3950   31.8770   43.7000 C   0  0  0  0  0  0  0  0  0  0  0  0
   57.9810   31.5390   44.9180 C   0  0  0  0  0  0  0  0  0  0  0  0
   59.7010   31.9620   48.1370 C   0  0  2  0  0  0  0  0  0  0  0  0
   59.0170   31.4180   49.4290 C   0  0  0  0  0  0  0  0  0  0  0  0
   58.1170   32.3650   49.9740 O   0  0  0  0  0  0  0  0  0  0  0  0
   57.7490   32.0020   51.2890 C   0  0  0  0  0  0  0  0  0  0  0  0
   58.1190   33.1290   52.2380 C   0  0  0  0  0  0  0  0  0  0  0  0
   64.6573   33.3882   46.9616 H   0  0  0  0  0  0  0  0  0  0  0  0
   63.5375   32.1709   46.2611 H   0  0  0  0  0  0  0  0  0  0  0  0
   63.0877   33.9099   46.2611 H   0  0  0  0  0  0  0  0  0  0  0  0
   62.2208   32.1094   48.1247 H   0  0  0  0  0  0  0  0  0  0  0  0
   63.7286   32.7440   48.9203 H   0  0  0  0  0  0  0  0  0  0  0  0
   62.7427   34.6681   49.4625 H   0  0  0  0  0  0  0  0  0  0  0  0
   62.1132   34.8766   47.7677 H   0  0  0  0  0  0  0  0  0  0  0  0
   58.8210   33.8210   48.4960 H   0  0  0  0  0  0  0  0  0  0  0  0
   60.1130   35.1572   46.9590 H   0  0  0  0  0  0  0  0  0  0  0  0
   60.9212   33.6285   46.4262 H   0  0  0  0  0  0  0  0  0  0  0  0
   57.9476   34.3297   46.1982 H   0  0  0  0  0  0  0  0  0  0  0  0
   59.1133   34.1129   44.8589 H   0  0  0  0  0  0  0  0  0  0  0  0
   59.0107   29.1654   48.3670 H   0  0  0  0  0  0  0  0  0  0  0  0
   58.3730   28.1552   47.0255 H   0  0  0  0  0  0  0  0  0  0  0  0
   60.0954   28.6648   47.0255 H   0  0  0  0  0  0  0  0  0  0  0  0
   57.6341   28.1427   44.9296 H   0  0  0  0  0  0  0  0  0  0  0  0
   56.5472   28.6910   42.7269 H   0  0  0  0  0  0  0  0  0  0  0  0
   56.3999   31.0629   41.9466 H   0  0  0  0  0  0  0  0  0  0  0  0
   57.3408   32.9236   43.3659 H   0  0  0  0  0  0  0  0  0  0  0  0
   60.7325   31.5823   48.0945 H   0  0  0  0  0  0  0  0  0  0  0  0
   58.4642   30.4997   49.1819 H   0  0  0  0  0  0  0  0  0  0  0  0
   59.7989   31.2137   50.1752 H   0  0  0  0  0  0  0  0  0  0  0  0
   56.6642   31.8252   51.3323 H   0  0  0  0  0  0  0  0  0  0  0  0
   58.2778   31.0828   51.5813 H   0  0  0  0  0  0  0  0  0  0  0  0
   58.0062   32.7855   53.2769 H   0  0  0  0  0  0  0  0  0  0  0  0
   59.1627   33.4287   52.0622 H   0  0  0  0  0  0  0  0  0  0  0  0
   57.4560   33.9890   52.0622 H   0  0  0  0  0  0  0  0  0  0  0  0
  1  2  1  0
  2  3  1  0
  3  4  1  0
  4  5  2  0
  4  6  1  0
  6  7  1  0
  7  8  1  0
  8  9  1  0
  9 10  2  0
 10 11  1  0
 11 12  1  0
 11 13  1  0
 13 14  2  0
 14 15  1  0
 15 16  2  0
 16 17  1  0
 17 18  2  0
 10 19  1  0
 19 20  1  0
 20 21  1  0
 21 22  1  0
 22 23  1  0
 19  6  1  0
 18  9  1  0
 18 13  1  0
  1 24  1  0
  1 25  1  0
  1 26  1  0
  2 27  1  0
  2 28  1  0
  3 29  1  0
  3 30  1  0
  6 31  1  1
  7 32  1  0
  7 33  1  0
  8 34  1  0
  8 35  1  0
 12 36  1  0
 12 37  1  0
 12 38  1  0
 14 39  1  0
 15 40  1  0
 16 41  1  0
 17 42  1  0
 19 43  1  6
 20 44  1  0
 20 45  1  0
 22 46  1  0
 22 47  1  0
 23 48  1  0
 23 49  1  0
 23 50  1  0
M  CHG  1   6   1
M  END
>  <UniqueID>  (28) 
28

>  <SMILES>  (28) 
CCCC(=O)[N@H+]1CCc2c(n(C)c3ccccc23)[C@@H]1COCC

>  <Energy>  (28) 
87.7870864757881

>  <Genealogy>  (28) 
CCCC(=O)[NH+]1CCc2c(n(C)c3ccccc23)C1COCC (protonated)
CCCC(=O)[N@H+]1CCc2c(n(C)c3ccccc23)[C@@H]1COCC (chirality)
CCCC(=O)[N@H+]1CCc2c(n(C)c3ccccc23)[C@@H]1COCC (3D coordinates assigned)
CCCC(=O)[N@H+]1CCc2c(n(C)c3ccccc23)[C@@H]1COCC (nonaromatic ring conformer: 87.7870864757881 kcal/mol)

>  <smiles>  (28) 
CCCC(=O)N1CCc2c(n(C)c3ccccc23)C1COCC

>  <score_type>  (28) 
oracle

>  <origin>  (28) 
adg

>  <m_score__min__energy>  (28) 
-5.3099999999999996

>  <m_primary>  (28) 
energy

$$$$
