0:0
     RDKit          3D

 56 58  0  0  0  0  0  0  0  0999 V2000
   58.5510   32.8690   48.0760 C   0  0  0  0  0  0  0  0  0  0  0  0
   57.5120   33.1010   46.9740 C   0  0  0  0  0  0  0  0  0  0  0  0
   58.0180   33.8540   45.8020 N   0  0  0  0  0  0  0  0  0  0  0  0
   59.4950   34.0060   45.7620 C   0  0  0  0  0  0  0  0  0  0  0  0
   60.0170   35.3470   46.3010 C   0  0  0  0  0  0  0  0  0  0  0  0
   57.3890   33.5400   44.4980 C   0  0  0  0  0  0  0  0  0  0  0  0
   58.1470   32.4430   43.7240 C   0  0  0  0  0  0  0  0  0  0  0  0
   57.7380   31.0570   44.1380 C   0  0  0  0  0  0  0  0  0  0  0  0
   56.7070   30.2960   43.5940 C   0  0  0  0  0  0  0  0  0  0  0  0
   56.6430   29.0870   44.1970 N   0  0  0  0  0  0  0  0  0  0  0  0
   57.6340   29.0720   45.1050 C   0  0  0  0  0  0  0  0  0  0  0  0
   57.9710   28.0300   45.9660 C   0  0  0  0  0  0  0  0  0  0  0  0
   59.0610   28.2200   46.8360 C   0  0  0  0  0  0  0  0  0  0  0  0
   59.7950   29.4370   46.8230 C   0  0  0  0  0  0  0  0  0  0  0  0
   60.8900   29.6600   47.6690 O   0  0  0  0  0  0  0  0  0  0  0  0
   60.7880   29.9410   49.0630 C   0  0  0  0  0  0  0  0  0  0  0  0
   61.5830   31.2080   49.4050 C   0  0  0  0  0  0  0  0  0  0  0  0
   62.4670   31.6380   48.2990 N   0  0  0  0  0  0  0  0  0  0  0  0
   61.8140   32.6370   47.4470 C   0  0  0  0  0  0  0  0  0  0  0  0
   62.9220   33.4350   46.7780 C   0  0  0  0  0  0  0  0  0  0  0  0
   64.1450   33.2390   47.6600 C   0  0  0  0  0  0  0  0  0  0  0  0
   63.7060   32.2790   48.7590 C   0  0  0  0  0  0  0  0  0  0  0  0
   59.4240   30.4640   45.9320 C   0  0  0  0  0  0  0  0  0  0  0  0
   58.3310   30.2500   45.0940 C   0  0  0  0  0  0  0  0  0  0  0  0
   58.0717   32.9760   49.0603 H   0  0  0  0  0  0  0  0  0  0  0  0
   58.9679   31.8556   47.9794 H   0  0  0  0  0  0  0  0  0  0  0  0
   59.3593   33.6088   47.9794 H   0  0  0  0  0  0  0  0  0  0  0  0
   57.1563   32.1204   46.6250 H   0  0  0  0  0  0  0  0  0  0  0  0
   56.7145   33.7138   47.4195 H   0  0  0  0  0  0  0  0  0  0  0  0
   59.9390   33.1989   46.3632 H   0  0  0  0  0  0  0  0  0  0  0  0
   59.7832   33.9640   44.7012 H   0  0  0  0  0  0  0  0  0  0  0  0
   60.0096   35.3280   47.4008 H   0  0  0  0  0  0  0  0  0  0  0  0
   61.0445   35.5107   45.9440 H   0  0  0  0  0  0  0  0  0  0  0  0
   59.3706   36.1623   45.9440 H   0  0  0  0  0  0  0  0  0  0  0  0
   56.3591   33.1976   44.6768 H   0  0  0  0  0  0  0  0  0  0  0  0
   57.4116   34.4550   43.8878 H   0  0  0  0  0  0  0  0  0  0  0  0
   57.9431   32.5646   42.6499 H   0  0  0  0  0  0  0  0  0  0  0  0
   59.2179   32.5558   43.9486 H   0  0  0  0  0  0  0  0  0  0  0  0
   56.0384   30.6308   42.7872 H   0  0  0  0  0  0  0  0  0  0  0  0
   55.9640   28.3210   43.9890 H   0  0  0  0  0  0  0  0  0  0  0  0
   57.4029   27.0880   45.9659 H   0  0  0  0  0  0  0  0  0  0  0  0
   59.3476   27.4186   47.5329 H   0  0  0  0  0  0  0  0  0  0  0  0
   59.7310   30.0923   49.3273 H   0  0  0  0  0  0  0  0  0  0  0  0
   61.1985   29.0938   49.6320 H   0  0  0  0  0  0  0  0  0  0  0  0
   60.8746   32.0199   49.6265 H   0  0  0  0  0  0  0  0  0  0  0  0
   62.2198   30.9791   50.2722 H   0  0  0  0  0  0  0  0  0  0  0  0
   62.7140   30.8120   47.7020 H   0  0  0  0  0  0  0  0  0  0  0  0
   61.1938   32.1393   46.6870 H   0  0  0  0  0  0  0  0  0  0  0  0
   61.1576   33.2921   48.0386 H   0  0  0  0  0  0  0  0  0  0  0  0
   63.1130   33.0541   45.7639 H   0  0  0  0  0  0  0  0  0  0  0  0
   62.6571   34.4975   46.6737 H   0  0  0  0  0  0  0  0  0  0  0  0
   64.9723   32.8055   47.0790 H   0  0  0  0  0  0  0  0  0  0  0  0
   64.5074   34.1923   48.0722 H   0  0  0  0  0  0  0  0  0  0  0  0
   64.4833   31.5197   48.9301 H   0  0  0  0  0  0  0  0  0  0  0  0
   63.5431   32.8143   49.7061 H   0  0  0  0  0  0  0  0  0  0  0  0
   59.9830   31.4108   45.8988 H   0  0  0  0  0  0  0  0  0  0  0  0
  1  2  1  0
  2  3  1  0
  3  4  1  0
  4  5  1  0
  3  6  1  0
  6  7  1  0
  7  8  1  0
  8  9  2  0
  9 10  1  0
 10 11  1  0
 11 12  2  0
 12 13  1  0
 13 14  2  0
 14 15  1  0
 15 16  1  0
 16 17  1  0
 17 18  1  0
 18 19  1  0
 19 20  1  0
 20 21  1  0
 21 22  1  0
 14 23  1  0
 23 24  2  0
 24  8  1  0
 24 11  1  0
 22 18  1  0
  1 25  1  0
  1 26  1  0
  1 27  1  0
  2 28  1  0
  2 29  1  0
  4 30  1  0
  4 31  1  0
  5 32  1  0
  5 33  1  0
  5 34  1  0
  6 35  1  0
  6 36  1  0
  7 37  1  0
  7 38  1  0
  9 39  1  0
 10 40  1  0
 12 41  1  0
 13 42  1  0
 16 43  1  0
 16 44  1  0
 17 45  1  0
 17 46  1  0
 18 47  1  0
 19 48  1  0
 19 49  1  0
 20 50  1  0
 20 51  1  0
 21 52  1  0
 21 53  1  0
 22 54  1  0
 22 55  1  0
 23 56  1  0
M  CHG  1  18   1
M  END
>  <UniqueID>  (1) 
1

>  <SMILES>  (1) 
CCN(CC)CCc1c[nH]c2ccc(OCC[NH+]3CCCC3)cc12

>  <Energy>  (1) 
95.07376965053082

>  <Genealogy>  (1) 
CCN(CC)CCc1c[nH]c2ccc(OCC[NH+]3CCCC3)cc12 (protonated)
CCN(CC)CCc1c[nH]c2ccc(OCC[NH+]3CCCC3)cc12 (3D coordinates assigned)
CCN(CC)CCc1c[nH]c2ccc(OCC[NH+]3CCCC3)cc12 (nonaromatic ring conformer: 95.07376965053082 kcal/mol)

>  <smiles>  (1) 
CCN(CC)CCc1c[nH]c2ccc(OCCN3CCCC3)cc12

>  <score_type>  (1) 
oracle

>  <origin>  (1) 
adg

>  <m_score__min__energy>  (1) 
-6.0499999999999998

>  <m_primary>  (1) 
energy

$$$$
1:0
     RDKit          3D

 58 62  0  0  0  0  0  0  0  0999 V2000
   57.7880   32.6850   43.3590 C   0  0  0  0  0  0  0  0  0  0  0  0
   57.8160   33.6020   44.4460 O   0  0  0  0  0  0  0  0  0  0  0  0
   58.7160   33.5370   45.5200 C   0  0  0  0  0  0  0  0  0  0  0  0
   59.1210   32.2810   45.9780 C   0  0  0  0  0  0  0  0  0  0  0  0
   60.0120   32.1630   47.0480 C   0  0  0  0  0  0  0  0  0  0  0  0
   60.5230   33.3090   47.6750 C   0  0  0  0  0  0  0  0  0  0  0  0
   61.4590   33.2010   48.8200 C   0  0  0  0  0  0  0  0  0  0  0  0
   62.7870   33.5820   48.8020 C   0  0  0  0  0  0  0  0  0  0  0  0
   63.3110   33.2620   50.0390 C   0  0  0  0  0  0  0  0  0  0  0  0
   64.7360   33.4440   50.3920 C   0  0  0  0  0  0  0  0  0  0  0  0
   65.1860   34.2380   51.4590 C   0  0  0  0  0  0  0  0  0  0  0  0
   66.5620   34.1920   51.6460 C   0  0  0  0  0  0  0  0  0  0  0  0
   67.2120   33.1510   50.5010 S   0  0  0  0  0  0  0  0  0  0  0  0
   65.7610   32.7490   49.7540 C   0  0  0  0  0  0  0  0  0  0  0  0
   62.3520   32.7170   50.8280 N   0  0  0  0  0  0  0  0  0  0  0  0
   62.5040   32.2320   52.2090 C   0  0  0  0  0  0  0  0  0  0  0  0
   63.5980   31.1930   52.3400 C   0  0  0  0  0  0  0  0  0  0  0  0
   63.6720   30.0850   51.4790 C   0  0  0  0  0  0  0  0  0  0  0  0
   64.7040   29.1590   51.6290 C   0  0  0  0  0  0  0  0  0  0  0  0
   65.6720   29.3530   52.6120 C   0  0  0  0  0  0  0  0  0  0  0  0
   65.5930   30.4790   53.4250 C   0  0  0  0  0  0  0  0  0  0  0  0
   64.5720   31.3690   53.2740 N   0  0  0  0  0  0  0  0  0  0  0  0
   61.2170   32.6770   50.0860 C   0  0  0  0  0  0  0  0  0  0  0  0
   59.9760   31.9980   50.5090 C   0  0  0  0  0  0  0  0  0  0  0  0
   59.7950   30.6250   50.2720 C   0  0  0  0  0  0  0  0  0  0  0  0
   58.6110   29.9880   50.6590 C   0  0  0  0  0  0  0  0  0  0  0  0
   57.5890   30.7210   51.2950 C   0  0  0  0  0  0  0  0  0  0  0  0
   56.3830   30.1270   51.7040 O   0  0  0  0  0  0  0  0  0  0  0  0
   55.2130   30.8530   52.0850 C   0  0  0  0  0  0  0  0  0  0  0  0
   57.7790   32.0900   51.5360 C   0  0  0  0  0  0  0  0  0  0  0  0
   58.9630   32.7250   51.1490 C   0  0  0  0  0  0  0  0  0  0  0  0
   60.1120   34.5720   47.2200 C   0  0  0  0  0  0  0  0  0  0  0  0
   59.2190   34.6870   46.1500 C   0  0  0  0  0  0  0  0  0  0  0  0
   57.7566   31.6564   43.7477 H   0  0  0  0  0  0  0  0  0  0  0  0
   56.8951   32.8721   42.7443 H   0  0  0  0  0  0  0  0  0  0  0  0
   58.6906   32.8173   42.7443 H   0  0  0  0  0  0  0  0  0  0  0  0
   58.7339   31.3740   45.4906 H   0  0  0  0  0  0  0  0  0  0  0  0
   60.3143   31.1659   47.4006 H   0  0  0  0  0  0  0  0  0  0  0  0
   63.3236   34.0502   47.9636 H   0  0  0  0  0  0  0  0  0  0  0  0
   64.5128   34.8396   52.0874 H   0  0  0  0  0  0  0  0  0  0  0  0
   67.1276   34.7427   52.4121 H   0  0  0  0  0  0  0  0  0  0  0  0
   65.6414   32.0567   48.9076 H   0  0  0  0  0  0  0  0  0  0  0  0
   62.7484   33.0858   52.8581 H   0  0  0  0  0  0  0  0  0  0  0  0
   61.5558   31.7590   52.5041 H   0  0  0  0  0  0  0  0  0  0  0  0
   62.9185   29.9485   50.6893 H   0  0  0  0  0  0  0  0  0  0  0  0
   64.7536   28.2776   50.9728 H   0  0  0  0  0  0  0  0  0  0  0  0
   66.4871   28.6262   52.7434 H   0  0  0  0  0  0  0  0  0  0  0  0
   66.3595   30.6522   54.1947 H   0  0  0  0  0  0  0  0  0  0  0  0
   64.5440   32.2060   53.8920 H   0  0  0  0  0  0  0  0  0  0  0  0
   60.5900   30.0467   49.7786 H   0  0  0  0  0  0  0  0  0  0  0  0
   58.4775   28.9132   50.4665 H   0  0  0  0  0  0  0  0  0  0  0  0
   55.1477   30.8935   53.1823 H   0  0  0  0  0  0  0  0  0  0  0  0
   55.2688   31.8754   51.6830 H   0  0  0  0  0  0  0  0  0  0  0  0
   54.3217   30.3491   51.6830 H   0  0  0  0  0  0  0  0  0  0  0  0
   56.9883   32.6698   52.0346 H   0  0  0  0  0  0  0  0  0  0  0  0
   59.0998   33.7983   51.3474 H   0  0  0  0  0  0  0  0  0  0  0  0
   60.4958   35.4792   47.7095 H   0  0  0  0  0  0  0  0  0  0  0  0
   58.9091   35.6828   45.8002 H   0  0  0  0  0  0  0  0  0  0  0  0
  1  2  1  0
  2  3  1  0
  3  4  2  0
  4  5  1  0
  5  6  2  0
  6  7  1  0
  7  8  1  0
  8  9  2  0
  9 10  1  0
 10 11  1  0
 11 12  2  0
 12 13  1  0
 13 14  1  0
  9 15  1  0
 15 16  1  0
 16 17  1  0
 17 18  2  0
 18 19  1  0
 19 20  2  0
 20 21  1  0
 21 22  2  0
 15 23  1  0
 23 24  1  0
 24 25  2  0
 25 26  1  0
 26 27  2  0
 27 28  1  0
 28 29  1  0
 27 30  1  0
 30 31  2  0
  6 32  1  0
 32 33  2  0
 33  3  1  0
 23  7  2  0
 31 24  1  0
 14 10  2  0
 22 17  1  0
  1 34  1  0
  1 35  1  0
  1 36  1  0
  4 37  1  0
  5 38  1  0
  8 39  1  0
 11 40  1  0
 12 41  1  0
 14 42  1  0
 16 43  1  0
 16 44  1  0
 18 45  1  0
 19 46  1  0
 20 47  1  0
 21 48  1  0
 22 49  1  0
 25 50  1  0
 26 51  1  0
 29 52  1  0
 29 53  1  0
 29 54  1  0
 30 55  1  0
 31 56  1  0
 32 57  1  0
 33 58  1  0
M  CHG  1  22   1
M  END
>  <UniqueID>  (2) 
2

>  <SMILES>  (2) 
COc1ccc(-c2cc(-c3ccsc3)n(Cc3cccc[nH+]3)c2-c2ccc(OC)cc2)cc1

>  <Energy>  (2) 
128.56941193540956

>  <Genealogy>  (2) 
COc1ccc(-c2cc(-c3ccsc3)n(Cc3cccc[nH+]3)c2-c2ccc(OC)cc2)cc1 (protonated)
COc1ccc(-c2cc(-c3ccsc3)n(Cc3cccc[nH+]3)c2-c2ccc(OC)cc2)cc1 (3D coordinates assigned)
COc1ccc(-c2cc(-c3ccsc3)n(Cc3cccc[nH+]3)c2-c2ccc(OC)cc2)cc1 (optimized conformer: 128.56941193540956 kcal/mol)

>  <smiles>  (2) 
COc1ccc(-c2cc(-c3ccsc3)n(Cc3ccccn3)c2-c2ccc(OC)cc2)cc1

>  <score_type>  (2) 
oracle

>  <origin>  (2) 
adg

>  <m_score__min__energy>  (2) 
-6.21

>  <m_primary>  (2) 
energy

$$$$
2:0
     RDKit          3D

 37 38  0  0  0  0  0  0  0  0999 V2000
   56.2560   29.7220   42.6330 C   0  0  0  0  0  0  0  0  0  0  0  0
   56.2310   29.3970   44.1270 C   0  0  0  0  0  0  0  0  0  0  0  0
   57.6190   29.5110   44.7750 C   0  0  0  0  0  0  0  0  0  0  0  0
   57.9420   30.9310   45.1680 C   0  0  0  0  0  0  0  0  0  0  0  0
   57.0760   31.9750   44.8170 C   0  0  0  0  0  0  0  0  0  0  0  0
   57.3910   33.2930   45.1490 C   0  0  0  0  0  0  0  0  0  0  0  0
   58.5750   33.5850   45.8320 C   0  0  0  0  0  0  0  0  0  0  0  0
   58.8690   34.8780   46.1300 N   0  0  0  0  0  0  0  0  0  0  0  0
   60.0090   35.2220   46.7770 C   0  0  0  0  0  0  0  0  0  0  0  0
   60.9210   34.2410   47.1630 C   0  0  0  0  0  0  0  0  0  0  0  0
   60.6590   32.8860   46.8950 C   0  0  0  0  0  0  0  0  0  0  0  0
   61.6300   31.8920   47.3000 N   0  0  0  0  0  0  0  0  0  0  0  0
   62.2740   32.2900   48.5610 C   0  0  0  0  0  0  0  0  0  0  0  0
   63.7630   32.5800   48.3470 C   0  0  0  0  0  0  0  0  0  0  0  0
   64.1070   32.4360   46.9360 N   0  0  0  0  0  0  0  0  0  0  0  0
   59.4650   32.5450   46.2000 C   0  0  0  0  0  0  0  0  0  0  0  0
   59.1340   31.2180   45.8530 C   0  0  0  0  0  0  0  0  0  0  0  0
   56.3397   30.8102   42.4958 H   0  0  0  0  0  0  0  0  0  0  0  0
   57.1186   29.2259   42.1642 H   0  0  0  0  0  0  0  0  0  0  0  0
   55.3276   29.3637   42.1642 H   0  0  0  0  0  0  0  0  0  0  0  0
   55.5481   30.0978   44.6295 H   0  0  0  0  0  0  0  0  0  0  0  0
   55.8939   28.3558   44.2379 H   0  0  0  0  0  0  0  0  0  0  0  0
   57.6443   28.8786   45.6747 H   0  0  0  0  0  0  0  0  0  0  0  0
   58.3669   29.1830   44.0381 H   0  0  0  0  0  0  0  0  0  0  0  0
   56.1433   31.7545   44.2771 H   0  0  0  0  0  0  0  0  0  0  0  0
   56.7042   34.1063   44.8719 H   0  0  0  0  0  0  0  0  0  0  0  0
   60.2155   36.2795   46.9984 H   0  0  0  0  0  0  0  0  0  0  0  0
   61.8490   34.5281   47.6791 H   0  0  0  0  0  0  0  0  0  0  0  0
   62.3390   31.7420   46.5470 H   0  0  0  0  0  0  0  0  0  0  0  0
   61.1540   30.9700   47.4420 H   0  0  0  0  0  0  0  0  0  0  0  0
   61.7825   33.1956   48.9462 H   0  0  0  0  0  0  0  0  0  0  0  0
   62.1769   31.4641   49.2811 H   0  0  0  0  0  0  0  0  0  0  0  0
   63.9833   33.6077   48.6716 H   0  0  0  0  0  0  0  0  0  0  0  0
   64.3561   31.8648   48.9358 H   0  0  0  0  0  0  0  0  0  0  0  0
   64.8900   33.0970   46.7310 H   0  0  0  0  0  0  0  0  0  0  0  0
   64.4860   31.4720   46.7890 H   0  0  0  0  0  0  0  0  0  0  0  0
   59.8173   30.3990   46.1220 H   0  0  0  0  0  0  0  0  0  0  0  0
  1  2  1  0
  2  3  1  0
  3  4  1  0
  4  5  2  0
  5  6  1  0
  6  7  2  0
  7  8  1  0
  8  9  2  0
  9 10  1  0
 10 11  2  0
 11 12  1  0
 12 13  1  0
 13 14  1  0
 14 15  1  0
 11 16  1  0
 16 17  2  0
 17  4  1  0
 16  7  1  0
  1 18  1  0
  1 19  1  0
  1 20  1  0
  2 21  1  0
  2 22  1  0
  3 23  1  0
  3 24  1  0
  5 25  1  0
  6 26  1  0
  9 27  1  0
 10 28  1  0
 12 29  1  0
 12 30  1  0
 13 31  1  0
 13 32  1  0
 14 33  1  0
 14 34  1  0
 15 35  1  0
 15 36  1  0
 17 37  1  0
M  CHG  1  12   1
M  END
>  <UniqueID>  (3) 
3

>  <SMILES>  (3) 
CCCc1ccc2nccc([NH2+]CCN)c2c1

>  <Energy>  (3) 
34.382284710240555

>  <Genealogy>  (3) 
CCCc1ccc2nccc([NH2+]CCN)c2c1 (protonated)
CCCc1ccc2nccc([NH2+]CCN)c2c1 (3D coordinates assigned)
CCCc1ccc2nccc([NH2+]CCN)c2c1 (optimized conformer: 34.382284710240555 kcal/mol)

>  <smiles>  (3) 
CCCc1ccc2nccc(NCCN)c2c1

>  <score_type>  (3) 
oracle

>  <origin>  (3) 
adg

>  <m_score__min__energy>  (3) 
-5.1500000000000004

>  <m_primary>  (3) 
energy

$$$$
3:0
     RDKit          3D

 43 45  0  0  1  0  0  0  0  0999 V2000
   56.6590   28.5690   45.2410 C   0  0  0  0  0  0  0  0  0  0  0  0
   55.6590   29.4830   44.9180 O   0  0  0  0  0  0  0  0  0  0  0  0
   55.9650   30.1420   43.7220 C   0  0  0  0  0  0  0  0  0  0  0  0
   57.0300   31.1720   43.8580 C   0  0  0  0  0  0  0  0  0  0  0  0
   57.4110   31.5330   45.1800 N   0  0  0  0  0  0  0  0  0  0  0  0
   58.2840   32.5730   45.5660 C   0  0  0  0  0  0  0  0  0  0  0  0
   58.0370   33.9160   45.3100 C   0  0  0  0  0  0  0  0  0  0  0  0
   58.9000   34.9180   45.7120 C   0  0  0  0  0  0  0  0  0  0  0  0
   60.0530   34.6080   46.3920 C   0  0  0  0  0  0  0  0  0  0  0  0
   60.2900   33.3080   46.6370 N   0  0  0  0  0  0  0  0  0  0  0  0
   61.4390   33.0350   47.3120 C   0  0  0  0  0  0  0  0  0  0  0  0
   62.3500   34.1500   47.7310 C   0  0  0  0  0  0  0  0  0  0  0  0
   61.7660   31.7200   47.6100 C   0  0  0  0  0  0  0  0  0  0  0  0
   60.8770   30.7570   47.1910 C   0  0  0  0  0  0  0  0  0  0  0  0
   61.1500   29.5380   47.4510 N   0  0  0  0  0  0  0  0  0  0  0  0
   60.3270   28.4270   47.1010 C   0  0  0  0  0  0  0  0  0  0  0  0
   59.7410   27.7440   48.1710 C   0  0  0  0  0  0  0  0  0  0  0  0
   60.0250   28.2570   49.8350 Cl  0  0  0  0  0  0  0  0  0  0  0  0
   58.9210   26.6450   47.9080 C   0  0  0  0  0  0  0  0  0  0  0  0
   58.7010   26.2510   46.6100 C   0  0  0  0  0  0  0  0  0  0  0  0
   57.6660   24.8660   46.3130 Cl  0  0  0  0  0  0  0  0  0  0  0  0
   59.2990   26.9480   45.5630 C   0  0  0  0  0  0  0  0  0  0  0  0
   60.1140   28.0400   45.7930 C   0  0  0  0  0  0  0  0  0  0  0  0
   60.8800   28.9390   44.5010 Cl  0  0  0  0  0  0  0  0  0  0  0  0
   59.7460   31.0350   46.5260 N   0  0  0  0  0  0  0  0  0  0  0  0
   59.4640   32.3160   46.2560 C   0  0  0  0  0  0  0  0  0  0  0  0
   56.7447   28.4906   46.3349 H   0  0  0  0  0  0  0  0  0  0  0  0
   56.4051   27.5843   44.8216 H   0  0  0  0  0  0  0  0  0  0  0  0
   57.6170   28.9102   44.8216 H   0  0  0  0  0  0  0  0  0  0  0  0
   56.2990   29.3928   42.9891 H   0  0  0  0  0  0  0  0  0  0  0  0
   55.0520   30.6661   43.4030 H   0  0  0  0  0  0  0  0  0  0  0  0
   57.9265   30.7927   43.3457 H   0  0  0  0  0  0  0  0  0  0  0  0
   56.6013   32.0869   43.4232 H   0  0  0  0  0  0  0  0  0  0  0  0
   56.9960   30.9610   45.9730 H   0  0  0  0  0  0  0  0  0  0  0  0
   57.1208   34.1921   44.7674 H   0  0  0  0  0  0  0  0  0  0  0  0
   58.6627   35.9682   45.4866 H   0  0  0  0  0  0  0  0  0  0  0  0
   60.7523   35.3905   46.7218 H   0  0  0  0  0  0  0  0  0  0  0  0
   62.3894   34.1982   48.8292 H   0  0  0  0  0  0  0  0  0  0  0  0
   63.3599   33.9666   47.3356 H   0  0  0  0  0  0  0  0  0  0  0  0
   61.9689   35.1031   47.3356 H   0  0  0  0  0  0  0  0  0  0  0  0
   62.6872   31.4610   48.1525 H   0  0  0  0  0  0  0  0  0  0  0  0
   58.4522   26.0958   48.7378 H   0  0  0  0  0  0  0  0  0  0  0  0
   59.1182   26.6215   44.5283 H   0  0  0  0  0  0  0  0  0  0  0  0
  1  2  1  0
  2  3  1  0
  3  4  1  0
  4  5  1  0
  5  6  1  0
  6  7  2  0
  7  8  1  0
  8  9  2  0
  9 10  1  0
 10 11  1  0
 11 12  1  0
 11 13  2  0
 13 14  1  0
 14 15  2  0
 15 16  1  0
 16 17  2  0
 17 18  1  0
 17 19  1  0
 19 20  2  0
 20 21  1  0
 20 22  1  0
 22 23  2  0
 23 24  1  0
 14 25  1  0
 25 26  2  0
 26  6  1  0
 26 10  1  0
 23 16  1  0
  1 27  1  0
  1 28  1  0
  1 29  1  0
  3 30  1  0
  3 31  1  0
  4 32  1  0
  4 33  1  0
  5 34  1  0
  7 35  1  0
  8 36  1  0
  9 37  1  0
 12 38  1  0
 12 39  1  0
 12 40  1  0
 13 41  1  0
 19 42  1  0
 22 43  1  0
M  END
>  <smiles>  (4) 
COCCNc1cccn2c(C)cc(=Nc3c(Cl)cc(Cl)cc3Cl)nc12

>  <score_type>  (4) 
oracle

>  <origin>  (4) 
adg

>  <m_score__min__energy>  (4) 
-7.0999999999999996

>  <m_primary>  (4) 
energy

$$$$
4:0
     RDKit          3D

 48 51  0  0  0  0  0  0  0  0999 V2000
   64.8880   31.9980   50.5910 C   0  0  0  0  0  0  0  0  0  0  0  0
   63.9170   32.5700   49.6120 C   0  0  0  0  0  0  0  0  0  0  0  0
   62.5820   32.8420   49.8540 C   0  0  0  0  0  0  0  0  0  0  0  0
   62.1270   33.4060   48.6740 C   0  0  0  0  0  0  0  0  0  0  0  0
   60.7110   33.8180   48.3960 C   0  0  0  0  0  0  0  0  0  0  0  0
   60.3420   33.4700   47.0150 N   0  0  0  0  0  0  0  0  0  0  0  0
   59.9920   34.5490   46.0900 C   0  0  0  0  0  0  0  0  0  0  0  0
   58.4950   34.5220   45.7940 C   0  0  0  0  0  0  0  0  0  0  0  0
   58.1830   33.4590   44.9040 O   0  0  0  0  0  0  0  0  0  0  0  0
   58.1880   32.0850   45.2020 C   0  0  0  0  0  0  0  0  0  0  0  0
   57.1270   31.3400   44.6730 C   0  0  0  0  0  0  0  0  0  0  0  0
   57.0240   29.9700   44.8970 C   0  0  0  0  0  0  0  0  0  0  0  0
   57.9900   29.3020   45.6600 C   0  0  0  0  0  0  0  0  0  0  0  0
   57.8820   27.8400   45.9010 C   0  0  0  0  0  0  0  0  0  0  0  0
   56.6390   27.1880   45.7950 C   0  0  0  0  0  0  0  0  0  0  0  0
   56.5400   25.8110   46.0210 C   0  0  0  0  0  0  0  0  0  0  0  0
   57.6780   25.0720   46.3540 C   0  0  0  0  0  0  0  0  0  0  0  0
   58.9170   25.7070   46.4620 C   0  0  0  0  0  0  0  0  0  0  0  0
   59.0210   27.0840   46.2380 C   0  0  0  0  0  0  0  0  0  0  0  0
   59.0610   30.0370   46.1920 C   0  0  0  0  0  0  0  0  0  0  0  0
   59.1780   31.4260   45.9830 C   0  0  0  0  0  0  0  0  0  0  0  0
   60.3640   32.0950   46.5750 C   0  0  0  0  0  0  0  0  0  0  0  0
   61.4090   31.4100   46.7480 O   0  0  0  0  0  0  0  0  0  0  0  0
   63.1530   33.4710   47.7970 N   0  0  0  0  0  0  0  0  0  0  0  0
   63.0970   33.9200   46.4080 C   0  0  0  0  0  0  0  0  0  0  0  0
   64.2350   32.9640   48.3650 N   0  0  0  0  0  0  0  0  0  0  0  0
   64.5405   32.2027   51.6144 H   0  0  0  0  0  0  0  0  0  0  0  0
   64.9636   30.9110   50.4400 H   0  0  0  0  0  0  0  0  0  0  0  0
   65.8754   32.4588   50.4400 H   0  0  0  0  0  0  0  0  0  0  0  0
   62.0114   32.6530   50.7752 H   0  0  0  0  0  0  0  0  0  0  0  0
   60.0378   33.2985   49.0938 H   0  0  0  0  0  0  0  0  0  0  0  0
   60.6216   34.9064   48.5278 H   0  0  0  0  0  0  0  0  0  0  0  0
   60.2558   35.5161   46.5428 H   0  0  0  0  0  0  0  0  0  0  0  0
   60.5471   34.4115   45.1503 H   0  0  0  0  0  0  0  0  0  0  0  0
   57.9425   34.3807   46.7346 H   0  0  0  0  0  0  0  0  0  0  0  0
   58.2077   35.4747   45.3251 H   0  0  0  0  0  0  0  0  0  0  0  0
   56.3602   31.8470   44.0689 H   0  0  0  0  0  0  0  0  0  0  0  0
   56.1788   29.4086   44.4722 H   0  0  0  0  0  0  0  0  0  0  0  0
   55.7398   27.7649   45.5328 H   0  0  0  0  0  0  0  0  0  0  0  0
   55.5647   25.3093   45.9364 H   0  0  0  0  0  0  0  0  0  0  0  0
   57.5979   23.9893   46.5312 H   0  0  0  0  0  0  0  0  0  0  0  0
   59.8123   25.1238   46.7235 H   0  0  0  0  0  0  0  0  0  0  0  0
   59.9992   27.5794   46.3257 H   0  0  0  0  0  0  0  0  0  0  0  0
   59.8269   29.5168   46.7859 H   0  0  0  0  0  0  0  0  0  0  0  0
   62.9609   35.0112   46.3806 H   0  0  0  0  0  0  0  0  0  0  0  0
   64.0352   33.6546   45.8988 H   0  0  0  0  0  0  0  0  0  0  0  0
   62.2527   33.4323   45.8988 H   0  0  0  0  0  0  0  0  0  0  0  0
   65.1710   32.8810   47.9080 H   0  0  0  0  0  0  0  0  0  0  0  0
  1  2  1  0
  2  3  1  0
  3  4  2  0
  4  5  1  0
  5  6  1  0
  6  7  1  0
  7  8  1  0
  8  9  1  0
  9 10  1  0
 10 11  2  0
 11 12  1  0
 12 13  2  0
 13 14  1  0
 14 15  2  0
 15 16  1  0
 16 17  2  0
 17 18  1  0
 18 19  2  0
 13 20  1  0
 20 21  2  0
 21 22  1  0
 22 23  2  0
  4 24  1  0
 24 25  1  0
 24 26  1  0
 26  2  2  0
 22  6  1  0
 21 10  1  0
 19 14  1  0
  1 27  1  0
  1 28  1  0
  1 29  1  0
  3 30  1  0
  5 31  1  0
  5 32  1  0
  7 33  1  0
  7 34  1  0
  8 35  1  0
  8 36  1  0
 11 37  1  0
 12 38  1  0
 15 39  1  0
 16 40  1  0
 17 41  1  0
 18 42  1  0
 19 43  1  0
 20 44  1  0
 25 45  1  0
 25 46  1  0
 25 47  1  0
 26 48  1  0
M  CHG  1  26   1
M  END
>  <UniqueID>  (5) 
4

>  <SMILES>  (5) 
Cc1cc(CN2CCOc3ccc(-c4ccccc4)cc3C2=O)n(C)[nH+]1

>  <Energy>  (5) 
94.1735115139941

>  <Genealogy>  (5) 
Cc1cc(CN2CCOc3ccc(-c4ccccc4)cc3C2=O)n(C)[nH+]1 (protonated)
Cc1cc(CN2CCOc3ccc(-c4ccccc4)cc3C2=O)n(C)[nH+]1 (3D coordinates assigned)
Cc1cc(CN2CCOc3ccc(-c4ccccc4)cc3C2=O)n(C)[nH+]1 (nonaromatic ring conformer: 94.1735115139941 kcal/mol)

>  <smiles>  (5) 
Cc1cc(CN2CCOc3ccc(-c4ccccc4)cc3C2=O)n(C)n1

>  <score_type>  (5) 
oracle

>  <origin>  (5) 
adg

>  <m_score__min__energy>  (5) 
-4.7800000000000002

>  <m_primary>  (5) 
energy

$$$$
5:0
     RDKit          3D

 38 39  0  0  0  0  0  0  0  0999 V2000
   59.5118   25.9171   45.8956 H   0  0  0  0  0  0  0  0  0  0  0  0
   58.5330   25.9350   45.3940 C   0  0  0  0  0  0  0  0  0  0  0  0
   58.1360   27.0110   44.7870 N   0  0  0  0  0  0  0  0  0  0  0  0
   57.1400   27.9010   45.3070 C   0  0  0  0  0  0  0  0  0  0  0  0
   56.0020   27.4700   45.6430 O   0  0  0  0  0  0  0  0  0  0  0  0
   57.4530   29.3280   45.4500 C   0  0  0  0  0  0  0  0  0  0  0  0
   56.7780   30.3120   44.8070 N   0  0  0  0  0  0  0  0  0  0  0  0
   57.3970   31.4330   45.2290 C   0  0  0  0  0  0  0  0  0  0  0  0
   57.0750   32.7350   44.8520 C   0  0  0  0  0  0  0  0  0  0  0  0
   56.2518   32.9377   44.1511 H   0  0  0  0  0  0  0  0  0  0  0  0
   57.8380   33.7790   45.3980 C   0  0  0  0  0  0  0  0  0  0  0  0
   57.6136   34.8207   45.1249 H   0  0  0  0  0  0  0  0  0  0  0  0
   58.8900   33.5010   46.2940 C   0  0  0  0  0  0  0  0  0  0  0  0
   59.9270   34.9220   47.0360 Br  0  0  0  0  0  0  0  0  0  0  0  0
   59.1680   32.1680   46.6370 C   0  0  0  0  0  0  0  0  0  0  0  0
   59.9822   31.9214   47.3343 H   0  0  0  0  0  0  0  0  0  0  0  0
   58.4040   31.1930   46.0840 N   0  0  0  0  0  0  0  0  0  0  0  0
   58.4590   29.8640   46.2410 C   0  0  0  0  0  0  0  0  0  0  0  0
   59.1646   29.3059   46.8740 H   0  0  0  0  0  0  0  0  0  0  0  0
   57.6580   24.7130   45.4130 C   0  0  0  0  0  0  0  0  0  0  0  0
   57.3101   24.5413   46.4423 H   0  0  0  0  0  0  0  0  0  0  0  0
   58.2532   23.8634   45.0471 H   0  0  0  0  0  0  0  0  0  0  0  0
   56.4750   24.8610   44.5250 N   0  0  0  0  0  0  0  0  0  0  0  0
   56.3980   25.8670   44.2380 H   0  0  0  0  0  0  0  0  0  0  0  0
   55.2370   24.4750   45.2570 C   0  0  0  0  0  0  0  0  0  0  0  0
   54.7331   23.6712   44.7003 H   0  0  0  0  0  0  0  0  0  0  0  0
   54.6008   25.3688   45.3365 H   0  0  0  0  0  0  0  0  0  0  0  0
   55.5310   23.9810   46.6780 C   0  0  0  0  0  0  0  0  0  0  0  0
   55.1096   24.6890   47.4068 H   0  0  0  0  0  0  0  0  0  0  0  0
   55.0754   22.9904   46.8234 H   0  0  0  0  0  0  0  0  0  0  0  0
   56.6190   23.9091   46.8234 H   0  0  0  0  0  0  0  0  0  0  0  0
   56.6410   24.0250   43.3050 C   0  0  0  0  0  0  0  0  0  0  0  0
   55.7115   24.0664   42.7183 H   0  0  0  0  0  0  0  0  0  0  0  0
   57.4928   24.4251   42.7354 H   0  0  0  0  0  0  0  0  0  0  0  0
   56.9470   22.5610   43.6420 C   0  0  0  0  0  0  0  0  0  0  0  0
   56.9735   22.4340   44.7343 H   0  0  0  0  0  0  0  0  0  0  0  0
   56.1644   21.9155   43.2167 H   0  0  0  0  0  0  0  0  0  0  0  0
   57.9226   22.2831   43.2167 H   0  0  0  0  0  0  0  0  0  0  0  0
  1  2  1  0
  2  3  2  0
  3  4  1  0
  4  5  2  0
  4  6  1  0
  6  7  1  0
  7  8  2  0
  8  9  1  0
  9 10  1  0
  9 11  2  0
 11 12  1  0
 11 13  1  0
 13 14  1  0
 13 15  2  0
 15 16  1  0
 15 17  1  0
 17 18  1  0
 18 19  1  0
  2 20  1  0
 20 21  1  0
 20 22  1  0
 20 23  1  0
 23 24  1  0
 23 25  1  0
 25 26  1  0
 25 27  1  0
 25 28  1  0
 28 29  1  0
 28 30  1  0
 28 31  1  0
 23 32  1  0
 32 33  1  0
 32 34  1  0
 32 35  1  0
 35 36  1  0
 35 37  1  0
 35 38  1  0
 18  6  2  0
 17  8  1  0
M  CHG  1  23   1
M  END
>  <UniqueID>  (6) 
5

>  <SMILES>  (6) 
CC[NH+](CC)C/C=N/C(=O)c1cn2cc(Br)ccc2n1

>  <Energy>  (6) 
70.36126004395781

>  <Genealogy>  (6) 
CC[NH+](CC)CC=NC(=O)c1cn2cc(Br)ccc2n1 (protonated)
CC[NH+](CC)C/C=N/C(=O)c1cn2cc(Br)ccc2n1 (cis-trans isomerization)
CC[NH+](CC)C/C=N/C(=O)c1cn2cc(Br)ccc2n1 (3D coordinates assigned)
CC[NH+](CC)C/C=N/C(=O)c1cn2cc(Br)ccc2n1 (optimized conformer: 70.36126004395781 kcal/mol)

>  <smiles>  (6) 
CCN(CC)CC=NC(=O)c1cn2cc(Br)ccc2n1

>  <score_type>  (6) 
oracle

>  <origin>  (6) 
adg

>  <m_score__min__energy>  (6) 
-4.21

>  <m_primary>  (6) 
energy

$$$$
6:0
     RDKit          3D

 49 50  0  0  0  0  0  0  0  0999 V2000
   58.6230   28.8190   44.5870 C   0  0  0  0  0  0  0  0  0  0  0  0
   57.4890   29.3730   45.4480 C   0  0  0  0  0  0  0  0  0  0  0  0
   56.9430   30.6380   44.9030 N   0  0  0  0  0  0  0  0  0  0  0  0
   56.5210   30.4930   43.4900 C   0  0  0  0  0  0  0  0  0  0  0  0
   57.3790   31.3730   42.5830 C   0  0  0  0  0  0  0  0  0  0  0  0
   57.7980   31.8330   45.1310 C   0  0  0  0  0  0  0  0  0  0  0  0
   57.0250   33.1360   45.4290 C   0  0  0  0  0  0  0  0  0  0  0  0
   57.5400   33.7790   46.6400 N   0  0  0  0  0  0  0  0  0  0  0  0
   58.9390   33.8290   46.9740 C   0  0  0  0  0  0  0  0  0  0  0  0
   59.9270   34.0750   46.0000 C   0  0  0  0  0  0  0  0  0  0  0  0
   61.2780   34.1090   46.3550 C   0  0  0  0  0  0  0  0  0  0  0  0
   61.6680   33.8910   47.6850 C   0  0  0  0  0  0  0  0  0  0  0  0
   63.1260   33.8550   48.0600 C   0  0  0  0  0  0  0  0  0  0  0  0
   63.6020   32.4690   48.1940 N   0  0  0  0  0  0  0  0  0  0  0  0
   63.1020   31.5930   47.1210 C   0  0  0  0  0  0  0  0  0  0  0  0
   61.8560   30.8810   47.5530 C   0  0  0  0  0  0  0  0  0  0  0  0
   61.5270   30.5020   48.8370 C   0  0  0  0  0  0  0  0  0  0  0  0
   60.3020   29.8760   48.7340 C   0  0  0  0  0  0  0  0  0  0  0  0
   59.9030   29.8810   47.4820 O   0  0  0  0  0  0  0  0  0  0  0  0
   60.8110   30.4810   46.7470 C   0  0  0  0  0  0  0  0  0  0  0  0
   60.6870   33.6530   48.6580 C   0  0  0  0  0  0  0  0  0  0  0  0
   59.3350   33.6230   48.3050 C   0  0  0  0  0  0  0  0  0  0  0  0
   59.4203   28.4295   45.2371 H   0  0  0  0  0  0  0  0  0  0  0  0
   58.2383   28.0073   43.9520 H   0  0  0  0  0  0  0  0  0  0  0  0
   59.0268   29.6213   43.9520 H   0  0  0  0  0  0  0  0  0  0  0  0
   56.6810   28.6279   45.4927 H   0  0  0  0  0  0  0  0  0  0  0  0
   57.8945   29.5822   46.4489 H   0  0  0  0  0  0  0  0  0  0  0  0
   56.6319   29.4420   43.1850 H   0  0  0  0  0  0  0  0  0  0  0  0
   55.4702   30.8052   43.3985 H   0  0  0  0  0  0  0  0  0  0  0  0
   58.0149   32.0252   43.1997 H   0  0  0  0  0  0  0  0  0  0  0  0
   58.0131   30.7368   41.9480 H   0  0  0  0  0  0  0  0  0  0  0  0
   56.7269   31.9908   41.9480 H   0  0  0  0  0  0  0  0  0  0  0  0
   58.4577   31.6235   45.9860 H   0  0  0  0  0  0  0  0  0  0  0  0
   58.3449   32.0056   44.1923 H   0  0  0  0  0  0  0  0  0  0  0  0
   57.1375   33.8249   44.5788 H   0  0  0  0  0  0  0  0  0  0  0  0
   55.9641   32.8899   45.5835 H   0  0  0  0  0  0  0  0  0  0  0  0
   56.8620   34.2260   47.3020 H   0  0  0  0  0  0  0  0  0  0  0  0
   59.6328   34.2414   44.9532 H   0  0  0  0  0  0  0  0  0  0  0  0
   62.0403   34.3078   45.5873 H   0  0  0  0  0  0  0  0  0  0  0  0
   63.7110   34.3623   47.2787 H   0  0  0  0  0  0  0  0  0  0  0  0
   63.2518   34.3638   49.0271 H   0  0  0  0  0  0  0  0  0  0  0  0
   64.6460   32.4950   48.1140 H   0  0  0  0  0  0  0  0  0  0  0  0
   62.8797   32.2020   46.2323 H   0  0  0  0  0  0  0  0  0  0  0  0
   63.8736   30.8442   46.8886 H   0  0  0  0  0  0  0  0  0  0  0  0
   62.1170   30.6645   49.7511 H   0  0  0  0  0  0  0  0  0  0  0  0
   59.7429   29.4382   49.5741 H   0  0  0  0  0  0  0  0  0  0  0  0
   60.7479   30.6394   45.6603 H   0  0  0  0  0  0  0  0  0  0  0  0
   60.9830   33.4890   49.7047 H   0  0  0  0  0  0  0  0  0  0  0  0
   58.5742   33.4363   49.0772 H   0  0  0  0  0  0  0  0  0  0  0  0
  1  2  1  0
  2  3  1  0
  3  4  1  0
  4  5  1  0
  3  6  1  0
  6  7  1  0
  7  8  1  0
  8  9  1  0
  9 10  2  0
 10 11  1  0
 11 12  2  0
 12 13  1  0
 13 14  1  0
 14 15  1  0
 15 16  1  0
 16 17  1  0
 17 18  2  0
 18 19  1  0
 19 20  1  0
 12 21  1  0
 21 22  2  0
 22  9  1  0
 20 16  2  0
  1 23  1  0
  1 24  1  0
  1 25  1  0
  2 26  1  0
  2 27  1  0
  4 28  1  0
  4 29  1  0
  5 30  1  0
  5 31  1  0
  5 32  1  0
  6 33  1  0
  6 34  1  0
  7 35  1  0
  7 36  1  0
  8 37  1  0
 10 38  1  0
 11 39  1  0
 13 40  1  0
 13 41  1  0
 14 42  1  0
 15 43  1  0
 15 44  1  0
 17 45  1  0
 18 46  1  0
 20 47  1  0
 21 48  1  0
 22 49  1  0
M  END
>  <UniqueID>  (7) 
6

>  <SMILES>  (7) 
CCN(CC)CCNc1ccc(CNCc2ccoc2)cc1

>  <Energy>  (7) 
72.21269674789306

>  <Genealogy>  (7) 
CCN(CC)CCNc1ccc(CNCc2ccoc2)cc1 (3D coordinates assigned)
CCN(CC)CCNc1ccc(CNCc2ccoc2)cc1 (optimized conformer: 72.21269674789306 kcal/mol)

>  <smiles>  (7) 
CCN(CC)CCNc1ccc(CNCc2ccoc2)cc1

>  <score_type>  (7) 
oracle

>  <origin>  (7) 
adg

>  <m_score__min__energy>  (7) 
-7.2699999999999996

>  <m_primary>  (7) 
energy

$$$$
7:0
     RDKit          3D

 36 38  0  0  0  0  0  0  0  0999 V2000
   58.4380   21.9060   45.3360 C   0  0  0  0  0  0  0  0  0  0  0  0
   58.2290   22.9000   46.3360 O   0  0  0  0  0  0  0  0  0  0  0  0
   57.8710   24.2300   46.0700 C   0  0  0  0  0  0  0  0  0  0  0  0
   56.5330   24.6020   46.2410 C   0  0  0  0  0  0  0  0  0  0  0  0
   56.1190   25.9130   45.9920 C   0  0  0  0  0  0  0  0  0  0  0  0
   57.0450   26.8750   45.5650 C   0  0  0  0  0  0  0  0  0  0  0  0
   56.6390   28.1950   45.3130 C   0  0  0  0  0  0  0  0  0  0  0  0
   57.5720   29.1530   44.8960 C   0  0  0  0  0  0  0  0  0  0  0  0
   57.0580   30.8120   44.6040 S   0  0  0  0  0  0  0  0  0  0  0  0
   57.6970   31.3510   43.3540 O   0  0  0  0  0  0  0  0  0  0  0  0
   55.5660   30.8390   44.4440 O   0  0  0  0  0  0  0  0  0  0  0  0
   57.5040   31.8190   45.9440 N   0  0  0  0  0  0  0  0  0  0  0  0
   58.8410   32.2370   46.2550 C   0  0  0  0  0  0  0  0  0  0  0  0
   59.2900   33.5500   46.0200 C   0  0  0  0  0  0  0  0  0  0  0  0
   60.6060   33.9100   46.3290 C   0  0  0  0  0  0  0  0  0  0  0  0
   61.4810   32.9680   46.8760 C   0  0  0  0  0  0  0  0  0  0  0  0
   63.2770   33.4610   47.2960 Br  0  0  0  0  0  0  0  0  0  0  0  0
   61.0400   31.6620   47.1140 C   0  0  0  0  0  0  0  0  0  0  0  0
   59.7250   31.3000   46.8050 C   0  0  0  0  0  0  0  0  0  0  0  0
   58.9120   28.7880   44.7150 C   0  0  0  0  0  0  0  0  0  0  0  0
   59.3260   27.4760   44.9600 C   0  0  0  0  0  0  0  0  0  0  0  0
   58.4000   26.5120   45.3880 C   0  0  0  0  0  0  0  0  0  0  0  0
   58.8060   25.1920   45.6400 C   0  0  0  0  0  0  0  0  0  0  0  0
   58.6415   20.9383   45.8178 H   0  0  0  0  0  0  0  0  0  0  0  0
   57.5380   21.8215   44.7092 H   0  0  0  0  0  0  0  0  0  0  0  0
   59.2958   22.1911   44.7092 H   0  0  0  0  0  0  0  0  0  0  0  0
   55.7989   23.8540   46.5752 H   0  0  0  0  0  0  0  0  0  0  0  0
   55.0639   26.1910   46.1314 H   0  0  0  0  0  0  0  0  0  0  0  0
   55.5841   28.4781   45.4435 H   0  0  0  0  0  0  0  0  0  0  0  0
   58.6038   34.2956   45.5919 H   0  0  0  0  0  0  0  0  0  0  0  0
   60.9527   34.9369   46.1409 H   0  0  0  0  0  0  0  0  0  0  0  0
   61.7279   30.9194   47.5444 H   0  0  0  0  0  0  0  0  0  0  0  0
   59.3825   30.2721   46.9952 H   0  0  0  0  0  0  0  0  0  0  0  0
   59.6426   29.5382   44.3781 H   0  0  0  0  0  0  0  0  0  0  0  0
   60.3806   27.1980   44.8170 H   0  0  0  0  0  0  0  0  0  0  0  0
   59.8594   24.9074   45.5010 H   0  0  0  0  0  0  0  0  0  0  0  0
  1  2  1  0
  2  3  1  0
  3  4  2  0
  4  5  1  0
  5  6  2  0
  6  7  1  0
  7  8  2  0
  8  9  1  0
  9 10  2  0
  9 11  2  0
  9 12  1  0
 12 13  1  0
 13 14  2  0
 14 15  1  0
 15 16  2  0
 16 17  1  0
 16 18  1  0
 18 19  2  0
  8 20  1  0
 20 21  2  0
 21 22  1  0
 22 23  2  0
 23  3  1  0
 22  6  1  0
 19 13  1  0
  1 24  1  0
  1 25  1  0
  1 26  1  0
  4 27  1  0
  5 28  1  0
  7 29  1  0
 14 30  1  0
 15 31  1  0
 18 32  1  0
 19 33  1  0
 20 34  1  0
 21 35  1  0
 23 36  1  0
M  CHG  1  12  -1
M  END
>  <UniqueID>  (8) 
7

>  <SMILES>  (8) 
COc1ccc2cc(S(=O)(=O)[N-]c3ccc(Br)cc3)ccc2c1

>  <Energy>  (8) 
43.6850477499507

>  <Genealogy>  (8) 
COc1ccc2cc(S(=O)(=O)[N-]c3ccc(Br)cc3)ccc2c1 (protonated)
COc1ccc2cc(S(=O)(=O)[N-]c3ccc(Br)cc3)ccc2c1 (3D coordinates assigned)
COc1ccc2cc(S(=O)(=O)[N-]c3ccc(Br)cc3)ccc2c1 (optimized conformer: 43.6850477499507 kcal/mol)

>  <smiles>  (8) 
COc1ccc2cc(S(=O)(=O)Nc3ccc(Br)cc3)ccc2c1

>  <score_type>  (8) 
oracle

>  <origin>  (8) 
adg

>  <m_score__min__energy>  (8) 
-9.1500000000000004

>  <m_primary>  (8) 
energy

$$$$
8:0
     RDKit          3D

 47 49  0  0  0  0  0  0  0  0999 V2000
   60.7930   28.6060   44.8760 C   0  0  0  0  0  0  0  0  0  0  0  0
   59.3200   28.3930   45.0570 C   0  0  0  0  0  0  0  0  0  0  0  0
   58.7650   27.2210   45.5280 C   0  0  0  0  0  0  0  0  0  0  0  0
   57.3940   27.3820   45.4660 C   0  0  0  0  0  0  0  0  0  0  0  0
   56.3910   26.3550   45.8300 C   0  0  0  0  0  0  0  0  0  0  0  0
   55.1860   26.6860   45.9960 O   0  0  0  0  0  0  0  0  0  0  0  0
   56.7720   24.9020   45.9290 C   0  0  0  0  0  0  0  0  0  0  0  0
   57.6720   24.5180   44.8190 N   0  0  0  0  0  0  0  0  0  0  0  0
   57.0270   24.6670   43.4900 C   0  0  0  0  0  0  0  0  0  0  0  0
   56.3850   23.3550   42.9930 C   0  0  0  0  0  0  0  0  0  0  0  0
   55.9930   22.5510   44.0830 O   0  0  0  0  0  0  0  0  0  0  0  0
   57.1360   22.0710   44.7710 C   0  0  0  0  0  0  0  0  0  0  0  0
   58.2150   23.1570   44.9960 C   0  0  0  0  0  0  0  0  0  0  0  0
   57.1640   28.6580   44.9590 C   0  0  0  0  0  0  0  0  0  0  0  0
   55.7990   29.2390   44.6980 C   0  0  0  0  0  0  0  0  0  0  0  0
   58.3500   29.2710   44.7000 N   0  0  0  0  0  0  0  0  0  0  0  0
   58.5730   30.5840   44.0740 C   0  0  0  0  0  0  0  0  0  0  0  0
   58.3040   31.6940   45.0560 C   0  0  0  0  0  0  0  0  0  0  0  0
   57.6810   32.8820   44.6350 C   0  0  0  0  0  0  0  0  0  0  0  0
   57.4150   33.9040   45.5530 C   0  0  0  0  0  0  0  0  0  0  0  0
   57.7680   33.7480   46.8950 C   0  0  0  0  0  0  0  0  0  0  0  0
   58.3920   32.5720   47.3220 C   0  0  0  0  0  0  0  0  0  0  0  0
   58.6600   31.5490   46.4070 C   0  0  0  0  0  0  0  0  0  0  0  0
   61.2771   28.6760   45.8612 H   0  0  0  0  0  0  0  0  0  0  0  0
   61.2198   27.7602   44.3170 H   0  0  0  0  0  0  0  0  0  0  0  0
   60.9627   29.5380   44.3170 H   0  0  0  0  0  0  0  0  0  0  0  0
   59.3076   26.3325   45.8833 H   0  0  0  0  0  0  0  0  0  0  0  0
   57.2854   24.7282   46.8862 H   0  0  0  0  0  0  0  0  0  0  0  0
   55.8580   24.2929   45.8687 H   0  0  0  0  0  0  0  0  0  0  0  0
   56.2448   25.4370   43.5621 H   0  0  0  0  0  0  0  0  0  0  0  0
   57.8086   24.9498   42.7696 H   0  0  0  0  0  0  0  0  0  0  0  0
   55.5011   23.5933   42.3831 H   0  0  0  0  0  0  0  0  0  0  0  0
   57.1237   22.8035   42.3928 H   0  0  0  0  0  0  0  0  0  0  0  0
   56.8177   21.6865   45.7512 H   0  0  0  0  0  0  0  0  0  0  0  0
   57.5878   21.2871   44.1454 H   0  0  0  0  0  0  0  0  0  0  0  0
   58.6079   23.0612   46.0190 H   0  0  0  0  0  0  0  0  0  0  0  0
   59.0096   23.0075   44.2501 H   0  0  0  0  0  0  0  0  0  0  0  0
   55.3014   29.4508   45.6559 H   0  0  0  0  0  0  0  0  0  0  0  0
   55.9011   30.1716   44.1238 H   0  0  0  0  0  0  0  0  0  0  0  0
   55.1976   28.5188   44.1238 H   0  0  0  0  0  0  0  0  0  0  0  0
   59.6167   30.6488   43.7326 H   0  0  0  0  0  0  0  0  0  0  0  0
   57.8857   30.6911   43.2219 H   0  0  0  0  0  0  0  0  0  0  0  0
   57.4013   33.0087   43.5787 H   0  0  0  0  0  0  0  0  0  0  0  0
   56.9274   34.8311   45.2172 H   0  0  0  0  0  0  0  0  0  0  0  0
   57.5551   34.5506   47.6164 H   0  0  0  0  0  0  0  0  0  0  0  0
   58.6724   32.4513   48.3788 H   0  0  0  0  0  0  0  0  0  0  0  0
   59.1522   30.6259   46.7471 H   0  0  0  0  0  0  0  0  0  0  0  0
  1  2  1  0
  2  3  2  0
  3  4  1  0
  4  5  1  0
  5  6  2  0
  5  7  1  0
  7  8  1  0
  8  9  1  0
  9 10  1  0
 10 11  1  0
 11 12  1  0
 12 13  1  0
  4 14  2  0
 14 15  1  0
 14 16  1  0
 16 17  1  0
 17 18  1  0
 18 19  2  0
 19 20  1  0
 20 21  2  0
 21 22  1  0
 22 23  2  0
 16  2  1  0
 23 18  1  0
 13  8  1  0
  1 24  1  0
  1 25  1  0
  1 26  1  0
  3 27  1  0
  7 28  1  0
  7 29  1  0
  9 30  1  0
  9 31  1  0
 10 32  1  0
 10 33  1  0
 12 34  1  0
 12 35  1  0
 13 36  1  0
 13 37  1  0
 15 38  1  0
 15 39  1  0
 15 40  1  0
 17 41  1  0
 17 42  1  0
 19 43  1  0
 20 44  1  0
 21 45  1  0
 22 46  1  0
 23 47  1  0
M  END
>  <UniqueID>  (9) 
8

>  <SMILES>  (9) 
Cc1cc(C(=O)CN2CCOCC2)c(C)n1Cc1ccccc1

>  <Energy>  (9) 
85.77010348145215

>  <Genealogy>  (9) 
Cc1cc(C(=O)CN2CCOCC2)c(C)n1Cc1ccccc1 (3D coordinates assigned)
Cc1cc(C(=O)CN2CCOCC2)c(C)n1Cc1ccccc1 (nonaromatic ring conformer: 85.77010348145215 kcal/mol)

>  <smiles>  (9) 
Cc1cc(C(=O)CN2CCOCC2)c(C)n1Cc1ccccc1

>  <score_type>  (9) 
oracle

>  <origin>  (9) 
adg

>  <m_score__min__energy>  (9) 
-7.7300000000000004

>  <m_primary>  (9) 
energy

$$$$
9:0
     RDKit          3D

 38 41  0  0  0  0  0  0  0  0999 V2000
   56.5230   25.3530   45.9350 C   0  0  0  0  0  0  0  0  0  0  0  0
   57.2600   26.0700   46.9210 O   0  0  0  0  0  0  0  0  0  0  0  0
   58.2760   26.9930   46.6320 C   0  0  0  0  0  0  0  0  0  0  0  0
   59.4410   26.5340   46.0110 C   0  0  0  0  0  0  0  0  0  0  0  0
   60.4530   27.3940   45.7160 N   0  0  0  0  0  0  0  0  0  0  0  0
   60.3670   28.7200   46.0080 C   0  0  0  0  0  0  0  0  0  0  0  0
   59.2150   29.2380   46.6190 C   0  0  0  0  0  0  0  0  0  0  0  0
   59.1140   30.6800   46.9440 C   0  0  0  0  0  0  0  0  0  0  0  0
   59.7350   31.1450   48.1260 C   0  0  0  0  0  0  0  0  0  0  0  0
   59.6990   32.5070   48.3990 C   0  0  0  0  0  0  0  0  0  0  0  0
   59.0890   33.3890   47.5740 C   0  0  0  0  0  0  0  0  0  0  0  0
   58.4530   32.9870   46.4050 C   0  0  0  0  0  0  0  0  0  0  0  0
   58.4520   31.6110   46.0770 C   0  0  0  0  0  0  0  0  0  0  0  0
   57.7050   31.1620   44.8760 C   0  0  0  0  0  0  0  0  0  0  0  0
   57.9850   31.7000   43.6090 C   0  0  0  0  0  0  0  0  0  0  0  0
   57.2620   31.2540   42.5000 C   0  0  0  0  0  0  0  0  0  0  0  0
   56.2720   30.2850   42.6590 C   0  0  0  0  0  0  0  0  0  0  0  0
   56.0160   29.7740   43.9320 C   0  0  0  0  0  0  0  0  0  0  0  0
   56.7290   30.2200   45.0010 N   0  0  0  0  0  0  0  0  0  0  0  0
   59.2090   34.6640   48.0910 O   0  0  0  0  0  0  0  0  0  0  0  0
   59.9440   34.5750   49.3190 C   0  0  0  0  0  0  0  0  0  0  0  0
   60.2380   33.1810   49.4770 O   0  0  0  0  0  0  0  0  0  0  0  0
   58.1700   28.3600   46.9400 C   0  0  0  0  0  0  0  0  0  0  0  0
   55.8188   24.6679   46.4298 H   0  0  0  0  0  0  0  0  0  0  0  0
   55.9643   26.0625   45.3069 H   0  0  0  0  0  0  0  0  0  0  0  0
   57.2168   24.7750   45.3069 H   0  0  0  0  0  0  0  0  0  0  0  0
   59.5405   25.4680   45.7586 H   0  0  0  0  0  0  0  0  0  0  0  0
   61.3160   27.0280   45.2570 H   0  0  0  0  0  0  0  0  0  0  0  0
   61.2049   29.3895   45.7638 H   0  0  0  0  0  0  0  0  0  0  0  0
   60.2344   30.4457   48.8127 H   0  0  0  0  0  0  0  0  0  0  0  0
   57.9619   33.7219   45.7502 H   0  0  0  0  0  0  0  0  0  0  0  0
   58.7663   32.4653   43.4912 H   0  0  0  0  0  0  0  0  0  0  0  0
   57.4734   31.6667   41.5025 H   0  0  0  0  0  0  0  0  0  0  0  0
   55.6992   29.9274   41.7906 H   0  0  0  0  0  0  0  0  0  0  0  0
   55.2370   29.0099   44.0711 H   0  0  0  0  0  0  0  0  0  0  0  0
   60.8728   35.1611   49.2567 H   0  0  0  0  0  0  0  0  0  0  0  0
   59.3745   34.9756   50.1706 H   0  0  0  0  0  0  0  0  0  0  0  0
   57.2647   28.7423   47.4343 H   0  0  0  0  0  0  0  0  0  0  0  0
  1  2  1  0
  2  3  1  0
  3  4  2  0
  4  5  1  0
  5  6  2  0
  6  7  1  0
  7  8  1  0
  8  9  2  0
  9 10  1  0
 10 11  2  0
 11 12  1  0
 12 13  2  0
 13 14  1  0
 14 15  2  0
 15 16  1  0
 16 17  2  0
 17 18  1  0
 18 19  2  0
 11 20  1  0
 20 21  1  0
 21 22  1  0
  7 23  2  0
 23  3  1  0
 13  8  1  0
 19 14  1  0
 22 10  1  0
  1 24  1  0
  1 25  1  0
  1 26  1  0
  4 27  1  0
  5 28  1  0
  6 29  1  0
  9 30  1  0
 12 31  1  0
 15 32  1  0
 16 33  1  0
 17 34  1  0
 18 35  1  0
 21 36  1  0
 21 37  1  0
 23 38  1  0
M  CHG  1   5   1
M  END
>  <UniqueID>  (10) 
9

>  <SMILES>  (10) 
COc1c[nH+]cc(-c2cc3c(cc2-c2ccccn2)OCO3)c1

>  <Energy>  (10) 
81.75804729943579

>  <Genealogy>  (10) 
COc1c[nH+]cc(-c2cc3c(cc2-c2ccccn2)OCO3)c1 (protonated)
COc1c[nH+]cc(-c2cc3c(cc2-c2ccccn2)OCO3)c1 (3D coordinates assigned)
COc1c[nH+]cc(-c2cc3c(cc2-c2ccccn2)OCO3)c1 (nonaromatic ring conformer: 81.75804729943579 kcal/mol)

>  <smiles>  (10) 
COc1cncc(-c2cc3c(cc2-c2ccccn2)OCO3)c1

>  <score_type>  (10) 
oracle

>  <origin>  (10) 
adg

>  <m_score__min__energy>  (10) 
-5.2800000000000002

>  <m_primary>  (10) 
energy

$$$$
10:0
     RDKit          3D

 49 51  0  0  0  0  0  0  0  0999 V2000
   55.8020   24.0710   44.7110 C   0  0  0  0  0  0  0  0  0  0  0  0
   54.9260   24.9510   45.6080 C   0  0  0  0  0  0  0  0  0  0  0  0
   55.6830   26.0440   46.2380 N   0  0  0  0  0  0  0  0  0  0  0  0
   57.0390   25.6310   46.6310 C   0  0  0  0  0  0  0  0  0  0  0  0
   57.9330   26.8530   46.8690 C   0  0  0  0  0  0  0  0  0  0  0  0
   57.3290   28.0770   46.3360 N   0  0  0  0  0  0  0  0  0  0  0  0
   57.9630   29.3720   46.3240 C   0  0  0  0  0  0  0  0  0  0  0  0
   59.1270   29.6150   47.0670 C   0  0  0  0  0  0  0  0  0  0  0  0
   59.7330   30.8780   47.0830 C   0  0  0  0  0  0  0  0  0  0  0  0
   60.9520   31.0510   47.9030 C   0  0  0  0  0  0  0  0  0  0  0  0
   62.1750   31.5130   47.4470 C   0  0  0  0  0  0  0  0  0  0  0  0
   62.9670   31.5860   48.5780 C   0  0  0  0  0  0  0  0  0  0  0  0
   62.2460   31.1920   49.6440 N   0  0  0  0  0  0  0  0  0  0  0  0
   61.0300   30.8630   49.2380 N   0  0  0  0  0  0  0  0  0  0  0  0
   59.9610   30.4270   50.1330 C   0  0  0  0  0  0  0  0  0  0  0  0
   59.1550   31.9400   46.3480 C   0  0  0  0  0  0  0  0  0  0  0  0
   59.7450   33.2220   46.3080 C   0  0  0  0  0  0  0  0  0  0  0  0
   59.1550   34.2540   45.5760 C   0  0  0  0  0  0  0  0  0  0  0  0
   57.9770   34.0270   44.8660 C   0  0  0  0  0  0  0  0  0  0  0  0
   57.3870   32.7640   44.8740 C   0  0  0  0  0  0  0  0  0  0  0  0
   57.9660   31.7080   45.6060 C   0  0  0  0  0  0  0  0  0  0  0  0
   57.3870   30.4230   45.5840 C   0  0  0  0  0  0  0  0  0  0  0  0
   56.2420   30.1910   44.8170 O   0  0  0  0  0  0  0  0  0  0  0  0
   56.3280   29.7550   43.4650 C   0  0  0  0  0  0  0  0  0  0  0  0
   56.4401   23.4299   45.3370 H   0  0  0  0  0  0  0  0  0  0  0  0
   55.1609   23.4419   44.0759 H   0  0  0  0  0  0  0  0  0  0  0  0
   56.4340   24.7092   44.0759 H   0  0  0  0  0  0  0  0  0  0  0  0
   54.1209   25.3858   44.9974 H   0  0  0  0  0  0  0  0  0  0  0  0
   54.5261   24.3152   46.4116 H   0  0  0  0  0  0  0  0  0  0  0  0
   55.1620   26.3570   47.0900 H   0  0  0  0  0  0  0  0  0  0  0  0
   56.9818   25.0402   47.5571 H   0  0  0  0  0  0  0  0  0  0  0  0
   57.4734   25.0293   45.8190 H   0  0  0  0  0  0  0  0  0  0  0  0
   58.0902   26.9747   47.9509 H   0  0  0  0  0  0  0  0  0  0  0  0
   58.8878   26.6865   46.3488 H   0  0  0  0  0  0  0  0  0  0  0  0
   56.3810   27.9840   45.9050 H   0  0  0  0  0  0  0  0  0  0  0  0
   59.5740   28.7962   47.6499 H   0  0  0  0  0  0  0  0  0  0  0  0
   62.4546   31.7660   46.4137 H   0  0  0  0  0  0  0  0  0  0  0  0
   64.0169   31.9133   48.6026 H   0  0  0  0  0  0  0  0  0  0  0  0
   62.5780   31.1570   50.6340 H   0  0  0  0  0  0  0  0  0  0  0  0
   60.2810   30.5575   51.1773 H   0  0  0  0  0  0  0  0  0  0  0  0
   59.0593   31.0292   49.9478 H   0  0  0  0  0  0  0  0  0  0  0  0
   59.7377   29.3659   49.9478 H   0  0  0  0  0  0  0  0  0  0  0  0
   60.6785   33.4095   46.8589 H   0  0  0  0  0  0  0  0  0  0  0  0
   59.6214   35.2501   45.5594 H   0  0  0  0  0  0  0  0  0  0  0  0
   57.5120   34.8463   44.2982 H   0  0  0  0  0  0  0  0  0  0  0  0
   56.4621   32.5902   44.3044 H   0  0  0  0  0  0  0  0  0  0  0  0
   56.5408   28.6761   43.4405 H   0  0  0  0  0  0  0  0  0  0  0  0
   55.3737   29.9522   42.9547 H   0  0  0  0  0  0  0  0  0  0  0  0
   57.1360   30.2998   42.9547 H   0  0  0  0  0  0  0  0  0  0  0  0
  1  2  1  0
  2  3  1  0
  3  4  1  0
  4  5  1  0
  5  6  1  0
  6  7  1  0
  7  8  2  0
  8  9  1  0
  9 10  1  0
 10 11  2  0
 11 12  1  0
 12 13  2  0
 13 14  1  0
 14 15  1  0
  9 16  2  0
 16 17  1  0
 17 18  2  0
 18 19  1  0
 19 20  2  0
 20 21  1  0
 21 22  2  0
 22 23  1  0
 23 24  1  0
 22  7  1  0
 14 10  1  0
 21 16  1  0
  1 25  1  0
  1 26  1  0
  1 27  1  0
  2 28  1  0
  2 29  1  0
  3 30  1  0
  4 31  1  0
  4 32  1  0
  5 33  1  0
  5 34  1  0
  6 35  1  0
  8 36  1  0
 11 37  1  0
 12 38  1  0
 13 39  1  0
 15 40  1  0
 15 41  1  0
 15 42  1  0
 17 43  1  0
 18 44  1  0
 19 45  1  0
 20 46  1  0
 24 47  1  0
 24 48  1  0
 24 49  1  0
M  CHG  1  13   1
M  END
>  <UniqueID>  (11) 
10

>  <SMILES>  (11) 
CCNCCNc1cc(-c2cc[nH+]n2C)c2ccccc2c1OC

>  <Energy>  (11) 
93.94799772690493

>  <Genealogy>  (11) 
CCNCCNc1cc(-c2cc[nH+]n2C)c2ccccc2c1OC (protonated)
CCNCCNc1cc(-c2cc[nH+]n2C)c2ccccc2c1OC (3D coordinates assigned)
CCNCCNc1cc(-c2cc[nH+]n2C)c2ccccc2c1OC (optimized conformer: 93.94799772690493 kcal/mol)

>  <smiles>  (11) 
CCNCCNc1cc(-c2ccnn2C)c2ccccc2c1OC

>  <score_type>  (11) 
oracle

>  <origin>  (11) 
adg

>  <m_score__min__energy>  (11) 
-6.5099999999999998

>  <m_primary>  (11) 
energy

$$$$
11:0
     RDKit          3D

 47 49  0  0  0  0  0  0  0  0999 V2000
   59.6160   34.6380   48.1770 C   0  0  0  0  0  0  0  0  0  0  0  0
   59.7480   34.2230   46.8340 O   0  0  0  0  0  0  0  0  0  0  0  0
   58.5860   34.5560   46.0980 C   0  0  0  0  0  0  0  0  0  0  0  0
   57.5750   33.4070   46.1550 C   0  0  0  0  0  0  0  0  0  0  0  0
   58.2260   32.1730   46.5910 N   0  0  0  0  0  0  0  0  0  0  0  0
   57.9320   30.8970   46.0040 C   0  0  0  0  0  0  0  0  0  0  0  0
   57.1160   30.8070   45.0470 O   0  0  0  0  0  0  0  0  0  0  0  0
   58.6310   29.6720   46.4930 C   0  0  0  0  0  0  0  0  0  0  0  0
   60.4290   29.8910   46.3070 S   0  0  0  0  0  0  0  0  0  0  0  0
   60.5830   30.8520   47.8200 C   0  0  0  0  0  0  0  0  0  0  0  0
   59.6150   30.7200   48.7620 N   0  0  0  0  0  0  0  0  0  0  0  0
   59.6520   31.4110   49.9320 C   0  0  0  0  0  0  0  0  0  0  0  0
   58.5730   31.2440   50.9360 C   0  0  0  0  0  0  0  0  0  0  0  0
   58.2520   29.9670   51.4380 C   0  0  0  0  0  0  0  0  0  0  0  0
   57.2360   29.8110   52.3850 C   0  0  0  0  0  0  0  0  0  0  0  0
   56.5290   30.9240   52.8440 C   0  0  0  0  0  0  0  0  0  0  0  0
   55.5440   30.7720   53.7640 F   0  0  0  0  0  0  0  0  0  0  0  0
   56.8360   32.1960   52.3550 C   0  0  0  0  0  0  0  0  0  0  0  0
   57.8510   32.3580   51.4070 C   0  0  0  0  0  0  0  0  0  0  0  0
   60.6870   32.2600   50.1720 N   0  0  0  0  0  0  0  0  0  0  0  0
   61.6900   32.4380   49.2710 C   0  0  0  0  0  0  0  0  0  0  0  0
   62.7460   33.3270   49.5530 C   0  0  0  0  0  0  0  0  0  0  0  0
   62.7860   34.0850   50.8520 C   0  0  0  0  0  0  0  0  0  0  0  0
   63.7760   33.4930   48.6120 C   0  0  0  0  0  0  0  0  0  0  0  0
   63.7510   32.7890   47.4060 C   0  0  0  0  0  0  0  0  0  0  0  0
   62.7050   31.9100   47.1220 C   0  0  0  0  0  0  0  0  0  0  0  0
   61.6650   31.7250   48.0520 C   0  0  0  0  0  0  0  0  0  0  0  0
   59.8807   33.8057   48.8457 H   0  0  0  0  0  0  0  0  0  0  0  0
   60.2881   35.4881   48.3658 H   0  0  0  0  0  0  0  0  0  0  0  0
   58.5763   34.9436   48.3658 H   0  0  0  0  0  0  0  0  0  0  0  0
   58.1315   35.4612   46.5269 H   0  0  0  0  0  0  0  0  0  0  0  0
   58.8653   34.7360   45.0494 H   0  0  0  0  0  0  0  0  0  0  0  0
   56.7746   33.6641   46.8644 H   0  0  0  0  0  0  0  0  0  0  0  0
   57.1558   33.2520   45.1499 H   0  0  0  0  0  0  0  0  0  0  0  0
   58.9740   32.2350   47.3170 H   0  0  0  0  0  0  0  0  0  0  0  0
   58.3884   29.5090   47.5535 H   0  0  0  0  0  0  0  0  0  0  0  0
   58.3030   28.8013   45.9062 H   0  0  0  0  0  0  0  0  0  0  0  0
   58.8056   29.0858   51.0816 H   0  0  0  0  0  0  0  0  0  0  0  0
   56.9929   28.8094   52.7694 H   0  0  0  0  0  0  0  0  0  0  0  0
   56.2779   33.0723   52.7166 H   0  0  0  0  0  0  0  0  0  0  0  0
   58.0874   33.3626   51.0263 H   0  0  0  0  0  0  0  0  0  0  0  0
   62.7486   33.3755   51.6918 H   0  0  0  0  0  0  0  0  0  0  0  0
   63.7162   34.6695   50.9070 H   0  0  0  0  0  0  0  0  0  0  0  0
   61.9224   34.7642   50.9070 H   0  0  0  0  0  0  0  0  0  0  0  0
   64.6068   34.1813   48.8263 H   0  0  0  0  0  0  0  0  0  0  0  0
   64.5612   32.9283   46.6752 H   0  0  0  0  0  0  0  0  0  0  0  0
   62.6933   31.3605   46.1692 H   0  0  0  0  0  0  0  0  0  0  0  0
  1  2  1  0
  2  3  1  0
  3  4  1  0
  4  5  1  0
  5  6  1  0
  6  7  2  0
  6  8  1  0
  8  9  1  0
  9 10  1  0
 10 11  2  0
 11 12  1  0
 12 13  1  0
 13 14  2  0
 14 15  1  0
 15 16  2  0
 16 17  1  0
 16 18  1  0
 18 19  2  0
 12 20  2  0
 20 21  1  0
 21 22  2  0
 22 23  1  0
 22 24  1  0
 24 25  2  0
 25 26  1  0
 26 27  2  0
 27 10  1  0
 19 13  1  0
 27 21  1  0
  1 28  1  0
  1 29  1  0
  1 30  1  0
  3 31  1  0
  3 32  1  0
  4 33  1  0
  4 34  1  0
  5 35  1  0
  8 36  1  0
  8 37  1  0
 14 38  1  0
 15 39  1  0
 18 40  1  0
 19 41  1  0
 23 42  1  0
 23 43  1  0
 23 44  1  0
 24 45  1  0
 25 46  1  0
 26 47  1  0
M  END
>  <UniqueID>  (12) 
11

>  <SMILES>  (12) 
COCCNC(=O)CSc1nc(-c2ccc(F)cc2)nc2c(C)cccc12

>  <Energy>  (12) 
47.153444923359444

>  <Genealogy>  (12) 
COCCNC(=O)CSc1nc(-c2ccc(F)cc2)nc2c(C)cccc12 (3D coordinates assigned)
COCCNC(=O)CSc1nc(-c2ccc(F)cc2)nc2c(C)cccc12 (optimized conformer: 47.153444923359444 kcal/mol)

>  <smiles>  (12) 
COCCNC(=O)CSc1nc(-c2ccc(F)cc2)nc2c(C)cccc12

>  <score_type>  (12) 
oracle

>  <origin>  (12) 
adg

>  <m_score__min__energy>  (12) 
-8.3200000000000003

>  <m_primary>  (12) 
energy

$$$$
12:0
     RDKit          3D

 39 41  0  0  0  0  0  0  0  0999 V2000
   59.5340   34.8960   45.8710 C   0  0  0  0  0  0  0  0  0  0  0  0
   58.3870   34.1000   46.4810 C   0  0  0  0  0  0  0  0  0  0  0  0
   58.1550   32.8370   45.7120 C   0  0  0  0  0  0  0  0  0  0  0  0
   58.9090   31.7250   45.8530 N   0  0  0  0  0  0  0  0  0  0  0  0
   58.3430   30.8180   45.0730 N   0  0  0  0  0  0  0  0  0  0  0  0
   57.2880   31.3790   44.4600 C   0  0  0  0  0  0  0  0  0  0  0  0
   57.1240   32.6500   44.8600 N   0  0  0  0  0  0  0  0  0  0  0  0
   56.3600   30.6190   43.5650 C   0  0  0  0  0  0  0  0  0  0  0  0
   57.0130   29.3020   43.1080 C   0  0  0  0  0  0  0  0  0  0  0  0
   57.7290   28.5640   44.2700 C   0  0  2  0  0  0  0  0  0  0  0  0
   56.7690   28.2100   45.3370 N   0  0  0  0  0  0  0  0  0  0  0  0
   57.3910   27.3730   46.3710 C   0  0  0  0  0  0  0  0  0  0  0  0
   56.8120   25.9960   46.3120 C   0  0  0  0  0  0  0  0  0  0  0  0
   57.5270   24.8590   46.6850 C   0  0  0  0  0  0  0  0  0  0  0  0
   56.4960   23.5380   46.5490 S   0  0  0  0  0  0  0  0  0  0  0  0
   55.1990   24.4630   46.0150 C   0  0  0  0  0  0  0  0  0  0  0  0
   53.8300   23.9360   45.7480 C   0  0  0  0  0  0  0  0  0  0  0  0
   55.5160   25.7740   45.9610 N   0  0  0  0  0  0  0  0  0  0  0  0
   58.8490   29.4690   44.8360 C   0  0  0  0  0  0  0  0  0  0  0  0
   60.1512   35.3243   46.6745 H   0  0  0  0  0  0  0  0  0  0  0  0
   60.1515   34.2313   45.2490 H   0  0  0  0  0  0  0  0  0  0  0  0
   59.1274   35.7071   45.2490 H   0  0  0  0  0  0  0  0  0  0  0  0
   58.6352   33.8486   47.5227 H   0  0  0  0  0  0  0  0  0  0  0  0
   57.4727   34.7105   46.4445 H   0  0  0  0  0  0  0  0  0  0  0  0
   56.3680   33.3210   44.5940 H   0  0  0  0  0  0  0  0  0  0  0  0
   55.4329   30.3930   44.1123 H   0  0  0  0  0  0  0  0  0  0  0  0
   56.1366   31.2323   42.6796 H   0  0  0  0  0  0  0  0  0  0  0  0
   56.2324   28.6437   42.6989 H   0  0  0  0  0  0  0  0  0  0  0  0
   57.7703   29.5481   42.3491 H   0  0  0  0  0  0  0  0  0  0  0  0
   58.1683   27.6317   43.8854 H   0  0  0  0  0  0  0  0  0  0  0  0
   55.9870   27.6470   44.9280 H   0  0  0  0  0  0  0  0  0  0  0  0
   58.4761   27.3223   46.1980 H   0  0  0  0  0  0  0  0  0  0  0  0
   57.1978   27.8100   47.3618 H   0  0  0  0  0  0  0  0  0  0  0  0
   58.5775   24.8311   47.0101 H   0  0  0  0  0  0  0  0  0  0  0  0
   53.3200   23.7397   46.7027 H   0  0  0  0  0  0  0  0  0  0  0  0
   53.2573   24.6779   45.1722 H   0  0  0  0  0  0  0  0  0  0  0  0
   53.9027   23.0016   45.1722 H   0  0  0  0  0  0  0  0  0  0  0  0
   59.2118   29.0463   45.7845 H   0  0  0  0  0  0  0  0  0  0  0  0
   59.6700   29.5193   44.1057 H   0  0  0  0  0  0  0  0  0  0  0  0
  1  2  1  0
  2  3  1  0
  3  4  2  0
  4  5  1  0
  5  6  1  0
  6  7  2  0
  6  8  1  0
  8  9  1  0
  9 10  1  0
 10 11  1  0
 11 12  1  0
 12 13  1  0
 13 14  2  0
 14 15  1  0
 15 16  1  0
 16 17  1  0
 16 18  2  0
 10 19  1  0
  7  3  1  0
 18 13  1  0
 19  5  1  0
  1 20  1  0
  1 21  1  0
  1 22  1  0
  2 23  1  0
  2 24  1  0
  7 25  1  0
  8 26  1  0
  8 27  1  0
  9 28  1  0
  9 29  1  0
 10 30  1  6
 11 31  1  0
 12 32  1  0
 12 33  1  0
 14 34  1  0
 17 35  1  0
 17 36  1  0
 17 37  1  0
 19 38  1  0
 19 39  1  0
M  CHG  1   7   1
M  END
>  <UniqueID>  (13) 
12

>  <SMILES>  (13) 
CCc1nn2c([nH+]1)CC[C@H](NCc1csc(C)n1)C2

>  <Energy>  (13) 
96.99929152873472

>  <Genealogy>  (13) 
CCc1nn2c([nH+]1)CCC(NCc1csc(C)n1)C2 (protonated)
CCc1nn2c([nH+]1)CC[C@H](NCc1csc(C)n1)C2 (chirality)
CCc1nn2c([nH+]1)CC[C@H](NCc1csc(C)n1)C2 (3D coordinates assigned)
CCc1nn2c([nH+]1)CC[C@H](NCc1csc(C)n1)C2 (nonaromatic ring conformer: 96.99929152873472 kcal/mol)

>  <smiles>  (13) 
CCc1nc2n(n1)CC(NCc1csc(C)n1)CC2

>  <score_type>  (13) 
oracle

>  <origin>  (13) 
adg

>  <m_score__min__energy>  (13) 
-5.6600000000000001

>  <m_primary>  (13) 
energy

$$$$
13:0
     RDKit          3D

 40 43  0  0  0  0  0  0  0  0999 V2000
   63.6760   33.6800   51.0650 C   0  0  0  0  0  0  0  0  0  0  0  0
   62.9940   33.7190   49.7660 N   0  0  0  0  0  0  0  0  0  0  0  0
   61.7010   34.0650   49.7060 N   0  0  0  0  0  0  0  0  0  0  0  0
   61.0210   34.1190   48.5260 C   0  0  0  0  0  0  0  0  0  0  0  0
   61.6800   33.7640   47.3340 C   0  0  0  0  0  0  0  0  0  0  0  0
   63.0270   33.4070   47.3970 C   0  0  0  0  0  0  0  0  0  0  0  0
   63.6770   33.3840   48.6290 C   0  0  0  0  0  0  0  0  0  0  0  0
   64.8940   33.0530   48.6780 O   0  0  0  0  0  0  0  0  0  0  0  0
   60.9910   33.8160   45.9900 C   0  0  0  0  0  0  0  0  0  0  0  0
   59.5480   34.0530   46.1300 N   0  0  0  0  0  0  0  0  0  0  0  0
   58.5950   33.3480   45.3090 C   0  0  0  0  0  0  0  0  0  0  0  0
   57.8700   33.9920   44.5020 O   0  0  0  0  0  0  0  0  0  0  0  0
   58.4210   31.8860   45.4140 C   0  0  0  0  0  0  0  0  0  0  0  0
   58.9150   31.1870   46.5380 C   0  0  0  0  0  0  0  0  0  0  0  0
   58.7760   29.7860   46.6330 C   0  0  0  0  0  0  0  0  0  0  0  0
   58.1310   29.0620   45.6160 C   0  0  0  0  0  0  0  0  0  0  0  0
   57.6350   29.7730   44.5270 C   0  0  0  0  0  0  0  0  0  0  0  0
   56.9280   29.3380   43.4280 C   0  0  0  0  0  0  0  0  0  0  0  0
   56.6460   30.4880   42.7000 C   0  0  0  0  0  0  0  0  0  0  0  0
   57.1510   31.5810   43.3140 N   0  0  0  0  0  0  0  0  0  0  0  0
   57.7660   31.1340   44.4240 C   0  0  0  0  0  0  0  0  0  0  0  0
   59.0990   34.9830   47.1660 C   0  0  0  0  0  0  0  0  0  0  0  0
   59.5530   34.4700   48.5290 C   0  0  0  0  0  0  0  0  0  0  0  0
   62.9300   33.7227   51.8722 H   0  0  0  0  0  0  0  0  0  0  0  0
   64.2533   32.7474   51.1482 H   0  0  0  0  0  0  0  0  0  0  0  0
   64.3559   34.5407   51.1482 H   0  0  0  0  0  0  0  0  0  0  0  0
   61.1850   34.3010   50.5860 H   0  0  0  0  0  0  0  0  0  0  0  0
   63.5731   33.1450   46.4788 H   0  0  0  0  0  0  0  0  0  0  0  0
   61.4303   34.6303   45.3951 H   0  0  0  0  0  0  0  0  0  0  0  0
   61.1332   32.8450   45.4931 H   0  0  0  0  0  0  0  0  0  0  0  0
   59.4132   31.7407   47.3475 H   0  0  0  0  0  0  0  0  0  0  0  0
   59.1758   29.2563   47.5103 H   0  0  0  0  0  0  0  0  0  0  0  0
   58.0216   27.9692   45.6784 H   0  0  0  0  0  0  0  0  0  0  0  0
   56.6472   28.3038   43.1799 H   0  0  0  0  0  0  0  0  0  0  0  0
   56.0875   30.5061   41.7525 H   0  0  0  0  0  0  0  0  0  0  0  0
   57.0510   32.5690   42.9920 H   0  0  0  0  0  0  0  0  0  0  0  0
   59.5343   35.9764   46.9828 H   0  0  0  0  0  0  0  0  0  0  0  0
   58.0018   35.0586   47.1455 H   0  0  0  0  0  0  0  0  0  0  0  0
   59.3735   35.2507   49.2829 H   0  0  0  0  0  0  0  0  0  0  0  0
   58.9807   33.5604   48.7640 H   0  0  0  0  0  0  0  0  0  0  0  0
  1  2  1  0
  2  3  1  0
  3  4  2  0
  4  5  1  0
  5  6  2  0
  6  7  1  0
  7  8  2  0
  5  9  1  0
  9 10  1  0
 10 11  1  0
 11 12  2  0
 11 13  1  0
 13 14  2  0
 14 15  1  0
 15 16  2  0
 16 17  1  0
 17 18  1  0
 18 19  2  0
 19 20  1  0
 20 21  1  0
 10 22  1  0
 22 23  1  0
  7  2  1  0
 21 13  1  0
 23  4  1  0
 21 17  2  0
  1 24  1  0
  1 25  1  0
  1 26  1  0
  3 27  1  0
  6 28  1  0
  9 29  1  0
  9 30  1  0
 14 31  1  0
 15 32  1  0
 16 33  1  0
 18 34  1  0
 19 35  1  0
 20 36  1  0
 22 37  1  0
 22 38  1  0
 23 39  1  0
 23 40  1  0
M  CHG  1   3   1
M  END
>  <UniqueID>  (14) 
13

>  <SMILES>  (14) 
Cn1[nH+]c2c(cc1=O)CN(C(=O)c1cccc3cc[nH]c13)CC2

>  <Energy>  (14) 
85.25059946600632

>  <Genealogy>  (14) 
Cn1[nH+]c2c(cc1=O)CN(C(=O)c1cccc3cc[nH]c13)CC2 (protonated)
Cn1[nH+]c2c(cc1=O)CN(C(=O)c1cccc3cc[nH]c13)CC2 (3D coordinates assigned)
Cn1[nH+]c2c(cc1=O)CN(C(=O)c1cccc3cc[nH]c13)CC2 (nonaromatic ring conformer: 85.25059946600632 kcal/mol)

>  <smiles>  (14) 
Cn1nc2c(cc1=O)CN(C(=O)c1cccc3cc[nH]c13)CC2

>  <score_type>  (14) 
oracle

>  <origin>  (14) 
adg

>  <m_score__min__energy>  (14) 
-6.8099999999999996

>  <m_primary>  (14) 
energy

$$$$
14:0
     RDKit          3D

 33 35  0  0  0  0  0  0  0  0999 V2000
   57.3940   28.7470   44.6430 C   0  0  0  0  0  0  0  0  0  0  0  0
   56.9570   29.9410   45.2820 O   0  0  0  0  0  0  0  0  0  0  0  0
   57.5270   31.2060   45.0730 C   0  0  0  0  0  0  0  0  0  0  0  0
   57.5540   31.8230   43.7920 C   0  0  0  0  0  0  0  0  0  0  0  0
   58.1340   33.0930   43.6210 C   0  0  0  0  0  0  0  0  0  0  0  0
   58.6760   33.7180   44.7400 C   0  0  0  0  0  0  0  0  0  0  0  0
   59.2840   34.9490   44.8660 C   0  0  0  0  0  0  0  0  0  0  0  0
   59.6110   35.0580   46.2130 C   0  0  0  0  0  0  0  0  0  0  0  0
   59.2330   33.9460   46.8880 N   0  0  0  0  0  0  0  0  0  0  0  0
   59.3510   33.7390   48.3320 C   0  0  0  0  0  0  0  0  0  0  0  0
   60.7870   33.4820   48.7030 C   0  0  0  0  0  0  0  0  0  0  0  0
   61.2710   33.8310   49.9750 C   0  0  0  0  0  0  0  0  0  0  0  0
   62.6130   33.6140   50.3030 C   0  0  0  0  0  0  0  0  0  0  0  0
   63.4820   33.0510   49.3630 C   0  0  0  0  0  0  0  0  0  0  0  0
   65.3160   32.7580   49.8110 Br  0  0  0  0  0  0  0  0  0  0  0  0
   63.0080   32.7050   48.0940 C   0  0  0  0  0  0  0  0  0  0  0  0
   61.6670   32.9200   47.7650 C   0  0  0  0  0  0  0  0  0  0  0  0
   58.6550   33.1350   45.9790 C   0  0  0  0  0  0  0  0  0  0  0  0
   58.0860   31.8740   46.1800 C   0  0  0  0  0  0  0  0  0  0  0  0
   57.6667   28.0020   45.4050 H   0  0  0  0  0  0  0  0  0  0  0  0
   56.5831   28.3493   44.0150 H   0  0  0  0  0  0  0  0  0  0  0  0
   58.2700   28.9667   44.0150 H   0  0  0  0  0  0  0  0  0  0  0  0
   57.1173   31.3023   42.9270 H   0  0  0  0  0  0  0  0  0  0  0  0
   58.1584   33.5770   42.6335 H   0  0  0  0  0  0  0  0  0  0  0  0
   59.4704   35.6865   44.0715 H   0  0  0  0  0  0  0  0  0  0  0  0
   60.1082   35.9274   46.6679 H   0  0  0  0  0  0  0  0  0  0  0  0
   58.9945   34.6367   48.8584 H   0  0  0  0  0  0  0  0  0  0  0  0
   58.7435   32.8688   48.6214 H   0  0  0  0  0  0  0  0  0  0  0  0
   60.5913   34.2769   50.7161 H   0  0  0  0  0  0  0  0  0  0  0  0
   62.9855   33.8865   51.3015 H   0  0  0  0  0  0  0  0  0  0  0  0
   63.6913   32.2631   47.3539 H   0  0  0  0  0  0  0  0  0  0  0  0
   61.2989   32.6472   46.7650 H   0  0  0  0  0  0  0  0  0  0  0  0
   58.0751   31.4142   47.1792 H   0  0  0  0  0  0  0  0  0  0  0  0
  1  2  1  0
  2  3  1  0
  3  4  2  0
  4  5  1  0
  5  6  2  0
  6  7  1  0
  7  8  2  0
  8  9  1  0
  9 10  1  0
 10 11  1  0
 11 12  2  0
 12 13  1  0
 13 14  2  0
 14 15  1  0
 14 16  1  0
 16 17  2  0
  9 18  1  0
 18 19  2  0
 19  3  1  0
 18  6  1  0
 17 11  1  0
  1 20  1  0
  1 21  1  0
  1 22  1  0
  4 23  1  0
  5 24  1  0
  7 25  1  0
  8 26  1  0
 10 27  1  0
 10 28  1  0
 12 29  1  0
 13 30  1  0
 16 31  1  0
 17 32  1  0
 19 33  1  0
M  END
>  <UniqueID>  (15) 
14

>  <SMILES>  (15) 
COc1ccc2ccn(Cc3ccc(Br)cc3)c2c1

>  <Energy>  (15) 
66.29323670301956

>  <Genealogy>  (15) 
COc1ccc2ccn(Cc3ccc(Br)cc3)c2c1 (3D coordinates assigned)
COc1ccc2ccn(Cc3ccc(Br)cc3)c2c1 (optimized conformer: 66.29323670301956 kcal/mol)

>  <smiles>  (15) 
COc1ccc2ccn(Cc3ccc(Br)cc3)c2c1

>  <score_type>  (15) 
oracle

>  <origin>  (15) 
adg

>  <m_score__min__energy>  (15) 
-7.1399999999999997

>  <m_primary>  (15) 
energy

$$$$
15:0
     RDKit          3D

 45 47  0  0  0  0  0  0  0  0999 V2000
   57.7450   32.3310   42.4410 C   0  0  0  0  0  0  0  0  0  0  0  0
   58.0230   31.6450   43.7580 C   0  0  0  0  0  0  0  0  0  0  0  0
   58.2350   30.2960   43.7470 N   0  0  0  0  0  0  0  0  0  0  0  0
   58.4300   29.5950   44.8950 C   0  0  0  0  0  0  0  0  0  0  0  0
   58.6620   28.2100   44.8530 C   0  0  0  0  0  0  0  0  0  0  0  0
   58.8530   27.4940   46.0370 C   0  0  0  0  0  0  0  0  0  0  0  0
   58.8100   28.1510   47.2680 C   0  0  0  0  0  0  0  0  0  0  0  0
   58.5750   29.5270   47.3200 C   0  0  0  0  0  0  0  0  0  0  0  0
   58.3840   30.2590   46.1320 C   0  0  0  0  0  0  0  0  0  0  0  0
   58.1520   31.6430   46.1370 C   0  0  0  0  0  0  0  0  0  0  0  0
   58.0690   32.2480   47.2430 O   0  0  0  0  0  0  0  0  0  0  0  0
   58.0140   32.3340   44.9550 N   0  0  0  0  0  0  0  0  0  0  0  0
   57.8980   33.8110   44.9940 C   0  0  0  0  0  0  0  0  0  0  0  0
   59.2640   34.4990   44.8100 C   0  0  0  0  0  0  0  0  0  0  0  0
   60.0240   34.5800   46.0800 N   0  0  0  0  0  0  0  0  0  0  0  0
   59.1090   34.9350   47.1810 C   0  0  0  0  0  0  0  0  0  0  0  0
   60.6980   33.2940   46.3710 C   0  0  0  0  0  0  0  0  0  0  0  0
   61.7700   33.4350   47.4320 C   0  0  0  0  0  0  0  0  0  0  0  0
   61.5060   34.0600   48.6650 C   0  0  0  0  0  0  0  0  0  0  0  0
   62.5270   34.2260   49.6060 C   0  0  0  0  0  0  0  0  0  0  0  0
   63.8200   33.7810   49.3230 C   0  0  0  0  0  0  0  0  0  0  0  0
   64.0960   33.1730   48.0960 C   0  0  0  0  0  0  0  0  0  0  0  0
   63.0790   33.0060   47.1520 C   0  0  0  0  0  0  0  0  0  0  0  0
   57.3380   33.3354   42.6295 H   0  0  0  0  0  0  0  0  0  0  0  0
   58.6797   32.4159   41.8673 H   0  0  0  0  0  0  0  0  0  0  0  0
   57.0149   31.7412   41.8673 H   0  0  0  0  0  0  0  0  0  0  0  0
   58.2470   29.7840   42.8360 H   0  0  0  0  0  0  0  0  0  0  0  0
   58.6933   27.6881   43.8852 H   0  0  0  0  0  0  0  0  0  0  0  0
   59.0377   26.4103   45.9994 H   0  0  0  0  0  0  0  0  0  0  0  0
   58.9614   27.5842   48.1985 H   0  0  0  0  0  0  0  0  0  0  0  0
   58.5390   30.0406   48.2921 H   0  0  0  0  0  0  0  0  0  0  0  0
   57.2243   34.1363   44.1876 H   0  0  0  0  0  0  0  0  0  0  0  0
   57.5024   34.0962   45.9800 H   0  0  0  0  0  0  0  0  0  0  0  0
   59.8541   33.9259   44.0796 H   0  0  0  0  0  0  0  0  0  0  0  0
   59.0814   35.5253   44.4589 H   0  0  0  0  0  0  0  0  0  0  0  0
   59.6033   34.7432   48.1448 H   0  0  0  0  0  0  0  0  0  0  0  0
   58.8455   36.0006   47.1097 H   0  0  0  0  0  0  0  0  0  0  0  0
   58.1958   34.3259   47.1097 H   0  0  0  0  0  0  0  0  0  0  0  0
   59.9460   32.5717   46.7214 H   0  0  0  0  0  0  0  0  0  0  0  0
   61.1832   32.9509   45.4453 H   0  0  0  0  0  0  0  0  0  0  0  0
   60.4911   34.4198   48.8897 H   0  0  0  0  0  0  0  0  0  0  0  0
   62.3112   34.7080   50.5709 H   0  0  0  0  0  0  0  0  0  0  0  0
   64.6209   33.9092   50.0660 H   0  0  0  0  0  0  0  0  0  0  0  0
   65.1153   32.8251   47.8724 H   0  0  0  0  0  0  0  0  0  0  0  0
   63.3044   32.5357   46.1835 H   0  0  0  0  0  0  0  0  0  0  0  0
  1  2  1  0
  2  3  2  0
  3  4  1  0
  4  5  2  0
  5  6  1  0
  6  7  2  0
  7  8  1  0
  8  9  2  0
  9 10  1  0
 10 11  2  0
 10 12  1  0
 12 13  1  0
 13 14  1  0
 14 15  1  0
 15 16  1  0
 15 17  1  0
 17 18  1  0
 18 19  2  0
 19 20  1  0
 20 21  2  0
 21 22  1  0
 22 23  2  0
 12  2  1  0
 23 18  1  0
  9  4  1  0
  1 24  1  0
  1 25  1  0
  1 26  1  0
  3 27  1  0
  5 28  1  0
  6 29  1  0
  7 30  1  0
  8 31  1  0
 13 32  1  0
 13 33  1  0
 14 34  1  0
 14 35  1  0
 16 36  1  0
 16 37  1  0
 16 38  1  0
 17 39  1  0
 17 40  1  0
 19 41  1  0
 20 42  1  0
 21 43  1  0
 22 44  1  0
 23 45  1  0
M  CHG  1   3   1
M  END
>  <UniqueID>  (16) 
15

>  <SMILES>  (16) 
Cc1[nH+]c2ccccc2c(=O)n1CCN(C)Cc1ccccc1

>  <Energy>  (16) 
56.53974478948199

>  <Genealogy>  (16) 
Cc1[nH+]c2ccccc2c(=O)n1CCN(C)Cc1ccccc1 (protonated)
Cc1[nH+]c2ccccc2c(=O)n1CCN(C)Cc1ccccc1 (3D coordinates assigned)
Cc1[nH+]c2ccccc2c(=O)n1CCN(C)Cc1ccccc1 (optimized conformer: 56.53974478948199 kcal/mol)

>  <smiles>  (16) 
Cc1nc2ccccc2c(=O)n1CCN(C)Cc1ccccc1

>  <score_type>  (16) 
oracle

>  <origin>  (16) 
adg

>  <m_score__min__energy>  (16) 
-6.2999999999999998

>  <m_primary>  (16) 
energy

$$$$
16:0
     RDKit          3D

 50 53  0  0  0  0  0  0  0  0999 V2000
   58.9150   25.8420   48.3800 H   0  0  0  0  0  0  0  0  0  0  0  0
   59.4330   26.7050   48.1160 N   0  0  0  0  0  0  0  0  0  0  0  0
   58.9870   27.7210   47.4320 C   0  0  0  0  0  0  0  0  0  0  0  0
   57.8960   27.4980   46.5660 C   0  0  0  0  0  0  0  0  0  0  0  0
   57.2680   26.1650   46.4350 C   0  0  0  0  0  0  0  0  0  0  0  0
   56.9650   25.5330   47.4840 O   0  0  0  0  0  0  0  0  0  0  0  0
   57.0180   25.5750   45.1430 N   0  0  0  0  0  0  0  0  0  0  0  0
   56.0820   24.4510   45.0400 C   0  0  0  0  0  0  0  0  0  0  0  0
   55.8013   24.1140   46.0488 H   0  0  0  0  0  0  0  0  0  0  0  0
   55.1811   24.7727   44.4970 H   0  0  0  0  0  0  0  0  0  0  0  0
   56.5614   23.6232   44.4970 H   0  0  0  0  0  0  0  0  0  0  0  0
   57.7670   26.0240   43.9650 C   0  0  0  0  0  0  0  0  0  0  0  0
   58.6689   26.5646   44.2881 H   0  0  0  0  0  0  0  0  0  0  0  0
   58.0588   25.1518   43.3616 H   0  0  0  0  0  0  0  0  0  0  0  0
   57.1352   26.6924   43.3616 H   0  0  0  0  0  0  0  0  0  0  0  0
   57.3890   28.5510   45.8100 C   0  0  0  0  0  0  0  0  0  0  0  0
   56.5655   28.3717   45.1031 H   0  0  0  0  0  0  0  0  0  0  0  0
   57.9220   29.8330   45.9460 C   0  0  0  0  0  0  0  0  0  0  0  0
   57.4040   30.9330   45.2360 C   0  0  0  0  0  0  0  0  0  0  0  0
   56.4390   30.7600   44.4380 O   0  0  0  0  0  0  0  0  0  0  0  0
   57.9430   32.1850   45.4110 N   0  0  0  0  0  0  0  0  0  0  0  0
   57.4370   33.2620   44.7250 C   0  0  0  0  0  0  0  0  0  0  0  0
   56.6018   33.1154   44.0243 H   0  0  0  0  0  0  0  0  0  0  0  0
   57.9680   34.5390   44.9050 C   0  0  0  0  0  0  0  0  0  0  0  0
   57.5519   35.3941   44.3521 H   0  0  0  0  0  0  0  0  0  0  0  0
   59.0260   34.7250   45.7870 C   0  0  0  0  0  0  0  0  0  0  0  0
   59.4445   35.7309   45.9385 H   0  0  0  0  0  0  0  0  0  0  0  0
   59.5590   33.6350   46.4820 C   0  0  0  0  0  0  0  0  0  0  0  0
   60.6880   33.8430   47.4540 C   0  0  0  0  0  0  0  0  0  0  0  0
   60.3041   33.7723   48.4824 H   0  0  0  0  0  0  0  0  0  0  0  0
   61.4555   33.0711   47.2952 H   0  0  0  0  0  0  0  0  0  0  0  0
   61.1300   34.8377   47.2952 H   0  0  0  0  0  0  0  0  0  0  0  0
   58.9940   32.3580   46.2840 C   0  0  0  0  0  0  0  0  0  0  0  0
   59.4950   31.2940   46.9630 N   0  0  0  0  0  0  0  0  0  0  0  0
   58.9990   30.0360   46.8250 C   0  0  0  0  0  0  0  0  0  0  0  0
   59.5450   28.9860   47.5340 N   0  0  0  0  0  0  0  0  0  0  0  0
   60.7200   29.2720   48.3950 C   0  0  0  0  0  0  0  0  0  0  0  0
   61.0338   28.3436   48.8946 H   0  0  0  0  0  0  0  0  0  0  0  0
   61.5301   29.6632   47.7620 H   0  0  0  0  0  0  0  0  0  0  0  0
   60.3870   30.3080   49.4430 C   0  0  0  0  0  0  0  0  0  0  0  0
   61.3020   31.3260   49.7650 C   0  0  0  0  0  0  0  0  0  0  0  0
   62.2723   31.3735   49.2490 H   0  0  0  0  0  0  0  0  0  0  0  0
   60.9840   32.2780   50.7380 C   0  0  0  0  0  0  0  0  0  0  0  0
   61.7062   33.0690   50.9885 H   0  0  0  0  0  0  0  0  0  0  0  0
   59.7510   32.2270   51.3930 C   0  0  0  0  0  0  0  0  0  0  0  0
   59.5048   32.9753   52.1608 H   0  0  0  0  0  0  0  0  0  0  0  0
   58.8310   31.2260   51.0730 C   0  0  0  0  0  0  0  0  0  0  0  0
   57.8598   31.1870   51.5880 H   0  0  0  0  0  0  0  0  0  0  0  0
   59.1440   30.2730   50.0980 C   0  0  0  0  0  0  0  0  0  0  0  0
   58.4131   29.4917   49.8425 H   0  0  0  0  0  0  0  0  0  0  0  0
  1  2  1  0
  2  3  2  0
  3  4  1  0
  4  5  1  0
  5  6  2  0
  5  7  1  0
  7  8  1  0
  8  9  1  0
  8 10  1  0
  8 11  1  0
  7 12  1  0
 12 13  1  0
 12 14  1  0
 12 15  1  0
  4 16  2  0
 16 17  1  0
 16 18  1  0
 18 19  1  0
 19 20  2  0
 19 21  1  0
 21 22  1  0
 22 23  1  0
 22 24  2  0
 24 25  1  0
 24 26  1  0
 26 27  1  0
 26 28  2  0
 28 29  1  0
 29 30  1  0
 29 31  1  0
 29 32  1  0
 28 33  1  0
 33 34  2  0
 34 35  1  0
 35 36  1  0
 36 37  1  0
 37 38  1  0
 37 39  1  0
 37 40  1  0
 40 41  2  0
 41 42  1  0
 41 43  1  0
 43 44  1  0
 43 45  2  0
 45 46  1  0
 45 47  1  0
 47 48  1  0
 47 49  2  0
 49 50  1  0
 36  3  1  0
 49 40  1  0
 35 18  2  0
 33 21  1  0
M  END
>  <UniqueID>  (17) 
16

>  <SMILES>  (17) 
[H]/N=c1/c(C(=O)N(C)C)cc2c(=O)n3cccc(C)c3nc2n1Cc1ccccc1

>  <Energy>  (17) 
76.72636813516381

>  <Genealogy>  (17) 
[H]/N=c1/c(C(=O)N(C)C)cc2c(=O)n3cccc(C)c3nc2n1Cc1ccccc1 (cis-trans isomerization)
[H]/N=c1/c(C(=O)N(C)C)cc2c(=O)n3cccc(C)c3nc2n1Cc1ccccc1 (3D coordinates assigned)
[H]/N=c1/c(C(=O)N(C)C)cc2c(=O)n3cccc(C)c3nc2n1Cc1ccccc1 (optimized conformer: 76.72636813516381 kcal/mol)

>  <smiles>  (17) 
Cc1cccn2c(=O)c3cc(C(=O)N(C)C)c(=N)n(Cc4ccccc4)c3nc12

>  <score_type>  (17) 
oracle

>  <origin>  (17) 
adg

>  <m_score__min__energy>  (17) 
-7.5

>  <m_primary>  (17) 
energy

$$$$
17:0
     RDKit          3D

 50 52  0  0  0  0  0  0  0  0999 V2000
   56.3130   29.6530   42.9620 C   0  0  0  0  0  0  0  0  0  0  0  0
   56.9920   30.8040   43.6220 C   0  0  0  0  0  0  0  0  0  0  0  0
   57.7380   31.7730   42.9800 C   0  0  0  0  0  0  0  0  0  0  0  0
   58.1700   32.6280   43.9710 C   0  0  0  0  0  0  0  0  0  0  0  0
   57.6550   32.1270   45.1520 C   0  0  0  0  0  0  0  0  0  0  0  0
   57.8870   32.6830   46.5280 C   0  0  0  0  0  0  0  0  0  0  0  0
   58.9020   31.9180   47.3060 N   0  0  1  0  0  0  0  0  0  0  0  0
   59.1150   32.4660   48.6790 C   0  0  0  0  0  0  0  0  0  0  0  0
   60.5470   33.0040   48.9240 C   0  0  0  0  0  0  0  0  0  0  0  0
   61.4920   32.6370   47.8460 N   0  0  0  0  0  0  0  0  0  0  0  0
   62.6540   31.8850   48.3810 C   0  0  0  0  0  0  0  0  0  0  0  0
   63.8600   32.8070   48.6360 C   0  0  0  0  0  0  0  0  0  0  0  0
   64.3190   33.4920   47.4780 O   0  0  0  0  0  0  0  0  0  0  0  0
   63.3240   33.6510   46.4770 C   0  0  0  0  0  0  0  0  0  0  0  0
   61.9080   33.8190   47.0500 C   0  0  0  0  0  0  0  0  0  0  0  0
   58.5320   30.4770   47.3550 C   0  0  0  0  0  0  0  0  0  0  0  0
   59.2950   29.6220   46.3630 C   0  0  0  0  0  0  0  0  0  0  0  0
   60.5190   29.9550   45.9000 N   0  0  0  0  0  0  0  0  0  0  0  0
   60.8330   28.9670   45.0380 C   0  0  0  0  0  0  0  0  0  0  0  0
   59.8010   28.0580   44.9830 C   0  0  0  0  0  0  0  0  0  0  0  0
   58.8350   28.4730   45.8180 N   0  0  0  0  0  0  0  0  0  0  0  0
   57.5360   27.8330   46.0140 C   0  0  0  0  0  0  0  0  0  0  0  0
   56.9620   31.0360   44.9140 O   0  0  0  0  0  0  0  0  0  0  0  0
   55.9126   28.9743   43.7295 H   0  0  0  0  0  0  0  0  0  0  0  0
   55.4891   30.0240   42.3347 H   0  0  0  0  0  0  0  0  0  0  0  0
   57.0362   29.1113   42.3347 H   0  0  0  0  0  0  0  0  0  0  0  0
   57.9444   31.8470   41.9021 H   0  0  0  0  0  0  0  0  0  0  0  0
   58.7956   33.5243   43.8476 H   0  0  0  0  0  0  0  0  0  0  0  0
   58.2315   33.7232   46.4314 H   0  0  0  0  0  0  0  0  0  0  0  0
   56.9348   32.6126   47.0742 H   0  0  0  0  0  0  0  0  0  0  0  0
   59.8090   31.9410   46.7840 H   0  0  0  0  0  0  0  0  0  0  0  0
   58.4035   33.2898   48.8375 H   0  0  0  0  0  0  0  0  0  0  0  0
   58.9612   31.6345   49.3825 H   0  0  0  0  0  0  0  0  0  0  0  0
   60.5028   34.1009   48.9937 H   0  0  0  0  0  0  0  0  0  0  0  0
   60.9157   32.5494   49.8553 H   0  0  0  0  0  0  0  0  0  0  0  0
   62.3639   31.4072   49.3284 H   0  0  0  0  0  0  0  0  0  0  0  0
   62.9490   31.1329   47.6345 H   0  0  0  0  0  0  0  0  0  0  0  0
   63.5704   33.5553   49.3885 H   0  0  0  0  0  0  0  0  0  0  0  0
   64.6862   32.1643   48.9740 H   0  0  0  0  0  0  0  0  0  0  0  0
   63.5677   34.5427   45.8808 H   0  0  0  0  0  0  0  0  0  0  0  0
   63.3233   32.7342   45.8692 H   0  0  0  0  0  0  0  0  0  0  0  0
   61.8887   34.7086   47.6967 H   0  0  0  0  0  0  0  0  0  0  0  0
   61.2088   33.9275   46.2078 H   0  0  0  0  0  0  0  0  0  0  0  0
   58.7352   30.0998   48.3681 H   0  0  0  0  0  0  0  0  0  0  0  0
   57.4668   30.4076   47.0893 H   0  0  0  0  0  0  0  0  0  0  0  0
   61.7703   28.8980   44.4663 H   0  0  0  0  0  0  0  0  0  0  0  0
   59.7726   27.1498   44.3630 H   0  0  0  0  0  0  0  0  0  0  0  0
   57.3348   27.7339   47.0909 H   0  0  0  0  0  0  0  0  0  0  0  0
   56.7507   28.4473   45.5493 H   0  0  0  0  0  0  0  0  0  0  0  0
   57.5446   26.8360   45.5493 H   0  0  0  0  0  0  0  0  0  0  0  0
  1  2  1  0
  2  3  2  0
  3  4  1  0
  4  5  2  0
  5  6  1  0
  6  7  1  0
  7  8  1  0
  8  9  1  0
  9 10  1  0
 10 11  1  0
 11 12  1  0
 12 13  1  0
 13 14  1  0
 14 15  1  0
  7 16  1  0
 16 17  1  0
 17 18  2  0
 18 19  1  0
 19 20  2  0
 20 21  1  0
 21 22  1  0
  5 23  1  0
 23  2  1  0
 15 10  1  0
 21 17  1  0
  1 24  1  0
  1 25  1  0
  1 26  1  0
  3 27  1  0
  4 28  1  0
  6 29  1  0
  6 30  1  0
  7 31  1  6
  8 32  1  0
  8 33  1  0
  9 34  1  0
  9 35  1  0
 11 36  1  0
 11 37  1  0
 12 38  1  0
 12 39  1  0
 14 40  1  0
 14 41  1  0
 15 42  1  0
 15 43  1  0
 16 44  1  0
 16 45  1  0
 19 46  1  0
 20 47  1  0
 22 48  1  0
 22 49  1  0
 22 50  1  0
M  CHG  1   7   1
M  END
>  <UniqueID>  (18) 
17

>  <SMILES>  (18) 
Cc1ccc(C[N@@H+](CCN2CCOCC2)Cc2nccn2C)o1

>  <Energy>  (18) 
123.18893854475394

>  <Genealogy>  (18) 
Cc1ccc(C[NH+](CCN2CCOCC2)Cc2nccn2C)o1 (protonated)
Cc1ccc(C[N@@H+](CCN2CCOCC2)Cc2nccn2C)o1 (chirality)
Cc1ccc(C[N@@H+](CCN2CCOCC2)Cc2nccn2C)o1 (3D coordinates assigned)
Cc1ccc(C[N@@H+](CCN2CCOCC2)Cc2nccn2C)o1 (nonaromatic ring conformer: 123.18893854475394 kcal/mol)

>  <smiles>  (18) 
Cc1ccc(CN(CCN2CCOCC2)Cc2nccn2C)o1

>  <score_type>  (18) 
oracle

>  <origin>  (18) 
adg

>  <m_score__min__energy>  (18) 
-4.75

>  <m_primary>  (18) 
energy

$$$$
18:0
     RDKit          3D

 41 42  0  0  0  0  0  0  0  0999 V2000
   60.7760   26.7960   50.0830 C   0  0  0  0  0  0  0  0  0  0  0  0
   60.8130   28.2490   49.5890 C   0  0  0  0  0  0  0  0  0  0  0  0
   60.1090   28.4280   48.2840 N   0  0  0  0  0  0  0  0  0  0  0  0
   58.8360   29.1840   48.4240 C   0  0  0  0  0  0  0  0  0  0  0  0
   58.9750   30.6680   48.0730 C   0  0  0  0  0  0  0  0  0  0  0  0
   59.8940   27.1300   47.5790 C   0  0  0  0  0  0  0  0  0  0  0  0
   58.6860   27.1190   46.6330 C   0  0  0  0  0  0  0  0  0  0  0  0
   57.6990   26.1540   46.8960 C   0  0  0  0  0  0  0  0  0  0  0  0
   56.4230   26.3000   46.3650 C   0  0  0  0  0  0  0  0  0  0  0  0
   55.5320   25.4500   46.6240 O   0  0  0  0  0  0  0  0  0  0  0  0
   56.1290   27.3450   45.6100 O   0  0  0  0  0  0  0  0  0  0  0  0
   57.0310   28.2540   45.2580 C   0  0  0  0  0  0  0  0  0  0  0  0
   56.6100   29.3330   44.4790 C   0  0  0  0  0  0  0  0  0  0  0  0
   57.5210   30.3000   44.0560 C   0  0  0  0  0  0  0  0  0  0  0  0
   57.0580   31.4510   43.2110 C   0  0  0  0  0  0  0  0  0  0  0  0
   58.8820   30.1140   44.3100 C   0  0  0  0  0  0  0  0  0  0  0  0
   59.3420   29.0080   45.0480 C   0  0  0  0  0  0  0  0  0  0  0  0
   60.8200   28.7280   44.9750 C   0  0  0  0  0  0  0  0  0  0  0  0
   58.3920   28.1300   45.6600 C   0  0  0  0  0  0  0  0  0  0  0  0
   60.7757   26.7826   51.1829 H   0  0  0  0  0  0  0  0  0  0  0  0
   59.8651   26.3050   49.7100 H   0  0  0  0  0  0  0  0  0  0  0  0
   61.6608   26.2593   49.7100 H   0  0  0  0  0  0  0  0  0  0  0  0
   60.3296   28.8897   50.3413 H   0  0  0  0  0  0  0  0  0  0  0  0
   61.8675   28.5245   49.4402 H   0  0  0  0  0  0  0  0  0  0  0  0
   60.7250   28.9830   47.6420 H   0  0  0  0  0  0  0  0  0  0  0  0
   58.0872   28.7350   47.7550 H   0  0  0  0  0  0  0  0  0  0  0  0
   58.5344   29.1244   49.4802 H   0  0  0  0  0  0  0  0  0  0  0  0
   59.0305   31.2600   48.9984 H   0  0  0  0  0  0  0  0  0  0  0  0
   59.8914   30.8212   47.4842 H   0  0  0  0  0  0  0  0  0  0  0  0
   58.1030   30.9888   47.4842 H   0  0  0  0  0  0  0  0  0  0  0  0
   60.7952   26.9043   46.9900 H   0  0  0  0  0  0  0  0  0  0  0  0
   59.6927   26.3783   48.3564 H   0  0  0  0  0  0  0  0  0  0  0  0
   57.9366   25.2819   47.5229 H   0  0  0  0  0  0  0  0  0  0  0  0
   55.5506   29.4211   44.1964 H   0  0  0  0  0  0  0  0  0  0  0  0
   56.7270   32.2738   43.8617 H   0  0  0  0  0  0  0  0  0  0  0  0
   57.8871   31.7965   42.5760 H   0  0  0  0  0  0  0  0  0  0  0  0
   56.2206   31.1262   42.5760 H   0  0  0  0  0  0  0  0  0  0  0  0
   59.6077   30.8460   43.9258 H   0  0  0  0  0  0  0  0  0  0  0  0
   61.2292   28.6505   45.9931 H   0  0  0  0  0  0  0  0  0  0  0  0
   60.9880   27.7821   44.4393 H   0  0  0  0  0  0  0  0  0  0  0  0
   61.3223   29.5470   44.4393 H   0  0  0  0  0  0  0  0  0  0  0  0
  1  2  1  0
  2  3  1  0
  3  4  1  0
  4  5  1  0
  3  6  1  0
  6  7  1  0
  7  8  2  0
  8  9  1  0
  9 10  2  0
  9 11  1  0
 11 12  1  0
 12 13  2  0
 13 14  1  0
 14 15  1  0
 14 16  2  0
 16 17  1  0
 17 18  1  0
 17 19  2  0
 19  7  1  0
 19 12  1  0
  1 20  1  0
  1 21  1  0
  1 22  1  0
  2 23  1  0
  2 24  1  0
  3 25  1  0
  4 26  1  0
  4 27  1  0
  5 28  1  0
  5 29  1  0
  5 30  1  0
  6 31  1  0
  6 32  1  0
  8 33  1  0
 13 34  1  0
 15 35  1  0
 15 36  1  0
 15 37  1  0
 16 38  1  0
 18 39  1  0
 18 40  1  0
 18 41  1  0
M  CHG  1   3   1
M  END
>  <UniqueID>  (19) 
18

>  <SMILES>  (19) 
CC[NH+](CC)Cc1cc(=O)oc2cc(C)cc(C)c12

>  <Energy>  (19) 
66.4823579560675

>  <Genealogy>  (19) 
CC[NH+](CC)Cc1cc(=O)oc2cc(C)cc(C)c12 (protonated)
CC[NH+](CC)Cc1cc(=O)oc2cc(C)cc(C)c12 (3D coordinates assigned)
CC[NH+](CC)Cc1cc(=O)oc2cc(C)cc(C)c12 (optimized conformer: 66.4823579560675 kcal/mol)

>  <smiles>  (19) 
CCN(CC)Cc1cc(=O)oc2cc(C)cc(C)c12

>  <score_type>  (19) 
oracle

>  <origin>  (19) 
adg

>  <m_score__min__energy>  (19) 
-4.9299999999999997

>  <m_primary>  (19) 
energy

$$$$
19:0
     RDKit          3D

 39 40  0  0  0  0  0  0  0  0999 V2000
   56.6360   26.6520   46.1120 C   0  0  0  0  0  0  0  0  0  0  0  0
   58.1440   26.4930   46.2830 C   0  0  0  0  0  0  0  0  0  0  0  0
   58.8050   27.8070   46.4280 N   0  0  0  0  0  0  0  0  0  0  0  0
   59.3670   28.0590   47.7750 C   0  0  0  0  0  0  0  0  0  0  0  0
   58.8860   29.4110   48.2850 C   0  0  0  0  0  0  0  0  0  0  0  0
   59.7280   28.1370   45.3160 C   0  0  0  0  0  0  0  0  0  0  0  0
   59.6290   29.5870   44.7810 C   0  0  0  0  0  0  0  0  0  0  0  0
   58.2160   30.0120   44.4730 C   0  0  0  0  0  0  0  0  0  0  0  0
   57.5680   31.1900   44.8150 C   0  0  0  0  0  0  0  0  0  0  0  0
   58.1290   32.3950   45.4530 C   0  0  0  0  0  0  0  0  0  0  0  0
   58.5300   33.4800   44.6590 C   0  0  0  0  0  0  0  0  0  0  0  0
   59.0560   34.6320   45.2530 C   0  0  0  0  0  0  0  0  0  0  0  0
   59.2040   34.6980   46.6410 C   0  0  0  0  0  0  0  0  0  0  0  0
   58.8350   33.6100   47.4350 C   0  0  0  0  0  0  0  0  0  0  0  0
   58.3060   32.4590   46.8450 C   0  0  0  0  0  0  0  0  0  0  0  0
   56.2620   31.0560   44.4940 N   0  0  0  0  0  0  0  0  0  0  0  0
   56.1410   29.8670   43.9760 O   0  0  0  0  0  0  0  0  0  0  0  0
   57.2660   29.2200   43.9450 N   0  0  0  0  0  0  0  0  0  0  0  0
   57.4070   27.9360   43.4640 O   0  0  0  0  0  0  0  0  0  0  0  0
   56.1581   26.7024   47.1015 H   0  0  0  0  0  0  0  0  0  0  0  0
   56.4256   27.5773   45.5556 H   0  0  0  0  0  0  0  0  0  0  0  0
   56.2373   25.7909   45.5556 H   0  0  0  0  0  0  0  0  0  0  0  0
   58.3420   25.8902   47.1816 H   0  0  0  0  0  0  0  0  0  0  0  0
   58.5465   25.9965   45.3877 H   0  0  0  0  0  0  0  0  0  0  0  0
   59.0346   27.2686   48.4640 H   0  0  0  0  0  0  0  0  0  0  0  0
   60.4655   28.0601   47.7179 H   0  0  0  0  0  0  0  0  0  0  0  0
   58.8866   29.4093   49.3850 H   0  0  0  0  0  0  0  0  0  0  0  0
   59.5582   30.2012   47.9192 H   0  0  0  0  0  0  0  0  0  0  0  0
   57.8658   29.5991   47.9192 H   0  0  0  0  0  0  0  0  0  0  0  0
   60.7571   27.9747   45.6692 H   0  0  0  0  0  0  0  0  0  0  0  0
   59.4408   27.4839   44.4787 H   0  0  0  0  0  0  0  0  0  0  0  0
   60.0413   30.2684   45.5398 H   0  0  0  0  0  0  0  0  0  0  0  0
   60.1947   29.6266   43.8384 H   0  0  0  0  0  0  0  0  0  0  0  0
   58.4303   33.4245   43.5649 H   0  0  0  0  0  0  0  0  0  0  0  0
   59.3533   35.4864   44.6272 H   0  0  0  0  0  0  0  0  0  0  0  0
   59.6111   35.6069   47.1081 H   0  0  0  0  0  0  0  0  0  0  0  0
   58.9610   33.6591   48.5267 H   0  0  0  0  0  0  0  0  0  0  0  0
   58.0272   31.6000   47.4729 H   0  0  0  0  0  0  0  0  0  0  0  0
   56.6480   27.4650   42.9880 H   0  0  0  0  0  0  0  0  0  0  0  0
  1  2  1  0
  2  3  1  0
  3  4  1  0
  4  5  1  0
  3  6  1  0
  6  7  1  0
  7  8  1  0
  8  9  1  0
  9 10  1  0
 10 11  2  0
 11 12  1  0
 12 13  2  0
 13 14  1  0
 14 15  2  0
  9 16  2  0
 16 17  1  0
 17 18  1  0
 18 19  1  0
 18  8  2  0
 15 10  1  0
  1 20  1  0
  1 21  1  0
  1 22  1  0
  2 23  1  0
  2 24  1  0
  4 25  1  0
  4 26  1  0
  5 27  1  0
  5 28  1  0
  5 29  1  0
  6 30  1  0
  6 31  1  0
  7 32  1  0
  7 33  1  0
 11 34  1  0
 12 35  1  0
 13 36  1  0
 14 37  1  0
 15 38  1  0
 19 39  1  0
M  CHG  1  18   1
M  END
>  <UniqueID>  (20) 
19

>  <SMILES>  (20) 
CCN(CC)CCc1c(-c2ccccc2)no[n+]1O

>  <Energy>  (20) 
79.67832389520741

>  <Genealogy>  (20) 
CCN(CC)CCc1c(-c2ccccc2)no[n+]1O (protonated)
CCN(CC)CCc1c(-c2ccccc2)no[n+]1O (3D coordinates assigned)
CCN(CC)CCc1c(-c2ccccc2)no[n+]1O (optimized conformer: 79.67832389520741 kcal/mol)

>  <smiles>  (20) 
CCN(CC)CCc1c(-c2ccccc2)no[n+]1[O-]

>  <score_type>  (20) 
oracle

>  <origin>  (20) 
adg

>  <m_score__min__energy>  (20) 
-5.6299999999999999

>  <m_primary>  (20) 
energy

$$$$
20:0
     RDKit          3D

 37 39  0  0  0  0  0  0  0  0999 V2000
   62.3910   32.5120   47.1410 C   0  0  0  0  0  0  0  0  0  0  0  0
   61.5120   31.5720   47.7510 O   0  0  0  0  0  0  0  0  0  0  0  0
   60.4140   30.9760   47.1080 C   0  0  0  0  0  0  0  0  0  0  0  0
   60.3650   29.5940   46.8440 C   0  0  0  0  0  0  0  0  0  0  0  0
   59.2560   29.0360   46.2020 C   0  0  0  0  0  0  0  0  0  0  0  0
   59.2200   27.7030   45.9500 N   0  0  0  0  0  0  0  0  0  0  0  0
   58.1590   27.1240   45.3240 C   0  0  0  0  0  0  0  0  0  0  0  0
   58.1750   25.6610   45.0740 C   0  0  0  0  0  0  0  0  0  0  0  0
   57.3910   25.1170   44.0410 C   0  0  0  0  0  0  0  0  0  0  0  0
   57.3920   23.7410   43.7990 C   0  0  0  0  0  0  0  0  0  0  0  0
   58.1680   22.8850   44.5900 C   0  0  0  0  0  0  0  0  0  0  0  0
   58.1670   21.4760   44.3430 N   0  0  0  0  0  0  0  0  0  0  0  0
   58.9420   23.4160   45.6290 C   0  0  0  0  0  0  0  0  0  0  0  0
   58.9440   24.7930   45.8730 C   0  0  0  0  0  0  0  0  0  0  0  0
   57.0960   27.8970   44.9510 N   0  0  0  0  0  0  0  0  0  0  0  0
   57.0840   29.2400   45.1800 C   0  0  0  0  0  0  0  0  0  0  0  0
   56.0850   29.9220   44.8220 O   0  0  0  0  0  0  0  0  0  0  0  0
   58.1780   29.8520   45.8160 C   0  0  0  0  0  0  0  0  0  0  0  0
   58.2230   31.2310   46.0780 C   0  0  0  0  0  0  0  0  0  0  0  0
   59.3410   31.7960   46.7250 C   0  0  0  0  0  0  0  0  0  0  0  0
   59.4230   33.1710   47.0040 O   0  0  0  0  0  0  0  0  0  0  0  0
   58.8890   34.1970   46.1750 C   0  0  0  0  0  0  0  0  0  0  0  0
   62.9207   33.0785   47.9211 H   0  0  0  0  0  0  0  0  0  0  0  0
   63.1216   31.9783   46.5154 H   0  0  0  0  0  0  0  0  0  0  0  0
   61.8096   33.2052   46.5154 H   0  0  0  0  0  0  0  0  0  0  0  0
   61.2043   28.9497   47.1447 H   0  0  0  0  0  0  0  0  0  0  0  0
   56.7721   25.7801   43.4186 H   0  0  0  0  0  0  0  0  0  0  0  0
   56.7803   23.3282   42.9833 H   0  0  0  0  0  0  0  0  0  0  0  0
   58.8970   20.8580   44.7640 H   0  0  0  0  0  0  0  0  0  0  0  0
   57.4370   21.0400   43.7350 H   0  0  0  0  0  0  0  0  0  0  0  0
   59.5507   22.7476   46.2556 H   0  0  0  0  0  0  0  0  0  0  0  0
   59.5506   25.2010   46.6949 H   0  0  0  0  0  0  0  0  0  0  0  0
   56.2570   27.4630   44.5060 H   0  0  0  0  0  0  0  0  0  0  0  0
   57.3822   31.8732   45.7771 H   0  0  0  0  0  0  0  0  0  0  0  0
   58.4725   34.9973   46.8043 H   0  0  0  0  0  0  0  0  0  0  0  0
   59.6876   34.6081   45.5399 H   0  0  0  0  0  0  0  0  0  0  0  0
   58.0942   33.7787   45.5399 H   0  0  0  0  0  0  0  0  0  0  0  0
  1  2  1  0
  2  3  1  0
  3  4  2  0
  4  5  1  0
  5  6  1  0
  6  7  2  0
  7  8  1  0
  8  9  2  0
  9 10  1  0
 10 11  2  0
 11 12  1  0
 11 13  1  0
 13 14  2  0
  7 15  1  0
 15 16  1  0
 16 17  2  0
 16 18  1  0
 18 19  1  0
 19 20  2  0
 20 21  1  0
 21 22  1  0
 20  3  1  0
 18  5  2  0
 14  8  1  0
  1 23  1  0
  1 24  1  0
  1 25  1  0
  4 26  1  0
  9 27  1  0
 10 28  1  0
 12 29  1  0
 12 30  1  0
 13 31  1  0
 14 32  1  0
 15 33  1  0
 19 34  1  0
 22 35  1  0
 22 36  1  0
 22 37  1  0
M  END
>  <UniqueID>  (21) 
20

>  <SMILES>  (21) 
COc1cc2nc(-c3ccc(N)cc3)[nH]c(=O)c2cc1OC

>  <Energy>  (21) 
45.718585782651985

>  <Genealogy>  (21) 
COc1cc2nc(-c3ccc(N)cc3)[nH]c(=O)c2cc1OC (3D coordinates assigned)
COc1cc2nc(-c3ccc(N)cc3)[nH]c(=O)c2cc1OC (optimized conformer: 45.718585782651985 kcal/mol)

>  <smiles>  (21) 
COc1cc2nc(-c3ccc(N)cc3)[nH]c(=O)c2cc1OC

>  <score_type>  (21) 
oracle

>  <origin>  (21) 
adg

>  <m_score__min__energy>  (21) 
-6.0099999999999998

>  <m_primary>  (21) 
energy

$$$$
21:0
     RDKit          3D

 37 39  0  0  1  0  0  0  0  0999 V2000
   58.1780   34.5910   44.9190 C   0  0  0  0  0  0  0  0  0  0  0  0
   58.7010   33.4590   45.6600 N   0  0  0  0  0  0  0  0  0  0  0  0
   59.4130   33.6590   46.7980 C   0  0  0  0  0  0  0  0  0  0  0  0
   59.8040   32.4300   47.2350 C   0  0  0  0  0  0  0  0  0  0  0  0
   59.3270   31.5430   46.3670 N   0  0  0  0  0  0  0  0  0  0  0  0
   59.5580   30.1290   46.5290 C   0  0  0  0  0  0  0  0  0  0  0  0
   58.9920   29.5460   47.6450 C   0  0  0  0  0  0  0  0  0  0  0  0
   59.1870   28.1880   47.8430 C   0  0  0  0  0  0  0  0  0  0  0  0
   59.9220   27.4290   46.9560 C   0  0  0  0  0  0  0  0  0  0  0  0
   60.4780   28.0540   45.8390 C   0  0  0  0  0  0  0  0  0  0  0  0
   60.3040   29.4120   45.6070 C   0  0  0  0  0  0  0  0  0  0  0  0
   58.6270   32.1560   45.3660 C   0  0  0  0  0  0  0  0  0  0  0  0
   57.9500   31.3910   44.3610 C   0  0  0  0  0  0  0  0  0  0  0  0
   56.7240   30.9540   44.3190 C   0  0  0  0  0  0  0  0  0  0  0  0
   56.2490   29.7580   44.8730 N   0  0  0  0  0  0  0  0  0  0  0  0
   56.7990   28.6160   44.6990 C   0  0  0  0  0  0  0  0  0  0  0  0
   57.5900   28.3750   43.5700 C   0  0  0  0  0  0  0  0  0  0  0  0
   58.1600   27.1020   43.4450 C   0  0  0  0  0  0  0  0  0  0  0  0
   57.9150   26.1980   44.4070 N   0  0  0  0  0  0  0  0  0  0  0  0
   57.1530   26.4310   45.4930 C   0  0  0  0  0  0  0  0  0  0  0  0
   56.6030   27.6560   45.6160 N   0  0  0  0  0  0  0  0  0  0  0  0
   57.8236   35.3581   45.6232 H   0  0  0  0  0  0  0  0  0  0  0  0
   58.9722   35.0134   44.2859 H   0  0  0  0  0  0  0  0  0  0  0  0
   57.3416   34.2600   44.2859 H   0  0  0  0  0  0  0  0  0  0  0  0
   59.6317   34.6259   47.2747 H   0  0  0  0  0  0  0  0  0  0  0  0
   60.4001   32.2128   48.1336 H   0  0  0  0  0  0  0  0  0  0  0  0
   58.4028   30.1424   48.3572 H   0  0  0  0  0  0  0  0  0  0  0  0
   58.7458   27.7047   48.7272 H   0  0  0  0  0  0  0  0  0  0  0  0
   60.0670   26.3519   47.1259 H   0  0  0  0  0  0  0  0  0  0  0  0
   61.0671   27.4578   45.1266 H   0  0  0  0  0  0  0  0  0  0  0  0
   60.7420   29.9005   44.7241 H   0  0  0  0  0  0  0  0  0  0  0  0
   58.5636   31.1316   43.4857 H   0  0  0  0  0  0  0  0  0  0  0  0
   55.9896   31.5855   43.7976 H   0  0  0  0  0  0  0  0  0  0  0  0
   57.7572   29.1539   42.8115 H   0  0  0  0  0  0  0  0  0  0  0  0
   58.7921   26.8492   42.5810 H   0  0  0  0  0  0  0  0  0  0  0  0
   56.9857   25.6515   46.2509 H   0  0  0  0  0  0  0  0  0  0  0  0
   56.0120   27.8210   46.4690 H   0  0  0  0  0  0  0  0  0  0  0  0
  1  2  1  0
  2  3  1  0
  3  4  2  0
  4  5  1  0
  5  6  1  0
  6  7  2  0
  7  8  1  0
  8  9  2  0
  9 10  1  0
 10 11  2  0
  5 12  1  0
 12 13  1  0
 13 14  2  0
 14 15  1  0
 15 16  2  0
 16 17  1  0
 17 18  2  0
 18 19  1  0
 19 20  2  0
 20 21  1  0
 12  2  2  0
 21 16  1  0
 11  6  1  0
  1 22  1  0
  1 23  1  0
  1 24  1  0
  3 25  1  0
  4 26  1  0
  7 27  1  0
  8 28  1  0
  9 29  1  0
 10 30  1  0
 11 31  1  0
 13 32  1  0
 14 33  1  0
 17 34  1  0
 18 35  1  0
 20 36  1  0
 21 37  1  0
M  CHG  1   2   1
M  END
>  <smiles>  (22) 
C[n+]1ccn(-c2ccccc2)c1C=CN=c1ccnc[nH]1

>  <score_type>  (22) 
oracle

>  <origin>  (22) 
adg

>  <m_score__min__energy>  (22) 
-4.8300000000000001

>  <m_primary>  (22) 
energy

$$$$
22:0
     RDKit          3D

 38 40  0  0  0  0  0  0  0  0999 V2000
   61.3700   33.7950   46.9320 C   0  0  0  0  0  0  0  0  0  0  0  0
   60.8090   32.5760   46.4990 O   0  0  0  0  0  0  0  0  0  0  0  0
   60.6140   31.7290   47.6100 C   0  0  0  0  0  0  0  0  0  0  0  0
   59.4720   30.7570   47.3140 C   0  0  0  0  0  0  0  0  0  0  0  0
   59.8800   29.7680   46.3130 N   0  0  0  0  0  0  0  0  0  0  0  0
   61.1440   29.3780   46.0750 C   0  0  0  0  0  0  0  0  0  0  0  0
   61.1500   28.6020   44.9390 C   0  0  0  0  0  0  0  0  0  0  0  0
   59.8990   28.5110   44.4470 N   0  0  0  0  0  0  0  0  0  0  0  0
   59.1480   29.2280   45.3100 C   0  0  0  0  0  0  0  0  0  0  0  0
   57.7000   29.4200   45.1210 C   0  0  0  0  0  0  0  0  0  0  0  0
   56.9870   30.5890   44.8880 C   0  0  0  0  0  0  0  0  0  0  0  0
   57.4910   31.9800   44.8650 C   0  0  0  0  0  0  0  0  0  0  0  0
   57.0730   32.8860   45.8570 C   0  0  0  0  0  0  0  0  0  0  0  0
   57.5330   34.2060   45.8490 C   0  0  0  0  0  0  0  0  0  0  0  0
   58.4200   34.6340   44.8580 C   0  0  0  0  0  0  0  0  0  0  0  0
   58.8550   33.7380   43.8790 C   0  0  0  0  0  0  0  0  0  0  0  0
   58.3990   32.4160   43.8820 C   0  0  0  0  0  0  0  0  0  0  0  0
   55.6860   30.2740   44.7130 N   0  0  0  0  0  0  0  0  0  0  0  0
   55.5760   28.9830   44.8400 O   0  0  0  0  0  0  0  0  0  0  0  0
   56.7390   28.4290   45.0860 C   0  0  0  0  0  0  0  0  0  0  0  0
   56.9540   26.9640   45.2770 C   0  0  0  0  0  0  0  0  0  0  0  0
   61.3827   33.8227   48.0316 H   0  0  0  0  0  0  0  0  0  0  0  0
   62.3983   33.8812   46.5511 H   0  0  0  0  0  0  0  0  0  0  0  0
   60.7666   34.6321   46.5511 H   0  0  0  0  0  0  0  0  0  0  0  0
   61.5364   31.1626   47.8059 H   0  0  0  0  0  0  0  0  0  0  0  0
   60.3614   32.3342   48.4932 H   0  0  0  0  0  0  0  0  0  0  0  0
   59.1908   30.2370   48.2417 H   0  0  0  0  0  0  0  0  0  0  0  0
   58.6164   31.3258   46.9209 H   0  0  0  0  0  0  0  0  0  0  0  0
   62.0231   29.6352   46.6841 H   0  0  0  0  0  0  0  0  0  0  0  0
   62.0402   28.1282   44.4995 H   0  0  0  0  0  0  0  0  0  0  0  0
   56.3799   32.5535   46.6438 H   0  0  0  0  0  0  0  0  0  0  0  0
   57.1959   34.9093   46.6247 H   0  0  0  0  0  0  0  0  0  0  0  0
   58.7752   35.6750   44.8489 H   0  0  0  0  0  0  0  0  0  0  0  0
   59.5587   34.0733   43.1029 H   0  0  0  0  0  0  0  0  0  0  0  0
   58.7516   31.7136   43.1124 H   0  0  0  0  0  0  0  0  0  0  0  0
   56.9875   26.7355   46.3525 H   0  0  0  0  0  0  0  0  0  0  0  0
   56.1278   26.4081   44.8096 H   0  0  0  0  0  0  0  0  0  0  0  0
   57.9051   26.6690   44.8096 H   0  0  0  0  0  0  0  0  0  0  0  0
  1  2  1  0
  2  3  1  0
  3  4  1  0
  4  5  1  0
  5  6  1  0
  6  7  2  0
  7  8  1  0
  8  9  2  0
  9 10  1  0
 10 11  1  0
 11 12  1  0
 12 13  2  0
 13 14  1  0
 14 15  2  0
 15 16  1  0
 16 17  2  0
 11 18  2  0
 18 19  1  0
 19 20  1  0
 20 21  1  0
  9  5  1  0
 20 10  2  0
 17 12  1  0
  1 22  1  0
  1 23  1  0
  1 24  1  0
  3 25  1  0
  3 26  1  0
  4 27  1  0
  4 28  1  0
  6 29  1  0
  7 30  1  0
 13 31  1  0
 14 32  1  0
 15 33  1  0
 16 34  1  0
 17 35  1  0
 21 36  1  0
 21 37  1  0
 21 38  1  0
M  END
>  <UniqueID>  (23) 
21

>  <SMILES>  (23) 
COCCn1ccnc1-c1c(-c2ccccc2)noc1C

>  <Energy>  (23) 
103.98024673122376

>  <Genealogy>  (23) 
COCCn1ccnc1-c1c(-c2ccccc2)noc1C (3D coordinates assigned)
COCCn1ccnc1-c1c(-c2ccccc2)noc1C (optimized conformer: 103.98024673122376 kcal/mol)

>  <smiles>  (23) 
COCCn1ccnc1-c1c(-c2ccccc2)noc1C

>  <score_type>  (23) 
oracle

>  <origin>  (23) 
adg

>  <m_score__min__energy>  (23) 
-6.8899999999999997

>  <m_primary>  (23) 
energy

$$$$
23:0
     RDKit          3D

 54 56  0  0  0  0  0  0  0  0999 V2000
   61.1600   31.1040   51.5230 C   0  0  0  0  0  0  0  0  0  0  0  0
   62.1270   32.1430   51.4470 O   0  0  0  0  0  0  0  0  0  0  0  0
   62.9610   32.4230   50.3520 C   0  0  0  0  0  0  0  0  0  0  0  0
   62.5530   33.1530   49.2550 C   0  0  0  0  0  0  0  0  0  0  0  0
   61.1900   33.7270   48.9920 C   0  0  0  0  0  0  0  0  0  0  0  0
   60.3410   32.7340   48.3040 N   0  0  0  0  0  0  0  0  0  0  0  0
   58.8860   33.0280   48.4330 C   0  0  0  0  0  0  0  0  0  0  0  0
   58.1820   33.3350   47.0970 C   0  0  0  0  0  0  0  0  0  0  0  0
   59.0380   34.2720   46.2210 C   0  0  0  0  0  0  0  0  0  0  0  0
   59.1700   35.4750   46.9010 F   0  0  0  0  0  0  0  0  0  0  0  0
   58.3210   34.5890   44.8870 C   0  0  0  0  0  0  0  0  0  0  0  0
   57.3860   33.5210   44.4970 N   0  0  0  0  0  0  0  0  0  0  0  0
   58.0840   32.4820   43.7330 C   0  0  0  0  0  0  0  0  0  0  0  0
   57.6920   31.1250   44.2490 C   0  0  0  0  0  0  0  0  0  0  0  0
   58.6670   30.2190   44.6910 C   0  0  0  0  0  0  0  0  0  0  0  0
   58.2840   28.9770   45.2030 C   0  0  0  0  0  0  0  0  0  0  0  0
   56.9270   28.6580   45.2790 C   0  0  0  0  0  0  0  0  0  0  0  0
   55.9920   29.5530   44.8630 N   0  0  0  0  0  0  0  0  0  0  0  0
   56.3410   30.7670   44.3590 C   0  0  0  0  0  0  0  0  0  0  0  0
   60.4630   33.6920   45.9920 C   0  0  0  0  0  0  0  0  0  0  0  0
   60.7800   32.4990   46.9130 C   0  0  0  0  0  0  0  0  0  0  0  0
   63.6560   33.1780   48.4210 C   0  0  0  0  0  0  0  0  0  0  0  0
   63.7240   33.7850   47.0580 C   0  0  0  0  0  0  0  0  0  0  0  0
   64.6690   32.4970   48.9900 N   0  0  0  0  0  0  0  0  0  0  0  0
   64.2520   32.0440   50.1640 N   0  0  0  0  0  0  0  0  0  0  0  0
   65.1250   31.2860   51.0530 C   0  0  0  0  0  0  0  0  0  0  0  0
   60.9483   30.8766   52.5782 H   0  0  0  0  0  0  0  0  0  0  0  0
   60.2342   31.4276   51.0248 H   0  0  0  0  0  0  0  0  0  0  0  0
   61.5491   30.2038   51.0248 H   0  0  0  0  0  0  0  0  0  0  0  0
   60.7222   34.0044   49.9481 H   0  0  0  0  0  0  0  0  0  0  0  0
   61.2929   34.6155   48.3517 H   0  0  0  0  0  0  0  0  0  0  0  0
   58.3966   32.1541   48.8878 H   0  0  0  0  0  0  0  0  0  0  0  0
   58.8005   33.9343   49.0506 H   0  0  0  0  0  0  0  0  0  0  0  0
   58.0122   32.3927   46.5556 H   0  0  0  0  0  0  0  0  0  0  0  0
   57.2261   33.8347   47.3125 H   0  0  0  0  0  0  0  0  0  0  0  0
   57.7602   35.5286   44.9996 H   0  0  0  0  0  0  0  0  0  0  0  0
   59.0863   34.6746   44.1015 H   0  0  0  0  0  0  0  0  0  0  0  0
   57.0110   33.0730   45.3650 H   0  0  0  0  0  0  0  0  0  0  0  0
   57.8098   32.5626   42.6708 H   0  0  0  0  0  0  0  0  0  0  0  0
   59.1702   32.6148   43.8449 H   0  0  0  0  0  0  0  0  0  0  0  0
   59.7326   30.4862   44.6346 H   0  0  0  0  0  0  0  0  0  0  0  0
   59.0438   28.2578   45.5428 H   0  0  0  0  0  0  0  0  0  0  0  0
   56.6138   27.6811   45.6760 H   0  0  0  0  0  0  0  0  0  0  0  0
   55.5599   31.4711   44.0363 H   0  0  0  0  0  0  0  0  0  0  0  0
   60.5426   33.3591   44.9466 H   0  0  0  0  0  0  0  0  0  0  0  0
   61.1848   34.4889   46.2241 H   0  0  0  0  0  0  0  0  0  0  0  0
   60.2665   31.6066   46.5257 H   0  0  0  0  0  0  0  0  0  0  0  0
   61.8713   32.3613   46.9226 H   0  0  0  0  0  0  0  0  0  0  0  0
   63.8461   34.8745   47.1475 H   0  0  0  0  0  0  0  0  0  0  0  0
   64.5806   33.3638   46.5113 H   0  0  0  0  0  0  0  0  0  0  0  0
   62.7954   33.5637   46.5113 H   0  0  0  0  0  0  0  0  0  0  0  0
   64.8671   31.5099   52.0986 H   0  0  0  0  0  0  0  0  0  0  0  0
   64.9943   30.2100   50.8654 H   0  0  0  0  0  0  0  0  0  0  0  0
   66.1720   31.5664   50.8654 H   0  0  0  0  0  0  0  0  0  0  0  0
  1  2  1  0
  2  3  1  0
  3  4  2  0
  4  5  1  0
  5  6  1  0
  6  7  1  0
  7  8  1  0
  8  9  1  0
  9 10  1  0
  9 11  1  0
 11 12  1  0
 12 13  1  0
 13 14  1  0
 14 15  2  0
 15 16  1  0
 16 17  2  0
 17 18  1  0
 18 19  2  0
  9 20  1  0
 20 21  1  0
  4 22  1  0
 22 23  1  0
 22 24  2  0
 24 25  1  0
 25 26  1  0
 25  3  1  0
 21  6  1  0
 19 14  1  0
  1 27  1  0
  1 28  1  0
  1 29  1  0
  5 30  1  0
  5 31  1  0
  7 32  1  0
  7 33  1  0
  8 34  1  0
  8 35  1  0
 11 36  1  0
 11 37  1  0
 12 38  1  0
 13 39  1  0
 13 40  1  0
 15 41  1  0
 16 42  1  0
 17 43  1  0
 19 44  1  0
 20 45  1  0
 20 46  1  0
 21 47  1  0
 21 48  1  0
 23 49  1  0
 23 50  1  0
 23 51  1  0
 26 52  1  0
 26 53  1  0
 26 54  1  0
M  END
>  <UniqueID>  (24) 
22

>  <SMILES>  (24) 
COc1c(CN2CCC(F)(CNCc3cccnc3)CC2)c(C)nn1C

>  <Energy>  (24) 
93.63149715405518

>  <Genealogy>  (24) 
COc1c(CN2CCC(F)(CNCc3cccnc3)CC2)c(C)nn1C (3D coordinates assigned)
COc1c(CN2CCC(F)(CNCc3cccnc3)CC2)c(C)nn1C (nonaromatic ring conformer: 93.63149715405518 kcal/mol)

>  <smiles>  (24) 
COc1c(CN2CCC(F)(CNCc3cccnc3)CC2)c(C)nn1C

>  <score_type>  (24) 
oracle

>  <origin>  (24) 
adg

>  <m_score__min__energy>  (24) 
-8

>  <m_primary>  (24) 
energy

$$$$
24:0
     RDKit          3D

 45 48  0  0  0  0  0  0  0  0999 V2000
   56.8300   30.3660   43.4380 C   0  0  0  0  0  0  0  0  0  0  0  0
   56.5540   31.2730   44.5000 O   0  0  0  0  0  0  0  0  0  0  0  0
   57.4820   31.6430   45.4860 C   0  0  0  0  0  0  0  0  0  0  0  0
   57.5950   32.9640   45.9600 C   0  0  0  0  0  0  0  0  0  0  0  0
   58.5380   33.2810   46.9410 C   0  0  0  0  0  0  0  0  0  0  0  0
   59.3910   32.2920   47.4460 C   0  0  0  0  0  0  0  0  0  0  0  0
   60.3420   32.6090   48.4690 N   0  0  0  0  0  0  0  0  0  0  0  0
   60.1580   32.7420   49.8170 C   0  0  0  0  0  0  0  0  0  0  0  0
   58.8660   32.5100   50.5770 C   0  0  0  0  0  0  0  0  0  0  0  0
   58.7230   33.4680   51.7770 C   0  0  0  0  0  0  0  0  0  0  0  0
   57.7760   32.9070   52.8580 C   0  0  0  0  0  0  0  0  0  0  0  0
   56.7170   32.0760   52.2700 N   0  0  0  0  0  0  0  0  0  0  0  0
   57.2470   30.8620   51.6150 C   0  0  0  0  0  0  0  0  0  0  0  0
   58.6550   31.0500   51.0070 C   0  0  0  0  0  0  0  0  0  0  0  0
   61.3120   33.0620   50.4570 N   0  0  0  0  0  0  0  0  0  0  0  0
   62.2310   33.1440   49.4810 C   0  0  0  0  0  0  0  0  0  0  0  0
   63.5860   33.4470   49.5950 C   0  0  0  0  0  0  0  0  0  0  0  0
   64.3510   33.4680   48.4140 C   0  0  0  0  0  0  0  0  0  0  0  0
   63.7490   33.1880   47.1650 C   0  0  0  0  0  0  0  0  0  0  0  0
   62.3770   32.8830   47.0870 C   0  0  0  0  0  0  0  0  0  0  0  0
   61.6480   32.8720   48.2790 C   0  0  0  0  0  0  0  0  0  0  0  0
   59.2610   30.9710   46.9970 C   0  0  0  0  0  0  0  0  0  0  0  0
   58.3180   30.6530   46.0160 C   0  0  0  0  0  0  0  0  0  0  0  0
   57.1263   29.3922   43.8551 H   0  0  0  0  0  0  0  0  0  0  0  0
   55.9292   30.2410   42.8191 H   0  0  0  0  0  0  0  0  0  0  0  0
   57.6477   30.7639   42.8191 H   0  0  0  0  0  0  0  0  0  0  0  0
   56.9386   33.7491   45.5566 H   0  0  0  0  0  0  0  0  0  0  0  0
   58.6106   34.3117   47.3182 H   0  0  0  0  0  0  0  0  0  0  0  0
   58.0643   32.7370   49.8589 H   0  0  0  0  0  0  0  0  0  0  0  0
   59.7156   33.6280   52.2234 H   0  0  0  0  0  0  0  0  0  0  0  0
   58.2945   34.4115   51.4079 H   0  0  0  0  0  0  0  0  0  0  0  0
   58.3599   32.2959   53.5620 H   0  0  0  0  0  0  0  0  0  0  0  0
   57.3018   33.7549   53.3739 H   0  0  0  0  0  0  0  0  0  0  0  0
   56.1960   32.6480   51.5630 H   0  0  0  0  0  0  0  0  0  0  0  0
   57.2962   30.0569   52.3630 H   0  0  0  0  0  0  0  0  0  0  0  0
   56.5671   30.6215   50.7844 H   0  0  0  0  0  0  0  0  0  0  0  0
   59.4123   30.7810   51.7581 H   0  0  0  0  0  0  0  0  0  0  0  0
   58.7498   30.4020   50.1232 H   0  0  0  0  0  0  0  0  0  0  0  0
   61.4590   33.2070   51.4800 H   0  0  0  0  0  0  0  0  0  0  0  0
   64.0415   33.6621   50.5729 H   0  0  0  0  0  0  0  0  0  0  0  0
   65.4243   33.7037   48.4625 H   0  0  0  0  0  0  0  0  0  0  0  0
   64.3570   33.2087   46.2486 H   0  0  0  0  0  0  0  0  0  0  0  0
   61.8963   32.6614   46.1228 H   0  0  0  0  0  0  0  0  0  0  0  0
   59.9026   30.1827   47.4176 H   0  0  0  0  0  0  0  0  0  0  0  0
   58.2319   29.6167   45.6574 H   0  0  0  0  0  0  0  0  0  0  0  0
  1  2  1  0
  2  3  1  0
  3  4  2  0
  4  5  1  0
  5  6  2  0
  6  7  1  0
  7  8  1  0
  8  9  1  0
  9 10  1  0
 10 11  1  0
 11 12  1  0
 12 13  1  0
 13 14  1  0
  8 15  2  0
 15 16  1  0
 16 17  2  0
 17 18  1  0
 18 19  2  0
 19 20  1  0
 20 21  2  0
  6 22  1  0
 22 23  2  0
 23  3  1  0
 21  7  1  0
 14  9  1  0
 21 16  1  0
  1 24  1  0
  1 25  1  0
  1 26  1  0
  4 27  1  0
  5 28  1  0
  9 29  1  0
 10 30  1  0
 10 31  1  0
 11 32  1  0
 11 33  1  0
 12 34  1  0
 13 35  1  0
 13 36  1  0
 14 37  1  0
 14 38  1  0
 15 39  1  0
 17 40  1  0
 18 41  1  0
 19 42  1  0
 20 43  1  0
 22 44  1  0
 23 45  1  0
M  CHG  1  15   1
M  END
>  <UniqueID>  (25) 
23

>  <SMILES>  (25) 
COc1ccc(-n2c(C3CCNCC3)[nH+]c3ccccc32)cc1

>  <Energy>  (25) 
99.24939237918734

>  <Genealogy>  (25) 
COc1ccc(-n2c(C3CCNCC3)[nH+]c3ccccc32)cc1 (protonated)
COc1ccc(-n2c(C3CCNCC3)[nH+]c3ccccc32)cc1 (3D coordinates assigned)
COc1ccc(-n2c(C3CCNCC3)[nH+]c3ccccc32)cc1 (nonaromatic ring conformer: 99.24939237918734 kcal/mol)

>  <smiles>  (25) 
COc1ccc(-n2c(C3CCNCC3)nc3ccccc32)cc1

>  <score_type>  (25) 
oracle

>  <origin>  (25) 
adg

>  <m_score__min__energy>  (25) 
-5.9699999999999998

>  <m_primary>  (25) 
energy

$$$$
25:0
     RDKit          3D

 27 29  0  0  0  0  0  0  0  0999 V2000
   57.7120   24.1730   44.0790 F   0  0  0  0  0  0  0  0  0  0  0  0
   57.6100   25.5130   44.2650 C   0  0  0  0  0  0  0  0  0  0  0  0
   57.8710   26.3880   43.2070 C   0  0  0  0  0  0  0  0  0  0  0  0
   57.7660   27.7700   43.3970 C   0  0  0  0  0  0  0  0  0  0  0  0
   57.3960   28.2870   44.6510 C   0  0  0  0  0  0  0  0  0  0  0  0
   57.2860   29.7460   44.8480 C   0  0  0  0  0  0  0  0  0  0  0  0
   58.2770   30.5250   45.3250 N   0  0  0  0  0  0  0  0  0  0  0  0
   57.6920   31.7420   45.3150 C   0  0  0  0  0  0  0  0  0  0  0  0
   58.3660   32.9830   45.7550 C   0  0  0  0  0  0  0  0  0  0  0  0
   58.6620   34.0000   44.8280 C   0  0  0  0  0  0  0  0  0  0  0  0
   59.2990   35.1730   45.2460 C   0  0  0  0  0  0  0  0  0  0  0  0
   59.6450   35.3430   46.5890 C   0  0  0  0  0  0  0  0  0  0  0  0
   59.3550   34.3400   47.5170 C   0  0  0  0  0  0  0  0  0  0  0  0
   58.7190   33.1640   47.1050 C   0  0  0  0  0  0  0  0  0  0  0  0
   56.4240   31.6980   44.8590 N   0  0  0  0  0  0  0  0  0  0  0  0
   56.2120   30.4480   44.5820 O   0  0  0  0  0  0  0  0  0  0  0  0
   57.1350   27.3990   45.7100 C   0  0  0  0  0  0  0  0  0  0  0  0
   57.2410   26.0190   45.5140 C   0  0  0  0  0  0  0  0  0  0  0  0
   58.1595   25.9894   42.2232 H   0  0  0  0  0  0  0  0  0  0  0  0
   57.9738   28.4550   42.5618 H   0  0  0  0  0  0  0  0  0  0  0  0
   58.3910   33.8717   43.7696 H   0  0  0  0  0  0  0  0  0  0  0  0
   59.5280   35.9633   44.5159 H   0  0  0  0  0  0  0  0  0  0  0  0
   60.1457   36.2665   46.9155 H   0  0  0  0  0  0  0  0  0  0  0  0
   59.6273   34.4751   48.5742 H   0  0  0  0  0  0  0  0  0  0  0  0
   58.4938   32.3771   47.8399 H   0  0  0  0  0  0  0  0  0  0  0  0
   56.8464   27.7919   46.6961 H   0  0  0  0  0  0  0  0  0  0  0  0
   57.0333   25.3294   46.3455 H   0  0  0  0  0  0  0  0  0  0  0  0
  1  2  1  0
  2  3  2  0
  3  4  1  0
  4  5  2  0
  5  6  1  0
  6  7  2  0
  7  8  1  0
  8  9  1  0
  9 10  2  0
 10 11  1  0
 11 12  2  0
 12 13  1  0
 13 14  2  0
  8 15  2  0
 15 16  1  0
  5 17  1  0
 17 18  2  0
 18  2  1  0
 16  6  1  0
 14  9  1  0
  3 19  1  0
  4 20  1  0
 10 21  1  0
 11 22  1  0
 12 23  1  0
 13 24  1  0
 14 25  1  0
 17 26  1  0
 18 27  1  0
M  END
>  <UniqueID>  (26) 
24

>  <SMILES>  (26) 
Fc1ccc(-c2nc(-c3ccccc3)no2)cc1

>  <Energy>  (26) 
63.59797419755045

>  <Genealogy>  (26) 
Fc1ccc(-c2nc(-c3ccccc3)no2)cc1 (3D coordinates assigned)
Fc1ccc(-c2nc(-c3ccccc3)no2)cc1 (optimized conformer: 63.59797419755045 kcal/mol)

>  <smiles>  (26) 
Fc1ccc(-c2nc(-c3ccccc3)no2)cc1

>  <score_type>  (26) 
oracle

>  <origin>  (26) 
adg

>  <m_score__min__energy>  (26) 
-7.2800000000000002

>  <m_primary>  (26) 
energy

$$$$
26:0
     RDKit          3D

 63 66  0  0  0  0  0  0  0  0999 V2000
   62.0870   33.8250   51.4520 C   0  0  0  0  0  0  0  0  0  0  0  0
   62.1040   34.2660   50.0990 O   0  0  0  0  0  0  0  0  0  0  0  0
   61.3010   33.7370   49.0760 C   0  0  0  0  0  0  0  0  0  0  0  0
   59.9860   33.3000   49.3230 C   0  0  0  0  0  0  0  0  0  0  0  0
   59.2010   32.7890   48.2880 C   0  0  0  0  0  0  0  0  0  0  0  0
   59.7070   32.7180   46.9850 C   0  0  0  0  0  0  0  0  0  0  0  0
   58.8850   32.1600   45.8880 C   0  0  0  0  0  0  0  0  0  0  0  0
   58.7100   30.7680   45.8220 C   0  0  0  0  0  0  0  0  0  0  0  0
   57.9180   30.1840   44.8200 C   0  0  0  0  0  0  0  0  0  0  0  0
   57.7550   28.7090   44.7760 C   0  0  0  0  0  0  0  0  0  0  0  0
   57.4690   28.1580   43.6770 O   0  0  0  0  0  0  0  0  0  0  0  0
   57.9130   27.9060   45.9580 N   0  0  0  0  0  0  0  0  0  0  0  0
   57.7480   26.4780   45.9600 C   0  0  0  0  0  0  0  0  0  0  0  0
   58.8770   25.6400   45.9400 C   0  0  0  0  0  0  0  0  0  0  0  0
   58.7300   24.2530   45.9870 C   0  0  0  0  0  0  0  0  0  0  0  0
   57.4570   23.6870   46.0640 C   0  0  0  0  0  0  0  0  0  0  0  0
   56.3270   24.5070   46.0940 C   0  0  0  0  0  0  0  0  0  0  0  0
   56.4590   25.9040   46.0440 C   0  0  0  0  0  0  0  0  0  0  0  0
   55.2810   26.7200   46.0460 N   0  0  0  0  0  0  0  0  0  0  0  0
   57.3130   31.0130   43.8620 C   0  0  0  0  0  0  0  0  0  0  0  0
   57.4890   32.3980   43.9110 C   0  0  0  0  0  0  0  0  0  0  0  0
   58.2840   32.9860   44.9070 C   0  0  0  0  0  0  0  0  0  0  0  0
   58.4650   34.4810   44.9060 C   0  0  0  0  0  0  0  0  0  0  0  0
   61.0190   33.1420   46.7330 C   0  0  0  0  0  0  0  0  0  0  0  0
   61.8260   33.6390   47.7690 C   0  0  0  0  0  0  0  0  0  0  0  0
   63.2460   34.0540   47.4550 C   0  0  0  0  0  0  0  0  0  0  0  0
   64.2580   33.0740   47.9030 N   0  0  0  0  0  0  0  0  0  0  0  0
   64.4210   32.8100   49.3530 C   0  0  0  0  0  0  0  0  0  0  0  0
   63.7740   31.5240   49.8820 C   0  0  0  0  0  0  0  0  0  0  0  0
   64.6230   31.1300   51.0780 C   0  0  0  0  0  0  0  0  0  0  0  0
   66.0310   31.6020   50.7500 C   0  0  0  0  0  0  0  0  0  0  0  0
   65.8760   32.8220   49.8490 C   0  0  0  0  0  0  0  0  0  0  0  0
   62.1206   34.6966   52.1222 H   0  0  0  0  0  0  0  0  0  0  0  0
   61.1662   33.2534   51.6398 H   0  0  0  0  0  0  0  0  0  0  0  0
   62.9611   33.1842   51.6398 H   0  0  0  0  0  0  0  0  0  0  0  0
   59.5732   33.3617   50.3407 H   0  0  0  0  0  0  0  0  0  0  0  0
   58.1790   32.4402   48.4976 H   0  0  0  0  0  0  0  0  0  0  0  0
   59.2012   30.1249   46.5671 H   0  0  0  0  0  0  0  0  0  0  0  0
   58.1640   28.3610   46.8630 H   0  0  0  0  0  0  0  0  0  0  0  0
   59.8834   26.0809   45.8869 H   0  0  0  0  0  0  0  0  0  0  0  0
   59.6187   23.6052   45.9633 H   0  0  0  0  0  0  0  0  0  0  0  0
   57.3433   22.5935   46.1011 H   0  0  0  0  0  0  0  0  0  0  0  0
   55.3261   24.0551   46.1573 H   0  0  0  0  0  0  0  0  0  0  0  0
   54.5050   26.5290   46.7180 H   0  0  0  0  0  0  0  0  0  0  0  0
   55.1400   27.4880   45.3530 H   0  0  0  0  0  0  0  0  0  0  0  0
   56.6959   30.5688   43.0671 H   0  0  0  0  0  0  0  0  0  0  0  0
   56.9988   33.0351   43.1602 H   0  0  0  0  0  0  0  0  0  0  0  0
   58.5092   34.8457   45.9428 H   0  0  0  0  0  0  0  0  0  0  0  0
   59.4007   34.7367   44.3872 H   0  0  0  0  0  0  0  0  0  0  0  0
   57.6174   34.9526   44.3872 H   0  0  0  0  0  0  0  0  0  0  0  0
   61.4215   33.0847   45.7109 H   0  0  0  0  0  0  0  0  0  0  0  0
   63.3399   34.1788   46.3661 H   0  0  0  0  0  0  0  0  0  0  0  0
   63.4381   34.9903   47.9995 H   0  0  0  0  0  0  0  0  0  0  0  0
   64.1190   32.1660   47.4010 H   0  0  0  0  0  0  0  0  0  0  0  0
   63.8735   33.6716   49.7627 H   0  0  0  0  0  0  0  0  0  0  0  0
   62.7342   31.7105   50.1888 H   0  0  0  0  0  0  0  0  0  0  0  0
   63.7363   30.7324   49.1191 H   0  0  0  0  0  0  0  0  0  0  0  0
   64.2549   31.6230   51.9898 H   0  0  0  0  0  0  0  0  0  0  0  0
   64.5887   30.0463   51.2635 H   0  0  0  0  0  0  0  0  0  0  0  0
   66.5653   31.8751   51.6719 H   0  0  0  0  0  0  0  0  0  0  0  0
   66.6119   30.8105   50.2538 H   0  0  0  0  0  0  0  0  0  0  0  0
   66.0774   33.7426   50.4164 H   0  0  0  0  0  0  0  0  0  0  0  0
   66.5851   32.7911   49.0087 H   0  0  0  0  0  0  0  0  0  0  0  0
  1  2  1  0
  2  3  1  0
  3  4  2  0
  4  5  1  0
  5  6  2  0
  6  7  1  0
  7  8  2  0
  8  9  1  0
  9 10  1  0
 10 11  2  0
 10 12  1  0
 12 13  1  0
 13 14  2  0
 14 15  1  0
 15 16  2  0
 16 17  1  0
 17 18  2  0
 18 19  1  0
  9 20  2  0
 20 21  1  0
 21 22  2  0
 22 23  1  0
  6 24  1  0
 24 25  2  0
 25 26  1  0
 26 27  1  0
 27 28  1  0
 28 29  1  0
 29 30  1  0
 30 31  1  0
 31 32  1  0
 25  3  1  0
 32 28  1  0
 22  7  1  0
 18 13  1  0
  1 33  1  0
  1 34  1  0
  1 35  1  0
  4 36  1  0
  5 37  1  0
  8 38  1  0
 12 39  1  0
 14 40  1  0
 15 41  1  0
 16 42  1  0
 17 43  1  0
 19 44  1  0
 19 45  1  0
 20 46  1  0
 21 47  1  0
 23 48  1  0
 23 49  1  0
 23 50  1  0
 24 51  1  0
 26 52  1  0
 26 53  1  0
 27 54  1  0
 28 55  1  0
 29 56  1  0
 29 57  1  0
 30 58  1  0
 30 59  1  0
 31 60  1  0
 31 61  1  0
 32 62  1  0
 32 63  1  0
M  END
>  <UniqueID>  (27) 
25

>  <SMILES>  (27) 
COc1ccc(-c2cc(C(=O)Nc3ccccc3N)ccc2C)cc1CNC1CCCC1

>  <Energy>  (27) 
88.9429972319513

>  <Genealogy>  (27) 
COc1ccc(-c2cc(C(=O)Nc3ccccc3N)ccc2C)cc1CNC1CCCC1 (3D coordinates assigned)
COc1ccc(-c2cc(C(=O)Nc3ccccc3N)ccc2C)cc1CNC1CCCC1 (nonaromatic ring conformer: 88.9429972319513 kcal/mol)

>  <smiles>  (27) 
COc1ccc(-c2cc(C(=O)Nc3ccccc3N)ccc2C)cc1CNC1CCCC1

>  <score_type>  (27) 
oracle

>  <origin>  (27) 
adg

>  <m_score__min__energy>  (27) 
-10.01

>  <m_primary>  (27) 
energy

$$$$
27:0
     RDKit          3D

 43 44  0  0  0  0  0  0  0  0999 V2000
   57.4790   25.2050   44.6660 C   0  0  0  0  0  0  0  0  0  0  0  0
   57.1180   26.4170   45.9200 S   0  0  0  0  0  0  0  0  0  0  0  0
   57.7280   25.9530   47.2130 O   0  0  0  0  0  0  0  0  0  0  0  0
   55.6310   26.5440   46.0930 O   0  0  0  0  0  0  0  0  0  0  0  0
   57.7920   27.9600   45.4730 N   0  0  0  0  0  0  0  0  0  0  0  0
   57.3330   28.6200   44.2480 C   0  0  0  0  0  0  0  0  0  0  0  0
   56.3160   29.6690   44.5690 C   0  0  0  0  0  0  0  0  0  0  0  0
   55.1400   29.3300   44.8680 O   0  0  0  0  0  0  0  0  0  0  0  0
   56.6930   31.0510   44.5580 N   0  0  0  0  0  0  0  0  0  0  0  0
   58.0630   31.5120   44.3710 C   0  0  0  0  0  0  0  0  0  0  0  0
   58.0950   32.9280   43.7830 C   0  0  0  0  0  0  0  0  0  0  0  0
   57.3360   34.1670   44.8950 S   0  0  0  0  0  0  0  0  0  0  0  0
   58.4260   33.8740   46.2910 C   0  0  0  0  0  0  0  0  0  0  0  0
   59.7130   34.4250   46.3120 C   0  0  0  0  0  0  0  0  0  0  0  0
   60.5650   34.1750   47.3930 C   0  0  0  0  0  0  0  0  0  0  0  0
   60.1380   33.3580   48.4460 C   0  0  0  0  0  0  0  0  0  0  0  0
   58.8600   32.7920   48.4180 C   0  0  0  0  0  0  0  0  0  0  0  0
   58.0030   33.0510   47.3440 C   0  0  0  0  0  0  0  0  0  0  0  0
   58.7730   28.5830   46.3200 C   0  0  0  0  0  0  0  0  0  0  0  0
   59.9170   29.1770   45.7620 C   0  0  0  0  0  0  0  0  0  0  0  0
   60.8640   29.7930   46.5850 C   0  0  0  0  0  0  0  0  0  0  0  0
   60.6760   29.8220   47.9690 C   0  0  0  0  0  0  0  0  0  0  0  0
   59.5400   29.2320   48.5330 C   0  0  0  0  0  0  0  0  0  0  0  0
   58.5910   28.6140   47.7120 C   0  0  0  0  0  0  0  0  0  0  0  0
   57.7618   24.2556   45.1442 H   0  0  0  0  0  0  0  0  0  0  0  0
   56.5883   25.0490   44.0396 H   0  0  0  0  0  0  0  0  0  0  0  0
   58.3099   25.5618   44.0396 H   0  0  0  0  0  0  0  0  0  0  0  0
   58.1918   29.0896   43.7460 H   0  0  0  0  0  0  0  0  0  0  0  0
   56.8738   27.8684   43.5890 H   0  0  0  0  0  0  0  0  0  0  0  0
   58.5766   31.5155   45.3437 H   0  0  0  0  0  0  0  0  0  0  0  0
   58.5673   30.8314   43.6693 H   0  0  0  0  0  0  0  0  0  0  0  0
   59.1425   33.2112   43.6023 H   0  0  0  0  0  0  0  0  0  0  0  0
   57.5123   32.9153   42.8501 H   0  0  0  0  0  0  0  0  0  0  0  0
   60.0545   35.0551   45.4776 H   0  0  0  0  0  0  0  0  0  0  0  0
   61.5705   34.6205   47.4154 H   0  0  0  0  0  0  0  0  0  0  0  0
   60.8081   33.1612   49.2958 H   0  0  0  0  0  0  0  0  0  0  0  0
   58.5284   32.1424   49.2415 H   0  0  0  0  0  0  0  0  0  0  0  0
   56.9961   32.6086   47.3253 H   0  0  0  0  0  0  0  0  0  0  0  0
   60.0683   29.1573   44.6726 H   0  0  0  0  0  0  0  0  0  0  0  0
   61.7585   30.2556   46.1424 H   0  0  0  0  0  0  0  0  0  0  0  0
   61.4213   30.3088   48.6152 H   0  0  0  0  0  0  0  0  0  0  0  0
   59.3929   29.2540   49.6229 H   0  0  0  0  0  0  0  0  0  0  0  0
   57.6989   28.1506   48.1585 H   0  0  0  0  0  0  0  0  0  0  0  0
  1  2  1  0
  2  3  2  0
  2  4  2  0
  2  5  1  0
  5  6  1  0
  6  7  1  0
  7  8  2  0
  7  9  1  0
  9 10  1  0
 10 11  1  0
 11 12  1  0
 12 13  1  0
 13 14  2  0
 14 15  1  0
 15 16  2  0
 16 17  1  0
 17 18  2  0
  5 19  1  0
 19 20  2  0
 20 21  1  0
 21 22  2  0
 22 23  1  0
 23 24  2  0
 18 13  1  0
 24 19  1  0
  1 25  1  0
  1 26  1  0
  1 27  1  0
  6 28  1  0
  6 29  1  0
 10 30  1  0
 10 31  1  0
 11 32  1  0
 11 33  1  0
 14 34  1  0
 15 35  1  0
 16 36  1  0
 17 37  1  0
 18 38  1  0
 20 39  1  0
 21 40  1  0
 22 41  1  0
 23 42  1  0
 24 43  1  0
M  CHG  1   9  -1
M  END
>  <UniqueID>  (28) 
26

>  <SMILES>  (28) 
CS(=O)(=O)N(CC(=O)[N-]CCSc1ccccc1)c1ccccc1

>  <Energy>  (28) 
32.0364756734865

>  <Genealogy>  (28) 
CS(=O)(=O)N(CC(=O)[N-]CCSc1ccccc1)c1ccccc1 (protonated)
CS(=O)(=O)N(CC(=O)[N-]CCSc1ccccc1)c1ccccc1 (3D coordinates assigned)
CS(=O)(=O)N(CC(=O)[N-]CCSc1ccccc1)c1ccccc1 (optimized conformer: 32.0364756734865 kcal/mol)

>  <smiles>  (28) 
CS(=O)(=O)N(CC(=O)NCCSc1ccccc1)c1ccccc1

>  <score_type>  (28) 
oracle

>  <origin>  (28) 
adg

>  <m_score__min__energy>  (28) 
-10.300000000000001

>  <m_primary>  (28) 
energy

$$$$
28:0
     RDKit          3D

 37 38  0  0  0  0  0  0  0  0999 V2000
   55.1633   28.7975   44.2359 H   0  0  0  0  0  0  0  0  0  0  0  0
   55.9990   29.3690   44.6660 C   0  0  0  0  0  0  0  0  0  0  0  0
   56.0620   30.7050   44.4860 N   0  0  0  0  0  0  0  0  0  0  0  0
   57.0780   31.4540   44.9810 C   0  0  0  0  0  0  0  0  0  0  0  0
   57.0660   32.8310   44.7310 C   0  0  0  0  0  0  0  0  0  0  0  0
   56.2315   33.2765   44.1696 H   0  0  0  0  0  0  0  0  0  0  0  0
   58.0990   33.6390   45.1860 C   0  0  0  0  0  0  0  0  0  0  0  0
   58.0761   34.7224   44.9972 H   0  0  0  0  0  0  0  0  0  0  0  0
   59.1640   33.0740   45.8820 C   0  0  0  0  0  0  0  0  0  0  0  0
   60.6050   34.1860   46.4660 Br  0  0  0  0  0  0  0  0  0  0  0  0
   59.1900   31.7010   46.1440 C   0  0  0  0  0  0  0  0  0  0  0  0
   60.0460   31.2724   46.6858 H   0  0  0  0  0  0  0  0  0  0  0  0
   58.1360   30.8490   45.7260 C   0  0  0  0  0  0  0  0  0  0  0  0
   58.0530   29.4300   45.9730 C   0  0  0  0  0  0  0  0  0  0  0  0
   58.8560   28.7200   46.7290 N   0  0  0  0  0  0  0  0  0  0  0  0
   60.2660   28.3410   46.6920 C   0  0  1  0  0  0  0  0  0  0  0  0
   60.8418   29.0202   47.3378 H   0  0  0  0  0  0  0  0  0  0  0  0
   60.3920   26.9210   47.1630 C   0  0  0  0  0  0  0  0  0  0  0  0
   60.7370   26.0140   46.3540 O   0  0  0  0  0  0  0  0  0  0  0  0
   60.1680   26.6210   48.5100 O   0  0  0  0  0  0  0  0  0  0  0  0
   60.7360   27.3810   49.5690 C   0  0  0  0  0  0  0  0  0  0  0  0
   60.4201   26.9583   50.5341 H   0  0  0  0  0  0  0  0  0  0  0  0
   61.8331   27.3487   49.4961 H   0  0  0  0  0  0  0  0  0  0  0  0
   60.3943   28.4240   49.4961 H   0  0  0  0  0  0  0  0  0  0  0  0
   60.8040   28.4330   45.2570 C   0  0  0  0  0  0  0  0  0  0  0  0
   61.8880   28.6184   45.2830 H   0  0  0  0  0  0  0  0  0  0  0  0
   60.6061   27.4880   44.7299 H   0  0  0  0  0  0  0  0  0  0  0  0
   60.3034   29.2586   44.7299 H   0  0  0  0  0  0  0  0  0  0  0  0
   56.9860   28.7110   45.3930 C   0  0  0  0  0  0  0  0  0  0  0  0
   56.8230   26.9270   45.6210 S   0  0  0  0  0  0  0  0  0  0  0  0
   58.1670   26.4800   44.4630 C   0  0  0  0  0  0  0  0  0  0  0  0
   58.0541   25.4246   44.1741 H   0  0  0  0  0  0  0  0  0  0  0  0
   59.1293   26.6457   44.9695 H   0  0  0  0  0  0  0  0  0  0  0  0
   58.1310   27.3440   43.2080 C   0  0  0  0  0  0  0  0  0  0  0  0
   58.0868   28.4051   43.4945 H   0  0  0  0  0  0  0  0  0  0  0  0
   59.0375   27.1626   42.6118 H   0  0  0  0  0  0  0  0  0  0  0  0
   57.2427   27.0878   42.6118 H   0  0  0  0  0  0  0  0  0  0  0  0
  1  2  1  0
  2  3  1  0
  3  4  1  0
  4  5  2  0
  5  6  1  0
  5  7  1  0
  7  8  1  0
  7  9  2  0
  9 10  1  0
  9 11  1  0
 11 12  1  0
 11 13  2  0
 13 14  1  0
 14 15  2  0
 15 16  1  0
 16 17  1  1
 16 18  1  0
 18 19  2  0
 18 20  1  0
 20 21  1  0
 21 22  1  0
 21 23  1  0
 21 24  1  0
 16 25  1  0
 25 26  1  0
 25 27  1  0
 25 28  1  0
 14 29  1  0
 29 30  1  0
 30 31  1  0
 31 32  1  0
 31 33  1  0
 31 34  1  0
 34 35  1  0
 34 36  1  0
 34 37  1  0
 29  2  2  0
 13  4  1  0
M  CHG  1   3  -1
M  END
>  <UniqueID>  (29) 
27

>  <SMILES>  (29) 
CCSc1c[n-]c2ccc(Br)cc2/c1=N\[C@H](C)C(=O)OC

>  <Energy>  (29) 
47.71655077821944

>  <Genealogy>  (29) 
CCSc1c[n-]c2ccc(Br)cc2c1=NC(C)C(=O)OC (protonated)
CCSc1c[n-]c2ccc(Br)cc2c1=N[C@H](C)C(=O)OC (chirality)
CCSc1c[n-]c2ccc(Br)cc2/c1=N\[C@H](C)C(=O)OC (cis-trans isomerization)
CCSc1c[n-]c2ccc(Br)cc2/c1=N\[C@H](C)C(=O)OC (3D coordinates assigned)
CCSc1c[n-]c2ccc(Br)cc2/c1=N\[C@H](C)C(=O)OC (optimized conformer: 47.71655077821944 kcal/mol)

>  <smiles>  (29) 
CCSc1c[nH]c2ccc(Br)cc2c1=NC(C)C(=O)OC

>  <score_type>  (29) 
oracle

>  <origin>  (29) 
adg

>  <m_score__min__energy>  (29) 
-7.8600000000000003

>  <m_primary>  (29) 
energy

$$$$
29:0
     RDKit          3D

 41 44  0  0  0  0  0  0  0  0999 V2000
   58.9270   34.5760   45.4420 C   0  0  0  0  0  0  0  0  0  0  0  0
   60.0150   34.6990   46.3500 O   0  0  0  0  0  0  0  0  0  0  0  0
   60.8510   33.6390   46.7340 C   0  0  0  0  0  0  0  0  0  0  0  0
   62.2350   33.8510   46.7410 C   0  0  0  0  0  0  0  0  0  0  0  0
   63.1070   32.8290   47.1190 C   0  0  0  0  0  0  0  0  0  0  0  0
   62.6040   31.5810   47.4900 C   0  0  0  0  0  0  0  0  0  0  0  0
   61.2230   31.3430   47.4760 C   0  0  0  0  0  0  0  0  0  0  0  0
   60.7060   30.0660   47.8800 N   0  0  0  0  0  0  0  0  0  0  0  0
   60.7180   29.6150   49.1290 N   0  0  0  0  0  0  0  0  0  0  0  0
   60.0220   28.4580   49.1900 C   0  0  0  0  0  0  0  0  0  0  0  0
   59.6020   28.1490   47.9100 C   0  0  0  0  0  0  0  0  0  0  0  0
   60.0410   29.1700   47.1210 C   0  0  0  0  0  0  0  0  0  0  0  0
   59.0460   29.4000   46.0860 C   0  0  0  0  0  0  0  0  0  0  0  0
   58.9670   30.3820   45.0980 C   0  0  0  0  0  0  0  0  0  0  0  0
   57.8500   30.3840   44.2500 C   0  0  0  0  0  0  0  0  0  0  0  0
   56.8350   29.4200   44.4010 C   0  0  0  0  0  0  0  0  0  0  0  0
   56.9310   28.4290   45.4020 C   0  0  0  0  0  0  0  0  0  0  0  0
   55.8910   27.4670   45.6220 N   0  0  0  0  0  0  0  0  0  0  0  0
   56.0380   26.0410   45.6600 C   0  0  0  0  0  0  0  0  0  0  0  0
   57.2260   25.3470   45.0660 C   0  0  0  0  0  0  0  0  0  0  0  0
   55.1590   25.3530   46.2420 O   0  0  0  0  0  0  0  0  0  0  0  0
   58.0420   28.4550   46.2510 C   0  0  0  0  0  0  0  0  0  0  0  0
   58.3070   27.5670   47.4380 C   0  0  0  0  0  0  0  0  0  0  0  0
   60.3470   32.3770   47.1090 C   0  0  0  0  0  0  0  0  0  0  0  0
   57.9887   34.4699   46.0063 H   0  0  0  0  0  0  0  0  0  0  0  0
   58.8746   35.4739   44.8088 H   0  0  0  0  0  0  0  0  0  0  0  0
   59.0763   33.6890   44.8088 H   0  0  0  0  0  0  0  0  0  0  0  0
   62.6383   34.8310   46.4462 H   0  0  0  0  0  0  0  0  0  0  0  0
   64.1924   33.0073   47.1246 H   0  0  0  0  0  0  0  0  0  0  0  0
   63.2945   30.7808   47.7947 H   0  0  0  0  0  0  0  0  0  0  0  0
   61.1130   30.1300   49.9480 H   0  0  0  0  0  0  0  0  0  0  0  0
   59.8249   27.8675   50.0969 H   0  0  0  0  0  0  0  0  0  0  0  0
   59.7607   31.1355   44.9870 H   0  0  0  0  0  0  0  0  0  0  0  0
   57.7662   31.1451   43.4603 H   0  0  0  0  0  0  0  0  0  0  0  0
   55.9605   29.4391   43.7340 H   0  0  0  0  0  0  0  0  0  0  0  0
   57.8716   24.9699   45.8728 H   0  0  0  0  0  0  0  0  0  0  0  0
   56.8862   24.5054   44.4446 H   0  0  0  0  0  0  0  0  0  0  0  0
   57.7922   26.0564   44.4446 H   0  0  0  0  0  0  0  0  0  0  0  0
   57.5176   27.6555   48.1990 H   0  0  0  0  0  0  0  0  0  0  0  0
   58.3355   26.4902   47.2153 H   0  0  0  0  0  0  0  0  0  0  0  0
   59.2611   32.2014   47.1141 H   0  0  0  0  0  0  0  0  0  0  0  0
  1  2  1  0
  2  3  1  0
  3  4  2  0
  4  5  1  0
  5  6  2  0
  6  7  1  0
  7  8  1  0
  8  9  1  0
  9 10  2  0
 10 11  1  0
 11 12  2  0
 12 13  1  0
 13 14  2  0
 14 15  1  0
 15 16  2  0
 16 17  1  0
 17 18  1  0
 18 19  1  0
 19 20  1  0
 19 21  2  0
 17 22  2  0
 22 23  1  0
  7 24  2  0
 24  3  1  0
 12  8  1  0
 22 13  1  0
 23 11  1  0
  1 25  1  0
  1 26  1  0
  1 27  1  0
  4 28  1  0
  5 29  1  0
  6 30  1  0
  9 31  1  0
 10 32  1  0
 14 33  1  0
 15 34  1  0
 16 35  1  0
 20 36  1  0
 20 37  1  0
 20 38  1  0
 23 39  1  0
 23 40  1  0
 24 41  1  0
M  CHG  2   9   1  18  -1
M  END
>  <UniqueID>  (30) 
28

>  <SMILES>  (30) 
COc1cccc(-n2[nH+]cc3c2-c2cccc([N-]C(C)=O)c2C3)c1

>  <Energy>  (30) 
123.36009185655737

>  <Genealogy>  (30) 
COc1cccc(-n2[nH+]cc3c2-c2cccc([N-]C(C)=O)c2C3)c1 (protonated)
COc1cccc(-n2[nH+]cc3c2-c2cccc([N-]C(C)=O)c2C3)c1 (3D coordinates assigned)
COc1cccc(-n2[nH+]cc3c2-c2cccc([N-]C(C)=O)c2C3)c1 (nonaromatic ring conformer: 123.36009185655737 kcal/mol)

>  <smiles>  (30) 
COc1cccc(-n2ncc3c2-c2cccc(NC(C)=O)c2C3)c1

>  <score_type>  (30) 
oracle

>  <origin>  (30) 
adg

>  <m_score__min__energy>  (30) 
-8.7699999999999996

>  <m_primary>  (30) 
energy

$$$$
30:0
     RDKit          3D

 45 47  0  0  0  0  0  0  0  0999 V2000
   53.8480   24.8600   45.4260 C   0  0  0  0  0  0  0  0  0  0  0  0
   54.5810   25.9620   45.9410 O   0  0  0  0  0  0  0  0  0  0  0  0
   55.9810   26.0260   46.0150 C   0  0  0  0  0  0  0  0  0  0  0  0
   56.6890   27.2300   45.8200 C   0  0  0  0  0  0  0  0  0  0  0  0
   58.0970   27.2610   45.9100 C   0  0  0  0  0  0  0  0  0  0  0  0
   58.8490   28.4510   45.7310 C   0  0  0  0  0  0  0  0  0  0  0  0
   58.2180   29.7800   45.5440 C   0  0  0  0  0  0  0  0  0  0  0  0
   58.7410   30.9170   46.1750 C   0  0  0  0  0  0  0  0  0  0  0  0
   58.1510   32.1630   45.9670 C   0  0  0  0  0  0  0  0  0  0  0  0
   57.0510   32.2670   45.1140 C   0  0  0  0  0  0  0  0  0  0  0  0
   56.5650   31.1590   44.4940 N   0  0  0  0  0  0  0  0  0  0  0  0
   57.1200   29.9330   44.6830 C   0  0  0  0  0  0  0  0  0  0  0  0
   60.2490   28.3840   45.7680 C   0  0  0  0  0  0  0  0  0  0  0  0
   60.8820   27.1630   46.0000 C   0  0  0  0  0  0  0  0  0  0  0  0
   60.1480   26.0380   46.1910 N   0  0  0  0  0  0  0  0  0  0  0  0
   58.7900   26.0520   46.1550 C   0  0  0  0  0  0  0  0  0  0  0  0
   58.0860   24.8620   46.3550 C   0  0  0  0  0  0  0  0  0  0  0  0
   56.6820   24.8470   46.3070 C   0  0  0  0  0  0  0  0  0  0  0  0
   55.9600   23.6650   46.5090 O   0  0  0  0  0  0  0  0  0  0  0  0
   56.4240   22.3730   46.1230 C   0  0  0  0  0  0  0  0  0  0  0  0
   55.5360   21.8160   45.0120 C   0  0  0  0  0  0  0  0  0  0  0  0
   56.2230   21.9290   43.7050 N   0  0  0  0  0  0  0  0  0  0  0  0
   57.6280   21.4990   43.8130 C   0  0  0  0  0  0  0  0  0  0  0  0
   56.1710   23.3140   43.1980 C   0  0  0  0  0  0  0  0  0  0  0  0
   53.4505   24.2623   46.2595 H   0  0  0  0  0  0  0  0  0  0  0  0
   53.0151   25.2295   44.8098 H   0  0  0  0  0  0  0  0  0  0  0  0
   54.5107   24.2346   44.8098 H   0  0  0  0  0  0  0  0  0  0  0  0
   56.1377   28.1550   45.5953 H   0  0  0  0  0  0  0  0  0  0  0  0
   59.6169   30.8263   46.8343 H   0  0  0  0  0  0  0  0  0  0  0  0
   58.5489   33.0563   46.4707 H   0  0  0  0  0  0  0  0  0  0  0  0
   56.5775   33.2451   44.9435 H   0  0  0  0  0  0  0  0  0  0  0  0
   56.7075   29.0578   44.1596 H   0  0  0  0  0  0  0  0  0  0  0  0
   60.8478   29.2938   45.6142 H   0  0  0  0  0  0  0  0  0  0  0  0
   61.9805   27.1119   46.0282 H   0  0  0  0  0  0  0  0  0  0  0  0
   58.6353   23.9295   46.5516 H   0  0  0  0  0  0  0  0  0  0  0  0
   57.4592   22.4502   45.7592 H   0  0  0  0  0  0  0  0  0  0  0  0
   56.3861   21.6987   46.9912 H   0  0  0  0  0  0  0  0  0  0  0  0
   55.3173   20.7577   45.2175 H   0  0  0  0  0  0  0  0  0  0  0  0
   54.5998   22.3924   44.9771 H   0  0  0  0  0  0  0  0  0  0  0  0
   57.9050   21.4142   44.8742 H   0  0  0  0  0  0  0  0  0  0  0  0
   57.7512   20.5220   43.3227 H   0  0  0  0  0  0  0  0  0  0  0  0
   58.2769   22.2397   43.3227 H   0  0  0  0  0  0  0  0  0  0  0  0
   56.1447   24.0141   44.0460 H   0  0  0  0  0  0  0  0  0  0  0  0
   57.0623   23.5138   42.5850 H   0  0  0  0  0  0  0  0  0  0  0  0
   55.2673   23.4464   42.5850 H   0  0  0  0  0  0  0  0  0  0  0  0
  1  2  1  0
  2  3  1  0
  3  4  2  0
  4  5  1  0
  5  6  2  0
  6  7  1  0
  7  8  2  0
  8  9  1  0
  9 10  2  0
 10 11  1  0
 11 12  2  0
  6 13  1  0
 13 14  2  0
 14 15  1  0
 15 16  2  0
 16 17  1  0
 17 18  2  0
 18 19  1  0
 19 20  1  0
 20 21  1  0
 21 22  1  0
 22 23  1  0
 22 24  1  0
 18  3  1  0
 16  5  1  0
 12  7  1  0
  1 25  1  0
  1 26  1  0
  1 27  1  0
  4 28  1  0
  8 29  1  0
  9 30  1  0
 10 31  1  0
 12 32  1  0
 13 33  1  0
 14 34  1  0
 17 35  1  0
 20 36  1  0
 20 37  1  0
 21 38  1  0
 21 39  1  0
 23 40  1  0
 23 41  1  0
 23 42  1  0
 24 43  1  0
 24 44  1  0
 24 45  1  0
M  END
>  <UniqueID>  (31) 
29

>  <SMILES>  (31) 
COc1cc2c(-c3cccnc3)ccnc2cc1OCCN(C)C

>  <Energy>  (31) 
62.56872297388446

>  <Genealogy>  (31) 
COc1cc2c(-c3cccnc3)ccnc2cc1OCCN(C)C (3D coordinates assigned)
COc1cc2c(-c3cccnc3)ccnc2cc1OCCN(C)C (optimized conformer: 62.56872297388446 kcal/mol)

>  <smiles>  (31) 
COc1cc2c(-c3cccnc3)ccnc2cc1OCCN(C)C

>  <score_type>  (31) 
oracle

>  <origin>  (31) 
adg

>  <m_score__min__energy>  (31) 
-7.2599999999999998

>  <m_primary>  (31) 
energy

$$$$
31:0
     RDKit          3D

 47 49  0  0  0  0  0  0  0  0999 V2000
   65.4720   32.3330   50.1190 C   0  0  0  0  0  0  0  0  0  0  0  0
   65.0450   33.4610   49.3610 O   0  0  0  0  0  0  0  0  0  0  0  0
   63.8010   33.5590   48.7210 C   0  0  0  0  0  0  0  0  0  0  0  0
   63.6390   33.3320   47.3420 C   0  0  0  0  0  0  0  0  0  0  0  0
   62.3780   33.4460   46.7500 C   0  0  0  0  0  0  0  0  0  0  0  0
   61.2570   33.7850   47.5260 C   0  0  0  0  0  0  0  0  0  0  0  0
   59.9280   33.9390   46.8960 C   0  0  0  0  0  0  0  0  0  0  0  0
   58.9350   34.6940   47.4110 N   0  0  0  0  0  0  0  0  0  0  0  0
   57.9450   34.5510   46.5850 O   0  0  0  0  0  0  0  0  0  0  0  0
   58.2980   33.7520   45.6090 C   0  0  0  0  0  0  0  0  0  0  0  0
   57.3970   33.3440   44.4860 C   0  0  0  0  0  0  0  0  0  0  0  0
   57.9000   32.0640   43.8080 C   0  0  0  0  0  0  0  0  0  0  0  0
   57.2800   30.8210   44.4060 C   0  0  0  0  0  0  0  0  0  0  0  0
   56.0230   30.7940   44.5360 O   0  0  0  0  0  0  0  0  0  0  0  0
   58.0530   29.6540   44.7770 N   0  0  0  0  0  0  0  0  0  0  0  0
   57.3730   28.3540   44.8200 C   0  0  0  0  0  0  0  0  0  0  0  0
   59.4960   29.7200   45.0650 C   0  0  0  0  0  0  0  0  0  0  0  0
   59.7550   30.1790   46.4780 C   0  0  0  0  0  0  0  0  0  0  0  0
   61.0590   30.1640   47.0020 C   0  0  0  0  0  0  0  0  0  0  0  0
   61.2890   30.5120   48.3360 C   0  0  0  0  0  0  0  0  0  0  0  0
   60.2180   30.8670   49.1610 C   0  0  0  0  0  0  0  0  0  0  0  0
   58.9190   30.8860   48.6500 C   0  0  0  0  0  0  0  0  0  0  0  0
   58.6850   30.5360   47.3170 C   0  0  0  0  0  0  0  0  0  0  0  0
   59.5620   33.3170   45.7550 N   0  0  0  0  0  0  0  0  0  0  0  0
   61.4210   34.0060   48.9040 C   0  0  0  0  0  0  0  0  0  0  0  0
   62.6820   33.8940   49.4920 C   0  0  0  0  0  0  0  0  0  0  0  0
   65.3865   32.5588   51.1922 H   0  0  0  0  0  0  0  0  0  0  0  0
   64.8396   31.4666   49.8751 H   0  0  0  0  0  0  0  0  0  0  0  0
   66.5196   32.1026   49.8751 H   0  0  0  0  0  0  0  0  0  0  0  0
   64.5099   33.0632   46.7261 H   0  0  0  0  0  0  0  0  0  0  0  0
   62.2627   33.2693   45.6704 H   0  0  0  0  0  0  0  0  0  0  0  0
   56.3867   33.1663   44.8831 H   0  0  0  0  0  0  0  0  0  0  0  0
   57.3840   34.1515   43.7392 H   0  0  0  0  0  0  0  0  0  0  0  0
   57.6474   32.1067   42.7383 H   0  0  0  0  0  0  0  0  0  0  0  0
   58.9879   32.0059   43.9597 H   0  0  0  0  0  0  0  0  0  0  0  0
   57.2172   28.0562   45.8674 H   0  0  0  0  0  0  0  0  0  0  0  0
   56.4002   28.4321   44.3124 H   0  0  0  0  0  0  0  0  0  0  0  0
   57.9919   27.5995   44.3124 H   0  0  0  0  0  0  0  0  0  0  0  0
   59.9344   28.7206   44.9274 H   0  0  0  0  0  0  0  0  0  0  0  0
   59.9535   30.4454   44.3762 H   0  0  0  0  0  0  0  0  0  0  0  0
   61.9036   29.8767   46.3585 H   0  0  0  0  0  0  0  0  0  0  0  0
   62.3134   30.5065   48.7368 H   0  0  0  0  0  0  0  0  0  0  0  0
   60.3988   31.1315   50.2133 H   0  0  0  0  0  0  0  0  0  0  0  0
   58.0784   31.1768   49.2972 H   0  0  0  0  0  0  0  0  0  0  0  0
   57.6582   30.5400   46.9225 H   0  0  0  0  0  0  0  0  0  0  0  0
   60.5505   34.2688   49.5230 H   0  0  0  0  0  0  0  0  0  0  0  0
   62.7973   34.0707   50.5716 H   0  0  0  0  0  0  0  0  0  0  0  0
  1  2  1  0
  2  3  1  0
  3  4  2  0
  4  5  1  0
  5  6  2  0
  6  7  1  0
  7  8  2  0
  8  9  1  0
  9 10  1  0
 10 11  1  0
 11 12  1  0
 12 13  1  0
 13 14  2  0
 13 15  1  0
 15 16  1  0
 15 17  1  0
 17 18  1  0
 18 19  2  0
 19 20  1  0
 20 21  2  0
 21 22  1  0
 22 23  2  0
 10 24  2  0
  6 25  1  0
 25 26  2  0
 26  3  1  0
 24  7  1  0
 23 18  1  0
  1 27  1  0
  1 28  1  0
  1 29  1  0
  4 30  1  0
  5 31  1  0
 11 32  1  0
 11 33  1  0
 12 34  1  0
 12 35  1  0
 16 36  1  0
 16 37  1  0
 16 38  1  0
 17 39  1  0
 17 40  1  0
 19 41  1  0
 20 42  1  0
 21 43  1  0
 22 44  1  0
 23 45  1  0
 25 46  1  0
 26 47  1  0
M  END
>  <UniqueID>  (32) 
30

>  <SMILES>  (32) 
COc1ccc(-c2noc(CCC(=O)N(C)Cc3ccccc3)n2)cc1

>  <Energy>  (32) 
72.62106485560585

>  <Genealogy>  (32) 
COc1ccc(-c2noc(CCC(=O)N(C)Cc3ccccc3)n2)cc1 (3D coordinates assigned)
COc1ccc(-c2noc(CCC(=O)N(C)Cc3ccccc3)n2)cc1 (optimized conformer: 72.62106485560585 kcal/mol)

>  <smiles>  (32) 
COc1ccc(-c2noc(CCC(=O)N(C)Cc3ccccc3)n2)cc1

>  <score_type>  (32) 
oracle

>  <origin>  (32) 
adg

>  <m_score__min__energy>  (32) 
-8.4800000000000004

>  <m_primary>  (32) 
energy

$$$$
32:0
     RDKit          3D

 43 45  0  0  0  0  0  0  0  0999 V2000
   56.8310   24.9010   47.0300 C   0  0  0  0  0  0  0  0  0  0  0  0
   55.7770   25.2130   45.9740 C   0  0  0  0  0  0  0  0  0  0  0  0
   55.4020   26.6220   46.0250 N   0  0  0  0  0  0  0  0  0  0  0  0
   56.2720   27.6790   45.6160 C   0  0  0  0  0  0  0  0  0  0  0  0
   55.7830   28.6830   45.0310 O   0  0  0  0  0  0  0  0  0  0  0  0
   57.6400   27.6140   45.9150 O   0  0  0  0  0  0  0  0  0  0  0  0
   58.3710   28.5960   46.6000 C   0  0  0  0  0  0  0  0  0  0  0  0
   58.4010   29.9370   46.1790 C   0  0  0  0  0  0  0  0  0  0  0  0
   59.1510   30.8920   46.8860 C   0  0  0  0  0  0  0  0  0  0  0  0
   59.1780   32.3080   46.4380 C   0  0  0  0  0  0  0  0  0  0  0  0
   60.1790   33.1840   46.8960 C   0  0  0  0  0  0  0  0  0  0  0  0
   60.2030   34.5170   46.4730 C   0  0  0  0  0  0  0  0  0  0  0  0
   59.2280   34.9890   45.5900 C   0  0  0  0  0  0  0  0  0  0  0  0
   58.2290   34.1300   45.1290 C   0  0  0  0  0  0  0  0  0  0  0  0
   58.2010   32.7960   45.5480 C   0  0  0  0  0  0  0  0  0  0  0  0
   59.8810   30.4880   48.0180 C   0  0  0  0  0  0  0  0  0  0  0  0
   59.8770   29.1470   48.4360 C   0  0  0  0  0  0  0  0  0  0  0  0
   60.6580   28.7260   49.6280 C   0  0  0  0  0  0  0  0  0  0  0  0
   61.3170   29.6800   50.4250 C   0  0  0  0  0  0  0  0  0  0  0  0
   62.0510   29.2820   51.5460 C   0  0  0  0  0  0  0  0  0  0  0  0
   62.1380   27.9300   51.8870 C   0  0  0  0  0  0  0  0  0  0  0  0
   62.8720   27.5480   53.0070 O   0  0  0  0  0  0  0  0  0  0  0  0
   61.4840   26.9720   51.1010 C   0  0  0  0  0  0  0  0  0  0  0  0
   60.7480   27.3670   49.9800 C   0  0  0  0  0  0  0  0  0  0  0  0
   59.1220   28.2090   47.7120 C   0  0  0  0  0  0  0  0  0  0  0  0
   56.3956   25.0299   48.0319 H   0  0  0  0  0  0  0  0  0  0  0  0
   57.1741   23.8628   46.9101 H   0  0  0  0  0  0  0  0  0  0  0  0
   57.6839   25.5852   46.9101 H   0  0  0  0  0  0  0  0  0  0  0  0
   56.1835   24.9827   44.9781 H   0  0  0  0  0  0  0  0  0  0  0  0
   54.8847   24.6007   46.1711 H   0  0  0  0  0  0  0  0  0  0  0  0
   57.8322   30.2414   45.2880 H   0  0  0  0  0  0  0  0  0  0  0  0
   60.9484   32.8180   47.5918 H   0  0  0  0  0  0  0  0  0  0  0  0
   60.9901   35.1945   46.8357 H   0  0  0  0  0  0  0  0  0  0  0  0
   59.2478   36.0376   45.2582 H   0  0  0  0  0  0  0  0  0  0  0  0
   57.4619   34.5032   44.4345 H   0  0  0  0  0  0  0  0  0  0  0  0
   57.4116   32.1239   45.1805 H   0  0  0  0  0  0  0  0  0  0  0  0
   60.4624   31.2314   48.5832 H   0  0  0  0  0  0  0  0  0  0  0  0
   61.2541   30.7467   50.1640 H   0  0  0  0  0  0  0  0  0  0  0  0
   62.5622   30.0363   52.1622 H   0  0  0  0  0  0  0  0  0  0  0  0
   63.7340   28.0150   53.2600 H   0  0  0  0  0  0  0  0  0  0  0  0
   61.5498   25.9066   51.3666 H   0  0  0  0  0  0  0  0  0  0  0  0
   60.2355   26.6096   49.3687 H   0  0  0  0  0  0  0  0  0  0  0  0
   59.1224   27.1546   48.0256 H   0  0  0  0  0  0  0  0  0  0  0  0
  1  2  1  0
  2  3  1  0
  3  4  1  0
  4  5  2  0
  4  6  1  0
  6  7  1  0
  7  8  2  0
  8  9  1  0
  9 10  1  0
 10 11  2  0
 11 12  1  0
 12 13  2  0
 13 14  1  0
 14 15  2  0
  9 16  2  0
 16 17  1  0
 17 18  1  0
 18 19  2  0
 19 20  1  0
 20 21  2  0
 21 22  1  0
 21 23  1  0
 23 24  2  0
 17 25  2  0
 25  7  1  0
 15 10  1  0
 24 18  1  0
  1 26  1  0
  1 27  1  0
  1 28  1  0
  2 29  1  0
  2 30  1  0
  8 31  1  0
 11 32  1  0
 12 33  1  0
 13 34  1  0
 14 35  1  0
 15 36  1  0
 16 37  1  0
 19 38  1  0
 20 39  1  0
 22 40  1  0
 23 41  1  0
 24 42  1  0
 25 43  1  0
M  CHG  1   3  -1
M  END
>  <UniqueID>  (33) 
31

>  <SMILES>  (33) 
CC[N-]C(=O)Oc1cc(-c2ccccc2)cc(-c2ccc(O)cc2)c1

>  <Energy>  (33) 
54.803758594084

>  <Genealogy>  (33) 
CC[N-]C(=O)Oc1cc(-c2ccccc2)cc(-c2ccc(O)cc2)c1 (protonated)
CC[N-]C(=O)Oc1cc(-c2ccccc2)cc(-c2ccc(O)cc2)c1 (3D coordinates assigned)
CC[N-]C(=O)Oc1cc(-c2ccccc2)cc(-c2ccc(O)cc2)c1 (optimized conformer: 54.803758594084 kcal/mol)

>  <smiles>  (33) 
CCNC(=O)Oc1cc(-c2ccccc2)cc(-c2ccc(O)cc2)c1

>  <score_type>  (33) 
oracle

>  <origin>  (33) 
adg

>  <m_score__min__energy>  (33) 
-8.8399999999999999

>  <m_primary>  (33) 
energy

$$$$
33:0
     RDKit          3D

 52 54  0  0  0  0  0  0  0  0999 V2000
   59.7190   23.2850   45.5540 O   0  0  0  0  0  0  0  0  0  0  0  0
   58.5180   23.5130   45.2360 C   0  0  0  0  0  0  0  0  0  0  0  0
   57.7850   22.5000   44.4040 C   0  0  0  0  0  0  0  0  0  0  0  0
   56.6740   23.1590   43.5840 C   0  0  0  0  0  0  0  0  0  0  0  0
   55.7320   23.9600   44.4840 C   0  0  0  0  0  0  0  0  0  0  0  0
   56.4970   24.9760   45.2800 C   0  0  0  0  0  0  0  0  0  0  0  0
   55.9200   26.0450   45.6170 O   0  0  0  0  0  0  0  0  0  0  0  0
   57.8500   24.7050   45.7080 N   0  0  0  0  0  0  0  0  0  0  0  0
   58.5440   25.6150   46.6330 C   0  0  0  0  0  0  0  0  0  0  0  0
   59.7900   26.2500   45.9850 C   0  0  0  0  0  0  0  0  0  0  0  0
   59.5900   27.7200   45.5690 C   0  0  0  0  0  0  0  0  0  0  0  0
   58.8980   27.8870   44.1920 C   0  0  0  0  0  0  0  0  0  0  0  0
   57.4450   28.1810   44.3080 N   0  0  0  0  0  0  0  0  0  0  0  0
   57.0690   28.6190   45.6620 C   0  0  0  0  0  0  0  0  0  0  0  0
   57.7640   29.9200   46.0710 C   0  0  0  0  0  0  0  0  0  0  0  0
   57.8750   30.9180   44.9850 N   0  0  0  0  0  0  0  0  0  0  0  0
   58.4490   32.2290   45.2900 C   0  0  0  0  0  0  0  0  0  0  0  0
   59.3810   32.3970   46.3440 C   0  0  0  0  0  0  0  0  0  0  0  0
   59.9100   33.6560   46.6450 C   0  0  0  0  0  0  0  0  0  0  0  0
   59.5230   34.7750   45.9130 C   0  0  0  0  0  0  0  0  0  0  0  0
   58.6040   34.6390   44.8730 C   0  0  0  0  0  0  0  0  0  0  0  0
   58.0720   33.3840   44.5600 C   0  0  0  0  0  0  0  0  0  0  0  0
   57.5570   30.5920   43.5760 C   0  0  0  0  0  0  0  0  0  0  0  0
   56.9730   29.1860   43.3390 C   0  0  0  0  0  0  0  0  0  0  0  0
   58.4966   22.0147   43.7198 H   0  0  0  0  0  0  0  0  0  0  0  0
   57.3291   21.7595   45.0776 H   0  0  0  0  0  0  0  0  0  0  0  0
   57.1260   23.8353   42.8435 H   0  0  0  0  0  0  0  0  0  0  0  0
   56.0939   22.3709   43.0816 H   0  0  0  0  0  0  0  0  0  0  0  0
   54.9878   24.4760   43.8597 H   0  0  0  0  0  0  0  0  0  0  0  0
   55.2330   23.2685   45.1788 H   0  0  0  0  0  0  0  0  0  0  0  0
   57.8511   26.4154   46.9317 H   0  0  0  0  0  0  0  0  0  0  0  0
   58.8727   25.0305   47.5049 H   0  0  0  0  0  0  0  0  0  0  0  0
   60.6190   26.2029   46.7065 H   0  0  0  0  0  0  0  0  0  0  0  0
   60.0002   25.6816   45.0670 H   0  0  0  0  0  0  0  0  0  0  0  0
   58.9714   28.2160   46.3314 H   0  0  0  0  0  0  0  0  0  0  0  0
   60.5902   28.1699   45.4839 H   0  0  0  0  0  0  0  0  0  0  0  0
   59.3821   28.7152   43.6538 H   0  0  0  0  0  0  0  0  0  0  0  0
   59.0005   26.9338   43.6526 H   0  0  0  0  0  0  0  0  0  0  0  0
   56.9150   27.2940   44.1310 H   0  0  0  0  0  0  0  0  0  0  0  0
   55.9806   28.7757   45.6926 H   0  0  0  0  0  0  0  0  0  0  0  0
   57.3846   27.8355   46.3666 H   0  0  0  0  0  0  0  0  0  0  0  0
   57.1932   30.3708   46.8962 H   0  0  0  0  0  0  0  0  0  0  0  0
   58.7913   29.6516   46.3585 H   0  0  0  0  0  0  0  0  0  0  0  0
   59.6933   31.5233   46.9348 H   0  0  0  0  0  0  0  0  0  0  0  0
   60.6358   33.7627   47.4646 H   0  0  0  0  0  0  0  0  0  0  0  0
   59.9408   35.7636   46.1542 H   0  0  0  0  0  0  0  0  0  0  0  0
   58.2959   35.5233   44.2959 H   0  0  0  0  0  0  0  0  0  0  0  0
   57.3503   33.2919   43.7350 H   0  0  0  0  0  0  0  0  0  0  0  0
   56.8251   31.3290   43.2139 H   0  0  0  0  0  0  0  0  0  0  0  0
   58.5145   30.6178   43.0352 H   0  0  0  0  0  0  0  0  0  0  0  0
   55.8770   29.2483   43.4084 H   0  0  0  0  0  0  0  0  0  0  0  0
   57.3109   28.8594   42.3445 H   0  0  0  0  0  0  0  0  0  0  0  0
  1  2  2  0
  2  3  1  0
  3  4  1  0
  4  5  1  0
  5  6  1  0
  6  7  2  0
  6  8  1  0
  8  9  1  0
  9 10  1  0
 10 11  1  0
 11 12  1  0
 12 13  1  0
 13 14  1  0
 14 15  1  0
 15 16  1  0
 16 17  1  0
 17 18  2  0
 18 19  1  0
 19 20  2  0
 20 21  1  0
 21 22  2  0
 16 23  1  0
 23 24  1  0
  8  2  1  0
 24 13  1  0
 22 17  1  0
  3 25  1  0
  3 26  1  0
  4 27  1  0
  4 28  1  0
  5 29  1  0
  5 30  1  0
  9 31  1  0
  9 32  1  0
 10 33  1  0
 10 34  1  0
 11 35  1  0
 11 36  1  0
 12 37  1  0
 12 38  1  0
 13 39  1  0
 14 40  1  0
 14 41  1  0
 15 42  1  0
 15 43  1  0
 18 44  1  0
 19 45  1  0
 20 46  1  0
 21 47  1  0
 22 48  1  0
 23 49  1  0
 23 50  1  0
 24 51  1  0
 24 52  1  0
M  CHG  1  13   1
M  END
>  <UniqueID>  (34) 
32

>  <SMILES>  (34) 
O=C1CCCC(=O)N1CCCC[NH+]1CCN(c2ccccc2)CC1

>  <Energy>  (34) 
56.58561036739335

>  <Genealogy>  (34) 
O=C1CCCC(=O)N1CCCC[NH+]1CCN(c2ccccc2)CC1 (protonated)
O=C1CCCC(=O)N1CCCC[NH+]1CCN(c2ccccc2)CC1 (3D coordinates assigned)
O=C1CCCC(=O)N1CCCC[NH+]1CCN(c2ccccc2)CC1 (nonaromatic ring conformer: 56.58561036739335 kcal/mol)

>  <smiles>  (34) 
O=C1CCCC(=O)N1CCCCN1CCN(c2ccccc2)CC1

>  <score_type>  (34) 
oracle

>  <origin>  (34) 
adg

>  <m_score__min__energy>  (34) 
-6.6200000000000001

>  <m_primary>  (34) 
energy

$$$$
34:0
     RDKit          3D

 65 68  0  0  0  0  0  0  0  0999 V2000
   55.8630   30.6300   52.0330 C   0  0  0  0  0  0  0  0  0  0  0  0
   57.0240   30.4390   51.2320 O   0  0  0  0  0  0  0  0  0  0  0  0
   58.1470   31.2800   51.2450 C   0  0  0  0  0  0  0  0  0  0  0  0
   58.3970   32.0260   52.3990 C   0  0  0  0  0  0  0  0  0  0  0  0
   59.5110   32.8570   52.4770 C   0  0  0  0  0  0  0  0  0  0  0  0
   60.3980   32.9590   51.3960 C   0  0  0  0  0  0  0  0  0  0  0  0
   61.4970   33.7540   51.4960 N   0  0  0  0  0  0  0  0  0  0  0  0
   62.3790   33.8570   50.4740 C   0  0  0  0  0  0  0  0  0  0  0  0
   62.1660   33.1500   49.2910 C   0  0  0  0  0  0  0  0  0  0  0  0
   63.0160   33.2580   48.3650 O   0  0  0  0  0  0  0  0  0  0  0  0
   61.0560   32.3470   49.1470 N   0  0  0  0  0  0  0  0  0  0  0  0
   60.8860   31.5890   47.8850 C   0  0  0  0  0  0  0  0  0  0  0  0
   60.4210   32.5040   46.7480 C   0  0  0  0  0  0  0  0  0  0  0  0
   59.5510   33.5800   47.2850 N   0  0  0  0  0  0  0  0  0  0  0  0
   59.7740   34.8900   46.6380 C   0  0  0  0  0  0  0  0  0  0  0  0
   59.2520   34.9270   45.1850 C   0  0  0  0  0  0  0  0  0  0  0  0
   58.0190   34.0140   44.9480 C   0  0  0  0  0  0  0  0  0  0  0  0
   58.4360   32.7010   44.4150 N   0  0  0  0  0  0  0  0  0  0  0  0
   57.5310   32.2180   43.3620 C   0  0  0  0  0  0  0  0  0  0  0  0
   57.3640   30.7050   43.4820 C   0  0  0  0  0  0  0  0  0  0  0  0
   57.0310   30.3690   44.8230 O   0  0  0  0  0  0  0  0  0  0  0  0
   57.8120   29.4930   45.5790 C   0  0  0  0  0  0  0  0  0  0  0  0
   58.1960   29.8760   46.8730 C   0  0  0  0  0  0  0  0  0  0  0  0
   58.9700   29.0200   47.6600 C   0  0  0  0  0  0  0  0  0  0  0  0
   59.3550   27.7700   47.1660 C   0  0  0  0  0  0  0  0  0  0  0  0
   58.9760   27.3800   45.8760 C   0  0  0  0  0  0  0  0  0  0  0  0
   58.1860   28.2270   45.0800 C   0  0  0  0  0  0  0  0  0  0  0  0
   57.8030   27.7950   43.6900 C   0  0  0  0  0  0  0  0  0  0  0  0
   57.2390   33.8390   46.2670 C   0  0  0  0  0  0  0  0  0  0  0  0
   58.1120   33.2240   47.3840 C   0  0  0  0  0  0  0  0  0  0  0  0
   60.1630   32.2290   50.2010 C   0  0  0  0  0  0  0  0  0  0  0  0
   59.0220   31.3890   50.1460 C   0  0  0  0  0  0  0  0  0  0  0  0
   56.1398   30.5845   53.0966 H   0  0  0  0  0  0  0  0  0  0  0  0
   55.4218   31.6128   51.8107 H   0  0  0  0  0  0  0  0  0  0  0  0
   55.1302   29.8403   51.8107 H   0  0  0  0  0  0  0  0  0  0  0  0
   57.7077   31.9563   53.2534 H   0  0  0  0  0  0  0  0  0  0  0  0
   59.6966   33.4375   53.3928 H   0  0  0  0  0  0  0  0  0  0  0  0
   61.6850   34.2930   52.3710 H   0  0  0  0  0  0  0  0  0  0  0  0
   63.2657   34.4998   50.5770 H   0  0  0  0  0  0  0  0  0  0  0  0
   61.8479   31.1329   47.6080 H   0  0  0  0  0  0  0  0  0  0  0  0
   60.1212   30.8146   48.0440 H   0  0  0  0  0  0  0  0  0  0  0  0
   61.2985   32.9543   46.2609 H   0  0  0  0  0  0  0  0  0  0  0  0
   59.8517   31.9107   46.0173 H   0  0  0  0  0  0  0  0  0  0  0  0
   59.2530   35.6644   47.2201 H   0  0  0  0  0  0  0  0  0  0  0  0
   60.8590   35.0685   46.6086 H   0  0  0  0  0  0  0  0  0  0  0  0
   58.9708   35.9623   44.9421 H   0  0  0  0  0  0  0  0  0  0  0  0
   60.0610   34.5530   44.5403 H   0  0  0  0  0  0  0  0  0  0  0  0
   57.3630   34.4901   44.2044 H   0  0  0  0  0  0  0  0  0  0  0  0
   58.4050   31.9910   45.1870 H   0  0  0  0  0  0  0  0  0  0  0  0
   56.5503   32.7040   43.4713 H   0  0  0  0  0  0  0  0  0  0  0  0
   57.9555   32.4609   42.3767 H   0  0  0  0  0  0  0  0  0  0  0  0
   56.5600   30.3705   42.8099 H   0  0  0  0  0  0  0  0  0  0  0  0
   58.3055   30.2093   43.2031 H   0  0  0  0  0  0  0  0  0  0  0  0
   57.8863   30.8543   47.2693 H   0  0  0  0  0  0  0  0  0  0  0  0
   59.2770   29.3298   48.6698 H   0  0  0  0  0  0  0  0  0  0  0  0
   59.9558   27.0929   47.7910 H   0  0  0  0  0  0  0  0  0  0  0  0
   59.2985   26.4046   45.4830 H   0  0  0  0  0  0  0  0  0  0  0  0
   57.0743   26.9731   43.7492 H   0  0  0  0  0  0  0  0  0  0  0  0
   57.3553   28.6439   43.1525 H   0  0  0  0  0  0  0  0  0  0  0  0
   58.6994   27.4523   43.1525 H   0  0  0  0  0  0  0  0  0  0  0  0
   56.8801   34.8241   46.5997 H   0  0  0  0  0  0  0  0  0  0  0  0
   56.4017   33.1517   46.0757 H   0  0  0  0  0  0  0  0  0  0  0  0
   57.7333   33.5775   48.3544 H   0  0  0  0  0  0  0  0  0  0  0  0
   58.0444   32.1312   47.2783 H   0  0  0  0  0  0  0  0  0  0  0  0
   58.8168   30.8136   49.2313 H   0  0  0  0  0  0  0  0  0  0  0  0
  1  2  1  0
  2  3  1  0
  3  4  2  0
  4  5  1  0
  5  6  2  0
  6  7  1  0
  7  8  2  0
  8  9  1  0
  9 10  2  0
  9 11  1  0
 11 12  1  0
 12 13  1  0
 13 14  1  0
 14 15  1  0
 15 16  1  0
 16 17  1  0
 17 18  1  0
 18 19  1  0
 19 20  1  0
 20 21  1  0
 21 22  1  0
 22 23  2  0
 23 24  1  0
 24 25  2  0
 25 26  1  0
 26 27  2  0
 27 28  1  0
 17 29  1  0
 29 30  1  0
 11 31  1  0
 31 32  2  0
 32  3  1  0
 31  6  1  0
 30 14  1  0
 27 22  1  0
  1 33  1  0
  1 34  1  0
  1 35  1  0
  4 36  1  0
  5 37  1  0
  7 38  1  0
  8 39  1  0
 12 40  1  0
 12 41  1  0
 13 42  1  0
 13 43  1  0
 15 44  1  0
 15 45  1  0
 16 46  1  0
 16 47  1  0
 17 48  1  0
 18 49  1  0
 19 50  1  0
 19 51  1  0
 20 52  1  0
 20 53  1  0
 23 54  1  0
 24 55  1  0
 25 56  1  0
 26 57  1  0
 28 58  1  0
 28 59  1  0
 28 60  1  0
 29 61  1  0
 29 62  1  0
 30 63  1  0
 30 64  1  0
 32 65  1  0
M  CHG  1   7   1
M  END
>  <UniqueID>  (35) 
33

>  <SMILES>  (35) 
COc1ccc2[nH+]cc(=O)n(CCN3CCC(NCCOc4ccccc4C)CC3)c2c1

>  <Energy>  (35) 
90.19582024303196

>  <Genealogy>  (35) 
COc1ccc2[nH+]cc(=O)n(CCN3CCC(NCCOc4ccccc4C)CC3)c2c1 (protonated)
COc1ccc2[nH+]cc(=O)n(CCN3CCC(NCCOc4ccccc4C)CC3)c2c1 (3D coordinates assigned)
COc1ccc2[nH+]cc(=O)n(CCN3CCC(NCCOc4ccccc4C)CC3)c2c1 (nonaromatic ring conformer: 90.19582024303196 kcal/mol)

>  <smiles>  (35) 
COc1ccc2ncc(=O)n(CCN3CCC(NCCOc4ccccc4C)CC3)c2c1

>  <score_type>  (35) 
oracle

>  <origin>  (35) 
adg

>  <m_score__min__energy>  (35) 
-7.3099999999999996

>  <m_primary>  (35) 
energy

$$$$
35:0
     RDKit          3D

 42 45  0  0  0  0  0  0  0  0999 V2000
   59.8970   30.9910   49.1560 C   0  0  0  0  0  0  0  0  0  0  0  0
   59.1020   31.9550   48.4720 O   0  0  0  0  0  0  0  0  0  0  0  0
   58.6140   31.7990   47.1660 C   0  0  0  0  0  0  0  0  0  0  0  0
   57.8390   32.7800   46.5310 C   0  0  0  0  0  0  0  0  0  0  0  0
   57.3720   32.5760   45.2330 C   0  0  0  0  0  0  0  0  0  0  0  0
   57.6710   31.3900   44.5370 C   0  0  0  0  0  0  0  0  0  0  0  0
   57.2170   31.1860   43.2270 O   0  0  0  0  0  0  0  0  0  0  0  0
   57.4480   32.0690   42.1350 C   0  0  0  0  0  0  0  0  0  0  0  0
   58.4610   30.3950   45.1670 C   0  0  0  0  0  0  0  0  0  0  0  0
   58.7970   29.0540   44.5090 C   0  0  1  0  0  0  0  0  0  0  0  0
   60.5320   28.6560   44.8940 S   0  0  0  0  0  0  0  0  0  0  0  0
   60.0620   27.3780   46.0880 C   0  0  0  0  0  0  0  0  0  0  0  0
   58.6560   26.9740   45.8120 C   0  0  0  0  0  0  0  0  0  0  0  0
   58.2770   25.7960   46.2050 N   0  0  0  0  0  0  0  0  0  0  0  0
   57.0710   25.0730   45.9270 C   0  0  0  0  0  0  0  0  0  0  0  0
   57.1520   23.6730   45.9830 C   0  0  0  0  0  0  0  0  0  0  0  0
   56.0160   22.8810   45.8140 C   0  0  0  0  0  0  0  0  0  0  0  0
   54.7760   23.4800   45.6140 C   0  0  0  0  0  0  0  0  0  0  0  0
   54.6730   24.8710   45.5770 C   0  0  0  0  0  0  0  0  0  0  0  0
   55.8100   25.6800   45.7170 C   0  0  0  0  0  0  0  0  0  0  0  0
   55.6010   27.0930   45.7130 N   0  0  0  0  0  0  0  0  0  0  0  0
   56.4840   28.1170   45.2600 C   0  0  0  0  0  0  0  0  0  0  0  0
   55.9950   29.2640   45.0900 O   0  0  0  0  0  0  0  0  0  0  0  0
   57.9040   27.8150   44.8280 C   0  0  1  0  0  0  0  0  0  0  0  0
   58.9130   30.6180   46.4830 C   0  0  0  0  0  0  0  0  0  0  0  0
   59.7848   31.1271   50.2418 H   0  0  0  0  0  0  0  0  0  0  0  0
   59.5671   29.9793   48.8772 H   0  0  0  0  0  0  0  0  0  0  0  0
   60.9530   31.1222   48.8772 H   0  0  0  0  0  0  0  0  0  0  0  0
   57.5984   33.7145   47.0590 H   0  0  0  0  0  0  0  0  0  0  0  0
   56.7622   33.3519   44.7470 H   0  0  0  0  0  0  0  0  0  0  0  0
   57.7089   33.0663   42.5188 H   0  0  0  0  0  0  0  0  0  0  0  0
   58.2757   31.6843   41.5211 H   0  0  0  0  0  0  0  0  0  0  0  0
   56.5379   32.1389   41.5211 H   0  0  0  0  0  0  0  0  0  0  0  0
   58.5940   29.2266   43.4418 H   0  0  0  0  0  0  0  0  0  0  0  0
   60.7265   26.5078   45.9822 H   0  0  0  0  0  0  0  0  0  0  0  0
   60.1501   27.7668   47.1132 H   0  0  0  0  0  0  0  0  0  0  0  0
   58.1254   23.1932   46.1628 H   0  0  0  0  0  0  0  0  0  0  0  0
   56.1004   21.7845   45.8388 H   0  0  0  0  0  0  0  0  0  0  0  0
   53.8781   22.8577   45.4852 H   0  0  0  0  0  0  0  0  0  0  0  0
   53.6875   25.3390   45.4362 H   0  0  0  0  0  0  0  0  0  0  0  0
   57.7297   27.2666   43.8905 H   0  0  0  0  0  0  0  0  0  0  0  0
   59.5146   29.8449   46.9834 H   0  0  0  0  0  0  0  0  0  0  0  0
  1  2  1  0
  2  3  1  0
  3  4  2  0
  4  5  1  0
  5  6  2  0
  6  7  1  0
  7  8  1  0
  6  9  1  0
  9 10  1  0
 10 11  1  0
 11 12  1  0
 12 13  1  0
 13 14  2  0
 14 15  1  0
 15 16  2  0
 16 17  1  0
 17 18  2  0
 18 19  1  0
 19 20  2  0
 20 21  1  0
 21 22  1  0
 22 23  2  0
 22 24  1  0
  9 25  2  0
 25  3  1  0
 24 10  1  0
 24 13  1  0
 20 15  1  0
  1 26  1  0
  1 27  1  0
  1 28  1  0
  4 29  1  0
  5 30  1  0
  8 31  1  0
  8 32  1  0
  8 33  1  0
 10 34  1  6
 12 35  1  0
 12 36  1  0
 16 37  1  0
 17 38  1  0
 18 39  1  0
 19 40  1  0
 24 41  1  6
 25 42  1  0
M  CHG  1  21  -1
M  END
>  <UniqueID>  (36) 
34

>  <SMILES>  (36) 
COc1ccc(OC)c([C@H]2SCC3=Nc4ccccc4[N-]C(=O)[C@H]32)c1

>  <Energy>  (36) 
64.66671752090575

>  <Genealogy>  (36) 
COc1ccc(OC)c(C2SCC3=Nc4ccccc4[N-]C(=O)C32)c1 (protonated)
COc1ccc(OC)c([C@H]2SCC3=Nc4ccccc4[N-]C(=O)[C@H]32)c1 (chirality)
COc1ccc(OC)c([C@H]2SCC3=Nc4ccccc4[N-]C(=O)[C@H]32)c1 (3D coordinates assigned)
COc1ccc(OC)c([C@H]2SCC3=Nc4ccccc4[N-]C(=O)[C@H]32)c1 (nonaromatic ring conformer: 64.66671752090575 kcal/mol)

>  <smiles>  (36) 
COc1ccc(OC)c(C2SCC3=Nc4ccccc4NC(=O)C32)c1

>  <score_type>  (36) 
oracle

>  <origin>  (36) 
adg

>  <m_score__min__energy>  (36) 
-8.4199999999999999

>  <m_primary>  (36) 
energy

$$$$
36:0
     RDKit          3D

 72 76  0  0  0  0  0  0  0  0999 V2000
   61.9600   28.5770   54.2900 C   0  0  0  0  0  0  0  0  0  0  0  0
   61.6890   27.1940   53.6880 C   0  0  0  0  0  0  0  0  0  0  0  0
   62.9300   26.4530   53.3360 N   0  0  0  0  0  0  0  0  0  0  0  0
   62.8780   25.8390   51.9780 C   0  0  0  0  0  0  0  0  0  0  0  0
   61.5300   25.9780   51.2540 C   0  0  0  0  0  0  0  0  0  0  0  0
   64.1030   27.3430   53.5420 C   0  0  0  0  0  0  0  0  0  0  0  0
   64.8570   27.7500   52.2540 C   0  0  0  0  0  0  0  0  0  0  0  0
   64.4350   29.0940   51.6220 C   0  0  0  0  0  0  0  0  0  0  0  0
   63.0000   29.1900   51.3100 N   0  0  0  0  0  0  0  0  0  0  0  0
   62.3720   30.2980   50.6320 C   0  0  0  0  0  0  0  0  0  0  0  0
   61.3010   30.0400   49.7820 C   0  0  0  0  0  0  0  0  0  0  0  0
   60.7860   31.0170   48.9620 C   0  0  0  0  0  0  0  0  0  0  0  0
   61.1740   32.3290   49.0570 N   0  0  0  0  0  0  0  0  0  0  0  0
   60.3830   33.3820   48.3980 C   0  0  0  0  0  0  0  0  0  0  0  0
   62.2540   32.6380   49.8690 C   0  0  0  0  0  0  0  0  0  0  0  0
   62.8180   33.9370   49.8890 C   0  0  0  0  0  0  0  0  0  0  0  0
   63.8430   34.2620   50.7770 C   0  0  0  0  0  0  0  0  0  0  0  0
   64.3230   33.3110   51.6700 C   0  0  0  0  0  0  0  0  0  0  0  0
   63.8210   32.0110   51.6490 C   0  0  0  0  0  0  0  0  0  0  0  0
   62.8360   31.6340   50.7160 C   0  0  0  0  0  0  0  0  0  0  0  0
   59.8240   30.3500   48.0760 C   0  0  0  0  0  0  0  0  0  0  0  0
   59.2260   30.8130   46.8980 C   0  0  0  0  0  0  0  0  0  0  0  0
   58.3750   29.9530   46.1660 C   0  0  0  0  0  0  0  0  0  0  0  0
   58.2320   28.6110   46.6090 C   0  0  0  0  0  0  0  0  0  0  0  0
   58.9480   28.1650   47.7370 C   0  0  0  0  0  0  0  0  0  0  0  0
   58.8940   26.9580   48.1010 O   0  0  0  0  0  0  0  0  0  0  0  0
   59.7140   29.0510   48.4280 N   0  0  0  0  0  0  0  0  0  0  0  0
   60.6030   28.7340   49.5430 C   0  0  0  0  0  0  0  0  0  0  0  0
   57.4000   27.6550   45.8000 C   0  0  0  0  0  0  0  0  0  0  0  0
   56.2940   28.3360   45.2250 O   0  0  0  0  0  0  0  0  0  0  0  0
   56.4240   29.6040   44.6600 C   0  0  0  0  0  0  0  0  0  0  0  0
   55.4910   30.0300   43.9260 O   0  0  0  0  0  0  0  0  0  0  0  0
   57.7120   30.4000   44.8410 C   0  0  2  0  0  0  0  0  0  0  0  0
   58.5420   30.0560   43.7550 O   0  0  0  0  0  0  0  0  0  0  0  0
   57.3850   31.9410   44.8230 C   0  0  0  0  0  0  0  0  0  0  0  0
   58.0960   32.7360   43.7190 C   0  0  0  0  0  0  0  0  0  0  0  0
   61.9465   28.5081   55.3878 H   0  0  0  0  0  0  0  0  0  0  0  0
   62.9454   28.9351   53.9572 H   0  0  0  0  0  0  0  0  0  0  0  0
   61.1826   29.2805   53.9572 H   0  0  0  0  0  0  0  0  0  0  0  0
   61.1228   26.5993   54.4199 H   0  0  0  0  0  0  0  0  0  0  0  0
   61.1259   27.3487   52.7558 H   0  0  0  0  0  0  0  0  0  0  0  0
   63.0110   25.6690   54.0270 H   0  0  0  0  0  0  0  0  0  0  0  0
   63.6497   26.3177   51.3573 H   0  0  0  0  0  0  0  0  0  0  0  0
   63.0401   24.7605   52.1217 H   0  0  0  0  0  0  0  0  0  0  0  0
   60.7222   26.0613   51.9960 H   0  0  0  0  0  0  0  0  0  0  0  0
   61.5435   26.8795   50.6239 H   0  0  0  0  0  0  0  0  0  0  0  0
   61.3592   25.0927   50.6239 H   0  0  0  0  0  0  0  0  0  0  0  0
   63.7507   28.2614   54.0344 H   0  0  0  0  0  0  0  0  0  0  0  0
   64.8200   26.7672   54.1457 H   0  0  0  0  0  0  0  0  0  0  0  0
   65.9282   27.8130   52.4961 H   0  0  0  0  0  0  0  0  0  0  0  0
   64.6101   26.9798   51.5084 H   0  0  0  0  0  0  0  0  0  0  0  0
   64.6899   29.9008   52.3249 H   0  0  0  0  0  0  0  0  0  0  0  0
   64.9724   29.1761   50.6658 H   0  0  0  0  0  0  0  0  0  0  0  0
   62.4710   28.2900   51.3300 H   0  0  0  0  0  0  0  0  0  0  0  0
   59.9073   34.0152   49.1614 H   0  0  0  0  0  0  0  0  0  0  0  0
   61.0435   33.9981   47.7702 H   0  0  0  0  0  0  0  0  0  0  0  0
   59.6073   32.9192   47.7702 H   0  0  0  0  0  0  0  0  0  0  0  0
   62.4417   34.7014   49.1933 H   0  0  0  0  0  0  0  0  0  0  0  0
   64.2731   35.2744   50.7708 H   0  0  0  0  0  0  0  0  0  0  0  0
   65.1022   33.5856   52.3962 H   0  0  0  0  0  0  0  0  0  0  0  0
   64.1987   31.2708   52.3697 H   0  0  0  0  0  0  0  0  0  0  0  0
   59.4165   31.8372   46.5447 H   0  0  0  0  0  0  0  0  0  0  0  0
   60.0326   28.4199   50.4295 H   0  0  0  0  0  0  0  0  0  0  0  0
   61.2902   27.9011   49.3332 H   0  0  0  0  0  0  0  0  0  0  0  0
   58.0178   27.2232   44.9988 H   0  0  0  0  0  0  0  0  0  0  0  0
   57.0280   26.8558   46.4580 H   0  0  0  0  0  0  0  0  0  0  0  0
   57.9720   29.7140   43.0170 H   0  0  0  0  0  0  0  0  0  0  0  0
   56.3000   32.0592   44.6855 H   0  0  0  0  0  0  0  0  0  0  0  0
   57.7474   32.3461   45.7793 H   0  0  0  0  0  0  0  0  0  0  0  0
   58.7631   33.4819   44.1759 H   0  0  0  0  0  0  0  0  0  0  0  0
   58.6867   32.0492   43.0950 H   0  0  0  0  0  0  0  0  0  0  0  0
   57.3478   33.2466   43.0950 H   0  0  0  0  0  0  0  0  0  0  0  0
  1  2  1  0
  2  3  1  0
  3  4  1  0
  4  5  1  0
  3  6  1  0
  6  7  1  0
  7  8  1  0
  8  9  1  0
  9 10  1  0
 10 11  2  0
 11 12  1  0
 12 13  2  0
 13 14  1  0
 13 15  1  0
 15 16  2  0
 16 17  1  0
 17 18  2  0
 18 19  1  0
 19 20  2  0
 12 21  1  0
 21 22  2  0
 22 23  1  0
 23 24  2  0
 24 25  1  0
 25 26  2  0
 25 27  1  0
 27 28  1  0
 24 29  1  0
 29 30  1  0
 30 31  1  0
 31 32  2  0
 31 33  1  0
 33 34  1  6
 33 35  1  0
 35 36  1  0
 20 10  1  0
 27 21  1  0
 28 11  1  0
 20 15  1  0
 33 23  1  0
  1 37  1  0
  1 38  1  0
  1 39  1  0
  2 40  1  0
  2 41  1  0
  3 42  1  0
  4 43  1  0
  4 44  1  0
  5 45  1  0
  5 46  1  0
  5 47  1  0
  6 48  1  0
  6 49  1  0
  7 50  1  0
  7 51  1  0
  8 52  1  0
  8 53  1  0
  9 54  1  0
 14 55  1  0
 14 56  1  0
 14 57  1  0
 16 58  1  0
 17 59  1  0
 18 60  1  0
 19 61  1  0
 22 62  1  0
 28 63  1  0
 28 64  1  0
 29 65  1  0
 29 66  1  0
 34 67  1  0
 35 68  1  0
 35 69  1  0
 36 70  1  0
 36 71  1  0
 36 72  1  0
M  CHG  2   3   1  13   1
M  END
>  <UniqueID>  (37) 
35

>  <SMILES>  (37) 
CC[NH+](CC)CCCNc1c2c([n+](C)c3ccccc13)-c1cc3c(c(=O)n1C2)COC(=O)[C@@]3(O)CC

>  <Energy>  (37) 
136.70359307255748

>  <Genealogy>  (37) 
CC[NH+](CC)CCCNc1c2c([n+](C)c3ccccc13)-c1cc3c(c(=O)n1C2)COC(=O)C3(O)CC (protonated)
CC[NH+](CC)CCCNc1c2c([n+](C)c3ccccc13)-c1cc3c(c(=O)n1C2)COC(=O)[C@@]3(O)CC (chirality)
CC[NH+](CC)CCCNc1c2c([n+](C)c3ccccc13)-c1cc3c(c(=O)n1C2)COC(=O)[C@@]3(O)CC (3D coordinates assigned)
CC[NH+](CC)CCCNc1c2c([n+](C)c3ccccc13)-c1cc3c(c(=O)n1C2)COC(=O)[C@@]3(O)CC (nonaromatic ring conformer: 136.70359307255748 kcal/mol)

>  <smiles>  (37) 
CCN(CC)CCCNc1c2c([n+](C)c3ccccc13)-c1cc3c(c(=O)n1C2)COC(=O)C3(O)CC

>  <score_type>  (37) 
oracle

>  <origin>  (37) 
adg

>  <m_score__min__energy>  (37) 
-5.3899999999999997

>  <m_primary>  (37) 
energy

$$$$
37:0
     RDKit          3D

 56 59  0  0  0  0  0  0  0  0999 V2000
   56.1850   23.0060   43.0000 C   0  0  0  0  0  0  0  0  0  0  0  0
   56.7750   24.1150   43.8670 C   0  0  0  0  0  0  0  0  0  0  0  0
   57.7420   23.5530   44.8380 N   0  0  0  0  0  0  0  0  0  0  0  0
   58.4660   22.3950   44.2660 C   0  0  0  0  0  0  0  0  0  0  0  0
   59.8520   22.2630   44.8930 C   0  0  0  0  0  0  0  0  0  0  0  0
   57.0890   23.2100   46.1290 C   0  0  0  0  0  0  0  0  0  0  0  0
   56.5400   24.4740   46.8000 C   0  0  0  0  0  0  0  0  0  0  0  0
   57.6360   25.5080   47.0840 C   0  0  0  0  0  0  0  0  0  0  0  0
   57.9780   26.2420   45.8650 N   0  0  0  0  0  0  0  0  0  0  0  0
   57.9400   27.6780   45.7290 C   0  0  0  0  0  0  0  0  0  0  0  0
   57.4040   28.2990   44.5900 C   0  0  0  0  0  0  0  0  0  0  0  0
   57.3830   29.6870   44.4860 C   0  0  0  0  0  0  0  0  0  0  0  0
   57.8890   30.4900   45.5220 C   0  0  0  0  0  0  0  0  0  0  0  0
   58.4250   29.8850   46.6930 C   0  0  0  0  0  0  0  0  0  0  0  0
   58.4410   28.4740   46.7700 C   0  0  0  0  0  0  0  0  0  0  0  0
   58.9320   30.7090   47.7460 C   0  0  0  0  0  0  0  0  0  0  0  0
   59.4320   30.1820   48.9420 O   0  0  0  0  0  0  0  0  0  0  0  0
   58.9350   32.1110   47.6090 C   0  0  0  0  0  0  0  0  0  0  0  0
   59.6140   33.1460   48.9200 S   0  0  0  0  0  0  0  0  0  0  0  0
   61.2690   33.1420   48.2200 C   0  0  0  0  0  0  0  0  0  0  0  0
   61.5240   33.8330   47.0270 C   0  0  0  0  0  0  0  0  0  0  0  0
   62.8110   33.8420   46.4810 C   0  0  0  0  0  0  0  0  0  0  0  0
   63.8460   33.1520   47.1170 C   0  0  0  0  0  0  0  0  0  0  0  0
   63.5940   32.4460   48.2970 C   0  0  0  0  0  0  0  0  0  0  0  0
   62.3080   32.4360   48.8480 C   0  0  0  0  0  0  0  0  0  0  0  0
   62.0740   31.7290   49.9810 F   0  0  0  0  0  0  0  0  0  0  0  0
   58.3930   32.6960   46.4630 C   0  0  0  0  0  0  0  0  0  0  0  0
   58.3290   34.0420   46.2850 N   0  0  0  0  0  0  0  0  0  0  0  0
   57.6140   34.1170   44.7990 S   0  0  0  0  0  0  0  0  0  0  0  0
   57.3640   32.5500   44.3410 N   0  0  0  0  0  0  0  0  0  0  0  0
   57.8710   31.8900   45.4170 C   0  0  0  0  0  0  0  0  0  0  0  0
   55.7666   22.2195   43.6453 H   0  0  0  0  0  0  0  0  0  0  0  0
   55.3887   23.4215   42.3650 H   0  0  0  0  0  0  0  0  0  0  0  0
   56.9745   22.5778   42.3650 H   0  0  0  0  0  0  0  0  0  0  0  0
   57.2899   24.8432   43.2230 H   0  0  0  0  0  0  0  0  0  0  0  0
   55.9608   24.6073   44.4190 H   0  0  0  0  0  0  0  0  0  0  0  0
   57.8919   21.4774   44.4620 H   0  0  0  0  0  0  0  0  0  0  0  0
   58.5806   22.5489   43.1829 H   0  0  0  0  0  0  0  0  0  0  0  0
   59.7609   22.2717   45.9892 H   0  0  0  0  0  0  0  0  0  0  0  0
   60.3116   21.3170   44.5708 H   0  0  0  0  0  0  0  0  0  0  0  0
   60.4819   23.1052   44.5708 H   0  0  0  0  0  0  0  0  0  0  0  0
   56.2615   22.5097   45.9423 H   0  0  0  0  0  0  0  0  0  0  0  0
   57.8325   22.7462   46.7939 H   0  0  0  0  0  0  0  0  0  0  0  0
   55.7891   24.9283   46.1369 H   0  0  0  0  0  0  0  0  0  0  0  0
   56.1002   24.1781   47.7638 H   0  0  0  0  0  0  0  0  0  0  0  0
   57.2763   26.2169   47.8443 H   0  0  0  0  0  0  0  0  0  0  0  0
   58.5328   24.9845   47.4469 H   0  0  0  0  0  0  0  0  0  0  0  0
   58.2830   25.6720   45.0430 H   0  0  0  0  0  0  0  0  0  0  0  0
   56.9975   27.6842   43.7734 H   0  0  0  0  0  0  0  0  0  0  0  0
   56.9664   30.1596   43.5843 H   0  0  0  0  0  0  0  0  0  0  0  0
   58.8555   27.9890   47.6661 H   0  0  0  0  0  0  0  0  0  0  0  0
   60.0400   30.6690   49.5840 H   0  0  0  0  0  0  0  0  0  0  0  0
   60.7091   34.3696   46.5191 H   0  0  0  0  0  0  0  0  0  0  0  0
   63.0089   34.3929   45.5497 H   0  0  0  0  0  0  0  0  0  0  0  0
   64.8593   33.1642   46.6892 H   0  0  0  0  0  0  0  0  0  0  0  0
   64.4082   31.8974   48.7931 H   0  0  0  0  0  0  0  0  0  0  0  0
  1  2  1  0
  2  3  1  0
  3  4  1  0
  4  5  1  0
  3  6  1  0
  6  7  1  0
  7  8  1  0
  8  9  1  0
  9 10  1  0
 10 11  2  0
 11 12  1  0
 12 13  2  0
 13 14  1  0
 14 15  2  0
 14 16  1  0
 16 17  1  0
 16 18  2  0
 18 19  1  0
 19 20  1  0
 20 21  2  0
 21 22  1  0
 22 23  2  0
 23 24  1  0
 24 25  2  0
 25 26  1  0
 18 27  1  0
 27 28  2  0
 28 29  1  0
 29 30  1  0
 30 31  2  0
 15 10  1  0
 25 20  1  0
 31 27  1  0
 31 13  1  0
  1 32  1  0
  1 33  1  0
  1 34  1  0
  2 35  1  0
  2 36  1  0
  4 37  1  0
  4 38  1  0
  5 39  1  0
  5 40  1  0
  5 41  1  0
  6 42  1  0
  6 43  1  0
  7 44  1  0
  7 45  1  0
  8 46  1  0
  8 47  1  0
  9 48  1  0
 11 49  1  0
 12 50  1  0
 15 51  1  0
 17 52  1  0
 21 53  1  0
 22 54  1  0
 23 55  1  0
 24 56  1  0
M  END
>  <UniqueID>  (38) 
36

>  <SMILES>  (38) 
CCN(CC)CCCNc1ccc2c(c1)c(O)c(Sc1ccccc1F)c1nsnc12

>  <Energy>  (38) 
98.05121088503678

>  <Genealogy>  (38) 
CCN(CC)CCCNc1ccc2c(c1)c(O)c(Sc1ccccc1F)c1nsnc12 (3D coordinates assigned)
CCN(CC)CCCNc1ccc2c(c1)c(O)c(Sc1ccccc1F)c1nsnc12 (optimized conformer: 98.05121088503678 kcal/mol)

>  <smiles>  (38) 
CCN(CC)CCCNc1ccc2c(c1)c(O)c(Sc1ccccc1F)c1nsnc12

>  <score_type>  (38) 
oracle

>  <origin>  (38) 
adg

>  <m_score__min__energy>  (38) 
-9.3300000000000001

>  <m_primary>  (38) 
energy

$$$$
38:0
     RDKit          3D

 60 64  0  0  0  0  0  0  0  0999 V2000
   60.8320   29.7620   48.2940 O   0  0  0  0  0  0  0  0  0  0  0  0
   59.7010   30.1070   47.8570 C   0  0  0  0  0  0  0  0  0  0  0  0
   58.8900   31.0820   48.6690 C   0  0  0  0  0  0  0  0  0  0  0  0
   59.2290   32.4760   48.3480 N   0  0  0  0  0  0  0  0  0  0  0  0
   59.8470   33.3970   49.1430 C   0  0  0  0  0  0  0  0  0  0  0  0
   60.3760   33.1070   50.7970 S   0  0  0  0  0  0  0  0  0  0  0  0
   59.8230   31.8030   51.2970 O   0  0  0  0  0  0  0  0  0  0  0  0
   59.8610   34.2160   51.6720 O   0  0  0  0  0  0  0  0  0  0  0  0
   62.1610   33.0970   50.8650 C   0  0  0  0  0  0  0  0  0  0  0  0
   62.7340   33.0140   49.4780 C   0  0  0  0  0  0  0  0  0  0  0  0
   63.0770   34.1850   48.7820 C   0  0  0  0  0  0  0  0  0  0  0  0
   63.5740   34.1080   47.4780 C   0  0  0  0  0  0  0  0  0  0  0  0
   63.7250   32.8650   46.8570 C   0  0  0  0  0  0  0  0  0  0  0  0
   63.3770   31.6970   47.5390 C   0  0  0  0  0  0  0  0  0  0  0  0
   62.8780   31.7680   48.8440 C   0  0  0  0  0  0  0  0  0  0  0  0
   60.0860   34.5790   48.5200 N   0  0  0  0  0  0  0  0  0  0  0  0
   59.6090   34.3720   47.2810 C   0  0  0  0  0  0  0  0  0  0  0  0
   59.6280   35.2630   46.2120 C   0  0  0  0  0  0  0  0  0  0  0  0
   59.1140   34.8200   44.9800 C   0  0  0  0  0  0  0  0  0  0  0  0
   58.6120   33.5080   44.8470 C   0  0  0  0  0  0  0  0  0  0  0  0
   58.6130   32.6280   45.9450 C   0  0  0  0  0  0  0  0  0  0  0  0
   59.1110   33.1070   47.1630 C   0  0  0  0  0  0  0  0  0  0  0  0
   59.2130   29.5560   46.6130 N   0  0  0  0  0  0  0  0  0  0  0  0
   57.7670   29.4900   46.3460 C   0  0  0  0  0  0  0  0  0  0  0  0
   57.4610   28.7200   45.0560 C   0  0  0  0  0  0  0  0  0  0  0  0
   58.2870   27.5070   44.9920 N   0  0  0  0  0  0  0  0  0  0  0  0
   57.6690   26.2210   44.8160 C   0  0  0  0  0  0  0  0  0  0  0  0
   57.7070   25.5900   43.5610 C   0  0  0  0  0  0  0  0  0  0  0  0
   57.1040   24.3430   43.3780 C   0  0  0  0  0  0  0  0  0  0  0  0
   56.4610   23.7140   44.4480 C   0  0  0  0  0  0  0  0  0  0  0  0
   56.4210   24.3310   45.7010 C   0  0  0  0  0  0  0  0  0  0  0  0
   57.0220   25.5800   45.8890 C   0  0  0  0  0  0  0  0  0  0  0  0
   57.0030   26.1460   47.1210 F   0  0  0  0  0  0  0  0  0  0  0  0
   59.7360   27.5910   45.2280 C   0  0  0  0  0  0  0  0  0  0  0  0
   60.1550   29.0120   45.6230 C   0  0  0  0  0  0  0  0  0  0  0  0
   57.8226   30.9181   48.4597 H   0  0  0  0  0  0  0  0  0  0  0  0
   59.1157   30.9118   49.7321 H   0  0  0  0  0  0  0  0  0  0  0  0
   62.5112   34.0212   51.3479 H   0  0  0  0  0  0  0  0  0  0  0  0
   62.4928   32.2218   51.4428 H   0  0  0  0  0  0  0  0  0  0  0  0
   62.9540   35.1657   49.2648 H   0  0  0  0  0  0  0  0  0  0  0  0
   63.8469   35.0275   46.9394 H   0  0  0  0  0  0  0  0  0  0  0  0
   64.1179   32.8067   45.8312 H   0  0  0  0  0  0  0  0  0  0  0  0
   63.4955   30.7193   47.0491 H   0  0  0  0  0  0  0  0  0  0  0  0
   62.5977   30.8464   49.3752 H   0  0  0  0  0  0  0  0  0  0  0  0
   60.0316   36.2798   46.3268 H   0  0  0  0  0  0  0  0  0  0  0  0
   59.1033   35.5000   44.1155 H   0  0  0  0  0  0  0  0  0  0  0  0
   58.2168   33.1705   43.8775 H   0  0  0  0  0  0  0  0  0  0  0  0
   58.2356   31.5992   45.8499 H   0  0  0  0  0  0  0  0  0  0  0  0
   57.2721   28.9845   47.1883 H   0  0  0  0  0  0  0  0  0  0  0  0
   57.3938   30.5180   46.2274 H   0  0  0  0  0  0  0  0  0  0  0  0
   56.3977   28.4387   45.0422 H   0  0  0  0  0  0  0  0  0  0  0  0
   57.6869   29.3590   44.1896 H   0  0  0  0  0  0  0  0  0  0  0  0
   58.2146   26.0808   42.7175 H   0  0  0  0  0  0  0  0  0  0  0  0
   57.1352   23.8563   42.3920 H   0  0  0  0  0  0  0  0  0  0  0  0
   55.9861   22.7324   44.3034 H   0  0  0  0  0  0  0  0  0  0  0  0
   55.9156   23.8333   46.5417 H   0  0  0  0  0  0  0  0  0  0  0  0
   60.0076   26.8990   46.0388 H   0  0  0  0  0  0  0  0  0  0  0  0
   60.2555   27.3223   44.2964 H   0  0  0  0  0  0  0  0  0  0  0  0
   61.1655   28.9867   46.0568 H   0  0  0  0  0  0  0  0  0  0  0  0
   60.1496   29.6524   44.7287 H   0  0  0  0  0  0  0  0  0  0  0  0
  1  2  2  0
  2  3  1  0
  3  4  1  0
  4  5  1  0
  5  6  1  0
  6  7  2  0
  6  8  2  0
  6  9  1  0
  9 10  1  0
 10 11  2  0
 11 12  1  0
 12 13  2  0
 13 14  1  0
 14 15  2  0
  5 16  2  0
 16 17  1  0
 17 18  2  0
 18 19  1  0
 19 20  2  0
 20 21  1  0
 21 22  2  0
  2 23  1  0
 23 24  1  0
 24 25  1  0
 25 26  1  0
 26 27  1  0
 27 28  2  0
 28 29  1  0
 29 30  2  0
 30 31  1  0
 31 32  2  0
 32 33  1  0
 26 34  1  0
 34 35  1  0
 22  4  1  0
 35 23  1  0
 15 10  1  0
 22 17  1  0
 32 27  1  0
  3 36  1  0
  3 37  1  0
  9 38  1  0
  9 39  1  0
 11 40  1  0
 12 41  1  0
 13 42  1  0
 14 43  1  0
 15 44  1  0
 18 45  1  0
 19 46  1  0
 20 47  1  0
 21 48  1  0
 24 49  1  0
 24 50  1  0
 25 51  1  0
 25 52  1  0
 28 53  1  0
 29 54  1  0
 30 55  1  0
 31 56  1  0
 34 57  1  0
 34 58  1  0
 35 59  1  0
 35 60  1  0
M  END
>  <UniqueID>  (39) 
37

>  <SMILES>  (39) 
O=C(Cn1c(S(=O)(=O)Cc2ccccc2)nc2ccccc21)N1CCN(c2ccccc2F)CC1

>  <Energy>  (39) 
105.26226880205992

>  <Genealogy>  (39) 
O=C(Cn1c(S(=O)(=O)Cc2ccccc2)nc2ccccc21)N1CCN(c2ccccc2F)CC1 (3D coordinates assigned)
O=C(Cn1c(S(=O)(=O)Cc2ccccc2)nc2ccccc21)N1CCN(c2ccccc2F)CC1 (nonaromatic ring conformer: 105.26226880205992 kcal/mol)

>  <smiles>  (39) 
O=C(Cn1c(S(=O)(=O)Cc2ccccc2)nc2ccccc21)N1CCN(c2ccccc2F)CC1

>  <score_type>  (39) 
oracle

>  <origin>  (39) 
adg

>  <m_score__min__energy>  (39) 
-9.6600000000000001

>  <m_primary>  (39) 
energy

$$$$
39:0
     RDKit          3D

 31 33  0  0  0  0  0  0  0  0999 V2000
   59.1010   33.7820   43.1823 H   0  0  0  0  0  0  0  0  0  0  0  0
   58.5200   33.4680   44.0620 C   0  0  0  0  0  0  0  0  0  0  0  0
   58.5330   34.2800   45.1310 C   0  0  0  0  0  0  0  0  0  0  0  0
   57.7780   35.0792   45.1672 H   0  0  0  0  0  0  0  0  0  0  0  0
   59.4800   34.1880   46.2650 C   0  0  0  0  0  0  0  0  0  0  0  0
   59.0370   34.3300   47.5910 C   0  0  0  0  0  0  0  0  0  0  0  0
   57.9764   34.5335   47.7999 H   0  0  0  0  0  0  0  0  0  0  0  0
   59.9470   34.2120   48.6410 C   0  0  0  0  0  0  0  0  0  0  0  0
   59.6087   34.3382   49.6800 H   0  0  0  0  0  0  0  0  0  0  0  0
   61.2900   33.9330   48.3710 C   0  0  0  0  0  0  0  0  0  0  0  0
   62.2270   33.8090   49.4080 C   0  0  0  0  0  0  0  0  0  0  0  0
   61.9099   33.9378   50.4534 H   0  0  0  0  0  0  0  0  0  0  0  0
   63.5630   33.5220   49.1140 C   0  0  0  0  0  0  0  0  0  0  0  0
   64.2958   33.4266   49.9288 H   0  0  0  0  0  0  0  0  0  0  0  0
   63.9700   33.3560   47.7880 C   0  0  0  0  0  0  0  0  0  0  0  0
   65.0226   33.1301   47.5622 H   0  0  0  0  0  0  0  0  0  0  0  0
   63.0440   33.4760   46.7460 C   0  0  0  0  0  0  0  0  0  0  0  0
   63.3700   33.3430   45.7039 H   0  0  0  0  0  0  0  0  0  0  0  0
   61.6990   33.7660   47.0280 C   0  0  0  0  0  0  0  0  0  0  0  0
   60.7880   33.8860   46.0190 N   0  0  0  0  0  0  0  0  0  0  0  0
   61.0990   33.7590   45.0270 H   0  0  0  0  0  0  0  0  0  0  0  0
   57.7880   32.1850   43.9700 C   0  0  0  0  0  0  0  0  0  0  0  0
   57.3970   31.4690   45.1160 C   0  0  0  0  0  0  0  0  0  0  0  0
   57.6589   31.8474   46.1151 H   0  0  0  0  0  0  0  0  0  0  0  0
   56.6960   30.3100   44.9920 N   0  0  0  0  0  0  0  0  0  0  0  0
   56.3400   29.8170   43.7760 C   0  0  0  0  0  0  0  0  0  0  0  0
   55.7823   28.8712   43.7087 H   0  0  0  0  0  0  0  0  0  0  0  0
   56.6810   30.5090   42.6130 C   0  0  0  0  0  0  0  0  0  0  0  0
   56.3881   30.1181   41.6274 H   0  0  0  0  0  0  0  0  0  0  0  0
   57.3980   31.7030   42.7140 C   0  0  0  0  0  0  0  0  0  0  0  0
   57.6571   32.2662   41.8053 H   0  0  0  0  0  0  0  0  0  0  0  0
  1  2  1  0
  2  3  2  0
  3  4  1  0
  3  5  1  0
  5  6  2  0
  6  7  1  0
  6  8  1  0
  8  9  1  0
  8 10  2  0
 10 11  1  0
 11 12  1  0
 11 13  2  0
 13 14  1  0
 13 15  1  0
 15 16  1  0
 15 17  2  0
 17 18  1  0
 17 19  1  0
 19 20  2  0
 20 21  1  0
  2 22  1  0
 22 23  2  0
 23 24  1  0
 23 25  1  0
 25 26  2  0
 26 27  1  0
 26 28  1  0
 28 29  1  0
 28 30  2  0
 30 31  1  0
 20  5  1  0
 30 22  1  0
 19 10  1  0
M  CHG  1  20   1
M  END
>  <UniqueID>  (40) 
38

>  <SMILES>  (40) 
C(=C\c1ccc2ccccc2[nH+]1)\c1cccnc1

>  <Energy>  (40) 
47.454062724880764

>  <Genealogy>  (40) 
C(=Cc1ccc2ccccc2[nH+]1)c1cccnc1 (protonated)
C(=C\c1ccc2ccccc2[nH+]1)\c1cccnc1 (cis-trans isomerization)
C(=C\c1ccc2ccccc2[nH+]1)\c1cccnc1 (3D coordinates assigned)
C(=C\c1ccc2ccccc2[nH+]1)\c1cccnc1 (optimized conformer: 47.454062724880764 kcal/mol)

>  <smiles>  (40) 
C(=Cc1ccc2ccccc2n1)c1cccnc1

>  <score_type>  (40) 
oracle

>  <origin>  (40) 
adg

>  <m_score__min__energy>  (40) 
-6.3700000000000001

>  <m_primary>  (40) 
energy

$$$$
40:0
     RDKit          3D

 52 54  0  0  0  0  0  0  0  0999 V2000
   56.6420   33.0260   45.0350 O   0  0  0  0  0  0  0  0  0  0  0  0
   57.1280   31.8630   45.0270 C   0  0  0  0  0  0  0  0  0  0  0  0
   58.6250   31.6900   45.0740 C   0  0  0  0  0  0  0  0  0  0  0  0
   59.2310   31.9770   46.3850 N   0  0  0  0  0  0  0  0  0  0  0  0
   60.2910   31.0220   46.7670 C   0  0  0  0  0  0  0  0  0  0  0  0
   60.1040   30.5720   48.1930 C   0  0  0  0  0  0  0  0  0  0  0  0
   58.8660   30.7500   48.8400 C   0  0  0  0  0  0  0  0  0  0  0  0
   58.6600   30.2310   50.1210 C   0  0  0  0  0  0  0  0  0  0  0  0
   59.6910   29.5390   50.7690 C   0  0  0  0  0  0  0  0  0  0  0  0
   60.9330   29.3810   50.1430 C   0  0  0  0  0  0  0  0  0  0  0  0
   61.1420   29.9100   48.8650 C   0  0  0  0  0  0  0  0  0  0  0  0
   59.7300   33.6500   46.5790 S   0  0  0  0  0  0  0  0  0  0  0  0
   58.7440   34.4210   47.4170 O   0  0  0  0  0  0  0  0  0  0  0  0
   59.8630   34.3250   45.2360 O   0  0  0  0  0  0  0  0  0  0  0  0
   61.2840   33.6460   47.4080 C   0  0  0  0  0  0  0  0  0  0  0  0
   61.3120   33.7490   48.8090 C   0  0  0  0  0  0  0  0  0  0  0  0
   62.5280   33.6770   49.4960 C   0  0  0  0  0  0  0  0  0  0  0  0
   63.7200   33.4880   48.7900 C   0  0  0  0  0  0  0  0  0  0  0  0
   64.9030   33.4080   49.4570 F   0  0  0  0  0  0  0  0  0  0  0  0
   63.6980   33.3870   47.3920 C   0  0  0  0  0  0  0  0  0  0  0  0
   62.4840   33.4680   46.7000 C   0  0  0  0  0  0  0  0  0  0  0  0
   56.2730   30.7250   44.8700 N   0  0  0  0  0  0  0  0  0  0  0  0
   55.9790   30.0800   43.5910 C   0  0  0  0  0  0  0  0  0  0  0  0
   57.0200   29.0110   43.2320 C   0  0  0  0  0  0  0  0  0  0  0  0
   57.7310   28.4700   44.4450 C   0  0  0  0  0  0  0  0  0  0  0  0
   59.1330   28.4840   44.5120 C   0  0  0  0  0  0  0  0  0  0  0  0
   59.7910   28.0150   45.6520 C   0  0  0  0  0  0  0  0  0  0  0  0
   59.0510   27.5050   46.7210 C   0  0  0  0  0  0  0  0  0  0  0  0
   57.6530   27.4600   46.6490 C   0  0  0  0  0  0  0  0  0  0  0  0
   56.9950   27.9420   45.5190 C   0  0  0  0  0  0  0  0  0  0  0  0
   58.8593   30.6488   44.8075 H   0  0  0  0  0  0  0  0  0  0  0  0
   59.0471   32.4197   44.3673 H   0  0  0  0  0  0  0  0  0  0  0  0
   60.2471   30.1468   46.1021 H   0  0  0  0  0  0  0  0  0  0  0  0
   61.2684   31.5182   46.6748 H   0  0  0  0  0  0  0  0  0  0  0  0
   58.0580   31.2997   48.3351 H   0  0  0  0  0  0  0  0  0  0  0  0
   57.6890   30.3658   50.6200 H   0  0  0  0  0  0  0  0  0  0  0  0
   59.5244   29.1188   51.7719 H   0  0  0  0  0  0  0  0  0  0  0  0
   61.7434   28.8417   50.6552 H   0  0  0  0  0  0  0  0  0  0  0  0
   62.1260   29.8062   48.3843 H   0  0  0  0  0  0  0  0  0  0  0  0
   60.3743   33.8867   49.3673 H   0  0  0  0  0  0  0  0  0  0  0  0
   62.5467   33.7691   50.5920 H   0  0  0  0  0  0  0  0  0  0  0  0
   64.6371   33.2437   46.8374 H   0  0  0  0  0  0  0  0  0  0  0  0
   62.4697   33.3923   45.6027 H   0  0  0  0  0  0  0  0  0  0  0  0
   54.9889   29.6047   43.6525 H   0  0  0  0  0  0  0  0  0  0  0  0
   56.0023   30.8525   42.8083 H   0  0  0  0  0  0  0  0  0  0  0  0
   56.5112   28.1802   42.7212 H   0  0  0  0  0  0  0  0  0  0  0  0
   57.7740   29.4820   42.5842 H   0  0  0  0  0  0  0  0  0  0  0  0
   59.7172   28.8665   43.6620 H   0  0  0  0  0  0  0  0  0  0  0  0
   60.8891   28.0474   45.7073 H   0  0  0  0  0  0  0  0  0  0  0  0
   59.5668   27.1382   47.6207 H   0  0  0  0  0  0  0  0  0  0  0  0
   57.0733   27.0434   47.4859 H   0  0  0  0  0  0  0  0  0  0  0  0
   55.8967   27.9090   45.4678 H   0  0  0  0  0  0  0  0  0  0  0  0
  1  2  2  0
  2  3  1  0
  3  4  1  0
  4  5  1  0
  5  6  1  0
  6  7  2  0
  7  8  1  0
  8  9  2  0
  9 10  1  0
 10 11  2  0
  4 12  1  0
 12 13  2  0
 12 14  2  0
 12 15  1  0
 15 16  2  0
 16 17  1  0
 17 18  2  0
 18 19  1  0
 18 20  1  0
 20 21  2  0
  2 22  1  0
 22 23  1  0
 23 24  1  0
 24 25  1  0
 25 26  2  0
 26 27  1  0
 27 28  2  0
 28 29  1  0
 29 30  2  0
 11  6  1  0
 21 15  1  0
 30 25  1  0
  3 31  1  0
  3 32  1  0
  5 33  1  0
  5 34  1  0
  7 35  1  0
  8 36  1  0
  9 37  1  0
 10 38  1  0
 11 39  1  0
 16 40  1  0
 17 41  1  0
 20 42  1  0
 21 43  1  0
 23 44  1  0
 23 45  1  0
 24 46  1  0
 24 47  1  0
 26 48  1  0
 27 49  1  0
 28 50  1  0
 29 51  1  0
 30 52  1  0
M  CHG  1  22  -1
M  END
>  <UniqueID>  (41) 
39

>  <SMILES>  (41) 
O=C(CN(Cc1ccccc1)S(=O)(=O)c1ccc(F)cc1)[N-]CCc1ccccc1

>  <Energy>  (41) 
48.856782045553764

>  <Genealogy>  (41) 
O=C(CN(Cc1ccccc1)S(=O)(=O)c1ccc(F)cc1)[N-]CCc1ccccc1 (protonated)
O=C(CN(Cc1ccccc1)S(=O)(=O)c1ccc(F)cc1)[N-]CCc1ccccc1 (3D coordinates assigned)
O=C(CN(Cc1ccccc1)S(=O)(=O)c1ccc(F)cc1)[N-]CCc1ccccc1 (optimized conformer: 48.856782045553764 kcal/mol)

>  <smiles>  (41) 
O=C(CN(Cc1ccccc1)S(=O)(=O)c1ccc(F)cc1)NCCc1ccccc1

>  <score_type>  (41) 
oracle

>  <origin>  (41) 
adg

>  <m_score__min__energy>  (41) 
-10.609999999999999

>  <m_primary>  (41) 
energy

$$$$
41:0
     RDKit          3D

 24 24  0  0  0  0  0  0  0  0999 V2000
   57.2590   33.0930   42.9550 H   0  0  0  0  0  0  0  0  0  0  0  0
   57.8460   32.8530   43.7830 N   0  0  0  0  0  0  0  0  0  0  0  0
   58.0790   31.4770   44.1560 C   0  0  0  0  0  0  0  0  0  0  0  0
   57.5740   30.4870   43.4650 N   0  0  0  0  0  0  0  0  0  0  0  0
   58.1890   29.9520   42.8100 H   0  0  0  0  0  0  0  0  0  0  0  0
   56.1780   30.0660   43.5430 C   0  0  0  0  0  0  0  0  0  0  0  0
   55.8805   29.9763   44.5982 H   0  0  0  0  0  0  0  0  0  0  0  0
   55.5416   30.8122   43.0448 H   0  0  0  0  0  0  0  0  0  0  0  0
   56.0603   29.0924   43.0448 H   0  0  0  0  0  0  0  0  0  0  0  0
   58.8610   31.1890   45.4170 C   0  0  0  0  0  0  0  0  0  0  0  0
   58.9977   30.1013   45.5082 H   0  0  0  0  0  0  0  0  0  0  0  0
   59.8271   31.7094   45.3410 H   0  0  0  0  0  0  0  0  0  0  0  0
   58.1440   31.7060   46.6780 C   0  0  0  0  0  0  0  0  0  0  0  0
   57.0629   31.5572   46.5396 H   0  0  0  0  0  0  0  0  0  0  0  0
   58.5623   31.1368   47.5212 H   0  0  0  0  0  0  0  0  0  0  0  0
   58.3820   33.1930   47.0070 C   0  0  0  0  0  0  0  0  0  0  0  0
   57.8634   33.4248   47.9490 H   0  0  0  0  0  0  0  0  0  0  0  0
   59.4713   33.3306   47.0738 H   0  0  0  0  0  0  0  0  0  0  0  0
   57.8800   34.1680   45.9280 C   0  0  0  0  0  0  0  0  0  0  0  0
   56.7871   34.0629   45.8614 H   0  0  0  0  0  0  0  0  0  0  0  0
   58.2171   35.1648   46.2484 H   0  0  0  0  0  0  0  0  0  0  0  0
   58.4630   33.9660   44.5080 C   0  0  0  0  0  0  0  0  0  0  0  0
   58.3053   34.8891   43.9309 H   0  0  0  0  0  0  0  0  0  0  0  0
   59.5307   33.7281   44.6242 H   0  0  0  0  0  0  0  0  0  0  0  0
  1  2  1  0
  2  3  1  0
  3  4  2  0
  4  5  1  0
  4  6  1  0
  6  7  1  0
  6  8  1  0
  6  9  1  0
  3 10  1  0
 10 11  1  0
 10 12  1  0
 10 13  1  0
 13 14  1  0
 13 15  1  0
 13 16  1  0
 16 17  1  0
 16 18  1  0
 16 19  1  0
 19 20  1  0
 19 21  1  0
 19 22  1  0
 22 23  1  0
 22 24  1  0
 22  2  1  0
M  CHG  1   4   1
M  END
>  <UniqueID>  (42) 
40

>  <SMILES>  (42) 
C/[NH+]=C1/CCCCCN1

>  <Energy>  (42) 
23.126575482852353

>  <Genealogy>  (42) 
C[NH+]=C1CCCCCN1 (protonated)
C/[NH+]=C1/CCCCCN1 (cis-trans isomerization)
C/[NH+]=C1/CCCCCN1 (3D coordinates assigned)
C/[NH+]=C1/CCCCCN1 (nonaromatic ring conformer: 23.126575482852353 kcal/mol)

>  <smiles>  (42) 
CN=C1CCCCCN1

>  <score_type>  (42) 
oracle

>  <origin>  (42) 
adg

>  <m_score__min__energy>  (42) 
-1.04

>  <m_primary>  (42) 
energy

$$$$
42:0
     RDKit          3D

 49 51  0  0  0  0  0  0  0  0999 V2000
   68.4750   34.1720   51.2510 C   0  0  0  0  0  0  0  0  0  0  0  0
   67.1570   34.2270   51.7830 O   0  0  0  0  0  0  0  0  0  0  0  0
   66.0360   33.7940   51.0700 C   0  0  0  0  0  0  0  0  0  0  0  0
   66.1840   32.8470   50.0530 C   0  0  0  0  0  0  0  0  0  0  0  0
   65.0930   32.4260   49.3610 N   0  0  0  0  0  0  0  0  0  0  0  0
   63.8520   32.9140   49.6410 C   0  0  0  0  0  0  0  0  0  0  0  0
   62.7140   32.4580   48.8930 N   0  0  0  0  0  0  0  0  0  0  0  0
   62.4810   33.0680   47.5820 C   0  0  0  0  0  0  0  0  0  0  0  0
   60.9810   33.1120   47.2660 C   0  0  2  0  0  0  0  0  0  0  0  0
   60.2700   34.2020   48.0780 C   0  0  0  0  0  0  0  0  0  0  0  0
   60.3680   31.7980   47.5280 N   0  0  0  0  0  0  0  0  0  0  0  0
   59.3160   31.3280   46.6610 C   0  0  0  0  0  0  0  0  0  0  0  0
   58.6280   32.2040   45.8070 C   0  0  0  0  0  0  0  0  0  0  0  0
   57.6190   31.7120   44.9790 C   0  0  0  0  0  0  0  0  0  0  0  0
   57.2920   30.3440   44.9910 C   0  0  0  0  0  0  0  0  0  0  0  0
   56.2230   29.7880   44.1190 C   0  0  0  0  0  0  0  0  0  0  0  0
   56.3630   29.7420   42.6270 C   0  0  0  0  0  0  0  0  0  0  0  0
   55.1630   29.3420   44.6360 O   0  0  0  0  0  0  0  0  0  0  0  0
   58.0130   29.5010   45.8560 C   0  0  0  0  0  0  0  0  0  0  0  0
   58.9910   30.0060   46.6530 N   0  0  0  0  0  0  0  0  0  0  0  0
   60.6300   31.1340   48.8140 C   0  0  0  0  0  0  0  0  0  0  0  0
   62.1360   31.1220   49.1330 C   0  0  2  0  0  0  0  0  0  0  0  0
   62.3530   30.6320   50.5760 C   0  0  0  0  0  0  0  0  0  0  0  0
   63.7020   33.8600   50.6610 C   0  0  0  0  0  0  0  0  0  0  0  0
   64.7940   34.2780   51.3510 N   0  0  0  0  0  0  0  0  0  0  0  0
   69.2023   34.1417   52.0757 H   0  0  0  0  0  0  0  0  0  0  0  0
   68.5835   33.2685   50.6329 H   0  0  0  0  0  0  0  0  0  0  0  0
   68.6584   35.0633   50.6329 H   0  0  0  0  0  0  0  0  0  0  0  0
   67.1792   32.4442   49.8138 H   0  0  0  0  0  0  0  0  0  0  0  0
   65.2110   31.7170   48.6020 H   0  0  0  0  0  0  0  0  0  0  0  0
   62.8802   34.0930   47.5841 H   0  0  0  0  0  0  0  0  0  0  0  0
   62.9874   32.4640   46.8148 H   0  0  0  0  0  0  0  0  0  0  0  0
   60.8659   33.3570   46.1998 H   0  0  0  0  0  0  0  0  0  0  0  0
   60.4000   34.0027   49.1520 H   0  0  0  0  0  0  0  0  0  0  0  0
   60.7023   35.1831   47.8322 H   0  0  0  0  0  0  0  0  0  0  0  0
   59.1978   34.2018   47.8322 H   0  0  0  0  0  0  0  0  0  0  0  0
   58.8834   33.2738   45.7907 H   0  0  0  0  0  0  0  0  0  0  0  0
   57.0757   32.3981   44.3126 H   0  0  0  0  0  0  0  0  0  0  0  0
   57.3777   29.4086   42.3640 H   0  0  0  0  0  0  0  0  0  0  0  0
   55.6266   29.0386   42.2111 H   0  0  0  0  0  0  0  0  0  0  0  0
   56.1873   30.7451   42.2111 H   0  0  0  0  0  0  0  0  0  0  0  0
   57.7836   28.4256   45.8875 H   0  0  0  0  0  0  0  0  0  0  0  0
   60.0978   31.6727   49.6118 H   0  0  0  0  0  0  0  0  0  0  0  0
   60.2776   30.0940   48.7492 H   0  0  0  0  0  0  0  0  0  0  0  0
   62.6600   30.4221   48.4655 H   0  0  0  0  0  0  0  0  0  0  0  0
   62.0110   31.4042   51.2808 H   0  0  0  0  0  0  0  0  0  0  0  0
   61.7803   29.7071   50.7392 H   0  0  0  0  0  0  0  0  0  0  0  0
   63.4227   30.4345   50.7392 H   0  0  0  0  0  0  0  0  0  0  0  0
   62.7069   34.2620   50.9020 H   0  0  0  0  0  0  0  0  0  0  0  0
  1  2  1  0
  2  3  1  0
  3  4  2  0
  4  5  1  0
  5  6  2  0
  6  7  1  0
  7  8  1  0
  8  9  1  0
  9 10  1  0
  9 11  1  0
 11 12  1  0
 12 13  2  0
 13 14  1  0
 14 15  2  0
 15 16  1  0
 16 17  1  0
 16 18  2  0
 15 19  1  0
 19 20  2  0
 11 21  1  0
 21 22  1  0
 22 23  1  0
  6 24  1  0
 24 25  2  0
 25  3  1  0
 22  7  1  0
 20 12  1  0
  1 26  1  0
  1 27  1  0
  1 28  1  0
  4 29  1  0
  5 30  1  0
  8 31  1  0
  8 32  1  0
  9 33  1  6
 10 34  1  0
 10 35  1  0
 10 36  1  0
 13 37  1  0
 14 38  1  0
 17 39  1  0
 17 40  1  0
 17 41  1  0
 19 42  1  0
 21 43  1  0
 21 44  1  0
 22 45  1  6
 23 46  1  0
 23 47  1  0
 23 48  1  0
 24 49  1  0
M  CHG  1   5   1
M  END
>  <UniqueID>  (43) 
41

>  <SMILES>  (43) 
COc1c[nH+]c(N2C[C@H](C)N(c3ccc(C(C)=O)cn3)C[C@@H]2C)cn1

>  <Energy>  (43) 
56.42176329011661

>  <Genealogy>  (43) 
COc1c[nH+]c(N2CC(C)N(c3ccc(C(C)=O)cn3)CC2C)cn1 (protonated)
COc1c[nH+]c(N2C[C@H](C)N(c3ccc(C(C)=O)cn3)C[C@@H]2C)cn1 (chirality)
COc1c[nH+]c(N2C[C@H](C)N(c3ccc(C(C)=O)cn3)C[C@@H]2C)cn1 (3D coordinates assigned)
COc1c[nH+]c(N2C[C@H](C)N(c3ccc(C(C)=O)cn3)C[C@@H]2C)cn1 (nonaromatic ring conformer: 56.42176329011661 kcal/mol)

>  <smiles>  (43) 
COc1cnc(N2CC(C)N(c3ccc(C(C)=O)cn3)CC2C)cn1

>  <score_type>  (43) 
oracle

>  <origin>  (43) 
adg

>  <m_score__min__energy>  (43) 
-5.9400000000000004

>  <m_primary>  (43) 
energy

$$$$
43:0
     RDKit          3D

 40 41  0  0  0  0  0  0  0  0999 V2000
   59.7130   34.2060   49.0490 C   0  0  0  0  0  0  0  0  0  0  0  0
   61.1530   34.1880   48.5460 C   0  0  0  0  0  0  0  0  0  0  0  0
   61.2110   33.6100   47.1820 N   0  0  0  0  0  0  0  0  0  0  0  0
   62.5170   33.8250   46.5120 C   0  0  0  0  0  0  0  0  0  0  0  0
   63.6920   33.0710   47.1560 C   0  0  0  0  0  0  0  0  0  0  0  0
   60.7680   32.1980   47.1420 C   0  0  0  0  0  0  0  0  0  0  0  0
   59.4510   32.0380   46.3960 C   0  0  0  0  0  0  0  0  0  0  0  0
   58.7830   33.1800   45.9210 C   0  0  0  0  0  0  0  0  0  0  0  0
   57.5680   33.0440   45.2490 C   0  0  0  0  0  0  0  0  0  0  0  0
   56.9530   34.0680   44.8500 O   0  0  0  0  0  0  0  0  0  0  0  0
   57.0550   31.8430   45.0250 O   0  0  0  0  0  0  0  0  0  0  0  0
   57.6610   30.7220   45.3990 C   0  0  0  0  0  0  0  0  0  0  0  0
   57.0650   29.4940   45.0980 C   0  0  0  0  0  0  0  0  0  0  0  0
   57.6950   28.2920   45.4290 C   0  0  0  0  0  0  0  0  0  0  0  0
   57.0330   27.0580   45.1110 N   0  0  0  0  0  0  0  0  0  0  0  0
   56.2410   26.2590   45.9990 C   0  0  0  0  0  0  0  0  0  0  0  0
   56.9140   25.3310   46.9550 C   0  0  0  0  0  0  0  0  0  0  0  0
   54.9840   26.3460   46.0030 O   0  0  0  0  0  0  0  0  0  0  0  0
   58.9280   28.3270   46.1010 C   0  0  0  0  0  0  0  0  0  0  0  0
   59.5320   29.5470   46.4150 C   0  0  0  0  0  0  0  0  0  0  0  0
   58.9020   30.7660   46.0840 C   0  0  0  0  0  0  0  0  0  0  0  0
   59.7088   34.2061   50.1490 H   0  0  0  0  0  0  0  0  0  0  0  0
   59.2071   35.1105   48.6804 H   0  0  0  0  0  0  0  0  0  0  0  0
   59.1847   33.3144   48.6804 H   0  0  0  0  0  0  0  0  0  0  0  0
   61.5424   35.2165   48.5218 H   0  0  0  0  0  0  0  0  0  0  0  0
   61.7624   33.5718   49.2234 H   0  0  0  0  0  0  0  0  0  0  0  0
   62.4265   33.4934   45.4671 H   0  0  0  0  0  0  0  0  0  0  0  0
   62.7441   34.8975   46.6029 H   0  0  0  0  0  0  0  0  0  0  0  0
   63.6066   33.1258   48.2513 H   0  0  0  0  0  0  0  0  0  0  0  0
   63.6700   32.0180   46.8387 H   0  0  0  0  0  0  0  0  0  0  0  0
   64.6401   33.5298   46.8387 H   0  0  0  0  0  0  0  0  0  0  0  0
   61.5385   31.5976   46.6363 H   0  0  0  0  0  0  0  0  0  0  0  0
   60.6172   31.8583   48.1773 H   0  0  0  0  0  0  0  0  0  0  0  0
   59.2172   34.1783   46.0788 H   0  0  0  0  0  0  0  0  0  0  0  0
   56.0874   29.4739   44.5941 H   0  0  0  0  0  0  0  0  0  0  0  0
   56.6894   25.6407   47.9863 H   0  0  0  0  0  0  0  0  0  0  0  0
   56.5472   24.3069   46.7916 H   0  0  0  0  0  0  0  0  0  0  0  0
   58.0014   25.3615   46.7916 H   0  0  0  0  0  0  0  0  0  0  0  0
   59.4224   27.3855   46.3825 H   0  0  0  0  0  0  0  0  0  0  0  0
   60.5068   29.5577   46.9245 H   0  0  0  0  0  0  0  0  0  0  0  0
  1  2  1  0
  2  3  1  0
  3  4  1  0
  4  5  1  0
  3  6  1  0
  6  7  1  0
  7  8  2  0
  8  9  1  0
  9 10  2  0
  9 11  1  0
 11 12  1  0
 12 13  2  0
 13 14  1  0
 14 15  1  0
 15 16  1  0
 16 17  1  0
 16 18  2  0
 14 19  2  0
 19 20  1  0
 20 21  2  0
 21  7  1  0
 21 12  1  0
  1 22  1  0
  1 23  1  0
  1 24  1  0
  2 25  1  0
  2 26  1  0
  4 27  1  0
  4 28  1  0
  5 29  1  0
  5 30  1  0
  5 31  1  0
  6 32  1  0
  6 33  1  0
  8 34  1  0
 13 35  1  0
 17 36  1  0
 17 37  1  0
 17 38  1  0
 19 39  1  0
 20 40  1  0
M  CHG  1  15  -1
M  END
>  <UniqueID>  (44) 
42

>  <SMILES>  (44) 
CCN(CC)Cc1cc(=O)oc2cc([N-]C(C)=O)ccc12

>  <Energy>  (44) 
51.1709273589168

>  <Genealogy>  (44) 
CCN(CC)Cc1cc(=O)oc2cc([N-]C(C)=O)ccc12 (protonated)
CCN(CC)Cc1cc(=O)oc2cc([N-]C(C)=O)ccc12 (3D coordinates assigned)
CCN(CC)Cc1cc(=O)oc2cc([N-]C(C)=O)ccc12 (optimized conformer: 51.1709273589168 kcal/mol)

>  <smiles>  (44) 
CCN(CC)Cc1cc(=O)oc2cc(NC(C)=O)ccc12

>  <score_type>  (44) 
oracle

>  <origin>  (44) 
adg

>  <m_score__min__energy>  (44) 
-8.8599999999999994

>  <m_primary>  (44) 
energy

$$$$
44:0
     RDKit          3D

 55 59  0  0  0  0  0  0  0  0999 V2000
   66.6320   34.4510   52.2200 C   0  0  0  0  0  0  0  0  0  0  0  0
   65.5580   33.9440   51.3040 C   0  0  0  0  0  0  0  0  0  0  0  0
   64.2360   34.3840   51.4530 C   0  0  0  0  0  0  0  0  0  0  0  0
   63.2420   33.9420   50.5750 C   0  0  0  0  0  0  0  0  0  0  0  0
   63.5540   33.0620   49.5230 C   0  0  0  0  0  0  0  0  0  0  0  0
   62.4870   32.6080   48.5990 C   0  0  0  0  0  0  0  0  0  0  0  0
   61.8000   33.3720   47.6740 C   0  0  0  0  0  0  0  0  0  0  0  0
   60.9240   32.5740   47.0380 N   0  0  0  0  0  0  0  0  0  0  0  0
   60.0240   32.9950   45.9620 C   0  0  0  0  0  0  0  0  0  0  0  0
   59.0970   34.1090   46.4630 C   0  0  0  0  0  0  0  0  0  0  0  0
   57.7850   34.2530   45.7050 C   0  0  0  0  0  0  0  0  0  0  0  0
   57.7970   33.6440   47.1030 C   0  0  0  0  0  0  0  0  0  0  0  0
   61.0760   31.3480   47.5970 C   0  0  0  0  0  0  0  0  0  0  0  0
   60.3650   30.0930   47.1260 C   0  0  0  0  0  0  0  0  0  0  0  0
   60.7470   29.7110   45.6740 C   0  0  0  0  0  0  0  0  0  0  0  0
   59.5870   29.0020   44.9690 C   0  0  0  0  0  0  0  0  0  0  0  0
   58.4230   29.9030   44.8360 N   0  0  0  0  0  0  0  0  0  0  0  0
   57.2770   29.1810   44.2200 C   0  0  0  0  0  0  0  0  0  0  0  0
   56.0670   30.0400   43.9300 C   0  0  0  0  0  0  0  0  0  0  0  0
   55.2680   29.3370   44.8570 O   0  0  0  0  0  0  0  0  0  0  0  0
   56.3360   28.4720   45.1720 C   0  0  0  0  0  0  0  0  0  0  0  0
   58.1490   30.7480   46.0370 C   0  0  0  0  0  0  0  0  0  0  0  0
   58.8380   30.2360   47.3130 C   0  0  0  0  0  0  0  0  0  0  0  0
   62.0410   31.3360   48.5410 N   0  0  0  0  0  0  0  0  0  0  0  0
   64.8880   32.6370   49.3690 C   0  0  0  0  0  0  0  0  0  0  0  0
   65.8800   33.0800   50.2480 C   0  0  0  0  0  0  0  0  0  0  0  0
   66.3218   34.3046   53.2651 H   0  0  0  0  0  0  0  0  0  0  0  0
   67.5644   33.8979   52.0333 H   0  0  0  0  0  0  0  0  0  0  0  0
   66.7975   35.5223   52.0333 H   0  0  0  0  0  0  0  0  0  0  0  0
   63.9791   35.0805   52.2647 H   0  0  0  0  0  0  0  0  0  0  0  0
   62.2056   34.2858   50.7082 H   0  0  0  0  0  0  0  0  0  0  0  0
   61.9448   34.4468   47.4900 H   0  0  0  0  0  0  0  0  0  0  0  0
   60.6180   33.3682   45.1147 H   0  0  0  0  0  0  0  0  0  0  0  0
   59.4169   32.1358   45.6406 H   0  0  0  0  0  0  0  0  0  0  0  0
   59.9072   34.7922   46.7576 H   0  0  0  0  0  0  0  0  0  0  0  0
   57.3498   35.2502   45.5430 H   0  0  0  0  0  0  0  0  0  0  0  0
   57.4163   33.9322   44.7195 H   0  0  0  0  0  0  0  0  0  0  0  0
   57.3703   34.2017   47.9497 H   0  0  0  0  0  0  0  0  0  0  0  0
   57.4405   32.7016   47.5443 H   0  0  0  0  0  0  0  0  0  0  0  0
   60.7045   29.2565   47.7546 H   0  0  0  0  0  0  0  0  0  0  0  0
   61.0018   30.6247   45.1170 H   0  0  0  0  0  0  0  0  0  0  0  0
   61.6076   29.0266   45.7069 H   0  0  0  0  0  0  0  0  0  0  0  0
   59.9136   28.6848   43.9676 H   0  0  0  0  0  0  0  0  0  0  0  0
   59.2902   28.1296   45.5697 H   0  0  0  0  0  0  0  0  0  0  0  0
   57.8639   28.6536   43.4535 H   0  0  0  0  0  0  0  0  0  0  0  0
   56.2090   31.0999   44.1877 H   0  0  0  0  0  0  0  0  0  0  0  0
   55.7186   30.1385   42.8913 H   0  0  0  0  0  0  0  0  0  0  0  0
   56.6511   28.5282   46.2244 H   0  0  0  0  0  0  0  0  0  0  0  0
   56.1919   27.3861   45.0715 H   0  0  0  0  0  0  0  0  0  0  0  0
   58.5050   31.7688   45.8339 H   0  0  0  0  0  0  0  0  0  0  0  0
   57.0644   30.7146   46.2174 H   0  0  0  0  0  0  0  0  0  0  0  0
   58.6449   30.9460   48.1307 H   0  0  0  0  0  0  0  0  0  0  0  0
   58.4287   29.2419   47.5458 H   0  0  0  0  0  0  0  0  0  0  0  0
   65.1511   31.9510   48.5504 H   0  0  0  0  0  0  0  0  0  0  0  0
   66.9199   32.7487   50.1105 H   0  0  0  0  0  0  0  0  0  0  0  0
  1  2  1  0
  2  3  2  0
  3  4  1  0
  4  5  2  0
  5  6  1  0
  6  7  2  0
  7  8  1  0
  8  9  1  0
  9 10  1  0
 10 11  1  0
 11 12  1  0
  8 13  1  0
 13 14  1  0
 14 15  1  0
 15 16  1  0
 16 17  1  0
 17 18  1  0
 18 19  1  0
 19 20  1  0
 20 21  1  0
 17 22  1  0
 22 23  1  0
 13 24  2  0
  5 25  1  0
 25 26  2  0
 26  2  1  0
 24  6  1  0
 12 10  1  0
 23 14  1  0
 21 18  1  0
  1 27  1  0
  1 28  1  0
  1 29  1  0
  3 30  1  0
  4 31  1  0
  7 32  1  0
  9 33  1  0
  9 34  1  0
 10 35  1  0
 11 36  1  0
 11 37  1  0
 12 38  1  0
 12 39  1  0
 14 40  1  0
 15 41  1  0
 15 42  1  0
 16 43  1  0
 16 44  1  0
 18 45  1  0
 19 46  1  0
 19 47  1  0
 21 48  1  0
 21 49  1  0
 22 50  1  0
 22 51  1  0
 23 52  1  0
 23 53  1  0
 25 54  1  0
 26 55  1  0
M  END
>  <UniqueID>  (45) 
43

>  <SMILES>  (45) 
Cc1ccc(-c2cn(CC3CC3)c(C3CCN(C4COC4)CC3)n2)cc1

>  <Energy>  (45) 
429.06665277516794

>  <Genealogy>  (45) 
Cc1ccc(-c2cn(CC3CC3)c(C3CCN(C4COC4)CC3)n2)cc1 (3D coordinates assigned)
Cc1ccc(-c2cn(CC3CC3)c(C3CCN(C4COC4)CC3)n2)cc1 (nonaromatic ring conformer: 429.06665277516794 kcal/mol)

>  <smiles>  (45) 
Cc1ccc(-c2cn(CC3CC3)c(C3CCN(C4COC4)CC3)n2)cc1

>  <score_type>  (45) 
oracle

>  <origin>  (45) 
adg

>  <m_score__min__energy>  (45) 
-8.1600000000000001

>  <m_primary>  (45) 
energy

$$$$
45:0
     RDKit          3D

 60 63  0  0  0  0  0  0  0  0999 V2000
   67.5570   28.3930   50.7490 C   0  0  0  0  0  0  0  0  0  0  0  0
   67.4200   29.3210   51.9570 C   0  0  0  0  0  0  0  0  0  0  0  0
   67.4200   30.6930   51.5450 O   0  0  0  0  0  0  0  0  0  0  0  0
   66.3360   31.3610   50.9550 C   0  0  0  0  0  0  0  0  0  0  0  0
   66.4970   32.5000   50.1420 C   0  0  0  0  0  0  0  0  0  0  0  0
   65.3890   33.0870   49.5280 C   0  0  0  0  0  0  0  0  0  0  0  0
   64.1030   32.5550   49.7170 C   0  0  0  0  0  0  0  0  0  0  0  0
   62.9440   33.1310   48.9940 C   0  0  0  0  0  0  0  0  0  0  0  0
   61.9460   33.8280   49.6950 C   0  0  0  0  0  0  0  0  0  0  0  0
   60.8090   34.2910   49.0300 C   0  0  0  0  0  0  0  0  0  0  0  0
   60.6860   34.1340   47.6450 C   0  0  0  0  0  0  0  0  0  0  0  0
   59.4330   34.5090   46.9640 C   0  0  0  0  0  0  0  0  0  0  0  0
   59.4050   35.6310   46.3840 O   0  0  0  0  0  0  0  0  0  0  0  0
   58.2570   33.6550   46.9030 N   0  0  0  0  0  0  0  0  0  0  0  0
   58.1210   32.6970   48.0330 C   0  0  0  0  0  0  0  0  0  0  0  0
   58.9170   31.3960   47.8430 C   0  0  0  0  0  0  0  0  0  0  0  0
   58.6640   30.8640   46.5070 N   0  0  0  0  0  0  0  0  0  0  0  0
   58.2020   29.5160   46.3130 C   0  0  0  0  0  0  0  0  0  0  0  0
   58.8850   28.4530   46.9240 C   0  0  0  0  0  0  0  0  0  0  0  0
   58.4440   27.1390   46.7540 C   0  0  0  0  0  0  0  0  0  0  0  0
   57.3280   26.8750   45.9600 C   0  0  0  0  0  0  0  0  0  0  0  0
   56.6490   27.9220   45.3310 C   0  0  0  0  0  0  0  0  0  0  0  0
   57.0810   29.2510   45.4990 C   0  0  0  0  0  0  0  0  0  0  0  0
   56.4390   30.3240   44.8660 O   0  0  0  0  0  0  0  0  0  0  0  0
   56.2820   30.4620   43.4600 C   0  0  0  0  0  0  0  0  0  0  0  0
   58.9030   31.7540   45.3760 C   0  0  0  0  0  0  0  0  0  0  0  0
   58.0820   33.0360   45.5660 C   0  0  0  0  0  0  0  0  0  0  0  0
   61.6870   33.4490   46.9410 C   0  0  0  0  0  0  0  0  0  0  0  0
   62.8100   32.9570   47.6080 C   0  0  0  0  0  0  0  0  0  0  0  0
   63.9420   31.4430   50.5580 C   0  0  0  0  0  0  0  0  0  0  0  0
   65.0500   30.8610   51.1800 C   0  0  0  0  0  0  0  0  0  0  0  0
   67.7095   27.3602   51.0955 H   0  0  0  0  0  0  0  0  0  0  0  0
   66.6415   28.4445   50.1414 H   0  0  0  0  0  0  0  0  0  0  0  0
   68.4185   28.7069   50.1414 H   0  0  0  0  0  0  0  0  0  0  0  0
   66.4759   29.1002   52.4766 H   0  0  0  0  0  0  0  0  0  0  0  0
   68.2743   29.1540   52.6295 H   0  0  0  0  0  0  0  0  0  0  0  0
   67.4988   32.9283   49.9904 H   0  0  0  0  0  0  0  0  0  0  0  0
   65.5244   33.9735   48.8910 H   0  0  0  0  0  0  0  0  0  0  0  0
   62.0609   34.0100   50.7737 H   0  0  0  0  0  0  0  0  0  0  0  0
   60.0052   34.7821   49.5982 H   0  0  0  0  0  0  0  0  0  0  0  0
   57.4440   34.3100   47.0110 H   0  0  0  0  0  0  0  0  0  0  0  0
   58.4760   33.1899   48.9501 H   0  0  0  0  0  0  0  0  0  0  0  0
   57.0587   32.4171   48.0894 H   0  0  0  0  0  0  0  0  0  0  0  0
   59.9912   31.6027   47.9585 H   0  0  0  0  0  0  0  0  0  0  0  0
   58.6033   30.6595   48.5975 H   0  0  0  0  0  0  0  0  0  0  0  0
   59.7731   28.6562   47.5405 H   0  0  0  0  0  0  0  0  0  0  0  0
   58.9767   26.3121   47.2463 H   0  0  0  0  0  0  0  0  0  0  0  0
   56.9813   25.8394   45.8285 H   0  0  0  0  0  0  0  0  0  0  0  0
   55.7729   27.7065   44.7017 H   0  0  0  0  0  0  0  0  0  0  0  0
   55.4710   31.1748   43.2498 H   0  0  0  0  0  0  0  0  0  0  0  0
   57.2197   30.8336   43.0211 H   0  0  0  0  0  0  0  0  0  0  0  0
   56.0338   29.4844   43.0211 H   0  0  0  0  0  0  0  0  0  0  0  0
   59.9726   32.0055   45.3244 H   0  0  0  0  0  0  0  0  0  0  0  0
   58.6033   31.2562   44.4420 H   0  0  0  0  0  0  0  0  0  0  0  0
   58.3906   33.7642   44.8015 H   0  0  0  0  0  0  0  0  0  0  0  0
   57.0215   32.7593   45.4725 H   0  0  0  0  0  0  0  0  0  0  0  0
   61.5864   33.2985   45.8560 H   0  0  0  0  0  0  0  0  0  0  0  0
   63.5940   32.4302   47.0443 H   0  0  0  0  0  0  0  0  0  0  0  0
   62.9380   31.0272   50.7286 H   0  0  0  0  0  0  0  0  0  0  0  0
   64.9090   30.0020   51.8525 H   0  0  0  0  0  0  0  0  0  0  0  0
  1  2  1  0
  2  3  1  0
  3  4  1  0
  4  5  2  0
  5  6  1  0
  6  7  2  0
  7  8  1  0
  8  9  2  0
  9 10  1  0
 10 11  2  0
 11 12  1  0
 12 13  2  0
 12 14  1  0
 14 15  1  0
 15 16  1  0
 16 17  1  0
 17 18  1  0
 18 19  2  0
 19 20  1  0
 20 21  2  0
 21 22  1  0
 22 23  2  0
 23 24  1  0
 24 25  1  0
 17 26  1  0
 26 27  1  0
 11 28  1  0
 28 29  2  0
  7 30  1  0
 30 31  2  0
 31  4  1  0
 29  8  1  0
 27 14  1  0
 23 18  1  0
  1 32  1  0
  1 33  1  0
  1 34  1  0
  2 35  1  0
  2 36  1  0
  5 37  1  0
  6 38  1  0
  9 39  1  0
 10 40  1  0
 14 41  1  0
 15 42  1  0
 15 43  1  0
 16 44  1  0
 16 45  1  0
 19 46  1  0
 20 47  1  0
 21 48  1  0
 22 49  1  0
 25 50  1  0
 25 51  1  0
 25 52  1  0
 26 53  1  0
 26 54  1  0
 27 55  1  0
 27 56  1  0
 28 57  1  0
 29 58  1  0
 30 59  1  0
 31 60  1  0
M  CHG  1  14   1
M  END
>  <UniqueID>  (46) 
44

>  <SMILES>  (46) 
CCOc1ccc(-c2ccc(C(=O)[NH+]3CCN(c4ccccc4OC)CC3)cc2)cc1

>  <Energy>  (46) 
87.63236052205058

>  <Genealogy>  (46) 
CCOc1ccc(-c2ccc(C(=O)[NH+]3CCN(c4ccccc4OC)CC3)cc2)cc1 (protonated)
CCOc1ccc(-c2ccc(C(=O)[NH+]3CCN(c4ccccc4OC)CC3)cc2)cc1 (3D coordinates assigned)
CCOc1ccc(-c2ccc(C(=O)[NH+]3CCN(c4ccccc4OC)CC3)cc2)cc1 (nonaromatic ring conformer: 87.63236052205058 kcal/mol)

>  <smiles>  (46) 
CCOc1ccc(-c2ccc(C(=O)N3CCN(c4ccccc4OC)CC3)cc2)cc1

>  <score_type>  (46) 
oracle

>  <origin>  (46) 
adg

>  <m_score__min__energy>  (46) 
-7.1200000000000001

>  <m_primary>  (46) 
energy

$$$$
46:0
     RDKit          3D

 32 33  0  0  0  0  0  0  0  0999 V2000
   56.9320   25.7540   45.5380 C   0  0  0  0  0  0  0  0  0  0  0  0
   56.5230   27.0890   45.8160 O   0  0  0  0  0  0  0  0  0  0  0  0
   57.3910   28.1750   46.0120 C   0  0  0  0  0  0  0  0  0  0  0  0
   58.6090   28.0050   46.6960 C   0  0  0  0  0  0  0  0  0  0  0  0
   59.4740   29.0780   46.8940 C   0  0  0  0  0  0  0  0  0  0  0  0
   59.1450   30.3470   46.4120 C   0  0  0  0  0  0  0  0  0  0  0  0
   60.0140   31.4280   46.6060 C   0  0  0  0  0  0  0  0  0  0  0  0
   59.7060   32.6750   46.1350 N   0  0  0  0  0  0  0  0  0  0  0  0
   60.6550   33.7730   46.3710 C   0  0  0  0  0  0  0  0  0  0  0  0
   58.5190   32.8960   45.4740 C   0  0  0  0  0  0  0  0  0  0  0  0
   58.1560   34.2650   44.9510 C   0  0  0  0  0  0  0  0  0  0  0  0
   57.6290   31.8320   45.2560 C   0  0  0  0  0  0  0  0  0  0  0  0
   57.9320   30.5450   45.7250 C   0  0  0  0  0  0  0  0  0  0  0  0
   57.0440   29.4620   45.5180 C   0  0  0  0  0  0  0  0  0  0  0  0
   55.8450   29.7230   44.8220 O   0  0  0  0  0  0  0  0  0  0  0  0
   55.6580   29.7220   43.4110 C   0  0  0  0  0  0  0  0  0  0  0  0
   57.0967   25.2165   46.4835 H   0  0  0  0  0  0  0  0  0  0  0  0
   56.1489   25.2439   44.9578 H   0  0  0  0  0  0  0  0  0  0  0  0
   57.8664   25.7701   44.9578 H   0  0  0  0  0  0  0  0  0  0  0  0
   58.8815   27.0107   47.0795 H   0  0  0  0  0  0  0  0  0  0  0  0
   60.4209   28.9256   47.4326 H   0  0  0  0  0  0  0  0  0  0  0  0
   60.9596   31.2719   47.1459 H   0  0  0  0  0  0  0  0  0  0  0  0
   60.7828   33.9209   47.4535 H   0  0  0  0  0  0  0  0  0  0  0  0
   61.6256   33.5225   45.9180 H   0  0  0  0  0  0  0  0  0  0  0  0
   60.2666   34.6971   45.9180 H   0  0  0  0  0  0  0  0  0  0  0  0
   57.9758   34.9447   45.7969 H   0  0  0  0  0  0  0  0  0  0  0  0
   58.9820   34.6540   44.3375 H   0  0  0  0  0  0  0  0  0  0  0  0
   57.2457   34.1937   44.3375 H   0  0  0  0  0  0  0  0  0  0  0  0
   56.6882   32.0087   44.7140 H   0  0  0  0  0  0  0  0  0  0  0  0
   54.5817   29.7162   43.1838 H   0  0  0  0  0  0  0  0  0  0  0  0
   56.1191   30.6226   42.9794 H   0  0  0  0  0  0  0  0  0  0  0  0
   56.1287   28.8264   42.9794 H   0  0  0  0  0  0  0  0  0  0  0  0
  1  2  1  0
  2  3  1  0
  3  4  2  0
  4  5  1  0
  5  6  2  0
  6  7  1  0
  7  8  2  0
  8  9  1  0
  8 10  1  0
 10 11  1  0
 10 12  2  0
 12 13  1  0
 13 14  2  0
 14 15  1  0
 15 16  1  0
 14  3  1  0
 13  6  1  0
  1 17  1  0
  1 18  1  0
  1 19  1  0
  4 20  1  0
  5 21  1  0
  7 22  1  0
  9 23  1  0
  9 24  1  0
  9 25  1  0
 11 26  1  0
 11 27  1  0
 11 28  1  0
 12 29  1  0
 16 30  1  0
 16 31  1  0
 16 32  1  0
M  CHG  1   8   1
M  END
>  <UniqueID>  (47) 
45

>  <SMILES>  (47) 
COc1ccc2c[n+](C)c(C)cc2c1OC

>  <Energy>  (47) 
40.370609839025974

>  <Genealogy>  (47) 
COc1ccc2c[n+](C)c(C)cc2c1OC (3D coordinates assigned)
COc1ccc2c[n+](C)c(C)cc2c1OC (optimized conformer: 40.370609839025974 kcal/mol)

>  <smiles>  (47) 
COc1ccc2c[n+](C)c(C)cc2c1OC

>  <score_type>  (47) 
oracle

>  <origin>  (47) 
adg

>  <m_score__min__energy>  (47) 
-4.2599999999999998

>  <m_primary>  (47) 
energy

$$$$
47:0
     RDKit          3D

 35 37  0  0  0  0  0  0  0  0999 V2000
   66.3340   32.7010   50.1170 C   0  0  0  0  0  0  0  0  0  0  0  0
   65.1500   33.4480   50.3740 O   0  0  0  0  0  0  0  0  0  0  0  0
   64.0290   33.4720   49.5290 C   0  0  0  0  0  0  0  0  0  0  0  0
   64.0260   32.8580   48.2630 C   0  0  0  0  0  0  0  0  0  0  0  0
   62.8850   32.9110   47.4570 C   0  0  0  0  0  0  0  0  0  0  0  0
   61.7270   33.5750   47.8970 C   0  0  0  0  0  0  0  0  0  0  0  0
   60.5170   33.6300   47.0400 C   0  0  0  0  0  0  0  0  0  0  0  0
   59.7410   34.7790   46.8840 C   0  0  0  0  0  0  0  0  0  0  0  0
   58.4780   34.4120   45.8370 S   0  0  0  0  0  0  0  0  0  0  0  0
   58.9510   32.8100   45.6160 C   0  0  0  0  0  0  0  0  0  0  0  0
   58.2520   31.8260   44.7520 C   0  0  0  0  0  0  0  0  0  0  0  0
   57.7730   32.1930   43.4800 C   0  0  0  0  0  0  0  0  0  0  0  0
   57.1180   31.2580   42.6720 C   0  0  0  0  0  0  0  0  0  0  0  0
   56.9320   29.9450   43.1180 C   0  0  0  0  0  0  0  0  0  0  0  0
   56.2610   28.9900   42.2900 N   0  0  0  0  0  0  0  0  0  0  0  0
   57.4110   29.5700   44.3790 C   0  0  0  0  0  0  0  0  0  0  0  0
   58.0680   30.5010   45.1890 C   0  0  0  0  0  0  0  0  0  0  0  0
   60.0710   32.5500   46.3330 N   0  0  0  0  0  0  0  0  0  0  0  0
   61.7370   34.1850   49.1650 C   0  0  0  0  0  0  0  0  0  0  0  0
   62.8790   34.1330   49.9680 C   0  0  0  0  0  0  0  0  0  0  0  0
   66.7974   32.4086   51.0708 H   0  0  0  0  0  0  0  0  0  0  0  0
   66.0806   31.7989   49.5408 H   0  0  0  0  0  0  0  0  0  0  0  0
   67.0391   33.3181   49.5408 H   0  0  0  0  0  0  0  0  0  0  0  0
   64.9250   32.3342   47.9061 H   0  0  0  0  0  0  0  0  0  0  0  0
   62.8936   32.4282   46.4686 H   0  0  0  0  0  0  0  0  0  0  0  0
   59.9234   35.7529   47.3617 H   0  0  0  0  0  0  0  0  0  0  0  0
   57.9149   33.2224   43.1191 H   0  0  0  0  0  0  0  0  0  0  0  0
   56.7470   31.5566   41.6804 H   0  0  0  0  0  0  0  0  0  0  0  0
   56.3580   27.9660   42.4700 H   0  0  0  0  0  0  0  0  0  0  0  0
   55.6640   29.3000   41.4920 H   0  0  0  0  0  0  0  0  0  0  0  0
   57.2698   28.5385   44.7339 H   0  0  0  0  0  0  0  0  0  0  0  0
   58.4443   30.1952   46.1764 H   0  0  0  0  0  0  0  0  0  0  0  0
   60.5720   31.6360   46.3090 H   0  0  0  0  0  0  0  0  0  0  0  0
   60.8387   34.7068   49.5267 H   0  0  0  0  0  0  0  0  0  0  0  0
   62.8728   34.6172   50.9557 H   0  0  0  0  0  0  0  0  0  0  0  0
  1  2  1  0
  2  3  1  0
  3  4  2  0
  4  5  1  0
  5  6  2  0
  6  7  1  0
  7  8  2  0
  8  9  1  0
  9 10  1  0
 10 11  1  0
 11 12  2  0
 12 13  1  0
 13 14  2  0
 14 15  1  0
 14 16  1  0
 16 17  2  0
 10 18  2  0
  6 19  1  0
 19 20  2  0
 20  3  1  0
 18  7  1  0
 17 11  1  0
  1 21  1  0
  1 22  1  0
  1 23  1  0
  4 24  1  0
  5 25  1  0
  8 26  1  0
 12 27  1  0
 13 28  1  0
 15 29  1  0
 15 30  1  0
 16 31  1  0
 17 32  1  0
 18 33  1  0
 19 34  1  0
 20 35  1  0
M  CHG  1  18   1
M  END
>  <UniqueID>  (48) 
46

>  <SMILES>  (48) 
COc1ccc(-c2csc(-c3ccc(N)cc3)[nH+]2)cc1

>  <Energy>  (48) 
70.93545397748412

>  <Genealogy>  (48) 
COc1ccc(-c2csc(-c3ccc(N)cc3)[nH+]2)cc1 (protonated)
COc1ccc(-c2csc(-c3ccc(N)cc3)[nH+]2)cc1 (3D coordinates assigned)
COc1ccc(-c2csc(-c3ccc(N)cc3)[nH+]2)cc1 (optimized conformer: 70.93545397748412 kcal/mol)

>  <smiles>  (48) 
COc1ccc(-c2csc(-c3ccc(N)cc3)n2)cc1

>  <score_type>  (48) 
oracle

>  <origin>  (48) 
adg

>  <m_score__min__energy>  (48) 
-6.0599999999999996

>  <m_primary>  (48) 
energy

$$$$
