0:0
     RDKit          3D

 62 63  0  0  0  0  0  0  0  0999 V2000
   61.2560   30.5400   47.0270 C   0  0  0  0  0  0  0  0  0  0  0  0
   60.5400   29.2100   46.8260 C   0  0  0  0  0  0  0  0  0  0  0  0
   60.2000   28.6100   48.1370 N   0  0  0  0  0  0  0  0  0  0  0  0
   58.8810   29.0820   48.6160 C   0  0  0  0  0  0  0  0  0  0  0  0
   59.0540   30.2810   49.5450 C   0  0  0  0  0  0  0  0  0  0  0  0
   60.2570   27.1320   48.0810 C   0  0  0  0  0  0  0  0  0  0  0  0
   59.7550   26.6390   46.7200 C   0  0  0  0  0  0  0  0  0  0  0  0
   58.7730   25.6340   46.8880 O   0  0  0  0  0  0  0  0  0  0  0  0
   57.4830   26.2050   46.9170 C   0  0  0  0  0  0  0  0  0  0  0  0
   57.1300   26.7180   45.5220 C   0  0  0  0  0  0  0  0  0  0  0  0
   56.2820   27.9010   45.6100 N   0  0  0  0  0  0  0  0  0  0  0  0
   56.2170   28.9750   44.6580 C   0  0  0  0  0  0  0  0  0  0  0  0
   55.0800   29.3710   44.2860 O   0  0  0  0  0  0  0  0  0  0  0  0
   57.4570   29.5850   44.0380 C   0  0  2  0  0  0  0  0  0  0  0  0
   58.6550   28.6270   44.1140 C   0  0  0  0  0  0  0  0  0  0  0  0
   57.7710   30.9190   44.6860 C   0  0  0  0  0  0  0  0  0  0  0  0
   58.0280   30.9860   46.0670 C   0  0  0  0  0  0  0  0  0  0  0  0
   58.3250   32.2090   46.6740 C   0  0  0  0  0  0  0  0  0  0  0  0
   58.3670   33.3870   45.9230 C   0  0  0  0  0  0  0  0  0  0  0  0
   58.6590   34.5890   46.5900 O   0  0  0  0  0  0  0  0  0  0  0  0
   59.3000   34.6930   47.8610 C   0  0  0  0  0  0  0  0  0  0  0  0
   60.7280   34.2200   47.7850 C   0  0  0  0  0  0  0  0  0  0  0  0
   61.3960   33.7840   48.9410 C   0  0  0  0  0  0  0  0  0  0  0  0
   62.7150   33.3270   48.8630 C   0  0  0  0  0  0  0  0  0  0  0  0
   63.3730   33.2930   47.6310 C   0  0  0  0  0  0  0  0  0  0  0  0
   62.7110   33.7110   46.4740 C   0  0  0  0  0  0  0  0  0  0  0  0
   61.3910   34.1670   46.5470 C   0  0  0  0  0  0  0  0  0  0  0  0
   58.1150   33.3270   44.5400 C   0  0  0  0  0  0  0  0  0  0  0  0
   57.8280   32.1040   43.9270 C   0  0  0  0  0  0  0  0  0  0  0  0
   61.3634   30.7396   48.1034 H   0  0  0  0  0  0  0  0  0  0  0  0
   62.2515   30.4945   46.5614 H   0  0  0  0  0  0  0  0  0  0  0  0
   60.6699   31.3460   46.5614 H   0  0  0  0  0  0  0  0  0  0  0  0
   59.6165   29.3773   46.2523 H   0  0  0  0  0  0  0  0  0  0  0  0
   61.2029   28.5242   46.2780 H   0  0  0  0  0  0  0  0  0  0  0  0
   58.2657   29.3770   47.7532 H   0  0  0  0  0  0  0  0  0  0  0  0
   58.3885   28.2685   49.1689 H   0  0  0  0  0  0  0  0  0  0  0  0
   59.0054   29.9443   50.5911 H   0  0  0  0  0  0  0  0  0  0  0  0
   60.0296   30.7530   49.3566 H   0  0  0  0  0  0  0  0  0  0  0  0
   58.2517   31.0096   49.3566 H   0  0  0  0  0  0  0  0  0  0  0  0
   61.2960   26.8018   48.2274 H   0  0  0  0  0  0  0  0  0  0  0  0
   59.6179   26.7159   48.8737 H   0  0  0  0  0  0  0  0  0  0  0  0
   59.3175   27.4838   46.1679 H   0  0  0  0  0  0  0  0  0  0  0  0
   60.6027   26.2178   46.1596 H   0  0  0  0  0  0  0  0  0  0  0  0
   56.7507   25.4444   47.2256 H   0  0  0  0  0  0  0  0  0  0  0  0
   57.4639   27.0393   47.6337 H   0  0  0  0  0  0  0  0  0  0  0  0
   58.0557   26.9757   44.9865 H   0  0  0  0  0  0  0  0  0  0  0  0
   56.5848   25.9301   44.9817 H   0  0  0  0  0  0  0  0  0  0  0  0
   57.2542   29.7613   42.9713 H   0  0  0  0  0  0  0  0  0  0  0  0
   58.9009   28.4303   45.1680 H   0  0  0  0  0  0  0  0  0  0  0  0
   58.4001   27.6808   43.6142 H   0  0  0  0  0  0  0  0  0  0  0  0
   59.5220   29.0837   43.6142 H   0  0  0  0  0  0  0  0  0  0  0  0
   57.9950   30.0690   46.6737 H   0  0  0  0  0  0  0  0  0  0  0  0
   58.5279   32.2451   47.7545 H   0  0  0  0  0  0  0  0  0  0  0  0
   59.2858   35.7437   48.1863 H   0  0  0  0  0  0  0  0  0  0  0  0
   58.7587   34.0601   48.5796 H   0  0  0  0  0  0  0  0  0  0  0  0
   60.8792   33.8022   49.9119 H   0  0  0  0  0  0  0  0  0  0  0  0
   63.2355   32.9937   49.7730 H   0  0  0  0  0  0  0  0  0  0  0  0
   64.4122   32.9371   47.5720 H   0  0  0  0  0  0  0  0  0  0  0  0
   63.2289   33.6814   45.5040 H   0  0  0  0  0  0  0  0  0  0  0  0
   60.8698   34.4853   45.6321 H   0  0  0  0  0  0  0  0  0  0  0  0
   58.1440   34.2473   43.9381 H   0  0  0  0  0  0  0  0  0  0  0  0
   57.6452   32.0668   42.8429 H   0  0  0  0  0  0  0  0  0  0  0  0
  1  2  1  0
  2  3  1  0
  3  4  1  0
  4  5  1  0
  3  6  1  0
  6  7  1  0
  7  8  1  0
  8  9  1  0
  9 10  1  0
 10 11  1  0
 11 12  1  0
 12 13  2  0
 12 14  1  0
 14 15  1  0
 14 16  1  0
 16 17  2  0
 17 18  1  0
 18 19  2  0
 19 20  1  0
 20 21  1  0
 21 22  1  0
 22 23  2  0
 23 24  1  0
 24 25  2  0
 25 26  1  0
 26 27  2  0
 19 28  1  0
 28 29  2  0
 29 16  1  0
 27 22  1  0
  1 30  1  0
  1 31  1  0
  1 32  1  0
  2 33  1  0
  2 34  1  0
  4 35  1  0
  4 36  1  0
  5 37  1  0
  5 38  1  0
  5 39  1  0
  6 40  1  0
  6 41  1  0
  7 42  1  0
  7 43  1  0
  9 44  1  0
  9 45  1  0
 10 46  1  0
 10 47  1  0
 14 48  1  6
 15 49  1  0
 15 50  1  0
 15 51  1  0
 17 52  1  0
 18 53  1  0
 21 54  1  0
 21 55  1  0
 23 56  1  0
 24 57  1  0
 25 58  1  0
 26 59  1  0
 27 60  1  0
 28 61  1  0
 29 62  1  0
M  CHG  1  11  -1
M  END
>  <UniqueID>  (1) 
1

>  <SMILES>  (1) 
CCN(CC)CCOCC[N-]C(=O)[C@H](C)c1ccc(OCc2ccccc2)cc1

>  <Energy>  (1) 
56.162261124381445

>  <Genealogy>  (1) 
CCN(CC)CCOCC[N-]C(=O)C(C)c1ccc(OCc2ccccc2)cc1 (protonated)
CCN(CC)CCOCC[N-]C(=O)[C@H](C)c1ccc(OCc2ccccc2)cc1 (chirality)
CCN(CC)CCOCC[N-]C(=O)[C@H](C)c1ccc(OCc2ccccc2)cc1 (3D coordinates assigned)
CCN(CC)CCOCC[N-]C(=O)[C@H](C)c1ccc(OCc2ccccc2)cc1 (optimized conformer: 56.162261124381445 kcal/mol)

>  <smiles>  (1) 
CCN(CC)CCOCCNC(=O)C(C)c1ccc(OCc2ccccc2)cc1

>  <score_type>  (1) 
oracle

>  <origin>  (1) 
adg

>  <m_score__min__energy>  (1) 
-10.57

>  <m_primary>  (1) 
energy

$$$$
1:0
     RDKit          3D

 45 45  0  0  0  0  0  0  0  0999 V2000
   60.6140   28.9420   44.8630 C   0  0  0  0  0  0  0  0  0  0  0  0
   59.8340   30.0440   45.4280 N   0  0  0  0  0  0  0  0  0  0  0  0
   59.8400   29.9770   46.8940 C   0  0  0  0  0  0  0  0  0  0  0  0
   59.8940   28.5180   47.3720 C   0  0  0  0  0  0  0  0  0  0  0  0
   58.5190   27.9110   47.7120 C   0  0  0  0  0  0  0  0  0  0  0  0
   57.7510   27.3930   46.4860 C   0  0  0  0  0  0  0  0  0  0  0  0
   57.2880   28.5050   45.6470 N   0  0  0  0  0  0  0  0  0  0  0  0
   57.4710   28.1860   44.2250 C   0  0  0  0  0  0  0  0  0  0  0  0
   57.0600   29.3760   43.3510 C   0  0  0  0  0  0  0  0  0  0  0  0
   56.1660   30.3620   44.1130 C   0  0  0  0  0  0  0  0  0  0  0  0
   56.9700   31.1440   45.0640 N   0  0  0  0  0  0  0  0  0  0  0  0
   57.4210   32.4090   44.4710 C   0  0  0  0  0  0  0  0  0  0  0  0
   58.2240   33.1810   45.4810 C   0  0  0  0  0  0  0  0  0  0  0  0
   59.0080   34.2720   45.0700 C   0  0  0  0  0  0  0  0  0  0  0  0
   59.7320   35.0110   46.0120 C   0  0  0  0  0  0  0  0  0  0  0  0
   59.6690   34.6740   47.3660 C   0  0  0  0  0  0  0  0  0  0  0  0
   58.8820   33.5960   47.7830 C   0  0  0  0  0  0  0  0  0  0  0  0
   58.1570   32.8540   46.8450 C   0  0  0  0  0  0  0  0  0  0  0  0
   61.0407   28.3391   45.6781 H   0  0  0  0  0  0  0  0  0  0  0  0
   59.9607   28.3104   44.2431 H   0  0  0  0  0  0  0  0  0  0  0  0
   61.4269   29.3482   44.2431 H   0  0  0  0  0  0  0  0  0  0  0  0
   58.8460   29.9300   45.1020 H   0  0  0  0  0  0  0  0  0  0  0  0
   60.7202   30.5148   47.2762 H   0  0  0  0  0  0  0  0  0  0  0  0
   58.9160   30.4385   47.2723 H   0  0  0  0  0  0  0  0  0  0  0  0
   60.3511   27.9115   46.5763 H   0  0  0  0  0  0  0  0  0  0  0  0
   60.4796   28.5130   48.3032 H   0  0  0  0  0  0  0  0  0  0  0  0
   58.6723   27.0713   48.4058 H   0  0  0  0  0  0  0  0  0  0  0  0
   57.9132   28.7159   48.1537 H   0  0  0  0  0  0  0  0  0  0  0  0
   58.4144   26.7466   45.8926 H   0  0  0  0  0  0  0  0  0  0  0  0
   56.8738   26.8282   46.8348 H   0  0  0  0  0  0  0  0  0  0  0  0
   57.8780   29.3430   45.8640 H   0  0  0  0  0  0  0  0  0  0  0  0
   58.5293   27.9496   44.0403 H   0  0  0  0  0  0  0  0  0  0  0  0
   56.8395   27.3222   43.9699 H   0  0  0  0  0  0  0  0  0  0  0  0
   57.9665   29.9023   43.0173 H   0  0  0  0  0  0  0  0  0  0  0  0
   56.4887   28.9891   42.4943 H   0  0  0  0  0  0  0  0  0  0  0  0
   55.6844   31.0442   43.3970 H   0  0  0  0  0  0  0  0  0  0  0  0
   55.4007   29.7989   44.6672 H   0  0  0  0  0  0  0  0  0  0  0  0
   57.8240   30.5850   45.3010 H   0  0  0  0  0  0  0  0  0  0  0  0
   58.0455   32.1985   43.5903 H   0  0  0  0  0  0  0  0  0  0  0  0
   56.5462   33.0032   44.1682 H   0  0  0  0  0  0  0  0  0  0  0  0
   59.0527   34.5457   44.0055 H   0  0  0  0  0  0  0  0  0  0  0  0
   60.3520   35.8590   45.6856 H   0  0  0  0  0  0  0  0  0  0  0  0
   60.2387   35.2569   48.1047 H   0  0  0  0  0  0  0  0  0  0  0  0
   58.8331   33.3314   48.8496 H   0  0  0  0  0  0  0  0  0  0  0  0
   57.5323   32.0116   47.1768 H   0  0  0  0  0  0  0  0  0  0  0  0
  1  2  1  0
  2  3  1  0
  3  4  1  0
  4  5  1  0
  5  6  1  0
  6  7  1  0
  7  8  1  0
  8  9  1  0
  9 10  1  0
 10 11  1  0
 11 12  1  0
 12 13  1  0
 13 14  2  0
 14 15  1  0
 15 16  2  0
 16 17  1  0
 17 18  2  0
 18 13  1  0
  1 19  1  0
  1 20  1  0
  1 21  1  0
  2 22  1  0
  3 23  1  0
  3 24  1  0
  4 25  1  0
  4 26  1  0
  5 27  1  0
  5 28  1  0
  6 29  1  0
  6 30  1  0
  7 31  1  0
  8 32  1  0
  8 33  1  0
  9 34  1  0
  9 35  1  0
 10 36  1  0
 10 37  1  0
 11 38  1  0
 12 39  1  0
 12 40  1  0
 14 41  1  0
 15 42  1  0
 16 43  1  0
 17 44  1  0
 18 45  1  0
M  END
>  <UniqueID>  (2) 
2

>  <SMILES>  (2) 
CNCCCCNCCCNCc1ccccc1

>  <Energy>  (2) 
28.229524299661918

>  <Genealogy>  (2) 
CNCCCCNCCCNCc1ccccc1 (3D coordinates assigned)
CNCCCCNCCCNCc1ccccc1 (optimized conformer: 28.229524299661918 kcal/mol)

>  <smiles>  (2) 
CNCCCCNCCCNCc1ccccc1

>  <score_type>  (2) 
oracle

>  <origin>  (2) 
adg

>  <m_score__min__energy>  (2) 
-4.8700000000000001

>  <m_primary>  (2) 
energy

$$$$
2:0
     RDKit          3D

 66 68  0  0  0  0  0  0  0  0999 V2000
   58.1380   33.0760   43.9360 C   0  0  0  0  0  0  0  0  0  0  0  0
   57.1250   32.7300   45.0230 C   0  0  0  0  0  0  0  0  0  0  0  0
   56.6760   31.3930   44.8680 O   0  0  0  0  0  0  0  0  0  0  0  0
   57.2400   30.7850   43.7210 C   0  0  0  0  0  0  0  0  0  0  0  0
   57.0970   29.2560   43.7900 C   0  0  0  0  0  0  0  0  0  0  0  0
   56.4820   28.8510   45.0000 O   0  0  0  0  0  0  0  0  0  0  0  0
   57.2160   27.8230   45.6440 C   0  0  0  0  0  0  0  0  0  0  0  0
   58.1830   28.3740   46.7010 C   0  0  0  0  0  0  0  0  0  0  0  0
   58.1980   29.8340   46.7150 N   0  0  0  0  0  0  0  0  0  0  0  0
   58.6640   30.5880   47.8450 C   0  0  0  0  0  0  0  0  0  0  0  0
   58.5230   30.0960   49.0370 N   0  0  0  0  0  0  0  0  0  0  0  0
   58.9770   30.7580   50.2590 C   0  0  1  0  0  0  0  0  0  0  0  0
   60.2140   30.0640   50.7870 C   0  0  0  0  0  0  0  0  0  0  0  0
   61.4930   30.4880   50.3930 C   0  0  0  0  0  0  0  0  0  0  0  0
   62.6360   29.8730   50.9050 C   0  0  0  0  0  0  0  0  0  0  0  0
   62.5130   28.8220   51.8140 C   0  0  0  0  0  0  0  0  0  0  0  0
   61.2480   28.3830   52.2090 C   0  0  0  0  0  0  0  0  0  0  0  0
   60.1010   29.0010   51.7000 C   0  0  0  0  0  0  0  0  0  0  0  0
   59.2290   32.2460   50.0720 C   0  0  0  0  0  0  0  0  0  0  0  0
   59.4700   33.0410   51.3070 C   0  0  0  0  0  0  0  0  0  0  0  0
   58.5140   33.5980   51.9140 O   0  0  0  0  0  0  0  0  0  0  0  0
   60.7830   33.2290   51.7530 O   0  0  0  0  0  0  0  0  0  0  0  0
   61.8110   33.7460   50.9130 C   0  0  0  0  0  0  0  0  0  0  0  0
   59.2970   32.7770   48.8230 C   0  0  0  0  0  0  0  0  0  0  0  0
   59.3720   34.2730   48.6010 C   0  0  0  0  0  0  0  0  0  0  0  0
   59.2470   31.8960   47.6740 N   0  0  0  0  0  0  0  0  0  0  0  0
   60.0310   32.2010   46.4570 C   0  0  0  0  0  0  0  0  0  0  0  0
   61.4400   32.5800   46.8280 C   0  0  0  0  0  0  0  0  0  0  0  0
   61.9790   33.8070   46.4070 C   0  0  0  0  0  0  0  0  0  0  0  0
   63.3160   34.1190   46.6700 C   0  0  0  0  0  0  0  0  0  0  0  0
   64.1250   33.2060   47.3540 C   0  0  0  0  0  0  0  0  0  0  0  0
   63.5940   31.9850   47.7840 C   0  0  0  0  0  0  0  0  0  0  0  0
   62.2560   31.6720   47.5240 C   0  0  0  0  0  0  0  0  0  0  0  0
   59.0807   33.3980   44.4024 H   0  0  0  0  0  0  0  0  0  0  0  0
   58.3221   32.1898   43.3109 H   0  0  0  0  0  0  0  0  0  0  0  0
   57.7415   33.8897   43.3109 H   0  0  0  0  0  0  0  0  0  0  0  0
   57.5984   32.8420   46.0096 H   0  0  0  0  0  0  0  0  0  0  0  0
   56.2638   33.4093   44.9398 H   0  0  0  0  0  0  0  0  0  0  0  0
   56.7221   31.1559   42.8242 H   0  0  0  0  0  0  0  0  0  0  0  0
   58.3095   31.0383   43.6765 H   0  0  0  0  0  0  0  0  0  0  0  0
   56.4823   28.9150   42.9439 H   0  0  0  0  0  0  0  0  0  0  0  0
   58.1019   28.8108   43.7451 H   0  0  0  0  0  0  0  0  0  0  0  0
   56.5093   27.1372   46.1340 H   0  0  0  0  0  0  0  0  0  0  0  0
   57.8126   27.3047   44.8789 H   0  0  0  0  0  0  0  0  0  0  0  0
   57.8713   28.0118   47.6918 H   0  0  0  0  0  0  0  0  0  0  0  0
   59.1959   28.0245   46.4524 H   0  0  0  0  0  0  0  0  0  0  0  0
   57.9770   30.3250   45.8220 H   0  0  0  0  0  0  0  0  0  0  0  0
   58.1644   30.6769   50.9959 H   0  0  0  0  0  0  0  0  0  0  0  0
   61.5951   31.3136   49.6733 H   0  0  0  0  0  0  0  0  0  0  0  0
   63.6331   30.2165   50.5922 H   0  0  0  0  0  0  0  0  0  0  0  0
   63.4138   28.3386   52.2200 H   0  0  0  0  0  0  0  0  0  0  0  0
   61.1532   27.5502   52.9213 H   0  0  0  0  0  0  0  0  0  0  0  0
   59.1061   28.6537   52.0155 H   0  0  0  0  0  0  0  0  0  0  0  0
   62.6219   34.1538   51.5345 H   0  0  0  0  0  0  0  0  0  0  0  0
   62.2060   32.9393   50.2780 H   0  0  0  0  0  0  0  0  0  0  0  0
   61.3989   34.5441   50.2780 H   0  0  0  0  0  0  0  0  0  0  0  0
   59.3978   34.7871   49.5731 H   0  0  0  0  0  0  0  0  0  0  0  0
   60.2834   34.5144   48.0343 H   0  0  0  0  0  0  0  0  0  0  0  0
   58.4893   34.6043   48.0343 H   0  0  0  0  0  0  0  0  0  0  0  0
   60.0525   31.3140   45.8068 H   0  0  0  0  0  0  0  0  0  0  0  0
   59.5602   33.0428   45.9282 H   0  0  0  0  0  0  0  0  0  0  0  0
   61.3455   34.5263   45.8674 H   0  0  0  0  0  0  0  0  0  0  0  0
   63.7316   35.0822   46.3391 H   0  0  0  0  0  0  0  0  0  0  0  0
   65.1793   33.4479   47.5540 H   0  0  0  0  0  0  0  0  0  0  0  0
   64.2298   31.2704   48.3272 H   0  0  0  0  0  0  0  0  0  0  0  0
   61.8411   30.7121   47.8653 H   0  0  0  0  0  0  0  0  0  0  0  0
  1  2  1  0
  2  3  1  0
  3  4  1  0
  4  5  1  0
  5  6  1  0
  6  7  1  0
  7  8  1  0
  8  9  1  0
  9 10  1  0
 10 11  2  0
 11 12  1  0
 12 13  1  0
 13 14  2  0
 14 15  1  0
 15 16  2  0
 16 17  1  0
 17 18  2  0
 12 19  1  0
 19 20  1  0
 20 21  2  0
 20 22  1  0
 22 23  1  0
 19 24  2  0
 24 25  1  0
 24 26  1  0
 26 27  1  0
 27 28  1  0
 28 29  2  0
 29 30  1  0
 30 31  2  0
 31 32  1  0
 32 33  2  0
 26 10  1  0
 33 28  1  0
 18 13  1  0
  1 34  1  0
  1 35  1  0
  1 36  1  0
  2 37  1  0
  2 38  1  0
  4 39  1  0
  4 40  1  0
  5 41  1  0
  5 42  1  0
  7 43  1  0
  7 44  1  0
  8 45  1  0
  8 46  1  0
  9 47  1  0
 12 48  1  1
 14 49  1  0
 15 50  1  0
 16 51  1  0
 17 52  1  0
 18 53  1  0
 23 54  1  0
 23 55  1  0
 23 56  1  0
 25 57  1  0
 25 58  1  0
 25 59  1  0
 27 60  1  0
 27 61  1  0
 29 62  1  0
 30 63  1  0
 31 64  1  0
 32 65  1  0
 33 66  1  0
M  END
>  <UniqueID>  (3) 
3

>  <SMILES>  (3) 
CCOCCOCCNC1=N[C@@H](c2ccccc2)C(C(=O)OC)=C(C)N1Cc1ccccc1

>  <Energy>  (3) 
73.71246223809855

>  <Genealogy>  (3) 
CCOCCOCCNC1=N[C@@H](c2ccccc2)C(C(=O)OC)=C(C)N1Cc1ccccc1 (chirality)
CCOCCOCCNC1=N[C@@H](c2ccccc2)C(C(=O)OC)=C(C)N1Cc1ccccc1 (3D coordinates assigned)
CCOCCOCCNC1=N[C@@H](c2ccccc2)C(C(=O)OC)=C(C)N1Cc1ccccc1 (nonaromatic ring conformer: 73.71246223809855 kcal/mol)

>  <smiles>  (3) 
CCOCCOCCNC1=NC(c2ccccc2)C(C(=O)OC)=C(C)N1Cc1ccccc1

>  <score_type>  (3) 
oracle

>  <origin>  (3) 
adg

>  <m_score__min__energy>  (3) 
-7.54

>  <m_primary>  (3) 
energy

$$$$
3:0
     RDKit          3D

 56 58  0  0  0  0  0  0  0  0999 V2000
   50.6380   24.5070   43.3240 C   0  0  0  0  0  0  0  0  0  0  0  0
   51.5270   24.0730   44.4840 C   0  0  0  0  0  0  0  0  0  0  0  0
   52.7320   23.4680   44.0130 O   0  0  0  0  0  0  0  0  0  0  0  0
   54.0210   23.7190   44.5110 C   0  0  0  0  0  0  0  0  0  0  0  0
   55.1190   23.2950   43.7520 C   0  0  0  0  0  0  0  0  0  0  0  0
   56.4260   23.5780   44.1660 C   0  0  0  0  0  0  0  0  0  0  0  0
   56.6570   24.2590   45.3710 C   0  0  0  0  0  0  0  0  0  0  0  0
   58.0650   24.5890   45.8370 C   0  0  0  0  0  0  0  0  0  0  0  0
   58.6290   25.8500   45.2770 N   0  0  0  0  0  0  0  0  0  0  0  0
   58.9250   26.8770   46.3190 C   0  0  0  0  0  0  0  0  0  0  0  0
   58.1330   28.1740   46.1190 C   0  0  0  0  0  0  0  0  0  0  0  0
   58.3780   28.7430   44.7790 N   0  0  0  0  0  0  0  0  0  0  0  0
   57.2530   30.0480   44.4750 S   0  0  0  0  0  0  0  0  0  0  0  0
   57.0040   30.1390   42.9960 O   0  0  0  0  0  0  0  0  0  0  0  0
   55.9380   29.7710   45.1520 O   0  0  0  0  0  0  0  0  0  0  0  0
   57.8970   31.5860   45.0540 C   0  0  0  0  0  0  0  0  0  0  0  0
   57.4520   32.7890   44.4940 C   0  0  0  0  0  0  0  0  0  0  0  0
   58.0020   34.0030   44.9030 C   0  0  0  0  0  0  0  0  0  0  0  0
   59.0070   34.0370   45.8830 C   0  0  0  0  0  0  0  0  0  0  0  0
   59.5970   35.3670   46.2720 C   0  0  0  0  0  0  0  0  0  0  0  0
   59.4850   32.8220   46.4300 C   0  0  0  0  0  0  0  0  0  0  0  0
   60.5820   32.8010   47.4610 C   0  0  0  0  0  0  0  0  0  0  0  0
   58.9050   31.6080   46.0240 C   0  0  0  0  0  0  0  0  0  0  0  0
   58.3820   27.7410   43.6840 C   0  0  0  0  0  0  0  0  0  0  0  0
   57.8510   26.3700   44.1250 C   0  0  0  0  0  0  0  0  0  0  0  0
   55.5560   24.6530   46.1510 C   0  0  0  0  0  0  0  0  0  0  0  0
   54.2510   24.3980   45.7220 C   0  0  0  0  0  0  0  0  0  0  0  0
   49.7151   24.9576   43.7180 H   0  0  0  0  0  0  0  0  0  0  0  0
   51.1728   25.2454   42.7085 H   0  0  0  0  0  0  0  0  0  0  0  0
   50.3847   23.6312   42.7085 H   0  0  0  0  0  0  0  0  0  0  0  0
   51.7815   24.9547   45.0904 H   0  0  0  0  0  0  0  0  0  0  0  0
   50.9782   23.3336   45.0858 H   0  0  0  0  0  0  0  0  0  0  0  0
   54.9526   22.7337   42.8207 H   0  0  0  0  0  0  0  0  0  0  0  0
   57.2768   23.2647   43.5431 H   0  0  0  0  0  0  0  0  0  0  0  0
   58.0507   24.6777   46.9333 H   0  0  0  0  0  0  0  0  0  0  0  0
   58.7097   23.7741   45.4760 H   0  0  0  0  0  0  0  0  0  0  0  0
   59.5610   25.5740   44.8800 H   0  0  0  0  0  0  0  0  0  0  0  0
   58.6724   26.4598   47.3050 H   0  0  0  0  0  0  0  0  0  0  0  0
   59.9934   27.1271   46.2423 H   0  0  0  0  0  0  0  0  0  0  0  0
   57.0595   27.9603   46.2281 H   0  0  0  0  0  0  0  0  0  0  0  0
   58.4597   28.9038   46.8744 H   0  0  0  0  0  0  0  0  0  0  0  0
   56.6638   32.7765   43.7268 H   0  0  0  0  0  0  0  0  0  0  0  0
   57.6457   34.9420   44.4543 H   0  0  0  0  0  0  0  0  0  0  0  0
   59.6320   35.4459   47.3686 H   0  0  0  0  0  0  0  0  0  0  0  0
   60.6159   35.4490   45.8658 H   0  0  0  0  0  0  0  0  0  0  0  0
   58.9740   36.1774   45.8658 H   0  0  0  0  0  0  0  0  0  0  0  0
   60.1391   32.8095   48.4679 H   0  0  0  0  0  0  0  0  0  0  0  0
   61.1870   31.8911   47.3342 H   0  0  0  0  0  0  0  0  0  0  0  0
   61.2214   33.6871   47.3342 H   0  0  0  0  0  0  0  0  0  0  0  0
   59.2474   30.6644   46.4739 H   0  0  0  0  0  0  0  0  0  0  0  0
   57.7505   28.1146   42.8644 H   0  0  0  0  0  0  0  0  0  0  0  0
   59.4263   27.6034   43.3671 H   0  0  0  0  0  0  0  0  0  0  0  0
   56.7954   26.4692   44.4179 H   0  0  0  0  0  0  0  0  0  0  0  0
   57.9506   25.6663   43.2854 H   0  0  0  0  0  0  0  0  0  0  0  0
   55.7235   25.1673   47.1088 H   0  0  0  0  0  0  0  0  0  0  0  0
   53.3991   24.7296   46.3338 H   0  0  0  0  0  0  0  0  0  0  0  0
  1  2  1  0
  2  3  1  0
  3  4  1  0
  4  5  2  0
  5  6  1  0
  6  7  2  0
  7  8  1  0
  8  9  1  0
  9 10  1  0
 10 11  1  0
 11 12  1  0
 12 13  1  0
 13 14  2  0
 13 15  2  0
 13 16  1  0
 16 17  2  0
 17 18  1  0
 18 19  2  0
 19 20  1  0
 19 21  1  0
 21 22  1  0
 21 23  2  0
 12 24  1  0
 24 25  1  0
  7 26  1  0
 26 27  2  0
 27  4  1  0
 25  9  1  0
 23 16  1  0
  1 28  1  0
  1 29  1  0
  1 30  1  0
  2 31  1  0
  2 32  1  0
  5 33  1  0
  6 34  1  0
  8 35  1  0
  8 36  1  0
  9 37  1  0
 10 38  1  0
 10 39  1  0
 11 40  1  0
 11 41  1  0
 17 42  1  0
 18 43  1  0
 20 44  1  0
 20 45  1  0
 20 46  1  0
 22 47  1  0
 22 48  1  0
 22 49  1  0
 23 50  1  0
 24 51  1  0
 24 52  1  0
 25 53  1  0
 25 54  1  0
 26 55  1  0
 27 56  1  0
M  CHG  1   9   1
M  END
>  <UniqueID>  (4) 
4

>  <SMILES>  (4) 
CCOc1ccc(C[NH+]2CCN(S(=O)(=O)c3ccc(C)c(C)c3)CC2)cc1

>  <Energy>  (4) 
67.27473202560687

>  <Genealogy>  (4) 
CCOc1ccc(C[NH+]2CCN(S(=O)(=O)c3ccc(C)c(C)c3)CC2)cc1 (protonated)
CCOc1ccc(C[NH+]2CCN(S(=O)(=O)c3ccc(C)c(C)c3)CC2)cc1 (3D coordinates assigned)
CCOc1ccc(C[NH+]2CCN(S(=O)(=O)c3ccc(C)c(C)c3)CC2)cc1 (nonaromatic ring conformer: 67.27473202560687 kcal/mol)

>  <smiles>  (4) 
CCOc1ccc(CN2CCN(S(=O)(=O)c3ccc(C)c(C)c3)CC2)cc1

>  <score_type>  (4) 
oracle

>  <origin>  (4) 
adg

>  <m_score__min__energy>  (4) 
-7.6500000000000004

>  <m_primary>  (4) 
energy

$$$$
4:0
     RDKit          3D

 47 49  0  0  0  0  0  0  0  0999 V2000
   62.1350   34.2120   48.6870 C   0  0  0  0  0  0  0  0  0  0  0  0
   63.3910   33.9070   47.8610 C   0  0  0  0  0  0  0  0  0  0  0  0
   64.0420   32.6300   48.2540 N   0  0  1  0  0  0  0  0  0  0  0  0
   64.8920   32.8640   49.4390 C   0  0  0  0  0  0  0  0  0  0  0  0
   63.0260   31.5820   48.5310 C   0  0  0  0  0  0  0  0  0  0  0  0
   62.2310   31.1510   47.2770 C   0  0  0  0  0  0  0  0  0  0  0  0
   60.7970   31.0580   47.5640 N   0  0  0  0  0  0  0  0  0  0  0  0
   59.8230   31.0300   46.5080 C   0  0  0  0  0  0  0  0  0  0  0  0
   59.2640   32.2210   45.9850 C   0  0  0  0  0  0  0  0  0  0  0  0
   59.6430   33.4810   46.4940 C   0  0  0  0  0  0  0  0  0  0  0  0
   59.0980   34.6520   45.9710 C   0  0  0  0  0  0  0  0  0  0  0  0
   58.1680   34.5920   44.9400 C   0  0  0  0  0  0  0  0  0  0  0  0
   57.7750   33.3610   44.4160 C   0  0  0  0  0  0  0  0  0  0  0  0
   58.3110   32.1500   44.9170 C   0  0  0  0  0  0  0  0  0  0  0  0
   57.9290   30.9230   44.4020 N   0  0  0  0  0  0  0  0  0  0  0  0
   56.9610   30.8290   43.2940 C   0  0  0  0  0  0  0  0  0  0  0  0
   58.4590   29.7870   44.9540 C   0  0  0  0  0  0  0  0  0  0  0  0
   58.1000   28.1810   44.5730 S   0  0  0  0  0  0  0  0  0  0  0  0
   59.1320   27.5100   45.7250 C   0  0  0  0  0  0  0  0  0  0  0  0
   59.2550   26.0520   46.0140 C   0  0  0  0  0  0  0  0  0  0  0  0
   59.7480   28.5310   46.4400 C   0  0  0  0  0  0  0  0  0  0  0  0
   59.3820   29.8100   45.9890 C   0  0  0  0  0  0  0  0  0  0  0  0
   62.3775   34.1531   49.7583 H   0  0  0  0  0  0  0  0  0  0  0  0
   61.7754   35.2236   48.4475 H   0  0  0  0  0  0  0  0  0  0  0  0
   61.3515   33.4780   48.4475 H   0  0  0  0  0  0  0  0  0  0  0  0
   63.1075   33.8451   46.8000 H   0  0  0  0  0  0  0  0  0  0  0  0
   64.1126   34.7169   48.0437 H   0  0  0  0  0  0  0  0  0  0  0  0
   64.6640   32.3130   47.4740 H   0  0  0  0  0  0  0  0  0  0  0  0
   64.3008   32.7012   50.3522 H   0  0  0  0  0  0  0  0  0  0  0  0
   65.7425   32.1666   49.4237 H   0  0  0  0  0  0  0  0  0  0  0  0
   65.2657   33.8984   49.4237 H   0  0  0  0  0  0  0  0  0  0  0  0
   63.5386   30.6987   48.9395 H   0  0  0  0  0  0  0  0  0  0  0  0
   62.3040   32.0096   49.2422 H   0  0  0  0  0  0  0  0  0  0  0  0
   62.3899   31.8917   46.4795 H   0  0  0  0  0  0  0  0  0  0  0  0
   62.5880   30.1593   46.9624 H   0  0  0  0  0  0  0  0  0  0  0  0
   60.4690   31.2360   48.5380 H   0  0  0  0  0  0  0  0  0  0  0  0
   60.3761   33.5396   47.3120 H   0  0  0  0  0  0  0  0  0  0  0  0
   59.4051   35.6276   46.3758 H   0  0  0  0  0  0  0  0  0  0  0  0
   57.7396   35.5207   44.5351 H   0  0  0  0  0  0  0  0  0  0  0  0
   57.0371   33.3302   43.6008 H   0  0  0  0  0  0  0  0  0  0  0  0
   55.9445   30.7303   43.7026 H   0  0  0  0  0  0  0  0  0  0  0  0
   57.0213   31.7372   42.6764 H   0  0  0  0  0  0  0  0  0  0  0  0
   57.1949   29.9493   42.6764 H   0  0  0  0  0  0  0  0  0  0  0  0
   59.2683   25.8938   47.1025 H   0  0  0  0  0  0  0  0  0  0  0  0
   58.3987   25.5179   45.5763 H   0  0  0  0  0  0  0  0  0  0  0  0
   60.1887   25.6689   45.5763 H   0  0  0  0  0  0  0  0  0  0  0  0
   60.4476   28.3558   47.2706 H   0  0  0  0  0  0  0  0  0  0  0  0
  1  2  1  0
  2  3  1  0
  3  4  1  0
  3  5  1  0
  5  6  1  0
  6  7  1  0
  7  8  1  0
  8  9  2  0
  9 10  1  0
 10 11  2  0
 11 12  1  0
 12 13  2  0
 13 14  1  0
 14 15  2  0
 15 16  1  0
 15 17  1  0
 17 18  1  0
 18 19  1  0
 19 20  1  0
 19 21  2  0
 21 22  1  0
 22  8  1  0
 14  9  1  0
 22 17  2  0
  1 23  1  0
  1 24  1  0
  1 25  1  0
  2 26  1  0
  2 27  1  0
  3 28  1  6
  4 29  1  0
  4 30  1  0
  4 31  1  0
  5 32  1  0
  5 33  1  0
  6 34  1  0
  6 35  1  0
  7 36  1  0
 10 37  1  0
 11 38  1  0
 12 39  1  0
 13 40  1  0
 16 41  1  0
 16 42  1  0
 16 43  1  0
 20 44  1  0
 20 45  1  0
 20 46  1  0
 21 47  1  0
M  CHG  2   3   1  15   1
M  END
>  <UniqueID>  (5) 
5

>  <SMILES>  (5) 
CC[N@@H+](C)CCNc1c2ccccc2[n+](C)c2sc(C)cc12

>  <Energy>  (5) 
95.08850231726824

>  <Genealogy>  (5) 
CC[NH+](C)CCNc1c2ccccc2[n+](C)c2sc(C)cc12 (protonated)
CC[N@@H+](C)CCNc1c2ccccc2[n+](C)c2sc(C)cc12 (chirality)
CC[N@@H+](C)CCNc1c2ccccc2[n+](C)c2sc(C)cc12 (3D coordinates assigned)
CC[N@@H+](C)CCNc1c2ccccc2[n+](C)c2sc(C)cc12 (optimized conformer: 95.08850231726824 kcal/mol)

>  <smiles>  (5) 
CCN(C)CCNc1c2ccccc2[n+](C)c2sc(C)cc12

>  <score_type>  (5) 
oracle

>  <origin>  (5) 
adg

>  <m_score__min__energy>  (5) 
-4.5899999999999999

>  <m_primary>  (5) 
energy

$$$$
5:0
     RDKit          3D

 58 60  0  0  0  0  0  0  0  0999 V2000
   63.3310   33.8780   46.4390 C   0  0  0  0  0  0  0  0  0  0  0  0
   63.1910   32.6590   47.3520 C   0  0  0  0  0  0  0  0  0  0  0  0
   62.5850   33.0200   48.6530 N   0  0  0  0  0  0  0  0  0  0  0  0
   63.6000   33.4700   49.6220 C   0  0  0  0  0  0  0  0  0  0  0  0
   61.3860   33.8960   48.5930 C   0  0  0  0  0  0  0  0  0  0  0  0
   60.2720   33.6180   49.6300 C   0  0  0  0  0  0  0  0  0  0  0  0
   59.4210   32.3780   49.3150 C   0  0  0  0  0  0  0  0  0  0  0  0
   60.2550   31.2920   48.7950 N   0  0  0  0  0  0  0  0  0  0  0  0
   59.6930   30.1290   48.1630 C   0  0  0  0  0  0  0  0  0  0  0  0
   59.2500   29.0440   48.9270 C   0  0  0  0  0  0  0  0  0  0  0  0
   58.8120   27.9190   48.3090 N   0  0  0  0  0  0  0  0  0  0  0  0
   58.7860   27.7990   46.9780 N   0  0  0  0  0  0  0  0  0  0  0  0
   58.3200   26.5550   46.4200 C   0  0  0  0  0  0  0  0  0  0  0  0
   56.9710   26.3890   46.0580 C   0  0  0  0  0  0  0  0  0  0  0  0
   56.5370   25.1850   45.4940 C   0  0  0  0  0  0  0  0  0  0  0  0
   57.4420   24.1430   45.2820 C   0  0  0  0  0  0  0  0  0  0  0  0
   58.7870   24.3040   45.6280 C   0  0  0  0  0  0  0  0  0  0  0  0
   59.2280   25.5080   46.1890 C   0  0  0  0  0  0  0  0  0  0  0  0
   59.1720   28.8450   46.1790 C   0  0  0  0  0  0  0  0  0  0  0  0
   59.1030   28.7560   44.9220 O   0  0  0  0  0  0  0  0  0  0  0  0
   59.6090   30.0410   46.7600 C   0  0  0  0  0  0  0  0  0  0  0  0
   59.9440   31.1180   45.9230 O   0  0  0  0  0  0  0  0  0  0  0  0
   59.1390   32.2510   45.6980 C   0  0  0  0  0  0  0  0  0  0  0  0
   59.7470   33.5110   45.7720 C   0  0  0  0  0  0  0  0  0  0  0  0
   58.9960   34.6750   45.5780 C   0  0  0  0  0  0  0  0  0  0  0  0
   57.6320   34.5900   45.2960 C   0  0  0  0  0  0  0  0  0  0  0  0
   57.0150   33.3400   45.1930 C   0  0  0  0  0  0  0  0  0  0  0  0
   57.7610   32.1560   45.3850 C   0  0  0  0  0  0  0  0  0  0  0  0
   57.1700   30.8890   45.2540 O   0  0  0  0  0  0  0  0  0  0  0  0
   56.6870   30.3420   44.0310 C   0  0  0  0  0  0  0  0  0  0  0  0
   63.4352   34.7853   47.0521 H   0  0  0  0  0  0  0  0  0  0  0  0
   64.2215   33.7602   45.8041 H   0  0  0  0  0  0  0  0  0  0  0  0
   62.4370   33.9652   45.8041 H   0  0  0  0  0  0  0  0  0  0  0  0
   62.5532   31.9127   46.8558 H   0  0  0  0  0  0  0  0  0  0  0  0
   64.1958   32.2533   47.5410 H   0  0  0  0  0  0  0  0  0  0  0  0
   63.2291   33.3056   50.6445 H   0  0  0  0  0  0  0  0  0  0  0  0
   64.5283   32.8991   49.4724 H   0  0  0  0  0  0  0  0  0  0  0  0
   63.8002   34.5412   49.4724 H   0  0  0  0  0  0  0  0  0  0  0  0
   61.7232   34.9333   48.7355 H   0  0  0  0  0  0  0  0  0  0  0  0
   60.9276   33.6934   47.6138 H   0  0  0  0  0  0  0  0  0  0  0  0
   60.7430   33.4736   50.6135 H   0  0  0  0  0  0  0  0  0  0  0  0
   59.5936   34.4837   49.6085 H   0  0  0  0  0  0  0  0  0  0  0  0
   58.9218   32.0402   50.2352 H   0  0  0  0  0  0  0  0  0  0  0  0
   58.6763   32.6467   48.5513 H   0  0  0  0  0  0  0  0  0  0  0  0
   61.2950   31.3880   48.8230 H   0  0  0  0  0  0  0  0  0  0  0  0
   59.2569   29.1031   50.0254 H   0  0  0  0  0  0  0  0  0  0  0  0
   56.2552   27.2086   46.2190 H   0  0  0  0  0  0  0  0  0  0  0  0
   55.4801   25.0586   45.2167 H   0  0  0  0  0  0  0  0  0  0  0  0
   57.0967   23.1955   44.8428 H   0  0  0  0  0  0  0  0  0  0  0  0
   59.4996   23.4832   45.4591 H   0  0  0  0  0  0  0  0  0  0  0  0
   60.2890   25.6350   46.4499 H   0  0  0  0  0  0  0  0  0  0  0  0
   60.8237   33.5855   45.9844 H   0  0  0  0  0  0  0  0  0  0  0  0
   59.4817   35.6595   45.6479 H   0  0  0  0  0  0  0  0  0  0  0  0
   57.0418   35.5075   45.1546 H   0  0  0  0  0  0  0  0  0  0  0  0
   55.9416   33.2779   44.9609 H   0  0  0  0  0  0  0  0  0  0  0  0
   55.9732   29.5336   44.2475 H   0  0  0  0  0  0  0  0  0  0  0  0
   56.1841   31.1294   43.4504 H   0  0  0  0  0  0  0  0  0  0  0  0
   57.5306   29.9405   43.4504 H   0  0  0  0  0  0  0  0  0  0  0  0
  1  2  1  0
  2  3  1  0
  3  4  1  0
  3  5  1  0
  5  6  1  0
  6  7  1  0
  7  8  1  0
  8  9  1  0
  9 10  1  0
 10 11  2  0
 11 12  1  0
 12 13  1  0
 13 14  2  0
 14 15  1  0
 15 16  2  0
 16 17  1  0
 17 18  2  0
 12 19  1  0
 19 20  2  0
 19 21  1  0
 21 22  1  0
 22 23  1  0
 23 24  2  0
 24 25  1  0
 25 26  2  0
 26 27  1  0
 27 28  2  0
 28 29  1  0
 29 30  1  0
 21  9  2  0
 28 23  1  0
 18 13  1  0
  1 31  1  0
  1 32  1  0
  1 33  1  0
  2 34  1  0
  2 35  1  0
  4 36  1  0
  4 37  1  0
  4 38  1  0
  5 39  1  0
  5 40  1  0
  6 41  1  0
  6 42  1  0
  7 43  1  0
  7 44  1  0
  8 45  1  0
 10 46  1  0
 14 47  1  0
 15 48  1  0
 16 49  1  0
 17 50  1  0
 18 51  1  0
 24 52  1  0
 25 53  1  0
 26 54  1  0
 27 55  1  0
 30 56  1  0
 30 57  1  0
 30 58  1  0
M  END
>  <UniqueID>  (6) 
6

>  <SMILES>  (6) 
CCN(C)CCCNc1cnn(-c2ccccc2)c(=O)c1Oc1ccccc1OC

>  <Energy>  (6) 
78.06109609040713

>  <Genealogy>  (6) 
CCN(C)CCCNc1cnn(-c2ccccc2)c(=O)c1Oc1ccccc1OC (3D coordinates assigned)
CCN(C)CCCNc1cnn(-c2ccccc2)c(=O)c1Oc1ccccc1OC (optimized conformer: 78.06109609040713 kcal/mol)

>  <smiles>  (6) 
CCN(C)CCCNc1cnn(-c2ccccc2)c(=O)c1Oc1ccccc1OC

>  <score_type>  (6) 
oracle

>  <origin>  (6) 
adg

>  <m_score__min__energy>  (6) 
-6.8600000000000003

>  <m_primary>  (6) 
energy

$$$$
6:0
     RDKit          3D

 50 53  0  0  0  0  0  0  0  0999 V2000
   63.3720   32.7410   48.1880 C   0  0  0  0  0  0  0  0  0  0  0  0
   62.9090   33.9830   48.9420 C   0  0  0  0  0  0  0  0  0  0  0  0
   61.4890   33.9960   49.0770 O   0  0  0  0  0  0  0  0  0  0  0  0
   60.5660   33.8430   48.0280 C   0  0  0  0  0  0  0  0  0  0  0  0
   60.8520   34.2190   46.7010 C   0  0  0  0  0  0  0  0  0  0  0  0
   59.8920   34.0480   45.6970 C   0  0  0  0  0  0  0  0  0  0  0  0
   58.6300   33.5170   46.0070 C   0  0  0  0  0  0  0  0  0  0  0  0
   57.6350   33.3100   44.9950 N   0  0  0  0  0  0  0  0  0  0  0  0
   57.4930   32.1460   44.1690 C   0  0  0  0  0  0  0  0  0  0  0  0
   57.5910   32.2760   42.9200 O   0  0  0  0  0  0  0  0  0  0  0  0
   57.3270   30.7620   44.7600 C   0  0  0  0  0  0  0  0  0  0  0  0
   56.5770   29.8160   43.7800 C   0  0  0  0  0  0  0  0  0  0  0  0
   57.3990   28.5890   43.3630 C   0  0  0  0  0  0  0  0  0  0  0  0
   57.9690   27.9270   44.5470 N   0  0  0  0  0  0  0  0  0  0  0  0
   58.0270   26.4860   44.6320 C   0  0  0  0  0  0  0  0  0  0  0  0
   57.3550   25.6560   43.7910 N   0  0  0  0  0  0  0  0  0  0  0  0
   57.5680   24.3500   44.0960 C   0  0  0  0  0  0  0  0  0  0  0  0
   57.0120   23.2680   43.4070 C   0  0  0  0  0  0  0  0  0  0  0  0
   57.3210   21.9650   43.8350 C   0  0  0  0  0  0  0  0  0  0  0  0
   58.1730   21.7570   44.9380 C   0  0  0  0  0  0  0  0  0  0  0  0
   58.7240   22.8520   45.6240 C   0  0  0  0  0  0  0  0  0  0  0  0
   58.4050   24.1330   45.1810 C   0  0  0  0  0  0  0  0  0  0  0  0
   58.9070   25.6130   45.7940 S   0  0  0  0  0  0  0  0  0  0  0  0
   58.5900   28.7370   45.6060 C   0  0  0  0  0  0  0  0  0  0  0  0
   58.6970   30.2110   45.1990 C   0  0  0  0  0  0  0  0  0  0  0  0
   58.3600   33.1110   47.3180 C   0  0  0  0  0  0  0  0  0  0  0  0
   59.3190   33.2810   48.3230 C   0  0  0  0  0  0  0  0  0  0  0  0
   63.6624   31.9619   48.9082 H   0  0  0  0  0  0  0  0  0  0  0  0
   62.5522   32.3689   47.5560 H   0  0  0  0  0  0  0  0  0  0  0  0
   64.2353   32.9963   47.5560 H   0  0  0  0  0  0  0  0  0  0  0  0
   63.3661   33.9883   49.9425 H   0  0  0  0  0  0  0  0  0  0  0  0
   63.2165   34.8739   48.3747 H   0  0  0  0  0  0  0  0  0  0  0  0
   61.8337   34.6487   46.4528 H   0  0  0  0  0  0  0  0  0  0  0  0
   60.1274   34.3309   44.6604 H   0  0  0  0  0  0  0  0  0  0  0  0
   56.6959   30.8255   45.6587 H   0  0  0  0  0  0  0  0  0  0  0  0
   55.6555   29.4677   44.2693 H   0  0  0  0  0  0  0  0  0  0  0  0
   56.3721   30.3935   42.8665 H   0  0  0  0  0  0  0  0  0  0  0  0
   56.7478   27.8806   42.8300 H   0  0  0  0  0  0  0  0  0  0  0  0
   58.2195   28.9153   42.7070 H   0  0  0  0  0  0  0  0  0  0  0  0
   56.7540   25.9710   42.9970 H   0  0  0  0  0  0  0  0  0  0  0  0
   56.3461   23.4329   42.5472 H   0  0  0  0  0  0  0  0  0  0  0  0
   56.8943   21.1009   43.3046 H   0  0  0  0  0  0  0  0  0  0  0  0
   58.4076   20.7327   45.2632 H   0  0  0  0  0  0  0  0  0  0  0  0
   59.3890   22.7017   46.4872 H   0  0  0  0  0  0  0  0  0  0  0  0
   57.9791   28.6618   46.5177 H   0  0  0  0  0  0  0  0  0  0  0  0
   59.6060   28.3537   45.7814 H   0  0  0  0  0  0  0  0  0  0  0  0
   59.0621   30.7956   46.0563 H   0  0  0  0  0  0  0  0  0  0  0  0
   59.3953   30.2917   44.3529 H   0  0  0  0  0  0  0  0  0  0  0  0
   57.3885   32.6556   47.5604 H   0  0  0  0  0  0  0  0  0  0  0  0
   59.0906   32.9703   49.3532 H   0  0  0  0  0  0  0  0  0  0  0  0
  1  2  1  0
  2  3  1  0
  3  4  1  0
  4  5  2  0
  5  6  1  0
  6  7  2  0
  7  8  1  0
  8  9  1  0
  9 10  2  0
  9 11  1  0
 11 12  1  0
 12 13  1  0
 13 14  1  0
 14 15  1  0
 15 16  2  0
 16 17  1  0
 17 18  2  0
 18 19  1  0
 19 20  2  0
 20 21  1  0
 21 22  2  0
 22 23  1  0
 14 24  1  0
 24 25  1  0
  7 26  1  0
 26 27  2  0
 27  4  1  0
 25 11  1  0
 23 15  1  0
 22 17  1  0
  1 28  1  0
  1 29  1  0
  1 30  1  0
  2 31  1  0
  2 32  1  0
  5 33  1  0
  6 34  1  0
 11 35  1  0
 12 36  1  0
 12 37  1  0
 13 38  1  0
 13 39  1  0
 16 40  1  0
 18 41  1  0
 19 42  1  0
 20 43  1  0
 21 44  1  0
 24 45  1  0
 24 46  1  0
 25 47  1  0
 25 48  1  0
 26 49  1  0
 27 50  1  0
M  CHG  2   8  -1  16   1
M  END
>  <UniqueID>  (7) 
7

>  <SMILES>  (7) 
CCOc1ccc([N-]C(=O)C2CCN(c3[nH+]c4ccccc4s3)CC2)cc1

>  <Energy>  (7) 
93.18856312460623

>  <Genealogy>  (7) 
CCOc1ccc([N-]C(=O)C2CCN(c3[nH+]c4ccccc4s3)CC2)cc1 (protonated)
CCOc1ccc([N-]C(=O)C2CCN(c3[nH+]c4ccccc4s3)CC2)cc1 (3D coordinates assigned)
CCOc1ccc([N-]C(=O)C2CCN(c3[nH+]c4ccccc4s3)CC2)cc1 (nonaromatic ring conformer: 93.18856312460623 kcal/mol)

>  <smiles>  (7) 
CCOc1ccc(NC(=O)C2CCN(c3nc4ccccc4s3)CC2)cc1

>  <score_type>  (7) 
oracle

>  <origin>  (7) 
adg

>  <m_score__min__energy>  (7) 
-8.2899999999999991

>  <m_primary>  (7) 
energy

$$$$
7:0
     RDKit          3D

 45 46  0  0  0  0  0  0  0  0999 V2000
   57.2960   33.3490   47.1220 C   0  0  0  0  0  0  0  0  0  0  0  0
   57.1370   33.6980   45.6330 C   0  0  0  0  0  0  0  0  0  0  0  0
   58.2420   33.2130   44.7710 N   0  0  0  0  0  0  0  0  0  0  0  0
   59.2920   34.2280   44.5490 C   0  0  0  0  0  0  0  0  0  0  0  0
   59.6670   34.9040   45.8650 C   0  0  0  0  0  0  0  0  0  0  0  0
   57.7660   32.5790   43.5190 C   0  0  0  0  0  0  0  0  0  0  0  0
   57.7350   31.0600   43.6870 C   0  0  0  0  0  0  0  0  0  0  0  0
   56.7720   30.7050   44.6670 O   0  0  0  0  0  0  0  0  0  0  0  0
   57.0430   29.4380   45.2350 C   0  0  0  0  0  0  0  0  0  0  0  0
   58.2370   29.4990   46.1420 C   0  0  0  0  0  0  0  0  0  0  0  0
   58.5870   28.4580   46.7620 O   0  0  0  0  0  0  0  0  0  0  0  0
   58.9090   30.7500   46.3680 N   0  0  0  0  0  0  0  0  0  0  0  0
   60.0110   30.9240   47.2740 C   0  0  0  0  0  0  0  0  0  0  0  0
   60.0910   30.2020   48.4920 C   0  0  0  0  0  0  0  0  0  0  0  0
   61.1760   30.3860   49.3660 C   0  0  0  0  0  0  0  0  0  0  0  0
   62.1810   31.2830   49.0100 C   0  0  0  0  0  0  0  0  0  0  0  0
   63.2780   31.5470   49.7640 N   0  0  0  0  0  0  0  0  0  0  0  0
   64.0740   32.4610   49.1580 C   0  0  0  0  0  0  0  0  0  0  0  0
   65.3820   32.9050   49.7180 C   0  0  0  0  0  0  0  0  0  0  0  0
   63.4650   32.9490   47.6540 S   0  0  0  0  0  0  0  0  0  0  0  0
   62.1130   31.9670   47.8080 C   0  0  0  0  0  0  0  0  0  0  0  0
   61.0560   31.7990   46.9200 C   0  0  0  0  0  0  0  0  0  0  0  0
   56.9175   34.1797   47.7358 H   0  0  0  0  0  0  0  0  0  0  0  0
   56.7248   32.4364   47.3477 H   0  0  0  0  0  0  0  0  0  0  0  0
   58.3594   33.1812   47.3477 H   0  0  0  0  0  0  0  0  0  0  0  0
   56.1981   33.2520   45.2730 H   0  0  0  0  0  0  0  0  0  0  0  0
   57.1427   34.7959   45.5645 H   0  0  0  0  0  0  0  0  0  0  0  0
   60.1827   33.7411   44.1252 H   0  0  0  0  0  0  0  0  0  0  0  0
   58.9099   34.9897   43.8534 H   0  0  0  0  0  0  0  0  0  0  0  0
   59.3233   34.2844   46.7064 H   0  0  0  0  0  0  0  0  0  0  0  0
   60.7594   35.0217   45.9185 H   0  0  0  0  0  0  0  0  0  0  0  0
   59.1886   35.8931   45.9185 H   0  0  0  0  0  0  0  0  0  0  0  0
   56.7535   32.9416   43.2881 H   0  0  0  0  0  0  0  0  0  0  0  0
   58.4494   32.8396   42.6974 H   0  0  0  0  0  0  0  0  0  0  0  0
   57.4697   30.5917   42.7277 H   0  0  0  0  0  0  0  0  0  0  0  0
   58.7269   30.7095   44.0084 H   0  0  0  0  0  0  0  0  0  0  0  0
   56.1677   29.1090   45.8143 H   0  0  0  0  0  0  0  0  0  0  0  0
   57.2565   28.7282   44.4222 H   0  0  0  0  0  0  0  0  0  0  0  0
   58.4750   31.6110   45.9640 H   0  0  0  0  0  0  0  0  0  0  0  0
   59.2950   29.4901   48.7556 H   0  0  0  0  0  0  0  0  0  0  0  0
   61.2309   29.8316   50.3145 H   0  0  0  0  0  0  0  0  0  0  0  0
   65.3348   32.8890   50.8169 H   0  0  0  0  0  0  0  0  0  0  0  0
   66.1770   32.2264   49.3752 H   0  0  0  0  0  0  0  0  0  0  0  0
   65.5996   33.9273   49.3752 H   0  0  0  0  0  0  0  0  0  0  0  0
   61.0367   32.3382   45.9614 H   0  0  0  0  0  0  0  0  0  0  0  0
  1  2  1  0
  2  3  1  0
  3  4  1  0
  4  5  1  0
  3  6  1  0
  6  7  1  0
  7  8  1  0
  8  9  1  0
  9 10  1  0
 10 11  2  0
 10 12  1  0
 12 13  1  0
 13 14  2  0
 14 15  1  0
 15 16  2  0
 16 17  1  0
 17 18  2  0
 18 19  1  0
 18 20  1  0
 20 21  1  0
 21 22  2  0
 22 13  1  0
 21 16  1  0
  1 23  1  0
  1 24  1  0
  1 25  1  0
  2 26  1  0
  2 27  1  0
  4 28  1  0
  4 29  1  0
  5 30  1  0
  5 31  1  0
  5 32  1  0
  6 33  1  0
  6 34  1  0
  7 35  1  0
  7 36  1  0
  9 37  1  0
  9 38  1  0
 12 39  1  0
 14 40  1  0
 15 41  1  0
 19 42  1  0
 19 43  1  0
 19 44  1  0
 22 45  1  0
M  END
>  <UniqueID>  (8) 
8

>  <SMILES>  (8) 
CCN(CC)CCOCC(=O)Nc1ccc2nc(C)sc2c1

>  <Energy>  (8) 
80.34173388572877

>  <Genealogy>  (8) 
CCN(CC)CCOCC(=O)Nc1ccc2nc(C)sc2c1 (3D coordinates assigned)
CCN(CC)CCOCC(=O)Nc1ccc2nc(C)sc2c1 (optimized conformer: 80.34173388572877 kcal/mol)

>  <smiles>  (8) 
CCN(CC)CCOCC(=O)Nc1ccc2nc(C)sc2c1

>  <score_type>  (8) 
oracle

>  <origin>  (8) 
adg

>  <m_score__min__energy>  (8) 
-6.1200000000000001

>  <m_primary>  (8) 
energy

$$$$
8:0
     RDKit          3D

 73 77  0  0  0  0  0  0  0  0999 V2000
   62.5260   24.9550   52.4510 C   0  0  0  0  0  0  0  0  0  0  0  0
   63.2650   26.1360   51.9750 N   0  0  0  0  0  0  0  0  0  0  0  0
   64.7100   25.9920   52.2090 C   0  0  0  0  0  0  0  0  0  0  0  0
   62.7190   27.4110   52.4930 C   0  0  0  0  0  0  0  0  0  0  0  0
   61.3970   27.8520   51.8230 C   0  0  0  0  0  0  0  0  0  0  0  0
   61.2790   27.2770   50.5180 O   0  0  0  0  0  0  0  0  0  0  0  0
   60.6730   27.8910   49.4090 C   0  0  0  0  0  0  0  0  0  0  0  0
   60.6040   27.2760   48.1400 C   0  0  0  0  0  0  0  0  0  0  0  0
   59.9790   27.9340   47.0760 C   0  0  0  0  0  0  0  0  0  0  0  0
   59.3940   29.1940   47.2650 C   0  0  0  0  0  0  0  0  0  0  0  0
   58.6900   29.8560   46.1570 C   0  0  0  0  0  0  0  0  0  0  0  0
   58.6930   31.1550   45.9610 O   0  0  0  0  0  0  0  0  0  0  0  0
   57.9240   31.3890   44.9210 C   0  0  0  0  0  0  0  0  0  0  0  0
   57.6650   32.7570   44.3620 C   0  0  0  0  0  0  0  0  0  0  0  0
   58.1600   33.9140   45.2580 C   0  0  0  0  0  0  0  0  0  0  0  0
   59.6460   34.2370   45.1350 C   0  0  0  0  0  0  0  0  0  0  0  0
   60.0130   34.9410   46.4430 C   0  0  0  0  0  0  0  0  0  0  0  0
   58.8860   34.6580   47.4380 C   0  0  0  0  0  0  0  0  0  0  0  0
   57.9280   33.6970   46.7480 C   0  0  0  0  0  0  0  0  0  0  0  0
   57.4030   30.2570   44.4080 N   0  0  0  0  0  0  0  0  0  0  0  0
   57.8950   29.2720   45.1820 C   0  0  0  0  0  0  0  0  0  0  0  0
   57.7150   27.8350   44.8960 C   0  0  0  0  0  0  0  0  0  0  0  0
   58.0240   27.3120   43.6280 C   0  0  0  0  0  0  0  0  0  0  0  0
   57.7700   25.9680   43.3350 C   0  0  0  0  0  0  0  0  0  0  0  0
   57.2050   25.1260   44.3060 C   0  0  0  0  0  0  0  0  0  0  0  0
   56.9230   23.7440   44.0100 N   0  0  0  0  0  0  0  0  0  0  0  0
   57.2840   22.6940   44.9680 C   0  0  0  0  0  0  0  0  0  0  0  0
   57.4930   21.3710   44.2240 C   0  0  0  0  0  0  0  0  0  0  0  0
   56.3660   21.0650   43.4200 O   0  0  0  0  0  0  0  0  0  0  0  0
   56.2290   22.0310   42.3930 C   0  0  0  0  0  0  0  0  0  0  0  0
   55.9280   23.4130   42.9840 C   0  0  0  0  0  0  0  0  0  0  0  0
   56.9040   25.6470   45.5730 C   0  0  0  0  0  0  0  0  0  0  0  0
   57.1490   26.9920   45.8640 C   0  0  0  0  0  0  0  0  0  0  0  0
   59.4510   29.8030   48.5280 C   0  0  0  0  0  0  0  0  0  0  0  0
   60.1060   29.1620   49.5850 C   0  0  0  0  0  0  0  0  0  0  0  0
   62.5198   24.9451   53.5509 H   0  0  0  0  0  0  0  0  0  0  0  0
   61.4916   24.9952   52.0789 H   0  0  0  0  0  0  0  0  0  0  0  0
   63.0144   24.0423   52.0789 H   0  0  0  0  0  0  0  0  0  0  0  0
   64.9060   25.9725   53.2912 H   0  0  0  0  0  0  0  0  0  0  0  0
   65.0632   25.0542   51.7554 H   0  0  0  0  0  0  0  0  0  0  0  0
   65.2414   26.8416   51.7554 H   0  0  0  0  0  0  0  0  0  0  0  0
   62.5375   27.2958   53.5718 H   0  0  0  0  0  0  0  0  0  0  0  0
   63.4632   28.1890   52.2672 H   0  0  0  0  0  0  0  0  0  0  0  0
   60.5499   27.5214   52.4419 H   0  0  0  0  0  0  0  0  0  0  0  0
   61.3944   28.9480   51.7298 H   0  0  0  0  0  0  0  0  0  0  0  0
   61.0422   26.2785   47.9881 H   0  0  0  0  0  0  0  0  0  0  0  0
   59.9462   27.4597   46.0840 H   0  0  0  0  0  0  0  0  0  0  0  0
   58.1725   32.8333   43.3891 H   0  0  0  0  0  0  0  0  0  0  0  0
   56.5730   32.8639   44.2841 H   0  0  0  0  0  0  0  0  0  0  0  0
   57.5488   34.7427   44.8710 H   0  0  0  0  0  0  0  0  0  0  0  0
   60.2328   33.3142   45.0158 H   0  0  0  0  0  0  0  0  0  0  0  0
   59.8592   34.8640   44.2567 H   0  0  0  0  0  0  0  0  0  0  0  0
   60.9648   34.5474   46.8291 H   0  0  0  0  0  0  0  0  0  0  0  0
   60.1330   36.0229   46.2849 H   0  0  0  0  0  0  0  0  0  0  0  0
   59.2923   34.1986   48.3511 H   0  0  0  0  0  0  0  0  0  0  0  0
   58.3738   35.5861   47.7319 H   0  0  0  0  0  0  0  0  0  0  0  0
   58.1545   32.6575   47.0275 H   0  0  0  0  0  0  0  0  0  0  0  0
   56.8817   33.8785   47.0348 H   0  0  0  0  0  0  0  0  0  0  0  0
   56.7980   30.1650   43.5600 H   0  0  0  0  0  0  0  0  0  0  0  0
   58.4683   27.9639   42.8615 H   0  0  0  0  0  0  0  0  0  0  0  0
   58.0140   25.5691   42.3394 H   0  0  0  0  0  0  0  0  0  0  0  0
   58.2134   22.9741   45.4855 H   0  0  0  0  0  0  0  0  0  0  0  0
   56.4748   22.5761   45.7037 H   0  0  0  0  0  0  0  0  0  0  0  0
   58.3825   21.4542   43.5823 H   0  0  0  0  0  0  0  0  0  0  0  0
   57.6292   20.5674   44.9627 H   0  0  0  0  0  0  0  0  0  0  0  0
   57.1650   22.0808   41.8172 H   0  0  0  0  0  0  0  0  0  0  0  0
   55.3939   21.7365   41.7404 H   0  0  0  0  0  0  0  0  0  0  0  0
   55.9637   24.1675   42.1843 H   0  0  0  0  0  0  0  0  0  0  0  0
   54.9270   23.4020   43.4400 H   0  0  0  0  0  0  0  0  0  0  0  0
   56.4717   24.9919   46.3437 H   0  0  0  0  0  0  0  0  0  0  0  0
   56.8967   27.3916   46.8573 H   0  0  0  0  0  0  0  0  0  0  0  0
   58.9806   30.7846   48.6869 H   0  0  0  0  0  0  0  0  0  0  0  0
   60.1771   29.6594   50.5635 H   0  0  0  0  0  0  0  0  0  0  0  0
  1  2  1  0
  2  3  1  0
  2  4  1  0
  4  5  1  0
  5  6  1  0
  6  7  1  0
  7  8  2  0
  8  9  1  0
  9 10  2  0
 10 11  1  0
 11 12  1  0
 12 13  1  0
 13 14  1  0
 14 15  1  0
 15 16  1  0
 16 17  1  0
 17 18  1  0
 18 19  1  0
 13 20  2  0
 20 21  1  0
 21 22  1  0
 22 23  2  0
 23 24  1  0
 24 25  2  0
 25 26  1  0
 26 27  1  0
 27 28  1  0
 28 29  1  0
 29 30  1  0
 30 31  1  0
 25 32  1  0
 32 33  2  0
 10 34  1  0
 34 35  2  0
 35  7  1  0
 21 11  2  0
 33 22  1  0
 19 15  1  0
 31 26  1  0
  1 36  1  0
  1 37  1  0
  1 38  1  0
  3 39  1  0
  3 40  1  0
  3 41  1  0
  4 42  1  0
  4 43  1  0
  5 44  1  0
  5 45  1  0
  8 46  1  0
  9 47  1  0
 14 48  1  0
 14 49  1  0
 15 50  1  0
 16 51  1  0
 16 52  1  0
 17 53  1  0
 17 54  1  0
 18 55  1  0
 18 56  1  0
 19 57  1  0
 19 58  1  0
 20 59  1  0
 23 60  1  0
 24 61  1  0
 27 62  1  0
 27 63  1  0
 28 64  1  0
 28 65  1  0
 30 66  1  0
 30 67  1  0
 31 68  1  0
 31 69  1  0
 32 70  1  0
 33 71  1  0
 34 72  1  0
 35 73  1  0
M  CHG  1  20   1
M  END
>  <UniqueID>  (9) 
9

>  <SMILES>  (9) 
CN(C)CCOc1ccc(-c2oc(CC3CCCC3)[nH+]c2-c2ccc(N3CCOCC3)cc2)cc1

>  <Energy>  (9) 
122.4848687882239

>  <Genealogy>  (9) 
CN(C)CCOc1ccc(-c2oc(CC3CCCC3)[nH+]c2-c2ccc(N3CCOCC3)cc2)cc1 (protonated)
CN(C)CCOc1ccc(-c2oc(CC3CCCC3)[nH+]c2-c2ccc(N3CCOCC3)cc2)cc1 (3D coordinates assigned)
CN(C)CCOc1ccc(-c2oc(CC3CCCC3)[nH+]c2-c2ccc(N3CCOCC3)cc2)cc1 (nonaromatic ring conformer: 122.4848687882239 kcal/mol)

>  <smiles>  (9) 
CN(C)CCOc1ccc(-c2oc(CC3CCCC3)nc2-c2ccc(N3CCOCC3)cc2)cc1

>  <score_type>  (9) 
oracle

>  <origin>  (9) 
adg

>  <m_score__min__energy>  (9) 
-7.5800000000000001

>  <m_primary>  (9) 
energy

$$$$
9:0
     RDKit          3D

 37 39  0  0  0  0  0  0  0  0999 V2000
   56.4120   30.0940   43.1480 C   0  0  0  0  0  0  0  0  0  0  0  0
   56.3350   30.5470   44.4960 O   0  0  0  0  0  0  0  0  0  0  0  0
   57.3880   31.1600   45.1960 C   0  0  0  0  0  0  0  0  0  0  0  0
   57.4680   32.5590   45.3280 C   0  0  0  0  0  0  0  0  0  0  0  0
   58.5170   33.1480   46.0360 C   0  0  0  0  0  0  0  0  0  0  0  0
   59.5080   32.3550   46.6330 C   0  0  0  0  0  0  0  0  0  0  0  0
   60.6220   32.9820   47.3890 C   0  0  0  0  0  0  0  0  0  0  0  0
   60.3760   33.6450   48.6080 C   0  0  0  0  0  0  0  0  0  0  0  0
   61.4270   34.2320   49.3170 C   0  0  0  0  0  0  0  0  0  0  0  0
   62.7310   34.1690   48.8230 C   0  0  0  0  0  0  0  0  0  0  0  0
   62.9880   33.5150   47.6150 C   0  0  0  0  0  0  0  0  0  0  0  0
   64.2550   33.4560   47.1340 F   0  0  0  0  0  0  0  0  0  0  0  0
   61.9410   32.9220   46.9010 C   0  0  0  0  0  0  0  0  0  0  0  0
   59.4300   30.9580   46.5050 C   0  0  0  0  0  0  0  0  0  0  0  0
   58.3890   30.3540   45.7800 C   0  0  0  0  0  0  0  0  0  0  0  0
   58.3480   28.8480   45.6760 C   0  0  0  0  0  0  0  0  0  0  0  0
   57.0090   28.3490   45.9820 N   0  0  0  0  0  0  0  0  0  0  0  0
   56.7670   27.0080   46.3340 N   0  0  0  0  0  0  0  0  0  0  0  0
   57.5390   26.2320   47.1090 C   0  0  0  0  0  0  0  0  0  0  0  0
   56.9970   25.0060   47.2380 N   0  0  0  0  0  0  0  0  0  0  0  0
   55.8670   25.0010   46.5410 N   0  0  0  0  0  0  0  0  0  0  0  0
   55.7300   26.2240   45.9930 C   0  0  0  0  0  0  0  0  0  0  0  0
   56.5963   29.0096   43.1356 H   0  0  0  0  0  0  0  0  0  0  0  0
   55.4641   30.3107   42.6336 H   0  0  0  0  0  0  0  0  0  0  0  0
   57.2350   30.6117   42.6336 H   0  0  0  0  0  0  0  0  0  0  0  0
   56.6964   33.1944   44.8688 H   0  0  0  0  0  0  0  0  0  0  0  0
   58.5668   34.2431   46.1265 H   0  0  0  0  0  0  0  0  0  0  0  0
   59.3510   33.7006   49.0034 H   0  0  0  0  0  0  0  0  0  0  0  0
   61.2260   34.7460   50.2685 H   0  0  0  0  0  0  0  0  0  0  0  0
   63.5554   34.6336   49.3839 H   0  0  0  0  0  0  0  0  0  0  0  0
   62.1499   32.4057   45.9524 H   0  0  0  0  0  0  0  0  0  0  0  0
   60.1960   30.3273   46.9798 H   0  0  0  0  0  0  0  0  0  0  0  0
   58.6208   28.5484   44.6533 H   0  0  0  0  0  0  0  0  0  0  0  0
   59.0595   28.4225   46.3989 H   0  0  0  0  0  0  0  0  0  0  0  0
   56.2090   29.0210   45.9610 H   0  0  0  0  0  0  0  0  0  0  0  0
   58.4829   26.5522   47.5742 H   0  0  0  0  0  0  0  0  0  0  0  0
   54.8888   26.5366   45.3568 H   0  0  0  0  0  0  0  0  0  0  0  0
  1  2  1  0
  2  3  1  0
  3  4  2  0
  4  5  1  0
  5  6  2  0
  6  7  1  0
  7  8  2  0
  8  9  1  0
  9 10  2  0
 10 11  1  0
 11 12  1  0
 11 13  2  0
  6 14  1  0
 14 15  2  0
 15 16  1  0
 16 17  1  0
 17 18  1  0
 18 19  1  0
 19 20  2  0
 20 21  1  0
 21 22  2  0
 15  3  1  0
 22 18  1  0
 13  7  1  0
  1 23  1  0
  1 24  1  0
  1 25  1  0
  4 26  1  0
  5 27  1  0
  8 28  1  0
  9 29  1  0
 10 30  1  0
 13 31  1  0
 14 32  1  0
 16 33  1  0
 16 34  1  0
 17 35  1  0
 19 36  1  0
 22 37  1  0
M  END
>  <UniqueID>  (10) 
10

>  <SMILES>  (10) 
COc1ccc(-c2cccc(F)c2)cc1CNn1cnnc1

>  <Energy>  (10) 
78.2492879075764

>  <Genealogy>  (10) 
COc1ccc(-c2cccc(F)c2)cc1CNn1cnnc1 (3D coordinates assigned)
COc1ccc(-c2cccc(F)c2)cc1CNn1cnnc1 (optimized conformer: 78.2492879075764 kcal/mol)

>  <smiles>  (10) 
COc1ccc(-c2cccc(F)c2)cc1CNn1cnnc1

>  <score_type>  (10) 
oracle

>  <origin>  (10) 
adg

>  <m_score__min__energy>  (10) 
-6.6500000000000004

>  <m_primary>  (10) 
energy

$$$$
10:0
     RDKit          3D

 49 50  0  0  0  0  0  0  0  0999 V2000
   56.9720   34.3220   45.2430 C   0  0  0  0  0  0  0  0  0  0  0  0
   57.5820   33.5610   46.4150 C   0  0  0  0  0  0  0  0  0  0  0  0
   58.8480   32.9190   46.0280 N   0  0  0  0  0  0  0  0  0  0  0  0
   60.0120   33.7420   45.6750 C   0  0  0  0  0  0  0  0  0  0  0  0
   59.9890   35.0860   46.3940 C   0  0  0  0  0  0  0  0  0  0  0  0
   58.9270   31.4800   45.9370 C   0  0  0  0  0  0  0  0  0  0  0  0
   59.7220   30.7470   46.8670 C   0  0  0  0  0  0  0  0  0  0  0  0
   60.4560   31.4260   47.9250 N   0  0  0  0  0  0  0  0  0  0  0  0
   61.8220   30.9160   48.1710 C   0  0  0  0  0  0  0  0  0  0  0  0
   62.9310   31.7600   47.5100 C   0  0  0  0  0  0  0  0  0  0  0  0
   62.5440   33.1810   47.3760 N   0  0  0  0  0  0  0  0  0  0  0  0
   63.3940   33.8400   46.3720 C   0  0  0  0  0  0  0  0  0  0  0  0
   62.6630   33.8940   48.6600 C   0  0  0  0  0  0  0  0  0  0  0  0
   59.6530   29.3380   46.8490 C   0  0  0  0  0  0  0  0  0  0  0  0
   58.9200   28.6640   45.8800 C   0  0  0  0  0  0  0  0  0  0  0  0
   58.1880   29.3700   44.9240 C   0  0  0  0  0  0  0  0  0  0  0  0
   57.4520   28.6750   43.9520 C   0  0  0  0  0  0  0  0  0  0  0  0
   56.6940   29.3730   43.0120 C   0  0  0  0  0  0  0  0  0  0  0  0
   56.6600   30.7660   43.0370 C   0  0  0  0  0  0  0  0  0  0  0  0
   57.3880   31.4700   43.9990 C   0  0  0  0  0  0  0  0  0  0  0  0
   58.1700   30.7870   44.9540 C   0  0  0  0  0  0  0  0  0  0  0  0
   56.3267   35.1270   45.6245 H   0  0  0  0  0  0  0  0  0  0  0  0
   57.7754   34.7557   44.6295 H   0  0  0  0  0  0  0  0  0  0  0  0
   56.3738   33.6323   44.6295 H   0  0  0  0  0  0  0  0  0  0  0  0
   57.7728   34.2638   47.2394 H   0  0  0  0  0  0  0  0  0  0  0  0
   56.8754   32.7789   46.7296 H   0  0  0  0  0  0  0  0  0  0  0  0
   60.9287   33.2027   45.9559 H   0  0  0  0  0  0  0  0  0  0  0  0
   59.9833   33.9312   44.5918 H   0  0  0  0  0  0  0  0  0  0  0  0
   59.9918   34.9202   47.4814 H   0  0  0  0  0  0  0  0  0  0  0  0
   60.8773   35.6692   46.1097 H   0  0  0  0  0  0  0  0  0  0  0  0
   59.0813   35.6384   46.1097 H   0  0  0  0  0  0  0  0  0  0  0  0
   60.5360   32.4500   47.7380 H   0  0  0  0  0  0  0  0  0  0  0  0
   59.9090   31.3170   48.8110 H   0  0  0  0  0  0  0  0  0  0  0  0
   61.9969   30.9032   49.2569 H   0  0  0  0  0  0  0  0  0  0  0  0
   61.8742   29.9124   47.7238 H   0  0  0  0  0  0  0  0  0  0  0  0
   63.8399   31.6966   48.1264 H   0  0  0  0  0  0  0  0  0  0  0  0
   63.1046   31.3597   46.5002 H   0  0  0  0  0  0  0  0  0  0  0  0
   64.1651   34.4378   46.8799 H   0  0  0  0  0  0  0  0  0  0  0  0
   63.8765   33.0776   45.7427 H   0  0  0  0  0  0  0  0  0  0  0  0
   62.7759   34.4972   45.7427 H   0  0  0  0  0  0  0  0  0  0  0  0
   62.5438   33.1800   49.4883 H   0  0  0  0  0  0  0  0  0  0  0  0
   63.6529   34.3693   48.7251 H   0  0  0  0  0  0  0  0  0  0  0  0
   61.8811   34.6650   48.7251 H   0  0  0  0  0  0  0  0  0  0  0  0
   60.1899   28.7619   47.6170 H   0  0  0  0  0  0  0  0  0  0  0  0
   58.9165   27.5641   45.8661 H   0  0  0  0  0  0  0  0  0  0  0  0
   57.4730   27.5754   43.9314 H   0  0  0  0  0  0  0  0  0  0  0  0
   56.1222   28.8232   42.2499 H   0  0  0  0  0  0  0  0  0  0  0  0
   56.0578   31.3130   42.2966 H   0  0  0  0  0  0  0  0  0  0  0  0
   57.3511   32.5693   44.0121 H   0  0  0  0  0  0  0  0  0  0  0  0
  1  2  1  0
  2  3  1  0
  3  4  1  0
  4  5  1  0
  3  6  1  0
  6  7  2  0
  7  8  1  0
  8  9  1  0
  9 10  1  0
 10 11  1  0
 11 12  1  0
 11 13  1  0
  7 14  1  0
 14 15  2  0
 15 16  1  0
 16 17  2  0
 17 18  1  0
 18 19  2  0
 19 20  1  0
 20 21  2  0
 21  6  1  0
 21 16  1  0
  1 22  1  0
  1 23  1  0
  1 24  1  0
  2 25  1  0
  2 26  1  0
  4 27  1  0
  4 28  1  0
  5 29  1  0
  5 30  1  0
  5 31  1  0
  8 32  1  0
  8 33  1  0
  9 34  1  0
  9 35  1  0
 10 36  1  0
 10 37  1  0
 12 38  1  0
 12 39  1  0
 12 40  1  0
 13 41  1  0
 13 42  1  0
 13 43  1  0
 14 44  1  0
 15 45  1  0
 17 46  1  0
 18 47  1  0
 19 48  1  0
 20 49  1  0
M  CHG  1   8   1
M  END
>  <UniqueID>  (11) 
11

>  <SMILES>  (11) 
CCN(CC)c1c([NH2+]CCN(C)C)ccc2ccccc12

>  <Energy>  (11) 
55.94109015473073

>  <Genealogy>  (11) 
CCN(CC)c1c([NH2+]CCN(C)C)ccc2ccccc12 (protonated)
CCN(CC)c1c([NH2+]CCN(C)C)ccc2ccccc12 (3D coordinates assigned)
CCN(CC)c1c([NH2+]CCN(C)C)ccc2ccccc12 (optimized conformer: 55.94109015473073 kcal/mol)

>  <smiles>  (11) 
CCN(CC)c1c(NCCN(C)C)ccc2ccccc12

>  <score_type>  (11) 
oracle

>  <origin>  (11) 
adg

>  <m_score__min__energy>  (11) 
-4.71

>  <m_primary>  (11) 
energy

$$$$
11:0
     RDKit          3D

 34 34  0  0  0  0  0  0  0  0999 V2000
   58.1410   26.8960   42.6450 C   0  0  0  0  0  0  0  0  0  0  0  0
   58.1570   27.0780   44.1590 C   0  0  0  0  0  0  0  0  0  0  0  0
   58.0670   28.5060   44.5090 N   0  0  0  0  0  0  0  0  0  0  0  0
   58.9520   28.8770   45.6340 C   0  0  0  0  0  0  0  0  0  0  0  0
   60.4320   29.0240   45.2470 C   0  0  0  0  0  0  0  0  0  0  0  0
   56.3830   28.9490   44.8840 S   0  0  0  0  0  0  0  0  0  0  0  0
   56.2100   30.0310   43.4230 C   0  0  0  0  0  0  0  0  0  0  0  0
   57.0610   31.2980   43.5520 C   0  0  0  0  0  0  0  0  0  0  0  0
   57.0250   31.8150   44.8830 O   0  0  0  0  0  0  0  0  0  0  0  0
   57.8740   32.8080   45.3980 C   0  0  0  0  0  0  0  0  0  0  0  0
   58.2500   33.8590   44.5510 C   0  0  0  0  0  0  0  0  0  0  0  0
   59.0940   34.8740   45.0100 C   0  0  0  0  0  0  0  0  0  0  0  0
   59.5670   34.8500   46.3230 C   0  0  0  0  0  0  0  0  0  0  0  0
   59.1950   33.8110   47.1820 C   0  0  0  0  0  0  0  0  0  0  0  0
   59.8390   33.7830   48.9790 Br  0  0  0  0  0  0  0  0  0  0  0  0
   58.3490   32.7930   46.7250 C   0  0  0  0  0  0  0  0  0  0  0  0
   58.0470   25.8266   42.4052 H   0  0  0  0  0  0  0  0  0  0  0  0
   57.2875   27.4437   42.2188 H   0  0  0  0  0  0  0  0  0  0  0  0
   59.0769   27.2864   42.2188 H   0  0  0  0  0  0  0  0  0  0  0  0
   57.3010   26.5436   44.5967 H   0  0  0  0  0  0  0  0  0  0  0  0
   59.1001   26.6738   44.5555 H   0  0  0  0  0  0  0  0  0  0  0  0
   58.6053   29.8371   46.0440 H   0  0  0  0  0  0  0  0  0  0  0  0
   58.8956   28.0571   46.3652 H   0  0  0  0  0  0  0  0  0  0  0  0
   61.0450   29.0849   46.1583 H   0  0  0  0  0  0  0  0  0  0  0  0
   60.7439   28.1524   44.6528 H   0  0  0  0  0  0  0  0  0  0  0  0
   60.5664   29.9399   44.6528 H   0  0  0  0  0  0  0  0  0  0  0  0
   56.5300   29.4762   42.5287 H   0  0  0  0  0  0  0  0  0  0  0  0
   55.1553   30.3331   43.3432 H   0  0  0  0  0  0  0  0  0  0  0  0
   58.1019   31.0587   43.2887 H   0  0  0  0  0  0  0  0  0  0  0  0
   56.6528   32.0607   42.8725 H   0  0  0  0  0  0  0  0  0  0  0  0
   57.8778   33.8854   43.5162 H   0  0  0  0  0  0  0  0  0  0  0  0
   59.3859   35.6927   44.3358 H   0  0  0  0  0  0  0  0  0  0  0  0
   60.2326   35.6487   46.6822 H   0  0  0  0  0  0  0  0  0  0  0  0
   58.0542   31.9791   47.4037 H   0  0  0  0  0  0  0  0  0  0  0  0
  1  2  1  0
  2  3  1  0
  3  4  1  0
  4  5  1  0
  3  6  1  0
  6  7  1  0
  7  8  1  0
  8  9  1  0
  9 10  1  0
 10 11  2  0
 11 12  1  0
 12 13  2  0
 13 14  1  0
 14 15  1  0
 14 16  2  0
 16 10  1  0
  1 17  1  0
  1 18  1  0
  1 19  1  0
  2 20  1  0
  2 21  1  0
  4 22  1  0
  4 23  1  0
  5 24  1  0
  5 25  1  0
  5 26  1  0
  7 27  1  0
  7 28  1  0
  8 29  1  0
  8 30  1  0
 11 31  1  0
 12 32  1  0
 13 33  1  0
 16 34  1  0
M  END
>  <UniqueID>  (12) 
12

>  <SMILES>  (12) 
CCN(CC)SCCOc1cccc(Br)c1

>  <Energy>  (12) 
24.603821984123794

>  <Genealogy>  (12) 
CCN(CC)SCCOc1cccc(Br)c1 (3D coordinates assigned)
CCN(CC)SCCOc1cccc(Br)c1 (optimized conformer: 24.603821984123794 kcal/mol)

>  <smiles>  (12) 
CCN(CC)SCCOc1cccc(Br)c1

>  <score_type>  (12) 
oracle

>  <origin>  (12) 
adg

>  <m_score__min__energy>  (12) 
-6.1100000000000003

>  <m_primary>  (12) 
energy

$$$$
12:0
     RDKit          3D

 29 30  0  0  0  0  0  0  0  0999 V2000
   59.2520   29.8310   45.9260 C   0  0  0  0  0  0  0  0  0  0  0  0
   59.1670   30.9700   46.7750 O   0  0  0  0  0  0  0  0  0  0  0  0
   59.1160   32.3010   46.3320 C   0  0  0  0  0  0  0  0  0  0  0  0
   58.2120   32.6980   45.3250 C   0  0  0  0  0  0  0  0  0  0  0  0
   58.1760   34.0200   44.8830 C   0  0  0  0  0  0  0  0  0  0  0  0
   59.0400   34.9640   45.4300 C   0  0  0  0  0  0  0  0  0  0  0  0
   59.9410   34.5910   46.4280 C   0  0  0  0  0  0  0  0  0  0  0  0
   59.9870   33.2660   46.9030 C   0  0  0  0  0  0  0  0  0  0  0  0
   61.0240   32.9280   47.9660 C   0  0  2  0  0  0  0  0  0  0  0  0
   62.0980   34.0280   48.0920 C   0  0  0  0  0  0  0  0  0  0  0  0
   63.2180   33.8400   47.0670 C   0  0  0  0  0  0  0  0  0  0  0  0
   63.7580   32.4800   47.1250 N   0  0  0  0  0  0  0  0  0  0  0  0
   63.0140   31.4490   47.3940 C   0  0  0  0  0  0  0  0  0  0  0  0
   61.6320   31.6110   47.7450 N   0  0  0  0  0  0  0  0  0  0  0  0
   59.3199   28.9206   46.5396 H   0  0  0  0  0  0  0  0  0  0  0  0
   58.3552   29.7792   45.2911 H   0  0  0  0  0  0  0  0  0  0  0  0
   60.1465   29.9129   45.2911 H   0  0  0  0  0  0  0  0  0  0  0  0
   57.5286   31.9575   44.8839 H   0  0  0  0  0  0  0  0  0  0  0  0
   57.4629   34.3175   44.1000 H   0  0  0  0  0  0  0  0  0  0  0  0
   59.0126   36.0049   45.0753 H   0  0  0  0  0  0  0  0  0  0  0  0
   60.6249   35.3423   46.8496 H   0  0  0  0  0  0  0  0  0  0  0  0
   60.4867   32.8811   48.9247 H   0  0  0  0  0  0  0  0  0  0  0  0
   61.6261   35.0083   47.9296 H   0  0  0  0  0  0  0  0  0  0  0  0
   62.5380   33.9663   49.0983 H   0  0  0  0  0  0  0  0  0  0  0  0
   62.8185   34.0260   46.0591 H   0  0  0  0  0  0  0  0  0  0  0  0
   64.0270   34.5490   47.2971 H   0  0  0  0  0  0  0  0  0  0  0  0
   64.7640   32.3320   46.8860 H   0  0  0  0  0  0  0  0  0  0  0  0
   63.4490   30.4395   47.3521 H   0  0  0  0  0  0  0  0  0  0  0  0
   61.0400   30.7560   47.8540 H   0  0  0  0  0  0  0  0  0  0  0  0
  1  2  1  0
  2  3  1  0
  3  4  2  0
  4  5  1  0
  5  6  2  0
  6  7  1  0
  7  8  2  0
  8  9  1  0
  9 10  1  0
 10 11  1  0
 11 12  1  0
 12 13  2  0
 13 14  1  0
  8  3  1  0
 14  9  1  0
  1 15  1  0
  1 16  1  0
  1 17  1  0
  4 18  1  0
  5 19  1  0
  6 20  1  0
  7 21  1  0
  9 22  1  1
 10 23  1  0
 10 24  1  0
 11 25  1  0
 11 26  1  0
 12 27  1  0
 13 28  1  0
 14 29  1  0
M  CHG  1  12   1
M  END
>  <UniqueID>  (13) 
13

>  <SMILES>  (13) 
COc1ccccc1[C@@H]1CC[NH+]=CN1

>  <Energy>  (13) 
29.05931250499861

>  <Genealogy>  (13) 
COc1ccccc1C1CC[NH+]=CN1 (protonated)
COc1ccccc1[C@@H]1CC[NH+]=CN1 (chirality)
COc1ccccc1[C@@H]1CC[NH+]=CN1 (3D coordinates assigned)
COc1ccccc1[C@@H]1CC[NH+]=CN1 (nonaromatic ring conformer: 29.05931250499861 kcal/mol)

>  <smiles>  (13) 
COc1ccccc1C1CCN=CN1

>  <score_type>  (13) 
oracle

>  <origin>  (13) 
adg

>  <m_score__min__energy>  (13) 
-3.8100000000000001

>  <m_primary>  (13) 
energy

$$$$
13:0
     RDKit          3D

 44 45  0  0  0  0  0  0  0  0999 V2000
   56.3290   30.1070   43.7260 C   0  0  0  0  0  0  0  0  0  0  0  0
   57.4190   31.1620   43.5470 C   0  0  0  0  0  0  0  0  0  0  0  0
   58.2040   31.3180   44.7880 N   0  0  0  0  0  0  0  0  0  0  0  0
   58.4280   30.1880   45.5250 C   0  0  0  0  0  0  0  0  0  0  0  0
   59.1660   30.2230   46.6990 C   0  0  0  0  0  0  0  0  0  0  0  0
   59.6950   31.4280   47.1690 C   0  0  0  0  0  0  0  0  0  0  0  0
   60.4970   31.4430   48.3700 N   0  0  0  0  0  0  0  0  0  0  0  0
   61.9260   31.1150   48.4070 C   0  0  0  0  0  0  0  0  0  0  0  0
   62.6560   31.5660   47.1240 C   0  0  0  0  0  0  0  0  0  0  0  0
   63.6260   32.6670   47.3580 N   0  0  1  0  0  0  0  0  0  0  0  0
   63.3600   33.8370   46.4970 C   0  0  0  0  0  0  0  0  0  0  0  0
   63.6880   33.0470   48.7920 C   0  0  0  0  0  0  0  0  0  0  0  0
   62.7690   34.2170   49.1800 C   0  0  0  0  0  0  0  0  0  0  0  0
   59.4380   32.6130   46.4370 C   0  0  0  0  0  0  0  0  0  0  0  0
   59.8920   33.8710   46.8920 C   0  0  0  0  0  0  0  0  0  0  0  0
   59.6180   35.0320   46.1720 C   0  0  0  0  0  0  0  0  0  0  0  0
   58.8820   34.9660   44.9960 C   0  0  0  0  0  0  0  0  0  0  0  0
   58.4090   33.7420   44.5300 C   0  0  0  0  0  0  0  0  0  0  0  0
   58.6750   32.5390   45.2320 C   0  0  0  0  0  0  0  0  0  0  0  0
   56.1547   29.9383   44.7989 H   0  0  0  0  0  0  0  0  0  0  0  0
   55.3990   30.4568   43.2540 H   0  0  0  0  0  0  0  0  0  0  0  0
   56.6483   29.1661   43.2540 H   0  0  0  0  0  0  0  0  0  0  0  0
   58.0899   30.8531   42.7319 H   0  0  0  0  0  0  0  0  0  0  0  0
   56.9434   32.1242   43.3063 H   0  0  0  0  0  0  0  0  0  0  0  0
   58.0136   29.2296   45.1790 H   0  0  0  0  0  0  0  0  0  0  0  0
   59.3362   29.2949   47.2645 H   0  0  0  0  0  0  0  0  0  0  0  0
   60.0670   31.7600   49.2670 H   0  0  0  0  0  0  0  0  0  0  0  0
   62.3836   31.6182   49.2715 H   0  0  0  0  0  0  0  0  0  0  0  0
   62.0219   30.0221   48.4862 H   0  0  0  0  0  0  0  0  0  0  0  0
   63.1992   30.7039   46.7096 H   0  0  0  0  0  0  0  0  0  0  0  0
   61.8919   31.9459   46.4299 H   0  0  0  0  0  0  0  0  0  0  0  0
   64.5820   32.3150   47.1160 H   0  0  0  0  0  0  0  0  0  0  0  0
   63.1599   34.7171   47.1258 H   0  0  0  0  0  0  0  0  0  0  0  0
   64.2368   34.0318   45.8619 H   0  0  0  0  0  0  0  0  0  0  0  0
   62.4852   33.6336   45.8619 H   0  0  0  0  0  0  0  0  0  0  0  0
   63.4017   32.1710   49.3926 H   0  0  0  0  0  0  0  0  0  0  0  0
   64.7185   33.3807   48.9838 H   0  0  0  0  0  0  0  0  0  0  0  0
   62.7115   34.2902   50.2761 H   0  0  0  0  0  0  0  0  0  0  0  0
   63.1753   35.1537   48.7708 H   0  0  0  0  0  0  0  0  0  0  0  0
   61.7627   34.0441   48.7708 H   0  0  0  0  0  0  0  0  0  0  0  0
   60.4690   33.9348   47.8263 H   0  0  0  0  0  0  0  0  0  0  0  0
   59.9854   36.0029   46.5358 H   0  0  0  0  0  0  0  0  0  0  0  0
   58.6717   35.8853   44.4298 H   0  0  0  0  0  0  0  0  0  0  0  0
   57.8193   33.7077   43.6020 H   0  0  0  0  0  0  0  0  0  0  0  0
  1  2  1  0
  2  3  1  0
  3  4  2  0
  4  5  1  0
  5  6  2  0
  6  7  1  0
  7  8  1  0
  8  9  1  0
  9 10  1  0
 10 11  1  0
 10 12  1  0
 12 13  1  0
  6 14  1  0
 14 15  2  0
 15 16  1  0
 16 17  2  0
 17 18  1  0
 18 19  2  0
 19  3  1  0
 19 14  1  0
  1 20  1  0
  1 21  1  0
  1 22  1  0
  2 23  1  0
  2 24  1  0
  4 25  1  0
  5 26  1  0
  7 27  1  0
  8 28  1  0
  8 29  1  0
  9 30  1  0
  9 31  1  0
 10 32  1  6
 11 33  1  0
 11 34  1  0
 11 35  1  0
 12 36  1  0
 12 37  1  0
 13 38  1  0
 13 39  1  0
 13 40  1  0
 15 41  1  0
 16 42  1  0
 17 43  1  0
 18 44  1  0
M  CHG  2   3   1  10   1
M  END
>  <UniqueID>  (14) 
14

>  <SMILES>  (14) 
CC[n+]1ccc(NCC[N@@H+](C)CC)c2ccccc21

>  <Energy>  (14) 
54.04212783061196

>  <Genealogy>  (14) 
CC[n+]1ccc(NCC[NH+](C)CC)c2ccccc21 (protonated)
CC[n+]1ccc(NCC[N@@H+](C)CC)c2ccccc21 (chirality)
CC[n+]1ccc(NCC[N@@H+](C)CC)c2ccccc21 (3D coordinates assigned)
CC[n+]1ccc(NCC[N@@H+](C)CC)c2ccccc21 (optimized conformer: 54.04212783061196 kcal/mol)

>  <smiles>  (14) 
CCN(C)CCNc1cc[n+](CC)c2ccccc12

>  <score_type>  (14) 
oracle

>  <origin>  (14) 
adg

>  <m_score__min__energy>  (14) 
-3.3700000000000001

>  <m_primary>  (14) 
energy

$$$$
14:0
     RDKit          3D

 48 50  0  0  0  0  0  0  0  0999 V2000
   64.1110   33.0900   48.4190 C   0  0  0  0  0  0  0  0  0  0  0  0
   63.6460   33.3550   46.9910 C   0  0  0  0  0  0  0  0  0  0  0  0
   62.2340   33.4410   46.9410 O   0  0  0  0  0  0  0  0  0  0  0  0
   61.6760   33.5300   48.2390 C   0  0  0  0  0  0  0  0  0  0  0  0
   60.3740   34.3320   48.2030 C   0  0  0  0  0  0  0  0  0  0  0  0
   59.7410   34.2140   46.8890 N   0  0  0  0  0  0  0  0  0  0  0  0
   59.6270   35.2030   45.9720 C   0  0  0  0  0  0  0  0  0  0  0  0
   58.9070   34.7640   44.8660 C   0  0  0  0  0  0  0  0  0  0  0  0
   58.5690   33.4570   45.1480 C   0  0  0  0  0  0  0  0  0  0  0  0
   57.8300   32.5390   44.4070 C   0  0  0  0  0  0  0  0  0  0  0  0
   57.6130   31.2610   44.9640 C   0  0  0  0  0  0  0  0  0  0  0  0
   56.6700   30.0650   44.0730 S   0  0  0  0  0  0  0  0  0  0  0  0
   55.2320   30.1540   44.5030 O   0  0  0  0  0  0  0  0  0  0  0  0
   56.7360   30.3750   42.6030 O   0  0  0  0  0  0  0  0  0  0  0  0
   57.2590   28.4430   44.3520 N   0  0  0  0  0  0  0  0  0  0  0  0
   56.7070   27.9070   45.6110 C   0  0  0  0  0  0  0  0  0  0  0  0
   57.0390   26.4100   45.7710 C   0  0  0  0  0  0  0  0  0  0  0  0
   58.3240   26.0050   45.0270 C   0  0  0  0  0  0  0  0  0  0  0  0
   59.3330   27.1540   45.0030 C   0  0  0  0  0  0  0  0  0  0  0  0
   58.7410   28.4280   44.3560 C   0  0  0  0  0  0  0  0  0  0  0  0
   58.1430   30.9460   46.2380 C   0  0  0  0  0  0  0  0  0  0  0  0
   58.8830   31.8970   46.9620 C   0  0  0  0  0  0  0  0  0  0  0  0
   59.0820   33.1530   46.3820 C   0  0  0  0  0  0  0  0  0  0  0  0
   63.3791   33.5071   49.1263 H   0  0  0  0  0  0  0  0  0  0  0  0
   64.2000   32.0055   48.5804 H   0  0  0  0  0  0  0  0  0  0  0  0
   65.0894   33.5662   48.5804 H   0  0  0  0  0  0  0  0  0  0  0  0
   64.0798   34.3023   46.6383 H   0  0  0  0  0  0  0  0  0  0  0  0
   63.9765   32.5260   46.3479 H   0  0  0  0  0  0  0  0  0  0  0  0
   61.4682   32.5173   48.6149 H   0  0  0  0  0  0  0  0  0  0  0  0
   62.3914   34.0385   48.9020 H   0  0  0  0  0  0  0  0  0  0  0  0
   59.6886   33.9460   48.9719 H   0  0  0  0  0  0  0  0  0  0  0  0
   60.6004   35.3908   48.3973 H   0  0  0  0  0  0  0  0  0  0  0  0
   60.0457   36.2138   46.0857 H   0  0  0  0  0  0  0  0  0  0  0  0
   58.6599   35.3368   43.9600 H   0  0  0  0  0  0  0  0  0  0  0  0
   57.4276   32.8019   43.4176 H   0  0  0  0  0  0  0  0  0  0  0  0
   56.9130   27.8590   43.5540 H   0  0  0  0  0  0  0  0  0  0  0  0
   57.1375   28.4627   46.4571 H   0  0  0  0  0  0  0  0  0  0  0  0
   55.6132   28.0214   45.5890 H   0  0  0  0  0  0  0  0  0  0  0  0
   57.1676   26.1902   46.8411 H   0  0  0  0  0  0  0  0  0  0  0  0
   56.2075   25.8364   45.3356 H   0  0  0  0  0  0  0  0  0  0  0  0
   58.7761   25.1407   45.5355 H   0  0  0  0  0  0  0  0  0  0  0  0
   58.0610   25.7499   43.9898 H   0  0  0  0  0  0  0  0  0  0  0  0
   59.6325   27.3859   46.0357 H   0  0  0  0  0  0  0  0  0  0  0  0
   60.1973   26.8362   44.4013 H   0  0  0  0  0  0  0  0  0  0  0  0
   59.0985   29.3041   44.9170 H   0  0  0  0  0  0  0  0  0  0  0  0
   59.0721   28.4475   43.3072 H   0  0  0  0  0  0  0  0  0  0  0  0
   57.9742   29.9468   46.6660 H   0  0  0  0  0  0  0  0  0  0  0  0
   59.2930   31.6599   47.9548 H   0  0  0  0  0  0  0  0  0  0  0  0
  1  2  1  0
  2  3  1  0
  3  4  1  0
  4  5  1  0
  5  6  1  0
  6  7  1  0
  7  8  2  0
  8  9  1  0
  9 10  2  0
 10 11  1  0
 11 12  1  0
 12 13  2  0
 12 14  2  0
 12 15  1  0
 15 16  1  0
 16 17  1  0
 17 18  1  0
 18 19  1  0
 19 20  1  0
 11 21  2  0
 21 22  1  0
 22 23  2  0
 23  6  1  0
 23  9  1  0
 20 15  1  0
  1 24  1  0
  1 25  1  0
  1 26  1  0
  2 27  1  0
  2 28  1  0
  4 29  1  0
  4 30  1  0
  5 31  1  0
  5 32  1  0
  7 33  1  0
  8 34  1  0
 10 35  1  0
 15 36  1  0
 16 37  1  0
 16 38  1  0
 17 39  1  0
 17 40  1  0
 18 41  1  0
 18 42  1  0
 19 43  1  0
 19 44  1  0
 20 45  1  0
 20 46  1  0
 21 47  1  0
 22 48  1  0
M  CHG  1  15   1
M  END
>  <UniqueID>  (15) 
15

>  <SMILES>  (15) 
CCOCCn1ccc2cc(S(=O)(=O)[NH+]3CCCCC3)ccc21

>  <Energy>  (15) 
82.2322591651971

>  <Genealogy>  (15) 
CCOCCn1ccc2cc(S(=O)(=O)[NH+]3CCCCC3)ccc21 (protonated)
CCOCCn1ccc2cc(S(=O)(=O)[NH+]3CCCCC3)ccc21 (3D coordinates assigned)
CCOCCn1ccc2cc(S(=O)(=O)[NH+]3CCCCC3)ccc21 (nonaromatic ring conformer: 82.2322591651971 kcal/mol)

>  <smiles>  (15) 
CCOCCn1ccc2cc(S(=O)(=O)N3CCCCC3)ccc21

>  <score_type>  (15) 
oracle

>  <origin>  (15) 
adg

>  <m_score__min__energy>  (15) 
-6.79

>  <m_primary>  (15) 
energy

$$$$
15:0
     RDKit          3D

 47 49  0  0  0  0  0  0  0  0999 V2000
   64.1380   34.0490   51.1610 C   0  0  0  0  0  0  0  0  0  0  0  0
   63.0020   34.3160   50.1800 C   0  0  0  0  0  0  0  0  0  0  0  0
   63.2280   33.5900   48.9280 N   0  0  0  0  0  0  0  0  0  0  0  0
   63.4010   34.1630   47.7200 C   0  0  0  0  0  0  0  0  0  0  0  0
   63.5160   33.1880   46.7490 C   0  0  0  0  0  0  0  0  0  0  0  0
   63.3960   31.9710   47.3900 C   0  0  0  0  0  0  0  0  0  0  0  0
   63.2080   32.2520   48.7300 C   0  0  0  0  0  0  0  0  0  0  0  0
   63.0610   31.2140   49.8150 C   0  0  0  0  0  0  0  0  0  0  0  0
   61.6760   31.1550   50.3330 N   0  0  2  0  0  0  0  0  0  0  0  0
   61.5730   30.2840   51.5180 C   0  0  0  0  0  0  0  0  0  0  0  0
   60.7930   30.6720   49.2910 C   0  0  0  0  0  0  0  0  0  0  0  0
   60.7190   29.4350   49.0520 O   0  0  0  0  0  0  0  0  0  0  0  0
   60.0460   31.6120   48.4220 C   0  0  0  0  0  0  0  0  0  0  0  0
   59.5850   31.1580   47.1770 C   0  0  0  0  0  0  0  0  0  0  0  0
   58.9000   32.0190   46.3110 C   0  0  0  0  0  0  0  0  0  0  0  0
   58.4530   31.5670   45.0590 C   0  0  0  0  0  0  0  0  0  0  0  0
   57.7730   32.4370   44.2010 C   0  0  0  0  0  0  0  0  0  0  0  0
   57.5360   33.7590   44.5840 C   0  0  0  0  0  0  0  0  0  0  0  0
   57.9770   34.2200   45.8270 C   0  0  0  0  0  0  0  0  0  0  0  0
   58.6610   33.3570   46.6990 C   0  0  0  0  0  0  0  0  0  0  0  0
   59.1030   33.8070   47.9500 C   0  0  0  0  0  0  0  0  0  0  0  0
   59.7880   32.9410   48.8240 C   0  0  0  0  0  0  0  0  0  0  0  0
   60.1980   33.3590   50.1010 O   0  0  0  0  0  0  0  0  0  0  0  0
   59.3180   33.7340   51.1560 C   0  0  0  0  0  0  0  0  0  0  0  0
   63.7616   34.1375   52.1908 H   0  0  0  0  0  0  0  0  0  0  0  0
   64.5306   33.0341   51.0000 H   0  0  0  0  0  0  0  0  0  0  0  0
   64.9415   34.7828   51.0000 H   0  0  0  0  0  0  0  0  0  0  0  0
   62.0527   33.9838   50.6255 H   0  0  0  0  0  0  0  0  0  0  0  0
   62.9616   35.3941   49.9653 H   0  0  0  0  0  0  0  0  0  0  0  0
   63.4441   35.2465   47.5353 H   0  0  0  0  0  0  0  0  0  0  0  0
   63.6730   33.3497   45.6723 H   0  0  0  0  0  0  0  0  0  0  0  0
   63.4411   30.9747   46.9259 H   0  0  0  0  0  0  0  0  0  0  0  0
   63.3304   30.2294   49.4051 H   0  0  0  0  0  0  0  0  0  0  0  0
   63.7262   31.4907   50.6462 H   0  0  0  0  0  0  0  0  0  0  0  0
   61.3850   32.1200   50.6170 H   0  0  0  0  0  0  0  0  0  0  0  0
   61.6453   30.8952   52.4297 H   0  0  0  0  0  0  0  0  0  0  0  0
   60.6065   29.7589   51.5042 H   0  0  0  0  0  0  0  0  0  0  0  0
   62.3904   29.5480   51.5042 H   0  0  0  0  0  0  0  0  0  0  0  0
   59.7636   30.1146   46.8781 H   0  0  0  0  0  0  0  0  0  0  0  0
   58.6380   30.5269   44.7526 H   0  0  0  0  0  0  0  0  0  0  0  0
   57.4236   32.0790   43.2213 H   0  0  0  0  0  0  0  0  0  0  0  0
   57.0007   34.4391   43.9052 H   0  0  0  0  0  0  0  0  0  0  0  0
   57.7879   35.2622   46.1237 H   0  0  0  0  0  0  0  0  0  0  0  0
   58.9130   34.8474   48.2526 H   0  0  0  0  0  0  0  0  0  0  0  0
   59.7982   33.5294   52.1242 H   0  0  0  0  0  0  0  0  0  0  0  0
   59.0901   34.8074   51.0793 H   0  0  0  0  0  0  0  0  0  0  0  0
   58.3859   33.1549   51.0793 H   0  0  0  0  0  0  0  0  0  0  0  0
  1  2  1  0
  2  3  1  0
  3  4  1  0
  4  5  2  0
  5  6  1  0
  6  7  2  0
  7  8  1  0
  8  9  1  0
  9 10  1  0
  9 11  1  0
 11 12  2  0
 11 13  1  0
 13 14  2  0
 14 15  1  0
 15 16  2  0
 16 17  1  0
 17 18  2  0
 18 19  1  0
 19 20  2  0
 20 21  1  0
 21 22  2  0
 22 23  1  0
 23 24  1  0
  7  3  1  0
 22 13  1  0
 20 15  1  0
  1 25  1  0
  1 26  1  0
  1 27  1  0
  2 28  1  0
  2 29  1  0
  4 30  1  0
  5 31  1  0
  6 32  1  0
  8 33  1  0
  8 34  1  0
  9 35  1  1
 10 36  1  0
 10 37  1  0
 10 38  1  0
 14 39  1  0
 16 40  1  0
 17 41  1  0
 18 42  1  0
 19 43  1  0
 21 44  1  0
 24 45  1  0
 24 46  1  0
 24 47  1  0
M  CHG  1   9   1
M  END
>  <UniqueID>  (16) 
16

>  <SMILES>  (16) 
CCn1cccc1C[N@H+](C)C(=O)c1cc2ccccc2cc1OC

>  <Energy>  (16) 
79.58331863716589

>  <Genealogy>  (16) 
CCn1cccc1C[NH+](C)C(=O)c1cc2ccccc2cc1OC (protonated)
CCn1cccc1C[N@H+](C)C(=O)c1cc2ccccc2cc1OC (chirality)
CCn1cccc1C[N@H+](C)C(=O)c1cc2ccccc2cc1OC (3D coordinates assigned)
CCn1cccc1C[N@H+](C)C(=O)c1cc2ccccc2cc1OC (optimized conformer: 79.58331863716589 kcal/mol)

>  <smiles>  (16) 
CCn1cccc1CN(C)C(=O)c1cc2ccccc2cc1OC

>  <score_type>  (16) 
oracle

>  <origin>  (16) 
adg

>  <m_score__min__energy>  (16) 
-5.9900000000000002

>  <m_primary>  (16) 
energy

$$$$
16:0
     RDKit          3D

 55 58  0  0  0  0  0  0  0  0999 V2000
   59.7300   33.4840   50.1810 C   0  0  0  0  0  0  0  0  0  0  0  0
   59.6450   34.5980   49.1390 C   0  0  0  0  0  0  0  0  0  0  0  0
   60.7280   34.5240   48.2080 O   0  0  0  0  0  0  0  0  0  0  0  0
   61.7530   33.5630   48.2180 C   0  0  0  0  0  0  0  0  0  0  0  0
   63.0120   33.8200   48.8020 C   0  0  0  0  0  0  0  0  0  0  0  0
   64.0120   32.8470   48.7940 C   0  0  0  0  0  0  0  0  0  0  0  0
   63.7810   31.6110   48.1930 C   0  0  0  0  0  0  0  0  0  0  0  0
   62.5510   31.3460   47.5940 C   0  0  0  0  0  0  0  0  0  0  0  0
   61.5260   32.3080   47.6070 C   0  0  0  0  0  0  0  0  0  0  0  0
   60.2640   32.0000   46.8990 C   0  0  0  0  0  0  0  0  0  0  0  0
   59.4710   32.9570   46.3630 N   0  0  0  0  0  0  0  0  0  0  0  0
   58.4600   32.2890   45.7740 C   0  0  0  0  0  0  0  0  0  0  0  0
   57.4030   32.8360   45.0420 C   0  0  0  0  0  0  0  0  0  0  0  0
   57.2440   34.3130   44.8630 C   0  0  0  0  0  0  0  0  0  0  0  0
   56.5180   31.9740   44.4610 N   0  0  0  0  0  0  0  0  0  0  0  0
   56.6420   30.6170   44.5820 C   0  0  0  0  0  0  0  0  0  0  0  0
   55.6710   29.7130   43.8940 C   0  0  0  0  0  0  0  0  0  0  0  0
   57.7170   30.0850   45.3140 C   0  0  0  0  0  0  0  0  0  0  0  0
   58.5760   30.9560   45.9060 N   0  0  0  0  0  0  0  0  0  0  0  0
   59.7010   30.7510   46.6220 C   0  0  0  0  0  0  0  0  0  0  0  0
   60.2730   29.4580   46.8880 N   0  0  0  0  0  0  0  0  0  0  0  0
   60.5280   28.5280   45.7840 C   0  0  0  0  0  0  0  0  0  0  0  0
   60.7530   27.1040   46.3090 C   0  0  0  0  0  0  0  0  0  0  0  0
   59.8690   26.7940   47.4510 N   0  0  0  0  0  0  0  0  0  0  0  0
   58.4490   26.7620   47.0610 C   0  0  0  0  0  0  0  0  0  0  0  0
   60.1070   27.6770   48.6190 C   0  0  0  0  0  0  0  0  0  0  0  0
   60.6400   29.0800   48.2560 C   0  0  0  0  0  0  0  0  0  0  0  0
   59.6966   33.9219   51.1895 H   0  0  0  0  0  0  0  0  0  0  0  0
   58.8818   32.7957   50.0519 H   0  0  0  0  0  0  0  0  0  0  0  0
   60.6728   32.9323   50.0519 H   0  0  0  0  0  0  0  0  0  0  0  0
   58.6953   34.5048   48.5918 H   0  0  0  0  0  0  0  0  0  0  0  0
   59.7013   35.5651   49.6601 H   0  0  0  0  0  0  0  0  0  0  0  0
   63.2068   34.7971   49.2681 H   0  0  0  0  0  0  0  0  0  0  0  0
   64.9848   33.0559   49.2631 H   0  0  0  0  0  0  0  0  0  0  0  0
   64.5698   30.8444   48.1915 H   0  0  0  0  0  0  0  0  0  0  0  0
   62.3805   30.3748   47.1064 H   0  0  0  0  0  0  0  0  0  0  0  0
   59.6210   33.9910   46.3880 H   0  0  0  0  0  0  0  0  0  0  0  0
   57.1918   34.7983   45.8488 H   0  0  0  0  0  0  0  0  0  0  0  0
   58.1047   34.7094   44.3043 H   0  0  0  0  0  0  0  0  0  0  0  0
   56.3187   34.5171   44.3043 H   0  0  0  0  0  0  0  0  0  0  0  0
   55.0833   29.1659   44.6459 H   0  0  0  0  0  0  0  0  0  0  0  0
   54.9955   30.3112   43.2649 H   0  0  0  0  0  0  0  0  0  0  0  0
   56.2195   28.9965   43.2649 H   0  0  0  0  0  0  0  0  0  0  0  0
   57.8588   28.9980   45.4050 H   0  0  0  0  0  0  0  0  0  0  0  0
   59.6626   28.5290   45.1050 H   0  0  0  0  0  0  0  0  0  0  0  0
   61.4340   28.8538   45.2520 H   0  0  0  0  0  0  0  0  0  0  0  0
   60.5504   26.3893   45.4977 H   0  0  0  0  0  0  0  0  0  0  0  0
   61.7951   27.0271   46.6527 H   0  0  0  0  0  0  0  0  0  0  0  0
   57.8210   26.7478   47.9640 H   0  0  0  0  0  0  0  0  0  0  0  0
   58.2125   27.6550   46.4639 H   0  0  0  0  0  0  0  0  0  0  0  0
   58.2530   25.8592   46.4639 H   0  0  0  0  0  0  0  0  0  0  0  0
   59.1561   27.7986   49.1585 H   0  0  0  0  0  0  0  0  0  0  0  0
   60.8845   27.1921   49.2276 H   0  0  0  0  0  0  0  0  0  0  0  0
   60.2160   29.8153   48.9557 H   0  0  0  0  0  0  0  0  0  0  0  0
   61.7376   29.0602   48.3254 H   0  0  0  0  0  0  0  0  0  0  0  0
  1  2  1  0
  2  3  1  0
  3  4  1  0
  4  5  2  0
  5  6  1  0
  6  7  2  0
  7  8  1  0
  8  9  2  0
  9 10  1  0
 10 11  1  0
 11 12  2  0
 12 13  1  0
 13 14  1  0
 13 15  2  0
 15 16  1  0
 16 17  1  0
 16 18  2  0
 18 19  1  0
 19 20  1  0
 20 21  1  0
 21 22  1  0
 22 23  1  0
 23 24  1  0
 24 25  1  0
 24 26  1  0
 26 27  1  0
  9  4  1  0
 20 10  2  0
 27 21  1  0
 19 12  1  0
  1 28  1  0
  1 29  1  0
  1 30  1  0
  2 31  1  0
  2 32  1  0
  5 33  1  0
  6 34  1  0
  7 35  1  0
  8 36  1  0
 11 37  1  0
 14 38  1  0
 14 39  1  0
 14 40  1  0
 17 41  1  0
 17 42  1  0
 17 43  1  0
 18 44  1  0
 22 45  1  0
 22 46  1  0
 23 47  1  0
 23 48  1  0
 25 49  1  0
 25 50  1  0
 25 51  1  0
 26 52  1  0
 26 53  1  0
 27 54  1  0
 27 55  1  0
M  CHG  1  11   1
M  END
>  <UniqueID>  (17) 
17

>  <SMILES>  (17) 
CCOc1ccccc1-c1[nH+]c2c(C)nc(C)cn2c1N1CCN(C)CC1

>  <Energy>  (17) 
106.83647504219091

>  <Genealogy>  (17) 
CCOc1ccccc1-c1[nH+]c2c(C)nc(C)cn2c1N1CCN(C)CC1 (protonated)
CCOc1ccccc1-c1[nH+]c2c(C)nc(C)cn2c1N1CCN(C)CC1 (3D coordinates assigned)
CCOc1ccccc1-c1[nH+]c2c(C)nc(C)cn2c1N1CCN(C)CC1 (nonaromatic ring conformer: 106.83647504219091 kcal/mol)

>  <smiles>  (17) 
CCOc1ccccc1-c1nc2c(C)nc(C)cn2c1N1CCN(C)CC1

>  <score_type>  (17) 
oracle

>  <origin>  (17) 
adg

>  <m_score__min__energy>  (17) 
-5.8200000000000003

>  <m_primary>  (17) 
energy

$$$$
17:0
     RDKit          3D

 40 41  0  0  0  0  0  0  0  0999 V2000
   57.3930   25.1140   47.4520 C   0  0  0  0  0  0  0  0  0  0  0  0
   56.0480   24.4550   47.1550 C   0  0  0  0  0  0  0  0  0  0  0  0
   55.6370   24.7170   45.7590 N   0  0  0  0  0  0  0  0  0  0  0  0
   54.1930   24.5010   45.5640 C   0  0  0  0  0  0  0  0  0  0  0  0
   56.4690   24.0230   44.7440 C   0  0  0  0  0  0  0  0  0  0  0  0
   57.6260   24.8690   44.1680 C   0  0  0  0  0  0  0  0  0  0  0  0
   57.4900   26.2710   44.5920 N   0  0  0  0  0  0  0  0  0  0  0  0
   58.1470   27.2230   43.6790 C   0  0  0  0  0  0  0  0  0  0  0  0
   58.5080   28.5300   44.3670 C   0  0  0  0  0  0  0  0  0  0  0  0
   59.6200   28.5340   45.2220 C   0  0  0  0  0  0  0  0  0  0  0  0
   59.9980   29.6880   45.9010 C   0  0  0  0  0  0  0  0  0  0  0  0
   59.2720   30.8710   45.7410 C   0  0  0  0  0  0  0  0  0  0  0  0
   59.6600   32.0280   46.4360 C   0  0  0  0  0  0  0  0  0  0  0  0
   58.9430   33.2160   46.2820 C   0  0  0  0  0  0  0  0  0  0  0  0
   59.4770   34.7840   47.2310 Br  0  0  0  0  0  0  0  0  0  0  0  0
   57.8370   33.2570   45.4340 C   0  0  0  0  0  0  0  0  0  0  0  0
   57.4380   32.1140   44.7360 C   0  0  0  0  0  0  0  0  0  0  0  0
   58.1470   30.9010   44.8760 C   0  0  0  0  0  0  0  0  0  0  0  0
   57.7680   29.7260   44.1790 C   0  0  0  0  0  0  0  0  0  0  0  0
   56.2580   29.7570   42.9700 Br  0  0  0  0  0  0  0  0  0  0  0  0
   57.5348   25.1835   48.5406 H   0  0  0  0  0  0  0  0  0  0  0  0
   58.2017   24.5101   47.0147 H   0  0  0  0  0  0  0  0  0  0  0  0
   57.4114   26.1232   47.0147 H   0  0  0  0  0  0  0  0  0  0  0  0
   56.1357   23.3693   47.3083 H   0  0  0  0  0  0  0  0  0  0  0  0
   55.2900   24.8750   47.8326 H   0  0  0  0  0  0  0  0  0  0  0  0
   53.6978   24.4269   46.5434 H   0  0  0  0  0  0  0  0  0  0  0  0
   53.7686   25.3457   45.0015 H   0  0  0  0  0  0  0  0  0  0  0  0
   54.0343   23.5691   45.0015 H   0  0  0  0  0  0  0  0  0  0  0  0
   56.9006   23.1253   45.2108 H   0  0  0  0  0  0  0  0  0  0  0  0
   55.8018   23.7944   43.8998 H   0  0  0  0  0  0  0  0  0  0  0  0
   58.5842   24.4704   44.5327 H   0  0  0  0  0  0  0  0  0  0  0  0
   57.5932   24.8214   43.0695 H   0  0  0  0  0  0  0  0  0  0  0  0
   56.4720   26.5080   44.6630 H   0  0  0  0  0  0  0  0  0  0  0  0
   59.0672   26.7623   43.2904 H   0  0  0  0  0  0  0  0  0  0  0  0
   57.4394   27.4543   42.8692 H   0  0  0  0  0  0  0  0  0  0  0  0
   60.2021   27.6106   45.3577 H   0  0  0  0  0  0  0  0  0  0  0  0
   60.8730   29.6689   46.5673 H   0  0  0  0  0  0  0  0  0  0  0  0
   60.5328   31.9981   47.1048 H   0  0  0  0  0  0  0  0  0  0  0  0
   57.2750   34.1949   45.3137 H   0  0  0  0  0  0  0  0  0  0  0  0
   56.5630   32.1597   44.0710 H   0  0  0  0  0  0  0  0  0  0  0  0
  1  2  1  0
  2  3  1  0
  3  4  1  0
  3  5  1  0
  5  6  1  0
  6  7  1  0
  7  8  1  0
  8  9  1  0
  9 10  2  0
 10 11  1  0
 11 12  2  0
 12 13  1  0
 13 14  2  0
 14 15  1  0
 14 16  1  0
 16 17  2  0
 17 18  1  0
 18 19  2  0
 19 20  1  0
 19  9  1  0
 18 12  1  0
  1 21  1  0
  1 22  1  0
  1 23  1  0
  2 24  1  0
  2 25  1  0
  4 26  1  0
  4 27  1  0
  4 28  1  0
  5 29  1  0
  5 30  1  0
  6 31  1  0
  6 32  1  0
  7 33  1  0
  8 34  1  0
  8 35  1  0
 10 36  1  0
 11 37  1  0
 13 38  1  0
 16 39  1  0
 17 40  1  0
M  END
>  <UniqueID>  (18) 
18

>  <SMILES>  (18) 
CCN(C)CCNCc1ccc2cc(Br)ccc2c1Br

>  <Energy>  (18) 
49.21242278249999

>  <Genealogy>  (18) 
CCN(C)CCNCc1ccc2cc(Br)ccc2c1Br (3D coordinates assigned)
CCN(C)CCNCc1ccc2cc(Br)ccc2c1Br (optimized conformer: 49.21242278249999 kcal/mol)

>  <smiles>  (18) 
CCN(C)CCNCc1ccc2cc(Br)ccc2c1Br

>  <score_type>  (18) 
oracle

>  <origin>  (18) 
adg

>  <m_score__min__energy>  (18) 
-7.21

>  <m_primary>  (18) 
energy

$$$$
18:0
     RDKit          3D

 80 81  0  0  0  0  0  0  0  0999 V2000
   64.9140   34.0750   51.4830 C   0  0  0  0  0  0  0  0  0  0  0  0
   63.5970   34.1800   50.6980 C   0  0  0  0  0  0  0  0  0  0  0  0
   63.4490   33.2000   49.5880 N   0  0  0  0  0  0  0  0  0  0  0  0
   63.6750   33.7750   48.2390 C   0  0  0  0  0  0  0  0  0  0  0  0
   63.6080   32.7280   47.1270 C   0  0  0  0  0  0  0  0  0  0  0  0
   64.2760   31.9810   49.7570 C   0  0  0  0  0  0  0  0  0  0  0  0
   63.5330   30.8210   50.4560 C   0  0  0  0  0  0  0  0  0  0  0  0
   62.2540   31.2090   51.0830 N   0  0  0  0  0  0  0  0  0  0  0  0
   61.0990   30.7100   50.3660 C   0  0  0  0  0  0  0  0  0  0  0  0
   61.1220   29.4110   49.8210 C   0  0  0  0  0  0  0  0  0  0  0  0
   60.0150   28.8950   49.1300 C   0  0  0  0  0  0  0  0  0  0  0  0
   60.0610   27.5700   48.5660 N   0  0  0  0  0  0  0  0  0  0  0  0
   61.0700   26.8480   48.7160 O   0  0  0  0  0  0  0  0  0  0  0  0
   58.9900   27.0740   47.8550 O   0  0  0  0  0  0  0  0  0  0  0  0
   58.8670   29.6930   48.9940 C   0  0  0  0  0  0  0  0  0  0  0  0
   58.8220   30.9720   49.5480 C   0  0  0  0  0  0  0  0  0  0  0  0
   59.9280   31.4900   50.2440 C   0  0  0  0  0  0  0  0  0  0  0  0
   59.8910   32.7630   50.8320 O   0  0  0  0  0  0  0  0  0  0  0  0
   59.5640   33.9690   50.1470 C   0  0  0  0  0  0  0  0  0  0  0  0
   60.5590   34.2140   49.0050 C   0  0  0  0  0  0  0  0  0  0  0  0
   60.3230   33.3310   47.7630 C   0  0  0  0  0  0  0  0  0  0  0  0
   60.5550   34.0640   46.4320 C   0  0  0  0  0  0  0  0  0  0  0  0
   59.3060   34.7100   45.9600 N   0  0  0  0  0  0  0  0  0  0  0  0
   59.1820   34.5870   44.4930 C   0  0  0  0  0  0  0  0  0  0  0  0
   58.1250   34.1400   46.6450 C   0  0  0  0  0  0  0  0  0  0  0  0
   57.0470   33.6700   45.6510 C   0  0  0  0  0  0  0  0  0  0  0  0
   57.2070   32.2470   45.3050 N   0  0  0  0  0  0  0  0  0  0  0  0
   58.1050   31.5280   46.2250 C   0  0  0  0  0  0  0  0  0  0  0  0
   58.5210   30.2010   45.6390 C   0  0  0  0  0  0  0  0  0  0  0  0
   59.8590   29.7920   45.7660 C   0  0  0  0  0  0  0  0  0  0  0  0
   60.2660   28.5430   45.2930 C   0  0  0  0  0  0  0  0  0  0  0  0
   59.3420   27.6880   44.6930 C   0  0  0  0  0  0  0  0  0  0  0  0
   58.0060   28.0760   44.5670 C   0  0  0  0  0  0  0  0  0  0  0  0
   57.5780   29.3350   45.0410 C   0  0  0  0  0  0  0  0  0  0  0  0
   56.2370   29.7420   44.9500 O   0  0  0  0  0  0  0  0  0  0  0  0
   55.5550   30.0080   43.7300 C   0  0  0  0  0  0  0  0  0  0  0  0
   64.7001   34.0921   52.5619 H   0  0  0  0  0  0  0  0  0  0  0  0
   65.4209   33.1336   51.2245 H   0  0  0  0  0  0  0  0  0  0  0  0
   65.5636   34.9242   51.2245 H   0  0  0  0  0  0  0  0  0  0  0  0
   62.7662   34.0264   51.4024 H   0  0  0  0  0  0  0  0  0  0  0  0
   63.5944   35.1764   50.2320 H   0  0  0  0  0  0  0  0  0  0  0  0
   62.9058   34.5381   48.0494 H   0  0  0  0  0  0  0  0  0  0  0  0
   64.6881   34.2034   48.2283 H   0  0  0  0  0  0  0  0  0  0  0  0
   63.5438   31.7241   47.5720 H   0  0  0  0  0  0  0  0  0  0  0  0
   62.7197   32.9106   46.5044 H   0  0  0  0  0  0  0  0  0  0  0  0
   64.5123   32.7959   46.5044 H   0  0  0  0  0  0  0  0  0  0  0  0
   64.5978   31.6385   48.7624 H   0  0  0  0  0  0  0  0  0  0  0  0
   65.1251   32.2542   50.4007 H   0  0  0  0  0  0  0  0  0  0  0  0
   63.3271   30.0425   49.7066 H   0  0  0  0  0  0  0  0  0  0  0  0
   64.1881   30.4708   51.2673 H   0  0  0  0  0  0  0  0  0  0  0  0
   62.2270   32.2470   51.1960 H   0  0  0  0  0  0  0  0  0  0  0  0
   62.2330   30.8090   52.0500 H   0  0  0  0  0  0  0  0  0  0  0  0
   62.0228   28.7909   49.9391 H   0  0  0  0  0  0  0  0  0  0  0  0
   57.9957   29.3056   48.4456 H   0  0  0  0  0  0  0  0  0  0  0  0
   57.9126   31.5812   49.4393 H   0  0  0  0  0  0  0  0  0  0  0  0
   58.5480   33.8882   49.7331 H   0  0  0  0  0  0  0  0  0  0  0  0
   59.6145   34.8097   50.8546 H   0  0  0  0  0  0  0  0  0  0  0  0
   60.4811   35.2678   48.6993 H   0  0  0  0  0  0  0  0  0  0  0  0
   61.5557   33.9561   49.3924 H   0  0  0  0  0  0  0  0  0  0  0  0
   61.0094   32.4728   47.8113 H   0  0  0  0  0  0  0  0  0  0  0  0
   59.2667   33.0245   47.7819 H   0  0  0  0  0  0  0  0  0  0  0  0
   61.3274   34.8341   46.5746 H   0  0  0  0  0  0  0  0  0  0  0  0
   60.8786   33.3310   45.6783 H   0  0  0  0  0  0  0  0  0  0  0  0
   58.4201   33.8312   44.2515 H   0  0  0  0  0  0  0  0  0  0  0  0
   58.8843   35.5567   44.0676 H   0  0  0  0  0  0  0  0  0  0  0  0
   60.1493   34.2814   44.0676 H   0  0  0  0  0  0  0  0  0  0  0  0
   58.4474   33.2802   47.2507 H   0  0  0  0  0  0  0  0  0  0  0  0
   57.6849   34.9291   47.2725 H   0  0  0  0  0  0  0  0  0  0  0  0
   56.0557   33.8172   46.1045 H   0  0  0  0  0  0  0  0  0  0  0  0
   57.1506   34.2605   44.7287 H   0  0  0  0  0  0  0  0  0  0  0  0
   56.2630   31.7980   45.3830 H   0  0  0  0  0  0  0  0  0  0  0  0
   59.0014   32.1395   46.4055 H   0  0  0  0  0  0  0  0  0  0  0  0
   57.5703   31.3449   47.1687 H   0  0  0  0  0  0  0  0  0  0  0  0
   60.5915   30.4608   46.2416 H   0  0  0  0  0  0  0  0  0  0  0  0
   61.3166   28.2330   45.3937 H   0  0  0  0  0  0  0  0  0  0  0  0
   59.6659   26.7059   44.3181 H   0  0  0  0  0  0  0  0  0  0  0  0
   57.2821   27.3955   44.0949 H   0  0  0  0  0  0  0  0  0  0  0  0
   54.5507   30.3997   43.9492 H   0  0  0  0  0  0  0  0  0  0  0  0
   56.1198   30.7517   43.1488 H   0  0  0  0  0  0  0  0  0  0  0  0
   55.4671   29.0782   43.1488 H   0  0  0  0  0  0  0  0  0  0  0  0
  1  2  1  0
  2  3  1  0
  3  4  1  0
  4  5  1  0
  3  6  1  0
  6  7  1  0
  7  8  1  0
  8  9  1  0
  9 10  2  0
 10 11  1  0
 11 12  1  0
 12 13  2  0
 12 14  1  0
 11 15  2  0
 15 16  1  0
 16 17  2  0
 17 18  1  0
 18 19  1  0
 19 20  1  0
 20 21  1  0
 21 22  1  0
 22 23  1  0
 23 24  1  0
 23 25  1  0
 25 26  1  0
 26 27  1  0
 27 28  1  0
 28 29  1  0
 29 30  2  0
 30 31  1  0
 31 32  2  0
 32 33  1  0
 33 34  2  0
 34 35  1  0
 35 36  1  0
 17  9  1  0
 34 29  1  0
  1 37  1  0
  1 38  1  0
  1 39  1  0
  2 40  1  0
  2 41  1  0
  4 42  1  0
  4 43  1  0
  5 44  1  0
  5 45  1  0
  5 46  1  0
  6 47  1  0
  6 48  1  0
  7 49  1  0
  7 50  1  0
  8 51  1  0
  8 52  1  0
 10 53  1  0
 15 54  1  0
 16 55  1  0
 19 56  1  0
 19 57  1  0
 20 58  1  0
 20 59  1  0
 21 60  1  0
 21 61  1  0
 22 62  1  0
 22 63  1  0
 24 64  1  0
 24 65  1  0
 24 66  1  0
 25 67  1  0
 25 68  1  0
 26 69  1  0
 26 70  1  0
 27 71  1  0
 28 72  1  0
 28 73  1  0
 30 74  1  0
 31 75  1  0
 32 76  1  0
 33 77  1  0
 36 78  1  0
 36 79  1  0
 36 80  1  0
M  CHG  3   8   1  12   1  14  -1
M  END
>  <UniqueID>  (19) 
19

>  <SMILES>  (19) 
CCN(CC)CC[NH2+]c1cc([N+](=O)[O-])ccc1OCCCCN(C)CCNCc1ccccc1OC

>  <Energy>  (19) 
76.46358228870508

>  <Genealogy>  (19) 
CCN(CC)CC[NH2+]c1cc([N+](=O)[O-])ccc1OCCCCN(C)CCNCc1ccccc1OC (protonated)
CCN(CC)CC[NH2+]c1cc([N+](=O)[O-])ccc1OCCCCN(C)CCNCc1ccccc1OC (3D coordinates assigned)
CCN(CC)CC[NH2+]c1cc([N+](=O)[O-])ccc1OCCCCN(C)CCNCc1ccccc1OC (optimized conformer: 76.46358228870508 kcal/mol)

>  <smiles>  (19) 
CCN(CC)CCNc1cc([N+](=O)[O-])ccc1OCCCCN(C)CCNCc1ccccc1OC

>  <score_type>  (19) 
oracle

>  <origin>  (19) 
adg

>  <m_score__min__energy>  (19) 
-5.3899999999999997

>  <m_primary>  (19) 
energy

$$$$
19:0
     RDKit          3D

 52 54  0  0  0  0  0  0  0  0999 V2000
   60.6695   30.9852   52.0720 H   0  0  0  0  0  0  0  0  0  0  0  0
   60.4100   31.6920   51.2700 C   0  0  0  0  0  0  0  0  0  0  0  0
   60.4600   31.2840   49.9390 C   0  0  0  0  0  0  0  0  0  0  0  0
   60.7605   30.2527   49.7020 H   0  0  0  0  0  0  0  0  0  0  0  0
   60.1330   32.1670   48.8900 C   0  0  0  0  0  0  0  0  0  0  0  0
   59.7690   33.5140   49.2120 C   0  0  0  0  0  0  0  0  0  0  0  0
   59.7090   33.8920   50.5680 C   0  0  0  0  0  0  0  0  0  0  0  0
   59.4017   34.9152   50.8298 H   0  0  0  0  0  0  0  0  0  0  0  0
   60.0320   32.9930   51.5850 C   0  0  0  0  0  0  0  0  0  0  0  0
   59.9560   33.5010   53.2630 Cl  0  0  0  0  0  0  0  0  0  0  0  0
   59.3600   34.5720   48.1990 C   0  0  0  0  0  0  0  0  0  0  0  0
   58.2996   34.4199   47.9491 H   0  0  0  0  0  0  0  0  0  0  0  0
   59.5492   35.5497   48.6662 H   0  0  0  0  0  0  0  0  0  0  0  0
   60.3260   34.5310   46.6510 S   0  0  0  0  0  0  0  0  0  0  0  0
   59.2330   33.2990   45.9540 C   0  0  0  0  0  0  0  0  0  0  0  0
   58.3030   33.6590   44.9750 C   0  0  0  0  0  0  0  0  0  0  0  0
   58.2888   34.6862   44.5818 H   0  0  0  0  0  0  0  0  0  0  0  0
   57.3910   32.7150   44.4950 C   0  0  0  0  0  0  0  0  0  0  0  0
   56.6750   32.9972   43.7091 H   0  0  0  0  0  0  0  0  0  0  0  0
   57.3830   31.4130   45.0080 C   0  0  0  0  0  0  0  0  0  0  0  0
   56.4450   30.5010   44.5010 O   0  0  0  0  0  0  0  0  0  0  0  0
   56.5940   29.7930   43.2750 C   0  0  0  0  0  0  0  0  0  0  0  0
   56.8163   28.7366   43.4863 H   0  0  0  0  0  0  0  0  0  0  0  0
   55.6615   29.8627   42.6957 H   0  0  0  0  0  0  0  0  0  0  0  0
   57.4193   30.2326   42.6957 H   0  0  0  0  0  0  0  0  0  0  0  0
   58.3070   31.0620   46.0110 C   0  0  0  0  0  0  0  0  0  0  0  0
   58.2954   30.0469   46.4347 H   0  0  0  0  0  0  0  0  0  0  0  0
   59.2430   32.0010   46.4730 C   0  0  0  0  0  0  0  0  0  0  0  0
   60.2340   31.6300   47.5040 C   0  0  0  0  0  0  0  0  0  0  0  0
   61.2500   30.8620   47.2160 N   0  0  0  0  0  0  0  0  0  0  0  0
   62.6600   31.2510   47.1690 C   0  0  0  0  0  0  0  0  0  0  0  0
   63.1005   30.8941   46.2263 H   0  0  0  0  0  0  0  0  0  0  0  0
   63.1767   30.8016   48.0299 H   0  0  0  0  0  0  0  0  0  0  0  0
   62.8130   32.7850   47.2490 C   0  0  0  0  0  0  0  0  0  0  0  0
   61.8340   33.2175   47.5028 H   0  0  0  0  0  0  0  0  0  0  0  0
   63.1824   33.1197   46.2684 H   0  0  0  0  0  0  0  0  0  0  0  0
   63.8460   33.2620   48.3050 C   0  0  0  0  0  0  0  0  0  0  0  0
   63.9841   34.3462   48.1805 H   0  0  0  0  0  0  0  0  0  0  0  0
   64.7607   32.6789   48.1225 H   0  0  0  0  0  0  0  0  0  0  0  0
   63.4690   33.0060   49.7190 N   0  0  2  0  0  0  0  0  0  0  0  0
   62.6080   32.4080   49.6790 H   0  0  0  0  0  0  0  0  0  0  0  0
   63.0920   34.2500   50.4250 C   0  0  0  0  0  0  0  0  0  0  0  0
   63.1421   34.0847   51.5113 H   0  0  0  0  0  0  0  0  0  0  0  0
   63.7863   35.0557   50.1443 H   0  0  0  0  0  0  0  0  0  0  0  0
   62.0672   34.5347   50.1443 H   0  0  0  0  0  0  0  0  0  0  0  0
   64.5120   32.2470   50.4500 C   0  0  0  0  0  0  0  0  0  0  0  0
   64.4227   31.1823   50.1882 H   0  0  0  0  0  0  0  0  0  0  0  0
   64.3546   32.4124   51.5260 H   0  0  0  0  0  0  0  0  0  0  0  0
   65.9290   32.7210   50.1070 C   0  0  0  0  0  0  0  0  0  0  0  0
   66.4880   32.9080   51.0358 H   0  0  0  0  0  0  0  0  0  0  0  0
   66.4428   31.9458   49.5196 H   0  0  0  0  0  0  0  0  0  0  0  0
   65.8730   33.6493   49.5196 H   0  0  0  0  0  0  0  0  0  0  0  0
  1  2  1  0
  2  3  2  0
  3  4  1  0
  3  5  1  0
  5  6  2  0
  6  7  1  0
  7  8  1  0
  7  9  2  0
  9 10  1  0
  6 11  1  0
 11 12  1  0
 11 13  1  0
 11 14  1  0
 14 15  1  0
 15 16  2  0
 16 17  1  0
 16 18  1  0
 18 19  1  0
 18 20  2  0
 20 21  1  0
 21 22  1  0
 22 23  1  0
 22 24  1  0
 22 25  1  0
 20 26  1  0
 26 27  1  0
 26 28  2  0
 28 29  1  0
 29 30  2  0
 30 31  1  0
 31 32  1  0
 31 33  1  0
 31 34  1  0
 34 35  1  0
 34 36  1  0
 34 37  1  0
 37 38  1  0
 37 39  1  0
 37 40  1  0
 40 41  1  6
 40 42  1  0
 42 43  1  0
 42 44  1  0
 42 45  1  0
 40 46  1  0
 46 47  1  0
 46 48  1  0
 46 49  1  0
 49 50  1  0
 49 51  1  0
 49 52  1  0
  9  2  1  0
 28 15  1  0
 29  5  1  0
M  CHG  1  40   1
M  END
>  <UniqueID>  (20) 
20

>  <SMILES>  (20) 
CC[N@@H+](C)CCC/N=C1/c2ccc(Cl)cc2CSc2ccc(OC)cc21

>  <Energy>  (20) 
75.53632317621869

>  <Genealogy>  (20) 
CC[NH+](C)CCCN=C1c2ccc(Cl)cc2CSc2ccc(OC)cc21 (protonated)
CC[N@@H+](C)CCCN=C1c2ccc(Cl)cc2CSc2ccc(OC)cc21 (chirality)
CC[N@@H+](C)CCC/N=C1/c2ccc(Cl)cc2CSc2ccc(OC)cc21 (cis-trans isomerization)
CC[N@@H+](C)CCC/N=C1/c2ccc(Cl)cc2CSc2ccc(OC)cc21 (3D coordinates assigned)
CC[N@@H+](C)CCC/N=C1/c2ccc(Cl)cc2CSc2ccc(OC)cc21 (nonaromatic ring conformer: 75.53632317621869 kcal/mol)

>  <smiles>  (20) 
CCN(C)CCCN=C1c2ccc(Cl)cc2CSc2ccc(OC)cc21

>  <score_type>  (20) 
oracle

>  <origin>  (20) 
adg

>  <m_score__min__energy>  (20) 
-6.1600000000000001

>  <m_primary>  (20) 
energy

$$$$
20:0
     RDKit          3D

 65 69  0  0  0  0  0  0  0  0999 V2000
   57.3870   32.3020   41.1030 C   0  0  0  0  0  0  0  0  0  0  0  0
   58.0730   31.8220   42.2510 O   0  0  0  0  0  0  0  0  0  0  0  0
   57.5540   30.8170   43.0750 C   0  0  0  0  0  0  0  0  0  0  0  0
   56.8470   29.8950   42.5810 O   0  0  0  0  0  0  0  0  0  0  0  0
   57.8290   30.8530   44.5580 C   0  0  2  0  0  0  0  0  0  0  0  0
   56.9860   31.9490   45.2710 C   0  0  0  0  0  0  0  0  0  0  0  0
   57.8240   33.0340   45.9100 C   0  0  0  0  0  0  0  0  0  0  0  0
   58.3660   34.0680   45.1240 C   0  0  0  0  0  0  0  0  0  0  0  0
   59.1260   35.0820   45.7150 C   0  0  0  0  0  0  0  0  0  0  0  0
   59.3560   35.0720   47.0930 C   0  0  0  0  0  0  0  0  0  0  0  0
   58.8320   34.0430   47.8800 C   0  0  0  0  0  0  0  0  0  0  0  0
   58.0750   33.0260   47.2930 C   0  0  0  0  0  0  0  0  0  0  0  0
   59.2990   31.0040   44.8020 N   0  0  0  0  0  0  0  0  0  0  0  0
   59.8090   29.7320   45.3910 C   0  0  1  0  0  0  0  0  0  0  0  0
   60.5440   29.9530   46.7000 C   0  0  0  0  0  0  0  0  0  0  0  0
   60.2510   29.1770   47.8360 C   0  0  0  0  0  0  0  0  0  0  0  0
   60.9100   29.4120   49.0440 C   0  0  0  0  0  0  0  0  0  0  0  0
   61.8710   30.4370   49.1420 C   0  0  0  0  0  0  0  0  0  0  0  0
   62.5540   30.7160   50.3340 O   0  0  0  0  0  0  0  0  0  0  0  0
   62.8760   29.7420   51.3210 C   0  0  0  0  0  0  0  0  0  0  0  0
   62.1580   31.2140   48.0130 C   0  0  0  0  0  0  0  0  0  0  0  0
   61.4980   30.9790   46.8040 C   0  0  0  0  0  0  0  0  0  0  0  0
   58.6040   28.9100   45.5770 C   0  0  0  0  0  0  0  0  0  0  0  0
   57.5180   29.5250   45.1340 C   0  0  0  0  0  0  0  0  0  0  0  0
   56.4640   28.6430   45.2490 C   0  0  0  0  0  0  0  0  0  0  0  0
   55.1540   28.8930   44.8580 O   0  0  0  0  0  0  0  0  0  0  0  0
   56.9130   27.4710   45.7790 N   0  0  0  0  0  0  0  0  0  0  0  0
   56.1460   26.2470   46.0470 C   0  0  0  0  0  0  0  0  0  0  0  0
   56.2530   25.2610   44.8700 C   0  0  0  0  0  0  0  0  0  0  0  0
   55.3510   24.0290   45.0860 C   0  0  0  0  0  0  0  0  0  0  0  0
   55.1860   23.6380   46.5710 C   0  0  0  0  0  0  0  0  0  0  0  0
   56.3880   24.0700   47.4140 C   0  0  0  0  0  0  0  0  0  0  0  0
   56.5850   25.5990   47.3850 C   0  0  0  0  0  0  0  0  0  0  0  0
   58.2490   27.6390   45.9630 C   0  0  0  0  0  0  0  0  0  0  0  0
   59.1150   26.6640   46.4430 O   0  0  0  0  0  0  0  0  0  0  0  0
   56.5234   32.9062   41.4179 H   0  0  0  0  0  0  0  0  0  0  0  0
   58.0682   32.9216   40.5012 H   0  0  0  0  0  0  0  0  0  0  0  0
   57.0383   31.4498   40.5012 H   0  0  0  0  0  0  0  0  0  0  0  0
   56.3208   32.4145   44.5288 H   0  0  0  0  0  0  0  0  0  0  0  0
   56.4276   31.4534   46.0788 H   0  0  0  0  0  0  0  0  0  0  0  0
   58.1907   34.0785   44.0381 H   0  0  0  0  0  0  0  0  0  0  0  0
   59.5433   35.8885   45.0942 H   0  0  0  0  0  0  0  0  0  0  0  0
   59.9490   35.8733   47.5580 H   0  0  0  0  0  0  0  0  0  0  0  0
   59.0160   34.0337   48.9645 H   0  0  0  0  0  0  0  0  0  0  0  0
   57.6730   32.2141   47.9169 H   0  0  0  0  0  0  0  0  0  0  0  0
   59.5000   31.8080   45.4400 H   0  0  0  0  0  0  0  0  0  0  0  0
   60.5520   29.2498   44.7388 H   0  0  0  0  0  0  0  0  0  0  0  0
   59.4968   28.3788   47.7720 H   0  0  0  0  0  0  0  0  0  0  0  0
   60.6776   28.7937   49.9236 H   0  0  0  0  0  0  0  0  0  0  0  0
   62.7332   30.1738   52.3226 H   0  0  0  0  0  0  0  0  0  0  0  0
   62.2190   28.8679   51.2015 H   0  0  0  0  0  0  0  0  0  0  0  0
   63.9245   29.4317   51.2015 H   0  0  0  0  0  0  0  0  0  0  0  0
   62.9087   32.0154   48.0783 H   0  0  0  0  0  0  0  0  0  0  0  0
   61.7272   31.6021   45.9270 H   0  0  0  0  0  0  0  0  0  0  0  0
   55.0854   26.5204   46.1488 H   0  0  0  0  0  0  0  0  0  0  0  0
   55.9459   25.7721   43.9456 H   0  0  0  0  0  0  0  0  0  0  0  0
   57.2959   24.9188   44.7980 H   0  0  0  0  0  0  0  0  0  0  0  0
   54.3562   24.2491   44.6715 H   0  0  0  0  0  0  0  0  0  0  0  0
   55.8358   23.1809   44.5804 H   0  0  0  0  0  0  0  0  0  0  0  0
   54.2815   24.1225   46.9675 H   0  0  0  0  0  0  0  0  0  0  0  0
   55.1074   22.5423   46.6274 H   0  0  0  0  0  0  0  0  0  0  0  0
   56.2269   23.7510   48.4543 H   0  0  0  0  0  0  0  0  0  0  0  0
   57.2889   23.6002   46.9926 H   0  0  0  0  0  0  0  0  0  0  0  0
   55.9932   26.0431   48.1990 H   0  0  0  0  0  0  0  0  0  0  0  0
   57.6615   25.7918   47.5033 H   0  0  0  0  0  0  0  0  0  0  0  0
  1  2  1  0
  2  3  1  0
  3  4  2  0
  3  5  1  0
  5  6  1  1
  6  7  1  0
  7  8  2  0
  8  9  1  0
  9 10  2  0
 10 11  1  0
 11 12  2  0
  5 13  1  0
 13 14  1  0
 14 15  1  0
 15 16  2  0
 16 17  1  0
 17 18  2  0
 18 19  1  0
 19 20  1  0
 18 21  1  0
 21 22  2  0
 14 23  1  0
 23 24  1  0
 24 25  2  0
 25 26  1  0
 25 27  1  0
 27 28  1  0
 28 29  1  0
 29 30  1  0
 30 31  1  0
 31 32  1  0
 32 33  1  0
 27 34  1  0
 34 35  1  0
 24  5  1  0
 33 28  1  0
 12  7  1  0
 22 15  1  0
 34 23  2  0
  1 36  1  0
  1 37  1  0
  1 38  1  0
  6 39  1  0
  6 40  1  0
  8 41  1  0
  9 42  1  0
 10 43  1  0
 11 44  1  0
 12 45  1  0
 13 46  1  0
 14 47  1  6
 16 48  1  0
 17 49  1  0
 20 50  1  0
 20 51  1  0
 20 52  1  0
 21 53  1  0
 22 54  1  0
 28 55  1  0
 29 56  1  0
 29 57  1  0
 30 58  1  0
 30 59  1  0
 31 60  1  0
 31 61  1  0
 32 62  1  0
 32 63  1  0
 33 64  1  0
 33 65  1  0
M  CHG  2  26  -1  35  -1
M  END
>  <UniqueID>  (21) 
21

>  <SMILES>  (21) 
COC(=O)[C@]1(Cc2ccccc2)N[C@@H](c2ccc(OC)cc2)c2c1c([O-])n(C1CCCCC1)c2[O-]

>  <Energy>  (21) 
125.67048431987227

>  <Genealogy>  (21) 
COC(=O)C1(Cc2ccccc2)NC(c2ccc(OC)cc2)c2c1c([O-])n(C1CCCCC1)c2[O-] (protonated)
COC(=O)[C@]1(Cc2ccccc2)N[C@@H](c2ccc(OC)cc2)c2c1c([O-])n(C1CCCCC1)c2[O-] (chirality)
COC(=O)[C@]1(Cc2ccccc2)N[C@@H](c2ccc(OC)cc2)c2c1c([O-])n(C1CCCCC1)c2[O-] (3D coordinates assigned)
COC(=O)[C@]1(Cc2ccccc2)N[C@@H](c2ccc(OC)cc2)c2c1c([O-])n(C1CCCCC1)c2[O-] (nonaromatic ring conformer: 125.67048431987227 kcal/mol)

>  <smiles>  (21) 
COC(=O)C1(Cc2ccccc2)NC(c2ccc(OC)cc2)c2c1c(O)n(C1CCCCC1)c2O

>  <score_type>  (21) 
oracle

>  <origin>  (21) 
adg

>  <m_score__min__energy>  (21) 
-12.119999999999999

>  <m_primary>  (21) 
energy

$$$$
21:0
     RDKit          3D

 33 34  0  0  0  0  0  0  0  0999 V2000
   57.5177   31.7669   43.6085 H   0  0  0  0  0  0  0  0  0  0  0  0
   57.6380   31.6530   44.6960 C   0  0  0  0  0  0  0  0  0  0  0  0
   57.4180   32.7330   45.4610 C   0  0  0  0  0  0  0  0  0  0  0  0
   56.4773   33.2824   45.3087 H   0  0  0  0  0  0  0  0  0  0  0  0
   58.3510   33.2410   46.4980 C   0  0  0  0  0  0  0  0  0  0  0  0
   58.3290   32.6670   47.7830 C   0  0  0  0  0  0  0  0  0  0  0  0
   57.6453   31.8337   48.0024 H   0  0  0  0  0  0  0  0  0  0  0  0
   59.1730   33.1550   48.7750 C   0  0  0  0  0  0  0  0  0  0  0  0
   59.1692   32.7001   49.7765 H   0  0  0  0  0  0  0  0  0  0  0  0
   60.0220   34.2210   48.4950 C   0  0  0  0  0  0  0  0  0  0  0  0
   60.6942   34.6134   49.2723 H   0  0  0  0  0  0  0  0  0  0  0  0
   60.0140   34.7880   47.2210 C   0  0  0  0  0  0  0  0  0  0  0  0
   60.6764   35.6382   47.0010 H   0  0  0  0  0  0  0  0  0  0  0  0
   59.1920   34.3000   46.2400 N   0  0  0  0  0  0  0  0  0  0  0  0
   59.2220   34.9310   44.9120 C   0  0  0  0  0  0  0  0  0  0  0  0
   59.2740   36.0238   45.0264 H   0  0  0  0  0  0  0  0  0  0  0  0
   60.1044   34.5779   44.3581 H   0  0  0  0  0  0  0  0  0  0  0  0
   58.3101   34.6632   44.3581 H   0  0  0  0  0  0  0  0  0  0  0  0
   58.0310   30.3180   45.2060 C   0  0  0  0  0  0  0  0  0  0  0  0
   59.3620   30.0560   45.5810 C   0  0  0  0  0  0  0  0  0  0  0  0
   60.1158   30.8543   45.5133 H   0  0  0  0  0  0  0  0  0  0  0  0
   59.7320   28.7910   46.0380 C   0  0  0  0  0  0  0  0  0  0  0  0
   60.7716   28.5991   46.3419 H   0  0  0  0  0  0  0  0  0  0  0  0
   58.7850   27.7690   46.1100 C   0  0  0  0  0  0  0  0  0  0  0  0
   59.0776   26.7741   46.4769 H   0  0  0  0  0  0  0  0  0  0  0  0
   57.4660   28.0070   45.7170 C   0  0  0  0  0  0  0  0  0  0  0  0
   56.7259   27.1948   45.7678 H   0  0  0  0  0  0  0  0  0  0  0  0
   57.0770   29.2800   45.2560 C   0  0  0  0  0  0  0  0  0  0  0  0
   55.7590   29.5510   44.8520 O   0  0  0  0  0  0  0  0  0  0  0  0
   55.3460   29.7150   43.4990 C   0  0  0  0  0  0  0  0  0  0  0  0
   54.3239   30.1209   43.4743 H   0  0  0  0  0  0  0  0  0  0  0  0
   56.0290   30.4101   42.9888 H   0  0  0  0  0  0  0  0  0  0  0  0
   55.3661   28.7407   42.9888 H   0  0  0  0  0  0  0  0  0  0  0  0
  1  2  1  0
  2  3  2  0
  3  4  1  0
  3  5  1  0
  5  6  2  0
  6  7  1  0
  6  8  1  0
  8  9  1  0
  8 10  2  0
 10 11  1  0
 10 12  1  0
 12 13  1  0
 12 14  2  0
 14 15  1  0
 15 16  1  0
 15 17  1  0
 15 18  1  0
  2 19  1  0
 19 20  2  0
 20 21  1  0
 20 22  1  0
 22 23  1  0
 22 24  2  0
 24 25  1  0
 24 26  1  0
 26 27  1  0
 26 28  2  0
 28 29  1  0
 29 30  1  0
 30 31  1  0
 30 32  1  0
 30 33  1  0
 14  5  1  0
 28 19  1  0
M  CHG  1  14   1
M  END
>  <UniqueID>  (22) 
22

>  <SMILES>  (22) 
COc1ccccc1/C=C\c1cccc[n+]1C

>  <Energy>  (22) 
45.50121445914595

>  <Genealogy>  (22) 
COc1ccccc1/C=C\c1cccc[n+]1C (cis-trans isomerization)
COc1ccccc1/C=C\c1cccc[n+]1C (3D coordinates assigned)
COc1ccccc1/C=C\c1cccc[n+]1C (optimized conformer: 45.50121445914595 kcal/mol)

>  <smiles>  (22) 
COc1ccccc1C=Cc1cccc[n+]1C

>  <score_type>  (22) 
oracle

>  <origin>  (22) 
adg

>  <m_score__min__energy>  (22) 
-4.9299999999999997

>  <m_primary>  (22) 
energy

$$$$
22:0
     RDKit          3D

 56 58  0  0  0  0  0  0  0  0999 V2000
   56.9100   28.9260   44.8490 C   0  0  0  0  0  0  0  0  0  0  0  0
   56.5710   30.2960   44.8700 O   0  0  0  0  0  0  0  0  0  0  0  0
   57.2500   30.9890   43.8400 C   0  0  0  0  0  0  0  0  0  0  0  0
   58.3790   31.8410   44.4290 C   0  0  0  0  0  0  0  0  0  0  0  0
   58.0050   33.2720   44.4160 N   0  0  0  0  0  0  0  0  0  0  0  0
   56.9150   33.5850   45.3660 C   0  0  0  0  0  0  0  0  0  0  0  0
   57.3800   33.5820   46.8410 C   0  0  0  0  0  0  0  0  0  0  0  0
   58.8330   34.1030   47.0440 C   0  0  0  0  0  0  0  0  0  0  0  0
   59.7930   32.9970   47.2750 N   0  0  0  0  0  0  0  0  0  0  0  0
   59.4590   31.8420   47.8520 N   0  0  0  0  0  0  0  0  0  0  0  0
   60.5750   31.0900   48.0070 C   0  0  0  0  0  0  0  0  0  0  0  0
   60.6200   29.8390   48.7190 N   0  0  0  0  0  0  0  0  0  0  0  0
   59.3140   29.1580   48.7460 C   0  0  0  0  0  0  0  0  0  0  0  0
   59.0310   28.3890   47.4430 C   0  0  0  0  0  0  0  0  0  0  0  0
   60.2940   28.1360   46.7150 N   0  0  0  0  0  0  0  0  0  0  0  0
   60.3270   28.8750   45.4410 C   0  0  0  0  0  0  0  0  0  0  0  0
   60.4610   26.6980   46.4490 C   0  0  0  0  0  0  0  0  0  0  0  0
   61.6640   31.8210   47.5860 C   0  0  0  0  0  0  0  0  0  0  0  0
   63.0360   31.5980   47.6160 C   0  0  0  0  0  0  0  0  0  0  0  0
   63.8640   32.6380   47.1610 C   0  0  0  0  0  0  0  0  0  0  0  0
   63.2890   33.8520   46.7220 C   0  0  0  0  0  0  0  0  0  0  0  0
   61.9330   34.0220   46.7310 N   0  0  0  0  0  0  0  0  0  0  0  0
   61.1400   33.0000   47.1450 C   0  0  0  0  0  0  0  0  0  0  0  0
   59.2150   34.9870   45.8410 C   0  0  0  0  0  0  0  0  0  0  0  0
   59.1740   34.1860   44.5280 C   0  0  0  0  0  0  0  0  0  0  0  0
   57.0018   28.5551   45.8805 H   0  0  0  0  0  0  0  0  0  0  0  0
   56.1244   28.3619   44.3251 H   0  0  0  0  0  0  0  0  0  0  0  0
   57.8681   28.7933   44.3251 H   0  0  0  0  0  0  0  0  0  0  0  0
   57.6750   30.2621   43.1322 H   0  0  0  0  0  0  0  0  0  0  0  0
   56.5377   31.6472   43.3209 H   0  0  0  0  0  0  0  0  0  0  0  0
   58.5685   31.5252   45.4655 H   0  0  0  0  0  0  0  0  0  0  0  0
   59.2849   31.7032   43.8205 H   0  0  0  0  0  0  0  0  0  0  0  0
   56.5163   34.5817   45.1261 H   0  0  0  0  0  0  0  0  0  0  0  0
   56.1508   32.8009   45.2602 H   0  0  0  0  0  0  0  0  0  0  0  0
   56.6983   34.2217   47.4206 H   0  0  0  0  0  0  0  0  0  0  0  0
   57.3654   32.5353   47.1789 H   0  0  0  0  0  0  0  0  0  0  0  0
   58.8788   34.7155   47.9565 H   0  0  0  0  0  0  0  0  0  0  0  0
   60.9150   30.0400   49.7020 H   0  0  0  0  0  0  0  0  0  0  0  0
   61.3300   29.2040   48.2860 H   0  0  0  0  0  0  0  0  0  0  0  0
   59.3023   28.4478   49.5859 H   0  0  0  0  0  0  0  0  0  0  0  0
   58.5353   29.9265   48.8600 H   0  0  0  0  0  0  0  0  0  0  0  0
   58.5520   27.4286   47.6845 H   0  0  0  0  0  0  0  0  0  0  0  0
   58.3649   28.9914   46.8079 H   0  0  0  0  0  0  0  0  0  0  0  0
   60.3752   29.9549   45.6447 H   0  0  0  0  0  0  0  0  0  0  0  0
   61.2125   28.5709   44.8635 H   0  0  0  0  0  0  0  0  0  0  0  0
   59.4180   28.6510   44.8635 H   0  0  0  0  0  0  0  0  0  0  0  0
   60.5242   26.1536   47.4028 H   0  0  0  0  0  0  0  0  0  0  0  0
   59.5996   26.3293   45.8727 H   0  0  0  0  0  0  0  0  0  0  0  0
   61.3839   26.5365   45.8727 H   0  0  0  0  0  0  0  0  0  0  0  0
   63.4551   30.6484   47.9802 H   0  0  0  0  0  0  0  0  0  0  0  0
   64.9562   32.5077   47.1465 H   0  0  0  0  0  0  0  0  0  0  0  0
   63.9384   34.6671   46.3700 H   0  0  0  0  0  0  0  0  0  0  0  0
   58.5063   35.8255   45.7723 H   0  0  0  0  0  0  0  0  0  0  0  0
   60.2398   35.3573   45.9918 H   0  0  0  0  0  0  0  0  0  0  0  0
   59.1394   34.8970   43.6894 H   0  0  0  0  0  0  0  0  0  0  0  0
   60.0753   33.5556   44.5100 H   0  0  0  0  0  0  0  0  0  0  0  0
  1  2  1  0
  2  3  1  0
  3  4  1  0
  4  5  1  0
  5  6  1  0
  6  7  1  0
  7  8  1  0
  8  9  1  0
  9 10  1  0
 10 11  2  0
 11 12  1  0
 12 13  1  0
 13 14  1  0
 14 15  1  0
 15 16  1  0
 15 17  1  0
 11 18  1  0
 18 19  2  0
 19 20  1  0
 20 21  2  0
 21 22  1  0
 22 23  2  0
  8 24  1  0
 24 25  1  0
 25  5  1  0
 23  9  1  0
 23 18  1  0
  1 26  1  0
  1 27  1  0
  1 28  1  0
  3 29  1  0
  3 30  1  0
  4 31  1  0
  4 32  1  0
  6 33  1  0
  6 34  1  0
  7 35  1  0
  7 36  1  0
  8 37  1  0
 12 38  1  0
 12 39  1  0
 13 40  1  0
 13 41  1  0
 14 42  1  0
 14 43  1  0
 16 44  1  0
 16 45  1  0
 16 46  1  0
 17 47  1  0
 17 48  1  0
 17 49  1  0
 19 50  1  0
 20 51  1  0
 21 52  1  0
 24 53  1  0
 24 54  1  0
 25 55  1  0
 25 56  1  0
M  CHG  1  12   1
M  END
>  <UniqueID>  (23) 
23

>  <SMILES>  (23) 
COCCN1CCC(n2nc([NH2+]CCN(C)C)c3cccnc32)CC1

>  <Energy>  (23) 
110.7023266454889

>  <Genealogy>  (23) 
COCCN1CCC(n2nc([NH2+]CCN(C)C)c3cccnc32)CC1 (protonated)
COCCN1CCC(n2nc([NH2+]CCN(C)C)c3cccnc32)CC1 (3D coordinates assigned)
COCCN1CCC(n2nc([NH2+]CCN(C)C)c3cccnc32)CC1 (nonaromatic ring conformer: 110.7023266454889 kcal/mol)

>  <smiles>  (23) 
COCCN1CCC(n2nc(NCCN(C)C)c3cccnc32)CC1

>  <score_type>  (23) 
oracle

>  <origin>  (23) 
adg

>  <m_score__min__energy>  (23) 
-5.75

>  <m_primary>  (23) 
energy

$$$$
23:0
     RDKit          3D

 32 34  0  0  0  0  0  0  0  0999 V2000
   57.6850   32.3270   41.4650 C   0  0  0  0  0  0  0  0  0  0  0  0
   57.4030   32.3490   42.8610 O   0  0  0  0  0  0  0  0  0  0  0  0
   57.4430   31.2250   43.7020 C   0  0  0  0  0  0  0  0  0  0  0  0
   56.6780   30.1200   43.3510 C   0  0  0  0  0  0  0  0  0  0  0  0
   56.6760   28.9770   44.1420 C   0  0  0  0  0  0  0  0  0  0  0  0
   57.4470   28.9050   45.3230 C   0  0  0  0  0  0  0  0  0  0  0  0
   57.4370   27.7320   46.1240 C   0  0  0  0  0  0  0  0  0  0  0  0
   56.5970   26.5230   45.7350 C   0  0  0  0  0  0  0  0  0  0  0  0
   55.2330   26.7120   46.0010 O   0  0  0  0  0  0  0  0  0  0  0  0
   58.2160   27.6950   47.2910 C   0  0  0  0  0  0  0  0  0  0  0  0
   58.9980   28.7830   47.6800 C   0  0  0  0  0  0  0  0  0  0  0  0
   59.7570   28.6890   48.8590 C   0  0  0  0  0  0  0  0  0  0  0  0
   60.5500   29.7560   49.2770 C   0  0  0  0  0  0  0  0  0  0  0  0
   61.5770   29.6140   50.8810 Br  0  0  0  0  0  0  0  0  0  0  0  0
   60.5910   30.9250   48.5240 C   0  0  0  0  0  0  0  0  0  0  0  0
   59.8440   31.0370   47.3510 C   0  0  0  0  0  0  0  0  0  0  0  0
   59.0260   29.9680   46.8980 C   0  0  0  0  0  0  0  0  0  0  0  0
   58.2420   30.0310   45.7030 C   0  0  0  0  0  0  0  0  0  0  0  0
   58.2210   31.1820   44.8710 C   0  0  0  0  0  0  0  0  0  0  0  0
   58.7710   32.2423   41.3116 H   0  0  0  0  0  0  0  0  0  0  0  0
   57.1811   31.4654   41.0027 H   0  0  0  0  0  0  0  0  0  0  0  0
   57.3208   33.2563   41.0027 H   0  0  0  0  0  0  0  0  0  0  0  0
   56.0669   30.1498   42.4368 H   0  0  0  0  0  0  0  0  0  0  0  0
   56.0634   28.1137   43.8429 H   0  0  0  0  0  0  0  0  0  0  0  0
   56.7244   26.3359   44.6586 H   0  0  0  0  0  0  0  0  0  0  0  0
   56.9407   25.6683   46.3361 H   0  0  0  0  0  0  0  0  0  0  0  0
   55.0690   26.3200   46.8980 H   0  0  0  0  0  0  0  0  0  0  0  0
   58.2098   26.7877   47.9129 H   0  0  0  0  0  0  0  0  0  0  0  0
   59.7249   27.7660   49.4566 H   0  0  0  0  0  0  0  0  0  0  0  0
   61.2166   31.7668   48.8557 H   0  0  0  0  0  0  0  0  0  0  0  0
   59.8893   31.9684   46.7675 H   0  0  0  0  0  0  0  0  0  0  0  0
   58.8264   32.0578   45.1477 H   0  0  0  0  0  0  0  0  0  0  0  0
  1  2  1  0
  2  3  1  0
  3  4  2  0
  4  5  1  0
  5  6  2  0
  6  7  1  0
  7  8  1  0
  8  9  1  0
  7 10  2  0
 10 11  1  0
 11 12  2  0
 12 13  1  0
 13 14  1  0
 13 15  2  0
 15 16  1  0
 16 17  2  0
 17 18  1  0
 18 19  2  0
 19  3  1  0
 18  6  1  0
 17 11  1  0
  1 20  1  0
  1 21  1  0
  1 22  1  0
  4 23  1  0
  5 24  1  0
  8 25  1  0
  8 26  1  0
  9 27  1  0
 10 28  1  0
 12 29  1  0
 15 30  1  0
 16 31  1  0
 19 32  1  0
M  END
>  <UniqueID>  (24) 
24

>  <SMILES>  (24) 
COc1ccc2c(CO)cc3cc(Br)ccc3c2c1

>  <Energy>  (24) 
49.972660622686114

>  <Genealogy>  (24) 
COc1ccc2c(CO)cc3cc(Br)ccc3c2c1 (3D coordinates assigned)
COc1ccc2c(CO)cc3cc(Br)ccc3c2c1 (optimized conformer: 49.972660622686114 kcal/mol)

>  <smiles>  (24) 
COc1ccc2c(CO)cc3cc(Br)ccc3c2c1

>  <score_type>  (24) 
oracle

>  <origin>  (24) 
adg

>  <m_score__min__energy>  (24) 
-7.2000000000000002

>  <m_primary>  (24) 
energy

$$$$
24:0
     RDKit          3D

 53 53  0  0  0  0  0  0  0  0999 V2000
   60.5630   28.7720   44.6600 C   0  0  0  0  0  0  0  0  0  0  0  0
   59.9290   27.5210   45.2610 C   0  0  0  0  0  0  0  0  0  0  0  0
   58.5160   27.4060   44.8320 N   0  0  0  0  0  0  0  0  0  0  0  0
   58.4170   27.4340   43.3620 C   0  0  0  0  0  0  0  0  0  0  0  0
   57.8860   26.1760   45.3610 C   0  0  0  0  0  0  0  0  0  0  0  0
   57.4020   26.3860   46.8000 C   0  0  0  0  0  0  0  0  0  0  0  0
   57.7630   27.7350   47.2640 N   0  0  0  0  0  0  0  0  0  0  0  0
   58.9140   27.7060   48.1790 C   0  0  0  0  0  0  0  0  0  0  0  0
   59.2180   29.1050   48.7300 C   0  0  0  0  0  0  0  0  0  0  0  0
   59.8020   30.0330   47.6550 C   0  0  0  0  0  0  0  0  0  0  0  0
   58.8140   30.3460   46.6740 O   0  0  0  0  0  0  0  0  0  0  0  0
   58.6080   31.6110   46.0930 C   0  0  0  0  0  0  0  0  0  0  0  0
   59.0450   32.7930   46.7270 C   0  0  0  0  0  0  0  0  0  0  0  0
   58.8510   34.0450   46.1310 C   0  0  0  0  0  0  0  0  0  0  0  0
   59.3060   35.2890   46.8350 C   0  0  0  0  0  0  0  0  0  0  0  0
   58.1790   34.1270   44.9080 C   0  0  0  0  0  0  0  0  0  0  0  0
   57.7330   32.9680   44.2710 C   0  0  0  0  0  0  0  0  0  0  0  0
   57.9420   31.7010   44.8450 C   0  0  0  0  0  0  0  0  0  0  0  0
   57.4430   30.4700   44.0970 C   0  0  0  0  0  0  0  0  0  0  0  0
   56.3800   29.7070   44.8970 C   0  0  0  0  0  0  0  0  0  0  0  0
   56.9490   30.8190   42.6880 C   0  0  0  0  0  0  0  0  0  0  0  0
   60.9000   29.4370   45.4688 H   0  0  0  0  0  0  0  0  0  0  0  0
   61.4242   28.4844   44.0389 H   0  0  0  0  0  0  0  0  0  0  0  0
   59.8219   29.2964   44.0389 H   0  0  0  0  0  0  0  0  0  0  0  0
   60.4846   26.6339   44.9227 H   0  0  0  0  0  0  0  0  0  0  0  0
   59.9660   27.5920   46.3581 H   0  0  0  0  0  0  0  0  0  0  0  0
   57.3969   27.7225   43.0686 H   0  0  0  0  0  0  0  0  0  0  0  0
   59.1346   28.1644   42.9600 H   0  0  0  0  0  0  0  0  0  0  0  0
   58.6457   26.4359   42.9600 H   0  0  0  0  0  0  0  0  0  0  0  0
   57.0272   25.9098   44.7272 H   0  0  0  0  0  0  0  0  0  0  0  0
   58.6323   25.3679   45.3552 H   0  0  0  0  0  0  0  0  0  0  0  0
   56.3088   26.2692   46.8367 H   0  0  0  0  0  0  0  0  0  0  0  0
   57.8805   25.6411   47.4528 H   0  0  0  0  0  0  0  0  0  0  0  0
   58.0420   28.2950   46.4240 H   0  0  0  0  0  0  0  0  0  0  0  0
   58.6890   27.0308   49.0177 H   0  0  0  0  0  0  0  0  0  0  0  0
   59.7938   27.3515   47.6220 H   0  0  0  0  0  0  0  0  0  0  0  0
   58.2856   29.5465   49.1117 H   0  0  0  0  0  0  0  0  0  0  0  0
   59.9655   28.9997   49.5301 H   0  0  0  0  0  0  0  0  0  0  0  0
   60.1486   30.9631   48.1292 H   0  0  0  0  0  0  0  0  0  0  0  0
   60.6426   29.5221   47.1627 H   0  0  0  0  0  0  0  0  0  0  0  0
   59.5457   32.7301   47.7044 H   0  0  0  0  0  0  0  0  0  0  0  0
   59.2500   35.1360   47.9229 H   0  0  0  0  0  0  0  0  0  0  0  0
   60.3443   35.5131   46.5492 H   0  0  0  0  0  0  0  0  0  0  0  0
   58.6573   36.1301   46.5492 H   0  0  0  0  0  0  0  0  0  0  0  0
   58.0010   35.1091   44.4457 H   0  0  0  0  0  0  0  0  0  0  0  0
   57.2105   33.0465   43.3062 H   0  0  0  0  0  0  0  0  0  0  0  0
   58.3048   29.7965   43.9800 H   0  0  0  0  0  0  0  0  0  0  0  0
   56.5653   29.8400   45.9731 H   0  0  0  0  0  0  0  0  0  0  0  0
   55.3824   30.0965   44.6459 H   0  0  0  0  0  0  0  0  0  0  0  0
   56.4298   28.6372   44.6459 H   0  0  0  0  0  0  0  0  0  0  0  0
   56.0525   31.4523   42.7602 H   0  0  0  0  0  0  0  0  0  0  0  0
   57.7383   31.3611   42.1465 H   0  0  0  0  0  0  0  0  0  0  0  0
   56.7018   29.8940   42.1465 H   0  0  0  0  0  0  0  0  0  0  0  0
  1  2  1  0
  2  3  1  0
  3  4  1  0
  3  5  1  0
  5  6  1  0
  6  7  1  0
  7  8  1  0
  8  9  1  0
  9 10  1  0
 10 11  1  0
 11 12  1  0
 12 13  2  0
 13 14  1  0
 14 15  1  0
 14 16  2  0
 16 17  1  0
 17 18  2  0
 18 19  1  0
 19 20  1  0
 19 21  1  0
 18 12  1  0
  1 22  1  0
  1 23  1  0
  1 24  1  0
  2 25  1  0
  2 26  1  0
  4 27  1  0
  4 28  1  0
  4 29  1  0
  5 30  1  0
  5 31  1  0
  6 32  1  0
  6 33  1  0
  7 34  1  0
  8 35  1  0
  8 36  1  0
  9 37  1  0
  9 38  1  0
 10 39  1  0
 10 40  1  0
 13 41  1  0
 15 42  1  0
 15 43  1  0
 15 44  1  0
 16 45  1  0
 17 46  1  0
 19 47  1  0
 20 48  1  0
 20 49  1  0
 20 50  1  0
 21 51  1  0
 21 52  1  0
 21 53  1  0
M  END
>  <UniqueID>  (25) 
25

>  <SMILES>  (25) 
CCN(C)CCNCCCOc1cc(C)ccc1C(C)C

>  <Energy>  (25) 
40.289733545713204

>  <Genealogy>  (25) 
CCN(C)CCNCCCOc1cc(C)ccc1C(C)C (3D coordinates assigned)
CCN(C)CCNCCCOc1cc(C)ccc1C(C)C (optimized conformer: 40.289733545713204 kcal/mol)

>  <smiles>  (25) 
CCN(C)CCNCCCOc1cc(C)ccc1C(C)C

>  <score_type>  (25) 
oracle

>  <origin>  (25) 
adg

>  <m_score__min__energy>  (25) 
-6.0700000000000003

>  <m_primary>  (25) 
energy

$$$$
25:0
     RDKit          3D

 55 58  0  0  0  0  0  0  0  0999 V2000
   62.7170   33.8280   46.3610 C   0  0  0  0  0  0  0  0  0  0  0  0
   63.7590   33.8690   47.4780 C   0  0  0  0  0  0  0  0  0  0  0  0
   63.2790   33.1820   48.6940 N   0  0  0  0  0  0  0  0  0  0  0  0
   64.3530   32.4200   49.3530 C   0  0  0  0  0  0  0  0  0  0  0  0
   62.4600   33.9980   49.6280 C   0  0  0  0  0  0  0  0  0  0  0  0
   60.9270   33.9490   49.4310 C   0  0  0  0  0  0  0  0  0  0  0  0
   60.3460   32.5340   49.4030 C   0  0  0  0  0  0  0  0  0  0  0  0
   60.8200   31.8170   48.2190 N   0  0  0  0  0  0  0  0  0  0  0  0
   59.9020   31.3610   47.2080 C   0  0  0  0  0  0  0  0  0  0  0  0
   59.1950   32.2890   46.4230 C   0  0  0  0  0  0  0  0  0  0  0  0
   59.3450   33.6790   46.6210 C   0  0  0  0  0  0  0  0  0  0  0  0
   58.6460   34.5890   45.8310 C   0  0  0  0  0  0  0  0  0  0  0  0
   57.7920   34.1350   44.8330 C   0  0  0  0  0  0  0  0  0  0  0  0
   57.6340   32.7670   44.6140 C   0  0  0  0  0  0  0  0  0  0  0  0
   58.3330   31.8180   45.4000 C   0  0  0  0  0  0  0  0  0  0  0  0
   58.1960   30.4630   45.1770 N   0  0  0  0  0  0  0  0  0  0  0  0
   57.7640   30.0110   43.8360 C   0  0  0  0  0  0  0  0  0  0  0  0
   58.6750   29.5560   46.1070 C   0  0  0  0  0  0  0  0  0  0  0  0
   59.6620   29.9830   47.0340 C   0  0  0  0  0  0  0  0  0  0  0  0
   60.4120   29.0270   47.7430 C   0  0  0  0  0  0  0  0  0  0  0  0
   60.1290   27.6720   47.6300 C   0  0  0  0  0  0  0  0  0  0  0  0
   59.0260   27.2460   46.8890 C   0  0  0  0  0  0  0  0  0  0  0  0
   58.6620   25.8900   46.9060 C   0  0  0  0  0  0  0  0  0  0  0  0
   57.4890   25.4690   46.2820 C   0  0  0  0  0  0  0  0  0  0  0  0
   56.6540   26.4010   45.6710 C   0  0  0  0  0  0  0  0  0  0  0  0
   57.0140   27.7500   45.6320 C   0  0  0  0  0  0  0  0  0  0  0  0
   58.2470   28.1890   46.1660 C   0  0  0  0  0  0  0  0  0  0  0  0
   61.7095   33.7884   46.8007 H   0  0  0  0  0  0  0  0  0  0  0  0
   62.8104   34.7305   45.7391 H   0  0  0  0  0  0  0  0  0  0  0  0
   62.8810   32.9356   45.7391 H   0  0  0  0  0  0  0  0  0  0  0  0
   64.6774   33.3751   47.1279 H   0  0  0  0  0  0  0  0  0  0  0  0
   63.9515   34.9221   47.7308 H   0  0  0  0  0  0  0  0  0  0  0  0
   64.2419   32.4988   50.4445 H   0  0  0  0  0  0  0  0  0  0  0  0
   64.2900   31.3635   49.0534 H   0  0  0  0  0  0  0  0  0  0  0  0
   65.3294   32.8285   49.0534 H   0  0  0  0  0  0  0  0  0  0  0  0
   62.6760   33.6526   50.6498 H   0  0  0  0  0  0  0  0  0  0  0  0
   62.7444   35.0413   49.4262 H   0  0  0  0  0  0  0  0  0  0  0  0
   60.4547   34.5001   50.2575 H   0  0  0  0  0  0  0  0  0  0  0  0
   60.7189   34.3970   48.4481 H   0  0  0  0  0  0  0  0  0  0  0  0
   60.6631   31.9930   50.3067 H   0  0  0  0  0  0  0  0  0  0  0  0
   59.2483   32.5971   49.3691 H   0  0  0  0  0  0  0  0  0  0  0  0
   61.8370   31.8750   47.9830 H   0  0  0  0  0  0  0  0  0  0  0  0
   60.0207   34.0471   47.4071 H   0  0  0  0  0  0  0  0  0  0  0  0
   58.7703   35.6692   45.9975 H   0  0  0  0  0  0  0  0  0  0  0  0
   57.2391   34.8569   44.2140 H   0  0  0  0  0  0  0  0  0  0  0  0
   56.9570   32.4197   43.8196 H   0  0  0  0  0  0  0  0  0  0  0  0
   57.0075   29.2195   43.9419 H   0  0  0  0  0  0  0  0  0  0  0  0
   57.3324   30.8593   43.2846 H   0  0  0  0  0  0  0  0  0  0  0  0
   58.6309   29.6182   43.2846 H   0  0  0  0  0  0  0  0  0  0  0  0
   61.2336   29.3571   48.3956 H   0  0  0  0  0  0  0  0  0  0  0  0
   60.7757   26.9331   48.1257 H   0  0  0  0  0  0  0  0  0  0  0  0
   59.3055   25.1567   47.4141 H   0  0  0  0  0  0  0  0  0  0  0  0
   57.2231   24.4017   46.2722 H   0  0  0  0  0  0  0  0  0  0  0  0
   55.7070   26.0735   45.2172 H   0  0  0  0  0  0  0  0  0  0  0  0
   56.3282   28.4812   45.1793 H   0  0  0  0  0  0  0  0  0  0  0  0
  1  2  1  0
  2  3  1  0
  3  4  1  0
  3  5  1  0
  5  6  1  0
  6  7  1  0
  7  8  1  0
  8  9  1  0
  9 10  2  0
 10 11  1  0
 11 12  2  0
 12 13  1  0
 13 14  2  0
 14 15  1  0
 15 16  2  0
 16 17  1  0
 16 18  1  0
 18 19  2  0
 19 20  1  0
 20 21  2  0
 21 22  1  0
 22 23  2  0
 23 24  1  0
 24 25  2  0
 25 26  1  0
 26 27  2  0
 19  9  1  0
 27 22  1  0
 15 10  1  0
 27 18  1  0
  1 28  1  0
  1 29  1  0
  1 30  1  0
  2 31  1  0
  2 32  1  0
  4 33  1  0
  4 34  1  0
  4 35  1  0
  5 36  1  0
  5 37  1  0
  6 38  1  0
  6 39  1  0
  7 40  1  0
  7 41  1  0
  8 42  1  0
 11 43  1  0
 12 44  1  0
 13 45  1  0
 14 46  1  0
 17 47  1  0
 17 48  1  0
 17 49  1  0
 20 50  1  0
 21 51  1  0
 23 52  1  0
 24 53  1  0
 25 54  1  0
 26 55  1  0
M  CHG  1  16   1
M  END
>  <UniqueID>  (26) 
26

>  <SMILES>  (26) 
CCN(C)CCCNc1c2ccccc2[n+](C)c2c1ccc1ccccc12

>  <Energy>  (26) 
102.19094127484341

>  <Genealogy>  (26) 
CCN(C)CCCNc1c2ccccc2[n+](C)c2c1ccc1ccccc12 (3D coordinates assigned)
CCN(C)CCCNc1c2ccccc2[n+](C)c2c1ccc1ccccc12 (optimized conformer: 102.19094127484341 kcal/mol)

>  <smiles>  (26) 
CCN(C)CCCNc1c2ccccc2[n+](C)c2c1ccc1ccccc12

>  <score_type>  (26) 
oracle

>  <origin>  (26) 
adg

>  <m_score__min__energy>  (26) 
-6.3099999999999996

>  <m_primary>  (26) 
energy

$$$$
26:0
     RDKit          3D

 71 73  0  0  0  0  0  0  0  0999 V2000
   58.1440   23.4960   45.0520 C   0  0  0  0  0  0  0  0  0  0  0  0
   57.4910   24.4160   44.0210 C   0  0  0  0  0  0  0  0  0  0  0  0
   56.6970   25.4650   44.6810 N   0  0  0  0  0  0  0  0  0  0  0  0
   56.9050   25.4330   46.1350 C   0  0  0  0  0  0  0  0  0  0  0  0
   57.2490   26.8340   46.6700 C   0  0  0  0  0  0  0  0  0  0  0  0
   57.5960   27.7630   45.5710 N   0  0  0  0  0  0  0  0  0  0  0  0
   57.3410   29.1820   45.9010 C   0  0  0  0  0  0  0  0  0  0  0  0
   57.3660   30.0280   44.6470 C   0  0  0  0  0  0  0  0  0  0  0  0
   56.6430   29.6090   43.5170 C   0  0  0  0  0  0  0  0  0  0  0  0
   56.6330   30.3830   42.3540 C   0  0  0  0  0  0  0  0  0  0  0  0
   57.3410   31.5840   42.3050 C   0  0  0  0  0  0  0  0  0  0  0  0
   58.0600   32.0170   43.4200 C   0  0  0  0  0  0  0  0  0  0  0  0
   58.0820   31.2500   44.5930 C   0  0  0  0  0  0  0  0  0  0  0  0
   58.8450   31.7490   45.7520 C   0  0  0  0  0  0  0  0  0  0  0  0
   59.8360   30.9480   46.3340 C   0  0  0  0  0  0  0  0  0  0  0  0
   60.5740   31.4250   47.4220 C   0  0  0  0  0  0  0  0  0  0  0  0
   60.3170   32.7010   47.9480 C   0  0  0  0  0  0  0  0  0  0  0  0
   61.1370   33.2160   49.1000 C   0  0  0  0  0  0  0  0  0  0  0  0
   62.2210   34.0930   48.6020 N   0  0  0  0  0  0  0  0  0  0  0  0
   62.4920   33.9190   47.1530 C   0  0  0  0  0  0  0  0  0  0  0  0
   63.6380   32.9330   46.8600 C   0  0  0  0  0  0  0  0  0  0  0  0
   63.7660   31.9600   47.9460 N   0  0  0  0  0  0  0  0  0  0  0  0
   64.1750   32.6220   49.1940 C   0  0  0  0  0  0  0  0  0  0  0  0
   63.4590   33.9770   49.4020 C   0  0  0  0  0  0  0  0  0  0  0  0
   59.3180   33.4980   47.3640 C   0  0  0  0  0  0  0  0  0  0  0  0
   58.5860   33.0240   46.2730 C   0  0  0  0  0  0  0  0  0  0  0  0
   58.8910   27.5210   44.8810 C   0  0  0  0  0  0  0  0  0  0  0  0
   60.1850   27.8970   45.6630 C   0  0  0  0  0  0  0  0  0  0  0  0
   61.2450   28.5660   44.7790 C   0  0  0  0  0  0  0  0  0  0  0  0
   60.7780   26.6340   46.3030 C   0  0  0  0  0  0  0  0  0  0  0  0
   57.8957   23.8458   46.0649 H   0  0  0  0  0  0  0  0  0  0  0  0
   57.7707   22.4702   44.9166 H   0  0  0  0  0  0  0  0  0  0  0  0
   59.2355   23.5099   44.9166 H   0  0  0  0  0  0  0  0  0  0  0  0
   58.2756   24.8881   43.4115 H   0  0  0  0  0  0  0  0  0  0  0  0
   56.8219   23.8150   43.3877 H   0  0  0  0  0  0  0  0  0  0  0  0
   55.6810   25.3140   44.4770 H   0  0  0  0  0  0  0  0  0  0  0  0
   56.9890   26.3970   44.3070 H   0  0  0  0  0  0  0  0  0  0  0  0
   55.9857   25.0766   46.6228 H   0  0  0  0  0  0  0  0  0  0  0  0
   57.7435   24.7562   46.3558 H   0  0  0  0  0  0  0  0  0  0  0  0
   56.3800   27.2324   47.2141 H   0  0  0  0  0  0  0  0  0  0  0  0
   58.1202   26.7455   47.3358 H   0  0  0  0  0  0  0  0  0  0  0  0
   56.3542   29.2713   46.3788 H   0  0  0  0  0  0  0  0  0  0  0  0
   58.1260   29.5357   46.5856 H   0  0  0  0  0  0  0  0  0  0  0  0
   56.0806   28.6642   43.5485 H   0  0  0  0  0  0  0  0  0  0  0  0
   56.0654   30.0445   41.4747 H   0  0  0  0  0  0  0  0  0  0  0  0
   57.3326   32.1900   41.3870 H   0  0  0  0  0  0  0  0  0  0  0  0
   58.6133   32.9668   43.3780 H   0  0  0  0  0  0  0  0  0  0  0  0
   60.0340   29.9424   45.9347 H   0  0  0  0  0  0  0  0  0  0  0  0
   61.3597   30.7973   47.8678 H   0  0  0  0  0  0  0  0  0  0  0  0
   60.4893   33.7887   49.7801 H   0  0  0  0  0  0  0  0  0  0  0  0
   61.5811   32.3635   49.6349 H   0  0  0  0  0  0  0  0  0  0  0  0
   61.5776   33.5446   46.6696 H   0  0  0  0  0  0  0  0  0  0  0  0
   62.7982   34.8995   46.7595 H   0  0  0  0  0  0  0  0  0  0  0  0
   63.4270   32.4014   45.9204 H   0  0  0  0  0  0  0  0  0  0  0  0
   64.5790   33.4961   46.7735 H   0  0  0  0  0  0  0  0  0  0  0  0
   64.5120   31.2760   47.6820 H   0  0  0  0  0  0  0  0  0  0  0  0
   63.9345   31.9614   50.0400 H   0  0  0  0  0  0  0  0  0  0  0  0
   65.2555   32.8186   49.1320 H   0  0  0  0  0  0  0  0  0  0  0  0
   63.2018   34.0801   50.4665 H   0  0  0  0  0  0  0  0  0  0  0  0
   64.1451   34.7711   49.0724 H   0  0  0  0  0  0  0  0  0  0  0  0
   59.1114   34.5001   47.7680 H   0  0  0  0  0  0  0  0  0  0  0  0
   57.8044   33.6528   45.8217 H   0  0  0  0  0  0  0  0  0  0  0  0
   58.9459   26.4484   44.6430 H   0  0  0  0  0  0  0  0  0  0  0  0
   58.8797   28.1875   44.0060 H   0  0  0  0  0  0  0  0  0  0  0  0
   59.8976   28.6281   46.4330 H   0  0  0  0  0  0  0  0  0  0  0  0
   62.0039   29.0449   45.4152 H   0  0  0  0  0  0  0  0  0  0  0  0
   61.7250   27.8069   44.1439 H   0  0  0  0  0  0  0  0  0  0  0  0
   60.7663   29.3259   44.1439 H   0  0  0  0  0  0  0  0  0  0  0  0
   60.7359   26.7237   47.3985 H   0  0  0  0  0  0  0  0  0  0  0  0
   60.1985   25.7549   45.9845 H   0  0  0  0  0  0  0  0  0  0  0  0
   61.8245   26.5183   45.9845 H   0  0  0  0  0  0  0  0  0  0  0  0
  1  2  1  0
  2  3  1  0
  3  4  1  0
  4  5  1  0
  5  6  1  0
  6  7  1  0
  7  8  1  0
  8  9  2  0
  9 10  1  0
 10 11  2  0
 11 12  1  0
 12 13  2  0
 13 14  1  0
 14 15  2  0
 15 16  1  0
 16 17  2  0
 17 18  1  0
 18 19  1  0
 19 20  1  0
 20 21  1  0
 21 22  1  0
 22 23  1  0
 23 24  1  0
 17 25  1  0
 25 26  2  0
  6 27  1  0
 27 28  1  0
 28 29  1  0
 28 30  1  0
 13  8  1  0
 26 14  1  0
 24 19  1  0
  1 31  1  0
  1 32  1  0
  1 33  1  0
  2 34  1  0
  2 35  1  0
  3 36  1  0
  3 37  1  0
  4 38  1  0
  4 39  1  0
  5 40  1  0
  5 41  1  0
  7 42  1  0
  7 43  1  0
  9 44  1  0
 10 45  1  0
 11 46  1  0
 12 47  1  0
 15 48  1  0
 16 49  1  0
 18 50  1  0
 18 51  1  0
 20 52  1  0
 20 53  1  0
 21 54  1  0
 21 55  1  0
 22 56  1  0
 23 57  1  0
 23 58  1  0
 24 59  1  0
 24 60  1  0
 25 61  1  0
 26 62  1  0
 27 63  1  0
 27 64  1  0
 28 65  1  0
 29 66  1  0
 29 67  1  0
 29 68  1  0
 30 69  1  0
 30 70  1  0
 30 71  1  0
M  CHG  1   3   1
M  END
>  <UniqueID>  (27) 
27

>  <SMILES>  (27) 
CC[NH2+]CCN(Cc1ccccc1-c1ccc(CN2CCNCC2)cc1)CC(C)C

>  <Energy>  (27) 
82.94708723253896

>  <Genealogy>  (27) 
CC[NH2+]CCN(Cc1ccccc1-c1ccc(CN2CCNCC2)cc1)CC(C)C (protonated)
CC[NH2+]CCN(Cc1ccccc1-c1ccc(CN2CCNCC2)cc1)CC(C)C (3D coordinates assigned)
CC[NH2+]CCN(Cc1ccccc1-c1ccc(CN2CCNCC2)cc1)CC(C)C (nonaromatic ring conformer: 82.94708723253896 kcal/mol)

>  <smiles>  (27) 
CCNCCN(Cc1ccccc1-c1ccc(CN2CCNCC2)cc1)CC(C)C

>  <score_type>  (27) 
oracle

>  <origin>  (27) 
adg

>  <m_score__min__energy>  (27) 
-6.5700000000000003

>  <m_primary>  (27) 
energy

$$$$
27:0
     RDKit          3D

 36 39  0  0  0  0  0  0  0  0999 V2000
   57.7700   23.8140   44.8010 C   0  0  0  0  0  0  0  0  0  0  0  0
   58.6100   24.4100   45.7830 O   0  0  0  0  0  0  0  0  0  0  0  0
   58.7460   25.7930   45.9760 C   0  0  0  0  0  0  0  0  0  0  0  0
   59.4630   26.3380   47.0790 C   0  0  0  0  0  0  0  0  0  0  0  0
   59.5790   27.7310   47.2440 C   0  0  0  0  0  0  0  0  0  0  0  0
   58.9760   28.5550   46.2970 C   0  0  0  0  0  0  0  0  0  0  0  0
   58.9610   29.9050   46.2830 N   0  0  0  0  0  0  0  0  0  0  0  0
   58.2490   30.2320   45.1790 C   0  0  0  0  0  0  0  0  0  0  0  0
   57.9040   31.5080   44.7090 C   0  0  0  0  0  0  0  0  0  0  0  0
   58.3670   32.7430   45.3810 C   0  0  0  0  0  0  0  0  0  0  0  0
   58.3830   32.8350   46.7840 C   0  0  0  0  0  0  0  0  0  0  0  0
   58.8390   34.0000   47.4080 C   0  0  0  0  0  0  0  0  0  0  0  0
   59.2910   35.0760   46.6410 C   0  0  0  0  0  0  0  0  0  0  0  0
   59.2930   34.9870   45.2460 C   0  0  0  0  0  0  0  0  0  0  0  0
   58.8380   33.8240   44.6170 C   0  0  0  0  0  0  0  0  0  0  0  0
   57.1130   31.5850   43.5920 N   0  0  0  0  0  0  0  0  0  0  0  0
   56.6750   30.4690   42.9270 C   0  0  0  0  0  0  0  0  0  0  0  0
   57.0190   29.1850   43.3780 C   0  0  0  0  0  0  0  0  0  0  0  0
   57.8100   29.1060   44.5150 C   0  0  0  0  0  0  0  0  0  0  0  0
   58.2830   28.0290   45.2290 C   0  0  0  0  0  0  0  0  0  0  0  0
   58.1460   26.6560   45.0390 C   0  0  0  0  0  0  0  0  0  0  0  0
   56.9699   23.2463   45.2986 H   0  0  0  0  0  0  0  0  0  0  0  0
   57.3257   24.6000   44.1727 H   0  0  0  0  0  0  0  0  0  0  0  0
   58.3651   23.1350   44.1727 H   0  0  0  0  0  0  0  0  0  0  0  0
   59.9314   25.6628   47.8102 H   0  0  0  0  0  0  0  0  0  0  0  0
   60.1298   28.1563   48.0959 H   0  0  0  0  0  0  0  0  0  0  0  0
   59.3840   30.5440   46.9920 H   0  0  0  0  0  0  0  0  0  0  0  0
   58.0355   31.9873   47.3928 H   0  0  0  0  0  0  0  0  0  0  0  0
   58.8418   34.0693   48.5058 H   0  0  0  0  0  0  0  0  0  0  0  0
   59.6453   35.9931   47.1344 H   0  0  0  0  0  0  0  0  0  0  0  0
   59.6530   35.8331   44.6422 H   0  0  0  0  0  0  0  0  0  0  0  0
   58.8489   33.7551   43.5192 H   0  0  0  0  0  0  0  0  0  0  0  0
   56.8410   32.5210   43.2130 H   0  0  0  0  0  0  0  0  0  0  0  0
   56.0474   30.5809   42.0306 H   0  0  0  0  0  0  0  0  0  0  0  0
   56.6764   28.2811   42.8530 H   0  0  0  0  0  0  0  0  0  0  0  0
   57.5849   26.2571   44.1811 H   0  0  0  0  0  0  0  0  0  0  0  0
  1  2  1  0
  2  3  1  0
  3  4  2  0
  4  5  1  0
  5  6  2  0
  6  7  1  0
  7  8  1  0
  8  9  2  0
  9 10  1  0
 10 11  2  0
 11 12  1  0
 12 13  2  0
 13 14  1  0
 14 15  2  0
  9 16  1  0
 16 17  2  0
 17 18  1  0
 18 19  2  0
 19 20  1  0
 20 21  2  0
 21  3  1  0
 20  6  1  0
 19  8  1  0
 15 10  1  0
  1 22  1  0
  1 23  1  0
  1 24  1  0
  4 25  1  0
  5 26  1  0
  7 27  1  0
 11 28  1  0
 12 29  1  0
 13 30  1  0
 14 31  1  0
 15 32  1  0
 16 33  1  0
 17 34  1  0
 18 35  1  0
 21 36  1  0
M  CHG  1  16   1
M  END
>  <UniqueID>  (28) 
28

>  <SMILES>  (28) 
COc1ccc2[nH]c3c(-c4ccccc4)[nH+]ccc3c2c1

>  <Energy>  (28) 
86.98833117136228

>  <Genealogy>  (28) 
COc1ccc2[nH]c3c(-c4ccccc4)[nH+]ccc3c2c1 (protonated)
COc1ccc2[nH]c3c(-c4ccccc4)[nH+]ccc3c2c1 (3D coordinates assigned)
COc1ccc2[nH]c3c(-c4ccccc4)[nH+]ccc3c2c1 (optimized conformer: 86.98833117136228 kcal/mol)

>  <smiles>  (28) 
COc1ccc2[nH]c3c(-c4ccccc4)nccc3c2c1

>  <score_type>  (28) 
oracle

>  <origin>  (28) 
adg

>  <m_score__min__energy>  (28) 
-5.3799999999999999

>  <m_primary>  (28) 
energy

$$$$
28:0
     RDKit          3D

 36 37  0  0  0  0  0  0  0  0999 V2000
   63.7620   33.4530   46.7480 C   0  0  0  0  0  0  0  0  0  0  0  0
   62.4780   33.2590   47.4880 C   0  0  0  0  0  0  0  0  0  0  0  0
   62.4750   33.0010   48.8600 C   0  0  0  0  0  0  0  0  0  0  0  0
   61.2930   32.8410   49.5090 N   0  0  0  0  0  0  0  0  0  0  0  0
   60.0990   32.9360   48.8550 C   0  0  0  0  0  0  0  0  0  0  0  0
   58.8210   32.7140   49.6210 C   0  0  0  0  0  0  0  0  0  0  0  0
   60.1010   33.2380   47.4720 C   0  0  0  0  0  0  0  0  0  0  0  0
   58.8580   33.4360   46.6900 C   0  0  0  0  0  0  0  0  0  0  0  0
   58.1920   34.4950   46.8430 O   0  0  0  0  0  0  0  0  0  0  0  0
   58.4230   32.4600   45.7240 N   0  0  0  0  0  0  0  0  0  0  0  0
   57.7370   32.9160   44.5090 C   0  0  0  0  0  0  0  0  0  0  0  0
   57.3180   31.7300   43.6430 C   0  0  0  0  0  0  0  0  0  0  0  0
   56.6290   30.7520   44.4960 N   0  0  0  0  0  0  0  0  0  0  0  0
   55.9770   29.7190   43.6770 C   0  0  0  0  0  0  0  0  0  0  0  0
   57.5310   30.1380   45.5050 C   0  0  0  0  0  0  0  0  0  0  0  0
   58.7280   31.0330   45.9030 C   0  0  0  0  0  0  0  0  0  0  0  0
   61.2930   33.3800   46.8350 N   0  0  0  0  0  0  0  0  0  0  0  0
   64.5847   33.5773   47.4675 H   0  0  0  0  0  0  0  0  0  0  0  0
   63.9573   32.5742   46.1159 H   0  0  0  0  0  0  0  0  0  0  0  0
   63.6890   34.3503   46.1159 H   0  0  0  0  0  0  0  0  0  0  0  0
   63.4238   32.9278   49.4117 H   0  0  0  0  0  0  0  0  0  0  0  0
   61.3140   32.6330   50.5330 H   0  0  0  0  0  0  0  0  0  0  0  0
   59.0295   32.7502   50.7004 H   0  0  0  0  0  0  0  0  0  0  0  0
   58.0964   33.4997   49.3609 H   0  0  0  0  0  0  0  0  0  0  0  0
   58.4039   31.7299   49.3609 H   0  0  0  0  0  0  0  0  0  0  0  0
   56.8418   33.4881   44.7939 H   0  0  0  0  0  0  0  0  0  0  0  0
   58.4279   33.5471   43.9308 H   0  0  0  0  0  0  0  0  0  0  0  0
   56.6394   32.0723   42.8478 H   0  0  0  0  0  0  0  0  0  0  0  0
   58.2031   31.2695   43.1798 H   0  0  0  0  0  0  0  0  0  0  0  0
   55.5062   28.9731   44.3342 H   0  0  0  0  0  0  0  0  0  0  0  0
   55.2091   30.1850   43.0421 H   0  0  0  0  0  0  0  0  0  0  0  0
   56.7281   29.2263   43.0421 H   0  0  0  0  0  0  0  0  0  0  0  0
   56.9433   29.9232   46.4097 H   0  0  0  0  0  0  0  0  0  0  0  0
   57.9499   29.2295   45.0478 H   0  0  0  0  0  0  0  0  0  0  0  0
   58.9736   30.8507   46.9596 H   0  0  0  0  0  0  0  0  0  0  0  0
   59.5773   30.7795   45.2515 H   0  0  0  0  0  0  0  0  0  0  0  0
  1  2  1  0
  2  3  2  0
  3  4  1  0
  4  5  2  0
  5  6  1  0
  5  7  1  0
  7  8  1  0
  8  9  2  0
  8 10  1  0
 10 11  1  0
 11 12  1  0
 12 13  1  0
 13 14  1  0
 13 15  1  0
 15 16  1  0
  7 17  2  0
 17  2  1  0
 16 10  1  0
  1 18  1  0
  1 19  1  0
  1 20  1  0
  3 21  1  0
  4 22  1  0
  6 23  1  0
  6 24  1  0
  6 25  1  0
 11 26  1  0
 11 27  1  0
 12 28  1  0
 12 29  1  0
 14 30  1  0
 14 31  1  0
 14 32  1  0
 15 33  1  0
 15 34  1  0
 16 35  1  0
 16 36  1  0
M  CHG  1   4   1
M  END
>  <UniqueID>  (29) 
29

>  <SMILES>  (29) 
Cc1c[nH+]c(C)c(C(=O)N2CCN(C)CC2)n1

>  <Energy>  (29) 
44.99267027194599

>  <Genealogy>  (29) 
Cc1c[nH+]c(C)c(C(=O)N2CCN(C)CC2)n1 (protonated)
Cc1c[nH+]c(C)c(C(=O)N2CCN(C)CC2)n1 (3D coordinates assigned)
Cc1c[nH+]c(C)c(C(=O)N2CCN(C)CC2)n1 (nonaromatic ring conformer: 44.99267027194599 kcal/mol)

>  <smiles>  (29) 
Cc1cnc(C)c(C(=O)N2CCN(C)CC2)n1

>  <score_type>  (29) 
oracle

>  <origin>  (29) 
adg

>  <m_score__min__energy>  (29) 
-4.9199999999999999

>  <m_primary>  (29) 
energy

$$$$
29:0
     RDKit          3D

 55 57  0  0  0  0  0  0  0  0999 V2000
   59.6250   33.2540   51.0300 C   0  0  0  0  0  0  0  0  0  0  0  0
   60.0450   31.8460   50.6180 C   0  0  0  0  0  0  0  0  0  0  0  0
   60.9560   31.9060   49.4380 N   0  0  0  0  0  0  0  0  0  0  0  0
   62.2540   31.2410   49.7270 C   0  0  0  0  0  0  0  0  0  0  0  0
   63.4610   32.1470   49.4290 C   0  0  0  0  0  0  0  0  0  0  0  0
   63.0070   33.4660   48.9750 N   0  0  0  0  0  0  0  0  0  0  0  0
   62.7210   33.4350   47.2610 S   0  0  0  0  0  0  0  0  0  0  0  0
   62.8560   32.0280   46.7480 O   0  0  0  0  0  0  0  0  0  0  0  0
   63.7380   34.2980   46.5720 O   0  0  0  0  0  0  0  0  0  0  0  0
   61.1160   34.0440   46.8950 C   0  0  0  0  0  0  0  0  0  0  0  0
   60.4270   33.8440   45.7210 C   0  0  0  0  0  0  0  0  0  0  0  0
   59.2340   34.4430   45.8530 N   0  0  0  0  0  0  0  0  0  0  0  0
   58.1350   34.4200   44.8950 C   0  0  0  0  0  0  0  0  0  0  0  0
   59.2120   34.9620   47.0960 C   0  0  0  0  0  0  0  0  0  0  0  0
   60.3610   34.7410   47.7700 N   0  0  0  0  0  0  0  0  0  0  0  0
   60.2540   31.4310   48.2000 C   0  0  2  0  0  0  0  0  0  0  0  0
   58.7880   31.9120   48.0640 C   0  0  0  0  0  0  0  0  0  0  0  0
   58.1570   31.4280   46.7560 C   0  0  0  0  0  0  0  0  0  0  0  0
   58.3530   29.9540   46.5030 C   0  0  0  0  0  0  0  0  0  0  0  0
   59.3990   29.2480   47.1360 C   0  0  0  0  0  0  0  0  0  0  0  0
   59.5860   27.8870   46.8520 C   0  0  0  0  0  0  0  0  0  0  0  0
   58.7750   27.2400   45.9210 C   0  0  0  0  0  0  0  0  0  0  0  0
   57.7640   27.9400   45.2670 C   0  0  0  0  0  0  0  0  0  0  0  0
   57.5470   29.3030   45.5440 C   0  0  0  0  0  0  0  0  0  0  0  0
   56.5460   30.0380   44.8850 O   0  0  0  0  0  0  0  0  0  0  0  0
   56.3850   30.0990   43.4710 C   0  0  0  0  0  0  0  0  0  0  0  0
   60.2580   29.8830   48.2040 C   0  0  0  0  0  0  0  0  0  0  0  0
   59.6041   33.3240   52.1276 H   0  0  0  0  0  0  0  0  0  0  0  0
   60.3447   33.9832   50.6297 H   0  0  0  0  0  0  0  0  0  0  0  0
   58.6234   33.4698   50.6297 H   0  0  0  0  0  0  0  0  0  0  0  0
   60.5675   31.3625   51.4565 H   0  0  0  0  0  0  0  0  0  0  0  0
   59.1486   31.2671   50.3510 H   0  0  0  0  0  0  0  0  0  0  0  0
   62.2775   30.9610   50.7905 H   0  0  0  0  0  0  0  0  0  0  0  0
   62.3296   30.3590   49.0740 H   0  0  0  0  0  0  0  0  0  0  0  0
   64.0611   32.2646   50.3434 H   0  0  0  0  0  0  0  0  0  0  0  0
   64.0684   31.6851   48.6367 H   0  0  0  0  0  0  0  0  0  0  0  0
   62.0870   33.6700   49.4300 H   0  0  0  0  0  0  0  0  0  0  0  0
   60.7873   33.2951   44.8385 H   0  0  0  0  0  0  0  0  0  0  0  0
   57.1774   34.4000   45.4359 H   0  0  0  0  0  0  0  0  0  0  0  0
   58.1805   35.3193   44.2632 H   0  0  0  0  0  0  0  0  0  0  0  0
   58.2180   33.5234   44.2632 H   0  0  0  0  0  0  0  0  0  0  0  0
   58.3528   35.5058   47.5156 H   0  0  0  0  0  0  0  0  0  0  0  0
   60.8020   31.8602   47.3482 H   0  0  0  0  0  0  0  0  0  0  0  0
   58.2034   31.5198   48.9093 H   0  0  0  0  0  0  0  0  0  0  0  0
   58.7848   33.0120   48.0620 H   0  0  0  0  0  0  0  0  0  0  0  0
   57.0772   31.6344   46.7930 H   0  0  0  0  0  0  0  0  0  0  0  0
   58.6566   31.9662   45.9370 H   0  0  0  0  0  0  0  0  0  0  0  0
   60.3790   27.3259   47.3681 H   0  0  0  0  0  0  0  0  0  0  0  0
   58.9339   26.1737   45.7023 H   0  0  0  0  0  0  0  0  0  0  0  0
   57.1312   27.4246   44.5295 H   0  0  0  0  0  0  0  0  0  0  0  0
   55.3808   30.4795   43.2324 H   0  0  0  0  0  0  0  0  0  0  0  0
   57.1431   30.7722   43.0443 H   0  0  0  0  0  0  0  0  0  0  0  0
   56.5067   29.0924   43.0443 H   0  0  0  0  0  0  0  0  0  0  0  0
   59.8942   29.5417   49.1844 H   0  0  0  0  0  0  0  0  0  0  0  0
   61.2929   29.5739   47.9955 H   0  0  0  0  0  0  0  0  0  0  0  0
  1  2  1  0
  2  3  1  0
  3  4  1  0
  4  5  1  0
  5  6  1  0
  6  7  1  0
  7  8  2  0
  7  9  2  0
  7 10  1  0
 10 11  2  0
 11 12  1  0
 12 13  1  0
 12 14  1  0
 14 15  2  0
  3 16  1  0
 16 17  1  0
 17 18  1  0
 18 19  1  0
 19 20  2  0
 20 21  1  0
 21 22  2  0
 22 23  1  0
 23 24  2  0
 24 25  1  0
 25 26  1  0
 20 27  1  0
 15 10  1  0
 27 16  1  0
 24 19  1  0
  1 28  1  0
  1 29  1  0
  1 30  1  0
  2 31  1  0
  2 32  1  0
  4 33  1  0
  4 34  1  0
  5 35  1  0
  5 36  1  0
  6 37  1  0
 11 38  1  0
 13 39  1  0
 13 40  1  0
 13 41  1  0
 14 42  1  0
 16 43  1  6
 17 44  1  0
 17 45  1  0
 18 46  1  0
 18 47  1  0
 21 48  1  0
 22 49  1  0
 23 50  1  0
 26 51  1  0
 26 52  1  0
 26 53  1  0
 27 54  1  0
 27 55  1  0
M  END
>  <UniqueID>  (30) 
30

>  <SMILES>  (30) 
CCN(CCNS(=O)(=O)c1cn(C)cn1)[C@@H]1CCc2c(cccc2OC)C1

>  <Energy>  (30) 
90.78503411542053

>  <Genealogy>  (30) 
CCN(CCNS(=O)(=O)c1cn(C)cn1)[C@@H]1CCc2c(cccc2OC)C1 (chirality)
CCN(CCNS(=O)(=O)c1cn(C)cn1)[C@@H]1CCc2c(cccc2OC)C1 (3D coordinates assigned)
CCN(CCNS(=O)(=O)c1cn(C)cn1)[C@@H]1CCc2c(cccc2OC)C1 (nonaromatic ring conformer: 90.78503411542053 kcal/mol)

>  <smiles>  (30) 
CCN(CCNS(=O)(=O)c1cn(C)cn1)C1CCc2c(cccc2OC)C1

>  <score_type>  (30) 
oracle

>  <origin>  (30) 
adg

>  <m_score__min__energy>  (30) 
-8.4199999999999999

>  <m_primary>  (30) 
energy

$$$$
30:0
     RDKit          3D

 39 40  0  0  0  0  0  0  0  0999 V2000
   61.9620   34.1390   48.3020 C   0  0  0  0  0  0  0  0  0  0  0  0
   60.8700   33.4300   47.5550 C   0  0  0  0  0  0  0  0  0  0  0  0
   60.6710   32.0570   47.7360 C   0  0  0  0  0  0  0  0  0  0  0  0
   59.6410   31.3850   47.0600 C   0  0  0  0  0  0  0  0  0  0  0  0
   59.5010   29.9010   47.2700 C   0  0  0  0  0  0  0  0  0  0  0  0
   58.7560   32.1170   46.2300 C   0  0  0  0  0  0  0  0  0  0  0  0
   57.6750   31.4670   45.5390 N   0  0  0  0  0  0  0  0  0  0  0  0
   57.6970   31.2570   44.1200 C   0  0  0  0  0  0  0  0  0  0  0  0
   58.5100   31.8920   43.3960 O   0  0  0  0  0  0  0  0  0  0  0  0
   56.8310   30.2060   43.4890 C   0  0  0  0  0  0  0  0  0  0  0  0
   55.7450   29.3540   44.6900 S   0  0  0  0  0  0  0  0  0  0  0  0
   56.9210   28.0590   45.1090 C   0  0  0  0  0  0  0  0  0  0  0  0
   58.2880   28.2640   44.8810 C   0  0  0  0  0  0  0  0  0  0  0  0
   59.1940   27.2530   45.1990 C   0  0  0  0  0  0  0  0  0  0  0  0
   58.7340   26.0580   45.7530 C   0  0  0  0  0  0  0  0  0  0  0  0
   57.3670   25.8970   45.9910 C   0  0  0  0  0  0  0  0  0  0  0  0
   56.4920   26.8930   45.6760 N   0  0  0  0  0  0  0  0  0  0  0  0
   55.1570   26.7210   45.9660 O   0  0  0  0  0  0  0  0  0  0  0  0
   58.9480   33.5070   46.0620 C   0  0  0  0  0  0  0  0  0  0  0  0
   58.0340   34.3090   45.1750 C   0  0  0  0  0  0  0  0  0  0  0  0
   60.0050   34.1500   46.7240 C   0  0  0  0  0  0  0  0  0  0  0  0
   61.7959   34.0311   49.3840 H   0  0  0  0  0  0  0  0  0  0  0  0
   62.9343   33.6994   48.0347 H   0  0  0  0  0  0  0  0  0  0  0  0
   61.9561   35.2060   48.0347 H   0  0  0  0  0  0  0  0  0  0  0  0
   61.3298   31.4975   48.4164 H   0  0  0  0  0  0  0  0  0  0  0  0
   59.4805   29.6836   48.3481 H   0  0  0  0  0  0  0  0  0  0  0  0
   58.5659   29.5519   46.8077 H   0  0  0  0  0  0  0  0  0  0  0  0
   60.3543   29.3831   46.8077 H   0  0  0  0  0  0  0  0  0  0  0  0
   57.0080   30.8980   46.1080 H   0  0  0  0  0  0  0  0  0  0  0  0
   56.2005   30.6844   42.7250 H   0  0  0  0  0  0  0  0  0  0  0  0
   57.4993   29.4473   43.0557 H   0  0  0  0  0  0  0  0  0  0  0  0
   58.6433   29.2139   44.4550 H   0  0  0  0  0  0  0  0  0  0  0  0
   60.2686   27.3972   45.0136 H   0  0  0  0  0  0  0  0  0  0  0  0
   59.4401   25.2514   45.9997 H   0  0  0  0  0  0  0  0  0  0  0  0
   56.9951   24.9617   46.4348 H   0  0  0  0  0  0  0  0  0  0  0  0
   57.3519   34.9075   45.7968 H   0  0  0  0  0  0  0  0  0  0  0  0
   58.6334   34.9779   44.5400 H   0  0  0  0  0  0  0  0  0  0  0  0
   57.4487   33.6277   44.5400 H   0  0  0  0  0  0  0  0  0  0  0  0
   60.1550   35.2312   46.5882 H   0  0  0  0  0  0  0  0  0  0  0  0
  1  2  1  0
  2  3  2  0
  3  4  1  0
  4  5  1  0
  4  6  2  0
  6  7  1  0
  7  8  1  0
  8  9  2  0
  8 10  1  0
 10 11  1  0
 11 12  1  0
 12 13  2  0
 13 14  1  0
 14 15  2  0
 15 16  1  0
 16 17  2  0
 17 18  1  0
  6 19  1  0
 19 20  1  0
 19 21  2  0
 21  2  1  0
 17 12  1  0
  1 22  1  0
  1 23  1  0
  1 24  1  0
  3 25  1  0
  5 26  1  0
  5 27  1  0
  5 28  1  0
  7 29  1  0
 10 30  1  0
 10 31  1  0
 13 32  1  0
 14 33  1  0
 15 34  1  0
 16 35  1  0
 20 36  1  0
 20 37  1  0
 20 38  1  0
 21 39  1  0
M  CHG  2  17   1  18  -1
M  END
>  <UniqueID>  (31) 
31

>  <SMILES>  (31) 
Cc1cc(C)c(NC(=O)CSc2cccc[n+]2[O-])c(C)c1

>  <Energy>  (31) 
40.926089273188495

>  <Genealogy>  (31) 
Cc1cc(C)c(NC(=O)CSc2cccc[n+]2[O-])c(C)c1 (3D coordinates assigned)
Cc1cc(C)c(NC(=O)CSc2cccc[n+]2[O-])c(C)c1 (optimized conformer: 40.926089273188495 kcal/mol)

>  <smiles>  (31) 
Cc1cc(C)c(NC(=O)CSc2cccc[n+]2[O-])c(C)c1

>  <score_type>  (31) 
oracle

>  <origin>  (31) 
adg

>  <m_score__min__energy>  (31) 
-8.7300000000000004

>  <m_primary>  (31) 
energy

$$$$
31:0
     RDKit          3D

 47 49  0  0  0  0  0  0  0  0999 V2000
   60.3640   29.4730   48.5310 O   0  0  0  0  0  0  0  0  0  0  0  0
   60.6850   30.0750   47.4690 C   0  0  0  0  0  0  0  0  0  0  0  0
   60.4080   29.4790   46.1920 N   0  0  0  0  0  0  0  0  0  0  0  0
   59.6810   28.2190   46.0510 C   0  0  0  0  0  0  0  0  0  0  0  0
   58.2440   28.3460   46.5700 C   0  0  0  0  0  0  0  0  0  0  0  0
   57.0040   28.1410   45.2390 S   0  0  0  0  0  0  0  0  0  0  0  0
   57.2560   29.7690   44.5220 C   0  0  0  0  0  0  0  0  0  0  0  0
   56.9630   30.0010   43.1760 C   0  0  0  0  0  0  0  0  0  0  0  0
   57.1690   31.2300   42.6380 N   0  0  0  0  0  0  0  0  0  0  0  0
   57.6680   32.2600   43.3720 C   0  0  0  0  0  0  0  0  0  0  0  0
   57.9880   32.0770   44.7290 C   0  0  0  0  0  0  0  0  0  0  0  0
   58.5320   33.1940   45.5420 C   0  0  0  0  0  0  0  0  0  0  0  0
   58.4390   33.1710   46.9440 C   0  0  0  0  0  0  0  0  0  0  0  0
   58.9580   34.2320   47.6900 C   0  0  0  0  0  0  0  0  0  0  0  0
   59.5490   35.2830   47.0630 N   0  0  0  0  0  0  0  0  0  0  0  0
   59.6550   35.3360   45.7090 C   0  0  0  0  0  0  0  0  0  0  0  0
   59.1490   34.2960   44.9250 C   0  0  0  0  0  0  0  0  0  0  0  0
   57.7790   30.8080   45.2950 C   0  0  0  0  0  0  0  0  0  0  0  0
   61.2950   31.4510   47.5390 C   0  0  0  0  0  0  0  0  0  0  0  0
   62.7880   31.4320   47.1610 C   0  0  0  0  0  0  0  0  0  0  0  0
   63.3780   32.8570   47.1140 C   0  0  0  0  0  0  0  0  0  0  0  0
   62.6780   33.8460   48.0670 C   0  0  0  0  0  0  0  0  0  0  0  0
   62.1250   33.1390   49.3100 C   0  0  0  0  0  0  0  0  0  0  0  0
   61.0810   32.0640   48.9450 C   0  0  0  0  0  0  0  0  0  0  0  0
   60.7470   29.9530   45.3260 H   0  0  0  0  0  0  0  0  0  0  0  0
   59.6548   27.9370   44.9881 H   0  0  0  0  0  0  0  0  0  0  0  0
   60.1985   27.4505   46.6439 H   0  0  0  0  0  0  0  0  0  0  0  0
   58.0741   27.5729   47.3339 H   0  0  0  0  0  0  0  0  0  0  0  0
   58.1252   29.3566   46.9879 H   0  0  0  0  0  0  0  0  0  0  0  0
   56.5652   29.1873   42.5518 H   0  0  0  0  0  0  0  0  0  0  0  0
   57.8223   33.2423   42.9015 H   0  0  0  0  0  0  0  0  0  0  0  0
   57.9596   32.3212   47.4519 H   0  0  0  0  0  0  0  0  0  0  0  0
   58.8881   34.2167   48.7877 H   0  0  0  0  0  0  0  0  0  0  0  0
   60.1400   36.1991   45.2296 H   0  0  0  0  0  0  0  0  0  0  0  0
   59.2332   34.3395   43.8291 H   0  0  0  0  0  0  0  0  0  0  0  0
   58.0285   30.6321   46.3518 H   0  0  0  0  0  0  0  0  0  0  0  0
   60.7839   32.0861   46.8005 H   0  0  0  0  0  0  0  0  0  0  0  0
   63.3384   30.8418   47.9085 H   0  0  0  0  0  0  0  0  0  0  0  0
   62.8849   30.9853   46.1604 H   0  0  0  0  0  0  0  0  0  0  0  0
   64.4416   32.8024   47.3893 H   0  0  0  0  0  0  0  0  0  0  0  0
   63.2296   33.2342   46.0914 H   0  0  0  0  0  0  0  0  0  0  0  0
   63.4033   34.6097   48.3841 H   0  0  0  0  0  0  0  0  0  0  0  0
   61.8349   34.3034   47.5285 H   0  0  0  0  0  0  0  0  0  0  0  0
   62.9573   32.6588   49.8455 H   0  0  0  0  0  0  0  0  0  0  0  0
   61.6307   33.8938   49.9392 H   0  0  0  0  0  0  0  0  0  0  0  0
   61.1372   31.2564   49.6897 H   0  0  0  0  0  0  0  0  0  0  0  0
   60.0971   32.5559   48.9384 H   0  0  0  0  0  0  0  0  0  0  0  0
  1  2  2  0
  2  3  1  0
  3  4  1  0
  4  5  1  0
  5  6  1  0
  6  7  1  0
  7  8  2  0
  8  9  1  0
  9 10  2  0
 10 11  1  0
 11 12  1  0
 12 13  2  0
 13 14  1  0
 14 15  2  0
 15 16  1  0
 16 17  2  0
 11 18  2  0
  2 19  1  0
 19 20  1  0
 20 21  1  0
 21 22  1  0
 22 23  1  0
 23 24  1  0
 18  7  1  0
 24 19  1  0
 17 12  1  0
  3 25  1  0
  4 26  1  0
  4 27  1  0
  5 28  1  0
  5 29  1  0
  8 30  1  0
 10 31  1  0
 13 32  1  0
 14 33  1  0
 16 34  1  0
 17 35  1  0
 18 36  1  0
 19 37  1  0
 20 38  1  0
 20 39  1  0
 21 40  1  0
 21 41  1  0
 22 42  1  0
 22 43  1  0
 23 44  1  0
 23 45  1  0
 24 46  1  0
 24 47  1  0
M  END
>  <UniqueID>  (32) 
32

>  <SMILES>  (32) 
O=C(NCCSc1cncc(-c2ccncc2)c1)C1CCCCC1

>  <Energy>  (32) 
48.15922462955382

>  <Genealogy>  (32) 
O=C(NCCSc1cncc(-c2ccncc2)c1)C1CCCCC1 (3D coordinates assigned)
O=C(NCCSc1cncc(-c2ccncc2)c1)C1CCCCC1 (nonaromatic ring conformer: 48.15922462955382 kcal/mol)

>  <smiles>  (32) 
O=C(NCCSc1cncc(-c2ccncc2)c1)C1CCCCC1

>  <score_type>  (32) 
oracle

>  <origin>  (32) 
adg

>  <m_score__min__energy>  (32) 
-8.1099999999999994

>  <m_primary>  (32) 
energy

$$$$
32:0
     RDKit          3D

 53 55  0  0  0  0  0  0  0  0999 V2000
   63.0460   33.8310   46.5850 C   0  0  0  0  0  0  0  0  0  0  0  0
   63.4020   32.9310   47.6290 O   0  0  0  0  0  0  0  0  0  0  0  0
   62.6280   32.7060   48.7770 C   0  0  0  0  0  0  0  0  0  0  0  0
   62.5480   31.4020   49.2800 C   0  0  0  0  0  0  0  0  0  0  0  0
   61.7780   31.1220   50.4120 C   0  0  0  0  0  0  0  0  0  0  0  0
   61.0700   32.1480   51.0590 C   0  0  0  0  0  0  0  0  0  0  0  0
   60.1920   31.8410   52.2480 C   0  0  0  0  0  0  0  0  0  0  0  0
   58.6790   32.0640   51.9930 C   0  0  2  0  0  0  0  0  0  0  0  0
   57.8700   31.8970   53.2060 N   0  0  0  0  0  0  0  0  0  0  0  0
   58.1490   31.2480   50.8310 C   0  0  0  0  0  0  0  0  0  0  0  0
   57.3640   30.2930   51.0890 O   0  0  0  0  0  0  0  0  0  0  0  0
   58.5650   31.4560   49.4680 N   0  0  0  0  0  0  0  0  0  0  0  0
   58.9670   30.2810   48.6790 C   0  0  0  0  0  0  0  0  0  0  0  0
   59.3210   30.6610   47.2370 C   0  0  0  0  0  0  0  0  0  0  0  0
   58.2950   31.5560   46.6960 N   0  0  0  0  0  0  0  0  0  0  0  0
   57.9170   31.4490   45.3160 C   0  0  0  0  0  0  0  0  0  0  0  0
   57.2180   30.3090   44.8940 C   0  0  0  0  0  0  0  0  0  0  0  0
   56.8060   30.1790   43.5680 C   0  0  0  0  0  0  0  0  0  0  0  0
   57.0810   31.1940   42.6510 C   0  0  0  0  0  0  0  0  0  0  0  0
   57.7780   32.3350   43.0550 C   0  0  0  0  0  0  0  0  0  0  0  0
   58.2260   32.4720   44.3850 C   0  0  0  0  0  0  0  0  0  0  0  0
   58.9590   33.7310   44.8020 C   0  0  0  0  0  0  0  0  0  0  0  0
   58.0510   34.6520   45.2860 F   0  0  0  0  0  0  0  0  0  0  0  0
   59.6330   34.2970   43.7330 F   0  0  0  0  0  0  0  0  0  0  0  0
   59.8910   33.4520   45.7840 F   0  0  0  0  0  0  0  0  0  0  0  0
   57.8290   32.7100   47.4760 C   0  0  0  0  0  0  0  0  0  0  0  0
   58.5220   32.7850   48.8400 C   0  0  0  0  0  0  0  0  0  0  0  0
   61.1660   33.4610   50.5680 C   0  0  0  0  0  0  0  0  0  0  0  0
   61.9340   33.7390   49.4340 C   0  0  0  0  0  0  0  0  0  0  0  0
   62.6746   34.7700   47.0212 H   0  0  0  0  0  0  0  0  0  0  0  0
   63.9294   34.0396   45.9636 H   0  0  0  0  0  0  0  0  0  0  0  0
   62.2590   33.3788   45.9636 H   0  0  0  0  0  0  0  0  0  0  0  0
   63.0963   30.5903   48.7795 H   0  0  0  0  0  0  0  0  0  0  0  0
   61.7261   30.0933   50.7981 H   0  0  0  0  0  0  0  0  0  0  0  0
   60.3437   30.7877   52.5264 H   0  0  0  0  0  0  0  0  0  0  0  0
   60.4849   32.5384   53.0467 H   0  0  0  0  0  0  0  0  0  0  0  0
   58.5798   33.1185   51.6959 H   0  0  0  0  0  0  0  0  0  0  0  0
   57.1190   31.1900   53.0510 H   0  0  0  0  0  0  0  0  0  0  0  0
   58.4840   31.5090   53.9590 H   0  0  0  0  0  0  0  0  0  0  0  0
   59.8457   29.8178   49.1516 H   0  0  0  0  0  0  0  0  0  0  0  0
   58.1195   29.5803   48.6509 H   0  0  0  0  0  0  0  0  0  0  0  0
   60.2956   31.1707   47.2220 H   0  0  0  0  0  0  0  0  0  0  0  0
   59.3709   29.7503   46.6221 H   0  0  0  0  0  0  0  0  0  0  0  0
   56.9925   29.5099   45.6155 H   0  0  0  0  0  0  0  0  0  0  0  0
   56.2648   29.2773   43.2454 H   0  0  0  0  0  0  0  0  0  0  0  0
   56.7481   31.0954   41.6072 H   0  0  0  0  0  0  0  0  0  0  0  0
   57.9796   33.1353   42.3278 H   0  0  0  0  0  0  0  0  0  0  0  0
   58.0449   33.6310   46.9147 H   0  0  0  0  0  0  0  0  0  0  0  0
   56.7479   32.5974   47.6449 H   0  0  0  0  0  0  0  0  0  0  0  0
   59.5490   33.1551   48.7047 H   0  0  0  0  0  0  0  0  0  0  0  0
   57.9560   33.4683   49.4902 H   0  0  0  0  0  0  0  0  0  0  0  0
   60.6329   34.2758   51.0798 H   0  0  0  0  0  0  0  0  0  0  0  0
   61.9963   34.7692   49.0535 H   0  0  0  0  0  0  0  0  0  0  0  0
  1  2  1  0
  2  3  1  0
  3  4  2  0
  4  5  1  0
  5  6  2  0
  6  7  1  0
  7  8  1  0
  8  9  1  0
  8 10  1  0
 10 11  2  0
 10 12  1  0
 12 13  1  0
 13 14  1  0
 14 15  1  0
 15 16  1  0
 16 17  2  0
 17 18  1  0
 18 19  2  0
 19 20  1  0
 20 21  2  0
 21 22  1  0
 22 23  1  0
 22 24  1  0
 22 25  1  0
 15 26  1  0
 26 27  1  0
  6 28  1  0
 28 29  2  0
 29  3  1  0
 27 12  1  0
 21 16  1  0
  1 30  1  0
  1 31  1  0
  1 32  1  0
  4 33  1  0
  5 34  1  0
  7 35  1  0
  7 36  1  0
  8 37  1  6
  9 38  1  0
  9 39  1  0
 13 40  1  0
 13 41  1  0
 14 42  1  0
 14 43  1  0
 17 44  1  0
 18 45  1  0
 19 46  1  0
 20 47  1  0
 26 48  1  0
 26 49  1  0
 27 50  1  0
 27 51  1  0
 28 52  1  0
 29 53  1  0
M  END
>  <UniqueID>  (33) 
33

>  <SMILES>  (33) 
COc1ccc(C[C@H](N)C(=O)N2CCN(c3ccccc3C(F)(F)F)CC2)cc1

>  <Energy>  (33) 
63.46880427819773

>  <Genealogy>  (33) 
COc1ccc(C[C@H](N)C(=O)N2CCN(c3ccccc3C(F)(F)F)CC2)cc1 (chirality)
COc1ccc(C[C@H](N)C(=O)N2CCN(c3ccccc3C(F)(F)F)CC2)cc1 (3D coordinates assigned)
COc1ccc(C[C@H](N)C(=O)N2CCN(c3ccccc3C(F)(F)F)CC2)cc1 (nonaromatic ring conformer: 63.46880427819773 kcal/mol)

>  <smiles>  (33) 
COc1ccc(CC(N)C(=O)N2CCN(c3ccccc3C(F)(F)F)CC2)cc1

>  <score_type>  (33) 
oracle

>  <origin>  (33) 
adg

>  <m_score__min__energy>  (33) 
-7.8700000000000001

>  <m_primary>  (33) 
energy

$$$$
33:0
     RDKit          3D

 40 41  0  0  0  0  0  0  0  0999 V2000
   57.0250   30.8420   43.5260 C   0  0  0  0  0  0  0  0  0  0  0  0
   57.7690   32.1030   43.0980 C   0  0  0  0  0  0  0  0  0  0  0  0
   57.4870   33.2080   44.0160 N   0  0  0  0  0  0  0  0  0  0  0  0
   58.2630   33.5170   45.1920 C   0  0  0  0  0  0  0  0  0  0  0  0
   59.1350   34.6210   45.2450 C   0  0  0  0  0  0  0  0  0  0  0  0
   59.8740   34.8860   46.4020 C   0  0  0  0  0  0  0  0  0  0  0  0
   59.7560   34.0530   47.5300 C   0  0  0  0  0  0  0  0  0  0  0  0
   60.4730   34.2690   48.7190 O   0  0  0  0  0  0  0  0  0  0  0  0
   61.7580   33.7260   49.0340 C   0  0  1  0  0  0  0  0  0  0  0  0
   61.6900   32.1950   49.0860 C   0  0  0  0  0  0  0  0  0  0  0  0
   63.0680   31.5950   49.4290 C   0  0  0  0  0  0  0  0  0  0  0  0
   64.2160   32.2840   48.7690 N   0  0  2  0  0  0  0  0  0  0  0  0
   65.0190   33.0610   49.7340 C   0  0  0  0  0  0  0  0  0  0  0  0
   63.8170   33.1110   47.6090 C   0  0  0  0  0  0  0  0  0  0  0  0
   62.7740   34.1910   47.9710 C   0  0  0  0  0  0  0  0  0  0  0  0
   58.8970   32.9500   47.4710 C   0  0  0  0  0  0  0  0  0  0  0  0
   58.1580   32.6840   46.3160 C   0  0  0  0  0  0  0  0  0  0  0  0
   56.9940   30.7895   44.6243 H   0  0  0  0  0  0  0  0  0  0  0  0
   55.9987   30.8700   43.1312 H   0  0  0  0  0  0  0  0  0  0  0  0
   57.5458   29.9572   43.1312 H   0  0  0  0  0  0  0  0  0  0  0  0
   58.8504   31.9014   43.0973 H   0  0  0  0  0  0  0  0  0  0  0  0
   57.4326   32.3866   42.0899 H   0  0  0  0  0  0  0  0  0  0  0  0
   56.6560   33.8040   43.8000 H   0  0  0  0  0  0  0  0  0  0  0  0
   59.2357   35.2798   44.3699 H   0  0  0  0  0  0  0  0  0  0  0  0
   60.5523   35.7515   46.4307 H   0  0  0  0  0  0  0  0  0  0  0  0
   62.0789   34.0844   50.0232 H   0  0  0  0  0  0  0  0  0  0  0  0
   61.3656   31.8153   48.1059 H   0  0  0  0  0  0  0  0  0  0  0  0
   60.9740   31.9011   49.8677 H   0  0  0  0  0  0  0  0  0  0  0  0
   63.0726   30.5403   49.1166 H   0  0  0  0  0  0  0  0  0  0  0  0
   63.2058   31.7185   50.5133 H   0  0  0  0  0  0  0  0  0  0  0  0
   64.8560   31.5400   48.3970 H   0  0  0  0  0  0  0  0  0  0  0  0
   64.7313   32.7826   50.7586 H   0  0  0  0  0  0  0  0  0  0  0  0
   66.0865   32.8442   49.5812 H   0  0  0  0  0  0  0  0  0  0  0  0
   64.8374   34.1351   49.5812 H   0  0  0  0  0  0  0  0  0  0  0  0
   63.3877   32.4525   46.8396 H   0  0  0  0  0  0  0  0  0  0  0  0
   64.7174   33.6296   47.2481 H   0  0  0  0  0  0  0  0  0  0  0  0
   62.2240   34.4649   47.0586 H   0  0  0  0  0  0  0  0  0  0  0  0
   63.3228   35.0443   48.3961 H   0  0  0  0  0  0  0  0  0  0  0  0
   58.8028   32.2859   48.3428 H   0  0  0  0  0  0  0  0  0  0  0  0
   57.4871   31.8128   46.2874 H   0  0  0  0  0  0  0  0  0  0  0  0
  1  2  1  0
  2  3  1  0
  3  4  1  0
  4  5  2  0
  5  6  1  0
  6  7  2  0
  7  8  1  0
  8  9  1  0
  9 10  1  0
 10 11  1  0
 11 12  1  0
 12 13  1  0
 12 14  1  0
 14 15  1  0
  7 16  1  0
 16 17  2  0
 17  4  1  0
 15  9  1  0
  1 18  1  0
  1 19  1  0
  1 20  1  0
  2 21  1  0
  2 22  1  0
  3 23  1  0
  5 24  1  0
  6 25  1  0
  9 26  1  1
 10 27  1  0
 10 28  1  0
 11 29  1  0
 11 30  1  0
 12 31  1  6
 13 32  1  0
 13 33  1  0
 13 34  1  0
 14 35  1  0
 14 36  1  0
 15 37  1  0
 15 38  1  0
 16 39  1  0
 17 40  1  0
M  CHG  1  12   1
M  END
>  <UniqueID>  (34) 
34

>  <SMILES>  (34) 
CCNc1ccc(OC2CC[NH+](C)CC2)cc1

>  <Energy>  (34) 
44.982268578524625

>  <Genealogy>  (34) 
CCNc1ccc(OC2CC[NH+](C)CC2)cc1 (protonated)
CCNc1ccc(OC2CC[NH+](C)CC2)cc1 (3D coordinates assigned)
CCNc1ccc(OC2CC[NH+](C)CC2)cc1 (nonaromatic ring conformer: 44.982268578524625 kcal/mol)

>  <smiles>  (34) 
CCNc1ccc(OC2CCN(C)CC2)cc1

>  <score_type>  (34) 
oracle

>  <origin>  (34) 
adg

>  <m_score__min__energy>  (34) 
-4.4699999999999998

>  <m_primary>  (34) 
energy

$$$$
34:0
     RDKit          3D

 50 52  0  0  0  0  0  0  0  0999 V2000
   60.2050   25.9600   46.3200 C   0  0  0  0  0  0  0  0  0  0  0  0
   60.3690   27.4450   46.0040 C   0  0  0  0  0  0  0  0  0  0  0  0
   59.3280   28.2550   46.6530 N   0  0  0  0  0  0  0  0  0  0  0  0
   58.0690   28.4460   45.9910 C   0  0  0  0  0  0  0  0  0  0  0  0
   57.7230   29.5200   45.1960 C   0  0  0  0  0  0  0  0  0  0  0  0
   56.4430   29.2410   44.7570 C   0  0  0  0  0  0  0  0  0  0  0  0
   55.6330   30.1040   43.8500 C   0  0  0  0  0  0  0  0  0  0  0  0
   56.0330   28.0860   45.2360 O   0  0  0  0  0  0  0  0  0  0  0  0
   56.9840   27.5820   45.9890 C   0  0  0  0  0  0  0  0  0  0  0  0
   56.8540   26.2830   46.7250 C   0  0  0  0  0  0  0  0  0  0  0  0
   55.6580   25.6260   46.3420 O   0  0  0  0  0  0  0  0  0  0  0  0
   55.7340   24.2290   46.5730 C   0  0  0  0  0  0  0  0  0  0  0  0
   56.1540   23.4860   45.3300 C   0  0  0  0  0  0  0  0  0  0  0  0
   57.2860   22.6540   45.3560 C   0  0  0  0  0  0  0  0  0  0  0  0
   57.7110   22.0070   44.1920 C   0  0  0  0  0  0  0  0  0  0  0  0
   57.0070   22.1820   42.9970 C   0  0  0  0  0  0  0  0  0  0  0  0
   55.8780   23.0060   42.9650 C   0  0  0  0  0  0  0  0  0  0  0  0
   55.4540   23.6600   44.1250 C   0  0  0  0  0  0  0  0  0  0  0  0
   59.7410   29.2600   48.0170 S   0  0  0  0  0  0  0  0  0  0  0  0
   61.1020   28.8640   48.5200 O   0  0  0  0  0  0  0  0  0  0  0  0
   58.7500   29.0760   49.1320 O   0  0  0  0  0  0  0  0  0  0  0  0
   59.7300   30.9550   47.5380 C   0  0  0  0  0  0  0  0  0  0  0  0
   60.9160   31.6010   47.1610 C   0  0  0  0  0  0  0  0  0  0  0  0
   60.8920   32.9460   46.7820 C   0  0  0  0  0  0  0  0  0  0  0  0
   59.6840   33.6520   46.7750 C   0  0  0  0  0  0  0  0  0  0  0  0
   59.6560   35.3400   46.2980 Cl  0  0  0  0  0  0  0  0  0  0  0  0
   58.4990   33.0100   47.1520 C   0  0  0  0  0  0  0  0  0  0  0  0
   58.5220   31.6660   47.5360 C   0  0  0  0  0  0  0  0  0  0  0  0
   60.1892   25.8167   47.4105 H   0  0  0  0  0  0  0  0  0  0  0  0
   59.2611   25.5954   45.8886 H   0  0  0  0  0  0  0  0  0  0  0  0
   61.0466   25.3982   45.8886 H   0  0  0  0  0  0  0  0  0  0  0  0
   61.3548   27.7789   46.3601 H   0  0  0  0  0  0  0  0  0  0  0  0
   60.2788   27.5770   44.9157 H   0  0  0  0  0  0  0  0  0  0  0  0
   58.3332   30.4050   44.9628 H   0  0  0  0  0  0  0  0  0  0  0  0
   55.0021   30.7762   44.4502 H   0  0  0  0  0  0  0  0  0  0  0  0
   56.3046   30.7009   43.2154 H   0  0  0  0  0  0  0  0  0  0  0  0
   54.9948   29.4716   43.2154 H   0  0  0  0  0  0  0  0  0  0  0  0
   57.7147   25.6412   46.4858 H   0  0  0  0  0  0  0  0  0  0  0  0
   56.8260   26.4822   47.8065 H   0  0  0  0  0  0  0  0  0  0  0  0
   56.4685   24.0377   47.3692 H   0  0  0  0  0  0  0  0  0  0  0  0
   54.7358   23.8728   46.8676 H   0  0  0  0  0  0  0  0  0  0  0  0
   57.8398   22.5113   46.2957 H   0  0  0  0  0  0  0  0  0  0  0  0
   58.6000   21.3597   44.2164 H   0  0  0  0  0  0  0  0  0  0  0  0
   57.3413   21.6714   42.0819 H   0  0  0  0  0  0  0  0  0  0  0  0
   55.3224   23.1398   42.0251 H   0  0  0  0  0  0  0  0  0  0  0  0
   54.5693   24.3130   44.0941 H   0  0  0  0  0  0  0  0  0  0  0  0
   61.8670   31.0482   47.1635 H   0  0  0  0  0  0  0  0  0  0  0  0
   61.8245   33.4505   46.4887 H   0  0  0  0  0  0  0  0  0  0  0  0
   57.5484   33.5635   47.1462 H   0  0  0  0  0  0  0  0  0  0  0  0
   57.5900   31.1653   47.8373 H   0  0  0  0  0  0  0  0  0  0  0  0
  1  2  1  0
  2  3  1  0
  3  4  1  0
  4  5  1  0
  5  6  2  0
  6  7  1  0
  6  8  1  0
  8  9  1  0
  9 10  1  0
 10 11  1  0
 11 12  1  0
 12 13  1  0
 13 14  2  0
 14 15  1  0
 15 16  2  0
 16 17  1  0
 17 18  2  0
  3 19  1  0
 19 20  2  0
 19 21  2  0
 19 22  1  0
 22 23  2  0
 23 24  1  0
 24 25  2  0
 25 26  1  0
 25 27  1  0
 27 28  2  0
  9  4  2  0
 18 13  1  0
 28 22  1  0
  1 29  1  0
  1 30  1  0
  1 31  1  0
  2 32  1  0
  2 33  1  0
  5 34  1  0
  7 35  1  0
  7 36  1  0
  7 37  1  0
 10 38  1  0
 10 39  1  0
 12 40  1  0
 12 41  1  0
 14 42  1  0
 15 43  1  0
 16 44  1  0
 17 45  1  0
 18 46  1  0
 23 47  1  0
 24 48  1  0
 27 49  1  0
 28 50  1  0
M  END
>  <UniqueID>  (35) 
35

>  <SMILES>  (35) 
CCN(c1cc(C)oc1COCc1ccccc1)S(=O)(=O)c1ccc(Cl)cc1

>  <Energy>  (35) 
79.4222464339853

>  <Genealogy>  (35) 
CCN(c1cc(C)oc1COCc1ccccc1)S(=O)(=O)c1ccc(Cl)cc1 (3D coordinates assigned)
CCN(c1cc(C)oc1COCc1ccccc1)S(=O)(=O)c1ccc(Cl)cc1 (optimized conformer: 79.4222464339853 kcal/mol)

>  <smiles>  (35) 
CCN(c1cc(C)oc1COCc1ccccc1)S(=O)(=O)c1ccc(Cl)cc1

>  <score_type>  (35) 
oracle

>  <origin>  (35) 
adg

>  <m_score__min__energy>  (35) 
-9.2300000000000004

>  <m_primary>  (35) 
energy

$$$$
35:0
     RDKit          3D

 50 52  0  0  0  0  0  0  0  0999 V2000
   56.2850   29.7220   42.8780 C   0  0  0  0  0  0  0  0  0  0  0  0
   55.9400   30.5080   44.1400 C   0  0  0  0  0  0  0  0  0  0  0  0
   56.9650   30.2790   45.1830 N   0  0  0  0  0  0  0  0  0  0  0  0
   57.6510   28.9810   44.9840 C   0  0  0  0  0  0  0  0  0  0  0  0
   59.1010   29.2070   44.5640 C   0  0  0  0  0  0  0  0  0  0  0  0
   57.9380   31.3950   45.2320 C   0  0  0  0  0  0  0  0  0  0  0  0
   57.3930   32.6020   44.4640 C   0  0  0  0  0  0  0  0  0  0  0  0
   57.5690   33.7810   45.2270 O   0  0  0  0  0  0  0  0  0  0  0  0
   58.8290   33.8010   45.8730 C   0  0  0  0  0  0  0  0  0  0  0  0
   58.6670   33.8540   47.3980 C   0  0  0  0  0  0  0  0  0  0  0  0
   59.5980   32.9220   48.0510 N   0  0  0  0  0  0  0  0  0  0  0  0
   59.1180   31.9270   48.9800 C   0  0  0  0  0  0  0  0  0  0  0  0
   58.3110   32.2870   50.0730 C   0  0  0  0  0  0  0  0  0  0  0  0
   57.9850   31.3380   51.0480 C   0  0  0  0  0  0  0  0  0  0  0  0
   58.4730   30.0330   50.9490 C   0  0  0  0  0  0  0  0  0  0  0  0
   59.2760   29.6650   49.8660 C   0  0  0  0  0  0  0  0  0  0  0  0
   59.5860   30.6040   48.8760 C   0  0  0  0  0  0  0  0  0  0  0  0
   60.4990   30.1030   47.4110 S   0  0  0  0  0  0  0  0  0  0  0  0
   61.5480   31.5590   47.4270 C   0  0  0  0  0  0  0  0  0  0  0  0
   62.9210   31.4380   47.1840 C   0  0  0  0  0  0  0  0  0  0  0  0
   63.7190   32.5830   47.1000 C   0  0  0  0  0  0  0  0  0  0  0  0
   63.1470   33.8480   47.2690 C   0  0  0  0  0  0  0  0  0  0  0  0
   61.7810   33.9720   47.5380 C   0  0  0  0  0  0  0  0  0  0  0  0
   60.9700   32.8270   47.6170 C   0  0  0  0  0  0  0  0  0  0  0  0
   56.7125   28.7480   43.1581 H   0  0  0  0  0  0  0  0  0  0  0  0
   55.3731   29.5648   42.2832 H   0  0  0  0  0  0  0  0  0  0  0  0
   57.0180   30.2868   42.2832 H   0  0  0  0  0  0  0  0  0  0  0  0
   55.8997   31.5807   43.8999 H   0  0  0  0  0  0  0  0  0  0  0  0
   54.9635   30.1697   44.5170 H   0  0  0  0  0  0  0  0  0  0  0  0
   57.6303   28.4116   45.9249 H   0  0  0  0  0  0  0  0  0  0  0  0
   57.1325   28.4199   44.1925 H   0  0  0  0  0  0  0  0  0  0  0  0
   59.7313   29.3052   45.4602 H   0  0  0  0  0  0  0  0  0  0  0  0
   59.4467   28.3519   43.9646 H   0  0  0  0  0  0  0  0  0  0  0  0
   59.1700   30.1267   43.9646 H   0  0  0  0  0  0  0  0  0  0  0  0
   58.1130   31.6794   46.2801 H   0  0  0  0  0  0  0  0  0  0  0  0
   58.8819   31.0704   44.7698 H   0  0  0  0  0  0  0  0  0  0  0  0
   57.9327   32.7011   43.5107 H   0  0  0  0  0  0  0  0  0  0  0  0
   56.3202   32.4532   44.2717 H   0  0  0  0  0  0  0  0  0  0  0  0
   59.3860   32.8919   45.6022 H   0  0  0  0  0  0  0  0  0  0  0  0
   59.3741   34.6995   45.5481 H   0  0  0  0  0  0  0  0  0  0  0  0
   58.8740   34.8761   47.7480 H   0  0  0  0  0  0  0  0  0  0  0  0
   57.6374   33.5644   47.6551 H   0  0  0  0  0  0  0  0  0  0  0  0
   57.9350   33.3169   50.1620 H   0  0  0  0  0  0  0  0  0  0  0  0
   57.3425   31.6204   51.8950 H   0  0  0  0  0  0  0  0  0  0  0  0
   58.2249   29.2937   51.7248 H   0  0  0  0  0  0  0  0  0  0  0  0
   59.6639   28.6383   49.7919 H   0  0  0  0  0  0  0  0  0  0  0  0
   63.3721   30.4425   47.0592 H   0  0  0  0  0  0  0  0  0  0  0  0
   64.7967   32.4889   46.9010 H   0  0  0  0  0  0  0  0  0  0  0  0
   63.7741   34.7483   47.1900 H   0  0  0  0  0  0  0  0  0  0  0  0
   61.3397   34.9683   47.6882 H   0  0  0  0  0  0  0  0  0  0  0  0
  1  2  1  0
  2  3  1  0
  3  4  1  0
  4  5  1  0
  3  6  1  0
  6  7  1  0
  7  8  1  0
  8  9  1  0
  9 10  1  0
 10 11  1  0
 11 12  1  0
 12 13  2  0
 13 14  1  0
 14 15  2  0
 15 16  1  0
 16 17  2  0
 17 18  1  0
 18 19  1  0
 19 20  2  0
 20 21  1  0
 21 22  2  0
 22 23  1  0
 23 24  2  0
 24 11  1  0
 17 12  1  0
 24 19  1  0
  1 25  1  0
  1 26  1  0
  1 27  1  0
  2 28  1  0
  2 29  1  0
  4 30  1  0
  4 31  1  0
  5 32  1  0
  5 33  1  0
  5 34  1  0
  6 35  1  0
  6 36  1  0
  7 37  1  0
  7 38  1  0
  9 39  1  0
  9 40  1  0
 10 41  1  0
 10 42  1  0
 13 43  1  0
 14 44  1  0
 15 45  1  0
 16 46  1  0
 20 47  1  0
 21 48  1  0
 22 49  1  0
 23 50  1  0
M  END
>  <UniqueID>  (36) 
36

>  <SMILES>  (36) 
CCN(CC)CCOCCN1c2ccccc2Sc2ccccc21

>  <Energy>  (36) 
67.52190957938623

>  <Genealogy>  (36) 
CCN(CC)CCOCCN1c2ccccc2Sc2ccccc21 (3D coordinates assigned)
CCN(CC)CCOCCN1c2ccccc2Sc2ccccc21 (nonaromatic ring conformer: 67.52190957938623 kcal/mol)

>  <smiles>  (36) 
CCN(CC)CCOCCN1c2ccccc2Sc2ccccc21

>  <score_type>  (36) 
oracle

>  <origin>  (36) 
adg

>  <m_score__min__energy>  (36) 
-7.2999999999999998

>  <m_primary>  (36) 
energy

$$$$
36:0
     RDKit          3D

 23 24  0  0  0  0  0  0  0  0999 V2000
   56.6310   26.4750   44.5210 H   0  0  0  0  0  0  0  0  0  0  0  0
   56.9400   27.1140   45.2870 N   0  0  0  0  0  0  0  0  0  0  0  0
   56.7970   28.3960   45.1910 C   0  0  0  0  0  0  0  0  0  0  0  0
   57.7720   29.2730   45.4880 N   0  0  0  0  0  0  0  0  0  0  0  0
   57.1620   30.4560   45.2390 C   0  0  0  0  0  0  0  0  0  0  0  0
   57.8280   31.7730   45.4150 C   0  0  0  0  0  0  0  0  0  0  0  0
   57.7740   32.7120   44.3660 C   0  0  0  0  0  0  0  0  0  0  0  0
   57.2420   32.4588   43.4371 H   0  0  0  0  0  0  0  0  0  0  0  0
   58.3870   33.9590   44.4910 C   0  0  0  0  0  0  0  0  0  0  0  0
   58.3374   34.6813   43.6629 H   0  0  0  0  0  0  0  0  0  0  0  0
   59.0620   34.2900   45.6640 C   0  0  0  0  0  0  0  0  0  0  0  0
   59.5449   35.2737   45.7601 H   0  0  0  0  0  0  0  0  0  0  0  0
   59.1270   33.3780   46.7160 C   0  0  0  0  0  0  0  0  0  0  0  0
   59.6601   33.6482   47.6395 H   0  0  0  0  0  0  0  0  0  0  0  0
   58.5150   32.1110   46.6070 C   0  0  0  0  0  0  0  0  0  0  0  0
   58.5730   31.1820   47.6600 O   0  0  0  0  0  0  0  0  0  0  0  0
   59.6410   30.2640   47.8740 C   0  0  0  0  0  0  0  0  0  0  0  0
   59.7977   30.1293   48.9544 H   0  0  0  0  0  0  0  0  0  0  0  0
   59.3895   29.2958   47.4164 H   0  0  0  0  0  0  0  0  0  0  0  0
   60.5604   30.6580   47.4164 H   0  0  0  0  0  0  0  0  0  0  0  0
   55.8880   30.2980   44.8150 N   0  0  0  0  0  0  0  0  0  0  0  0
   55.6670   28.9970   44.7890 N   0  0  0  0  0  0  0  0  0  0  0  0
   54.7690   28.5470   44.5040 H   0  0  0  0  0  0  0  0  0  0  0  0
  1  2  1  0
  2  3  2  0
  3  4  1  0
  4  5  1  0
  5  6  1  0
  6  7  2  0
  7  8  1  0
  7  9  1  0
  9 10  1  0
  9 11  2  0
 11 12  1  0
 11 13  1  0
 13 14  1  0
 13 15  2  0
 15 16  1  0
 16 17  1  0
 17 18  1  0
 17 19  1  0
 17 20  1  0
  5 21  2  0
 21 22  1  0
 22 23  1  0
 22  3  1  0
 15  6  1  0
M  CHG  1   4  -1
M  END
>  <UniqueID>  (37) 
37

>  <SMILES>  (37) 
[H]/N=c1/[n-]c(-c2ccccc2OC)n[nH]1

>  <Energy>  (37) 
58.33511661568578

>  <Genealogy>  (37) 
COc1ccccc1-c1n[nH]c(=N)[n-]1 (protonated)
[H]/N=c1/[n-]c(-c2ccccc2OC)n[nH]1 (cis-trans isomerization)
[H]/N=c1/[n-]c(-c2ccccc2OC)n[nH]1 (3D coordinates assigned)
[H]/N=c1/[n-]c(-c2ccccc2OC)n[nH]1 (optimized conformer: 58.33511661568578 kcal/mol)

>  <smiles>  (37) 
COc1ccccc1-c1n[nH]c(=N)[nH]1

>  <score_type>  (37) 
oracle

>  <origin>  (37) 
adg

>  <m_score__min__energy>  (37) 
-7.4800000000000004

>  <m_primary>  (37) 
energy

$$$$
37:0
     RDKit          3D

 48 50  0  0  0  0  0  0  0  0999 V2000
   58.1240   27.2440   44.4550 C   0  0  0  0  0  0  0  0  0  0  0  0
   56.9930   27.4920   45.4570 C   0  0  0  0  0  0  0  0  0  0  0  0
   56.1110   28.5970   45.0500 N   0  0  0  0  0  0  0  0  0  0  0  0
   56.5810   29.2620   43.8260 C   0  0  0  0  0  0  0  0  0  0  0  0
   57.4840   30.4420   44.1810 C   0  0  0  0  0  0  0  0  0  0  0  0
   57.4350   30.7190   45.6170 N   0  0  0  0  0  0  0  0  0  0  0  0
   58.5640   31.2940   46.2990 C   0  0  0  0  0  0  0  0  0  0  0  0
   58.9400   32.6240   46.0440 C   0  0  0  0  0  0  0  0  0  0  0  0
   58.1570   33.4500   45.2100 C   0  0  0  0  0  0  0  0  0  0  0  0
   58.5070   34.7800   44.9950 C   0  0  0  0  0  0  0  0  0  0  0  0
   59.6260   35.3160   45.6200 C   0  0  0  0  0  0  0  0  0  0  0  0
   60.4130   34.5200   46.4520 C   0  0  0  0  0  0  0  0  0  0  0  0
   60.1050   33.1510   46.6630 C   0  0  0  0  0  0  0  0  0  0  0  0
   60.8920   32.3430   47.4610 N   0  0  0  0  0  0  0  0  0  0  0  0
   62.2470   32.7890   47.8560 C   0  0  0  0  0  0  0  0  0  0  0  0
   60.4220   31.1080   47.8720 C   0  0  0  0  0  0  0  0  0  0  0  0
   61.0610   30.3740   48.9030 C   0  0  0  0  0  0  0  0  0  0  0  0
   60.6220   29.0890   49.2700 C   0  0  0  0  0  0  0  0  0  0  0  0
   61.2730   28.3290   50.3050 N   0  0  0  0  0  0  0  0  0  0  0  0
   61.0750   26.8970   50.5070 C   0  0  0  0  0  0  0  0  0  0  0  0
   59.5190   28.5380   48.6150 C   0  0  0  0  0  0  0  0  0  0  0  0
   58.8440   29.2580   47.6340 C   0  0  0  0  0  0  0  0  0  0  0  0
   59.2660   30.5510   47.2650 C   0  0  0  0  0  0  0  0  0  0  0  0
   59.0577   27.0393   44.9993 H   0  0  0  0  0  0  0  0  0  0  0  0
   57.8710   26.3800   43.8230 H   0  0  0  0  0  0  0  0  0  0  0  0
   58.2558   28.1346   43.8230 H   0  0  0  0  0  0  0  0  0  0  0  0
   56.3919   26.5749   45.5444 H   0  0  0  0  0  0  0  0  0  0  0  0
   57.4525   27.7680   46.4176 H   0  0  0  0  0  0  0  0  0  0  0  0
   55.1430   28.2300   44.8910 H   0  0  0  0  0  0  0  0  0  0  0  0
   57.1463   28.5424   43.2156 H   0  0  0  0  0  0  0  0  0  0  0  0
   55.7121   29.6316   43.2617 H   0  0  0  0  0  0  0  0  0  0  0  0
   58.5189   30.2033   43.8947 H   0  0  0  0  0  0  0  0  0  0  0  0
   57.1324   31.3315   43.6377 H   0  0  0  0  0  0  0  0  0  0  0  0
   56.6780   30.2710   46.1800 H   0  0  0  0  0  0  0  0  0  0  0  0
   57.2600   33.0383   44.7243 H   0  0  0  0  0  0  0  0  0  0  0  0
   57.8966   35.4077   44.3291 H   0  0  0  0  0  0  0  0  0  0  0  0
   59.8920   36.3710   45.4582 H   0  0  0  0  0  0  0  0  0  0  0  0
   61.2873   34.9609   46.9531 H   0  0  0  0  0  0  0  0  0  0  0  0
   62.3198   32.8130   48.9533 H   0  0  0  0  0  0  0  0  0  0  0  0
   62.9949   32.0896   47.4541 H   0  0  0  0  0  0  0  0  0  0  0  0
   62.4333   33.7959   47.4541 H   0  0  0  0  0  0  0  0  0  0  0  0
   61.9192   30.8193   49.4276 H   0  0  0  0  0  0  0  0  0  0  0  0
   61.9200   28.8220   50.9630 H   0  0  0  0  0  0  0  0  0  0  0  0
   61.0449   26.6795   51.5849 H   0  0  0  0  0  0  0  0  0  0  0  0
   60.1258   26.5892   50.0442 H   0  0  0  0  0  0  0  0  0  0  0  0
   61.9051   26.3432   50.0442 H   0  0  0  0  0  0  0  0  0  0  0  0
   59.1802   27.5248   48.8770 H   0  0  0  0  0  0  0  0  0  0  0  0
   57.9686   28.8116   47.1395 H   0  0  0  0  0  0  0  0  0  0  0  0
  1  2  1  0
  2  3  1  0
  3  4  1  0
  4  5  1  0
  5  6  1  0
  6  7  1  0
  7  8  2  0
  8  9  1  0
  9 10  2  0
 10 11  1  0
 11 12  2  0
 12 13  1  0
 13 14  2  0
 14 15  1  0
 14 16  1  0
 16 17  2  0
 17 18  1  0
 18 19  1  0
 19 20  1  0
 18 21  2  0
 21 22  1  0
 22 23  2  0
 23  7  1  0
 13  8  1  0
 23 16  1  0
  1 24  1  0
  1 25  1  0
  1 26  1  0
  2 27  1  0
  2 28  1  0
  3 29  1  0
  4 30  1  0
  4 31  1  0
  5 32  1  0
  5 33  1  0
  6 34  1  0
  9 35  1  0
 10 36  1  0
 11 37  1  0
 12 38  1  0
 15 39  1  0
 15 40  1  0
 15 41  1  0
 17 42  1  0
 19 43  1  0
 20 44  1  0
 20 45  1  0
 20 46  1  0
 21 47  1  0
 22 48  1  0
M  CHG  1  14   1
M  END
>  <UniqueID>  (38) 
38

>  <SMILES>  (38) 
CCNCCNc1c2ccccc2[n+](C)c2cc(NC)ccc12

>  <Energy>  (38) 
69.21328133810711

>  <Genealogy>  (38) 
CCNCCNc1c2ccccc2[n+](C)c2cc(NC)ccc12 (3D coordinates assigned)
CCNCCNc1c2ccccc2[n+](C)c2cc(NC)ccc12 (optimized conformer: 69.21328133810711 kcal/mol)

>  <smiles>  (38) 
CCNCCNc1c2ccccc2[n+](C)c2cc(NC)ccc12

>  <score_type>  (38) 
oracle

>  <origin>  (38) 
adg

>  <m_score__min__energy>  (38) 
-5.6200000000000001

>  <m_primary>  (38) 
energy

$$$$
38:0
     RDKit          3D

 54 57  0  0  0  0  0  0  0  0999 V2000
   57.0560   30.7010   43.8280 C   0  0  0  0  0  0  0  0  0  0  0  0
   58.4650   30.7340   44.4060 C   0  0  0  0  0  0  0  0  0  0  0  0
   58.8710   29.3740   44.8270 N   0  0  0  0  0  0  0  0  0  0  0  0
   58.0160   28.8330   45.9110 C   0  0  0  0  0  0  0  0  0  0  0  0
   58.5320   29.1870   47.3220 C   0  0  0  0  0  0  0  0  0  0  0  0
   59.4150   30.3670   47.2660 N   0  0  0  0  0  0  0  0  0  0  0  0
   59.7840   30.8390   48.6160 C   0  0  0  0  0  0  0  0  0  0  0  0
   60.7640   31.9890   48.5390 C   0  0  0  0  0  0  0  0  0  0  0  0
   60.6540   33.0780   47.6700 C   0  0  0  0  0  0  0  0  0  0  0  0
   59.4960   33.4390   46.8310 C   0  0  0  0  0  0  0  0  0  0  0  0
   59.6910   34.1840   45.6570 C   0  0  0  0  0  0  0  0  0  0  0  0
   58.5980   34.5480   44.8640 C   0  0  0  0  0  0  0  0  0  0  0  0
   57.3040   34.1840   45.2460 C   0  0  0  0  0  0  0  0  0  0  0  0
   57.1000   33.4620   46.4250 C   0  0  0  0  0  0  0  0  0  0  0  0
   58.1900   33.0970   47.2200 C   0  0  0  0  0  0  0  0  0  0  0  0
   61.8150   33.7650   47.6330 N   0  0  0  0  0  0  0  0  0  0  0  0
   62.6020   33.0950   48.4950 C   0  0  0  0  0  0  0  0  0  0  0  0
   63.8900   33.4290   48.7560 N   0  0  0  0  0  0  0  0  0  0  0  0
   64.6140   32.6790   49.6360 C   0  0  0  0  0  0  0  0  0  0  0  0
   66.0520   33.0110   49.9030 C   0  0  0  0  0  0  0  0  0  0  0  0
   64.0260   31.5590   50.2510 C   0  0  0  0  0  0  0  0  0  0  0  0
   62.6850   31.2380   49.9690 C   0  0  0  0  0  0  0  0  0  0  0  0
   62.0420   30.0980   50.7080 C   0  0  0  0  0  0  0  0  0  0  0  0
   62.0150   32.0250   49.0680 N   0  0  0  0  0  0  0  0  0  0  0  0
   60.6310   30.0480   46.4880 C   0  0  0  0  0  0  0  0  0  0  0  0
   60.3010   29.2910   45.1820 C   0  0  0  0  0  0  0  0  0  0  0  0
   56.3234   30.6838   44.6484 H   0  0  0  0  0  0  0  0  0  0  0  0
   56.8925   31.5956   43.2091 H   0  0  0  0  0  0  0  0  0  0  0  0
   56.9346   29.7998   43.2091 H   0  0  0  0  0  0  0  0  0  0  0  0
   59.1642   31.1025   43.6409 H   0  0  0  0  0  0  0  0  0  0  0  0
   58.4817   31.4026   45.2793 H   0  0  0  0  0  0  0  0  0  0  0  0
   57.0022   29.2440   45.7955 H   0  0  0  0  0  0  0  0  0  0  0  0
   58.0282   27.7366   45.8225 H   0  0  0  0  0  0  0  0  0  0  0  0
   57.6756   29.4060   47.9766 H   0  0  0  0  0  0  0  0  0  0  0  0
   59.1020   28.3335   47.7178 H   0  0  0  0  0  0  0  0  0  0  0  0
   58.8769   31.1738   49.1405 H   0  0  0  0  0  0  0  0  0  0  0  0
   60.2593   30.0092   49.1597 H   0  0  0  0  0  0  0  0  0  0  0  0
   60.7072   34.4825   45.3598 H   0  0  0  0  0  0  0  0  0  0  0  0
   58.7570   35.1213   43.9388 H   0  0  0  0  0  0  0  0  0  0  0  0
   56.4457   34.4659   44.6184 H   0  0  0  0  0  0  0  0  0  0  0  0
   56.0805   33.1807   46.7276 H   0  0  0  0  0  0  0  0  0  0  0  0
   58.0247   32.5398   48.1539 H   0  0  0  0  0  0  0  0  0  0  0  0
   64.3190   34.2530   48.2780 H   0  0  0  0  0  0  0  0  0  0  0  0
   66.2237   33.0506   50.9888 H   0  0  0  0  0  0  0  0  0  0  0  0
   66.6956   32.2378   49.4580 H   0  0  0  0  0  0  0  0  0  0  0  0
   66.2915   33.9881   49.4580 H   0  0  0  0  0  0  0  0  0  0  0  0
   64.6098   30.9387   50.9470 H   0  0  0  0  0  0  0  0  0  0  0  0
   62.1356   30.2640   51.7914 H   0  0  0  0  0  0  0  0  0  0  0  0
   60.9776   30.0391   50.4367 H   0  0  0  0  0  0  0  0  0  0  0  0
   62.5422   29.1566   50.4367 H   0  0  0  0  0  0  0  0  0  0  0  0
   61.1464   30.9861   46.2341 H   0  0  0  0  0  0  0  0  0  0  0  0
   61.2685   29.3981   47.1055 H   0  0  0  0  0  0  0  0  0  0  0  0
   60.8936   29.7251   44.3632 H   0  0  0  0  0  0  0  0  0  0  0  0
   60.5454   28.2301   45.3395 H   0  0  0  0  0  0  0  0  0  0  0  0
  1  2  1  0
  2  3  1  0
  3  4  1  0
  4  5  1  0
  5  6  1  0
  6  7  1  0
  7  8  1  0
  8  9  2  0
  9 10  1  0
 10 11  2  0
 11 12  1  0
 12 13  2  0
 13 14  1  0
 14 15  2  0
  9 16  1  0
 16 17  2  0
 17 18  1  0
 18 19  2  0
 19 20  1  0
 19 21  1  0
 21 22  2  0
 22 23  1  0
 22 24  1  0
  6 25  1  0
 25 26  1  0
 26  3  1  0
 24  8  1  0
 15 10  1  0
 24 17  1  0
  1 27  1  0
  1 28  1  0
  1 29  1  0
  2 30  1  0
  2 31  1  0
  4 32  1  0
  4 33  1  0
  5 34  1  0
  5 35  1  0
  7 36  1  0
  7 37  1  0
 11 38  1  0
 12 39  1  0
 13 40  1  0
 14 41  1  0
 15 42  1  0
 18 43  1  0
 20 44  1  0
 20 45  1  0
 20 46  1  0
 21 47  1  0
 23 48  1  0
 23 49  1  0
 23 50  1  0
 25 51  1  0
 25 52  1  0
 26 53  1  0
 26 54  1  0
M  CHG  1  18   1
M  END
>  <UniqueID>  (39) 
39

>  <SMILES>  (39) 
CCN1CCN(Cc2c(-c3ccccc3)nc3[nH+]c(C)cc(C)n23)CC1

>  <Energy>  (39) 
107.35333292683947

>  <Genealogy>  (39) 
CCN1CCN(Cc2c(-c3ccccc3)nc3[nH+]c(C)cc(C)n23)CC1 (protonated)
CCN1CCN(Cc2c(-c3ccccc3)nc3[nH+]c(C)cc(C)n23)CC1 (3D coordinates assigned)
CCN1CCN(Cc2c(-c3ccccc3)nc3[nH+]c(C)cc(C)n23)CC1 (nonaromatic ring conformer: 107.35333292683947 kcal/mol)

>  <smiles>  (39) 
CCN1CCN(Cc2c(-c3ccccc3)nc3nc(C)cc(C)n23)CC1

>  <score_type>  (39) 
oracle

>  <origin>  (39) 
adg

>  <m_score__min__energy>  (39) 
-6.96

>  <m_primary>  (39) 
energy

$$$$
39:0
     RDKit          3D

 36 37  0  0  0  0  0  0  0  0999 V2000
   63.4930   31.5730   47.1070 C   0  0  0  0  0  0  0  0  0  0  0  0
   62.8490   32.8490   47.4680 N   0  0  0  0  0  0  0  0  0  0  0  0
   63.4120   33.9320   46.6470 C   0  0  0  0  0  0  0  0  0  0  0  0
   63.0240   33.1530   48.9040 C   0  0  0  0  0  0  0  0  0  0  0  0
   61.6890   33.1130   49.6590 C   0  0  0  0  0  0  0  0  0  0  0  0
   60.6600   34.5870   49.3110 S   0  0  0  0  0  0  0  0  0  0  0  0
   59.8190   33.8860   47.8860 C   0  0  0  0  0  0  0  0  0  0  0  0
   58.8590   34.6290   47.2010 C   0  0  0  0  0  0  0  0  0  0  0  0
   58.2120   34.0620   46.1060 C   0  0  0  0  0  0  0  0  0  0  0  0
   58.5430   32.7570   45.7090 C   0  0  0  0  0  0  0  0  0  0  0  0
   57.8870   32.0960   44.5530 C   0  0  0  0  0  0  0  0  0  0  0  0
   57.0180   31.0000   44.7290 C   0  0  0  0  0  0  0  0  0  0  0  0
   56.4180   30.3860   43.6240 C   0  0  0  0  0  0  0  0  0  0  0  0
   55.5850   29.3320   43.8050 F   0  0  0  0  0  0  0  0  0  0  0  0
   56.6810   30.8520   42.3340 C   0  0  0  0  0  0  0  0  0  0  0  0
   57.5500   31.9290   42.1440 C   0  0  0  0  0  0  0  0  0  0  0  0
   57.8080   32.3790   40.8920 F   0  0  0  0  0  0  0  0  0  0  0  0
   58.1530   32.5460   43.2450 C   0  0  0  0  0  0  0  0  0  0  0  0
   59.5120   32.0940   46.4000 N   0  0  0  0  0  0  0  0  0  0  0  0
   60.1320   32.6360   47.4490 N   0  0  0  0  0  0  0  0  0  0  0  0
   63.7676   31.0289   48.0227 H   0  0  0  0  0  0  0  0  0  0  0  0
   62.7942   30.9643   46.5145 H   0  0  0  0  0  0  0  0  0  0  0  0
   64.3978   31.7737   46.5145 H   0  0  0  0  0  0  0  0  0  0  0  0
   63.8193   34.7155   47.3029 H   0  0  0  0  0  0  0  0  0  0  0  0
   64.2157   33.5309   46.0121 H   0  0  0  0  0  0  0  0  0  0  0  0
   62.6219   34.3594   46.0121 H   0  0  0  0  0  0  0  0  0  0  0  0
   63.7055   32.4107   49.3451 H   0  0  0  0  0  0  0  0  0  0  0  0
   63.4374   34.1686   48.9917 H   0  0  0  0  0  0  0  0  0  0  0  0
   61.1351   32.2130   49.3536 H   0  0  0  0  0  0  0  0  0  0  0  0
   61.9084   33.0985   50.7368 H   0  0  0  0  0  0  0  0  0  0  0  0
   58.6151   35.6524   47.5220 H   0  0  0  0  0  0  0  0  0  0  0  0
   57.4481   34.6319   45.5568 H   0  0  0  0  0  0  0  0  0  0  0  0
   56.8102   30.6249   45.7420 H   0  0  0  0  0  0  0  0  0  0  0  0
   56.2038   30.3709   41.4675 H   0  0  0  0  0  0  0  0  0  0  0  0
   58.8409   33.3899   43.0880 H   0  0  0  0  0  0  0  0  0  0  0  0
   60.8710   32.0850   47.9390 H   0  0  0  0  0  0  0  0  0  0  0  0
  1  2  1  0
  2  3  1  0
  2  4  1  0
  4  5  1  0
  5  6  1  0
  6  7  1  0
  7  8  2  0
  8  9  1  0
  9 10  2  0
 10 11  1  0
 11 12  2  0
 12 13  1  0
 13 14  1  0
 13 15  2  0
 15 16  1  0
 16 17  1  0
 16 18  2  0
 10 19  1  0
 19 20  2  0
 20  7  1  0
 18 11  1  0
  1 21  1  0
  1 22  1  0
  1 23  1  0
  3 24  1  0
  3 25  1  0
  3 26  1  0
  4 27  1  0
  4 28  1  0
  5 29  1  0
  5 30  1  0
  8 31  1  0
  9 32  1  0
 12 33  1  0
 15 34  1  0
 18 35  1  0
 20 36  1  0
M  CHG  1  20   1
M  END
>  <UniqueID>  (40) 
40

>  <SMILES>  (40) 
CN(C)CCSc1ccc(-c2cc(F)cc(F)c2)n[nH+]1

>  <Energy>  (40) 
35.44764137314556

>  <Genealogy>  (40) 
CN(C)CCSc1ccc(-c2cc(F)cc(F)c2)n[nH+]1 (protonated)
CN(C)CCSc1ccc(-c2cc(F)cc(F)c2)n[nH+]1 (3D coordinates assigned)
CN(C)CCSc1ccc(-c2cc(F)cc(F)c2)n[nH+]1 (optimized conformer: 35.44764137314556 kcal/mol)

>  <smiles>  (40) 
CN(C)CCSc1ccc(-c2cc(F)cc(F)c2)nn1

>  <score_type>  (40) 
oracle

>  <origin>  (40) 
adg

>  <m_score__min__energy>  (40) 
-5.4500000000000002

>  <m_primary>  (40) 
energy

$$$$
40:0
     RDKit          3D

 57 59  0  0  0  0  0  0  0  0999 V2000
   58.1150   26.8950   43.8120 C   0  0  0  0  0  0  0  0  0  0  0  0
   57.9950   28.2580   44.3680 N   0  0  0  0  0  0  0  0  0  0  0  0
   57.1140   29.0830   43.5170 C   0  0  0  0  0  0  0  0  0  0  0  0
   56.1410   29.8490   44.3570 C   0  0  0  0  0  0  0  0  0  0  0  0
   55.1630   29.2540   44.8850 O   0  0  0  0  0  0  0  0  0  0  0  0
   56.3220   31.2570   44.5390 N   0  0  0  0  0  0  0  0  0  0  0  0
   57.4430   32.0210   43.9970 C   0  0  0  0  0  0  0  0  0  0  0  0
   58.2780   32.6420   45.1330 C   0  0  0  0  0  0  0  0  0  0  0  0
   58.9340   33.9780   44.7080 C   0  0  0  0  0  0  0  0  0  0  0  0
   59.4100   34.8140   45.9140 C   0  0  0  0  0  0  0  0  0  0  0  0
   59.5510   33.9610   47.1090 N   0  0  0  0  0  0  0  0  0  0  0  0
   60.3320   34.5920   48.1960 C   0  0  0  0  0  0  0  0  0  0  0  0
   61.7240   34.0210   48.3630 C   0  0  0  0  0  0  0  0  0  0  0  0
   62.4470   33.5710   47.2450 C   0  0  0  0  0  0  0  0  0  0  0  0
   63.7310   33.0410   47.4000 C   0  0  0  0  0  0  0  0  0  0  0  0
   64.3080   32.9630   48.6710 C   0  0  0  0  0  0  0  0  0  0  0  0
   63.6040   33.4200   49.7870 C   0  0  0  0  0  0  0  0  0  0  0  0
   62.3190   33.9490   49.6360 C   0  0  0  0  0  0  0  0  0  0  0  0
   58.2430   33.4390   47.5590 C   0  0  0  0  0  0  0  0  0  0  0  0
   57.4180   32.8530   46.3920 C   0  0  0  0  0  0  0  0  0  0  0  0
   59.3280   28.8840   44.4970 C   0  0  0  0  0  0  0  0  0  0  0  0
   59.5360   29.4140   45.8920 C   0  0  0  0  0  0  0  0  0  0  0  0
   60.7230   30.0910   46.2160 C   0  0  0  0  0  0  0  0  0  0  0  0
   60.9230   30.5880   47.5070 C   0  0  0  0  0  0  0  0  0  0  0  0
   59.9420   30.4060   48.4870 C   0  0  0  0  0  0  0  0  0  0  0  0
   60.1940   31.0270   50.1080 Cl  0  0  0  0  0  0  0  0  0  0  0  0
   58.7600   29.7280   48.1730 C   0  0  0  0  0  0  0  0  0  0  0  0
   58.5560   29.2340   46.8810 C   0  0  0  0  0  0  0  0  0  0  0  0
   58.1790   26.1677   44.6348 H   0  0  0  0  0  0  0  0  0  0  0  0
   57.2330   26.6723   43.1936 H   0  0  0  0  0  0  0  0  0  0  0  0
   59.0224   26.8298   43.1936 H   0  0  0  0  0  0  0  0  0  0  0  0
   57.7275   29.7895   42.9386 H   0  0  0  0  0  0  0  0  0  0  0  0
   56.5548   28.4223   42.8382 H   0  0  0  0  0  0  0  0  0  0  0  0
   58.0826   31.3517   43.4029 H   0  0  0  0  0  0  0  0  0  0  0  0
   57.0474   32.8302   43.3656 H   0  0  0  0  0  0  0  0  0  0  0  0
   59.0845   31.9306   45.3642 H   0  0  0  0  0  0  0  0  0  0  0  0
   59.8010   33.7571   44.0680 H   0  0  0  0  0  0  0  0  0  0  0  0
   58.1748   34.5670   44.1726 H   0  0  0  0  0  0  0  0  0  0  0  0
   60.3828   35.2697   45.6775 H   0  0  0  0  0  0  0  0  0  0  0  0
   58.6654   35.5968   46.1209 H   0  0  0  0  0  0  0  0  0  0  0  0
   60.4223   35.6665   47.9787 H   0  0  0  0  0  0  0  0  0  0  0  0
   59.7915   34.3944   49.1334 H   0  0  0  0  0  0  0  0  0  0  0  0
   61.9998   33.6363   46.2421 H   0  0  0  0  0  0  0  0  0  0  0  0
   64.2881   32.6849   46.5209 H   0  0  0  0  0  0  0  0  0  0  0  0
   65.3168   32.5415   48.7920 H   0  0  0  0  0  0  0  0  0  0  0  0
   64.0611   33.3636   50.7859 H   0  0  0  0  0  0  0  0  0  0  0  0
   61.7697   34.3111   50.5176 H   0  0  0  0  0  0  0  0  0  0  0  0
   58.4142   32.6483   48.3044 H   0  0  0  0  0  0  0  0  0  0  0  0
   57.6740   34.2766   47.9887 H   0  0  0  0  0  0  0  0  0  0  0  0
   56.9989   31.8848   46.7033 H   0  0  0  0  0  0  0  0  0  0  0  0
   56.6198   33.5683   46.1447 H   0  0  0  0  0  0  0  0  0  0  0  0
   60.1018   28.1338   44.2769 H   0  0  0  0  0  0  0  0  0  0  0  0
   59.3949   29.7218   43.7873 H   0  0  0  0  0  0  0  0  0  0  0  0
   61.4996   30.2309   45.4496 H   0  0  0  0  0  0  0  0  0  0  0  0
   61.8525   31.1226   47.7523 H   0  0  0  0  0  0  0  0  0  0  0  0
   57.9890   29.5830   48.9441 H   0  0  0  0  0  0  0  0  0  0  0  0
   57.6241   28.7023   46.6385 H   0  0  0  0  0  0  0  0  0  0  0  0
  1  2  1  0
  2  3  1  0
  3  4  1  0
  4  5  2  0
  4  6  1  0
  6  7  1  0
  7  8  1  0
  8  9  1  0
  9 10  1  0
 10 11  1  0
 11 12  1  0
 12 13  1  0
 13 14  2  0
 14 15  1  0
 15 16  2  0
 16 17  1  0
 17 18  2  0
 11 19  1  0
 19 20  1  0
  2 21  1  0
 21 22  1  0
 22 23  2  0
 23 24  1  0
 24 25  2  0
 25 26  1  0
 25 27  1  0
 27 28  2  0
 20  8  1  0
 28 22  1  0
 18 13  1  0
  1 29  1  0
  1 30  1  0
  1 31  1  0
  3 32  1  0
  3 33  1  0
  7 34  1  0
  7 35  1  0
  8 36  1  0
  9 37  1  0
  9 38  1  0
 10 39  1  0
 10 40  1  0
 12 41  1  0
 12 42  1  0
 14 43  1  0
 15 44  1  0
 16 45  1  0
 17 46  1  0
 18 47  1  0
 19 48  1  0
 19 49  1  0
 20 50  1  0
 20 51  1  0
 21 52  1  0
 21 53  1  0
 23 54  1  0
 24 55  1  0
 27 56  1  0
 28 57  1  0
M  CHG  1   6  -1
M  END
>  <UniqueID>  (41) 
41

>  <SMILES>  (41) 
CN(CC(=O)[N-]CC1CCN(Cc2ccccc2)CC1)Cc1ccc(Cl)cc1

>  <Energy>  (41) 
63.91062949640044

>  <Genealogy>  (41) 
CN(CC(=O)[N-]CC1CCN(Cc2ccccc2)CC1)Cc1ccc(Cl)cc1 (protonated)
CN(CC(=O)[N-]CC1CCN(Cc2ccccc2)CC1)Cc1ccc(Cl)cc1 (3D coordinates assigned)
CN(CC(=O)[N-]CC1CCN(Cc2ccccc2)CC1)Cc1ccc(Cl)cc1 (nonaromatic ring conformer: 63.91062949640044 kcal/mol)

>  <smiles>  (41) 
CN(CC(=O)NCC1CCN(Cc2ccccc2)CC1)Cc1ccc(Cl)cc1

>  <score_type>  (41) 
oracle

>  <origin>  (41) 
adg

>  <m_score__min__energy>  (41) 
-10.800000000000001

>  <m_primary>  (41) 
energy

$$$$
41:0
     RDKit          3D

 49 51  0  0  0  0  0  0  0  0999 V2000
   58.1590   27.3790   43.7540 C   0  0  0  0  0  0  0  0  0  0  0  0
   57.6200   27.3500   45.1930 C   0  0  0  0  0  0  0  0  0  0  0  0
   58.6650   27.4340   46.2420 N   0  0  0  0  0  0  0  0  0  0  0  0
   58.4240   26.5180   47.3690 C   0  0  0  0  0  0  0  0  0  0  0  0
   60.0450   27.3190   45.7170 C   0  0  0  0  0  0  0  0  0  0  0  0
   60.7680   28.6710   45.7940 C   0  0  0  0  0  0  0  0  0  0  0  0
   60.3850   29.4190   47.0050 N   0  0  0  0  0  0  0  0  0  0  0  0
   60.3040   30.8450   46.7280 C   0  0  0  0  0  0  0  0  0  0  0  0
   61.3540   31.7210   47.1080 C   0  0  0  0  0  0  0  0  0  0  0  0
   62.5920   31.2340   47.5990 C   0  0  0  0  0  0  0  0  0  0  0  0
   63.6230   32.1050   47.9380 C   0  0  0  0  0  0  0  0  0  0  0  0
   63.4580   33.4750   47.7840 C   0  0  0  0  0  0  0  0  0  0  0  0
   62.2550   33.9820   47.3030 C   0  0  0  0  0  0  0  0  0  0  0  0
   61.1720   33.1260   46.9800 C   0  0  0  0  0  0  0  0  0  0  0  0
   59.9670   33.6310   46.5350 N   0  0  0  0  0  0  0  0  0  0  0  0
   59.6560   35.0680   46.7130 C   0  0  0  0  0  0  0  0  0  0  0  0
   59.0500   32.7960   45.9300 C   0  0  0  0  0  0  0  0  0  0  0  0
   57.9660   33.3150   45.1800 C   0  0  0  0  0  0  0  0  0  0  0  0
   57.0210   32.4760   44.5980 C   0  0  0  0  0  0  0  0  0  0  0  0
   57.1270   31.0890   44.7240 C   0  0  0  0  0  0  0  0  0  0  0  0
   56.1520   30.2210   44.1140 N   0  0  0  0  0  0  0  0  0  0  0  0
   56.1290   30.0610   42.8750 O   0  0  0  0  0  0  0  0  0  0  0  0
   55.2250   29.5560   44.8830 O   0  0  0  0  0  0  0  0  0  0  0  0
   58.2110   30.5540   45.4330 C   0  0  0  0  0  0  0  0  0  0  0  0
   59.1870   31.3860   46.0360 C   0  0  0  0  0  0  0  0  0  0  0  0
   59.2572   27.4381   43.7749 H   0  0  0  0  0  0  0  0  0  0  0  0
   57.8510   26.4630   43.2286 H   0  0  0  0  0  0  0  0  0  0  0  0
   57.7545   28.2567   43.2286 H   0  0  0  0  0  0  0  0  0  0  0  0
   56.9354   28.2014   45.3209 H   0  0  0  0  0  0  0  0  0  0  0  0
   57.1240   26.3767   45.3222 H   0  0  0  0  0  0  0  0  0  0  0  0
   58.5660   27.0577   48.3169 H   0  0  0  0  0  0  0  0  0  0  0  0
   57.3944   26.1345   47.3161 H   0  0  0  0  0  0  0  0  0  0  0  0
   59.1316   25.6774   47.3161 H   0  0  0  0  0  0  0  0  0  0  0  0
   60.5982   26.5790   46.3139 H   0  0  0  0  0  0  0  0  0  0  0  0
   59.9983   27.0018   44.6648 H   0  0  0  0  0  0  0  0  0  0  0  0
   61.8538   28.4955   45.8105 H   0  0  0  0  0  0  0  0  0  0  0  0
   60.4815   29.2667   44.9148 H   0  0  0  0  0  0  0  0  0  0  0  0
   61.0600   29.2250   47.7780 H   0  0  0  0  0  0  0  0  0  0  0  0
   59.4770   29.0750   47.3890 H   0  0  0  0  0  0  0  0  0  0  0  0
   62.7398   30.1500   47.7138 H   0  0  0  0  0  0  0  0  0  0  0  0
   64.5711   31.7071   48.3290 H   0  0  0  0  0  0  0  0  0  0  0  0
   64.2790   34.1600   48.0425 H   0  0  0  0  0  0  0  0  0  0  0  0
   62.1419   35.0681   47.1707 H   0  0  0  0  0  0  0  0  0  0  0  0
   59.6054   35.3019   47.7866 H   0  0  0  0  0  0  0  0  0  0  0  0
   60.4436   35.6747   46.2423 H   0  0  0  0  0  0  0  0  0  0  0  0
   58.6880   35.2947   46.2423 H   0  0  0  0  0  0  0  0  0  0  0  0
   57.8695   34.4036   45.0552 H   0  0  0  0  0  0  0  0  0  0  0  0
   56.1823   32.9091   44.0332 H   0  0  0  0  0  0  0  0  0  0  0  0
   58.3066   29.4619   45.5237 H   0  0  0  0  0  0  0  0  0  0  0  0
  1  2  1  0
  2  3  1  0
  3  4  1  0
  3  5  1  0
  5  6  1  0
  6  7  1  0
  7  8  1  0
  8  9  2  0
  9 10  1  0
 10 11  2  0
 11 12  1  0
 12 13  2  0
 13 14  1  0
 14 15  2  0
 15 16  1  0
 15 17  1  0
 17 18  2  0
 18 19  1  0
 19 20  2  0
 20 21  1  0
 21 22  2  0
 21 23  1  0
 20 24  1  0
 24 25  2  0
 25  8  1  0
 14  9  1  0
 25 17  1  0
  1 26  1  0
  1 27  1  0
  1 28  1  0
  2 29  1  0
  2 30  1  0
  4 31  1  0
  4 32  1  0
  4 33  1  0
  5 34  1  0
  5 35  1  0
  6 36  1  0
  6 37  1  0
  7 38  1  0
  7 39  1  0
 10 40  1  0
 11 41  1  0
 12 42  1  0
 13 43  1  0
 16 44  1  0
 16 45  1  0
 16 46  1  0
 18 47  1  0
 19 48  1  0
 24 49  1  0
M  CHG  4   7   1  15   1  21   1  23  -1
M  END
>  <UniqueID>  (42) 
42

>  <SMILES>  (42) 
CCN(C)CC[NH2+]c1c2ccccc2[n+](C)c2ccc([N+](=O)[O-])cc12

>  <Energy>  (42) 
80.16091595652867

>  <Genealogy>  (42) 
CCN(C)CC[NH2+]c1c2ccccc2[n+](C)c2ccc([N+](=O)[O-])cc12 (protonated)
CCN(C)CC[NH2+]c1c2ccccc2[n+](C)c2ccc([N+](=O)[O-])cc12 (3D coordinates assigned)
CCN(C)CC[NH2+]c1c2ccccc2[n+](C)c2ccc([N+](=O)[O-])cc12 (optimized conformer: 80.16091595652867 kcal/mol)

>  <smiles>  (42) 
CCN(C)CCNc1c2ccccc2[n+](C)c2ccc([N+](=O)[O-])cc12

>  <score_type>  (42) 
oracle

>  <origin>  (42) 
adg

>  <m_score__min__energy>  (42) 
-5.1200000000000001

>  <m_primary>  (42) 
energy

$$$$
42:0
     RDKit          3D

 61 63  0  0  0  0  0  0  0  0999 V2000
   60.0050   30.4460   47.2680 C   0  0  0  0  0  0  0  0  0  0  0  0
   58.9720   30.5390   48.4000 C   0  0  0  0  0  0  0  0  0  0  0  0
   59.4990   31.1510   49.6470 N   0  0  0  0  0  0  0  0  0  0  0  0
   60.1400   30.1870   50.5730 C   0  0  0  0  0  0  0  0  0  0  0  0
   61.6610   30.1650   50.4190 C   0  0  0  0  0  0  0  0  0  0  0  0
   58.4860   31.9890   50.3360 C   0  0  0  0  0  0  0  0  0  0  0  0
   59.1680   33.0270   51.2350 C   0  0  0  0  0  0  0  0  0  0  0  0
   59.6490   34.1690   50.4620 N   0  0  0  0  0  0  0  0  0  0  0  0
   60.5310   33.9620   49.3450 C   0  0  0  0  0  0  0  0  0  0  0  0
   61.9020   33.7380   49.5570 C   0  0  0  0  0  0  0  0  0  0  0  0
   62.4330   33.6860   50.8620 C   0  0  0  0  0  0  0  0  0  0  0  0
   63.7810   33.4120   51.0750 C   0  0  0  0  0  0  0  0  0  0  0  0
   64.6230   33.1740   49.9930 C   0  0  0  0  0  0  0  0  0  0  0  0
   66.3110   32.7800   50.2680 Cl  0  0  0  0  0  0  0  0  0  0  0  0
   64.1250   33.2450   48.6900 C   0  0  0  0  0  0  0  0  0  0  0  0
   62.7660   33.5710   48.4410 C   0  0  0  0  0  0  0  0  0  0  0  0
   62.2750   33.7170   47.1570 N   0  0  0  0  0  0  0  0  0  0  0  0
   63.2120   33.8480   46.0170 C   0  0  0  0  0  0  0  0  0  0  0  0
   60.9100   33.7770   46.9390 C   0  0  0  0  0  0  0  0  0  0  0  0
   60.3570   33.6600   45.6380 C   0  0  0  0  0  0  0  0  0  0  0  0
   58.9720   33.7690   45.4190 C   0  0  0  0  0  0  0  0  0  0  0  0
   58.3990   33.6730   44.1420 O   0  0  0  0  0  0  0  0  0  0  0  0
   58.0670   32.4460   43.4930 C   0  0  0  0  0  0  0  0  0  0  0  0
   57.3760   31.5030   44.4770 C   0  0  0  0  0  0  0  0  0  0  0  0
   56.5090   30.4650   43.7570 C   0  0  0  0  0  0  0  0  0  0  0  0
   55.7360   29.6970   44.7270 N   0  0  0  0  0  0  0  0  0  0  0  0
   58.1260   33.9760   46.5040 C   0  0  0  0  0  0  0  0  0  0  0  0
   58.6360   34.0520   47.7970 C   0  0  0  0  0  0  0  0  0  0  0  0
   60.0220   33.9400   48.0340 C   0  0  0  0  0  0  0  0  0  0  0  0
   61.0133   30.3552   47.6983 H   0  0  0  0  0  0  0  0  0  0  0  0
   59.7904   29.5635   46.6473 H   0  0  0  0  0  0  0  0  0  0  0  0
   59.9515   31.3526   46.6473 H   0  0  0  0  0  0  0  0  0  0  0  0
   58.1253   31.1461   48.0472 H   0  0  0  0  0  0  0  0  0  0  0  0
   58.6780   29.5088   48.6494 H   0  0  0  0  0  0  0  0  0  0  0  0
   59.8923   30.4700   51.6067 H   0  0  0  0  0  0  0  0  0  0  0  0
   59.7609   29.1829   50.3320 H   0  0  0  0  0  0  0  0  0  0  0  0
   62.1302   30.1582   51.4139 H   0  0  0  0  0  0  0  0  0  0  0  0
   61.9606   29.2624   49.8662 H   0  0  0  0  0  0  0  0  0  0  0  0
   61.9865   31.0585   49.8662 H   0  0  0  0  0  0  0  0  0  0  0  0
   57.8738   32.5082   49.5839 H   0  0  0  0  0  0  0  0  0  0  0  0
   57.8527   31.3405   50.9592 H   0  0  0  0  0  0  0  0  0  0  0  0
   58.4450   33.3813   51.9844 H   0  0  0  0  0  0  0  0  0  0  0  0
   60.0319   32.5496   51.7205 H   0  0  0  0  0  0  0  0  0  0  0  0
   59.0490   35.0240   50.4350 H   0  0  0  0  0  0  0  0  0  0  0  0
   61.7730   33.8644   51.7237 H   0  0  0  0  0  0  0  0  0  0  0  0
   64.1809   33.3836   52.0993 H   0  0  0  0  0  0  0  0  0  0  0  0
   64.7972   33.0449   47.8425 H   0  0  0  0  0  0  0  0  0  0  0  0
   64.2343   33.9909   46.3972 H   0  0  0  0  0  0  0  0  0  0  0  0
   63.1731   32.9357   45.4037 H   0  0  0  0  0  0  0  0  0  0  0  0
   62.9244   34.7147   45.4037 H   0  0  0  0  0  0  0  0  0  0  0  0
   61.0251   33.4803   44.7828 H   0  0  0  0  0  0  0  0  0  0  0  0
   57.3910   32.6514   42.6499 H   0  0  0  0  0  0  0  0  0  0  0  0
   58.9889   31.9714   43.1258 H   0  0  0  0  0  0  0  0  0  0  0  0
   58.1429   30.9791   45.0664 H   0  0  0  0  0  0  0  0  0  0  0  0
   56.7218   32.1046   45.1251 H   0  0  0  0  0  0  0  0  0  0  0  0
   55.8215   30.9793   43.0694 H   0  0  0  0  0  0  0  0  0  0  0  0
   57.1603   29.7809   43.1933 H   0  0  0  0  0  0  0  0  0  0  0  0
   54.7410   30.0120   44.6620 H   0  0  0  0  0  0  0  0  0  0  0  0
   55.7510   28.6930   44.4380 H   0  0  0  0  0  0  0  0  0  0  0  0
   57.0436   34.0806   46.3385 H   0  0  0  0  0  0  0  0  0  0  0  0
   57.9501   34.2012   48.6439 H   0  0  0  0  0  0  0  0  0  0  0  0
  1  2  1  0
  2  3  1  0
  3  4  1  0
  4  5  1  0
  3  6  1  0
  6  7  1  0
  7  8  1  0
  8  9  1  0
  9 10  2  0
 10 11  1  0
 11 12  2  0
 12 13  1  0
 13 14  1  0
 13 15  2  0
 15 16  1  0
 16 17  2  0
 17 18  1  0
 17 19  1  0
 19 20  2  0
 20 21  1  0
 21 22  1  0
 22 23  1  0
 23 24  1  0
 24 25  1  0
 25 26  1  0
 21 27  2  0
 27 28  1  0
 28 29  2  0
 29  9  1  0
 16 10  1  0
 29 19  1  0
  1 30  1  0
  1 31  1  0
  1 32  1  0
  2 33  1  0
  2 34  1  0
  4 35  1  0
  4 36  1  0
  5 37  1  0
  5 38  1  0
  5 39  1  0
  6 40  1  0
  6 41  1  0
  7 42  1  0
  7 43  1  0
  8 44  1  0
 11 45  1  0
 12 46  1  0
 15 47  1  0
 18 48  1  0
 18 49  1  0
 18 50  1  0
 20 51  1  0
 23 52  1  0
 23 53  1  0
 24 54  1  0
 24 55  1  0
 25 56  1  0
 25 57  1  0
 26 58  1  0
 26 59  1  0
 27 60  1  0
 28 61  1  0
M  CHG  1  17   1
M  END
>  <UniqueID>  (43) 
43

>  <SMILES>  (43) 
CCN(CC)CCNc1c2ccc(Cl)cc2[n+](C)c2cc(OCCCN)ccc12

>  <Energy>  (43) 
82.40164989717836

>  <Genealogy>  (43) 
CCN(CC)CCNc1c2ccc(Cl)cc2[n+](C)c2cc(OCCCN)ccc12 (3D coordinates assigned)
CCN(CC)CCNc1c2ccc(Cl)cc2[n+](C)c2cc(OCCCN)ccc12 (optimized conformer: 82.40164989717836 kcal/mol)

>  <smiles>  (43) 
CCN(CC)CCNc1c2ccc(Cl)cc2[n+](C)c2cc(OCCCN)ccc12

>  <score_type>  (43) 
oracle

>  <origin>  (43) 
adg

>  <m_score__min__energy>  (43) 
-6.25

>  <m_primary>  (43) 
energy

$$$$
43:0
     RDKit          3D

 47 48  0  0  0  0  0  0  0  0999 V2000
   55.9140   24.4340   47.2570 C   0  0  0  0  0  0  0  0  0  0  0  0
   55.5390   25.1100   46.0040 N   0  0  0  0  0  0  0  0  0  0  0  0
   54.1980   24.6820   45.5780 C   0  0  0  0  0  0  0  0  0  0  0  0
   56.5390   24.8620   44.9440 C   0  0  0  0  0  0  0  0  0  0  0  0
   57.5710   25.9970   44.9220 C   0  0  0  0  0  0  0  0  0  0  0  0
   56.9790   27.2910   45.3000 N   0  0  0  0  0  0  0  0  0  0  0  0
   57.3880   28.3620   44.3820 C   0  0  0  0  0  0  0  0  0  0  0  0
   56.2300   29.3440   44.1490 C   0  0  1  0  0  0  0  0  0  0  0  0
   55.3310   29.2670   45.2260 O   0  0  0  0  0  0  0  0  0  0  0  0
   56.7270   30.7960   43.9730 C   0  0  0  0  0  0  0  0  0  0  0  0
   56.8680   31.4580   45.2340 O   0  0  0  0  0  0  0  0  0  0  0  0
   57.7910   32.4780   45.5150 C   0  0  0  0  0  0  0  0  0  0  0  0
   57.5460   33.8140   45.1470 C   0  0  0  0  0  0  0  0  0  0  0  0
   58.5190   34.7930   45.3490 C   0  0  0  0  0  0  0  0  0  0  0  0
   59.7400   34.4590   45.9320 C   0  0  0  0  0  0  0  0  0  0  0  0
   59.9880   33.1430   46.3390 C   0  0  0  0  0  0  0  0  0  0  0  0
   59.0020   32.1490   46.1610 C   0  0  0  0  0  0  0  0  0  0  0  0
   59.3210   30.7110   46.5160 C   0  0  0  0  0  0  0  0  0  0  0  0
   60.2600   30.6080   47.7250 C   0  0  0  0  0  0  0  0  0  0  0  0
   61.4300   31.5330   47.5690 C   0  0  0  0  0  0  0  0  0  0  0  0
   62.5510   31.2220   48.0490 O   0  0  0  0  0  0  0  0  0  0  0  0
   61.2470   32.8050   46.9380 N   0  0  0  0  0  0  0  0  0  0  0  0
   55.5792   25.0375   48.1136 H   0  0  0  0  0  0  0  0  0  0  0  0
   55.4361   23.4440   47.2968 H   0  0  0  0  0  0  0  0  0  0  0  0
   57.0069   24.3154   47.2968 H   0  0  0  0  0  0  0  0  0  0  0  0
   53.5775   24.4840   46.4644 H   0  0  0  0  0  0  0  0  0  0  0  0
   53.7337   25.4766   44.9755 H   0  0  0  0  0  0  0  0  0  0  0  0
   54.2798   23.7653   44.9755 H   0  0  0  0  0  0  0  0  0  0  0  0
   57.0503   23.9082   45.1412 H   0  0  0  0  0  0  0  0  0  0  0  0
   56.0299   24.8173   43.9699 H   0  0  0  0  0  0  0  0  0  0  0  0
   58.3783   25.7561   45.6293 H   0  0  0  0  0  0  0  0  0  0  0  0
   57.9540   26.0868   43.8948 H   0  0  0  0  0  0  0  0  0  0  0  0
   55.9410   27.1900   45.2220 H   0  0  0  0  0  0  0  0  0  0  0  0
   58.2407   28.9046   44.8162 H   0  0  0  0  0  0  0  0  0  0  0  0
   57.6734   27.9143   43.4186 H   0  0  0  0  0  0  0  0  0  0  0  0
   55.7240   29.0585   43.2150 H   0  0  0  0  0  0  0  0  0  0  0  0
   55.7690   29.7160   45.9960 H   0  0  0  0  0  0  0  0  0  0  0  0
   57.7031   30.7808   43.4660 H   0  0  0  0  0  0  0  0  0  0  0  0
   55.9843   31.3453   43.3757 H   0  0  0  0  0  0  0  0  0  0  0  0
   56.5805   34.0882   44.6969 H   0  0  0  0  0  0  0  0  0  0  0  0
   58.3218   35.8322   45.0471 H   0  0  0  0  0  0  0  0  0  0  0  0
   60.5105   35.2313   46.0726 H   0  0  0  0  0  0  0  0  0  0  0  0
   58.3825   30.1873   46.7505 H   0  0  0  0  0  0  0  0  0  0  0  0
   59.8289   30.2546   45.6536 H   0  0  0  0  0  0  0  0  0  0  0  0
   59.7059   30.8774   48.6363 H   0  0  0  0  0  0  0  0  0  0  0  0
   60.6329   29.5756   47.7957 H   0  0  0  0  0  0  0  0  0  0  0  0
   62.0320   33.4940   46.9340 H   0  0  0  0  0  0  0  0  0  0  0  0
  1  2  1  0
  2  3  1  0
  2  4  1  0
  4  5  1  0
  5  6  1  0
  6  7  1  0
  7  8  1  0
  8  9  1  0
  8 10  1  0
 10 11  1  0
 11 12  1  0
 12 13  2  0
 13 14  1  0
 14 15  2  0
 15 16  1  0
 16 17  2  0
 17 18  1  0
 18 19  1  0
 19 20  1  0
 20 21  2  0
 20 22  1  0
 17 12  1  0
 22 16  1  0
  1 23  1  0
  1 24  1  0
  1 25  1  0
  3 26  1  0
  3 27  1  0
  3 28  1  0
  4 29  1  0
  4 30  1  0
  5 31  1  0
  5 32  1  0
  6 33  1  0
  7 34  1  0
  7 35  1  0
  8 36  1  6
  9 37  1  0
 10 38  1  0
 10 39  1  0
 13 40  1  0
 14 41  1  0
 15 42  1  0
 18 43  1  0
 18 44  1  0
 19 45  1  0
 19 46  1  0
 22 47  1  0
M  END
>  <UniqueID>  (44) 
44

>  <SMILES>  (44) 
CN(C)CCNC[C@@H](O)COc1cccc2c1CCC(=O)N2

>  <Energy>  (44) 
43.31612206966153

>  <Genealogy>  (44) 
CN(C)CCNC[C@@H](O)COc1cccc2c1CCC(=O)N2 (chirality)
CN(C)CCNC[C@@H](O)COc1cccc2c1CCC(=O)N2 (3D coordinates assigned)
CN(C)CCNC[C@@H](O)COc1cccc2c1CCC(=O)N2 (nonaromatic ring conformer: 43.31612206966153 kcal/mol)

>  <smiles>  (44) 
CN(C)CCNCC(O)COc1cccc2c1CCC(=O)N2

>  <score_type>  (44) 
oracle

>  <origin>  (44) 
adg

>  <m_score__min__energy>  (44) 
-7.5099999999999998

>  <m_primary>  (44) 
energy

$$$$
44:0
     RDKit          3D

 37 38  0  0  0  0  0  0  0  0999 V2000
   61.8582   30.6272   47.8074 H   0  0  0  0  0  0  0  0  0  0  0  0
   61.5560   31.5680   47.3240 C   0  0  0  0  0  0  0  0  0  0  0  0
   60.2790   31.6830   46.7700 C   0  0  0  0  0  0  0  0  0  0  0  0
   59.5844   30.8311   46.8120 H   0  0  0  0  0  0  0  0  0  0  0  0
   59.8800   32.8800   46.1610 C   0  0  0  0  0  0  0  0  0  0  0  0
   58.2630   33.0330   45.4820 S   0  0  0  0  0  0  0  0  0  0  0  0
   57.5360   34.1520   46.1740 O   0  0  0  0  0  0  0  0  0  0  0  0
   58.3650   33.3410   44.0140 O   0  0  0  0  0  0  0  0  0  0  0  0
   57.4180   31.5380   45.7190 N   0  0  0  0  0  0  0  0  0  0  0  0
   57.2560   30.6340   44.7990 C   0  0  0  0  0  0  0  0  0  0  0  0
   57.7670   29.3230   44.9310 N   0  0  0  0  0  0  0  0  0  0  0  0
   58.5180   28.8280   46.0790 C   0  0  0  0  0  0  0  0  0  0  0  0
   58.0252   29.1528   47.0072 H   0  0  0  0  0  0  0  0  0  0  0  0
   58.5534   27.7290   46.0478 H   0  0  0  0  0  0  0  0  0  0  0  0
   59.5419   29.2288   46.0478 H   0  0  0  0  0  0  0  0  0  0  0  0
   57.4400   28.5320   43.7590 C   0  0  0  0  0  0  0  0  0  0  0  0
   56.8267   27.6641   44.0430 H   0  0  0  0  0  0  0  0  0  0  0  0
   58.3459   28.1459   43.2689 H   0  0  0  0  0  0  0  0  0  0  0  0
   56.6470   29.4640   42.8230 C   0  0  0  0  0  0  0  0  0  0  0  0
   55.6426   29.0519   42.6458 H   0  0  0  0  0  0  0  0  0  0  0  0
   57.1551   29.5609   41.8522 H   0  0  0  0  0  0  0  0  0  0  0  0
   56.5380   30.8320   43.5150 C   0  0  0  0  0  0  0  0  0  0  0  0
   55.4858   31.1000   43.6911 H   0  0  0  0  0  0  0  0  0  0  0  0
   56.9595   31.6499   42.9122 H   0  0  0  0  0  0  0  0  0  0  0  0
   60.7620   33.9670   46.1310 C   0  0  0  0  0  0  0  0  0  0  0  0
   60.4473   34.9152   45.6708 H   0  0  0  0  0  0  0  0  0  0  0  0
   62.0420   33.8520   46.6840 C   0  0  0  0  0  0  0  0  0  0  0  0
   62.7273   34.7122   46.6609 H   0  0  0  0  0  0  0  0  0  0  0  0
   62.4570   32.6430   47.2690 C   0  0  0  0  0  0  0  0  0  0  0  0
   63.7570   32.5040   47.8660 N   0  0  0  0  0  0  0  0  0  0  0  0
   64.5030   32.0230   47.3140 H   0  0  0  0  0  0  0  0  0  0  0  0
   64.1320   33.0820   49.1260 C   0  0  0  0  0  0  0  0  0  0  0  0
   63.4080   33.9580   49.6720 O   0  0  0  0  0  0  0  0  0  0  0  0
   65.4380   32.7170   49.7520 C   0  0  0  0  0  0  0  0  0  0  0  0
   65.3400   32.7444   50.8473 H   0  0  0  0  0  0  0  0  0  0  0  0
   65.7262   31.7039   49.4349 H   0  0  0  0  0  0  0  0  0  0  0  0
   66.2097   33.4339   49.4349 H   0  0  0  0  0  0  0  0  0  0  0  0
  1  2  1  0
  2  3  2  0
  3  4  1  0
  3  5  1  0
  5  6  1  0
  6  7  2  0
  6  8  2  0
  6  9  1  0
  9 10  2  0
 10 11  1  0
 11 12  1  0
 12 13  1  0
 12 14  1  0
 12 15  1  0
 11 16  1  0
 16 17  1  0
 16 18  1  0
 16 19  1  0
 19 20  1  0
 19 21  1  0
 19 22  1  0
 22 23  1  0
 22 24  1  0
  5 25  2  0
 25 26  1  0
 25 27  1  0
 27 28  1  0
 27 29  2  0
 29 30  1  0
 30 31  1  0
 30 32  1  0
 32 33  2  0
 32 34  1  0
 34 35  1  0
 34 36  1  0
 34 37  1  0
 29  2  1  0
 22 10  1  0
M  END
>  <UniqueID>  (45) 
45

>  <SMILES>  (45) 
CC(=O)Nc1ccc(S(=O)(=O)/N=C2\CCCN2C)cc1

>  <Energy>  (45) 
44.7225027929955

>  <Genealogy>  (45) 
CC(=O)Nc1ccc(S(=O)(=O)/N=C2\CCCN2C)cc1 (cis-trans isomerization)
CC(=O)Nc1ccc(S(=O)(=O)/N=C2\CCCN2C)cc1 (3D coordinates assigned)
CC(=O)Nc1ccc(S(=O)(=O)/N=C2\CCCN2C)cc1 (nonaromatic ring conformer: 44.7225027929955 kcal/mol)

>  <smiles>  (45) 
CC(=O)Nc1ccc(S(=O)(=O)N=C2CCCN2C)cc1

>  <score_type>  (45) 
oracle

>  <origin>  (45) 
adg

>  <m_score__min__energy>  (45) 
-7.3700000000000001

>  <m_primary>  (45) 
energy

$$$$
