0:0
     RDKit          3D

 53 55  0  0  0  0  0  0  0  0999 V2000
   59.6520   22.2680   44.8720 C   0  0  0  0  0  0  0  0  0  0  0  0
   58.4400   23.1910   45.0740 C   0  0  0  0  0  0  0  0  0  0  0  0
   58.5020   24.0380   46.2890 N   0  0  0  0  0  0  0  0  0  0  0  0
   57.2060   24.3120   46.9330 C   0  0  0  0  0  0  0  0  0  0  0  0
   59.3860   25.2200   46.1890 C   0  0  0  0  0  0  0  0  0  0  0  0
   58.7170   26.4200   45.5730 C   0  0  0  0  0  0  0  0  0  0  0  0
   58.3110   27.5060   46.3610 C   0  0  0  0  0  0  0  0  0  0  0  0
   57.6780   28.5940   45.7600 C   0  0  0  0  0  0  0  0  0  0  0  0
   57.4550   28.5950   44.3790 C   0  0  0  0  0  0  0  0  0  0  0  0
   56.6550   29.9670   43.6180 S   0  0  0  0  0  0  0  0  0  0  0  0
   55.5150   30.4040   44.4940 O   0  0  0  0  0  0  0  0  0  0  0  0
   56.1090   29.5920   42.2680 O   0  0  0  0  0  0  0  0  0  0  0  0
   57.7770   31.2780   43.4390 N   0  0  0  0  0  0  0  0  0  0  0  0
   58.1300   32.1900   44.4960 C   0  0  0  0  0  0  0  0  0  0  0  0
   57.4150   33.3780   44.7240 C   0  0  0  0  0  0  0  0  0  0  0  0
   57.7910   34.2460   45.7480 C   0  0  0  0  0  0  0  0  0  0  0  0
   58.8890   33.9520   46.5690 C   0  0  0  0  0  0  0  0  0  0  0  0
   59.2730   34.9270   47.6520 C   0  0  0  0  0  0  0  0  0  0  0  0
   59.5910   32.7390   46.3750 C   0  0  0  0  0  0  0  0  0  0  0  0
   60.7230   32.3440   47.2410 C   0  0  0  0  0  0  0  0  0  0  0  0
   61.9730   32.9660   47.0840 C   0  0  0  0  0  0  0  0  0  0  0  0
   63.0480   32.5980   47.8990 C   0  0  0  0  0  0  0  0  0  0  0  0
   62.8840   31.6040   48.8700 C   0  0  0  0  0  0  0  0  0  0  0  0
   61.6480   30.9710   49.0210 C   0  0  0  0  0  0  0  0  0  0  0  0
   60.5700   31.3340   48.2080 C   0  0  0  0  0  0  0  0  0  0  0  0
   59.3850   30.6870   48.3480 F   0  0  0  0  0  0  0  0  0  0  0  0
   59.2130   31.8810   45.3310 C   0  0  0  0  0  0  0  0  0  0  0  0
   57.8830   27.4980   43.6220 C   0  0  0  0  0  0  0  0  0  0  0  0
   58.4980   26.4490   44.2290 N   0  0  0  0  0  0  0  0  0  0  0  0
   60.0496   21.9652   45.8519 H   0  0  0  0  0  0  0  0  0  0  0  0
   59.3428   21.3745   44.3098 H   0  0  0  0  0  0  0  0  0  0  0  0
   60.4311   22.8036   44.3098 H   0  0  0  0  0  0  0  0  0  0  0  0
   58.3636   23.8527   44.1986 H   0  0  0  0  0  0  0  0  0  0  0  0
   57.5664   22.5340   45.1976 H   0  0  0  0  0  0  0  0  0  0  0  0
   57.3270   24.2864   48.0260 H   0  0  0  0  0  0  0  0  0  0  0  0
   56.8473   25.3058   46.6270 H   0  0  0  0  0  0  0  0  0  0  0  0
   56.4758   23.5484   46.6270 H   0  0  0  0  0  0  0  0  0  0  0  0
   59.7221   25.4900   47.2010 H   0  0  0  0  0  0  0  0  0  0  0  0
   60.2232   24.9432   45.5313 H   0  0  0  0  0  0  0  0  0  0  0  0
   58.4904   27.5002   47.4462 H   0  0  0  0  0  0  0  0  0  0  0  0
   57.3547   29.4497   46.3709 H   0  0  0  0  0  0  0  0  0  0  0  0
   58.1770   31.4280   42.4870 H   0  0  0  0  0  0  0  0  0  0  0  0
   56.5514   33.6251   44.0891 H   0  0  0  0  0  0  0  0  0  0  0  0
   57.2201   35.1716   45.9137 H   0  0  0  0  0  0  0  0  0  0  0  0
   59.0933   34.4708   48.6367 H   0  0  0  0  0  0  0  0  0  0  0  0
   60.3387   35.1818   47.5549 H   0  0  0  0  0  0  0  0  0  0  0  0
   58.6673   35.8401   47.5549 H   0  0  0  0  0  0  0  0  0  0  0  0
   62.1063   33.7443   46.3182 H   0  0  0  0  0  0  0  0  0  0  0  0
   64.0239   33.0906   47.7766 H   0  0  0  0  0  0  0  0  0  0  0  0
   63.7290   31.3208   49.5149 H   0  0  0  0  0  0  0  0  0  0  0  0
   61.5226   30.1856   49.7809 H   0  0  0  0  0  0  0  0  0  0  0  0
   59.7757   30.9505   45.1650 H   0  0  0  0  0  0  0  0  0  0  0  0
   57.7213   27.4850   42.5340 H   0  0  0  0  0  0  0  0  0  0  0  0
  1  2  1  0
  2  3  1  0
  3  4  1  0
  3  5  1  0
  5  6  1  0
  6  7  2  0
  7  8  1  0
  8  9  2  0
  9 10  1  0
 10 11  2  0
 10 12  2  0
 10 13  1  0
 13 14  1  0
 14 15  2  0
 15 16  1  0
 16 17  2  0
 17 18  1  0
 17 19  1  0
 19 20  1  0
 20 21  2  0
 21 22  1  0
 22 23  2  0
 23 24  1  0
 24 25  2  0
 25 26  1  0
 19 27  2  0
  9 28  1  0
 28 29  2  0
 29  6  1  0
 27 14  1  0
 25 20  1  0
  1 30  1  0
  1 31  1  0
  1 32  1  0
  2 33  1  0
  2 34  1  0
  4 35  1  0
  4 36  1  0
  4 37  1  0
  5 38  1  0
  5 39  1  0
  7 40  1  0
  8 41  1  0
 13 42  1  0
 15 43  1  0
 16 44  1  0
 18 45  1  0
 18 46  1  0
 18 47  1  0
 21 48  1  0
 22 49  1  0
 23 50  1  0
 24 51  1  0
 27 52  1  0
 28 53  1  0
M  END
>  <UniqueID>  (1) 
1

>  <SMILES>  (1) 
CCN(C)Cc1ccc(S(=O)(=O)Nc2ccc(C)c(-c3ccccc3F)c2)cn1

>  <Energy>  (1) 
71.44977589458972

>  <Genealogy>  (1) 
CCN(C)Cc1ccc(S(=O)(=O)Nc2ccc(C)c(-c3ccccc3F)c2)cn1 (3D coordinates assigned)
CCN(C)Cc1ccc(S(=O)(=O)Nc2ccc(C)c(-c3ccccc3F)c2)cn1 (optimized conformer: 71.44977589458972 kcal/mol)

>  <smiles>  (1) 
CCN(C)Cc1ccc(S(=O)(=O)Nc2ccc(C)c(-c3ccccc3F)c2)cn1

>  <score_type>  (1) 
oracle

>  <origin>  (1) 
adg

>  <m_score__min__energy>  (1) 
-9.8200000000000003

>  <m_primary>  (1) 
energy

$$$$
1:0
     RDKit          3D

 62 65  0  0  0  0  0  0  0  0999 V2000
   64.7620   34.4000   51.6140 C   0  0  0  0  0  0  0  0  0  0  0  0
   63.8760   33.8500   50.5300 C   0  0  0  0  0  0  0  0  0  0  0  0
   62.7280   34.5780   50.1430 C   0  0  0  0  0  0  0  0  0  0  0  0
   61.9200   34.0520   49.1410 C   0  0  0  0  0  0  0  0  0  0  0  0
   60.8080   34.5980   48.6210 N   0  0  0  0  0  0  0  0  0  0  0  0
   60.4220   33.6890   47.6860 C   0  0  0  0  0  0  0  0  0  0  0  0
   59.2400   33.9210   46.7890 C   0  0  0  0  0  0  0  0  0  0  0  0
   58.1550   33.1920   47.2330 F   0  0  0  0  0  0  0  0  0  0  0  0
   59.5530   33.5400   45.4980 F   0  0  0  0  0  0  0  0  0  0  0  0
   58.9000   35.2630   46.7870 F   0  0  0  0  0  0  0  0  0  0  0  0
   61.2520   32.6090   47.6150 N   0  0  0  0  0  0  0  0  0  0  0  0
   61.1280   31.4100   46.7730 C   0  0  0  0  0  0  0  0  0  0  0  0
   60.8970   30.1600   47.6290 C   0  0  0  0  0  0  0  0  0  0  0  0
   59.7670   29.3730   47.0850 N   0  0  0  0  0  0  0  0  0  0  0  0
   59.2330   29.9810   45.8480 C   0  0  0  0  0  0  0  0  0  0  0  0
   57.9460   29.2660   45.3830 C   0  0  0  0  0  0  0  0  0  0  0  0
   57.7000   27.9520   46.1450 C   0  0  0  0  0  0  0  0  0  0  0  0
   56.6570   27.1740   45.4710 N   0  0  0  0  0  0  0  0  0  0  0  0
   55.8900   26.1710   46.1520 C   0  0  0  0  0  0  0  0  0  0  0  0
   56.3950   25.5360   47.1140 O   0  0  0  0  0  0  0  0  0  0  0  0
   54.5460   25.8760   45.7580 N   0  0  0  0  0  0  0  0  0  0  0  0
   54.0030   24.5300   45.5940 C   0  0  0  0  0  0  0  0  0  0  0  0
   55.0180   23.6220   44.9470 C   0  0  0  0  0  0  0  0  0  0  0  0
   56.0280   23.0130   45.7060 C   0  0  0  0  0  0  0  0  0  0  0  0
   56.9670   22.1890   45.0850 C   0  0  0  0  0  0  0  0  0  0  0  0
   56.8860   21.9750   43.7090 C   0  0  0  0  0  0  0  0  0  0  0  0
   55.8980   22.5650   42.9850 N   0  0  0  0  0  0  0  0  0  0  0  0
   54.9710   23.3730   43.5670 C   0  0  0  0  0  0  0  0  0  0  0  0
   59.0000   27.1400   46.2290 C   0  0  0  0  0  0  0  0  0  0  0  0
   60.1530   27.9640   46.8480 C   0  0  0  0  0  0  0  0  0  0  0  0
   62.1980   32.8650   48.5370 C   0  0  0  0  0  0  0  0  0  0  0  0
   63.3270   32.1170   48.8720 C   0  0  0  0  0  0  0  0  0  0  0  0
   64.1780   32.6090   49.8880 C   0  0  0  0  0  0  0  0  0  0  0  0
   65.4020   31.8170   50.2640 C   0  0  0  0  0  0  0  0  0  0  0  0
   64.3430   34.1399   52.5972 H   0  0  0  0  0  0  0  0  0  0  0  0
   65.7692   33.9681   51.5187 H   0  0  0  0  0  0  0  0  0  0  0  0
   64.8218   35.4942   51.5187 H   0  0  0  0  0  0  0  0  0  0  0  0
   62.4800   35.5365   50.6224 H   0  0  0  0  0  0  0  0  0  0  0  0
   60.2778   31.5385   46.0869 H   0  0  0  0  0  0  0  0  0  0  0  0
   62.0627   31.2802   46.2078 H   0  0  0  0  0  0  0  0  0  0  0  0
   61.8069   29.5419   47.6235 H   0  0  0  0  0  0  0  0  0  0  0  0
   60.6596   30.4671   48.6582 H   0  0  0  0  0  0  0  0  0  0  0  0
   59.0058   31.0403   46.0383 H   0  0  0  0  0  0  0  0  0  0  0  0
   59.9908   29.8821   45.0568 H   0  0  0  0  0  0  0  0  0  0  0  0
   57.0896   29.9363   45.5481 H   0  0  0  0  0  0  0  0  0  0  0  0
   58.0640   29.0200   44.3174 H   0  0  0  0  0  0  0  0  0  0  0  0
   57.3653   28.1856   47.1665 H   0  0  0  0  0  0  0  0  0  0  0  0
   56.3800   27.4590   44.5040 H   0  0  0  0  0  0  0  0  0  0  0  0
   53.7343   24.1261   46.5813 H   0  0  0  0  0  0  0  0  0  0  0  0
   53.1135   24.5832   44.9490 H   0  0  0  0  0  0  0  0  0  0  0  0
   56.0798   23.1851   46.7912 H   0  0  0  0  0  0  0  0  0  0  0  0
   57.7638   21.7125   45.6750 H   0  0  0  0  0  0  0  0  0  0  0  0
   57.6222   21.3283   43.2092 H   0  0  0  0  0  0  0  0  0  0  0  0
   54.1820   23.8326   42.9536 H   0  0  0  0  0  0  0  0  0  0  0  0
   58.8244   26.2501   46.8513 H   0  0  0  0  0  0  0  0  0  0  0  0
   59.2926   26.8565   45.2072 H   0  0  0  0  0  0  0  0  0  0  0  0
   60.4388   27.5085   47.8076 H   0  0  0  0  0  0  0  0  0  0  0  0
   60.9924   27.9582   46.1371 H   0  0  0  0  0  0  0  0  0  0  0  0
   63.5491   31.1695   48.3592 H   0  0  0  0  0  0  0  0  0  0  0  0
   65.4826   31.7648   51.3598 H   0  0  0  0  0  0  0  0  0  0  0  0
   65.3209   30.7997   49.8535 H   0  0  0  0  0  0  0  0  0  0  0  0
   66.2967   32.3078   49.8535 H   0  0  0  0  0  0  0  0  0  0  0  0
  1  2  1  0
  2  3  2  0
  3  4  1  0
  4  5  1  0
  5  6  2  0
  6  7  1  0
  7  8  1  0
  7  9  1  0
  7 10  1  0
  6 11  1  0
 11 12  1  0
 12 13  1  0
 13 14  1  0
 14 15  1  0
 15 16  1  0
 16 17  1  0
 17 18  1  0
 18 19  1  0
 19 20  2  0
 19 21  1  0
 21 22  1  0
 22 23  1  0
 23 24  2  0
 24 25  1  0
 25 26  2  0
 26 27  1  0
 27 28  2  0
 17 29  1  0
 29 30  1  0
 11 31  1  0
 31 32  1  0
 32 33  2  0
 33 34  1  0
 33  2  1  0
 31  4  2  0
 30 14  1  0
 28 23  1  0
  1 35  1  0
  1 36  1  0
  1 37  1  0
  3 38  1  0
 12 39  1  0
 12 40  1  0
 13 41  1  0
 13 42  1  0
 15 43  1  0
 15 44  1  0
 16 45  1  0
 16 46  1  0
 17 47  1  0
 18 48  1  0
 22 49  1  0
 22 50  1  0
 24 51  1  0
 25 52  1  0
 26 53  1  0
 28 54  1  0
 29 55  1  0
 29 56  1  0
 30 57  1  0
 30 58  1  0
 32 59  1  0
 34 60  1  0
 34 61  1  0
 34 62  1  0
M  CHG  1  21  -1
M  END
>  <UniqueID>  (2) 
2

>  <SMILES>  (2) 
Cc1cc2nc(C(F)(F)F)n(CCN3CCC(NC(=O)[N-]Cc4cccnc4)CC3)c2cc1C

>  <Energy>  (2) 
101.66006152335613

>  <Genealogy>  (2) 
Cc1cc2nc(C(F)(F)F)n(CCN3CCC(NC(=O)[N-]Cc4cccnc4)CC3)c2cc1C (protonated)
Cc1cc2nc(C(F)(F)F)n(CCN3CCC(NC(=O)[N-]Cc4cccnc4)CC3)c2cc1C (3D coordinates assigned)
Cc1cc2nc(C(F)(F)F)n(CCN3CCC(NC(=O)[N-]Cc4cccnc4)CC3)c2cc1C (nonaromatic ring conformer: 101.66006152335613 kcal/mol)

>  <smiles>  (2) 
Cc1cc2nc(C(F)(F)F)n(CCN3CCC(NC(=O)NCc4cccnc4)CC3)c2cc1C

>  <score_type>  (2) 
oracle

>  <origin>  (2) 
adg

>  <m_score__min__energy>  (2) 
-11.35

>  <m_primary>  (2) 
energy

$$$$
2:0
     RDKit          3D

 47 49  0  0  0  0  0  0  0  0999 V2000
   60.1832   28.4903   43.6400 H   0  0  0  0  0  0  0  0  0  0  0  0
   59.4530   28.2200   44.4170 C   0  0  0  0  0  0  0  0  0  0  0  0
   59.6470   28.6490   45.7330 C   0  0  0  0  0  0  0  0  0  0  0  0
   60.5292   29.2550   45.9870 H   0  0  0  0  0  0  0  0  0  0  0  0
   58.7210   28.3100   46.7320 C   0  0  0  0  0  0  0  0  0  0  0  0
   58.9070   28.8080   48.1360 C   0  0  0  0  0  0  0  0  0  0  0  0
   59.8785   28.4657   48.5221 H   0  0  0  0  0  0  0  0  0  0  0  0
   58.1030   28.4164   48.7765 H   0  0  0  0  0  0  0  0  0  0  0  0
   58.8680   30.2660   48.1370 N   0  0  0  0  0  0  0  0  0  0  0  0
   59.8780   31.0290   47.8400 C   0  0  0  0  0  0  0  0  0  0  0  0
   61.1790   30.6510   47.9630 N   0  0  0  0  0  0  0  0  0  0  0  0
   61.5690   29.7440   48.3050 H   0  0  0  0  0  0  0  0  0  0  0  0
   61.8650   31.7170   47.5150 C   0  0  0  0  0  0  0  0  0  0  0  0
   63.2460   31.8600   47.3950 C   0  0  0  0  0  0  0  0  0  0  0  0
   63.9313   31.0569   47.7038 H   0  0  0  0  0  0  0  0  0  0  0  0
   63.7320   33.0700   46.8640 C   0  0  0  0  0  0  0  0  0  0  0  0
   64.8161   33.2234   46.7581 H   0  0  0  0  0  0  0  0  0  0  0  0
   62.8370   34.0890   46.4660 C   0  0  0  0  0  0  0  0  0  0  0  0
   63.2298   35.0284   46.0499 H   0  0  0  0  0  0  0  0  0  0  0  0
   61.4470   33.9110   46.5980 C   0  0  0  0  0  0  0  0  0  0  0  0
   60.7404   34.6948   46.2876 H   0  0  0  0  0  0  0  0  0  0  0  0
   60.9970   32.7040   47.1370 C   0  0  0  0  0  0  0  0  0  0  0  0
   59.7340   32.2870   47.3500 N   0  0  0  0  0  0  0  0  0  0  0  0
   58.4880   32.9800   47.0150 C   0  0  0  0  0  0  0  0  0  0  0  0
   58.6495   34.0666   47.0718 H   0  0  0  0  0  0  0  0  0  0  0  0
   57.7063   32.6797   47.7283 H   0  0  0  0  0  0  0  0  0  0  0  0
   58.0430   32.6080   45.5990 C   0  0  0  0  0  0  0  0  0  0  0  0
   58.9183   32.6021   44.9328 H   0  0  0  0  0  0  0  0  0  0  0  0
   57.3086   33.3477   45.2475 H   0  0  0  0  0  0  0  0  0  0  0  0
   57.4210   31.2750   45.5960 N   0  0  0  0  0  0  0  0  0  0  0  0
   57.9920   30.6270   46.1890 H   0  0  0  0  0  0  0  0  0  0  0  0
   57.2860   30.7160   44.2400 C   0  0  0  0  0  0  0  0  0  0  0  0
   58.0470   29.9337   44.1025 H   0  0  0  0  0  0  0  0  0  0  0  0
   57.4210   31.5384   43.5221 H   0  0  0  0  0  0  0  0  0  0  0  0
   55.9020   30.1050   43.9980 C   0  0  0  0  0  0  0  0  0  0  0  0
   55.4209   29.8926   44.9642 H   0  0  0  0  0  0  0  0  0  0  0  0
   55.2830   30.8135   43.4280 H   0  0  0  0  0  0  0  0  0  0  0  0
   56.0084   29.1702   43.4280 H   0  0  0  0  0  0  0  0  0  0  0  0
   57.5810   27.5660   46.3900 C   0  0  0  0  0  0  0  0  0  0  0  0
   56.8365   27.3189   47.1611 H   0  0  0  0  0  0  0  0  0  0  0  0
   57.3880   27.1380   45.0740 C   0  0  0  0  0  0  0  0  0  0  0  0
   56.4914   26.5561   44.8142 H   0  0  0  0  0  0  0  0  0  0  0  0
   58.3310   27.4460   44.0820 C   0  0  0  0  0  0  0  0  0  0  0  0
   58.1030   27.0220   42.6620 C   0  0  0  0  0  0  0  0  0  0  0  0
   57.5821   26.0533   42.6477 H   0  0  0  0  0  0  0  0  0  0  0  0
   57.4888   27.7762   42.1483 H   0  0  0  0  0  0  0  0  0  0  0  0
   59.0709   26.9255   42.1483 H   0  0  0  0  0  0  0  0  0  0  0  0
  1  2  1  0
  2  3  2  0
  3  4  1  0
  3  5  1  0
  5  6  1  0
  6  7  1  0
  6  8  1  0
  6  9  1  0
  9 10  2  0
 10 11  1  0
 11 12  1  0
 11 13  1  0
 13 14  2  0
 14 15  1  0
 14 16  1  0
 16 17  1  0
 16 18  2  0
 18 19  1  0
 18 20  1  0
 20 21  1  0
 20 22  2  0
 22 23  1  0
 23 24  1  0
 24 25  1  0
 24 26  1  0
 24 27  1  0
 27 28  1  0
 27 29  1  0
 27 30  1  0
 30 31  1  0
 30 32  1  0
 32 33  1  0
 32 34  1  0
 32 35  1  0
 35 36  1  0
 35 37  1  0
 35 38  1  0
  5 39  2  0
 39 40  1  0
 39 41  1  0
 41 42  1  0
 41 43  2  0
 43 44  1  0
 44 45  1  0
 44 46  1  0
 44 47  1  0
 43  2  1  0
 23 10  1  0
 22 13  1  0
M  END
>  <UniqueID>  (3) 
3

>  <SMILES>  (3) 
CCNCCn1/c(=N/Cc2ccc(C)cc2)[nH]c2ccccc21

>  <Energy>  (3) 
82.09227951121301

>  <Genealogy>  (3) 
CCNCCn1/c(=N/Cc2ccc(C)cc2)[nH]c2ccccc21 (cis-trans isomerization)
CCNCCn1/c(=N/Cc2ccc(C)cc2)[nH]c2ccccc21 (3D coordinates assigned)
CCNCCn1/c(=N/Cc2ccc(C)cc2)[nH]c2ccccc21 (optimized conformer: 82.09227951121301 kcal/mol)

>  <smiles>  (3) 
CCNCCn1c(=NCc2ccc(C)cc2)[nH]c2ccccc21

>  <score_type>  (3) 
oracle

>  <origin>  (3) 
adg

>  <m_score__min__energy>  (3) 
-6.8899999999999997

>  <m_primary>  (3) 
energy

$$$$
3:0
     RDKit          3D

 74 76  0  0  0  0  0  0  0  0999 V2000
   59.6190   35.2720   46.0580 C   0  0  0  0  0  0  0  0  0  0  0  0
   60.4910   34.0240   46.2630 C   0  0  0  0  0  0  0  0  0  0  0  0
   60.7740   33.7050   47.6820 N   0  0  0  0  0  0  0  0  0  0  0  0
   59.6810   34.1320   48.5830 C   0  0  0  0  0  0  0  0  0  0  0  0
   58.9420   32.9150   49.1300 C   0  0  0  0  0  0  0  0  0  0  0  0
   62.1040   34.1600   48.1530 C   0  0  0  0  0  0  0  0  0  0  0  0
   63.2140   33.7810   47.1620 C   0  0  0  0  0  0  0  0  0  0  0  0
   63.4780   32.3310   47.1680 N   0  0  0  0  0  0  0  0  0  0  0  0
   63.2140   31.7860   48.4900 C   0  0  0  0  0  0  0  0  0  0  0  0
   64.1040   32.0490   49.5680 C   0  0  0  0  0  0  0  0  0  0  0  0
   65.2800   32.8250   49.4040 C   0  0  0  0  0  0  0  0  0  0  0  0
   66.1400   33.0690   50.4730 C   0  0  0  0  0  0  0  0  0  0  0  0
   65.8650   32.5370   51.7230 C   0  0  0  0  0  0  0  0  0  0  0  0
   64.7070   31.7910   51.9220 C   0  0  0  0  0  0  0  0  0  0  0  0
   63.7900   31.5620   50.8640 C   0  0  0  0  0  0  0  0  0  0  0  0
   62.6010   30.9050   51.0920 N   0  0  0  0  0  0  0  0  0  0  0  0
   62.0410   30.9110   52.4610 C   0  0  0  0  0  0  0  0  0  0  0  0
   61.8460   30.4430   50.0310 C   0  0  0  0  0  0  0  0  0  0  0  0
   60.8350   29.4390   50.1880 C   0  0  0  0  0  0  0  0  0  0  0  0
   60.8040   28.4640   51.3420 C   0  0  0  0  0  0  0  0  0  0  0  0
   59.8940   29.2400   49.1740 C   0  0  0  0  0  0  0  0  0  0  0  0
   60.0100   29.8930   47.9570 C   0  0  0  0  0  0  0  0  0  0  0  0
   59.0550   29.6560   46.9650 O   0  0  0  0  0  0  0  0  0  0  0  0
   59.3200   29.8440   45.5760 C   0  0  0  0  0  0  0  0  0  0  0  0
   58.0620   29.5750   44.7430 C   0  0  0  0  0  0  0  0  0  0  0  0
   57.0670   30.6550   44.9410 N   0  0  0  0  0  0  0  0  0  0  0  0
   57.6790   31.9800   44.6850 C   0  0  0  0  0  0  0  0  0  0  0  0
   57.0610   33.0380   45.5920 C   0  0  0  0  0  0  0  0  0  0  0  0
   55.8800   30.4480   44.0830 C   0  0  0  0  0  0  0  0  0  0  0  0
   56.2690   29.7330   42.7940 C   0  0  0  0  0  0  0  0  0  0  0  0
   61.0870   30.7520   47.7310 C   0  0  0  0  0  0  0  0  0  0  0  0
   62.0530   30.9950   48.7350 C   0  0  0  0  0  0  0  0  0  0  0  0
   59.3316   35.6833   47.0369 H   0  0  0  0  0  0  0  0  0  0  0  0
   60.1867   36.0276   45.4952 H   0  0  0  0  0  0  0  0  0  0  0  0
   58.7143   34.9987   45.4952 H   0  0  0  0  0  0  0  0  0  0  0  0
   59.9732   33.1641   45.8131 H   0  0  0  0  0  0  0  0  0  0  0  0
   61.4604   34.2352   45.7880 H   0  0  0  0  0  0  0  0  0  0  0  0
   60.1041   34.7065   49.4202 H   0  0  0  0  0  0  0  0  0  0  0  0
   58.9737   34.7566   48.0176 H   0  0  0  0  0  0  0  0  0  0  0  0
   58.9574   32.9404   50.2296 H   0  0  0  0  0  0  0  0  0  0  0  0
   57.9001   32.9296   48.7774 H   0  0  0  0  0  0  0  0  0  0  0  0
   59.4355   31.9973   48.7774 H   0  0  0  0  0  0  0  0  0  0  0  0
   62.0868   35.2538   48.2688 H   0  0  0  0  0  0  0  0  0  0  0  0
   62.3165   33.6669   49.1131 H   0  0  0  0  0  0  0  0  0  0  0  0
   62.9069   34.0833   46.1499 H   0  0  0  0  0  0  0  0  0  0  0  0
   64.1360   34.2988   47.4652 H   0  0  0  0  0  0  0  0  0  0  0  0
   64.4530   32.1230   46.8630 H   0  0  0  0  0  0  0  0  0  0  0  0
   62.9150   31.8570   46.4310 H   0  0  0  0  0  0  0  0  0  0  0  0
   65.5176   33.2421   48.4143 H   0  0  0  0  0  0  0  0  0  0  0  0
   67.0391   33.6852   50.3245 H   0  0  0  0  0  0  0  0  0  0  0  0
   66.5618   32.7044   52.5575 H   0  0  0  0  0  0  0  0  0  0  0  0
   64.4991   31.3715   52.9174 H   0  0  0  0  0  0  0  0  0  0  0  0
   62.8620   30.9022   53.1930 H   0  0  0  0  0  0  0  0  0  0  0  0
   61.4319   31.8157   52.6040 H   0  0  0  0  0  0  0  0  0  0  0  0
   61.4126   30.0195   52.6040 H   0  0  0  0  0  0  0  0  0  0  0  0
   60.8216   29.0190   52.2915 H   0  0  0  0  0  0  0  0  0  0  0  0
   59.8862   27.8601   51.2873 H   0  0  0  0  0  0  0  0  0  0  0  0
   61.6816   27.8031   51.2873 H   0  0  0  0  0  0  0  0  0  0  0  0
   59.0497   28.5557   49.3441 H   0  0  0  0  0  0  0  0  0  0  0  0
   59.6494   30.8800   45.4083 H   0  0  0  0  0  0  0  0  0  0  0  0
   60.1058   29.1389   45.2674 H   0  0  0  0  0  0  0  0  0  0  0  0
   58.3362   29.5262   43.6788 H   0  0  0  0  0  0  0  0  0  0  0  0
   57.6197   28.6207   45.0651 H   0  0  0  0  0  0  0  0  0  0  0  0
   58.7601   31.9230   44.8797 H   0  0  0  0  0  0  0  0  0  0  0  0
   57.4966   32.2595   43.6369 H   0  0  0  0  0  0  0  0  0  0  0  0
   57.2236   32.7597   46.6437 H   0  0  0  0  0  0  0  0  0  0  0  0
   57.5323   34.0119   45.3934 H   0  0  0  0  0  0  0  0  0  0  0  0
   55.9812   33.1059   45.3934 H   0  0  0  0  0  0  0  0  0  0  0  0
   55.1428   29.8386   44.6263 H   0  0  0  0  0  0  0  0  0  0  0  0
   55.4499   31.4282   43.8294 H   0  0  0  0  0  0  0  0  0  0  0  0
   56.7816   28.7908   43.0377 H   0  0  0  0  0  0  0  0  0  0  0  0
   55.3641   29.5169   42.2071 H   0  0  0  0  0  0  0  0  0  0  0  0
   56.9420   30.3754   42.2071 H   0  0  0  0  0  0  0  0  0  0  0  0
   61.1861   31.2487   46.7546 H   0  0  0  0  0  0  0  0  0  0  0  0
  1  2  1  0
  2  3  1  0
  3  4  1  0
  4  5  1  0
  3  6  1  0
  6  7  1  0
  7  8  1  0
  8  9  1  0
  9 10  2  0
 10 11  1  0
 11 12  2  0
 12 13  1  0
 13 14  2  0
 14 15  1  0
 15 16  2  0
 16 17  1  0
 16 18  1  0
 18 19  2  0
 19 20  1  0
 19 21  1  0
 21 22  2  0
 22 23  1  0
 23 24  1  0
 24 25  1  0
 25 26  1  0
 26 27  1  0
 27 28  1  0
 26 29  1  0
 29 30  1  0
 22 31  1  0
 31 32  2  0
 32  9  1  0
 15 10  1  0
 32 18  1  0
  1 33  1  0
  1 34  1  0
  1 35  1  0
  2 36  1  0
  2 37  1  0
  4 38  1  0
  4 39  1  0
  5 40  1  0
  5 41  1  0
  5 42  1  0
  6 43  1  0
  6 44  1  0
  7 45  1  0
  7 46  1  0
  8 47  1  0
  8 48  1  0
 11 49  1  0
 12 50  1  0
 13 51  1  0
 14 52  1  0
 17 53  1  0
 17 54  1  0
 17 55  1  0
 20 56  1  0
 20 57  1  0
 20 58  1  0
 21 59  1  0
 24 60  1  0
 24 61  1  0
 25 62  1  0
 25 63  1  0
 27 64  1  0
 27 65  1  0
 28 66  1  0
 28 67  1  0
 28 68  1  0
 29 69  1  0
 29 70  1  0
 30 71  1  0
 30 72  1  0
 30 73  1  0
 31 74  1  0
M  CHG  2   8   1  16   1
M  END
>  <UniqueID>  (4) 
4

>  <SMILES>  (4) 
CCN(CC)CC[NH2+]c1c2ccccc2[n+](C)c2c(C)cc(OCCN(CC)CC)cc12

>  <Energy>  (4) 
113.41319281492011

>  <Genealogy>  (4) 
CCN(CC)CC[NH2+]c1c2ccccc2[n+](C)c2c(C)cc(OCCN(CC)CC)cc12 (protonated)
CCN(CC)CC[NH2+]c1c2ccccc2[n+](C)c2c(C)cc(OCCN(CC)CC)cc12 (3D coordinates assigned)
CCN(CC)CC[NH2+]c1c2ccccc2[n+](C)c2c(C)cc(OCCN(CC)CC)cc12 (optimized conformer: 113.41319281492011 kcal/mol)

>  <smiles>  (4) 
CCN(CC)CCNc1c2ccccc2[n+](C)c2c(C)cc(OCCN(CC)CC)cc12

>  <score_type>  (4) 
oracle

>  <origin>  (4) 
adg

>  <m_score__min__energy>  (4) 
-5.7199999999999998

>  <m_primary>  (4) 
energy

$$$$
4:0
     RDKit          3D

 49 51  0  0  0  0  0  0  0  0999 V2000
   56.5590   30.4750   42.8840 C   0  0  0  0  0  0  0  0  0  0  0  0
   55.7030   29.8040   43.9540 C   0  0  0  0  0  0  0  0  0  0  0  0
   56.5020   29.5340   45.1590 N   0  0  0  0  0  0  0  0  0  0  0  0
   56.8750   28.1170   45.2620 C   0  0  0  0  0  0  0  0  0  0  0  0
   58.3450   27.9070   44.8590 C   0  0  0  0  0  0  0  0  0  0  0  0
   59.0080   29.1480   44.4130 N   0  0  0  0  0  0  0  0  0  0  0  0
   60.0530   29.5920   45.3560 C   0  0  0  0  0  0  0  0  0  0  0  0
   59.4440   30.3560   46.5580 C   0  0  0  0  0  0  0  0  0  0  0  0
   59.1490   31.8680   46.3210 C   0  0  2  0  0  0  0  0  0  0  0  0
   60.4600   32.7090   46.3760 C   0  0  0  0  0  0  0  0  0  0  0  0
   60.1550   34.1950   46.0810 C   0  0  1  0  0  0  0  0  0  0  0  0
   59.5420   34.3250   44.6710 C   0  0  0  0  0  0  0  0  0  0  0  0
   58.2320   33.5140   44.6040 C   0  0  2  0  0  0  0  0  0  0  0  0
   57.2340   34.0540   45.6500 C   0  0  0  0  0  0  0  0  0  0  0  0
   57.8440   33.9230   47.0610 C   0  0  2  0  0  0  0  0  0  0  0  0
   59.1560   34.7330   47.1300 C   0  0  0  0  0  0  0  0  0  0  0  0
   58.1360   32.4360   47.3590 C   0  0  0  0  0  0  0  0  0  0  0  0
   58.5310   32.0300   44.9000 C   0  0  0  0  0  0  0  0  0  0  0  0
   57.3371   31.0850   43.3662 H   0  0  0  0  0  0  0  0  0  0  0  0
   57.0326   29.7050   42.2572 H   0  0  0  0  0  0  0  0  0  0  0  0
   55.9244   31.1188   42.2572 H   0  0  0  0  0  0  0  0  0  0  0  0
   54.8656   30.4674   44.2161 H   0  0  0  0  0  0  0  0  0  0  0  0
   55.3224   28.8506   43.5587 H   0  0  0  0  0  0  0  0  0  0  0  0
   55.8920   29.7550   45.9820 H   0  0  0  0  0  0  0  0  0  0  0  0
   56.7345   27.7819   46.3003 H   0  0  0  0  0  0  0  0  0  0  0  0
   56.2367   27.5345   44.5813 H   0  0  0  0  0  0  0  0  0  0  0  0
   58.8923   27.5106   45.7269 H   0  0  0  0  0  0  0  0  0  0  0  0
   58.3548   27.2076   44.0101 H   0  0  0  0  0  0  0  0  0  0  0  0
   59.4680   28.9530   43.4900 H   0  0  0  0  0  0  0  0  0  0  0  0
   58.3070   29.9040   44.2540 H   0  0  0  0  0  0  0  0  0  0  0  0
   60.5951   28.7109   45.7298 H   0  0  0  0  0  0  0  0  0  0  0  0
   60.7332   30.2725   44.8228 H   0  0  0  0  0  0  0  0  0  0  0  0
   58.4966   29.8650   46.8251 H   0  0  0  0  0  0  0  0  0  0  0  0
   60.2051   30.3207   47.3514 H   0  0  0  0  0  0  0  0  0  0  0  0
   60.9057   32.6217   47.3779 H   0  0  0  0  0  0  0  0  0  0  0  0
   61.1612   32.3297   45.6181 H   0  0  0  0  0  0  0  0  0  0  0  0
   61.0868   34.7775   46.1295 H   0  0  0  0  0  0  0  0  0  0  0  0
   59.3294   35.3834   44.4596 H   0  0  0  0  0  0  0  0  0  0  0  0
   60.2518   33.9379   43.9251 H   0  0  0  0  0  0  0  0  0  0  0  0
   57.7954   33.6090   43.5988 H   0  0  0  0  0  0  0  0  0  0  0  0
   57.0202   35.1124   45.4401 H   0  0  0  0  0  0  0  0  0  0  0  0
   56.3010   33.4735   45.5994 H   0  0  0  0  0  0  0  0  0  0  0  0
   57.1349   34.3119   47.8066 H   0  0  0  0  0  0  0  0  0  0  0  0
   58.9433   35.7922   46.9230 H   0  0  0  0  0  0  0  0  0  0  0  0
   59.5933   34.6339   48.1345 H   0  0  0  0  0  0  0  0  0  0  0  0
   58.5614   32.3447   48.3693 H   0  0  0  0  0  0  0  0  0  0  0  0
   57.1975   31.8659   47.2936 H   0  0  0  0  0  0  0  0  0  0  0  0
   57.5950   31.4547   44.8451 H   0  0  0  0  0  0  0  0  0  0  0  0
   59.2505   31.6579   44.1558 H   0  0  0  0  0  0  0  0  0  0  0  0
  1  2  1  0
  2  3  1  0
  3  4  1  0
  4  5  1  0
  5  6  1  0
  6  7  1  0
  7  8  1  0
  9  8  1  1
  9 10  1  0
 10 11  1  0
 11 12  1  0
 12 13  1  0
 13 14  1  0
 14 15  1  0
 15 16  1  0
 15 17  1  0
 13 18  1  0
 17  9  1  0
 18  9  1  0
 16 11  1  0
  1 19  1  0
  1 20  1  0
  1 21  1  0
  2 22  1  0
  2 23  1  0
  3 24  1  0
  4 25  1  0
  4 26  1  0
  5 27  1  0
  5 28  1  0
  6 29  1  0
  6 30  1  0
  7 31  1  0
  7 32  1  0
  8 33  1  0
  8 34  1  0
 10 35  1  0
 10 36  1  0
 11 37  1  6
 12 38  1  0
 12 39  1  0
 13 40  1  6
 14 41  1  0
 14 42  1  0
 15 43  1  1
 16 44  1  0
 16 45  1  0
 17 46  1  0
 17 47  1  0
 18 48  1  0
 18 49  1  0
M  CHG  1   6   1
M  END
>  <UniqueID>  (5) 
5

>  <SMILES>  (5) 
CCNCC[NH2+]CCC12CC3CC(CC(C3)C1)C2

>  <Energy>  (5) 
43.738857053510436

>  <Genealogy>  (5) 
CCNCC[NH2+]CCC12CC3CC(CC(C3)C1)C2 (protonated)
CCNCC[NH2+]CCC12CC3CC(CC(C3)C1)C2 (3D coordinates assigned)
CCNCC[NH2+]CCC12CC3CC(CC(C3)C1)C2 (nonaromatic ring conformer: 43.738857053510436 kcal/mol)

>  <smiles>  (5) 
CCNCCNCCC12CC3CC(CC(C3)C1)C2

>  <score_type>  (5) 
oracle

>  <origin>  (5) 
adg

>  <m_score__min__energy>  (5) 
-5.5999999999999996

>  <m_primary>  (5) 
energy

$$$$
5:0
     RDKit          3D

 52 55  0  0  0  0  0  0  0  0999 V2000
   64.2250   32.5130   49.2960 C   0  0  0  0  0  0  0  0  0  0  0  0
   62.9780   33.0420   48.6590 C   0  0  0  0  0  0  0  0  0  0  0  0
   62.7350   33.0510   47.2880 C   0  0  0  0  0  0  0  0  0  0  0  0
   61.4950   33.6350   47.1480 C   0  0  0  0  0  0  0  0  0  0  0  0
   60.7590   33.9120   46.0000 C   0  0  0  0  0  0  0  0  0  0  0  0
   59.5010   34.5340   46.1500 C   0  0  0  0  0  0  0  0  0  0  0  0
   58.6570   34.7930   44.9330 C   0  0  0  0  0  0  0  0  0  0  0  0
   57.8240   33.6070   44.6520 N   0  0  0  0  0  0  0  0  0  0  0  0
   58.3420   32.8440   43.4880 C   0  0  0  0  0  0  0  0  0  0  0  0
   57.2950   31.9160   42.8320 C   0  0  0  0  0  0  0  0  0  0  0  0
   57.2110   30.5050   43.4480 C   0  0  0  0  0  0  0  0  0  0  0  0
   57.0790   30.5090   44.9210 N   0  0  0  0  0  0  0  0  0  0  0  0
   57.0220   29.1370   45.4570 C   0  0  0  0  0  0  0  0  0  0  0  0
   58.3920   28.7180   45.9040 C   0  0  0  0  0  0  0  0  0  0  0  0
   59.4510   28.4540   45.0220 C   0  0  0  0  0  0  0  0  0  0  0  0
   60.6360   28.1240   45.6630 C   0  0  0  0  0  0  0  0  0  0  0  0
   60.3640   28.1680   47.3210 S   0  0  0  0  0  0  0  0  0  0  0  0
   58.7430   28.5990   47.2450 C   0  0  0  0  0  0  0  0  0  0  0  0
   58.1210   31.3260   45.5880 C   0  0  0  0  0  0  0  0  0  0  0  0
   57.6060   32.7600   45.8480 C   0  0  0  0  0  0  0  0  0  0  0  0
   59.0240   34.8580   47.4450 C   0  0  0  0  0  0  0  0  0  0  0  0
   59.7970   34.5700   48.5850 C   0  0  0  0  0  0  0  0  0  0  0  0
   61.0340   33.9470   48.4000 C   0  0  0  0  0  0  0  0  0  0  0  0
   61.9280   33.5750   49.3390 N   0  0  0  0  0  0  0  0  0  0  0  0
   61.8250   33.7960   50.7820 C   0  0  0  0  0  0  0  0  0  0  0  0
   64.1242   32.5558   50.3905 H   0  0  0  0  0  0  0  0  0  0  0  0
   64.3829   31.4704   48.9828 H   0  0  0  0  0  0  0  0  0  0  0  0
   65.0844   33.1241   48.9828 H   0  0  0  0  0  0  0  0  0  0  0  0
   63.3909   32.6736   46.4897 H   0  0  0  0  0  0  0  0  0  0  0  0
   61.1468   33.6535   45.0036 H   0  0  0  0  0  0  0  0  0  0  0  0
   58.0081   35.6624   45.1147 H   0  0  0  0  0  0  0  0  0  0  0  0
   59.3088   34.9967   44.0706 H   0  0  0  0  0  0  0  0  0  0  0  0
   58.6914   33.5617   42.7311 H   0  0  0  0  0  0  0  0  0  0  0  0
   59.1503   32.1989   43.8630 H   0  0  0  0  0  0  0  0  0  0  0  0
   56.3076   32.3913   42.9277 H   0  0  0  0  0  0  0  0  0  0  0  0
   57.6100   31.7811   41.7867 H   0  0  0  0  0  0  0  0  0  0  0  0
   56.3368   29.9910   43.0219 H   0  0  0  0  0  0  0  0  0  0  0  0
   58.1547   29.9924   43.2101 H   0  0  0  0  0  0  0  0  0  0  0  0
   56.3315   29.1059   46.3127 H   0  0  0  0  0  0  0  0  0  0  0  0
   56.6659   28.4516   44.6738 H   0  0  0  0  0  0  0  0  0  0  0  0
   59.3510   28.5039   43.9277 H   0  0  0  0  0  0  0  0  0  0  0  0
   61.5885   27.8765   45.1715 H   0  0  0  0  0  0  0  0  0  0  0  0
   58.0756   28.7592   48.1046 H   0  0  0  0  0  0  0  0  0  0  0  0
   58.3876   30.8584   46.5473 H   0  0  0  0  0  0  0  0  0  0  0  0
   59.0025   31.3798   44.9322 H   0  0  0  0  0  0  0  0  0  0  0  0
   56.5306   32.7239   46.0765 H   0  0  0  0  0  0  0  0  0  0  0  0
   58.1564   33.1904   46.6976 H   0  0  0  0  0  0  0  0  0  0  0  0
   58.0412   35.3386   47.5597 H   0  0  0  0  0  0  0  0  0  0  0  0
   59.4380   34.8278   49.5923 H   0  0  0  0  0  0  0  0  0  0  0  0
   62.2312   32.9245   51.3163 H   0  0  0  0  0  0  0  0  0  0  0  0
   62.3973   34.6942   51.0572 H   0  0  0  0  0  0  0  0  0  0  0  0
   60.7691   33.9354   51.0572 H   0  0  0  0  0  0  0  0  0  0  0  0
  1  2  1  0
  2  3  2  0
  3  4  1  0
  4  5  2  0
  5  6  1  0
  6  7  1  0
  7  8  1  0
  8  9  1  0
  9 10  1  0
 10 11  1  0
 11 12  1  0
 12 13  1  0
 13 14  1  0
 14 15  1  0
 15 16  2  0
 16 17  1  0
 17 18  1  0
 12 19  1  0
 19 20  1  0
  6 21  2  0
 21 22  1  0
 22 23  2  0
 23 24  1  0
 24 25  1  0
 24  2  1  0
 23  4  1  0
 20  8  1  0
 18 14  2  0
  1 26  1  0
  1 27  1  0
  1 28  1  0
  3 29  1  0
  5 30  1  0
  7 31  1  0
  7 32  1  0
  9 33  1  0
  9 34  1  0
 10 35  1  0
 10 36  1  0
 11 37  1  0
 11 38  1  0
 13 39  1  0
 13 40  1  0
 15 41  1  0
 16 42  1  0
 18 43  1  0
 19 44  1  0
 19 45  1  0
 20 46  1  0
 20 47  1  0
 21 48  1  0
 22 49  1  0
 25 50  1  0
 25 51  1  0
 25 52  1  0
M  END
>  <UniqueID>  (6) 
6

>  <SMILES>  (6) 
Cc1cc2cc(CN3CCCN(Cc4ccsc4)CC3)ccc2n1C

>  <Energy>  (6) 
123.97609373190039

>  <Genealogy>  (6) 
Cc1cc2cc(CN3CCCN(Cc4ccsc4)CC3)ccc2n1C (3D coordinates assigned)
Cc1cc2cc(CN3CCCN(Cc4ccsc4)CC3)ccc2n1C (nonaromatic ring conformer: 123.97609373190039 kcal/mol)

>  <smiles>  (6) 
Cc1cc2cc(CN3CCCN(Cc4ccsc4)CC3)ccc2n1C

>  <score_type>  (6) 
oracle

>  <origin>  (6) 
adg

>  <m_score__min__energy>  (6) 
-6.8399999999999999

>  <m_primary>  (6) 
energy

$$$$
6:0
     RDKit          3D

 44 47  0  0  0  0  0  0  0  0999 V2000
   58.8890   29.6100   48.0350 C   0  0  0  0  0  0  0  0  0  0  0  0
   58.5740   29.3760   46.5750 C   0  0  0  0  0  0  0  0  0  0  0  0
   58.3560   30.4740   45.7200 C   0  0  0  0  0  0  0  0  0  0  0  0
   58.4840   31.8540   45.8580 C   0  0  0  0  0  0  0  0  0  0  0  0
   58.9720   32.6080   46.8810 N   0  0  0  0  0  0  0  0  0  0  0  0
   59.0520   33.9680   46.7460 C   0  0  0  0  0  0  0  0  0  0  0  0
   59.5420   34.7160   47.8300 O   0  0  0  0  0  0  0  0  0  0  0  0
   60.4080   34.2190   48.8510 C   0  0  0  0  0  0  0  0  0  0  0  0
   61.4810   33.3490   48.2600 C   0  0  0  0  0  0  0  0  0  0  0  0
   62.6690   33.9100   47.7670 C   0  0  0  0  0  0  0  0  0  0  0  0
   63.6390   33.0760   47.2080 C   0  0  0  0  0  0  0  0  0  0  0  0
   63.4150   31.6990   47.1380 C   0  0  0  0  0  0  0  0  0  0  0  0
   62.2150   31.1770   47.6260 C   0  0  0  0  0  0  0  0  0  0  0  0
   61.2820   32.0050   48.1670 N   0  0  0  0  0  0  0  0  0  0  0  0
   58.6530   34.5790   45.5270 C   0  0  0  0  0  0  0  0  0  0  0  0
   58.1870   33.7920   44.4640 C   0  0  0  0  0  0  0  0  0  0  0  0
   58.1100   32.4140   44.6590 C   0  0  0  0  0  0  0  0  0  0  0  0
   57.7430   31.4620   43.7710 N   0  0  0  0  0  0  0  0  0  0  0  0
   57.3750   31.6530   42.3670 C   0  0  0  0  0  0  0  0  0  0  0  0
   57.9260   30.2850   44.4210 C   0  0  0  0  0  0  0  0  0  0  0  0
   57.7530   29.0080   43.9070 C   0  0  0  0  0  0  0  0  0  0  0  0
   58.0340   27.9160   44.7380 C   0  0  0  0  0  0  0  0  0  0  0  0
   57.8790   26.7550   44.2680 O   0  0  0  0  0  0  0  0  0  0  0  0
   58.4670   28.1000   46.0400 N   0  0  0  0  0  0  0  0  0  0  0  0
   58.7910   26.9190   46.8620 C   0  0  0  0  0  0  0  0  0  0  0  0
   58.1614   29.0695   48.6583 H   0  0  0  0  0  0  0  0  0  0  0  0
   59.9030   29.2444   48.2545 H   0  0  0  0  0  0  0  0  0  0  0  0
   58.8318   30.6864   48.2545 H   0  0  0  0  0  0  0  0  0  0  0  0
   59.3170   32.1780   47.7640 H   0  0  0  0  0  0  0  0  0  0  0  0
   60.8767   35.0672   49.3714 H   0  0  0  0  0  0  0  0  0  0  0  0
   59.8149   33.6189   49.5567 H   0  0  0  0  0  0  0  0  0  0  0  0
   62.8343   34.9962   47.8205 H   0  0  0  0  0  0  0  0  0  0  0  0
   64.5774   33.5022   46.8236 H   0  0  0  0  0  0  0  0  0  0  0  0
   64.1752   31.0332   46.7034 H   0  0  0  0  0  0  0  0  0  0  0  0
   62.0245   30.0949   47.5726 H   0  0  0  0  0  0  0  0  0  0  0  0
   58.7097   35.6720   45.4168 H   0  0  0  0  0  0  0  0  0  0  0  0
   57.8918   34.2474   43.5072 H   0  0  0  0  0  0  0  0  0  0  0  0
   56.4000   32.1590   42.3091 H   0  0  0  0  0  0  0  0  0  0  0  0
   58.1380   32.2689   41.8685 H   0  0  0  0  0  0  0  0  0  0  0  0
   57.3105   30.6746   41.8685 H   0  0  0  0  0  0  0  0  0  0  0  0
   57.4045   28.8571   42.8746 H   0  0  0  0  0  0  0  0  0  0  0  0
   58.7186   27.1828   47.9274 H   0  0  0  0  0  0  0  0  0  0  0  0
   58.0819   26.1091   46.6358 H   0  0  0  0  0  0  0  0  0  0  0  0
   59.8141   26.5843   46.6358 H   0  0  0  0  0  0  0  0  0  0  0  0
  1  2  1  0
  2  3  2  0
  3  4  1  0
  4  5  2  0
  5  6  1  0
  6  7  1  0
  7  8  1  0
  8  9  1  0
  9 10  2  0
 10 11  1  0
 11 12  2  0
 12 13  1  0
 13 14  2  0
  6 15  2  0
 15 16  1  0
 16 17  2  0
 17 18  1  0
 18 19  1  0
 18 20  1  0
 20 21  2  0
 21 22  1  0
 22 23  2  0
 22 24  1  0
 24 25  1  0
 24  2  1  0
 20  3  1  0
 17  4  1  0
 14  9  1  0
  1 26  1  0
  1 27  1  0
  1 28  1  0
  5 29  1  0
  8 30  1  0
  8 31  1  0
 10 32  1  0
 11 33  1  0
 12 34  1  0
 13 35  1  0
 15 36  1  0
 16 37  1  0
 19 38  1  0
 19 39  1  0
 19 40  1  0
 21 41  1  0
 25 42  1  0
 25 43  1  0
 25 44  1  0
M  CHG  1   5   1
M  END
>  <UniqueID>  (7) 
7

>  <SMILES>  (7) 
Cc1c2c3[nH+]c(OCc4ccccn4)ccc3n(C)c2cc(=O)n1C

>  <Energy>  (7) 
101.54383536964652

>  <Genealogy>  (7) 
Cc1c2c3[nH+]c(OCc4ccccn4)ccc3n(C)c2cc(=O)n1C (protonated)
Cc1c2c3[nH+]c(OCc4ccccn4)ccc3n(C)c2cc(=O)n1C (3D coordinates assigned)
Cc1c2c3[nH+]c(OCc4ccccn4)ccc3n(C)c2cc(=O)n1C (optimized conformer: 101.54383536964652 kcal/mol)

>  <smiles>  (7) 
Cc1c2c3nc(OCc4ccccn4)ccc3n(C)c2cc(=O)n1C

>  <score_type>  (7) 
oracle

>  <origin>  (7) 
adg

>  <m_score__min__energy>  (7) 
-5.8499999999999996

>  <m_primary>  (7) 
energy

$$$$
7:0
     RDKit          3D

 36 37  0  0  0  0  0  0  0  0999 V2000
   55.2320   23.7810   44.7090 C   0  0  0  0  0  0  0  0  0  0  0  0
   54.5570   24.8030   45.6180 C   0  0  0  0  0  0  0  0  0  0  0  0
   55.5050   25.8580   46.0010 N   0  0  0  0  0  0  0  0  0  0  0  0
   56.8230   25.3000   46.3410 C   0  0  0  0  0  0  0  0  0  0  0  0
   57.8860   25.8710   45.3960 C   0  0  0  0  0  0  0  0  0  0  0  0
   57.3670   27.0360   44.6650 N   0  0  0  0  0  0  0  0  0  0  0  0
   57.9590   28.2410   45.1750 C   0  0  0  0  0  0  0  0  0  0  0  0
   59.5760   28.3850   45.6530 S   0  0  0  0  0  0  0  0  0  0  0  0
   59.4710   30.0270   45.9970 C   0  0  0  0  0  0  0  0  0  0  0  0
   60.4720   30.8600   46.4870 C   0  0  0  0  0  0  0  0  0  0  0  0
   60.1550   32.2030   46.7390 C   0  0  0  0  0  0  0  0  0  0  0  0
   58.8510   32.6810   46.5070 C   0  0  0  0  0  0  0  0  0  0  0  0
   57.8550   31.8230   46.0120 C   0  0  0  0  0  0  0  0  0  0  0  0
   58.1840   30.4890   45.7400 C   0  0  0  0  0  0  0  0  0  0  0  0
   57.3320   29.4870   45.2490 C   0  0  0  0  0  0  0  0  0  0  0  0
   55.9990   29.6860   44.8740 O   0  0  0  0  0  0  0  0  0  0  0  0
   55.5970   29.7290   43.5100 C   0  0  0  0  0  0  0  0  0  0  0  0
   55.7349   23.0196   45.3233 H   0  0  0  0  0  0  0  0  0  0  0  0
   54.4745   23.2982   44.0741 H   0  0  0  0  0  0  0  0  0  0  0  0
   55.9734   24.2882   44.0741 H   0  0  0  0  0  0  0  0  0  0  0  0
   53.7077   25.2557   45.0854 H   0  0  0  0  0  0  0  0  0  0  0  0
   54.2066   24.2929   46.5274 H   0  0  0  0  0  0  0  0  0  0  0  0
   55.1300   26.3200   46.8630 H   0  0  0  0  0  0  0  0  0  0  0  0
   57.0757   25.5652   47.3782 H   0  0  0  0  0  0  0  0  0  0  0  0
   56.7929   24.2054   46.2360 H   0  0  0  0  0  0  0  0  0  0  0  0
   58.7638   26.1767   45.9842 H   0  0  0  0  0  0  0  0  0  0  0  0
   58.1627   25.0942   44.6680 H   0  0  0  0  0  0  0  0  0  0  0  0
   57.5830   26.9440   43.6450 H   0  0  0  0  0  0  0  0  0  0  0  0
   56.3290   27.0990   44.7840 H   0  0  0  0  0  0  0  0  0  0  0  0
   61.4858   30.4753   46.6720 H   0  0  0  0  0  0  0  0  0  0  0  0
   60.9287   32.8860   47.1196 H   0  0  0  0  0  0  0  0  0  0  0  0
   58.6105   33.7341   46.7149 H   0  0  0  0  0  0  0  0  0  0  0  0
   56.8333   32.1928   45.8408 H   0  0  0  0  0  0  0  0  0  0  0  0
   54.5047   29.8458   43.4532 H   0  0  0  0  0  0  0  0  0  0  0  0
   56.0833   30.5803   43.0111 H   0  0  0  0  0  0  0  0  0  0  0  0
   55.8922   28.7942   43.0111 H   0  0  0  0  0  0  0  0  0  0  0  0
  1  2  1  0
  2  3  1  0
  3  4  1  0
  4  5  1  0
  5  6  1  0
  6  7  1  0
  7  8  1  0
  8  9  1  0
  9 10  2  0
 10 11  1  0
 11 12  2  0
 12 13  1  0
 13 14  2  0
 14 15  1  0
 15 16  1  0
 16 17  1  0
 15  7  2  0
 14  9  1  0
  1 18  1  0
  1 19  1  0
  1 20  1  0
  2 21  1  0
  2 22  1  0
  3 23  1  0
  4 24  1  0
  4 25  1  0
  5 26  1  0
  5 27  1  0
  6 28  1  0
  6 29  1  0
 10 30  1  0
 11 31  1  0
 12 32  1  0
 13 33  1  0
 17 34  1  0
 17 35  1  0
 17 36  1  0
M  CHG  1   6   1
M  END
>  <UniqueID>  (8) 
8

>  <SMILES>  (8) 
CCNCC[NH2+]c1sc2ccccc2c1OC

>  <Energy>  (8) 
67.08560512595709

>  <Genealogy>  (8) 
CCNCC[NH2+]c1sc2ccccc2c1OC (protonated)
CCNCC[NH2+]c1sc2ccccc2c1OC (3D coordinates assigned)
CCNCC[NH2+]c1sc2ccccc2c1OC (optimized conformer: 67.08560512595709 kcal/mol)

>  <smiles>  (8) 
CCNCCNc1sc2ccccc2c1OC

>  <score_type>  (8) 
oracle

>  <origin>  (8) 
adg

>  <m_score__min__energy>  (8) 
-4.46

>  <m_primary>  (8) 
energy

$$$$
8:0
     RDKit          3D

 39 40  0  0  0  0  0  0  0  0999 V2000
   56.6440   30.0820   42.7480 C   0  0  0  0  0  0  0  0  0  0  0  0
   55.9120   30.4650   44.0370 C   0  0  0  0  0  0  0  0  0  0  0  0
   55.9100   29.3670   45.0230 N   0  0  0  0  0  0  0  0  0  0  0  0
   57.0290   28.4250   44.8560 C   0  0  0  0  0  0  0  0  0  0  0  0
   58.1930   28.7260   45.8040 C   0  0  0  0  0  0  0  0  0  0  0  0
   57.9690   29.9720   46.4350 O   0  0  0  0  0  0  0  0  0  0  0  0
   59.0990   30.3420   47.2030 C   0  0  0  0  0  0  0  0  0  0  0  0
   58.8810   31.7180   47.8420 C   0  0  0  0  0  0  0  0  0  0  0  0
   59.7690   32.7100   47.2330 N   0  0  0  0  0  0  0  0  0  0  0  0
   59.4400   33.7410   46.4060 C   0  0  0  0  0  0  0  0  0  0  0  0
   57.7580   34.1660   45.9410 S   0  0  0  0  0  0  0  0  0  0  0  0
   57.8080   33.2270   44.3840 C   0  0  0  0  0  0  0  0  0  0  0  0
   60.5110   34.4640   45.9830 N   0  0  0  0  0  0  0  0  0  0  0  0
   61.5390   33.8300   46.5730 C   0  0  0  0  0  0  0  0  0  0  0  0
   62.8520   34.1540   46.4670 N   0  0  0  0  0  0  0  0  0  0  0  0
   63.7750   33.3990   47.1370 C   0  0  0  0  0  0  0  0  0  0  0  0
   63.3670   32.2980   47.9260 C   0  0  0  0  0  0  0  0  0  0  0  0
   62.0010   31.9770   48.0240 C   0  0  0  0  0  0  0  0  0  0  0  0
   61.1070   32.7800   47.3200 C   0  0  0  0  0  0  0  0  0  0  0  0
   57.5930   29.5855   42.9989 H   0  0  0  0  0  0  0  0  0  0  0  0
   56.0161   29.3969   42.1595 H   0  0  0  0  0  0  0  0  0  0  0  0
   56.8489   30.9885   42.1595 H   0  0  0  0  0  0  0  0  0  0  0  0
   56.4103   31.3393   44.4812 H   0  0  0  0  0  0  0  0  0  0  0  0
   54.8666   30.6892   43.7784 H   0  0  0  0  0  0  0  0  0  0  0  0
   55.8870   29.7240   46.0070 H   0  0  0  0  0  0  0  0  0  0  0  0
   56.6656   27.4061   45.0555 H   0  0  0  0  0  0  0  0  0  0  0  0
   57.4012   28.5262   43.8258 H   0  0  0  0  0  0  0  0  0  0  0  0
   58.2613   27.9351   46.5654 H   0  0  0  0  0  0  0  0  0  0  0  0
   59.1332   28.7642   45.2342 H   0  0  0  0  0  0  0  0  0  0  0  0
   59.2597   29.5956   47.9949 H   0  0  0  0  0  0  0  0  0  0  0  0
   59.9791   30.3887   46.5448 H   0  0  0  0  0  0  0  0  0  0  0  0
   57.8359   32.0261   47.6913 H   0  0  0  0  0  0  0  0  0  0  0  0
   59.1042   31.6516   48.9171 H   0  0  0  0  0  0  0  0  0  0  0  0
   57.8653   32.1512   44.6063 H   0  0  0  0  0  0  0  0  0  0  0  0
   56.8976   33.4332   43.8021 H   0  0  0  0  0  0  0  0  0  0  0  0
   58.6914   33.5287   43.8021 H   0  0  0  0  0  0  0  0  0  0  0  0
   64.8433   33.6500   47.0617 H   0  0  0  0  0  0  0  0  0  0  0  0
   64.1154   31.6950   48.4610 H   0  0  0  0  0  0  0  0  0  0  0  0
   61.6536   31.1278   48.6309 H   0  0  0  0  0  0  0  0  0  0  0  0
  1  2  1  0
  2  3  1  0
  3  4  1  0
  4  5  1  0
  5  6  1  0
  6  7  1  0
  7  8  1  0
  8  9  1  0
  9 10  1  0
 10 11  1  0
 11 12  1  0
 10 13  2  0
 13 14  1  0
 14 15  2  0
 15 16  1  0
 16 17  2  0
 17 18  1  0
 18 19  2  0
 19  9  1  0
 19 14  1  0
  1 20  1  0
  1 21  1  0
  1 22  1  0
  2 23  1  0
  2 24  1  0
  3 25  1  0
  4 26  1  0
  4 27  1  0
  5 28  1  0
  5 29  1  0
  7 30  1  0
  7 31  1  0
  8 32  1  0
  8 33  1  0
 12 34  1  0
 12 35  1  0
 12 36  1  0
 16 37  1  0
 17 38  1  0
 18 39  1  0
M  END
>  <UniqueID>  (9) 
9

>  <SMILES>  (9) 
CCNCCOCCn1c(SC)nc2ncccc21

>  <Energy>  (9) 
72.07789506837408

>  <Genealogy>  (9) 
CCNCCOCCn1c(SC)nc2ncccc21 (3D coordinates assigned)
CCNCCOCCn1c(SC)nc2ncccc21 (optimized conformer: 72.07789506837408 kcal/mol)

>  <smiles>  (9) 
CCNCCOCCn1c(SC)nc2ncccc21

>  <score_type>  (9) 
oracle

>  <origin>  (9) 
adg

>  <m_score__min__energy>  (9) 
-6.0300000000000002

>  <m_primary>  (9) 
energy

$$$$
9:0
     RDKit          3D

 60 62  0  0  0  0  0  0  0  0999 V2000
   63.1040   33.8520   46.3780 C   0  0  0  0  0  0  0  0  0  0  0  0
   63.7510   33.2950   47.6540 C   0  0  0  0  0  0  0  0  0  0  0  0
   63.2680   31.8550   47.8820 C   0  0  0  0  0  0  0  0  0  0  0  0
   63.4040   34.1280   48.8210 N   0  0  0  0  0  0  0  0  0  0  0  0
   62.2050   33.6550   49.5370 C   0  0  0  0  0  0  0  0  0  0  0  0
   61.0190   34.5850   49.2620 C   0  0  0  0  0  0  0  0  0  0  0  0
   60.1650   34.0680   48.1340 C   0  0  0  0  0  0  0  0  0  0  0  0
   59.4990   34.9630   47.2820 C   0  0  0  0  0  0  0  0  0  0  0  0
   58.7350   34.4880   46.2140 C   0  0  0  0  0  0  0  0  0  0  0  0
   58.6360   33.1100   45.9750 C   0  0  0  0  0  0  0  0  0  0  0  0
   57.8800   32.6190   44.9060 C   0  0  0  0  0  0  0  0  0  0  0  0
   57.8090   31.2400   44.6780 C   0  0  0  0  0  0  0  0  0  0  0  0
   57.0630   30.7250   43.6100 C   0  0  0  0  0  0  0  0  0  0  0  0
   57.0140   29.3470   43.3860 C   0  0  0  0  0  0  0  0  0  0  0  0
   57.7150   28.4610   44.2260 C   0  0  0  0  0  0  0  0  0  0  0  0
   57.6980   27.0370   44.0090 N   0  0  0  0  0  0  0  0  0  0  0  0
   58.4920   26.0720   44.7730 C   0  0  0  0  0  0  0  0  0  0  0  0
   57.6400   25.3420   45.8240 C   0  0  0  0  0  0  0  0  0  0  0  0
   56.2460   25.9650   46.0050 C   0  0  0  0  0  0  0  0  0  0  0  0
   55.2420   24.9370   46.3620 N   0  0  0  0  0  0  0  0  0  0  0  0
   55.8540   23.8950   47.1990 C   0  0  0  0  0  0  0  0  0  0  0  0
   54.6670   24.3200   45.1540 C   0  0  0  0  0  0  0  0  0  0  0  0
   58.4470   28.9780   45.3070 C   0  0  0  0  0  0  0  0  0  0  0  0
   58.5050   30.3620   45.5370 C   0  0  0  0  0  0  0  0  0  0  0  0
   59.2330   30.8580   46.5800 N   0  0  0  0  0  0  0  0  0  0  0  0
   59.3140   32.2000   46.8190 C   0  0  0  0  0  0  0  0  0  0  0  0
   60.0750   32.6880   47.8930 C   0  0  0  0  0  0  0  0  0  0  0  0
   62.2962   34.5474   46.6500 H   0  0  0  0  0  0  0  0  0  0  0  0
   63.8621   34.3845   45.7849 H   0  0  0  0  0  0  0  0  0  0  0  0
   62.6901   33.0232   45.7849 H   0  0  0  0  0  0  0  0  0  0  0  0
   64.8442   33.3064   47.5320 H   0  0  0  0  0  0  0  0  0  0  0  0
   63.2017   31.6572   48.9620 H   0  0  0  0  0  0  0  0  0  0  0  0
   62.2767   31.7238   47.4236 H   0  0  0  0  0  0  0  0  0  0  0  0
   63.9797   31.1526   47.4236 H   0  0  0  0  0  0  0  0  0  0  0  0
   63.2070   35.1010   48.4900 H   0  0  0  0  0  0  0  0  0  0  0  0
   61.9561   32.6392   49.1961 H   0  0  0  0  0  0  0  0  0  0  0  0
   62.4124   33.6501   50.6173 H   0  0  0  0  0  0  0  0  0  0  0  0
   60.4043   34.6594   50.1712 H   0  0  0  0  0  0  0  0  0  0  0  0
   61.4120   35.5714   48.9746 H   0  0  0  0  0  0  0  0  0  0  0  0
   59.5795   36.0460   47.4569 H   0  0  0  0  0  0  0  0  0  0  0  0
   58.2091   35.1973   45.5580 H   0  0  0  0  0  0  0  0  0  0  0  0
   57.3422   33.3152   44.2456 H   0  0  0  0  0  0  0  0  0  0  0  0
   56.5138   31.4081   42.9454 H   0  0  0  0  0  0  0  0  0  0  0  0
   56.4232   28.9511   42.5468 H   0  0  0  0  0  0  0  0  0  0  0  0
   57.0230   26.6500   43.3110 H   0  0  0  0  0  0  0  0  0  0  0  0
   58.9159   25.3305   44.0798 H   0  0  0  0  0  0  0  0  0  0  0  0
   59.2882   26.6208   45.2973 H   0  0  0  0  0  0  0  0  0  0  0  0
   57.5179   24.2947   45.5105 H   0  0  0  0  0  0  0  0  0  0  0  0
   58.1646   25.4236   46.7874 H   0  0  0  0  0  0  0  0  0  0  0  0
   56.2904   26.7168   46.8068 H   0  0  0  0  0  0  0  0  0  0  0  0
   55.9460   26.4293   45.0540 H   0  0  0  0  0  0  0  0  0  0  0  0
   55.7076   24.1443   48.2603 H   0  0  0  0  0  0  0  0  0  0  0  0
   55.3817   22.9256   46.9815 H   0  0  0  0  0  0  0  0  0  0  0  0
   56.9306   23.8354   46.9815 H   0  0  0  0  0  0  0  0  0  0  0  0
   53.9442   23.5444   45.4471 H   0  0  0  0  0  0  0  0  0  0  0  0
   54.1567   25.0898   44.5565 H   0  0  0  0  0  0  0  0  0  0  0  0
   55.4708   23.8652   44.5565 H   0  0  0  0  0  0  0  0  0  0  0  0
   58.9806   28.2916   45.9808 H   0  0  0  0  0  0  0  0  0  0  0  0
   59.7440   30.1950   47.2080 H   0  0  0  0  0  0  0  0  0  0  0  0
   60.6049   31.9835   48.5509 H   0  0  0  0  0  0  0  0  0  0  0  0
  1  2  1  0
  2  3  1  0
  2  4  1  0
  4  5  1  0
  5  6  1  0
  6  7  1  0
  7  8  2  0
  8  9  1  0
  9 10  2  0
 10 11  1  0
 11 12  2  0
 12 13  1  0
 13 14  2  0
 14 15  1  0
 15 16  1  0
 16 17  1  0
 17 18  1  0
 18 19  1  0
 19 20  1  0
 20 21  1  0
 20 22  1  0
 15 23  2  0
 23 24  1  0
 24 25  2  0
 25 26  1  0
 26 27  2  0
 27  7  1  0
 26 10  1  0
 24 12  1  0
  1 28  1  0
  1 29  1  0
  1 30  1  0
  2 31  1  0
  3 32  1  0
  3 33  1  0
  3 34  1  0
  4 35  1  0
  5 36  1  0
  5 37  1  0
  6 38  1  0
  6 39  1  0
  8 40  1  0
  9 41  1  0
 11 42  1  0
 13 43  1  0
 14 44  1  0
 16 45  1  0
 17 46  1  0
 17 47  1  0
 18 48  1  0
 18 49  1  0
 19 50  1  0
 19 51  1  0
 21 52  1  0
 21 53  1  0
 21 54  1  0
 22 55  1  0
 22 56  1  0
 22 57  1  0
 23 58  1  0
 25 59  1  0
 27 60  1  0
M  CHG  1  25   1
M  END
>  <UniqueID>  (10) 
10

>  <SMILES>  (10) 
CC(C)NCCc1ccc2cc3ccc(NCCCN(C)C)cc3[nH+]c2c1

>  <Energy>  (10) 
59.205753855281436

>  <Genealogy>  (10) 
CC(C)NCCc1ccc2cc3ccc(NCCCN(C)C)cc3[nH+]c2c1 (protonated)
CC(C)NCCc1ccc2cc3ccc(NCCCN(C)C)cc3[nH+]c2c1 (3D coordinates assigned)
CC(C)NCCc1ccc2cc3ccc(NCCCN(C)C)cc3[nH+]c2c1 (optimized conformer: 59.205753855281436 kcal/mol)

>  <smiles>  (10) 
CC(C)NCCc1ccc2cc3ccc(NCCCN(C)C)cc3nc2c1

>  <score_type>  (10) 
oracle

>  <origin>  (10) 
adg

>  <m_score__min__energy>  (10) 
-7.1399999999999997

>  <m_primary>  (10) 
energy

$$$$
10:0
     RDKit          3D

 51 52  0  0  0  0  0  0  0  0999 V2000
   64.7690   32.3310   49.7540 C   0  0  0  0  0  0  0  0  0  0  0  0
   63.4370   31.6050   49.5710 C   0  0  0  0  0  0  0  0  0  0  0  0
   62.6020   32.2710   48.5470 N   0  0  0  0  0  0  0  0  0  0  0  0
   63.3420   32.3710   47.2670 C   0  0  0  0  0  0  0  0  0  0  0  0
   63.3610   33.8090   46.7490 C   0  0  0  0  0  0  0  0  0  0  0  0
   62.1210   33.5990   49.0090 C   0  0  0  0  0  0  0  0  0  0  0  0
   61.1890   33.4170   50.2080 C   0  0  0  0  0  0  0  0  0  0  0  0
   59.4740   33.1090   49.6550 S   0  0  0  0  0  0  0  0  0  0  0  0
   59.4190   31.3560   50.1810 C   0  0  0  0  0  0  0  0  0  0  0  0
   59.4980   30.4010   48.9780 C   0  0  0  0  0  0  0  0  0  0  0  0
   60.1940   30.9740   47.8060 N   0  0  0  0  0  0  0  0  0  0  0  0
   59.2760   31.3920   46.7680 C   0  0  0  0  0  0  0  0  0  0  0  0
   58.3430   30.4750   46.2520 C   0  0  0  0  0  0  0  0  0  0  0  0
   57.3850   30.8640   45.3100 C   0  0  0  0  0  0  0  0  0  0  0  0
   56.4610   29.9050   44.8720 O   0  0  0  0  0  0  0  0  0  0  0  0
   56.0790   29.7130   43.5140 C   0  0  0  0  0  0  0  0  0  0  0  0
   57.3740   32.1910   44.8440 C   0  0  0  0  0  0  0  0  0  0  0  0
   58.3130   33.1150   45.3230 C   0  0  0  0  0  0  0  0  0  0  0  0
   58.3200   34.4390   44.8630 C   0  0  0  0  0  0  0  0  0  0  0  0
   59.2640   35.3410   45.3560 C   0  0  0  0  0  0  0  0  0  0  0  0
   60.1920   34.9120   46.3060 C   0  0  0  0  0  0  0  0  0  0  0  0
   60.1740   33.6270   46.7470 N   0  0  0  0  0  0  0  0  0  0  0  0
   59.2680   32.7190   46.2880 C   0  0  0  0  0  0  0  0  0  0  0  0
   64.9796   32.4458   50.8275 H   0  0  0  0  0  0  0  0  0  0  0  0
   65.5730   31.7463   49.2831 H   0  0  0  0  0  0  0  0  0  0  0  0
   64.7133   33.3236   49.2831 H   0  0  0  0  0  0  0  0  0  0  0  0
   63.6329   30.5693   49.2564 H   0  0  0  0  0  0  0  0  0  0  0  0
   62.8955   31.6232   50.5283 H   0  0  0  0  0  0  0  0  0  0  0  0
   64.3769   32.0326   47.4237 H   0  0  0  0  0  0  0  0  0  0  0  0
   62.8354   31.7397   46.5221 H   0  0  0  0  0  0  0  0  0  0  0  0
   63.3702   34.5054   47.6005 H   0  0  0  0  0  0  0  0  0  0  0  0
   64.2613   33.9664   46.1369 H   0  0  0  0  0  0  0  0  0  0  0  0
   62.4652   33.9901   46.1369 H   0  0  0  0  0  0  0  0  0  0  0  0
   62.9812   34.2178   49.3043 H   0  0  0  0  0  0  0  0  0  0  0  0
   61.5747   34.0944   48.1929 H   0  0  0  0  0  0  0  0  0  0  0  0
   61.5342   32.5612   50.8067 H   0  0  0  0  0  0  0  0  0  0  0  0
   61.2056   34.3370   50.8108 H   0  0  0  0  0  0  0  0  0  0  0  0
   60.2687   31.1575   50.8507 H   0  0  0  0  0  0  0  0  0  0  0  0
   58.4631   31.1814   50.6966 H   0  0  0  0  0  0  0  0  0  0  0  0
   60.0348   29.4932   49.2905 H   0  0  0  0  0  0  0  0  0  0  0  0
   58.4640   30.1923   48.6661 H   0  0  0  0  0  0  0  0  0  0  0  0
   60.7520   31.8010   48.1210 H   0  0  0  0  0  0  0  0  0  0  0  0
   60.8830   30.2800   47.4340 H   0  0  0  0  0  0  0  0  0  0  0  0
   58.3671   29.4305   46.5962 H   0  0  0  0  0  0  0  0  0  0  0  0
   55.0968   29.2193   43.4757 H   0  0  0  0  0  0  0  0  0  0  0  0
   56.0192   30.6882   43.0085 H   0  0  0  0  0  0  0  0  0  0  0  0
   56.8259   29.0832   43.0085 H   0  0  0  0  0  0  0  0  0  0  0  0
   56.6259   32.5048   44.1011 H   0  0  0  0  0  0  0  0  0  0  0  0
   57.5830   34.7665   44.1150 H   0  0  0  0  0  0  0  0  0  0  0  0
   59.2765   36.3813   44.9988 H   0  0  0  0  0  0  0  0  0  0  0  0
   60.9402   35.6162   46.6989 H   0  0  0  0  0  0  0  0  0  0  0  0
  1  2  1  0
  2  3  1  0
  3  4  1  0
  4  5  1  0
  3  6  1  0
  6  7  1  0
  7  8  1  0
  8  9  1  0
  9 10  1  0
 10 11  1  0
 11 12  1  0
 12 13  2  0
 13 14  1  0
 14 15  1  0
 15 16  1  0
 14 17  2  0
 17 18  1  0
 18 19  2  0
 19 20  1  0
 20 21  2  0
 21 22  1  0
 22 23  2  0
 23 12  1  0
 23 18  1  0
  1 24  1  0
  1 25  1  0
  1 26  1  0
  2 27  1  0
  2 28  1  0
  4 29  1  0
  4 30  1  0
  5 31  1  0
  5 32  1  0
  5 33  1  0
  6 34  1  0
  6 35  1  0
  7 36  1  0
  7 37  1  0
  9 38  1  0
  9 39  1  0
 10 40  1  0
 10 41  1  0
 11 42  1  0
 11 43  1  0
 13 44  1  0
 16 45  1  0
 16 46  1  0
 16 47  1  0
 17 48  1  0
 19 49  1  0
 20 50  1  0
 21 51  1  0
M  CHG  1  11   1
M  END
>  <UniqueID>  (11) 
11

>  <SMILES>  (11) 
CCN(CC)CCSCC[NH2+]c1cc(OC)cc2cccnc12

>  <Energy>  (11) 
46.11305251120262

>  <Genealogy>  (11) 
CCN(CC)CCSCC[NH2+]c1cc(OC)cc2cccnc12 (protonated)
CCN(CC)CCSCC[NH2+]c1cc(OC)cc2cccnc12 (3D coordinates assigned)
CCN(CC)CCSCC[NH2+]c1cc(OC)cc2cccnc12 (optimized conformer: 46.11305251120262 kcal/mol)

>  <smiles>  (11) 
CCN(CC)CCSCCNc1cc(OC)cc2cccnc12

>  <score_type>  (11) 
oracle

>  <origin>  (11) 
adg

>  <m_score__min__energy>  (11) 
-4.6799999999999997

>  <m_primary>  (11) 
energy

$$$$
11:0
     RDKit          3D

 54 55  0  0  0  0  0  0  0  0999 V2000
   60.4160   30.1360   47.7570 C   0  0  0  0  0  0  0  0  0  0  0  0
   60.4250   29.4670   46.3690 C   0  0  0  0  0  0  0  0  0  0  0  0
   59.4140   28.3890   46.1670 N   0  0  0  0  0  0  0  0  0  0  0  0
   59.4200   27.3620   47.2450 C   0  0  0  0  0  0  0  0  0  0  0  0
   58.2810   26.3430   47.1160 C   0  0  0  0  0  0  0  0  0  0  0  0
   59.4170   27.8370   44.7850 C   0  0  0  0  0  0  0  0  0  0  0  0
   58.0560   27.8410   44.0780 C   0  0  0  0  0  0  0  0  0  0  0  0
   57.1180   28.5560   44.8770 O   0  0  0  0  0  0  0  0  0  0  0  0
   56.8290   29.9090   44.6750 C   0  0  0  0  0  0  0  0  0  0  0  0
   55.6340   30.2980   44.5710 O   0  0  0  0  0  0  0  0  0  0  0  0
   57.9610   30.8880   44.5230 C   0  0  0  0  0  0  0  0  0  0  0  0
   57.7560   31.7480   43.2570 C   0  0  0  0  0  0  0  0  0  0  0  0
   58.4800   33.0900   43.3950 C   0  0  0  0  0  0  0  0  0  0  0  0
   57.9140   33.9040   44.4980 N   0  0  0  0  0  0  0  0  0  0  0  0
   58.8560   34.9720   44.8900 C   0  0  0  0  0  0  0  0  0  0  0  0
   59.5820   34.5950   46.1550 C   0  0  0  0  0  0  0  0  0  0  0  0
   59.0110   34.8870   47.4040 C   0  0  0  0  0  0  0  0  0  0  0  0
   59.6780   34.5380   48.5830 C   0  0  0  0  0  0  0  0  0  0  0  0
   60.9160   33.8950   48.5220 C   0  0  0  0  0  0  0  0  0  0  0  0
   61.4920   33.6000   47.2820 C   0  0  0  0  0  0  0  0  0  0  0  0
   63.1830   32.7160   47.2020 Br  0  0  0  0  0  0  0  0  0  0  0  0
   60.8280   33.9470   46.1010 C   0  0  0  0  0  0  0  0  0  0  0  0
   57.4450   33.1100   45.6670 C   0  0  0  0  0  0  0  0  0  0  0  0
   58.1500   31.7510   45.7940 C   0  0  0  0  0  0  0  0  0  0  0  0
   60.4264   29.3611   48.5376 H   0  0  0  0  0  0  0  0  0  0  0  0
   61.3056   30.7743   47.8621 H   0  0  0  0  0  0  0  0  0  0  0  0
   59.5095   30.7502   47.8621 H   0  0  0  0  0  0  0  0  0  0  0  0
   60.2426   30.2476   45.6158 H   0  0  0  0  0  0  0  0  0  0  0  0
   61.4070   28.9801   46.2758 H   0  0  0  0  0  0  0  0  0  0  0  0
   58.4900   28.8780   46.2510 H   0  0  0  0  0  0  0  0  0  0  0  0
   60.3777   26.8222   47.2081 H   0  0  0  0  0  0  0  0  0  0  0  0
   59.2794   27.8899   48.1998 H   0  0  0  0  0  0  0  0  0  0  0  0
   57.9437   26.0412   48.1186 H   0  0  0  0  0  0  0  0  0  0  0  0
   57.4424   26.7978   46.5685 H   0  0  0  0  0  0  0  0  0  0  0  0
   58.6400   25.4591   46.5685 H   0  0  0  0  0  0  0  0  0  0  0  0
   60.1160   28.4345   44.1813 H   0  0  0  0  0  0  0  0  0  0  0  0
   59.7096   26.7808   44.8785 H   0  0  0  0  0  0  0  0  0  0  0  0
   58.1519   28.3292   43.0969 H   0  0  0  0  0  0  0  0  0  0  0  0
   57.7093   26.8068   43.9355 H   0  0  0  0  0  0  0  0  0  0  0  0
   58.8950   30.3205   44.3978 H   0  0  0  0  0  0  0  0  0  0  0  0
   58.1559   31.2093   42.3852 H   0  0  0  0  0  0  0  0  0  0  0  0
   56.6802   31.9368   43.1266 H   0  0  0  0  0  0  0  0  0  0  0  0
   59.5444   32.9022   43.5996 H   0  0  0  0  0  0  0  0  0  0  0  0
   58.3534   33.6478   42.4554 H   0  0  0  0  0  0  0  0  0  0  0  0
   59.5884   35.1231   44.0833 H   0  0  0  0  0  0  0  0  0  0  0  0
   58.2905   35.8989   45.0664 H   0  0  0  0  0  0  0  0  0  0  0  0
   58.0353   35.3922   47.4556 H   0  0  0  0  0  0  0  0  0  0  0  0
   59.2269   34.7703   49.5590 H   0  0  0  0  0  0  0  0  0  0  0  0
   61.4388   33.6202   49.4500 H   0  0  0  0  0  0  0  0  0  0  0  0
   61.2822   33.7121   45.1271 H   0  0  0  0  0  0  0  0  0  0  0  0
   57.6343   33.6896   46.5826 H   0  0  0  0  0  0  0  0  0  0  0  0
   56.3732   32.9111   45.5198 H   0  0  0  0  0  0  0  0  0  0  0  0
   59.2251   31.9205   45.9534 H   0  0  0  0  0  0  0  0  0  0  0  0
   57.7061   31.2121   46.6440 H   0  0  0  0  0  0  0  0  0  0  0  0
  1  2  1  0
  2  3  1  0
  3  4  1  0
  4  5  1  0
  3  6  1  0
  6  7  1  0
  7  8  1  0
  8  9  1  0
  9 10  2  0
  9 11  1  0
 11 12  1  0
 12 13  1  0
 13 14  1  0
 14 15  1  0
 15 16  1  0
 16 17  2  0
 17 18  1  0
 18 19  2  0
 19 20  1  0
 20 21  1  0
 20 22  2  0
 14 23  1  0
 23 24  1  0
 24 11  1  0
 22 16  1  0
  1 25  1  0
  1 26  1  0
  1 27  1  0
  2 28  1  0
  2 29  1  0
  3 30  1  0
  4 31  1  0
  4 32  1  0
  5 33  1  0
  5 34  1  0
  5 35  1  0
  6 36  1  0
  6 37  1  0
  7 38  1  0
  7 39  1  0
 11 40  1  0
 12 41  1  0
 12 42  1  0
 13 43  1  0
 13 44  1  0
 15 45  1  0
 15 46  1  0
 17 47  1  0
 18 48  1  0
 19 49  1  0
 22 50  1  0
 23 51  1  0
 23 52  1  0
 24 53  1  0
 24 54  1  0
M  CHG  1   3   1
M  END
>  <UniqueID>  (12) 
12

>  <SMILES>  (12) 
CC[NH+](CC)CCOC(=O)C1CCN(Cc2cccc(Br)c2)CC1

>  <Energy>  (12) 
64.72755293313598

>  <Genealogy>  (12) 
CC[NH+](CC)CCOC(=O)C1CCN(Cc2cccc(Br)c2)CC1 (protonated)
CC[NH+](CC)CCOC(=O)C1CCN(Cc2cccc(Br)c2)CC1 (3D coordinates assigned)
CC[NH+](CC)CCOC(=O)C1CCN(Cc2cccc(Br)c2)CC1 (nonaromatic ring conformer: 64.72755293313598 kcal/mol)

>  <smiles>  (12) 
CCN(CC)CCOC(=O)C1CCN(Cc2cccc(Br)c2)CC1

>  <score_type>  (12) 
oracle

>  <origin>  (12) 
adg

>  <m_score__min__energy>  (12) 
-6.4800000000000004

>  <m_primary>  (12) 
energy

$$$$
12:0
     RDKit          3D

 30 31  0  0  0  0  0  0  0  0999 V2000
   56.6600   30.5920   42.8360 C   0  0  0  0  0  0  0  0  0  0  0  0
   56.6490   29.4300   43.8340 C   0  0  0  0  0  0  0  0  0  0  0  0
   57.5440   28.3310   43.4290 N   0  0  0  0  0  0  0  0  0  0  0  0
   58.4530   27.9250   44.5150 C   0  0  0  0  0  0  0  0  0  0  0  0
   58.0660   28.5770   45.8490 C   0  0  0  0  0  0  0  0  0  0  0  0
   59.0940   29.5180   46.2950 N   0  0  0  0  0  0  0  0  0  0  0  0
   60.3120   29.2120   46.8060 C   0  0  0  0  0  0  0  0  0  0  0  0
   61.0690   30.3070   47.0780 N   0  0  0  0  0  0  0  0  0  0  0  0
   60.2720   31.3280   46.7090 C   0  0  0  0  0  0  0  0  0  0  0  0
   60.5520   32.6940   46.7620 C   0  0  0  0  0  0  0  0  0  0  0  0
   62.0870   33.2880   47.3710 Cl  0  0  0  0  0  0  0  0  0  0  0  0
   59.5620   33.5850   46.3080 C   0  0  0  0  0  0  0  0  0  0  0  0
   58.3290   33.0960   45.8150 C   0  0  0  0  0  0  0  0  0  0  0  0
   57.1070   34.2210   45.2500 Cl  0  0  0  0  0  0  0  0  0  0  0  0
   58.0780   31.7120   45.7740 C   0  0  0  0  0  0  0  0  0  0  0  0
   59.0820   30.8580   46.2340 C   0  0  0  0  0  0  0  0  0  0  0  0
   56.6690   31.5458   43.3839 H   0  0  0  0  0  0  0  0  0  0  0  0
   57.5575   30.5238   42.2037 H   0  0  0  0  0  0  0  0  0  0  0  0
   55.7613   30.5408   42.2037 H   0  0  0  0  0  0  0  0  0  0  0  0
   56.9727   29.8051   44.8161 H   0  0  0  0  0  0  0  0  0  0  0  0
   55.6247   29.0309   43.8717 H   0  0  0  0  0  0  0  0  0  0  0  0
   58.0950   28.6220   42.5880 H   0  0  0  0  0  0  0  0  0  0  0  0
   56.9460   27.5140   43.1630 H   0  0  0  0  0  0  0  0  0  0  0  0
   58.4101   26.8315   44.6264 H   0  0  0  0  0  0  0  0  0  0  0  0
   59.4697   28.2536   44.2536 H   0  0  0  0  0  0  0  0  0  0  0  0
   57.1159   29.1167   45.7225 H   0  0  0  0  0  0  0  0  0  0  0  0
   57.9645   27.7864   46.6070 H   0  0  0  0  0  0  0  0  0  0  0  0
   60.6529   28.1812   46.9826 H   0  0  0  0  0  0  0  0  0  0  0  0
   59.7478   34.6688   46.3365 H   0  0  0  0  0  0  0  0  0  0  0  0
   57.1246   31.3171   45.3931 H   0  0  0  0  0  0  0  0  0  0  0  0
  1  2  1  0
  2  3  1  0
  3  4  1  0
  4  5  1  0
  5  6  1  0
  6  7  1  0
  7  8  2  0
  8  9  1  0
  9 10  2  0
 10 11  1  0
 10 12  1  0
 12 13  2  0
 13 14  1  0
 13 15  1  0
 15 16  2  0
 16  6  1  0
 16  9  1  0
  1 17  1  0
  1 18  1  0
  1 19  1  0
  2 20  1  0
  2 21  1  0
  3 22  1  0
  3 23  1  0
  4 24  1  0
  4 25  1  0
  5 26  1  0
  5 27  1  0
  7 28  1  0
 12 29  1  0
 15 30  1  0
M  CHG  1   3   1
M  END
>  <UniqueID>  (13) 
13

>  <SMILES>  (13) 
CC[NH2+]CCn1cnc2c(Cl)cc(Cl)cc21

>  <Energy>  (13) 
62.0398335765201

>  <Genealogy>  (13) 
CC[NH2+]CCn1cnc2c(Cl)cc(Cl)cc21 (protonated)
CC[NH2+]CCn1cnc2c(Cl)cc(Cl)cc21 (3D coordinates assigned)
CC[NH2+]CCn1cnc2c(Cl)cc(Cl)cc21 (optimized conformer: 62.0398335765201 kcal/mol)

>  <smiles>  (13) 
CCNCCn1cnc2c(Cl)cc(Cl)cc21

>  <score_type>  (13) 
oracle

>  <origin>  (13) 
adg

>  <m_score__min__energy>  (13) 
-4.5800000000000001

>  <m_primary>  (13) 
energy

$$$$
13:0
     RDKit          3D

 38 39  0  0  0  0  0  0  0  0999 V2000
   59.2580   35.2270   44.9100 C   0  0  0  0  0  0  0  0  0  0  0  0
   58.6680   34.0540   45.5700 N   0  0  0  0  0  0  0  0  0  0  0  0
   57.4370   33.5980   44.8900 C   0  0  0  0  0  0  0  0  0  0  0  0
   57.6530   32.2430   44.2080 C   0  0  0  0  0  0  0  0  0  0  0  0
   57.0440   31.1920   44.9610 O   0  0  0  0  0  0  0  0  0  0  0  0
   57.6020   29.9280   45.2160 C   0  0  0  0  0  0  0  0  0  0  0  0
   58.9730   29.7370   45.4780 C   0  0  0  0  0  0  0  0  0  0  0  0
   59.4730   28.4540   45.7180 C   0  0  0  0  0  0  0  0  0  0  0  0
   58.6140   27.3520   45.7110 C   0  0  0  0  0  0  0  0  0  0  0  0
   59.2440   25.7440   46.0130 Cl  0  0  0  0  0  0  0  0  0  0  0  0
   57.2490   27.5350   45.4680 C   0  0  0  0  0  0  0  0  0  0  0  0
   56.7450   28.8180   45.2270 C   0  0  0  0  0  0  0  0  0  0  0  0
   55.4200   28.9810   44.9890 F   0  0  0  0  0  0  0  0  0  0  0  0
   58.5150   34.2380   47.0340 C   0  0  0  0  0  0  0  0  0  0  0  0
   58.9450   33.0440   47.8630 C   0  0  0  0  0  0  0  0  0  0  0  0
   58.4360   31.8070   47.6810 N   0  0  0  0  0  0  0  0  0  0  0  0
   59.0560   31.0200   48.5790 C   0  0  0  0  0  0  0  0  0  0  0  0
   59.9480   31.7870   49.2940 C   0  0  0  0  0  0  0  0  0  0  0  0
   59.8930   33.0520   48.8320 N   0  0  0  0  0  0  0  0  0  0  0  0
   60.6870   34.1680   49.3420 C   0  0  0  0  0  0  0  0  0  0  0  0
   59.6145   35.9358   45.6719 H   0  0  0  0  0  0  0  0  0  0  0  0
   60.1029   34.9080   44.2820 H   0  0  0  0  0  0  0  0  0  0  0  0
   58.4982   35.7152   44.2820 H   0  0  0  0  0  0  0  0  0  0  0  0
   56.6310   33.5021   45.6324 H   0  0  0  0  0  0  0  0  0  0  0  0
   57.1684   34.3373   44.1210 H   0  0  0  0  0  0  0  0  0  0  0  0
   57.2080   32.2706   43.2024 H   0  0  0  0  0  0  0  0  0  0  0  0
   58.7339   32.0495   44.1437 H   0  0  0  0  0  0  0  0  0  0  0  0
   59.6530   30.6015   45.4938 H   0  0  0  0  0  0  0  0  0  0  0  0
   60.5461   28.3114   45.9130 H   0  0  0  0  0  0  0  0  0  0  0  0
   56.5705   26.6692   45.4663 H   0  0  0  0  0  0  0  0  0  0  0  0
   59.1217   35.1040   47.3373 H   0  0  0  0  0  0  0  0  0  0  0  0
   57.4406   34.3805   47.2221 H   0  0  0  0  0  0  0  0  0  0  0  0
   57.7220   31.5090   46.9800 H   0  0  0  0  0  0  0  0  0  0  0  0
   58.8796   29.9433   48.7186 H   0  0  0  0  0  0  0  0  0  0  0  0
   60.5969   31.4277   50.1063 H   0  0  0  0  0  0  0  0  0  0  0  0
   60.6764   34.1531   50.4418 H   0  0  0  0  0  0  0  0  0  0  0  0
   61.7229   34.0748   48.9840 H   0  0  0  0  0  0  0  0  0  0  0  0
   60.2593   35.1161   48.9840 H   0  0  0  0  0  0  0  0  0  0  0  0
  1  2  1  0
  2  3  1  0
  3  4  1  0
  4  5  1  0
  5  6  1  0
  6  7  2  0
  7  8  1  0
  8  9  2  0
  9 10  1  0
  9 11  1  0
 11 12  2  0
 12 13  1  0
  2 14  1  0
 14 15  1  0
 15 16  2  0
 16 17  1  0
 17 18  2  0
 18 19  1  0
 19 20  1  0
 12  6  1  0
 19 15  1  0
  1 21  1  0
  1 22  1  0
  1 23  1  0
  3 24  1  0
  3 25  1  0
  4 26  1  0
  4 27  1  0
  7 28  1  0
  8 29  1  0
 11 30  1  0
 14 31  1  0
 14 32  1  0
 16 33  1  0
 17 34  1  0
 18 35  1  0
 20 36  1  0
 20 37  1  0
 20 38  1  0
M  CHG  1  16   1
M  END
>  <UniqueID>  (14) 
14

>  <SMILES>  (14) 
CN(CCOc1ccc(Cl)cc1F)Cc1[nH+]ccn1C

>  <Energy>  (14) 
71.64450073012173

>  <Genealogy>  (14) 
CN(CCOc1ccc(Cl)cc1F)Cc1[nH+]ccn1C (protonated)
CN(CCOc1ccc(Cl)cc1F)Cc1[nH+]ccn1C (3D coordinates assigned)
CN(CCOc1ccc(Cl)cc1F)Cc1[nH+]ccn1C (optimized conformer: 71.64450073012173 kcal/mol)

>  <smiles>  (14) 
CN(CCOc1ccc(Cl)cc1F)Cc1nccn1C

>  <score_type>  (14) 
oracle

>  <origin>  (14) 
adg

>  <m_score__min__energy>  (14) 
-4.8200000000000003

>  <m_primary>  (14) 
energy

$$$$
14:0
     RDKit          3D

 56 58  0  0  0  0  0  0  0  0999 V2000
   58.1010   27.0720   42.6050 C   0  0  0  0  0  0  0  0  0  0  0  0
   58.4790   26.7680   44.0550 C   0  0  0  0  0  0  0  0  0  0  0  0
   57.4050   25.9530   44.7910 C   0  0  0  0  0  0  0  0  0  0  0  0
   56.8390   26.6940   46.0120 C   0  0  0  0  0  0  0  0  0  0  0  0
   56.1270   27.8620   45.6030 O   0  0  0  0  0  0  0  0  0  0  0  0
   56.6980   29.0690   45.1590 C   0  0  0  0  0  0  0  0  0  0  0  0
   56.1080   29.8250   44.1250 C   0  0  0  0  0  0  0  0  0  0  0  0
   56.6910   31.0130   43.6890 C   0  0  0  0  0  0  0  0  0  0  0  0
   57.8750   31.4750   44.2720 C   0  0  0  0  0  0  0  0  0  0  0  0
   58.4970   32.7710   43.8180 C   0  0  0  0  0  0  0  0  0  0  0  0
   57.8620   33.9260   44.4930 N   0  0  0  0  0  0  0  0  0  0  0  0
   58.8400   34.9330   44.9600 C   0  0  0  0  0  0  0  0  0  0  0  0
   59.6900   34.4320   46.1490 C   0  0  0  0  0  0  0  0  0  0  0  0
   59.0560   33.2830   46.8260 N   0  0  0  0  0  0  0  0  0  0  0  0
   59.7350   32.8920   48.0810 C   0  0  0  0  0  0  0  0  0  0  0  0
   61.2390   33.0730   48.0520 C   0  0  0  0  0  0  0  0  0  0  0  0
   62.0380   32.3090   47.1890 C   0  0  0  0  0  0  0  0  0  0  0  0
   63.4220   32.4900   47.1720 C   0  0  0  0  0  0  0  0  0  0  0  0
   63.9970   33.4420   48.0140 C   0  0  0  0  0  0  0  0  0  0  0  0
   63.2120   34.1860   48.8360 N   0  0  0  0  0  0  0  0  0  0  0  0
   61.8620   34.0280   48.8720 C   0  0  0  0  0  0  0  0  0  0  0  0
   57.6060   33.4740   46.9700 C   0  0  0  0  0  0  0  0  0  0  0  0
   56.9380   33.5150   45.5790 C   0  0  0  0  0  0  0  0  0  0  0  0
   58.4650   30.7390   45.3070 C   0  0  0  0  0  0  0  0  0  0  0  0
   57.8910   29.5380   45.7650 C   0  0  0  0  0  0  0  0  0  0  0  0
   58.5340   28.8130   46.8350 N   0  0  0  0  0  0  0  0  0  0  0  0
   59.3910   27.9350   46.6020 O   0  0  0  0  0  0  0  0  0  0  0  0
   58.1900   29.0580   48.1450 O   0  0  0  0  0  0  0  0  0  0  0  0
   57.2439   27.7613   42.5863 H   0  0  0  0  0  0  0  0  0  0  0  0
   58.9564   27.5366   42.0928 H   0  0  0  0  0  0  0  0  0  0  0  0
   57.8307   26.1368   42.0928 H   0  0  0  0  0  0  0  0  0  0  0  0
   59.4192   26.1970   44.0609 H   0  0  0  0  0  0  0  0  0  0  0  0
   58.5826   27.7295   44.5791 H   0  0  0  0  0  0  0  0  0  0  0  0
   56.5814   25.7427   44.0928 H   0  0  0  0  0  0  0  0  0  0  0  0
   57.8762   25.0265   45.1508 H   0  0  0  0  0  0  0  0  0  0  0  0
   56.1556   26.0256   46.5562 H   0  0  0  0  0  0  0  0  0  0  0  0
   57.6729   26.9957   46.6628 H   0  0  0  0  0  0  0  0  0  0  0  0
   55.1768   29.4727   43.6573 H   0  0  0  0  0  0  0  0  0  0  0  0
   56.2172   31.5907   42.8817 H   0  0  0  0  0  0  0  0  0  0  0  0
   59.5704   32.7590   44.0580 H   0  0  0  0  0  0  0  0  0  0  0  0
   58.3474   32.8719   42.7329 H   0  0  0  0  0  0  0  0  0  0  0  0
   59.5132   35.1827   44.1266 H   0  0  0  0  0  0  0  0  0  0  0  0
   58.2741   35.8117   45.3030 H   0  0  0  0  0  0  0  0  0  0  0  0
   60.6787   34.1256   45.7767 H   0  0  0  0  0  0  0  0  0  0  0  0
   59.7804   35.2522   46.8764 H   0  0  0  0  0  0  0  0  0  0  0  0
   59.3289   33.5050   48.8991 H   0  0  0  0  0  0  0  0  0  0  0  0
   59.5471   31.8174   48.2222 H   0  0  0  0  0  0  0  0  0  0  0  0
   61.5733   31.5658   46.5244 H   0  0  0  0  0  0  0  0  0  0  0  0
   64.0528   31.8880   46.5014 H   0  0  0  0  0  0  0  0  0  0  0  0
   65.0869   33.5904   48.0124 H   0  0  0  0  0  0  0  0  0  0  0  0
   61.2554   34.6506   49.5460 H   0  0  0  0  0  0  0  0  0  0  0  0
   57.1849   32.6409   47.5519 H   0  0  0  0  0  0  0  0  0  0  0  0
   57.4170   34.4250   47.4894 H   0  0  0  0  0  0  0  0  0  0  0  0
   56.5527   32.5110   45.3476 H   0  0  0  0  0  0  0  0  0  0  0  0
   56.1369   34.2674   45.6257 H   0  0  0  0  0  0  0  0  0  0  0  0
   59.3930   31.1057   45.7701 H   0  0  0  0  0  0  0  0  0  0  0  0
  1  2  1  0
  2  3  1  0
  3  4  1  0
  4  5  1  0
  5  6  1  0
  6  7  2  0
  7  8  1  0
  8  9  2  0
  9 10  1  0
 10 11  1  0
 11 12  1  0
 12 13  1  0
 13 14  1  0
 14 15  1  0
 15 16  1  0
 16 17  2  0
 17 18  1  0
 18 19  2  0
 19 20  1  0
 20 21  2  0
 14 22  1  0
 22 23  1  0
  9 24  1  0
 24 25  2  0
 25 26  1  0
 26 27  2  0
 26 28  1  0
 25  6  1  0
 23 11  1  0
 21 16  1  0
  1 29  1  0
  1 30  1  0
  1 31  1  0
  2 32  1  0
  2 33  1  0
  3 34  1  0
  3 35  1  0
  4 36  1  0
  4 37  1  0
  7 38  1  0
  8 39  1  0
 10 40  1  0
 10 41  1  0
 12 42  1  0
 12 43  1  0
 13 44  1  0
 13 45  1  0
 15 46  1  0
 15 47  1  0
 17 48  1  0
 18 49  1  0
 19 50  1  0
 21 51  1  0
 22 52  1  0
 22 53  1  0
 23 54  1  0
 23 55  1  0
 24 56  1  0
M  CHG  2  26   1  28  -1
M  END
>  <UniqueID>  (15) 
15

>  <SMILES>  (15) 
CCCCOc1ccc(CN2CCN(Cc3cccnc3)CC2)cc1[N+](=O)[O-]

>  <Energy>  (15) 
69.88930559714584

>  <Genealogy>  (15) 
CCCCOc1ccc(CN2CCN(Cc3cccnc3)CC2)cc1[N+](=O)[O-] (3D coordinates assigned)
CCCCOc1ccc(CN2CCN(Cc3cccnc3)CC2)cc1[N+](=O)[O-] (nonaromatic ring conformer: 69.88930559714584 kcal/mol)

>  <smiles>  (15) 
CCCCOc1ccc(CN2CCN(Cc3cccnc3)CC2)cc1[N+](=O)[O-]

>  <score_type>  (15) 
oracle

>  <origin>  (15) 
adg

>  <m_score__min__energy>  (15) 
-8.6300000000000008

>  <m_primary>  (15) 
energy

$$$$
15:0
     RDKit          3D

 38 40  0  0  0  0  0  0  0  0999 V2000
   59.1990   31.8980   47.3900 C   0  0  0  0  0  0  0  0  0  0  0  0
   59.4080   33.1720   46.7020 N   0  0  0  0  0  0  0  0  0  0  0  0
   60.4600   34.0240   46.7880 C   0  0  0  0  0  0  0  0  0  0  0  0
   61.6770   33.8270   47.6130 C   0  0  0  0  0  0  0  0  0  0  0  0
   62.8500   33.3120   47.0380 C   0  0  0  0  0  0  0  0  0  0  0  0
   63.9830   33.1250   47.8340 C   0  0  0  0  0  0  0  0  0  0  0  0
   63.9400   33.4470   49.1910 C   0  0  0  0  0  0  0  0  0  0  0  0
   62.7570   33.9520   49.7330 C   0  0  0  0  0  0  0  0  0  0  0  0
   61.6650   34.1270   48.9420 N   0  0  0  0  0  0  0  0  0  0  0  0
   60.2780   35.1030   45.9950 N   0  0  0  0  0  0  0  0  0  0  0  0
   59.1120   34.9360   45.3950 N   0  0  0  0  0  0  0  0  0  0  0  0
   58.5910   33.7720   45.8130 C   0  0  0  0  0  0  0  0  0  0  0  0
   57.0220   33.1200   45.2240 S   0  0  0  0  0  0  0  0  0  0  0  0
   57.7250   32.2980   43.7460 C   0  0  0  0  0  0  0  0  0  0  0  0
   57.0240   30.9660   43.4620 C   0  0  0  0  0  0  0  0  0  0  0  0
   57.5660   29.8520   44.3290 C   0  0  0  0  0  0  0  0  0  0  0  0
   58.9550   29.7100   44.4890 C   0  0  0  0  0  0  0  0  0  0  0  0
   59.4740   28.6710   45.2680 C   0  0  0  0  0  0  0  0  0  0  0  0
   58.6120   27.7640   45.8900 C   0  0  0  0  0  0  0  0  0  0  0  0
   57.2300   27.8960   45.7360 C   0  0  0  0  0  0  0  0  0  0  0  0
   56.7030   28.9340   44.9590 C   0  0  0  0  0  0  0  0  0  0  0  0
   55.3570   29.0410   44.8280 F   0  0  0  0  0  0  0  0  0  0  0  0
   59.2256   32.0600   48.4777 H   0  0  0  0  0  0  0  0  0  0  0  0
   58.2208   31.4834   47.1048 H   0  0  0  0  0  0  0  0  0  0  0  0
   59.9934   31.1926   47.1048 H   0  0  0  0  0  0  0  0  0  0  0  0
   62.8767   33.0575   45.9682 H   0  0  0  0  0  0  0  0  0  0  0  0
   64.9072   32.7247   47.3917 H   0  0  0  0  0  0  0  0  0  0  0  0
   64.8271   33.3047   49.8256 H   0  0  0  0  0  0  0  0  0  0  0  0
   62.7081   34.2087   50.8015 H   0  0  0  0  0  0  0  0  0  0  0  0
   58.6940   35.6010   44.7070 H   0  0  0  0  0  0  0  0  0  0  0  0
   57.6024   32.9598   42.8759 H   0  0  0  0  0  0  0  0  0  0  0  0
   58.7896   32.0960   43.9352 H   0  0  0  0  0  0  0  0  0  0  0  0
   55.9480   31.0803   43.6600 H   0  0  0  0  0  0  0  0  0  0  0  0
   57.2056   30.7007   42.4100 H   0  0  0  0  0  0  0  0  0  0  0  0
   59.6376   30.4199   43.9989 H   0  0  0  0  0  0  0  0  0  0  0  0
   60.5622   28.5676   45.3913 H   0  0  0  0  0  0  0  0  0  0  0  0
   59.0217   26.9461   46.5009 H   0  0  0  0  0  0  0  0  0  0  0  0
   56.5532   27.1814   46.2273 H   0  0  0  0  0  0  0  0  0  0  0  0
  1  2  1  0
  2  3  1  0
  3  4  1  0
  4  5  2  0
  5  6  1  0
  6  7  2  0
  7  8  1  0
  8  9  2  0
  3 10  2  0
 10 11  1  0
 11 12  2  0
 12 13  1  0
 13 14  1  0
 14 15  1  0
 15 16  1  0
 16 17  2  0
 17 18  1  0
 18 19  2  0
 19 20  1  0
 20 21  2  0
 21 22  1  0
 12  2  1  0
 21 16  1  0
  9  4  1  0
  1 23  1  0
  1 24  1  0
  1 25  1  0
  5 26  1  0
  6 27  1  0
  7 28  1  0
  8 29  1  0
 11 30  1  0
 14 31  1  0
 14 32  1  0
 15 33  1  0
 15 34  1  0
 17 35  1  0
 18 36  1  0
 19 37  1  0
 20 38  1  0
M  CHG  1  11   1
M  END
>  <UniqueID>  (16) 
16

>  <SMILES>  (16) 
Cn1c(-c2ccccn2)n[nH+]c1SCCc1ccccc1F

>  <Energy>  (16) 
73.68049234486654

>  <Genealogy>  (16) 
Cn1c(-c2ccccn2)n[nH+]c1SCCc1ccccc1F (protonated)
Cn1c(-c2ccccn2)n[nH+]c1SCCc1ccccc1F (3D coordinates assigned)
Cn1c(-c2ccccn2)n[nH+]c1SCCc1ccccc1F (optimized conformer: 73.68049234486654 kcal/mol)

>  <smiles>  (16) 
Cn1c(SCCc2ccccc2F)nnc1-c1ccccn1

>  <score_type>  (16) 
oracle

>  <origin>  (16) 
adg

>  <m_score__min__energy>  (16) 
-6.4900000000000002

>  <m_primary>  (16) 
energy

$$$$
16:0
     RDKit          3D

 60 63  0  0  0  0  0  0  0  0999 V2000
   64.8110   32.3970   50.2790 C   0  0  0  0  0  0  0  0  0  0  0  0
   64.2070   32.2600   48.8740 C   0  0  0  0  0  0  0  0  0  0  0  0
   62.7440   32.5100   48.8430 N   0  0  2  0  0  0  0  0  0  0  0  0
   62.3030   32.8910   47.4860 C   0  0  0  0  0  0  0  0  0  0  0  0
   62.3750   33.5750   49.8230 C   0  0  0  0  0  0  0  0  0  0  0  0
   61.0050   34.2190   49.5220 C   0  0  0  0  0  0  0  0  0  0  0  0
   59.8350   33.2380   49.6130 C   0  0  0  0  0  0  0  0  0  0  0  0
   60.3080   31.9360   49.9460 O   0  0  0  0  0  0  0  0  0  0  0  0
   60.1420   30.8550   49.0810 C   0  0  0  0  0  0  0  0  0  0  0  0
   59.1170   30.8940   48.1310 C   0  0  0  0  0  0  0  0  0  0  0  0
   58.9490   29.8410   47.2150 C   0  0  0  0  0  0  0  0  0  0  0  0
   59.7250   28.6720   47.3730 C   0  0  0  0  0  0  0  0  0  0  0  0
   60.7570   28.6370   48.3210 C   0  0  0  0  0  0  0  0  0  0  0  0
   60.9780   29.7330   49.1750 C   0  0  0  0  0  0  0  0  0  0  0  0
   61.9970   29.7320   50.1420 O   0  0  0  0  0  0  0  0  0  0  0  0
   61.7820   29.5780   51.5410 C   0  0  0  0  0  0  0  0  0  0  0  0
   59.4410   27.4670   46.5100 C   0  0  0  0  0  0  0  0  0  0  0  0
   57.9300   27.3320   46.2660 C   0  0  0  0  0  0  0  0  0  0  0  0
   57.3620   28.6220   45.7360 C   0  0  0  0  0  0  0  0  0  0  0  0
   56.3100   28.5850   44.8780 N   0  0  0  0  0  0  0  0  0  0  0  0
   55.7910   29.7240   44.3600 C   0  0  0  0  0  0  0  0  0  0  0  0
   54.8060   29.6690   43.5810 O   0  0  0  0  0  0  0  0  0  0  0  0
   56.3500   30.9220   44.6620 N   0  0  0  0  0  0  0  0  0  0  0  0
   57.4040   31.0290   45.5160 C   0  0  0  0  0  0  0  0  0  0  0  0
   58.0520   32.3550   45.6340 C   0  0  0  0  0  0  0  0  0  0  0  0
   58.8020   32.8890   44.5690 C   0  0  0  0  0  0  0  0  0  0  0  0
   59.3910   34.1520   44.6830 C   0  0  0  0  0  0  0  0  0  0  0  0
   59.2100   34.9050   45.8450 C   0  0  0  0  0  0  0  0  0  0  0  0
   58.4400   34.3970   46.8940 C   0  0  0  0  0  0  0  0  0  0  0  0
   57.8600   33.1290   46.7900 C   0  0  0  0  0  0  0  0  0  0  0  0
   57.8930   29.8590   46.1550 C   0  0  0  0  0  0  0  0  0  0  0  0
   64.0298   32.2198   51.0328 H   0  0  0  0  0  0  0  0  0  0  0  0
   65.6166   31.6588   50.4054 H   0  0  0  0  0  0  0  0  0  0  0  0
   65.2193   33.4106   50.4054 H   0  0  0  0  0  0  0  0  0  0  0  0
   64.7002   32.9839   48.2086 H   0  0  0  0  0  0  0  0  0  0  0  0
   64.3699   31.2227   48.5463 H   0  0  0  0  0  0  0  0  0  0  0  0
   62.2650   31.6120   49.0930 H   0  0  0  0  0  0  0  0  0  0  0  0
   61.4724   33.6086   47.5583 H   0  0  0  0  0  0  0  0  0  0  0  0
   63.1412   33.3537   46.9445 H   0  0  0  0  0  0  0  0  0  0  0  0
   61.9669   31.9945   46.9445 H   0  0  0  0  0  0  0  0  0  0  0  0
   62.3405   33.1302   50.8285 H   0  0  0  0  0  0  0  0  0  0  0  0
   63.1350   34.3670   49.7519 H   0  0  0  0  0  0  0  0  0  0  0  0
   60.8356   35.0305   50.2450 H   0  0  0  0  0  0  0  0  0  0  0  0
   61.0406   34.5840   48.4849 H   0  0  0  0  0  0  0  0  0  0  0  0
   59.1344   33.5794   50.3893 H   0  0  0  0  0  0  0  0  0  0  0  0
   59.3258   33.1961   48.6389 H   0  0  0  0  0  0  0  0  0  0  0  0
   58.4355   31.7569   48.1000 H   0  0  0  0  0  0  0  0  0  0  0  0
   61.3984   27.7466   48.3977 H   0  0  0  0  0  0  0  0  0  0  0  0
   62.5551   30.1317   52.0939 H   0  0  0  0  0  0  0  0  0  0  0  0
   60.7894   29.9718   51.8050 H   0  0  0  0  0  0  0  0  0  0  0  0
   61.8354   28.5115   51.8050 H   0  0  0  0  0  0  0  0  0  0  0  0
   59.9559   27.5821   45.5448 H   0  0  0  0  0  0  0  0  0  0  0  0
   59.8032   26.5645   47.0241 H   0  0  0  0  0  0  0  0  0  0  0  0
   57.7521   26.5307   45.5337 H   0  0  0  0  0  0  0  0  0  0  0  0
   57.4366   27.0922   47.2194 H   0  0  0  0  0  0  0  0  0  0  0  0
   58.9253   32.3095   43.6422 H   0  0  0  0  0  0  0  0  0  0  0  0
   59.9971   34.5526   43.8571 H   0  0  0  0  0  0  0  0  0  0  0  0
   59.6739   35.8984   45.9343 H   0  0  0  0  0  0  0  0  0  0  0  0
   58.2896   34.9961   47.8042 H   0  0  0  0  0  0  0  0  0  0  0  0
   57.2507   32.7360   47.6172 H   0  0  0  0  0  0  0  0  0  0  0  0
  1  2  1  0
  2  3  1  0
  3  4  1  0
  3  5  1  0
  5  6  1  0
  6  7  1  0
  7  8  1  0
  8  9  1  0
  9 10  2  0
 10 11  1  0
 11 12  2  0
 12 13  1  0
 13 14  2  0
 14 15  1  0
 15 16  1  0
 12 17  1  0
 17 18  1  0
 18 19  1  0
 19 20  1  0
 20 21  1  0
 21 22  2  0
 21 23  1  0
 23 24  2  0
 24 25  1  0
 25 26  2  0
 26 27  1  0
 27 28  2  0
 28 29  1  0
 29 30  2  0
 24 31  1  0
 14  9  1  0
 31 19  2  0
 31 11  1  0
 30 25  1  0
  1 32  1  0
  1 33  1  0
  1 34  1  0
  2 35  1  0
  2 36  1  0
  3 37  1  1
  4 38  1  0
  4 39  1  0
  4 40  1  0
  5 41  1  0
  5 42  1  0
  6 43  1  0
  6 44  1  0
  7 45  1  0
  7 46  1  0
 10 47  1  0
 13 48  1  0
 16 49  1  0
 16 50  1  0
 16 51  1  0
 17 52  1  0
 17 53  1  0
 18 54  1  0
 18 55  1  0
 26 56  1  0
 27 57  1  0
 28 58  1  0
 29 59  1  0
 30 60  1  0
M  CHG  2   3   1  20  -1
M  END
>  <UniqueID>  (17) 
17

>  <SMILES>  (17) 
CC[N@H+](C)CCCOc1cc2c(cc1OC)CCc1[n-]c(=O)nc(-c3ccccc3)c1-2

>  <Energy>  (17) 
82.52218338874258

>  <Genealogy>  (17) 
CC[NH+](C)CCCOc1cc2c(cc1OC)CCc1[n-]c(=O)nc(-c3ccccc3)c1-2 (protonated)
CC[N@H+](C)CCCOc1cc2c(cc1OC)CCc1[n-]c(=O)nc(-c3ccccc3)c1-2 (chirality)
CC[N@H+](C)CCCOc1cc2c(cc1OC)CCc1[n-]c(=O)nc(-c3ccccc3)c1-2 (3D coordinates assigned)
CC[N@H+](C)CCCOc1cc2c(cc1OC)CCc1[n-]c(=O)nc(-c3ccccc3)c1-2 (nonaromatic ring conformer: 82.52218338874258 kcal/mol)

>  <smiles>  (17) 
CCN(C)CCCOc1cc2c(cc1OC)CCc1[nH]c(=O)nc(-c3ccccc3)c1-2

>  <score_type>  (17) 
oracle

>  <origin>  (17) 
adg

>  <m_score__min__energy>  (17) 
-8.1099999999999994

>  <m_primary>  (17) 
energy

$$$$
17:0
     RDKit          3D

 47 49  0  0  0  0  0  0  0  0999 V2000
   56.2940   29.8430   42.7390 C   0  0  0  0  0  0  0  0  0  0  0  0
   55.7480   30.3310   44.0760 C   0  0  0  0  0  0  0  0  0  0  0  0
   55.8440   29.2650   45.0800 N   0  0  0  0  0  0  0  0  0  0  0  0
   57.0600   28.4730   44.8660 C   0  0  0  0  0  0  0  0  0  0  0  0
   58.2970   29.3200   45.1670 C   0  0  0  0  0  0  0  0  0  0  0  0
   57.9520   30.4610   46.0160 N   0  0  0  0  0  0  0  0  0  0  0  0
   58.9760   31.2080   46.6860 C   0  0  0  0  0  0  0  0  0  0  0  0
   59.7220   30.6030   47.7100 C   0  0  0  0  0  0  0  0  0  0  0  0
   60.6940   31.3660   48.4090 C   0  0  0  0  0  0  0  0  0  0  0  0
   60.9820   32.6590   48.0050 N   0  0  0  0  0  0  0  0  0  0  0  0
   62.1220   33.3900   48.6030 C   0  0  0  0  0  0  0  0  0  0  0  0
   60.2010   33.2830   47.0480 C   0  0  0  0  0  0  0  0  0  0  0  0
   60.3520   34.6610   46.7400 C   0  0  0  0  0  0  0  0  0  0  0  0
   59.5920   35.2630   45.7370 C   0  0  0  0  0  0  0  0  0  0  0  0
   58.6630   34.5190   45.0210 C   0  0  0  0  0  0  0  0  0  0  0  0
   58.4670   33.1730   45.3230 C   0  0  0  0  0  0  0  0  0  0  0  0
   59.2080   32.5500   46.3480 C   0  0  0  0  0  0  0  0  0  0  0  0
   61.4600   30.7270   49.5640 C   0  0  0  0  0  0  0  0  0  0  0  0
   60.7990   29.4720   50.1300 C   0  0  0  0  0  0  0  0  0  0  0  0
   60.4390   28.5250   48.9970 C   0  0  0  0  0  0  0  0  0  0  0  0
   59.3860   29.1730   48.1040 C   0  0  0  0  0  0  0  0  0  0  0  0
   57.1035   29.1195   42.9156 H   0  0  0  0  0  0  0  0  0  0  0  0
   55.4877   29.3590   42.1683 H   0  0  0  0  0  0  0  0  0  0  0  0
   56.6848   30.6984   42.1683 H   0  0  0  0  0  0  0  0  0  0  0  0
   56.3320   31.2006   44.4118 H   0  0  0  0  0  0  0  0  0  0  0  0
   54.6924   30.6141   43.9517 H   0  0  0  0  0  0  0  0  0  0  0  0
   55.9200   29.7190   46.0210 H   0  0  0  0  0  0  0  0  0  0  0  0
   57.0467   27.5982   45.5328 H   0  0  0  0  0  0  0  0  0  0  0  0
   57.0954   28.1430   43.8173 H   0  0  0  0  0  0  0  0  0  0  0  0
   59.0426   28.6982   45.6841 H   0  0  0  0  0  0  0  0  0  0  0  0
   58.7050   29.6976   44.2178 H   0  0  0  0  0  0  0  0  0  0  0  0
   56.9660   30.8020   46.0790 H   0  0  0  0  0  0  0  0  0  0  0  0
   62.0517   33.3449   49.6998 H   0  0  0  0  0  0  0  0  0  0  0  0
   63.0655   32.9281   48.2768 H   0  0  0  0  0  0  0  0  0  0  0  0
   62.0959   34.4402   48.2768 H   0  0  0  0  0  0  0  0  0  0  0  0
   61.0806   35.2639   47.3018 H   0  0  0  0  0  0  0  0  0  0  0  0
   59.7290   36.3311   45.5123 H   0  0  0  0  0  0  0  0  0  0  0  0
   58.0821   34.9923   44.2157 H   0  0  0  0  0  0  0  0  0  0  0  0
   57.7263   32.5903   44.7557 H   0  0  0  0  0  0  0  0  0  0  0  0
   62.4643   30.4570   49.2054 H   0  0  0  0  0  0  0  0  0  0  0  0
   61.4849   31.4674   50.3771 H   0  0  0  0  0  0  0  0  0  0  0  0
   61.4959   28.9706   50.8177 H   0  0  0  0  0  0  0  0  0  0  0  0
   59.8843   29.7555   50.6713 H   0  0  0  0  0  0  0  0  0  0  0  0
   61.3385   28.3062   48.4029 H   0  0  0  0  0  0  0  0  0  0  0  0
   60.0380   27.5901   49.4156 H   0  0  0  0  0  0  0  0  0  0  0  0
   59.2896   28.5727   47.1873 H   0  0  0  0  0  0  0  0  0  0  0  0
   58.4497   29.2075   48.6803 H   0  0  0  0  0  0  0  0  0  0  0  0
  1  2  1  0
  2  3  1  0
  3  4  1  0
  4  5  1  0
  5  6  1  0
  6  7  1  0
  7  8  2  0
  8  9  1  0
  9 10  2  0
 10 11  1  0
 10 12  1  0
 12 13  2  0
 13 14  1  0
 14 15  2  0
 15 16  1  0
 16 17  2  0
  9 18  1  0
 18 19  1  0
 19 20  1  0
 20 21  1  0
 17  7  1  0
 21  8  1  0
 17 12  1  0
  1 22  1  0
  1 23  1  0
  1 24  1  0
  2 25  1  0
  2 26  1  0
  3 27  1  0
  4 28  1  0
  4 29  1  0
  5 30  1  0
  5 31  1  0
  6 32  1  0
 11 33  1  0
 11 34  1  0
 11 35  1  0
 13 36  1  0
 14 37  1  0
 15 38  1  0
 16 39  1  0
 18 40  1  0
 18 41  1  0
 19 42  1  0
 19 43  1  0
 20 44  1  0
 20 45  1  0
 21 46  1  0
 21 47  1  0
M  CHG  1  10   1
M  END
>  <UniqueID>  (18) 
18

>  <SMILES>  (18) 
CCNCCNc1c2c([n+](C)c3ccccc13)CCCC2

>  <Energy>  (18) 
61.403417875920624

>  <Genealogy>  (18) 
CCNCCNc1c2c([n+](C)c3ccccc13)CCCC2 (3D coordinates assigned)
CCNCCNc1c2c([n+](C)c3ccccc13)CCCC2 (nonaromatic ring conformer: 61.403417875920624 kcal/mol)

>  <smiles>  (18) 
CCNCCNc1c2c([n+](C)c3ccccc13)CCCC2

>  <score_type>  (18) 
oracle

>  <origin>  (18) 
adg

>  <m_score__min__energy>  (18) 
-5.9400000000000004

>  <m_primary>  (18) 
energy

$$$$
18:0
     RDKit          3D

 34 36  0  0  0  0  0  0  0  0999 V2000
   50.4750   33.2700   54.4170 C   0  0  0  0  0  0  0  0  0  0  0  0
   49.9610   32.5730   53.1680 C   0  0  0  0  0  0  0  0  0  0  0  0
   50.6530   33.0900   51.9960 N   0  0  0  0  0  0  0  0  0  0  0  0
   51.3510   32.2480   51.0750 C   0  0  0  0  0  0  0  0  0  0  0  0
   51.0780   32.2820   49.8450 O   0  0  0  0  0  0  0  0  0  0  0  0
   52.3910   31.3400   51.5730 C   0  0  0  0  0  0  0  0  0  0  0  0
   52.1820   30.1220   52.1900 C   0  0  0  0  0  0  0  0  0  0  0  0
   53.4360   29.6290   52.4800 C   0  0  0  0  0  0  0  0  0  0  0  0
   54.3370   30.5810   52.0210 C   0  0  0  0  0  0  0  0  0  0  0  0
   55.8150   30.5210   52.0970 C   0  0  0  0  0  0  0  0  0  0  0  0
   56.4240   29.4940   52.8360 C   0  0  0  0  0  0  0  0  0  0  0  0
   57.8130   29.4250   52.9180 C   0  0  0  0  0  0  0  0  0  0  0  0
   58.5980   30.3780   52.2630 C   0  0  0  0  0  0  0  0  0  0  0  0
   59.9990   30.3320   52.3290 C   0  0  0  0  0  0  0  0  0  0  0  0
   60.7640   31.2970   51.6660 C   0  0  0  0  0  0  0  0  0  0  0  0
   62.5150   31.2370   51.7500 Cl  0  0  0  0  0  0  0  0  0  0  0  0
   60.1340   32.3110   50.9360 C   0  0  0  0  0  0  0  0  0  0  0  0
   58.7390   32.3650   50.8650 C   0  0  0  0  0  0  0  0  0  0  0  0
   57.9590   31.4020   51.5260 C   0  0  0  0  0  0  0  0  0  0  0  0
   56.5960   31.4480   51.4620 N   0  0  0  0  0  0  0  0  0  0  0  0
   53.6780   31.5850   51.4870 O   0  0  0  0  0  0  0  0  0  0  0  0
   50.0932   32.7522   55.3093 H   0  0  0  0  0  0  0  0  0  0  0  0
   51.5748   33.2480   54.4229 H   0  0  0  0  0  0  0  0  0  0  0  0
   50.1291   34.3142   54.4229 H   0  0  0  0  0  0  0  0  0  0  0  0
   50.1428   31.4914   53.2521 H   0  0  0  0  0  0  0  0  0  0  0  0
   48.8819   32.7600   53.0652 H   0  0  0  0  0  0  0  0  0  0  0  0
   51.2148   29.6443   52.4054 H   0  0  0  0  0  0  0  0  0  0  0  0
   53.6746   28.6757   52.9743 H   0  0  0  0  0  0  0  0  0  0  0  0
   55.8046   28.7442   53.3500 H   0  0  0  0  0  0  0  0  0  0  0  0
   58.2913   28.6216   53.4975 H   0  0  0  0  0  0  0  0  0  0  0  0
   60.4961   29.5360   52.9029 H   0  0  0  0  0  0  0  0  0  0  0  0
   60.7388   33.0685   50.4160 H   0  0  0  0  0  0  0  0  0  0  0  0
   58.2502   33.1648   50.2892 H   0  0  0  0  0  0  0  0  0  0  0  0
   56.1490   32.2130   50.9110 H   0  0  0  0  0  0  0  0  0  0  0  0
  1  2  1  0
  2  3  1  0
  3  4  1  0
  4  5  2  0
  4  6  1  0
  6  7  2  0
  7  8  1  0
  8  9  2  0
  9 10  1  0
 10 11  2  0
 11 12  1  0
 12 13  2  0
 13 14  1  0
 14 15  2  0
 15 16  1  0
 15 17  1  0
 17 18  2  0
 18 19  1  0
 19 20  2  0
  9 21  1  0
 21  6  1  0
 20 10  1  0
 19 13  1  0
  1 22  1  0
  1 23  1  0
  1 24  1  0
  2 25  1  0
  2 26  1  0
  7 27  1  0
  8 28  1  0
 11 29  1  0
 12 30  1  0
 14 31  1  0
 17 32  1  0
 18 33  1  0
 20 34  1  0
M  CHG  2   3  -1  20   1
M  END
>  <UniqueID>  (19) 
19

>  <SMILES>  (19) 
CC[N-]C(=O)c1ccc(-c2ccc3cc(Cl)ccc3[nH+]2)o1

>  <Energy>  (19) 
59.96364706638047

>  <Genealogy>  (19) 
CC[N-]C(=O)c1ccc(-c2ccc3cc(Cl)ccc3[nH+]2)o1 (protonated)
CC[N-]C(=O)c1ccc(-c2ccc3cc(Cl)ccc3[nH+]2)o1 (3D coordinates assigned)
CC[N-]C(=O)c1ccc(-c2ccc3cc(Cl)ccc3[nH+]2)o1 (optimized conformer: 59.96364706638047 kcal/mol)

>  <smiles>  (19) 
CCNC(=O)c1ccc(-c2ccc3cc(Cl)ccc3n2)o1

>  <score_type>  (19) 
oracle

>  <origin>  (19) 
adg

>  <m_score__min__energy>  (19) 
-8.2699999999999996

>  <m_primary>  (19) 
energy

$$$$
19:0
     RDKit          3D

 46 48  0  0  0  0  0  0  0  0999 V2000
   58.2188   35.3177   45.7151 H   0  0  0  0  0  0  0  0  0  0  0  0
   58.3520   34.2260   45.7370 C   0  0  0  0  0  0  0  0  0  0  0  0
   59.5120   33.6780   46.2830 C   0  0  0  0  0  0  0  0  0  0  0  0
   60.2949   34.3375   46.6855 H   0  0  0  0  0  0  0  0  0  0  0  0
   59.6800   32.2940   46.3190 C   0  0  0  0  0  0  0  0  0  0  0  0
   60.5992   31.8665   46.7460 H   0  0  0  0  0  0  0  0  0  0  0  0
   58.6840   31.4420   45.8140 C   0  0  0  0  0  0  0  0  0  0  0  0
   58.8680   30.0160   45.8730 N   0  0  0  0  0  0  0  0  0  0  0  0
   58.4080   29.2870   47.0680 C   0  0  0  0  0  0  0  0  0  0  0  0
   57.3207   29.1373   46.9946 H   0  0  0  0  0  0  0  0  0  0  0  0
   58.6714   29.8873   47.9513 H   0  0  0  0  0  0  0  0  0  0  0  0
   59.0890   27.9130   47.2110 C   0  0  0  0  0  0  0  0  0  0  0  0
   59.0028   27.5823   48.2566 H   0  0  0  0  0  0  0  0  0  0  0  0
   60.1414   28.0255   46.9115 H   0  0  0  0  0  0  0  0  0  0  0  0
   58.4790   26.8960   46.3410 N   0  0  0  0  0  0  0  0  0  0  0  0
   57.4360   26.0420   46.8510 C   0  0  0  0  0  0  0  0  0  0  0  0
   57.7270   25.1170   47.6550 O   0  0  0  0  0  0  0  0  0  0  0  0
   56.0700   26.1900   46.4350 N   0  0  0  0  0  0  0  0  0  0  0  0
   55.3840   25.3070   45.7740 C   0  0  0  0  0  0  0  0  0  0  0  0
   54.0380   25.2730   45.7080 N   0  0  0  0  0  0  0  0  0  0  0  0
   53.7230   24.2230   44.9680 N   0  0  0  0  0  0  0  0  0  0  0  0
   52.3550   23.7980   44.7040 C   0  0  0  0  0  0  0  0  0  0  0  0
   51.8311   23.6353   45.6575 H   0  0  0  0  0  0  0  0  0  0  0  0
   51.8339   24.5766   44.1276 H   0  0  0  0  0  0  0  0  0  0  0  0
   52.3669   22.8612   44.1276 H   0  0  0  0  0  0  0  0  0  0  0  0
   54.8390   23.5700   44.5870 C   0  0  0  0  0  0  0  0  0  0  0  0
   54.8715   22.6534   43.9798 H   0  0  0  0  0  0  0  0  0  0  0  0
   55.9340   24.2450   45.0870 C   0  0  0  0  0  0  0  0  0  0  0  0
   56.9982   23.9943   44.9658 H   0  0  0  0  0  0  0  0  0  0  0  0
   58.8340   26.8320   44.9170 C   0  0  0  0  0  0  0  0  0  0  0  0
   58.2374   26.0402   44.4404 H   0  0  0  0  0  0  0  0  0  0  0  0
   59.9119   26.6228   44.8513 H   0  0  0  0  0  0  0  0  0  0  0  0
   58.5700   28.1610   44.1800 C   0  0  0  0  0  0  0  0  0  0  0  0
   57.5107   28.4273   44.3105 H   0  0  0  0  0  0  0  0  0  0  0  0
   58.8327   28.0035   43.1235 H   0  0  0  0  0  0  0  0  0  0  0  0
   59.4330   29.3280   44.6930 C   0  0  0  0  0  0  0  0  0  0  0  0
   59.5397   30.0629   43.8815 H   0  0  0  0  0  0  0  0  0  0  0  0
   60.3974   28.8999   45.0039 H   0  0  0  0  0  0  0  0  0  0  0  0
   57.5170   31.9930   45.2420 C   0  0  0  0  0  0  0  0  0  0  0  0
   56.5560   31.1290   44.6960 O   0  0  0  0  0  0  0  0  0  0  0  0
   56.6150   30.5810   43.3830 C   0  0  0  0  0  0  0  0  0  0  0  0
   56.7326   29.4891   43.4463 H   0  0  0  0  0  0  0  0  0  0  0  0
   55.6860   30.8191   42.8442 H   0  0  0  0  0  0  0  0  0  0  0  0
   57.4720   31.0114   42.8442 H   0  0  0  0  0  0  0  0  0  0  0  0
   57.3590   33.3930   45.2180 C   0  0  0  0  0  0  0  0  0  0  0  0
   56.4472   33.8326   44.7875 H   0  0  0  0  0  0  0  0  0  0  0  0
  1  2  1  0
  2  3  2  0
  3  4  1  0
  3  5  1  0
  5  6  1  0
  5  7  2  0
  7  8  1  0
  8  9  1  0
  9 10  1  0
  9 11  1  0
  9 12  1  0
 12 13  1  0
 12 14  1  0
 12 15  1  0
 15 16  1  0
 16 17  2  0
 16 18  1  0
 18 19  2  0
 19 20  1  0
 20 21  1  0
 21 22  1  0
 22 23  1  0
 22 24  1  0
 22 25  1  0
 21 26  1  0
 26 27  1  0
 26 28  2  0
 28 29  1  0
 15 30  1  0
 30 31  1  0
 30 32  1  0
 30 33  1  0
 33 34  1  0
 33 35  1  0
 33 36  1  0
 36 37  1  0
 36 38  1  0
  7 39  1  0
 39 40  1  0
 40 41  1  0
 41 42  1  0
 41 43  1  0
 41 44  1  0
 39 45  2  0
 45 46  1  0
 45  2  1  0
 36  8  1  0
 28 19  1  0
M  CHG  1  20  -1
M  END
>  <UniqueID>  (20) 
20

>  <SMILES>  (20) 
COc1ccccc1N1CCCN(C(=O)/N=c2/ccn(C)[n-]2)CC1

>  <Energy>  (20) 
91.3910767499434

>  <Genealogy>  (20) 
COc1ccccc1N1CCCN(C(=O)N=c2ccn(C)[n-]2)CC1 (protonated)
COc1ccccc1N1CCCN(C(=O)/N=c2/ccn(C)[n-]2)CC1 (cis-trans isomerization)
COc1ccccc1N1CCCN(C(=O)/N=c2/ccn(C)[n-]2)CC1 (3D coordinates assigned)
COc1ccccc1N1CCCN(C(=O)/N=c2/ccn(C)[n-]2)CC1 (nonaromatic ring conformer: 91.3910767499434 kcal/mol)

>  <smiles>  (20) 
COc1ccccc1N1CCCN(C(=O)N=c2ccn(C)[nH]2)CC1

>  <score_type>  (20) 
oracle

>  <origin>  (20) 
adg

>  <m_score__min__energy>  (20) 
-6.9900000000000002

>  <m_primary>  (20) 
energy

$$$$
20:0
     RDKit          3D

 32 33  0  0  0  0  0  0  0  0999 V2000
   56.9380   31.4880   52.0440 C   0  0  0  0  0  0  0  0  0  0  0  0
   57.5540   30.0880   51.9770 C   0  0  0  0  0  0  0  0  0  0  0  0
   57.1410   29.2430   53.1200 N   0  0  0  0  0  0  0  0  0  0  0  0
   56.9250   30.0070   54.3640 C   0  0  0  0  0  0  0  0  0  0  0  0
   55.6160   29.6360   55.0810 C   0  0  0  0  0  0  0  0  0  0  0  0
   54.6680   29.0660   54.1770 O   0  0  0  0  0  0  0  0  0  0  0  0
   53.8550   29.7820   53.2850 C   0  0  0  0  0  0  0  0  0  0  0  0
   54.0210   29.7180   51.8750 C   0  0  0  0  0  0  0  0  0  0  0  0
   53.1800   30.4540   51.0240 C   0  0  0  0  0  0  0  0  0  0  0  0
   52.1900   31.2420   51.6010 C   0  0  0  0  0  0  0  0  0  0  0  0
   52.0200   31.3190   52.9610 C   0  0  0  0  0  0  0  0  0  0  0  0
   52.8420   30.5980   53.8260 C   0  0  0  0  0  0  0  0  0  0  0  0
   50.8860   32.2400   53.3080 C   0  0  0  0  0  0  0  0  0  0  0  0
   50.3960   32.7070   52.0060 N   0  0  0  0  0  0  0  0  0  0  0  0
   51.1960   32.0930   51.0030 C   0  0  0  0  0  0  0  0  0  0  0  0
   51.0390   32.2820   49.7690 O   0  0  0  0  0  0  0  0  0  0  0  0
   56.8087   31.7818   53.0961 H   0  0  0  0  0  0  0  0  0  0  0  0
   57.6034   32.2058   51.5420 H   0  0  0  0  0  0  0  0  0  0  0  0
   55.9592   31.4823   51.5420 H   0  0  0  0  0  0  0  0  0  0  0  0
   57.2327   29.6034   51.0432 H   0  0  0  0  0  0  0  0  0  0  0  0
   58.6480   30.1970   52.0140 H   0  0  0  0  0  0  0  0  0  0  0  0
   57.8170   28.4620   53.2930 H   0  0  0  0  0  0  0  0  0  0  0  0
   56.2280   28.7920   52.8770 H   0  0  0  0  0  0  0  0  0  0  0  0
   57.7654   29.8103   55.0459 H   0  0  0  0  0  0  0  0  0  0  0  0
   56.8579   31.0698   54.0884 H   0  0  0  0  0  0  0  0  0  0  0  0
   55.8371   28.9066   55.8741 H   0  0  0  0  0  0  0  0  0  0  0  0
   55.1815   30.5539   55.5037 H   0  0  0  0  0  0  0  0  0  0  0  0
   54.8141   29.0873   51.4468 H   0  0  0  0  0  0  0  0  0  0  0  0
   53.3011   30.4083   49.9316 H   0  0  0  0  0  0  0  0  0  0  0  0
   52.7016   30.6653   54.9149 H   0  0  0  0  0  0  0  0  0  0  0  0
   50.0968   31.7005   53.8521 H   0  0  0  0  0  0  0  0  0  0  0  0
   51.1975   33.0662   53.9640 H   0  0  0  0  0  0  0  0  0  0  0  0
  1  2  1  0
  2  3  1  0
  3  4  1  0
  4  5  1  0
  5  6  1  0
  6  7  1  0
  7  8  2  0
  8  9  1  0
  9 10  2  0
 10 11  1  0
 11 12  2  0
 11 13  1  0
 13 14  1  0
 14 15  1  0
 15 16  2  0
 12  7  1  0
 15 10  1  0
  1 17  1  0
  1 18  1  0
  1 19  1  0
  2 20  1  0
  2 21  1  0
  3 22  1  0
  3 23  1  0
  4 24  1  0
  4 25  1  0
  5 26  1  0
  5 27  1  0
  8 28  1  0
  9 29  1  0
 12 30  1  0
 13 31  1  0
 13 32  1  0
M  CHG  2   3   1  14  -1
M  END
>  <UniqueID>  (21) 
21

>  <SMILES>  (21) 
CC[NH2+]CCOc1ccc2c(c1)C[N-]C2=O

>  <Energy>  (21) 
53.36050964238878

>  <Genealogy>  (21) 
CC[NH2+]CCOc1ccc2c(c1)C[N-]C2=O (protonated)
CC[NH2+]CCOc1ccc2c(c1)C[N-]C2=O (3D coordinates assigned)
CC[NH2+]CCOc1ccc2c(c1)C[N-]C2=O (nonaromatic ring conformer: 53.36050964238878 kcal/mol)

>  <smiles>  (21) 
CCNCCOc1ccc2c(c1)CNC2=O

>  <score_type>  (21) 
oracle

>  <origin>  (21) 
adg

>  <m_score__min__energy>  (21) 
-6.3700000000000001

>  <m_primary>  (21) 
energy

$$$$
21:0
     RDKit          3D

 56 59  0  0  0  0  0  0  0  0999 V2000
   55.6980   28.5810   44.9260 O   0  0  0  0  0  0  0  0  0  0  0  0
   56.4290   29.5550   44.6070 C   0  0  0  0  0  0  0  0  0  0  0  0
   56.7550   29.8200   43.1640 C   0  0  0  0  0  0  0  0  0  0  0  0
   56.9180   31.3240   42.9040 C   0  0  0  0  0  0  0  0  0  0  0  0
   57.7810   31.9960   43.9490 C   0  0  0  0  0  0  0  0  0  0  0  0
   58.5140   33.1470   43.6310 C   0  0  0  0  0  0  0  0  0  0  0  0
   59.2460   33.8170   44.6170 C   0  0  0  0  0  0  0  0  0  0  0  0
   59.2360   33.3590   45.9490 C   0  0  0  0  0  0  0  0  0  0  0  0
   59.9390   34.0040   46.9820 O   0  0  0  0  0  0  0  0  0  0  0  0
   61.3560   34.1990   47.0260 C   0  0  0  0  0  0  0  0  0  0  0  0
   62.0300   33.0860   47.8490 C   0  0  0  0  0  0  0  0  0  0  0  0
   61.1630   32.6000   49.0240 C   0  0  0  0  0  0  0  0  0  0  0  0
   61.5530   31.2130   49.5600 C   0  0  0  0  0  0  0  0  0  0  0  0
   60.8500   30.1490   48.8000 N   0  0  0  0  0  0  0  0  0  0  0  0
   59.4370   30.5000   48.4860 C   0  0  0  0  0  0  0  0  0  0  0  0
   58.5120   29.2760   48.3310 C   0  0  0  0  0  0  0  0  0  0  0  0
   59.2640   28.1280   47.8170 N   0  0  0  0  0  0  0  0  0  0  0  0
   58.7140   27.3140   46.7670 C   0  0  0  0  0  0  0  0  0  0  0  0
   57.8640   26.2420   47.0890 C   0  0  0  0  0  0  0  0  0  0  0  0
   57.2900   25.4610   46.0740 C   0  0  0  0  0  0  0  0  0  0  0  0
   57.5630   25.7450   44.7320 C   0  0  0  0  0  0  0  0  0  0  0  0
   58.4190   26.8040   44.4020 C   0  0  0  0  0  0  0  0  0  0  0  0
   58.9990   27.5910   45.4130 C   0  0  0  0  0  0  0  0  0  0  0  0
   60.0920   28.8940   44.9550 Cl  0  0  0  0  0  0  0  0  0  0  0  0
   60.5280   27.7400   48.4560 C   0  0  0  0  0  0  0  0  0  0  0  0
   60.9920   28.8240   49.4350 C   0  0  0  0  0  0  0  0  0  0  0  0
   58.5050   32.2060   46.2690 C   0  0  0  0  0  0  0  0  0  0  0  0
   57.7740   31.5290   45.2820 C   0  0  0  0  0  0  0  0  0  0  0  0
   57.0240   30.3620   45.6270 N   0  0  0  0  0  0  0  0  0  0  0  0
   57.6934   29.3068   42.9071 H   0  0  0  0  0  0  0  0  0  0  0  0
   55.9280   29.4447   42.5433 H   0  0  0  0  0  0  0  0  0  0  0  0
   57.3833   31.4642   41.9172 H   0  0  0  0  0  0  0  0  0  0  0  0
   55.9194   31.7833   42.9455 H   0  0  0  0  0  0  0  0  0  0  0  0
   58.5139   33.5265   42.5985 H   0  0  0  0  0  0  0  0  0  0  0  0
   59.8336   34.7078   44.3502 H   0  0  0  0  0  0  0  0  0  0  0  0
   61.7552   34.1832   46.0011 H   0  0  0  0  0  0  0  0  0  0  0  0
   61.5663   35.1686   47.5010 H   0  0  0  0  0  0  0  0  0  0  0  0
   62.2319   32.2323   47.1854 H   0  0  0  0  0  0  0  0  0  0  0  0
   62.9553   33.5036   48.2727 H   0  0  0  0  0  0  0  0  0  0  0  0
   61.2554   33.3262   49.8450 H   0  0  0  0  0  0  0  0  0  0  0  0
   60.1337   32.5158   48.6452 H   0  0  0  0  0  0  0  0  0  0  0  0
   62.6394   31.0761   49.4551 H   0  0  0  0  0  0  0  0  0  0  0  0
   61.2645   31.1454   50.6193 H   0  0  0  0  0  0  0  0  0  0  0  0
   59.0467   31.1289   49.2997 H   0  0  0  0  0  0  0  0  0  0  0  0
   59.4438   31.0215   47.5175 H   0  0  0  0  0  0  0  0  0  0  0  0
   58.0838   29.0191   49.3111 H   0  0  0  0  0  0  0  0  0  0  0  0
   57.7095   29.5234   47.6205 H   0  0  0  0  0  0  0  0  0  0  0  0
   57.6473   26.0137   48.1430 H   0  0  0  0  0  0  0  0  0  0  0  0
   56.6247   24.6246   46.3342 H   0  0  0  0  0  0  0  0  0  0  0  0
   57.1063   25.1377   43.9366 H   0  0  0  0  0  0  0  0  0  0  0  0
   58.6386   27.0211   43.3462 H   0  0  0  0  0  0  0  0  0  0  0  0
   60.3820   26.7970   49.0033 H   0  0  0  0  0  0  0  0  0  0  0  0
   61.2948   27.6131   47.6776 H   0  0  0  0  0  0  0  0  0  0  0  0
   60.3757   28.7850   50.3453 H   0  0  0  0  0  0  0  0  0  0  0  0
   62.0459   28.6539   49.7002 H   0  0  0  0  0  0  0  0  0  0  0  0
   58.5049   31.8294   47.3025 H   0  0  0  0  0  0  0  0  0  0  0  0
  1  2  2  0
  2  3  1  0
  3  4  1  0
  4  5  1  0
  5  6  2  0
  6  7  1  0
  7  8  2  0
  8  9  1  0
  9 10  1  0
 10 11  1  0
 11 12  1  0
 12 13  1  0
 13 14  1  0
 14 15  1  0
 15 16  1  0
 16 17  1  0
 17 18  1  0
 18 19  2  0
 19 20  1  0
 20 21  2  0
 21 22  1  0
 22 23  2  0
 23 24  1  0
 17 25  1  0
 25 26  1  0
  8 27  1  0
 27 28  2  0
 28 29  1  0
 29  2  1  0
 28  5  1  0
 26 14  1  0
 23 18  1  0
  3 30  1  0
  3 31  1  0
  4 32  1  0
  4 33  1  0
  6 34  1  0
  7 35  1  0
 10 36  1  0
 10 37  1  0
 11 38  1  0
 11 39  1  0
 12 40  1  0
 12 41  1  0
 13 42  1  0
 13 43  1  0
 15 44  1  0
 15 45  1  0
 16 46  1  0
 16 47  1  0
 19 48  1  0
 20 49  1  0
 21 50  1  0
 22 51  1  0
 25 52  1  0
 25 53  1  0
 26 54  1  0
 26 55  1  0
 27 56  1  0
M  CHG  1  29  -1
M  END
>  <UniqueID>  (22) 
22

>  <SMILES>  (22) 
O=C1CCc2ccc(OCCCCN3CCN(c4ccccc4Cl)CC3)cc2[N-]1

>  <Energy>  (22) 
68.51127479712594

>  <Genealogy>  (22) 
O=C1CCc2ccc(OCCCCN3CCN(c4ccccc4Cl)CC3)cc2[N-]1 (protonated)
O=C1CCc2ccc(OCCCCN3CCN(c4ccccc4Cl)CC3)cc2[N-]1 (3D coordinates assigned)
O=C1CCc2ccc(OCCCCN3CCN(c4ccccc4Cl)CC3)cc2[N-]1 (nonaromatic ring conformer: 68.51127479712594 kcal/mol)

>  <smiles>  (22) 
O=C1CCc2ccc(OCCCCN3CCN(c4ccccc4Cl)CC3)cc2N1

>  <score_type>  (22) 
oracle

>  <origin>  (22) 
adg

>  <m_score__min__energy>  (22) 
-11.52

>  <m_primary>  (22) 
energy

$$$$
22:0
     RDKit          3D

 44 47  0  0  0  0  0  0  0  0999 V2000
   62.5020   33.8430   45.6800 O   0  0  0  0  0  0  0  0  0  0  0  0
   61.9880   33.9260   46.8270 C   0  0  0  0  0  0  0  0  0  0  0  0
   62.8430   33.7270   48.0110 C   0  0  0  0  0  0  0  0  0  0  0  0
   62.4990   34.0940   49.3100 C   0  0  0  0  0  0  0  0  0  0  0  0
   63.5590   33.6820   50.0880 C   0  0  0  0  0  0  0  0  0  0  0  0
   63.7650   33.7760   51.4620 C   0  0  0  0  0  0  0  0  0  0  0  0
   64.9560   33.2380   51.9850 C   0  0  0  0  0  0  0  0  0  0  0  0
   65.8990   32.6220   51.1310 C   0  0  0  0  0  0  0  0  0  0  0  0
   67.5060   31.8900   51.8590 Br  0  0  0  0  0  0  0  0  0  0  0  0
   65.6590   32.5420   49.7460 C   0  0  0  0  0  0  0  0  0  0  0  0
   64.4740   33.0890   49.2570 C   0  0  0  0  0  0  0  0  0  0  0  0
   64.0470   33.1050   47.9850 N   0  0  0  0  0  0  0  0  0  0  0  0
   60.5810   34.1980   46.9580 N   0  0  0  0  0  0  0  0  0  0  0  0
   59.9230   35.1200   46.0270 C   0  0  0  0  0  0  0  0  0  0  0  0
   58.9010   34.3650   45.1690 C   0  0  0  0  0  0  0  0  0  0  0  0
   57.9670   33.4040   45.9860 C   0  0  0  0  0  0  0  0  0  0  0  0
   56.6470   33.8550   45.7570 O   0  0  0  0  0  0  0  0  0  0  0  0
   58.1050   31.9470   45.5010 C   0  0  0  0  0  0  0  0  0  0  0  0
   59.1310   31.1070   45.9920 C   0  0  0  0  0  0  0  0  0  0  0  0
   59.2740   29.7990   45.5210 C   0  0  0  0  0  0  0  0  0  0  0  0
   58.4090   29.3040   44.5460 C   0  0  0  0  0  0  0  0  0  0  0  0
   58.5520   28.0350   44.0930 F   0  0  0  0  0  0  0  0  0  0  0  0
   57.4020   30.1200   44.0340 C   0  0  0  0  0  0  0  0  0  0  0  0
   57.2530   31.4290   44.4990 C   0  0  0  0  0  0  0  0  0  0  0  0
   58.2670   33.4760   47.5200 C   0  0  0  0  0  0  0  0  0  0  0  0
   59.7620   33.3780   47.8600 C   0  0  0  0  0  0  0  0  0  0  0  0
   61.5815   34.6018   49.6422 H   0  0  0  0  0  0  0  0  0  0  0  0
   63.0219   34.2547   52.1167 H   0  0  0  0  0  0  0  0  0  0  0  0
   65.1542   33.2973   53.0654 H   0  0  0  0  0  0  0  0  0  0  0  0
   66.3837   32.0630   49.0712 H   0  0  0  0  0  0  0  0  0  0  0  0
   64.5260   32.6770   47.1610 H   0  0  0  0  0  0  0  0  0  0  0  0
   59.4079   35.9068   46.5977 H   0  0  0  0  0  0  0  0  0  0  0  0
   60.6820   35.5692   45.3696 H   0  0  0  0  0  0  0  0  0  0  0  0
   58.2704   35.1035   44.6523 H   0  0  0  0  0  0  0  0  0  0  0  0
   59.4738   33.7355   44.4722 H   0  0  0  0  0  0  0  0  0  0  0  0
   56.1610   33.9100   46.6220 H   0  0  0  0  0  0  0  0  0  0  0  0
   59.8259   31.4881   46.7548 H   0  0  0  0  0  0  0  0  0  0  0  0
   60.0726   29.1571   45.9213 H   0  0  0  0  0  0  0  0  0  0  0  0
   56.7221   29.7321   43.2611 H   0  0  0  0  0  0  0  0  0  0  0  0
   56.4607   32.0662   44.0791 H   0  0  0  0  0  0  0  0  0  0  0  0
   57.8850   34.4333   47.9044 H   0  0  0  0  0  0  0  0  0  0  0  0
   57.7730   32.6107   47.9861 H   0  0  0  0  0  0  0  0  0  0  0  0
   59.9156   33.7231   48.8931 H   0  0  0  0  0  0  0  0  0  0  0  0
   60.0712   32.3288   47.7438 H   0  0  0  0  0  0  0  0  0  0  0  0
  1  2  2  0
  2  3  1  0
  3  4  2  0
  4  5  1  0
  5  6  2  0
  6  7  1  0
  7  8  2  0
  8  9  1  0
  8 10  1  0
 10 11  2  0
 11 12  1  0
  2 13  1  0
 13 14  1  0
 14 15  1  0
 15 16  1  0
 16 17  1  0
 16 18  1  0
 18 19  2  0
 19 20  1  0
 20 21  2  0
 21 22  1  0
 21 23  1  0
 23 24  2  0
 16 25  1  0
 25 26  1  0
 12  3  1  0
 26 13  1  0
 11  5  1  0
 24 18  1  0
  4 27  1  0
  6 28  1  0
  7 29  1  0
 10 30  1  0
 12 31  1  0
 14 32  1  0
 14 33  1  0
 15 34  1  0
 15 35  1  0
 17 36  1  0
 19 37  1  0
 20 38  1  0
 23 39  1  0
 24 40  1  0
 25 41  1  0
 25 42  1  0
 26 43  1  0
 26 44  1  0
M  END
>  <UniqueID>  (23) 
23

>  <SMILES>  (23) 
O=C(c1cc2ccc(Br)cc2[nH]1)N1CCC(O)(c2ccc(F)cc2)CC1

>  <Energy>  (23) 
95.03439457065693

>  <Genealogy>  (23) 
O=C(c1cc2ccc(Br)cc2[nH]1)N1CCC(O)(c2ccc(F)cc2)CC1 (3D coordinates assigned)
O=C(c1cc2ccc(Br)cc2[nH]1)N1CCC(O)(c2ccc(F)cc2)CC1 (nonaromatic ring conformer: 95.03439457065693 kcal/mol)

>  <smiles>  (23) 
O=C(c1cc2ccc(Br)cc2[nH]1)N1CCC(O)(c2ccc(F)cc2)CC1

>  <score_type>  (23) 
oracle

>  <origin>  (23) 
adg

>  <m_score__min__energy>  (23) 
-8.8900000000000006

>  <m_primary>  (23) 
energy

$$$$
23:0
     RDKit          3D

 53 56  0  0  0  0  0  0  0  0999 V2000
   59.2760   34.9550   45.5690 C   0  0  0  0  0  0  0  0  0  0  0  0
   59.6340   33.5440   46.0190 C   0  0  0  0  0  0  0  0  0  0  0  0
   60.4720   33.5640   47.2280 N   0  0  0  0  0  0  0  0  0  0  0  0
   61.7950   34.2120   47.1300 C   0  0  0  0  0  0  0  0  0  0  0  0
   62.8630   33.3540   46.4320 C   0  0  0  0  0  0  0  0  0  0  0  0
   63.5230   32.4330   47.3590 N   0  0  0  0  0  0  0  0  0  0  0  0
   62.8450   31.8730   48.5030 C   0  0  0  0  0  0  0  0  0  0  0  0
   61.8780   30.8590   48.3440 C   0  0  0  0  0  0  0  0  0  0  0  0
   61.3520   30.5490   47.0710 C   0  0  0  0  0  0  0  0  0  0  0  0
   60.3960   29.5480   46.9170 C   0  0  0  0  0  0  0  0  0  0  0  0
   59.9240   28.8620   48.0280 C   0  0  0  0  0  0  0  0  0  0  0  0
   60.3980   29.1750   49.3010 C   0  0  0  0  0  0  0  0  0  0  0  0
   61.3900   30.1710   49.4880 C   0  0  0  0  0  0  0  0  0  0  0  0
   61.8600   30.4990   50.7440 N   0  0  0  0  0  0  0  0  0  0  0  0
   61.5880   29.6060   51.8930 C   0  0  0  0  0  0  0  0  0  0  0  0
   62.5910   31.6580   50.9250 C   0  0  0  0  0  0  0  0  0  0  0  0
   62.8340   32.1890   52.2170 C   0  0  0  0  0  0  0  0  0  0  0  0
   63.6300   33.3200   52.3910 C   0  0  0  0  0  0  0  0  0  0  0  0
   64.1920   33.9550   51.2910 C   0  0  0  0  0  0  0  0  0  0  0  0
   63.9400   33.4790   50.0070 C   0  0  0  0  0  0  0  0  0  0  0  0
   63.1240   32.3470   49.8010 C   0  0  0  0  0  0  0  0  0  0  0  0
   59.8410   33.3070   48.5010 C   0  0  0  0  0  0  0  0  0  0  0  0
   58.8250   32.3410   48.6020 C   0  0  0  0  0  0  0  0  0  0  0  0
   58.2390   32.0550   49.8380 C   0  0  0  0  0  0  0  0  0  0  0  0
   58.6500   32.7400   50.9840 C   0  0  0  0  0  0  0  0  0  0  0  0
   57.8740   32.3200   52.6770 Br  0  0  0  0  0  0  0  0  0  0  0  0
   59.6270   33.7340   50.8880 C   0  0  0  0  0  0  0  0  0  0  0  0
   60.2100   34.0280   49.6520 C   0  0  0  0  0  0  0  0  0  0  0  0
   59.1145   35.5914   46.4515 H   0  0  0  0  0  0  0  0  0  0  0  0
   60.0981   35.3670   44.9653 H   0  0  0  0  0  0  0  0  0  0  0  0
   58.3570   34.9252   44.9653 H   0  0  0  0  0  0  0  0  0  0  0  0
   58.7078   32.9909   46.2343 H   0  0  0  0  0  0  0  0  0  0  0  0
   60.2007   33.0560   45.2123 H   0  0  0  0  0  0  0  0  0  0  0  0
   61.6801   35.1485   46.5645 H   0  0  0  0  0  0  0  0  0  0  0  0
   62.1443   34.3783   48.1597 H   0  0  0  0  0  0  0  0  0  0  0  0
   62.3821   32.7695   45.6338 H   0  0  0  0  0  0  0  0  0  0  0  0
   63.6285   34.0313   46.0255 H   0  0  0  0  0  0  0  0  0  0  0  0
   64.4850   32.1090   47.1160 H   0  0  0  0  0  0  0  0  0  0  0  0
   61.7019   31.1055   46.1890 H   0  0  0  0  0  0  0  0  0  0  0  0
   60.0149   29.3009   45.9152 H   0  0  0  0  0  0  0  0  0  0  0  0
   59.1728   28.0682   47.9031 H   0  0  0  0  0  0  0  0  0  0  0  0
   59.9961   28.6408   50.1746 H   0  0  0  0  0  0  0  0  0  0  0  0
   61.7552   30.1548   52.8315 H   0  0  0  0  0  0  0  0  0  0  0  0
   60.5442   29.2615   51.8506 H   0  0  0  0  0  0  0  0  0  0  0  0
   62.2625   28.7381   51.8506 H   0  0  0  0  0  0  0  0  0  0  0  0
   62.3874   31.7008   53.0958 H   0  0  0  0  0  0  0  0  0  0  0  0
   63.8136   33.7108   53.4027 H   0  0  0  0  0  0  0  0  0  0  0  0
   64.8367   34.8347   51.4343 H   0  0  0  0  0  0  0  0  0  0  0  0
   64.3834   33.9928   49.1413 H   0  0  0  0  0  0  0  0  0  0  0  0
   58.4887   31.8062   47.7015 H   0  0  0  0  0  0  0  0  0  0  0  0
   57.4526   31.2891   49.9086 H   0  0  0  0  0  0  0  0  0  0  0  0
   59.9381   34.2864   51.7869 H   0  0  0  0  0  0  0  0  0  0  0  0
   60.9617   34.8277   49.5785 H   0  0  0  0  0  0  0  0  0  0  0  0
  1  2  1  0
  2  3  1  0
  3  4  1  0
  4  5  1  0
  5  6  1  0
  6  7  1  0
  7  8  1  0
  8  9  2  0
  9 10  1  0
 10 11  2  0
 11 12  1  0
 12 13  2  0
 13 14  1  0
 14 15  1  0
 14 16  2  0
 16 17  1  0
 17 18  2  0
 18 19  1  0
 19 20  2  0
 20 21  1  0
  3 22  1  0
 22 23  2  0
 23 24  1  0
 24 25  2  0
 25 26  1  0
 25 27  1  0
 27 28  2  0
 21  7  2  0
 28 22  1  0
 13  8  1  0
 21 16  1  0
  1 29  1  0
  1 30  1  0
  1 31  1  0
  2 32  1  0
  2 33  1  0
  4 34  1  0
  4 35  1  0
  5 36  1  0
  5 37  1  0
  6 38  1  0
  9 39  1  0
 10 40  1  0
 11 41  1  0
 12 42  1  0
 15 43  1  0
 15 44  1  0
 15 45  1  0
 17 46  1  0
 18 47  1  0
 19 48  1  0
 20 49  1  0
 23 50  1  0
 24 51  1  0
 27 52  1  0
 28 53  1  0
M  CHG  1  14   1
M  END
>  <UniqueID>  (24) 
24

>  <SMILES>  (24) 
CCN(CCNc1c2ccccc2[n+](C)c2ccccc12)c1ccc(Br)cc1

>  <Energy>  (24) 
78.39299261226253

>  <Genealogy>  (24) 
CCN(CCNc1c2ccccc2[n+](C)c2ccccc12)c1ccc(Br)cc1 (3D coordinates assigned)
CCN(CCNc1c2ccccc2[n+](C)c2ccccc12)c1ccc(Br)cc1 (optimized conformer: 78.39299261226253 kcal/mol)

>  <smiles>  (24) 
CCN(CCNc1c2ccccc2[n+](C)c2ccccc12)c1ccc(Br)cc1

>  <score_type>  (24) 
oracle

>  <origin>  (24) 
adg

>  <m_score__min__energy>  (24) 
-6.7300000000000004

>  <m_primary>  (24) 
energy

$$$$
24:0
     RDKit          3D

 82 82  0  0  0  0  0  0  0  0999 V2000
   66.2300   32.3460   50.1300 C   0  0  0  0  0  0  0  0  0  0  0  0
   65.4250   31.6560   51.2360 C   0  0  0  0  0  0  0  0  0  0  0  0
   64.1910   31.0290   50.7190 N   0  0  0  0  0  0  0  0  0  0  0  0
   63.9030   29.7260   51.3560 C   0  0  0  0  0  0  0  0  0  0  0  0
   62.4230   29.6080   51.7760 C   0  0  0  0  0  0  0  0  0  0  0  0
   61.5120   30.2040   50.7800 N   0  0  0  0  0  0  0  0  0  0  0  0
   60.7530   29.2110   50.0010 C   0  0  0  0  0  0  0  0  0  0  0  0
   60.0660   29.8430   48.7720 C   0  0  0  0  0  0  0  0  0  0  0  0
   60.6020   31.1750   48.4360 N   0  0  0  0  0  0  0  0  0  0  0  0
   61.4810   31.1910   47.2550 C   0  0  0  0  0  0  0  0  0  0  0  0
   62.8000   31.9390   47.5000 C   0  0  0  0  0  0  0  0  0  0  0  0
   62.8970   32.3900   48.8960 N   0  0  0  0  0  0  0  0  0  0  0  0
   63.5020   33.7280   48.9970 C   0  0  0  0  0  0  0  0  0  0  0  0
   62.8660   34.5770   50.1140 C   0  0  0  0  0  0  0  0  0  0  0  0
   62.9080   33.8570   51.4850 C   0  0  0  0  0  0  0  0  0  0  0  0
   62.1180   32.6130   51.5030 N   0  0  0  0  0  0  0  0  0  0  0  0
   61.0610   32.6160   52.5250 C   0  0  0  0  0  0  0  0  0  0  0  0
   59.6650   32.4400   51.8890 C   0  0  0  0  0  0  0  0  0  0  0  0
   59.3050   33.5550   50.8960 C   0  0  0  0  0  0  0  0  0  0  0  0
   59.9470   33.3170   49.5960 N   0  0  0  0  0  0  0  0  0  0  0  0
   60.0300   34.5310   48.7640 C   0  0  0  0  0  0  0  0  0  0  0  0
   59.2740   34.4360   47.4080 C   0  0  0  0  0  0  0  0  0  0  0  0
   60.2340   34.3100   46.2100 C   0  0  0  0  0  0  0  0  0  0  0  0
   59.4690   34.3350   44.8750 C   0  0  0  0  0  0  0  0  0  0  0  0
   58.1590   33.4770   44.8680 C   0  0  0  0  0  0  0  0  0  0  0  0
   56.9150   34.3950   44.8720 C   0  0  0  0  0  0  0  0  0  0  0  0
   58.1090   32.6210   43.5850 C   0  0  0  0  0  0  0  0  0  0  0  0
   58.1120   32.5230   46.0910 C   0  0  0  0  0  0  0  0  0  0  0  0
   58.2750   33.2460   47.4410 C   0  0  0  0  0  0  0  0  0  0  0  0
   66.9911   32.9983   50.5830 H   0  0  0  0  0  0  0  0  0  0  0  0
   66.7230   31.5856   49.5065 H   0  0  0  0  0  0  0  0  0  0  0  0
   65.5539   32.9494   49.5065 H   0  0  0  0  0  0  0  0  0  0  0  0
   66.0512   30.8782   51.6974 H   0  0  0  0  0  0  0  0  0  0  0  0
   65.1331   32.4219   51.9696 H   0  0  0  0  0  0  0  0  0  0  0  0
   63.3730   31.6680   50.8690 H   0  0  0  0  0  0  0  0  0  0  0  0
   64.2850   30.9090   49.6820 H   0  0  0  0  0  0  0  0  0  0  0  0
   64.1358   28.9217   50.6426 H   0  0  0  0  0  0  0  0  0  0  0  0
   64.5228   29.6435   52.2610 H   0  0  0  0  0  0  0  0  0  0  0  0
   62.1719   28.5435   51.8936 H   0  0  0  0  0  0  0  0  0  0  0  0
   62.2954   30.1561   52.7212 H   0  0  0  0  0  0  0  0  0  0  0  0
   62.0150   30.8520   50.1310 H   0  0  0  0  0  0  0  0  0  0  0  0
   61.4430   28.4262   49.6577 H   0  0  0  0  0  0  0  0  0  0  0  0
   59.9697   28.7952   50.6518 H   0  0  0  0  0  0  0  0  0  0  0  0
   60.2117   29.1780   47.9080 H   0  0  0  0  0  0  0  0  0  0  0  0
   59.0011   29.9683   49.0175 H   0  0  0  0  0  0  0  0  0  0  0  0
   61.1380   31.5450   49.2570 H   0  0  0  0  0  0  0  0  0  0  0  0
   61.7132   30.1525   46.9765 H   0  0  0  0  0  0  0  0  0  0  0  0
   60.9459   31.7207   46.4531 H   0  0  0  0  0  0  0  0  0  0  0  0
   63.6418   31.2660   47.2798 H   0  0  0  0  0  0  0  0  0  0  0  0
   62.8306   32.8209   46.8433 H   0  0  0  0  0  0  0  0  0  0  0  0
   61.9370   32.4210   49.3120 H   0  0  0  0  0  0  0  0  0  0  0  0
   64.5759   33.6152   49.2069 H   0  0  0  0  0  0  0  0  0  0  0  0
   63.3303   34.2467   48.0423 H   0  0  0  0  0  0  0  0  0  0  0  0
   63.4151   35.5267   50.1946 H   0  0  0  0  0  0  0  0  0  0  0  0
   61.8114   34.7483   49.8522 H   0  0  0  0  0  0  0  0  0  0  0  0
   63.9541   33.6121   51.7211 H   0  0  0  0  0  0  0  0  0  0  0  0
   62.4694   34.5378   52.2294 H   0  0  0  0  0  0  0  0  0  0  0  0
   61.6840   32.4680   50.5630 H   0  0  0  0  0  0  0  0  0  0  0  0
   61.2408   31.7900   53.2288 H   0  0  0  0  0  0  0  0  0  0  0  0
   61.0853   33.5841   53.0467 H   0  0  0  0  0  0  0  0  0  0  0  0
   59.6427   31.4777   51.3566 H   0  0  0  0  0  0  0  0  0  0  0  0
   58.9280   32.4796   52.7046 H   0  0  0  0  0  0  0  0  0  0  0  0
   58.2136   33.5803   50.7610 H   0  0  0  0  0  0  0  0  0  0  0  0
   59.6612   34.5154   51.2968 H   0  0  0  0  0  0  0  0  0  0  0  0
   60.8960   32.9030   49.7270 H   0  0  0  0  0  0  0  0  0  0  0  0
   59.6057   35.3693   49.3360 H   0  0  0  0  0  0  0  0  0  0  0  0
   61.0934   34.6714   48.5203 H   0  0  0  0  0  0  0  0  0  0  0  0
   58.7172   35.3747   47.2704 H   0  0  0  0  0  0  0  0  0  0  0  0
   60.9453   35.1488   46.2311 H   0  0  0  0  0  0  0  0  0  0  0  0
   60.7631   33.3488   46.2889 H   0  0  0  0  0  0  0  0  0  0  0  0
   59.1993   35.3778   44.6518 H   0  0  0  0  0  0  0  0  0  0  0  0
   60.1377   33.8960   44.1200 H   0  0  0  0  0  0  0  0  0  0  0  0
   56.6221   34.6111   45.9100 H   0  0  0  0  0  0  0  0  0  0  0  0
   57.1522   35.3362   44.3544 H   0  0  0  0  0  0  0  0  0  0  0  0
   56.0856   33.8908   44.3544 H   0  0  0  0  0  0  0  0  0  0  0  0
   58.0468   31.5568   43.8564 H   0  0  0  0  0  0  0  0  0  0  0  0
   57.2256   32.9004   42.9920 H   0  0  0  0  0  0  0  0  0  0  0  0
   59.0189   32.7956   42.9920 H   0  0  0  0  0  0  0  0  0  0  0  0
   57.1429   32.0026   46.0896 H   0  0  0  0  0  0  0  0  0  0  0  0
   58.9589   31.8281   45.9919 H   0  0  0  0  0  0  0  0  0  0  0  0
   57.2909   33.6297   47.7482 H   0  0  0  0  0  0  0  0  0  0  0  0
   58.6837   32.5088   48.1478 H   0  0  0  0  0  0  0  0  0  0  0  0
  1  2  1  0
  2  3  1  0
  3  4  1  0
  4  5  1  0
  5  6  1  0
  6  7  1  0
  7  8  1  0
  8  9  1  0
  9 10  1  0
 10 11  1  0
 11 12  1  0
 12 13  1  0
 13 14  1  0
 14 15  1  0
 15 16  1  0
 16 17  1  0
 17 18  1  0
 18 19  1  0
 19 20  1  0
 20 21  1  0
 21 22  1  0
 22 23  1  0
 23 24  1  0
 24 25  1  0
 25 26  1  0
 25 27  1  0
 25 28  1  0
 28 29  1  0
 29 22  1  0
  1 30  1  0
  1 31  1  0
  1 32  1  0
  2 33  1  0
  2 34  1  0
  3 35  1  0
  3 36  1  0
  4 37  1  0
  4 38  1  0
  5 39  1  0
  5 40  1  0
  6 41  1  0
  7 42  1  0
  7 43  1  0
  8 44  1  0
  8 45  1  0
  9 46  1  0
 10 47  1  0
 10 48  1  0
 11 49  1  0
 11 50  1  0
 12 51  1  0
 13 52  1  0
 13 53  1  0
 14 54  1  0
 14 55  1  0
 15 56  1  0
 15 57  1  0
 16 58  1  0
 17 59  1  0
 17 60  1  0
 18 61  1  0
 18 62  1  0
 19 63  1  0
 19 64  1  0
 20 65  1  0
 21 66  1  0
 21 67  1  0
 22 68  1  0
 23 69  1  0
 23 70  1  0
 24 71  1  0
 24 72  1  0
 26 73  1  0
 26 74  1  0
 26 75  1  0
 27 76  1  0
 27 77  1  0
 27 78  1  0
 28 79  1  0
 28 80  1  0
 29 81  1  0
 29 82  1  0
M  CHG  1   3   1
M  END
>  <UniqueID>  (25) 
25

>  <SMILES>  (25) 
CC[NH2+]CCNCCNCCNCCCNCCCNCC1CCC(C)(C)CC1

>  <Energy>  (25) 
78.9415341118656

>  <Genealogy>  (25) 
CC[NH2+]CCNCCNCCNCCCNCCCNCC1CCC(C)(C)CC1 (protonated)
CC[NH2+]CCNCCNCCNCCCNCCCNCC1CCC(C)(C)CC1 (3D coordinates assigned)
CC[NH2+]CCNCCNCCNCCCNCCCNCC1CCC(C)(C)CC1 (nonaromatic ring conformer: 78.9415341118656 kcal/mol)

>  <smiles>  (25) 
CCNCCNCCNCCNCCCNCCCNCC1CCC(C)(C)CC1

>  <score_type>  (25) 
oracle

>  <origin>  (25) 
adg

>  <m_score__min__energy>  (25) 
-3.5299999999999998

>  <m_primary>  (25) 
energy

$$$$
25:0
     RDKit          3D

 38 40  0  0  0  0  0  0  0  0999 V2000
   57.7680   27.8400   44.1090 C   0  0  0  0  0  0  0  0  0  0  0  0
   57.2960   29.2320   44.3550 C   0  0  0  0  0  0  0  0  0  0  0  0
   56.0860   29.5280   44.8680 N   0  0  0  0  0  0  0  0  0  0  0  0
   56.0350   30.8260   44.8660 O   0  0  0  0  0  0  0  0  0  0  0  0
   57.1470   31.3090   44.3710 C   0  0  0  0  0  0  0  0  0  0  0  0
   57.4270   32.7690   44.1960 C   0  0  0  0  0  0  0  0  0  0  0  0
   57.7670   33.4030   45.4880 N   0  0  0  0  0  0  0  0  0  0  0  0
   58.5130   34.6760   45.2870 C   0  0  0  0  0  0  0  0  0  0  0  0
   59.9930   34.5810   45.6800 C   0  0  0  0  0  0  0  0  0  0  0  0
   60.1260   34.2060   47.1680 C   0  0  0  0  0  0  0  0  0  0  0  0
   61.5490   33.7870   47.4950 C   0  0  0  0  0  0  0  0  0  0  0  0
   62.4580   33.5100   46.4600 C   0  0  0  0  0  0  0  0  0  0  0  0
   63.7620   33.1180   46.7700 C   0  0  0  0  0  0  0  0  0  0  0  0
   64.1520   32.9970   48.0680 N   0  0  0  0  0  0  0  0  0  0  0  0
   63.2930   33.2530   49.0910 C   0  0  0  0  0  0  0  0  0  0  0  0
   61.9800   33.6490   48.8250 C   0  0  0  0  0  0  0  0  0  0  0  0
   59.0840   33.1420   47.6000 C   0  0  0  0  0  0  0  0  0  0  0  0
   58.4390   32.4390   46.3970 C   0  0  0  0  0  0  0  0  0  0  0  0
   58.0000   30.3310   44.0100 N   0  0  0  0  0  0  0  0  0  0  0  0
   57.9391   27.3354   45.0713 H   0  0  0  0  0  0  0  0  0  0  0  0
   57.0061   27.2902   43.5370 H   0  0  0  0  0  0  0  0  0  0  0  0
   58.7072   27.8670   43.5370 H   0  0  0  0  0  0  0  0  0  0  0  0
   58.2712   32.8925   43.5017 H   0  0  0  0  0  0  0  0  0  0  0  0
   56.5240   33.2530   43.7955 H   0  0  0  0  0  0  0  0  0  0  0  0
   58.4511   34.9528   44.2242 H   0  0  0  0  0  0  0  0  0  0  0  0
   58.0505   35.4310   45.9397 H   0  0  0  0  0  0  0  0  0  0  0  0
   60.4831   33.8109   45.0662 H   0  0  0  0  0  0  0  0  0  0  0  0
   60.4720   35.5568   45.5119 H   0  0  0  0  0  0  0  0  0  0  0  0
   59.9024   35.1061   47.7595 H   0  0  0  0  0  0  0  0  0  0  0  0
   62.1438   33.6015   45.4098 H   0  0  0  0  0  0  0  0  0  0  0  0
   64.4770   32.9061   45.9614 H   0  0  0  0  0  0  0  0  0  0  0  0
   65.1300   32.7020   48.2830 H   0  0  0  0  0  0  0  0  0  0  0  0
   63.6334   33.1478   50.1317 H   0  0  0  0  0  0  0  0  0  0  0  0
   61.2860   33.8520   49.6540 H   0  0  0  0  0  0  0  0  0  0  0  0
   59.5859   32.3876   48.2237 H   0  0  0  0  0  0  0  0  0  0  0  0
   58.2873   33.6567   48.1570 H   0  0  0  0  0  0  0  0  0  0  0  0
   59.2204   31.9059   45.8355 H   0  0  0  0  0  0  0  0  0  0  0  0
   57.6784   31.7412   46.7770 H   0  0  0  0  0  0  0  0  0  0  0  0
  1  2  1  0
  2  3  2  0
  3  4  1  0
  4  5  1  0
  5  6  1  0
  6  7  1  0
  7  8  1  0
  8  9  1  0
  9 10  1  0
 10 11  1  0
 11 12  2  0
 12 13  1  0
 13 14  2  0
 14 15  1  0
 15 16  2  0
 10 17  1  0
 17 18  1  0
  5 19  2  0
 19  2  1  0
 18  7  1  0
 16 11  1  0
  1 20  1  0
  1 21  1  0
  1 22  1  0
  6 23  1  0
  6 24  1  0
  8 25  1  0
  8 26  1  0
  9 27  1  0
  9 28  1  0
 10 29  1  0
 12 30  1  0
 13 31  1  0
 14 32  1  0
 15 33  1  0
 16 34  1  0
 17 35  1  0
 17 36  1  0
 18 37  1  0
 18 38  1  0
M  CHG  1  14   1
M  END
>  <UniqueID>  (26) 
26

>  <SMILES>  (26) 
Cc1noc(CN2CCC(c3cc[nH+]cc3)CC2)n1

>  <Energy>  (26) 
79.67323937763824

>  <Genealogy>  (26) 
Cc1noc(CN2CCC(c3cc[nH+]cc3)CC2)n1 (protonated)
Cc1noc(CN2CCC(c3cc[nH+]cc3)CC2)n1 (3D coordinates assigned)
Cc1noc(CN2CCC(c3cc[nH+]cc3)CC2)n1 (nonaromatic ring conformer: 79.67323937763824 kcal/mol)

>  <smiles>  (26) 
Cc1noc(CN2CCC(c3ccncc3)CC2)n1

>  <score_type>  (26) 
oracle

>  <origin>  (26) 
adg

>  <m_score__min__energy>  (26) 
-7.1600000000000001

>  <m_primary>  (26) 
energy

$$$$
26:0
     RDKit          3D

 51 54  0  0  0  0  0  0  0  0999 V2000
   59.6510   35.6960   45.7050 C   0  0  0  0  0  0  0  0  0  0  0  0
   59.3070   34.3560   46.1840 N   0  0  0  0  0  0  0  0  0  0  0  0
   59.4290   33.8480   47.4420 C   0  0  0  0  0  0  0  0  0  0  0  0
   60.0140   34.5910   48.6110 C   0  0  0  0  0  0  0  0  0  0  0  0
   60.4500   33.6520   49.6540 N   0  0  0  0  0  0  0  0  0  0  0  0
   61.8770   33.4590   49.5780 C   0  0  0  0  0  0  0  0  0  0  0  0
   62.4580   32.8990   48.4250 C   0  0  0  0  0  0  0  0  0  0  0  0
   63.8380   32.6850   48.3630 C   0  0  0  0  0  0  0  0  0  0  0  0
   64.6480   33.0180   49.4520 C   0  0  0  0  0  0  0  0  0  0  0  0
   65.9870   32.8080   49.3900 F   0  0  0  0  0  0  0  0  0  0  0  0
   64.0790   33.5630   50.6070 C   0  0  0  0  0  0  0  0  0  0  0  0
   62.6990   33.7780   50.6730 C   0  0  0  0  0  0  0  0  0  0  0  0
   58.8960   32.6050   47.5740 N   0  0  0  0  0  0  0  0  0  0  0  0
   58.4270   32.3420   46.3400 C   0  0  0  0  0  0  0  0  0  0  0  0
   57.7610   31.1960   45.9140 C   0  0  0  0  0  0  0  0  0  0  0  0
   57.3210   31.1500   44.5740 C   0  0  0  0  0  0  0  0  0  0  0  0
   56.4970   29.7200   43.9560 S   0  0  0  0  0  0  0  0  0  0  0  0
   55.3770   29.3250   44.8780 O   0  0  0  0  0  0  0  0  0  0  0  0
   55.9150   30.0360   42.6070 O   0  0  0  0  0  0  0  0  0  0  0  0
   57.6210   28.4070   43.8000 N   0  0  0  0  0  0  0  0  0  0  0  0
   57.6960   27.6660   45.0560 C   0  0  0  0  0  0  0  0  0  0  0  0
   58.7330   28.2970   45.9390 C   0  0  0  0  0  0  0  0  0  0  0  0
   58.5670   28.3010   47.3340 C   0  0  0  0  0  0  0  0  0  0  0  0
   59.5180   28.9180   48.1540 C   0  0  0  0  0  0  0  0  0  0  0  0
   60.6300   29.5450   47.5860 C   0  0  0  0  0  0  0  0  0  0  0  0
   60.7930   29.5600   46.1990 C   0  0  0  0  0  0  0  0  0  0  0  0
   59.8450   28.9440   45.3750 C   0  0  0  0  0  0  0  0  0  0  0  0
   57.5620   32.2450   43.7100 C   0  0  0  0  0  0  0  0  0  0  0  0
   58.2360   33.3890   44.1760 C   0  0  0  0  0  0  0  0  0  0  0  0
   58.6600   33.3950   45.5050 C   0  0  0  0  0  0  0  0  0  0  0  0
   59.8215   36.3603   46.5651 H   0  0  0  0  0  0  0  0  0  0  0  0
   60.5649   35.6439   45.0950 H   0  0  0  0  0  0  0  0  0  0  0  0
   58.8250   36.0906   45.0950 H   0  0  0  0  0  0  0  0  0  0  0  0
   60.8785   35.1792   48.2696 H   0  0  0  0  0  0  0  0  0  0  0  0
   59.2441   35.2552   49.0307 H   0  0  0  0  0  0  0  0  0  0  0  0
   59.9610   32.7340   49.5270 H   0  0  0  0  0  0  0  0  0  0  0  0
   60.1970   34.0220   50.6000 H   0  0  0  0  0  0  0  0  0  0  0  0
   61.8231   32.6284   47.5684 H   0  0  0  0  0  0  0  0  0  0  0  0
   64.2869   32.2540   47.4560 H   0  0  0  0  0  0  0  0  0  0  0  0
   64.7174   33.8228   51.4643 H   0  0  0  0  0  0  0  0  0  0  0  0
   62.2541   34.1990   51.5867 H   0  0  0  0  0  0  0  0  0  0  0  0
   57.5836   30.3541   46.5994 H   0  0  0  0  0  0  0  0  0  0  0  0
   56.7180   27.6939   45.5588 H   0  0  0  0  0  0  0  0  0  0  0  0
   57.9698   26.6202   44.8528 H   0  0  0  0  0  0  0  0  0  0  0  0
   57.6868   27.8176   47.7829 H   0  0  0  0  0  0  0  0  0  0  0  0
   59.3902   28.9095   49.2465 H   0  0  0  0  0  0  0  0  0  0  0  0
   61.3781   30.0275   48.2322 H   0  0  0  0  0  0  0  0  0  0  0  0
   61.6678   30.0567   45.7540 H   0  0  0  0  0  0  0  0  0  0  0  0
   59.9707   28.9664   44.2824 H   0  0  0  0  0  0  0  0  0  0  0  0
   57.2196   32.2013   42.6656 H   0  0  0  0  0  0  0  0  0  0  0  0
   58.4221   34.2486   43.5153 H   0  0  0  0  0  0  0  0  0  0  0  0
  1  2  1  0
  2  3  1  0
  3  4  1  0
  4  5  1  0
  5  6  1  0
  6  7  2  0
  7  8  1  0
  8  9  2  0
  9 10  1  0
  9 11  1  0
 11 12  2  0
  3 13  2  0
 13 14  1  0
 14 15  2  0
 15 16  1  0
 16 17  1  0
 17 18  2  0
 17 19  2  0
 17 20  1  0
 20 21  1  0
 21 22  1  0
 22 23  2  0
 23 24  1  0
 24 25  2  0
 25 26  1  0
 26 27  2  0
 16 28  2  0
 28 29  1  0
 29 30  2  0
 30  2  1  0
 12  6  1  0
 30 14  1  0
 27 22  1  0
  1 31  1  0
  1 32  1  0
  1 33  1  0
  4 34  1  0
  4 35  1  0
  5 36  1  0
  5 37  1  0
  7 38  1  0
  8 39  1  0
 11 40  1  0
 12 41  1  0
 15 42  1  0
 21 43  1  0
 21 44  1  0
 23 45  1  0
 24 46  1  0
 25 47  1  0
 26 48  1  0
 27 49  1  0
 28 50  1  0
 29 51  1  0
M  CHG  2   5   1  20  -1
M  END
>  <UniqueID>  (27) 
27

>  <SMILES>  (27) 
Cn1c(C[NH2+]c2ccc(F)cc2)nc2cc(S(=O)(=O)[N-]Cc3ccccc3)ccc21

>  <Energy>  (27) 
89.71743966684

>  <Genealogy>  (27) 
Cn1c(C[NH2+]c2ccc(F)cc2)nc2cc(S(=O)(=O)[N-]Cc3ccccc3)ccc21 (protonated)
Cn1c(C[NH2+]c2ccc(F)cc2)nc2cc(S(=O)(=O)[N-]Cc3ccccc3)ccc21 (3D coordinates assigned)
Cn1c(C[NH2+]c2ccc(F)cc2)nc2cc(S(=O)(=O)[N-]Cc3ccccc3)ccc21 (optimized conformer: 89.71743966684 kcal/mol)

>  <smiles>  (27) 
Cn1c(CNc2ccc(F)cc2)nc2cc(S(=O)(=O)NCc3ccccc3)ccc21

>  <score_type>  (27) 
oracle

>  <origin>  (27) 
adg

>  <m_score__min__energy>  (27) 
-9.0500000000000007

>  <m_primary>  (27) 
energy

$$$$
