0:0
     RDKit          3D

 26 27  0  0  0  0  0  0  0  0999 V2000
   59.2450   30.6410   46.2330 C   0  0  0  0  0  0  0  0  0  0  0  0
   57.9300   30.5850   45.6040 N   0  0  0  0  0  0  0  0  0  0  0  0
   57.0520   29.5980   45.6000 N   0  0  0  0  0  0  0  0  0  0  0  0
   56.0070   29.9950   44.9070 N   0  0  0  0  0  0  0  0  0  0  0  0
   56.2070   31.2170   44.4720 N   0  0  0  0  0  0  0  0  0  0  0  0
   57.4310   31.6160   44.9060 C   0  0  0  0  0  0  0  0  0  0  0  0
   58.1250   33.1960   44.5600 S   0  0  0  0  0  0  0  0  0  0  0  0
   58.3140   34.2060   46.0220 C   0  0  0  0  0  0  0  0  0  0  0  0
   59.6070   34.8080   46.2930 C   0  0  0  0  0  0  0  0  0  0  0  0
   59.7090   36.0320   45.8370 O   0  0  0  0  0  0  0  0  0  0  0  0
   60.7710   34.3110   46.9600 C   0  0  0  0  0  0  0  0  0  0  0  0
   61.9240   33.8500   46.3760 C   0  0  0  0  0  0  0  0  0  0  0  0
   63.0170   33.3800   47.1060 C   0  0  0  0  0  0  0  0  0  0  0  0
   62.9960   33.3520   48.4780 C   0  0  0  0  0  0  0  0  0  0  0  0
   64.5050   32.7050   49.4270 Br  0  0  0  0  0  0  0  0  0  0  0  0
   61.8480   33.8110   49.0900 C   0  0  0  0  0  0  0  0  0  0  0  0
   60.7730   34.2730   48.3660 C   0  0  0  0  0  0  0  0  0  0  0  0
   59.1287   30.6361   47.3268 H   0  0  0  0  0  0  0  0  0  0  0  0
   59.8371   29.7673   45.9232 H   0  0  0  0  0  0  0  0  0  0  0  0
   59.7607   31.5619   45.9232 H   0  0  0  0  0  0  0  0  0  0  0  0
   57.5851   35.0262   45.9449 H   0  0  0  0  0  0  0  0  0  0  0  0
   58.1691   33.5006   46.8535 H   0  0  0  0  0  0  0  0  0  0  0  0
   61.9902   33.8509   45.2780 H   0  0  0  0  0  0  0  0  0  0  0  0
   63.9111   33.0257   46.5721 H   0  0  0  0  0  0  0  0  0  0  0  0
   61.7904   33.8076   50.1885 H   0  0  0  0  0  0  0  0  0  0  0  0
   59.8823   34.6256   48.9067 H   0  0  0  0  0  0  0  0  0  0  0  0
  1  2  1  0
  2  3  1  0
  3  4  2  0
  4  5  1  0
  5  6  2  0
  6  7  1  0
  7  8  1  0
  8  9  1  0
  9 10  2  0
  9 11  1  0
 11 12  2  0
 12 13  1  0
 13 14  2  0
 14 15  1  0
 14 16  1  0
 16 17  2  0
  6  2  1  0
 17 11  1  0
  1 18  1  0
  1 19  1  0
  1 20  1  0
  8 21  1  0
  8 22  1  0
 12 23  1  0
 13 24  1  0
 16 25  1  0
 17 26  1  0
M  END
>  <smiles>  (1) 
Cn1nnnc1SCC(=O)c1ccc(Br)cc1

>  <score_type>  (1) 
oracle

>  <origin>  (1) 
adg

>  <m_score__min__energy>  (1) 
-7.8600000000000003

>  <m_primary>  (1) 
energy

$$$$
1:0
     RDKit          3D

 37 38  0  0  0  0  0  0  0  0999 V2000
   56.2820   29.7410   42.6580 C   0  0  0  0  0  0  0  0  0  0  0  0
   55.7860   30.0810   44.0270 C   0  0  0  0  0  0  0  0  0  0  0  0
   56.9100   30.6280   44.8710 N   0  0  0  0  0  0  0  0  0  0  0  0
   57.0230   31.9920   44.4440 C   0  0  0  0  0  0  0  0  0  0  0  0
   57.9350   32.8410   45.2280 C   0  0  0  0  0  0  0  0  0  0  0  0
   58.1500   34.0490   45.0660 O   0  0  0  0  0  0  0  0  0  0  0  0
   58.6420   32.1830   46.2980 N   0  0  0  0  0  0  0  0  0  0  0  0
   59.5500   32.8490   47.1480 C   0  0  0  0  0  0  0  0  0  0  0  0
   59.1270   33.5990   48.2560 C   0  0  0  0  0  0  0  0  0  0  0  0
   60.0960   34.2170   49.0540 C   0  0  0  0  0  0  0  0  0  0  0  0
   61.4340   34.0810   48.7440 C   0  0  0  0  0  0  0  0  0  0  0  0
   61.8570   33.3460   47.6560 C   0  0  0  0  0  0  0  0  0  0  0  0
   63.6990   33.1390   47.2030 Br  0  0  0  0  0  0  0  0  0  0  0  0
   60.9100   32.7260   46.8530 C   0  0  0  0  0  0  0  0  0  0  0  0
   58.0400   29.8820   44.2800 C   0  0  0  0  0  0  0  0  0  0  0  0
   58.7080   28.9530   45.1290 C   0  0  0  0  0  0  0  0  0  0  0  0
   60.0160   28.6080   45.3230 C   0  0  0  0  0  0  0  0  0  0  0  0
   60.3400   27.6730   46.2040 C   0  0  0  0  0  0  0  0  0  0  0  0
   59.2600   27.0820   46.9000 C   0  0  0  0  0  0  0  0  0  0  0  0
   57.7610   27.9060   46.2590 S   0  0  0  0  0  0  0  0  0  0  0  0
   57.1868   29.1208   42.7394 H   0  0  0  0  0  0  0  0  0  0  0  0
   55.5042   29.1852   42.1137 H   0  0  0  0  0  0  0  0  0  0  0  0
   56.5198   30.6669   42.1137 H   0  0  0  0  0  0  0  0  0  0  0  0
   54.9911   30.8371   43.9474 H   0  0  0  0  0  0  0  0  0  0  0  0
   55.3935   29.1696   44.5016 H   0  0  0  0  0  0  0  0  0  0  0  0
   57.3770   31.9902   43.4025 H   0  0  0  0  0  0  0  0  0  0  0  0
   56.0224   32.4285   44.5791 H   0  0  0  0  0  0  0  0  0  0  0  0
   58.4960   31.1500   46.4860 H   0  0  0  0  0  0  0  0  0  0  0  0
   58.0573   33.6989   48.4920 H   0  0  0  0  0  0  0  0  0  0  0  0
   59.7915   34.8111   49.9282 H   0  0  0  0  0  0  0  0  0  0  0  0
   62.1836   34.5721   49.3819 H   0  0  0  0  0  0  0  0  0  0  0  0
   61.2311   32.1361   45.9818 H   0  0  0  0  0  0  0  0  0  0  0  0
   57.6544   29.3242   43.4139 H   0  0  0  0  0  0  0  0  0  0  0  0
   58.7941   30.6450   44.0368 H   0  0  0  0  0  0  0  0  0  0  0  0
   60.8051   29.1099   44.7439 H   0  0  0  0  0  0  0  0  0  0  0  0
   61.3837   27.3751   46.3829 H   0  0  0  0  0  0  0  0  0  0  0  0
   59.3117   26.2934   47.6651 H   0  0  0  0  0  0  0  0  0  0  0  0
  1  2  1  0
  2  3  1  0
  3  4  1  0
  4  5  1  0
  5  6  2  0
  5  7  1  0
  7  8  1  0
  8  9  2  0
  9 10  1  0
 10 11  2  0
 11 12  1  0
 12 13  1  0
 12 14  2  0
  3 15  1  0
 15 16  1  0
 16 17  2  0
 17 18  1  0
 18 19  2  0
 19 20  1  0
 14  8  1  0
 20 16  1  0
  1 21  1  0
  1 22  1  0
  1 23  1  0
  2 24  1  0
  2 25  1  0
  4 26  1  0
  4 27  1  0
  7 28  1  0
  9 29  1  0
 10 30  1  0
 11 31  1  0
 14 32  1  0
 15 33  1  0
 15 34  1  0
 17 35  1  0
 18 36  1  0
 19 37  1  0
M  END
>  <smiles>  (2) 
CCN(CC(=O)Nc1cccc(Br)c1)Cc1cccs1

>  <score_type>  (2) 
oracle

>  <origin>  (2) 
adg

>  <m_score__min__energy>  (2) 
-7.79

>  <m_primary>  (2) 
energy

$$$$
2:0
     RDKit          3D

 65 66  0  0  1  0  0  0  0  0999 V2000
   56.9320   23.4290   43.7630 C   0  0  0  0  0  0  0  0  0  0  0  0
   57.3770   24.8080   44.1330 C   0  0  0  0  0  0  0  0  0  0  0  0
   57.7970   24.8990   45.5020 O   0  0  0  0  0  0  0  0  0  0  0  0
   59.0650   25.3290   45.6910 N   0  0  0  0  0  0  0  0  0  0  0  0
   59.3120   26.3810   46.3610 C   0  0  0  0  0  0  0  0  0  0  0  0
   58.8860   27.7360   46.0990 C   0  0  0  0  0  0  0  0  0  0  0  0
   59.6630   28.8560   46.2340 C   0  0  0  0  0  0  0  0  0  0  0  0
   59.1570   30.1060   45.9610 C   0  0  0  0  0  0  0  0  0  0  0  0
   57.8640   30.3340   45.5400 C   0  0  0  0  0  0  0  0  0  0  0  0
   57.3110   31.4870   45.2610 O   0  0  0  0  0  0  0  0  0  0  0  0
   57.3830   32.7040   44.7430 C   0  0  0  0  0  0  0  0  0  0  0  0
   58.6730   33.4320   44.5580 C   0  0  0  0  0  0  0  0  0  0  0  0
   58.9580   34.4990   45.5640 C   0  0  0  0  0  0  0  0  0  0  0  0
   58.2330   34.1390   46.8630 C   0  0  0  0  0  0  0  0  0  0  0  0
   59.0700   33.3280   47.8070 C   0  0  0  0  0  0  0  0  0  0  0  0
   60.2480   34.1670   48.3150 C   0  0  0  0  0  0  0  0  0  0  0  0
   61.5010   33.4890   48.0440 N   0  0  0  0  0  0  0  0  0  0  0  0
   61.3580   32.0480   48.0840 C   0  0  0  0  0  0  0  0  0  0  0  0
   62.6330   31.4210   47.5560 C   0  0  0  0  0  0  0  0  0  0  0  0
   63.7430   32.3360   47.5550 N   0  0  0  0  0  0  0  0  0  0  0  0
   64.0830   32.8070   48.8810 C   0  0  0  0  0  0  0  0  0  0  0  0
   63.4880   33.4490   46.6610 C   0  0  0  0  0  0  0  0  0  0  0  0
   62.0200   33.8300   46.7380 C   0  0  0  0  0  0  0  0  0  0  0  0
   57.0810   29.1660   45.4070 C   0  0  0  0  0  0  0  0  0  0  0  0
   55.7740   29.3240   44.9890 O   0  0  0  0  0  0  0  0  0  0  0  0
   55.3610   29.6930   43.7030 C   0  0  0  0  0  0  0  0  0  0  0  0
   56.4420   29.7560   42.6780 C   0  0  0  0  0  0  0  0  0  0  0  0
   57.5840   27.9220   45.6780 C   0  0  0  0  0  0  0  0  0  0  0  0
   56.7441   22.8467   44.6771 H   0  0  0  0  0  0  0  0  0  0  0  0
   56.0076   23.4888   43.1699 H   0  0  0  0  0  0  0  0  0  0  0  0
   57.7170   22.9372   43.1699 H   0  0  0  0  0  0  0  0  0  0  0  0
   58.2194   25.0929   43.4855 H   0  0  0  0  0  0  0  0  0  0  0  0
   56.5194   25.4839   43.9999 H   0  0  0  0  0  0  0  0  0  0  0  0
   59.9320   26.2406   47.2587 H   0  0  0  0  0  0  0  0  0  0  0  0
   60.7069   28.7545   46.5656 H   0  0  0  0  0  0  0  0  0  0  0  0
   59.8222   30.9732   46.0858 H   0  0  0  0  0  0  0  0  0  0  0  0
   56.9270   32.6361   43.7443 H   0  0  0  0  0  0  0  0  0  0  0  0
   56.8998   33.3064   45.5264 H   0  0  0  0  0  0  0  0  0  0  0  0
   59.4882   32.6949   44.6052 H   0  0  0  0  0  0  0  0  0  0  0  0
   58.5949   33.9442   43.5877 H   0  0  0  0  0  0  0  0  0  0  0  0
   60.0411   34.5587   45.7465 H   0  0  0  0  0  0  0  0  0  0  0  0
   58.6093   35.4738   45.1924 H   0  0  0  0  0  0  0  0  0  0  0  0
   57.9405   35.0709   47.3689 H   0  0  0  0  0  0  0  0  0  0  0  0
   57.3631   33.5237   46.5897 H   0  0  0  0  0  0  0  0  0  0  0  0
   58.4531   33.0113   48.6609 H   0  0  0  0  0  0  0  0  0  0  0  0
   59.4570   32.4442   47.2787 H   0  0  0  0  0  0  0  0  0  0  0  0
   60.2454   35.1422   47.8061 H   0  0  0  0  0  0  0  0  0  0  0  0
   60.1449   34.3090   49.4009 H   0  0  0  0  0  0  0  0  0  0  0  0
   61.1858   31.7213   49.1201 H   0  0  0  0  0  0  0  0  0  0  0  0
   60.5026   31.7378   47.4659 H   0  0  0  0  0  0  0  0  0  0  0  0
   62.8889   30.5582   48.1885 H   0  0  0  0  0  0  0  0  0  0  0  0
   62.4488   31.1213   46.5138 H   0  0  0  0  0  0  0  0  0  0  0  0
   63.6131   32.1561   49.6330 H   0  0  0  0  0  0  0  0  0  0  0  0
   65.1753   32.7857   49.0088 H   0  0  0  0  0  0  0  0  0  0  0  0
   63.7189   33.8371   49.0088 H   0  0  0  0  0  0  0  0  0  0  0  0
   64.1066   34.3085   46.9589 H   0  0  0  0  0  0  0  0  0  0  0  0
   63.7391   33.1581   45.6303 H   0  0  0  0  0  0  0  0  0  0  0  0
   61.9129   34.9121   46.5721 H   0  0  0  0  0  0  0  0  0  0  0  0
   61.4584   33.2832   45.9662 H   0  0  0  0  0  0  0  0  0  0  0  0
   54.6135   28.9609   43.3634 H   0  0  0  0  0  0  0  0  0  0  0  0
   54.9681   30.7165   43.7927 H   0  0  0  0  0  0  0  0  0  0  0  0
   57.4196   29.8130   43.1791 H   0  0  0  0  0  0  0  0  0  0  0  0
   56.4042   28.8541   42.0494 H   0  0  0  0  0  0  0  0  0  0  0  0
   56.2997   30.6474   42.0494 H   0  0  0  0  0  0  0  0  0  0  0  0
   56.9318   27.0446   45.5568 H   0  0  0  0  0  0  0  0  0  0  0  0
  1  2  1  0
  2  3  1  0
  3  4  1  0
  4  5  2  0
  5  6  1  0
  6  7  2  0
  7  8  1  0
  8  9  2  0
  9 10  1  0
 10 11  1  0
 11 12  1  0
 12 13  1  0
 13 14  1  0
 14 15  1  0
 15 16  1  0
 16 17  1  0
 17 18  1  0
 18 19  1  0
 19 20  1  0
 20 21  1  0
 20 22  1  0
 22 23  1  0
  9 24  1  0
 24 25  1  0
 25 26  1  0
 26 27  1  0
 24 28  2  0
 28  6  1  0
 23 17  1  0
  1 29  1  0
  1 30  1  0
  1 31  1  0
  2 32  1  0
  2 33  1  0
  5 34  1  0
  7 35  1  0
  8 36  1  0
 11 37  1  0
 11 38  1  0
 12 39  1  0
 12 40  1  0
 13 41  1  0
 13 42  1  0
 14 43  1  0
 14 44  1  0
 15 45  1  0
 15 46  1  0
 16 47  1  0
 16 48  1  0
 18 49  1  0
 18 50  1  0
 19 51  1  0
 19 52  1  0
 21 53  1  0
 21 54  1  0
 21 55  1  0
 22 56  1  0
 22 57  1  0
 23 58  1  0
 23 59  1  0
 26 60  1  0
 26 61  1  0
 27 62  1  0
 27 63  1  0
 27 64  1  0
 28 65  1  0
M  END
>  <smiles>  (3) 
CCON=Cc1ccc(OCCCCCCN2CCN(C)CC2)c(OCC)c1

>  <score_type>  (3) 
oracle

>  <origin>  (3) 
adg

>  <m_score__min__energy>  (3) 
-8.1099999999999994

>  <m_primary>  (3) 
energy

$$$$
3:0
     RDKit          3D

 53 56  0  0  0  0  0  0  0  0999 V2000
   56.6330   24.9480   45.9490 C   0  0  0  0  0  0  0  0  0  0  0  0
   56.1760   26.3220   46.3620 C   0  0  0  0  0  0  0  0  0  0  0  0
   56.7700   27.3920   45.6250 N   0  0  0  0  0  0  0  0  0  0  0  0
   57.7630   27.0290   44.6690 C   0  0  0  0  0  0  0  0  0  0  0  0
   59.0750   27.7030   45.0480 C   0  0  0  0  0  0  0  0  0  0  0  0
   59.8000   26.8710   46.0740 C   0  0  0  0  0  0  0  0  0  0  0  0
   59.1300   26.9580   47.4270 C   0  0  0  0  0  0  0  0  0  0  0  0
   58.5620   28.2520   47.6110 N   0  0  0  0  0  0  0  0  0  0  0  0
   59.2850   29.4110   48.0140 C   0  0  0  0  0  0  0  0  0  0  0  0
   59.0910   30.6200   47.3660 C   0  0  0  0  0  0  0  0  0  0  0  0
   59.7860   31.7700   47.7350 C   0  0  0  0  0  0  0  0  0  0  0  0
   60.6890   31.7460   48.7560 N   0  0  0  0  0  0  0  0  0  0  0  0
   61.3910   32.9590   49.0920 C   0  0  0  0  0  0  0  0  0  0  0  0
   60.8730   30.5710   49.3820 C   0  0  0  0  0  0  0  0  0  0  0  0
   61.7740   30.4750   50.4230 C   0  0  0  0  0  0  0  0  0  0  0  0
   61.9780   29.2560   51.0840 C   0  0  0  0  0  0  0  0  0  0  0  0
   61.2980   28.1250   50.7240 C   0  0  0  0  0  0  0  0  0  0  0  0
   60.3980   28.2060   49.6890 C   0  0  0  0  0  0  0  0  0  0  0  0
   60.2040   29.4100   49.0450 C   0  0  0  0  0  0  0  0  0  0  0  0
   59.3080   32.8200   46.8280 C   0  0  0  0  0  0  0  0  0  0  0  0
   59.6080   34.1540   46.6960 C   0  0  0  0  0  0  0  0  0  0  0  0
   58.9960   34.9510   45.7330 C   0  0  0  0  0  0  0  0  0  0  0  0
   58.0650   34.4190   44.8800 C   0  0  0  0  0  0  0  0  0  0  0  0
   57.7490   33.1020   44.9880 C   0  0  0  0  0  0  0  0  0  0  0  0
   58.3670   32.3100   45.9560 C   0  0  0  0  0  0  0  0  0  0  0  0
   58.1930   30.9030   46.2590 C   0  0  0  0  0  0  0  0  0  0  0  0
   57.4130   30.1070   45.6680 O   0  0  0  0  0  0  0  0  0  0  0  0
   56.8341   24.3435   46.8458 H   0  0  0  0  0  0  0  0  0  0  0  0
   55.8472   24.4649   45.3498 H   0  0  0  0  0  0  0  0  0  0  0  0
   57.5516   25.0318   45.3498 H   0  0  0  0  0  0  0  0  0  0  0  0
   55.0856   26.3761   46.2271 H   0  0  0  0  0  0  0  0  0  0  0  0
   56.4878   26.4531   47.4087 H   0  0  0  0  0  0  0  0  0  0  0  0
   56.9130   28.2750   46.1200 H   0  0  0  0  0  0  0  0  0  0  0  0
   57.8945   25.9369   44.6684 H   0  0  0  0  0  0  0  0  0  0  0  0
   57.4521   27.3521   43.6645 H   0  0  0  0  0  0  0  0  0  0  0  0
   59.7042   27.8069   44.1517 H   0  0  0  0  0  0  0  0  0  0  0  0
   58.8636   28.6964   45.4704 H   0  0  0  0  0  0  0  0  0  0  0  0
   59.8063   25.8216   45.7444 H   0  0  0  0  0  0  0  0  0  0  0  0
   60.8261   27.2557   46.1700 H   0  0  0  0  0  0  0  0  0  0  0  0
   58.3353   26.1999   47.4887 H   0  0  0  0  0  0  0  0  0  0  0  0
   59.8799   26.7796   48.2117 H   0  0  0  0  0  0  0  0  0  0  0  0
   57.5270   28.4080   47.4470 H   0  0  0  0  0  0  0  0  0  0  0  0
   61.4485   33.0583   50.1860 H   0  0  0  0  0  0  0  0  0  0  0  0
   62.4075   32.9224   48.6732 H   0  0  0  0  0  0  0  0  0  0  0  0
   60.8528   33.8221   48.6732 H   0  0  0  0  0  0  0  0  0  0  0  0
   62.3384   31.3652   50.7375 H   0  0  0  0  0  0  0  0  0  0  0  0
   62.7015   29.2077   51.9112 H   0  0  0  0  0  0  0  0  0  0  0  0
   61.4676   27.1740   51.2502 H   0  0  0  0  0  0  0  0  0  0  0  0
   59.8348   27.3146   49.3755 H   0  0  0  0  0  0  0  0  0  0  0  0
   60.3520   34.6045   47.3695 H   0  0  0  0  0  0  0  0  0  0  0  0
   59.2616   36.0157   45.6562 H   0  0  0  0  0  0  0  0  0  0  0  0
   57.5807   35.0487   44.1192 H   0  0  0  0  0  0  0  0  0  0  0  0
   57.0041   32.6592   44.3105 H   0  0  0  0  0  0  0  0  0  0  0  0
  1  2  1  0
  2  3  1  0
  3  4  1  0
  4  5  1  0
  5  6  1  0
  6  7  1  0
  7  8  1  0
  8  9  1  0
  9 10  2  0
 10 11  1  0
 11 12  2  0
 12 13  1  0
 12 14  1  0
 14 15  2  0
 15 16  1  0
 16 17  2  0
 17 18  1  0
 18 19  2  0
 11 20  1  0
 20 21  2  0
 21 22  1  0
 22 23  2  0
 23 24  1  0
 24 25  2  0
 25 26  1  0
 26 27  2  0
 19  9  1  0
 25 20  1  0
 26 10  1  0
 19 14  1  0
  1 28  1  0
  1 29  1  0
  1 30  1  0
  2 31  1  0
  2 32  1  0
  3 33  1  0
  4 34  1  0
  4 35  1  0
  5 36  1  0
  5 37  1  0
  6 38  1  0
  6 39  1  0
  7 40  1  0
  7 41  1  0
  8 42  1  0
 13 43  1  0
 13 44  1  0
 13 45  1  0
 15 46  1  0
 16 47  1  0
 17 48  1  0
 18 49  1  0
 21 50  1  0
 22 51  1  0
 23 52  1  0
 24 53  1  0
M  CHG  1  12   1
M  END
>  <smiles>  (4) 
CCNCCCCNc1c2c([n+](C)c3ccccc13)-c1ccccc1C2=O

>  <score_type>  (4) 
oracle

>  <origin>  (4) 
adg

>  <m_score__min__energy>  (4) 
-6.1200000000000001

>  <m_primary>  (4) 
energy

$$$$
4:0
     RDKit          3D

 87 91  0  0  0  0  0  0  0  0999 V2000
   56.6440   23.7070   43.3760 C   0  0  0  0  0  0  0  0  0  0  0  0
   57.5080   24.3010   44.4550 C   0  0  0  0  0  0  0  0  0  0  0  0
   57.2370   25.6500   44.7980 N   0  0  0  0  0  0  0  0  0  0  0  0
   56.8240   25.8480   46.1210 C   0  0  0  0  0  0  0  0  0  0  0  0
   57.6200   25.2050   47.2180 C   0  0  0  0  0  0  0  0  0  0  0  0
   57.9660   26.6240   44.1120 C   0  0  0  0  0  0  0  0  0  0  0  0
   57.6160   28.0400   44.1200 C   0  0  0  0  0  0  0  0  0  0  0  0
   58.6170   29.0480   44.1570 N   0  0  0  0  0  0  0  0  0  0  0  0
   58.7690   29.9470   45.2570 C   0  0  0  0  0  0  0  0  0  0  0  0
   58.5180   31.2970   45.1850 C   0  0  0  0  0  0  0  0  0  0  0  0
   58.0190   31.7900   44.0090 C   0  0  0  0  0  0  0  0  0  0  0  0
   57.7250   33.1160   43.7800 C   0  0  0  0  0  0  0  0  0  0  0  0
   57.9540   33.9930   44.8110 C   0  0  0  0  0  0  0  0  0  0  0  0
   58.4580   33.5080   46.0120 C   0  0  0  0  0  0  0  0  0  0  0  0
   58.7430   32.1740   46.2230 C   0  0  0  0  0  0  0  0  0  0  0  0
   59.2390   31.7130   47.4080 N   0  0  0  0  0  0  0  0  0  0  0  0
   59.2030   32.6460   48.4940 C   0  0  0  0  0  0  0  0  0  0  0  0
   59.5100   30.3990   47.5300 C   0  0  0  0  0  0  0  0  0  0  0  0
   59.2820   29.4990   46.4870 C   0  0  0  0  0  0  0  0  0  0  0  0
   59.5120   28.1620   46.5730 C   0  0  0  0  0  0  0  0  0  0  0  0
   60.0040   27.6240   47.7340 C   0  0  0  0  0  0  0  0  0  0  0  0
   60.2500   28.5230   48.7810 C   0  0  0  0  0  0  0  0  0  0  0  0
   60.8240   27.9330   49.8980 C   0  0  0  0  0  0  0  0  0  0  0  0
   61.1620   28.7810   50.9260 C   0  0  0  0  0  0  0  0  0  0  0  0
   60.9770   30.1320   50.9160 C   0  0  0  0  0  0  0  0  0  0  0  0
   61.3070   31.0010   51.9200 O   0  0  0  0  0  0  0  0  0  0  0  0
   62.5070   31.3490   52.4820 C   0  0  0  0  0  0  0  0  0  0  0  0
   62.8970   32.7820   52.4000 C   0  0  0  0  0  0  0  0  0  0  0  0
   63.6910   33.1350   51.2460 N   0  0  0  0  0  0  0  0  0  0  0  0
   64.9040   33.8500   51.6360 C   0  0  0  0  0  0  0  0  0  0  0  0
   64.0620   32.0310   50.4060 C   0  0  0  0  0  0  0  0  0  0  0  0
   64.5090   32.5790   49.0480 C   0  0  0  0  0  0  0  0  0  0  0  0
   63.3240   32.8520   48.2830 N   0  0  0  0  0  0  0  0  0  0  0  0
   63.5330   33.8590   47.2420 C   0  0  0  0  0  0  0  0  0  0  0  0
   62.8520   31.5950   47.7110 C   0  0  0  0  0  0  0  0  0  0  0  0
   62.3150   33.3070   49.2350 C   0  0  0  0  0  0  0  0  0  0  0  0
   62.9550   34.0700   50.3800 C   0  0  0  0  0  0  0  0  0  0  0  0
   60.3860   30.6590   49.7410 C   0  0  0  0  0  0  0  0  0  0  0  0
   60.0180   29.8610   48.6870 C   0  0  0  0  0  0  0  0  0  0  0  0
   55.8205   23.1409   43.8358 H   0  0  0  0  0  0  0  0  0  0  0  0
   56.2311   24.5130   42.7517 H   0  0  0  0  0  0  0  0  0  0  0  0
   57.2487   23.0328   42.7517 H   0  0  0  0  0  0  0  0  0  0  0  0
   57.3804   23.6914   45.3617 H   0  0  0  0  0  0  0  0  0  0  0  0
   58.5308   24.2984   44.0501 H   0  0  0  0  0  0  0  0  0  0  0  0
   56.8314   26.9323   46.3057 H   0  0  0  0  0  0  0  0  0  0  0  0
   55.8411   25.3571   46.1750 H   0  0  0  0  0  0  0  0  0  0  0  0
   57.2246   25.5244   48.1935 H   0  0  0  0  0  0  0  0  0  0  0  0
   57.5452   24.1109   47.1324 H   0  0  0  0  0  0  0  0  0  0  0  0
   58.6739   25.5082   47.1324 H   0  0  0  0  0  0  0  0  0  0  0  0
   58.9920   26.5647   44.5042 H   0  0  0  0  0  0  0  0  0  0  0  0
   57.7566   26.3549   43.0662 H   0  0  0  0  0  0  0  0  0  0  0  0
   57.0266   28.2200   43.2089 H   0  0  0  0  0  0  0  0  0  0  0  0
   57.1224   28.1581   45.0959 H   0  0  0  0  0  0  0  0  0  0  0  0
   59.3160   29.1950   43.3710 H   0  0  0  0  0  0  0  0  0  0  0  0
   57.8405   31.0775   43.1902 H   0  0  0  0  0  0  0  0  0  0  0  0
   57.3245   33.4571   42.8139 H   0  0  0  0  0  0  0  0  0  0  0  0
   57.7414   35.0653   44.6882 H   0  0  0  0  0  0  0  0  0  0  0  0
   58.6379   34.2194   46.8315 H   0  0  0  0  0  0  0  0  0  0  0  0
   59.2241   32.0990   49.4481 H   0  0  0  0  0  0  0  0  0  0  0  0
   60.0761   33.3124   48.4340 H   0  0  0  0  0  0  0  0  0  0  0  0
   58.2811   33.2431   48.4340 H   0  0  0  0  0  0  0  0  0  0  0  0
   59.3033   27.5116   45.7108 H   0  0  0  0  0  0  0  0  0  0  0  0
   60.1953   26.5458   47.8383 H   0  0  0  0  0  0  0  0  0  0  0  0
   60.9987   26.8486   49.9576 H   0  0  0  0  0  0  0  0  0  0  0  0
   61.6157   28.3363   51.8240 H   0  0  0  0  0  0  0  0  0  0  0  0
   62.4672   31.0756   53.5467 H   0  0  0  0  0  0  0  0  0  0  0  0
   63.2659   30.8108   51.8951 H   0  0  0  0  0  0  0  0  0  0  0  0
   61.9772   33.3850   52.3784 H   0  0  0  0  0  0  0  0  0  0  0  0
   63.5287   32.9788   53.2788 H   0  0  0  0  0  0  0  0  0  0  0  0
   64.9699   33.8889   52.7333 H   0  0  0  0  0  0  0  0  0  0  0  0
   65.7837   33.3260   51.2341 H   0  0  0  0  0  0  0  0  0  0  0  0
   64.8716   34.8735   51.2341 H   0  0  0  0  0  0  0  0  0  0  0  0
   64.8883   31.4731   50.8707 H   0  0  0  0  0  0  0  0  0  0  0  0
   63.2048   31.3543   50.2744 H   0  0  0  0  0  0  0  0  0  0  0  0
   65.0875   33.5041   49.1879 H   0  0  0  0  0  0  0  0  0  0  0  0
   65.1481   31.8509   48.5270 H   0  0  0  0  0  0  0  0  0  0  0  0
   63.7353   34.8337   47.7100 H   0  0  0  0  0  0  0  0  0  0  0  0
   64.3898   33.5676   46.6167 H   0  0  0  0  0  0  0  0  0  0  0  0
   62.6310   33.9327   46.6167 H   0  0  0  0  0  0  0  0  0  0  0  0
   62.5905   30.8987   48.5214 H   0  0  0  0  0  0  0  0  0  0  0  0
   61.9640   31.7852   47.0902 H   0  0  0  0  0  0  0  0  0  0  0  0
   63.6457   31.1537   47.0902 H   0  0  0  0  0  0  0  0  0  0  0  0
   61.6025   33.9658   48.7171 H   0  0  0  0  0  0  0  0  0  0  0  0
   61.7972   32.4274   49.6451 H   0  0  0  0  0  0  0  0  0  0  0  0
   63.6509   34.8201   49.9763 H   0  0  0  0  0  0  0  0  0  0  0  0
   62.1720   34.5723   50.9670 H   0  0  0  0  0  0  0  0  0  0  0  0
   60.2166   31.7436   49.6714 H   0  0  0  0  0  0  0  0  0  0  0  0
  1  2  1  0
  2  3  1  0
  3  4  1  0
  4  5  1  0
  3  6  1  0
  6  7  1  0
  7  8  1  0
  8  9  1  0
  9 10  2  0
 10 11  1  0
 11 12  2  0
 12 13  1  0
 13 14  2  0
 14 15  1  0
 15 16  2  0
 16 17  1  0
 16 18  1  0
 18 19  2  0
 19 20  1  0
 20 21  2  0
 21 22  1  0
 22 23  2  0
 23 24  1  0
 24 25  2  0
 25 26  1  0
 26 27  1  0
 27 28  1  0
 28 29  1  0
 29 30  1  0
 29 31  1  0
 31 32  1  0
 32 33  1  0
 33 34  1  0
 33 35  1  0
 33 36  1  0
 36 37  1  0
 25 38  1  0
 38 39  2  0
 19  9  1  0
 39 22  1  0
 15 10  1  0
 39 18  1  0
 37 29  1  0
  1 40  1  0
  1 41  1  0
  1 42  1  0
  2 43  1  0
  2 44  1  0
  4 45  1  0
  4 46  1  0
  5 47  1  0
  5 48  1  0
  5 49  1  0
  6 50  1  0
  6 51  1  0
  7 52  1  0
  7 53  1  0
  8 54  1  0
 11 55  1  0
 12 56  1  0
 13 57  1  0
 14 58  1  0
 17 59  1  0
 17 60  1  0
 17 61  1  0
 20 62  1  0
 21 63  1  0
 23 64  1  0
 24 65  1  0
 27 66  1  0
 27 67  1  0
 28 68  1  0
 28 69  1  0
 30 70  1  0
 30 71  1  0
 30 72  1  0
 31 73  1  0
 31 74  1  0
 32 75  1  0
 32 76  1  0
 34 77  1  0
 34 78  1  0
 34 79  1  0
 35 80  1  0
 35 81  1  0
 35 82  1  0
 36 83  1  0
 36 84  1  0
 37 85  1  0
 37 86  1  0
 38 87  1  0
M  CHG  3  16   1  29   1  33   1
M  END
>  <smiles>  (5) 
CCN(CC)CCNc1c2ccccc2[n+](C)c2c1ccc1ccc(OCC[N+]3(C)CC[N+](C)(C)CC3)cc12

>  <score_type>  (5) 
oracle

>  <origin>  (5) 
adg

>  <m_score__min__energy>  (5) 
-4.8200000000000003

>  <m_primary>  (5) 
energy

$$$$
5:0
     RDKit          3D

 60 62  0  0  0  0  0  0  0  0999 V2000
   63.3940   34.1080   46.2250 C   0  0  0  0  0  0  0  0  0  0  0  0
   62.4360   33.1150   46.8200 C   0  0  0  0  0  0  0  0  0  0  0  0
   62.7620   32.5900   48.0770 N   0  0  0  0  0  0  0  0  0  0  0  0
   62.6100   31.2120   48.3240 C   0  0  0  0  0  0  0  0  0  0  0  0
   61.2750   30.6530   47.8290 C   0  0  0  0  0  0  0  0  0  0  0  0
   63.1770   33.4390   49.1170 C   0  0  0  0  0  0  0  0  0  0  0  0
   62.0920   34.1700   49.8690 C   0  0  0  0  0  0  0  0  0  0  0  0
   60.9480   33.3060   50.0750 N   0  0  0  0  0  0  0  0  0  0  0  0
   59.6770   33.9290   49.7880 C   0  0  0  0  0  0  0  0  0  0  0  0
   59.7680   34.6320   48.4700 C   0  0  0  0  0  0  0  0  0  0  0  0
   59.1850   33.8430   47.3360 C   0  0  0  0  0  0  0  0  0  0  0  0
   59.2330   34.3230   46.0290 C   0  0  0  0  0  0  0  0  0  0  0  0
   58.6590   33.5230   45.0580 C   0  0  0  0  0  0  0  0  0  0  0  0
   58.0630   32.3000   45.3710 C   0  0  0  0  0  0  0  0  0  0  0  0
   57.4800   31.5180   44.2370 C   0  0  0  0  0  0  0  0  0  0  0  0
   57.2720   30.1360   44.5500 N   0  0  0  0  0  0  0  0  0  0  0  0
   58.3130   29.2390   44.9500 C   0  0  0  0  0  0  0  0  0  0  0  0
   59.6300   29.6350   44.8070 C   0  0  0  0  0  0  0  0  0  0  0  0
   60.5960   28.7220   45.2250 C   0  0  0  0  0  0  0  0  0  0  0  0
   60.2310   27.4790   45.7550 C   0  0  0  0  0  0  0  0  0  0  0  0
   58.9000   27.1160   45.8820 C   0  0  0  0  0  0  0  0  0  0  0  0
   58.4840   25.9160   46.3890 C   0  0  0  0  0  0  0  0  0  0  0  0
   57.1440   25.5600   46.5090 C   0  0  0  0  0  0  0  0  0  0  0  0
   56.2190   26.5030   46.0800 C   0  0  0  0  0  0  0  0  0  0  0  0
   56.6310   27.6960   45.5770 N   0  0  0  0  0  0  0  0  0  0  0  0
   57.9500   28.0120   45.4730 C   0  0  0  0  0  0  0  0  0  0  0  0
   58.0330   31.8570   46.6750 C   0  0  0  0  0  0  0  0  0  0  0  0
   58.6010   32.6380   47.6620 C   0  0  0  0  0  0  0  0  0  0  0  0
   63.9129   34.6459   47.0321 H   0  0  0  0  0  0  0  0  0  0  0  0
   64.1316   33.5790   45.6036 H   0  0  0  0  0  0  0  0  0  0  0  0
   62.8388   34.8261   45.6036 H   0  0  0  0  0  0  0  0  0  0  0  0
   61.4584   33.6110   46.9111 H   0  0  0  0  0  0  0  0  0  0  0  0
   62.4576   32.2532   46.1367 H   0  0  0  0  0  0  0  0  0  0  0  0
   63.4239   30.6742   47.8157 H   0  0  0  0  0  0  0  0  0  0  0  0
   62.6383   31.0711   49.4146 H   0  0  0  0  0  0  0  0  0  0  0  0
   60.6454   30.3894   48.6916 H   0  0  0  0  0  0  0  0  0  0  0  0
   60.7629   31.4123   47.2197 H   0  0  0  0  0  0  0  0  0  0  0  0
   61.4567   29.7554   47.2197 H   0  0  0  0  0  0  0  0  0  0  0  0
   63.7330   32.8286   49.8438 H   0  0  0  0  0  0  0  0  0  0  0  0
   63.7705   34.2258   48.6284 H   0  0  0  0  0  0  0  0  0  0  0  0
   62.4825   34.4927   50.8454 H   0  0  0  0  0  0  0  0  0  0  0  0
   61.7768   35.0436   49.2795 H   0  0  0  0  0  0  0  0  0  0  0  0
   61.0150   32.5060   49.3880 H   0  0  0  0  0  0  0  0  0  0  0  0
   58.8910   33.1607   49.7431 H   0  0  0  0  0  0  0  0  0  0  0  0
   59.4292   34.6517   50.5794 H   0  0  0  0  0  0  0  0  0  0  0  0
   59.2272   35.5869   48.5454 H   0  0  0  0  0  0  0  0  0  0  0  0
   60.8362   34.7771   48.2510 H   0  0  0  0  0  0  0  0  0  0  0  0
   59.7024   35.2868   45.7826 H   0  0  0  0  0  0  0  0  0  0  0  0
   58.6724   33.8594   44.0108 H   0  0  0  0  0  0  0  0  0  0  0  0
   56.5117   31.9643   43.9664 H   0  0  0  0  0  0  0  0  0  0  0  0
   58.2015   31.5593   43.4077 H   0  0  0  0  0  0  0  0  0  0  0  0
   56.2700   29.7830   44.4720 H   0  0  0  0  0  0  0  0  0  0  0  0
   59.8998   30.6152   44.3871 H   0  0  0  0  0  0  0  0  0  0  0  0
   61.6612   28.9819   45.1372 H   0  0  0  0  0  0  0  0  0  0  0  0
   61.0151   26.7777   46.0765 H   0  0  0  0  0  0  0  0  0  0  0  0
   59.2472   25.1957   46.7187 H   0  0  0  0  0  0  0  0  0  0  0  0
   56.8352   24.5875   46.9200 H   0  0  0  0  0  0  0  0  0  0  0  0
   55.1436   26.2821   46.1481 H   0  0  0  0  0  0  0  0  0  0  0  0
   57.5632   30.8947   46.9265 H   0  0  0  0  0  0  0  0  0  0  0  0
   58.5874   32.2985   48.7082 H   0  0  0  0  0  0  0  0  0  0  0  0
  1  2  1  0
  2  3  1  0
  3  4  1  0
  4  5  1  0
  3  6  1  0
  6  7  1  0
  7  8  1  0
  8  9  1  0
  9 10  1  0
 10 11  1  0
 11 12  2  0
 12 13  1  0
 13 14  2  0
 14 15  1  0
 15 16  1  0
 16 17  1  0
 17 18  2  0
 18 19  1  0
 19 20  2  0
 20 21  1  0
 21 22  2  0
 22 23  1  0
 23 24  2  0
 24 25  1  0
 25 26  2  0
 14 27  1  0
 27 28  2  0
 28 11  1  0
 26 17  1  0
 26 21  1  0
  1 29  1  0
  1 30  1  0
  1 31  1  0
  2 32  1  0
  2 33  1  0
  4 34  1  0
  4 35  1  0
  5 36  1  0
  5 37  1  0
  5 38  1  0
  6 39  1  0
  6 40  1  0
  7 41  1  0
  7 42  1  0
  8 43  1  0
  9 44  1  0
  9 45  1  0
 10 46  1  0
 10 47  1  0
 12 48  1  0
 13 49  1  0
 15 50  1  0
 15 51  1  0
 16 52  1  0
 18 53  1  0
 19 54  1  0
 20 55  1  0
 22 56  1  0
 23 57  1  0
 24 58  1  0
 27 59  1  0
 28 60  1  0
M  END
>  <smiles>  (6) 
CCN(CC)CCNCCc1ccc(CNc2cccc3cccnc23)cc1

>  <score_type>  (6) 
oracle

>  <origin>  (6) 
adg

>  <m_score__min__energy>  (6) 
-7.9199999999999999

>  <m_primary>  (6) 
energy

$$$$
6:0
     RDKit          3D

 51 55  0  0  0  0  0  0  0  0999 V2000
   59.2730   34.9550   47.2190 C   0  0  0  0  0  0  0  0  0  0  0  0
   60.0960   34.5660   46.0140 C   0  0  0  0  0  0  0  0  0  0  0  0
   59.2440   34.3680   44.9610 O   0  0  0  0  0  0  0  0  0  0  0  0
   57.8840   34.5900   45.2650 C   0  0  0  0  0  0  0  0  0  0  0  0
   57.1380   33.3340   44.8900 C   0  0  0  0  0  0  0  0  0  0  0  0
   57.7230   32.1110   45.3740 N   0  0  0  0  0  0  0  0  0  0  0  0
   58.4780   31.9720   46.4700 N   0  0  0  0  0  0  0  0  0  0  0  0
   58.8880   30.6810   46.5930 C   0  0  0  0  0  0  0  0  0  0  0  0
   59.8130   30.2640   47.6670 C   0  0  0  0  0  0  0  0  0  0  0  0
   60.4360   31.3920   48.3210 N   0  0  0  0  0  0  0  0  0  0  0  0
   59.8240   31.9710   49.4140 C   0  0  0  0  0  0  0  0  0  0  0  0
   58.6390   31.6680   50.0820 C   0  0  0  0  0  0  0  0  0  0  0  0
   58.1900   32.3690   51.1680 C   0  0  0  0  0  0  0  0  0  0  0  0
   58.9390   33.4290   51.6340 C   0  0  0  0  0  0  0  0  0  0  0  0
   60.1170   33.7210   50.9630 C   0  0  0  0  0  0  0  0  0  0  0  0
   60.5640   33.0120   49.8720 C   0  0  0  0  0  0  0  0  0  0  0  0
   61.6700   33.1080   49.0600 C   0  0  0  0  0  0  0  0  0  0  0  0
   62.7380   33.9770   49.0670 C   0  0  0  0  0  0  0  0  0  0  0  0
   63.7160   33.8280   48.1140 C   0  0  0  0  0  0  0  0  0  0  0  0
   63.6040   32.8060   47.1660 C   0  0  0  0  0  0  0  0  0  0  0  0
   62.5320   31.9640   47.1880 C   0  0  0  0  0  0  0  0  0  0  0  0
   61.5410   32.0840   48.1230 C   0  0  0  0  0  0  0  0  0  0  0  0
   58.3480   30.0320   45.5240 C   0  0  0  0  0  0  0  0  0  0  0  0
   58.3910   28.7250   45.1180 C   0  0  0  0  0  0  0  0  0  0  0  0
   57.7500   28.2760   43.9970 C   0  0  0  0  0  0  0  0  0  0  0  0
   57.0190   29.1350   43.2130 C   0  0  0  0  0  0  0  0  0  0  0  0
   56.9580   30.4750   43.6070 C   0  0  0  0  0  0  0  0  0  0  0  0
   57.6170   30.9160   44.7530 C   0  0  0  0  0  0  0  0  0  0  0  0
   59.8213   34.6958   48.1367 H   0  0  0  0  0  0  0  0  0  0  0  0
   59.0829   36.0383   47.1990 H   0  0  0  0  0  0  0  0  0  0  0  0
   58.3153   34.4142   47.1990 H   0  0  0  0  0  0  0  0  0  0  0  0
   60.8061   35.3706   45.7724 H   0  0  0  0  0  0  0  0  0  0  0  0
   60.6638   33.6471   46.2218 H   0  0  0  0  0  0  0  0  0  0  0  0
   57.7653   34.7934   46.3395 H   0  0  0  0  0  0  0  0  0  0  0  0
   57.4947   35.4578   44.7124 H   0  0  0  0  0  0  0  0  0  0  0  0
   56.1185   33.4086   45.2962 H   0  0  0  0  0  0  0  0  0  0  0  0
   57.1677   33.2753   43.7920 H   0  0  0  0  0  0  0  0  0  0  0  0
   59.2495   29.6877   48.4156 H   0  0  0  0  0  0  0  0  0  0  0  0
   60.6088   29.6576   47.2099 H   0  0  0  0  0  0  0  0  0  0  0  0
   58.0349   30.8237   49.7183 H   0  0  0  0  0  0  0  0  0  0  0  0
   57.2468   32.0915   51.6614 H   0  0  0  0  0  0  0  0  0  0  0  0
   58.6149   34.0196   52.5036 H   0  0  0  0  0  0  0  0  0  0  0  0
   60.7260   34.5638   51.3219 H   0  0  0  0  0  0  0  0  0  0  0  0
   62.8067   34.7750   49.8210 H   0  0  0  0  0  0  0  0  0  0  0  0
   64.5808   34.5075   48.0966 H   0  0  0  0  0  0  0  0  0  0  0  0
   64.3835   32.6811   46.4000 H   0  0  0  0  0  0  0  0  0  0  0  0
   62.4622   31.1666   46.4335 H   0  0  0  0  0  0  0  0  0  0  0  0
   58.9659   28.0055   45.7195 H   0  0  0  0  0  0  0  0  0  0  0  0
   57.8205   27.2139   43.7195 H   0  0  0  0  0  0  0  0  0  0  0  0
   56.5011   28.7818   42.3091 H   0  0  0  0  0  0  0  0  0  0  0  0
   56.3815   31.1916   43.0037 H   0  0  0  0  0  0  0  0  0  0  0  0
  1  2  1  0
  2  3  1  0
  3  4  1  0
  4  5  1  0
  5  6  1  0
  6  7  1  0
  7  8  2  0
  8  9  1  0
  9 10  1  0
 10 11  1  0
 11 12  2  0
 12 13  1  0
 13 14  2  0
 14 15  1  0
 15 16  2  0
 16 17  1  0
 17 18  2  0
 18 19  1  0
 19 20  2  0
 20 21  1  0
 21 22  2  0
  8 23  1  0
 23 24  2  0
 24 25  1  0
 25 26  2  0
 26 27  1  0
 27 28  2  0
 28  6  1  0
 22 10  1  0
 28 23  1  0
 16 11  1  0
 22 17  1  0
  1 29  1  0
  1 30  1  0
  1 31  1  0
  2 32  1  0
  2 33  1  0
  4 34  1  0
  4 35  1  0
  5 36  1  0
  5 37  1  0
  9 38  1  0
  9 39  1  0
 12 40  1  0
 13 41  1  0
 14 42  1  0
 15 43  1  0
 18 44  1  0
 19 45  1  0
 20 46  1  0
 21 47  1  0
 24 48  1  0
 25 49  1  0
 26 50  1  0
 27 51  1  0
M  END
>  <smiles>  (7) 
CCOCCn1nc(Cn2c3ccccc3c3ccccc32)c2ccccc21

>  <score_type>  (7) 
oracle

>  <origin>  (7) 
adg

>  <m_score__min__energy>  (7) 
-9.1699999999999999

>  <m_primary>  (7) 
energy

$$$$
7:0
     RDKit          3D

 51 53  0  0  1  0  0  0  0  0999 V2000
   55.5560   29.7700   44.3870 C   0  0  0  0  0  0  0  0  0  0  0  0
   56.6190   30.7610   43.9810 C   0  0  0  0  0  0  0  0  0  0  0  0
   57.4080   31.2300   45.0840 N   0  0  0  0  0  0  0  0  0  0  0  0
   56.9790   32.6020   45.3440 C   0  0  0  0  0  0  0  0  0  0  0  0
   57.9960   33.6300   44.9800 C   0  0  0  0  0  0  0  0  0  0  0  0
   58.8210   31.2790   44.8440 C   0  0  0  0  0  0  0  0  0  0  0  0
   59.5790   30.3520   45.6250 N   0  0  0  0  0  0  0  0  0  0  0  0
   59.1200   30.3150   46.9690 C   0  0  0  0  0  0  0  0  0  0  0  0
   58.3270   29.1490   47.3040 N   0  0  0  0  0  0  0  0  0  0  0  0
   57.9500   28.1590   46.3550 C   0  0  0  0  0  0  0  0  0  0  0  0
   56.9910   27.2720   46.5600 N   0  0  0  0  0  0  0  0  0  0  0  0
   56.6340   26.3210   45.6340 C   0  0  0  0  0  0  0  0  0  0  0  0
   55.6300   25.4850   45.9950 O   0  0  0  0  0  0  0  0  0  0  0  0
   55.3120   24.1830   45.7800 C   0  0  0  0  0  0  0  0  0  0  0  0
   55.9650   23.3900   44.7390 C   0  0  1  0  0  0  0  0  0  0  0  0
   56.1630   21.9150   44.9590 C   0  0  0  0  0  0  0  0  0  0  0  0
   56.7300   21.6080   43.5350 C   0  0  0  0  0  0  0  0  0  0  0  0
   55.8900   22.3140   42.6850 O   0  0  0  0  0  0  0  0  0  0  0  0
   55.2290   23.3080   43.4020 C   0  0  0  0  0  0  0  0  0  0  0  0
   57.3170   26.3410   44.4970 N   0  0  0  0  0  0  0  0  0  0  0  0
   58.2950   27.2000   44.2170 C   0  0  0  0  0  0  0  0  0  0  0  0
   58.8810   27.1320   43.1050 O   0  0  0  0  0  0  0  0  0  0  0  0
   58.6270   28.1390   45.1650 C   0  0  0  0  0  0  0  0  0  0  0  0
   59.6910   29.1170   44.9350 C   0  0  0  0  0  0  0  0  0  0  0  0
   55.5018   29.7195   45.4845 H   0  0  0  0  0  0  0  0  0  0  0  0
   54.5832   30.0910   43.9862 H   0  0  0  0  0  0  0  0  0  0  0  0
   55.8081   28.7771   43.9862 H   0  0  0  0  0  0  0  0  0  0  0  0
   57.2879   30.2774   43.2538 H   0  0  0  0  0  0  0  0  0  0  0  0
   56.1045   31.6343   43.5536 H   0  0  0  0  0  0  0  0  0  0  0  0
   56.0660   32.7961   44.7619 H   0  0  0  0  0  0  0  0  0  0  0  0
   56.8129   32.6856   46.4282 H   0  0  0  0  0  0  0  0  0  0  0  0
   58.4241   34.0627   45.8962 H   0  0  0  0  0  0  0  0  0  0  0  0
   58.7955   33.1611   44.3876 H   0  0  0  0  0  0  0  0  0  0  0  0
   57.5186   34.4245   44.3876 H   0  0  0  0  0  0  0  0  0  0  0  0
   58.9984   31.0606   43.7806 H   0  0  0  0  0  0  0  0  0  0  0  0
   59.1568   32.2858   45.1332 H   0  0  0  0  0  0  0  0  0  0  0  0
   59.9976   30.3351   47.6319 H   0  0  0  0  0  0  0  0  0  0  0  0
   58.4619   31.1870   47.0977 H   0  0  0  0  0  0  0  0  0  0  0  0
   58.0250   29.0420   48.2840 H   0  0  0  0  0  0  0  0  0  0  0  0
   56.4880   27.3140   47.4850 H   0  0  0  0  0  0  0  0  0  0  0  0
   55.4982   23.6592   46.7292 H   0  0  0  0  0  0  0  0  0  0  0  0
   54.2806   24.2549   45.4045 H   0  0  0  0  0  0  0  0  0  0  0  0
   56.9007   23.9679   44.7587 H   0  0  0  0  0  0  0  0  0  0  0  0
   56.8859   21.6986   45.7593 H   0  0  0  0  0  0  0  0  0  0  0  0
   55.2865   21.3355   45.2843 H   0  0  0  0  0  0  0  0  0  0  0  0
   57.7678   21.9605   43.4421 H   0  0  0  0  0  0  0  0  0  0  0  0
   56.7556   20.5315   43.3103 H   0  0  0  0  0  0  0  0  0  0  0  0
   55.2849   24.2696   42.8707 H   0  0  0  0  0  0  0  0  0  0  0  0
   54.1606   23.0810   43.5326 H   0  0  0  0  0  0  0  0  0  0  0  0
   60.6419   28.6523   45.2348 H   0  0  0  0  0  0  0  0  0  0  0  0
   59.6229   29.3740   43.8676 H   0  0  0  0  0  0  0  0  0  0  0  0
  1  2  1  0
  2  3  1  0
  3  4  1  0
  4  5  1  0
  3  6  1  0
  6  7  1  0
  7  8  1  0
  8  9  1  0
  9 10  1  0
 10 11  1  0
 11 12  1  0
 12 13  1  0
 13 14  1  0
 14 15  1  0
 15 16  1  0
 16 17  1  0
 17 18  1  0
 18 19  1  0
 12 20  2  0
 20 21  1  0
 21 22  2  0
 21 23  1  0
 23 24  1  0
 24  7  1  0
 23 10  2  0
 19 15  1  0
  1 25  1  0
  1 26  1  0
  1 27  1  0
  2 28  1  0
  2 29  1  0
  4 30  1  0
  4 31  1  0
  5 32  1  0
  5 33  1  0
  5 34  1  0
  6 35  1  0
  6 36  1  0
  8 37  1  0
  8 38  1  0
  9 39  1  0
 11 40  1  0
 14 41  1  0
 14 42  1  0
 15 43  1  6
 16 44  1  0
 16 45  1  0
 17 46  1  0
 17 47  1  0
 19 48  1  0
 19 49  1  0
 24 50  1  0
 24 51  1  0
M  END
>  <smiles>  (8) 
CCN(CC)CN1CNc2[nH]c(OCC3CCOC3)nc(=O)c2C1

>  <score_type>  (8) 
oracle

>  <origin>  (8) 
adg

>  <m_score__min__energy>  (8) 
-7.79

>  <m_primary>  (8) 
energy

$$$$
8:0
     RDKit          3D

 45 46  0  0  0  0  0  0  0  0999 V2000
   63.7570   32.9000   47.1410 C   0  0  0  0  0  0  0  0  0  0  0  0
   63.0200   33.8230   48.1430 C   0  0  0  0  0  0  0  0  0  0  0  0
   61.6680   33.9840   47.7840 N   0  0  0  0  0  0  0  0  0  0  0  0
   60.7970   34.2240   48.8760 C   0  0  0  0  0  0  0  0  0  0  0  0
   61.0050   33.2490   50.0210 C   0  0  0  0  0  0  0  0  0  0  0  0
   61.2040   33.2260   46.6980 C   0  0  0  0  0  0  0  0  0  0  0  0
   60.3580   33.8670   45.6630 C   0  0  0  0  0  0  0  0  0  0  0  0
   59.2600   34.7620   46.0830 C   0  0  0  0  0  0  0  0  0  0  0  0
   57.9530   33.8780   47.0240 S   0  0  0  0  0  0  0  0  0  0  0  0
   57.7570   32.2840   46.2430 C   0  0  0  0  0  0  0  0  0  0  0  0
   57.0400   32.0060   45.1590 N   0  0  0  0  0  0  0  0  0  0  0  0
   57.1270   30.7320   44.8790 N   0  0  0  0  0  0  0  0  0  0  0  0
   57.9290   30.1170   45.7980 C   0  0  0  0  0  0  0  0  0  0  0  0
   58.2220   28.7050   45.7550 C   0  0  0  0  0  0  0  0  0  0  0  0
   59.4420   28.1170   45.9440 C   0  0  0  0  0  0  0  0  0  0  0  0
   59.6440   26.7350   45.8770 C   0  0  0  0  0  0  0  0  0  0  0  0
   58.5960   25.8880   45.6130 C   0  0  0  0  0  0  0  0  0  0  0  0
   57.3600   26.4620   45.4210 C   0  0  0  0  0  0  0  0  0  0  0  0
   57.1650   27.8220   45.4870 C   0  0  0  0  0  0  0  0  0  0  0  0
   55.9000   28.2670   45.2790 F   0  0  0  0  0  0  0  0  0  0  0  0
   58.3000   31.0940   46.6220 N   0  0  0  0  0  0  0  0  0  0  0  0
   59.1610   30.9850   47.7740 C   0  0  0  0  0  0  0  0  0  0  0  0
   64.3501   32.1572   47.6947 H   0  0  0  0  0  0  0  0  0  0  0  0
   63.0203   32.3832   46.5084 H   0  0  0  0  0  0  0  0  0  0  0  0
   64.4240   33.5041   46.5084 H   0  0  0  0  0  0  0  0  0  0  0  0
   63.0744   33.3786   49.1477 H   0  0  0  0  0  0  0  0  0  0  0  0
   63.5048   34.8103   48.1301 H   0  0  0  0  0  0  0  0  0  0  0  0
   60.9722   35.2445   49.2474 H   0  0  0  0  0  0  0  0  0  0  0  0
   59.7671   34.0926   48.5127 H   0  0  0  0  0  0  0  0  0  0  0  0
   60.8920   33.7785   50.9785 H   0  0  0  0  0  0  0  0  0  0  0  0
   60.2585   32.4437   49.9570 H   0  0  0  0  0  0  0  0  0  0  0  0
   62.0152   32.8184   49.9570 H   0  0  0  0  0  0  0  0  0  0  0  0
   62.0916   32.8291   46.1836 H   0  0  0  0  0  0  0  0  0  0  0  0
   60.5273   32.4958   47.1658 H   0  0  0  0  0  0  0  0  0  0  0  0
   61.0277   34.4588   45.0217 H   0  0  0  0  0  0  0  0  0  0  0  0
   59.8393   33.0212   45.1881 H   0  0  0  0  0  0  0  0  0  0  0  0
   59.6765   35.5568   46.7193 H   0  0  0  0  0  0  0  0  0  0  0  0
   58.7972   35.1730   45.1736 H   0  0  0  0  0  0  0  0  0  0  0  0
   60.3064   28.7624   46.1592 H   0  0  0  0  0  0  0  0  0  0  0  0
   60.6512   26.3228   46.0372 H   0  0  0  0  0  0  0  0  0  0  0  0
   58.7381   24.7986   45.5574 H   0  0  0  0  0  0  0  0  0  0  0  0
   56.4991   25.8113   45.2076 H   0  0  0  0  0  0  0  0  0  0  0  0
   58.5581   31.0613   48.6909 H   0  0  0  0  0  0  0  0  0  0  0  0
   59.6780   30.0142   47.7548 H   0  0  0  0  0  0  0  0  0  0  0  0
   59.9036   31.7963   47.7548 H   0  0  0  0  0  0  0  0  0  0  0  0
  1  2  1  0
  2  3  1  0
  3  4  1  0
  4  5  1  0
  3  6  1  0
  6  7  1  0
  7  8  1  0
  8  9  1  0
  9 10  1  0
 10 11  2  0
 11 12  1  0
 12 13  2  0
 13 14  1  0
 14 15  2  0
 15 16  1  0
 16 17  2  0
 17 18  1  0
 18 19  2  0
 19 20  1  0
 13 21  1  0
 21 22  1  0
 21 10  1  0
 19 14  1  0
  1 23  1  0
  1 24  1  0
  1 25  1  0
  2 26  1  0
  2 27  1  0
  4 28  1  0
  4 29  1  0
  5 30  1  0
  5 31  1  0
  5 32  1  0
  6 33  1  0
  6 34  1  0
  7 35  1  0
  7 36  1  0
  8 37  1  0
  8 38  1  0
 15 39  1  0
 16 40  1  0
 17 41  1  0
 18 42  1  0
 22 43  1  0
 22 44  1  0
 22 45  1  0
M  END
>  <smiles>  (9) 
CCN(CC)CCCSc1nnc(-c2ccccc2F)n1C

>  <score_type>  (9) 
oracle

>  <origin>  (9) 
adg

>  <m_score__min__energy>  (9) 
-7.4900000000000002

>  <m_primary>  (9) 
energy

$$$$
9:0
     RDKit          3D

 45 47  0  0  1  0  0  0  0  0999 V2000
   63.1510   33.4340   46.7590 C   0  0  0  0  0  0  0  0  0  0  0  0
   62.3050   33.8010   47.9470 C   0  0  0  0  0  0  0  0  0  0  0  0
   60.9620   34.1500   47.6290 N   0  0  0  0  0  0  0  0  0  0  0  0
   60.5610   34.0060   46.2740 C   0  0  0  0  0  0  0  0  0  0  0  0
   59.3160   33.2320   46.0340 C   0  0  1  0  0  0  0  0  0  0  0  0
   58.7890   33.3940   44.6150 C   0  0  0  0  0  0  0  0  0  0  0  0
   57.3420   32.8880   44.6460 C   0  0  0  0  0  0  0  0  0  0  0  0
   57.2130   31.6710   45.3180 O   0  0  0  0  0  0  0  0  0  0  0  0
   58.2760   31.0260   45.9450 C   0  0  0  0  0  0  0  0  0  0  0  0
   59.3800   31.7940   46.3270 C   0  0  0  0  0  0  0  0  0  0  0  0
   60.4360   31.1630   46.9480 C   0  0  0  0  0  0  0  0  0  0  0  0
   60.4020   29.7910   47.1880 C   0  0  0  0  0  0  0  0  0  0  0  0
   59.2940   29.0380   46.8010 C   0  0  0  0  0  0  0  0  0  0  0  0
   59.2310   27.6800   47.0270 C   0  0  0  0  0  0  0  0  0  0  0  0
   58.1000   26.9780   46.6240 C   0  0  0  0  0  0  0  0  0  0  0  0
   57.0310   27.6010   45.9990 C   0  0  0  0  0  0  0  0  0  0  0  0
   55.9020   26.9070   45.5960 O   0  0  0  0  0  0  0  0  0  0  0  0
   55.8870   25.5030   45.6490 C   0  0  0  0  0  0  0  0  0  0  0  0
   57.1110   28.9610   45.7800 C   0  0  0  0  0  0  0  0  0  0  0  0
   56.0410   29.5880   45.1540 O   0  0  0  0  0  0  0  0  0  0  0  0
   55.8880   29.7150   43.7730 C   0  0  0  0  0  0  0  0  0  0  0  0
   58.2410   29.6690   46.1810 C   0  0  0  0  0  0  0  0  0  0  0  0
   64.1088   33.0185   47.1053 H   0  0  0  0  0  0  0  0  0  0  0  0
   62.6240   32.6836   46.1514 H   0  0  0  0  0  0  0  0  0  0  0  0
   63.3389   34.3315   46.1514 H   0  0  0  0  0  0  0  0  0  0  0  0
   62.2836   32.9410   48.6326 H   0  0  0  0  0  0  0  0  0  0  0  0
   62.7637   34.6954   48.3939 H   0  0  0  0  0  0  0  0  0  0  0  0
   60.5520   34.9010   48.1810 H   0  0  0  0  0  0  0  0  0  0  0  0
   60.4139   35.0141   45.8592 H   0  0  0  0  0  0  0  0  0  0  0  0
   61.3628   33.4282   45.7910 H   0  0  0  0  0  0  0  0  0  0  0  0
   58.6296   33.6825   46.7660 H   0  0  0  0  0  0  0  0  0  0  0  0
   58.8185   34.4516   44.3139 H   0  0  0  0  0  0  0  0  0  0  0  0
   59.3982   32.8336   43.8906 H   0  0  0  0  0  0  0  0  0  0  0  0
   56.7172   33.6382   45.1528 H   0  0  0  0  0  0  0  0  0  0  0  0
   57.0221   32.7296   43.6055 H   0  0  0  0  0  0  0  0  0  0  0  0
   61.3145   31.7483   47.2573 H   0  0  0  0  0  0  0  0  0  0  0  0
   61.2521   29.3001   47.6844 H   0  0  0  0  0  0  0  0  0  0  0  0
   60.0645   27.1580   47.5198 H   0  0  0  0  0  0  0  0  0  0  0  0
   58.0523   25.8944   46.8070 H   0  0  0  0  0  0  0  0  0  0  0  0
   55.8835   25.1757   46.6992 H   0  0  0  0  0  0  0  0  0  0  0  0
   54.9848   25.1267   45.1447 H   0  0  0  0  0  0  0  0  0  0  0  0
   56.7810   25.1075   45.1447 H   0  0  0  0  0  0  0  0  0  0  0  0
   55.0579   30.4040   43.5579 H   0  0  0  0  0  0  0  0  0  0  0  0
   56.8164   30.1116   43.3362 H   0  0  0  0  0  0  0  0  0  0  0  0
   55.6691   28.7295   43.3362 H   0  0  0  0  0  0  0  0  0  0  0  0
  1  2  1  0
  2  3  1  0
  3  4  1  0
  4  5  1  0
  5  6  1  0
  6  7  1  0
  7  8  1  0
  8  9  1  0
  9 10  2  0
 10 11  1  0
 11 12  2  0
 12 13  1  0
 13 14  2  0
 14 15  1  0
 15 16  2  0
 16 17  1  0
 17 18  1  0
 16 19  1  0
 19 20  1  0
 20 21  1  0
 19 22  2  0
 10  5  1  0
 22 13  1  0
 22  9  1  0
  1 23  1  0
  1 24  1  0
  1 25  1  0
  2 26  1  0
  2 27  1  0
  3 28  1  0
  4 29  1  0
  4 30  1  0
  5 31  1  1
  6 32  1  0
  6 33  1  0
  7 34  1  0
  7 35  1  0
 11 36  1  0
 12 37  1  0
 14 38  1  0
 15 39  1  0
 18 40  1  0
 18 41  1  0
 18 42  1  0
 21 43  1  0
 21 44  1  0
 21 45  1  0
M  END
>  <smiles>  (10) 
CCNCC1CCOc2c1ccc1ccc(OC)c(OC)c21

>  <score_type>  (10) 
oracle

>  <origin>  (10) 
adg

>  <m_score__min__energy>  (10) 
-7.8799999999999999

>  <m_primary>  (10) 
energy

$$$$
10:0
     RDKit          3D

 52 53  0  0  0  0  0  0  0  0999 V2000
   63.2810   33.8450   46.4200 C   0  0  0  0  0  0  0  0  0  0  0  0
   63.3460   33.0580   47.7030 C   0  0  0  0  0  0  0  0  0  0  0  0
   63.0810   31.7200   47.5740 O   0  0  0  0  0  0  0  0  0  0  0  0
   62.1260   31.2000   48.4040 C   0  0  0  0  0  0  0  0  0  0  0  0
   60.9140   30.6850   47.7170 C   0  0  0  0  0  0  0  0  0  0  0  0
   60.8830   30.3590   46.3780 C   0  0  0  0  0  0  0  0  0  0  0  0
   59.7430   29.8880   45.7660 C   0  0  0  0  0  0  0  0  0  0  0  0
   58.5520   29.7200   46.4850 C   0  0  0  0  0  0  0  0  0  0  0  0
   57.4780   29.2510   45.7930 O   0  0  0  0  0  0  0  0  0  0  0  0
   56.6840   29.8020   44.8160 C   0  0  0  0  0  0  0  0  0  0  0  0
   57.3140   30.1320   43.5080 C   0  0  0  0  0  0  0  0  0  0  0  0
   57.4000   31.6350   43.3590 C   0  0  0  0  0  0  0  0  0  0  0  0
   58.2840   32.3140   44.3650 C   0  0  0  0  0  0  0  0  0  0  0  0
   57.9100   33.6780   44.5960 N   0  0  0  0  0  0  0  0  0  0  0  0
   59.0200   34.5900   44.7540 C   0  0  0  0  0  0  0  0  0  0  0  0
   59.7760   34.3740   46.0480 C   0  0  0  0  0  0  0  0  0  0  0  0
   58.8860   34.3340   47.1920 N   0  0  0  0  0  0  0  0  0  0  0  0
   59.6440   33.7960   48.3080 C   0  0  0  0  0  0  0  0  0  0  0  0
   57.7610   33.4500   46.9720 C   0  0  0  0  0  0  0  0  0  0  0  0
   57.0310   33.8410   45.7250 C   0  0  0  0  0  0  0  0  0  0  0  0
   58.6030   30.0480   47.8130 C   0  0  0  0  0  0  0  0  0  0  0  0
   59.7400   30.5200   48.4360 C   0  0  0  0  0  0  0  0  0  0  0  0
   63.1925   34.9167   46.6514 H   0  0  0  0  0  0  0  0  0  0  0  0
   64.1966   33.6704   45.8359 H   0  0  0  0  0  0  0  0  0  0  0  0
   62.4064   33.5225   45.8359 H   0  0  0  0  0  0  0  0  0  0  0  0
   64.3582   33.1671   48.1197 H   0  0  0  0  0  0  0  0  0  0  0  0
   62.5598   33.4663   48.3551 H   0  0  0  0  0  0  0  0  0  0  0  0
   62.5779   30.3704   48.9675 H   0  0  0  0  0  0  0  0  0  0  0  0
   61.7892   32.0286   49.0443 H   0  0  0  0  0  0  0  0  0  0  0  0
   61.7980   30.4789   45.7794 H   0  0  0  0  0  0  0  0  0  0  0  0
   59.7676   29.6394   44.6947 H   0  0  0  0  0  0  0  0  0  0  0  0
   55.8692   29.0904   44.6165 H   0  0  0  0  0  0  0  0  0  0  0  0
   56.3775   30.7752   45.2270 H   0  0  0  0  0  0  0  0  0  0  0  0
   58.3250   29.7004   43.4679 H   0  0  0  0  0  0  0  0  0  0  0  0
   56.7067   29.7151   42.6911 H   0  0  0  0  0  0  0  0  0  0  0  0
   57.7889   31.8584   42.3546 H   0  0  0  0  0  0  0  0  0  0  0  0
   56.3842   32.0230   43.5249 H   0  0  0  0  0  0  0  0  0  0  0  0
   58.2209   31.7655   45.3164 H   0  0  0  0  0  0  0  0  0  0  0  0
   59.3079   32.3129   43.9630 H   0  0  0  0  0  0  0  0  0  0  0  0
   59.7146   34.4476   43.9130 H   0  0  0  0  0  0  0  0  0  0  0  0
   58.6102   35.6106   44.7758 H   0  0  0  0  0  0  0  0  0  0  0  0
   60.3206   33.4202   45.9871 H   0  0  0  0  0  0  0  0  0  0  0  0
   60.4691   35.2173   46.1836 H   0  0  0  0  0  0  0  0  0  0  0  0
   59.1855   34.1214   49.2535 H   0  0  0  0  0  0  0  0  0  0  0  0
   59.6404   32.6971   48.2579 H   0  0  0  0  0  0  0  0  0  0  0  0
   60.6801   34.1620   48.2579 H   0  0  0  0  0  0  0  0  0  0  0  0
   58.1252   32.4170   46.8708 H   0  0  0  0  0  0  0  0  0  0  0  0
   57.0740   33.5244   47.8278 H   0  0  0  0  0  0  0  0  0  0  0  0
   56.1463   33.1995   45.5991 H   0  0  0  0  0  0  0  0  0  0  0  0
   56.7090   34.8904   45.7966 H   0  0  0  0  0  0  0  0  0  0  0  0
   57.6900   29.9291   48.4148 H   0  0  0  0  0  0  0  0  0  0  0  0
   59.7150   30.7665   49.5077 H   0  0  0  0  0  0  0  0  0  0  0  0
  1  2  1  0
  2  3  1  0
  3  4  1  0
  4  5  1  0
  5  6  2  0
  6  7  1  0
  7  8  2  0
  8  9  1  0
  9 10  1  0
 10 11  1  0
 11 12  1  0
 12 13  1  0
 13 14  1  0
 14 15  1  0
 15 16  1  0
 16 17  1  0
 17 18  1  0
 17 19  1  0
 19 20  1  0
  8 21  1  0
 21 22  2  0
 22  5  1  0
 20 14  1  0
  1 23  1  0
  1 24  1  0
  1 25  1  0
  2 26  1  0
  2 27  1  0
  4 28  1  0
  4 29  1  0
  6 30  1  0
  7 31  1  0
 10 32  1  0
 10 33  1  0
 11 34  1  0
 11 35  1  0
 12 36  1  0
 12 37  1  0
 13 38  1  0
 13 39  1  0
 15 40  1  0
 15 41  1  0
 16 42  1  0
 16 43  1  0
 18 44  1  0
 18 45  1  0
 18 46  1  0
 19 47  1  0
 19 48  1  0
 20 49  1  0
 20 50  1  0
 21 51  1  0
 22 52  1  0
M  END
>  <smiles>  (11) 
CCOCc1ccc(OCCCCN2CCN(C)CC2)cc1

>  <score_type>  (11) 
oracle

>  <origin>  (11) 
adg

>  <m_score__min__energy>  (11) 
-6.6200000000000001

>  <m_primary>  (11) 
energy

$$$$
11:0
     RDKit          3D

 49 52  0  0  0  0  0  0  0  0999 V2000
   57.4630   25.6740   44.7470 C   0  0  0  0  0  0  0  0  0  0  0  0
   56.9310   25.7960   46.0880 N   0  0  0  0  0  0  0  0  0  0  0  0
   55.8940   24.8430   46.3590 C   0  0  0  0  0  0  0  0  0  0  0  0
   57.9830   25.6120   47.0860 C   0  0  0  0  0  0  0  0  0  0  0  0
   59.2340   26.2020   46.4680 C   0  0  0  0  0  0  0  0  0  0  0  0
   59.3380   27.6380   46.8690 C   0  0  0  0  0  0  0  0  0  0  0  0
   58.0840   28.2980   46.6250 N   0  0  0  0  0  0  0  0  0  0  0  0
   58.1240   29.6630   46.2230 C   0  0  0  0  0  0  0  0  0  0  0  0
   58.6210   30.6510   47.0480 C   0  0  0  0  0  0  0  0  0  0  0  0
   58.6470   31.9740   46.6280 C   0  0  0  0  0  0  0  0  0  0  0  0
   58.1840   32.3250   45.3950 N   0  0  0  0  0  0  0  0  0  0  0  0
   58.2070   33.7050   44.9470 C   0  0  0  0  0  0  0  0  0  0  0  0
   57.7040   31.3820   44.5920 C   0  0  0  0  0  0  0  0  0  0  0  0
   57.2110   31.6480   43.3180 C   0  0  0  0  0  0  0  0  0  0  0  0
   56.7160   30.6520   42.5020 C   0  0  0  0  0  0  0  0  0  0  0  0
   56.6830   29.3400   42.9010 C   0  0  0  0  0  0  0  0  0  0  0  0
   57.1670   29.0530   44.1630 C   0  0  0  0  0  0  0  0  0  0  0  0
   57.6640   30.0520   44.9820 C   0  0  0  0  0  0  0  0  0  0  0  0
   59.2230   32.7560   47.7170 C   0  0  0  0  0  0  0  0  0  0  0  0
   59.4880   34.0760   47.8680 N   0  0  0  0  0  0  0  0  0  0  0  0
   60.0380   34.5910   48.9930 C   0  0  0  0  0  0  0  0  0  0  0  0
   60.3610   33.7590   50.0680 C   0  0  0  0  0  0  0  0  0  0  0  0
   60.1030   32.3990   49.9480 C   0  0  0  0  0  0  0  0  0  0  0  0
   59.5450   31.9430   48.7840 C   0  0  0  0  0  0  0  0  0  0  0  0
   59.1730   30.5700   48.3950 C   0  0  0  0  0  0  0  0  0  0  0  0
   59.3200   29.5540   49.1170 O   0  0  0  0  0  0  0  0  0  0  0  0
   58.5340   25.4284   44.7984 H   0  0  0  0  0  0  0  0  0  0  0  0
   56.9288   24.8750   44.2119 H   0  0  0  0  0  0  0  0  0  0  0  0
   57.3304   26.6259   44.2119 H   0  0  0  0  0  0  0  0  0  0  0  0
   55.7732   24.7320   47.4467 H   0  0  0  0  0  0  0  0  0  0  0  0
   54.9490   25.1944   45.9191 H   0  0  0  0  0  0  0  0  0  0  0  0
   56.1645   23.8718   45.9191 H   0  0  0  0  0  0  0  0  0  0  0  0
   57.7274   26.1408   48.0161 H   0  0  0  0  0  0  0  0  0  0  0  0
   58.1174   24.5519   47.3469 H   0  0  0  0  0  0  0  0  0  0  0  0
   60.1175   25.6532   46.8262 H   0  0  0  0  0  0  0  0  0  0  0  0
   59.1826   26.1227   45.3721 H   0  0  0  0  0  0  0  0  0  0  0  0
   59.5837   27.7025   47.9393 H   0  0  0  0  0  0  0  0  0  0  0  0
   60.1287   28.1258   46.2801 H   0  0  0  0  0  0  0  0  0  0  0  0
   57.1440   27.8670   46.7150 H   0  0  0  0  0  0  0  0  0  0  0  0
   58.2181   34.3738   45.8202 H   0  0  0  0  0  0  0  0  0  0  0  0
   59.1082   33.8787   44.3406 H   0  0  0  0  0  0  0  0  0  0  0  0
   57.3121   33.9086   44.3406 H   0  0  0  0  0  0  0  0  0  0  0  0
   57.2162   32.6847   42.9503 H   0  0  0  0  0  0  0  0  0  0  0  0
   56.3373   30.9172   41.5039 H   0  0  0  0  0  0  0  0  0  0  0  0
   56.2883   28.5505   42.2446 H   0  0  0  0  0  0  0  0  0  0  0  0
   57.1572   28.0135   44.5227 H   0  0  0  0  0  0  0  0  0  0  0  0
   60.2318   35.6716   49.0611 H   0  0  0  0  0  0  0  0  0  0  0  0
   60.8079   34.1699   50.9853 H   0  0  0  0  0  0  0  0  0  0  0  0
   60.3413   31.7057   50.7681 H   0  0  0  0  0  0  0  0  0  0  0  0
  1  2  1  0
  2  3  1  0
  2  4  1  0
  4  5  1  0
  5  6  1  0
  6  7  1  0
  7  8  1  0
  8  9  2  0
  9 10  1  0
 10 11  2  0
 11 12  1  0
 11 13  1  0
 13 14  2  0
 14 15  1  0
 15 16  2  0
 16 17  1  0
 17 18  2  0
 10 19  1  0
 19 20  2  0
 20 21  1  0
 21 22  2  0
 22 23  1  0
 23 24  2  0
 24 25  1  0
 25 26  2  0
 18  8  1  0
 24 19  1  0
 25  9  1  0
 18 13  1  0
  1 27  1  0
  1 28  1  0
  1 29  1  0
  3 30  1  0
  3 31  1  0
  3 32  1  0
  4 33  1  0
  4 34  1  0
  5 35  1  0
  5 36  1  0
  6 37  1  0
  6 38  1  0
  7 39  1  0
 12 40  1  0
 12 41  1  0
 12 42  1  0
 14 43  1  0
 15 44  1  0
 16 45  1  0
 17 46  1  0
 21 47  1  0
 22 48  1  0
 23 49  1  0
M  CHG  1  11   1
M  END
>  <smiles>  (12) 
CN(C)CCCNc1c2c([n+](C)c3ccccc13)-c1ncccc1C2=O

>  <score_type>  (12) 
oracle

>  <origin>  (12) 
adg

>  <m_score__min__energy>  (12) 
-5.7699999999999996

>  <m_primary>  (12) 
energy

$$$$
12:0
     RDKit          3D

 45 47  0  0  0  0  0  0  0  0999 V2000
   56.3080   29.8740   42.7660 C   0  0  0  0  0  0  0  0  0  0  0  0
   55.5310   30.0820   44.0540 C   0  0  0  0  0  0  0  0  0  0  0  0
   55.7620   28.9790   44.8550 O   0  0  0  0  0  0  0  0  0  0  0  0
   56.9880   28.3950   44.6230 C   0  0  0  0  0  0  0  0  0  0  0  0
   58.1410   28.9980   45.3750 C   0  0  0  0  0  0  0  0  0  0  0  0
   57.7550   30.1270   46.1770 N   0  0  0  0  0  0  0  0  0  0  0  0
   58.6190   31.0890   46.7110 C   0  0  0  0  0  0  0  0  0  0  0  0
   58.7490   32.3860   46.2890 C   0  0  0  0  0  0  0  0  0  0  0  0
   57.9630   32.8080   45.2470 C   0  0  0  0  0  0  0  0  0  0  0  0
   58.0070   34.0830   44.7390 C   0  0  0  0  0  0  0  0  0  0  0  0
   58.8940   34.9610   45.3240 C   0  0  0  0  0  0  0  0  0  0  0  0
   59.6870   34.5380   46.3760 C   0  0  0  0  0  0  0  0  0  0  0  0
   59.6340   33.2470   46.8800 C   0  0  0  0  0  0  0  0  0  0  0  0
   60.4380   32.8800   47.9180 N   0  0  0  0  0  0  0  0  0  0  0  0
   61.3110   33.8760   48.4460 C   0  0  0  0  0  0  0  0  0  0  0  0
   60.3220   31.6200   48.3400 C   0  0  0  0  0  0  0  0  0  0  0  0
   61.0960   31.1910   49.3680 C   0  0  0  0  0  0  0  0  0  0  0  0
   61.0030   29.8810   49.8350 C   0  0  0  0  0  0  0  0  0  0  0  0
   61.8660   29.4170   50.9750 C   0  0  0  0  0  0  0  0  0  0  0  0
   60.1340   28.9620   49.2870 C   0  0  0  0  0  0  0  0  0  0  0  0
   59.3470   29.3970   48.2410 C   0  0  0  0  0  0  0  0  0  0  0  0
   59.4390   30.7030   47.7750 C   0  0  0  0  0  0  0  0  0  0  0  0
   57.3453   29.5963   43.0043 H   0  0  0  0  0  0  0  0  0  0  0  0
   55.8385   29.0699   42.1803 H   0  0  0  0  0  0  0  0  0  0  0  0
   56.3030   30.8051   42.1803 H   0  0  0  0  0  0  0  0  0  0  0  0
   55.8786   30.9946   44.5603 H   0  0  0  0  0  0  0  0  0  0  0  0
   54.4566   30.1955   43.8472 H   0  0  0  0  0  0  0  0  0  0  0  0
   56.9172   27.3338   44.9039 H   0  0  0  0  0  0  0  0  0  0  0  0
   57.2039   28.5560   43.5565 H   0  0  0  0  0  0  0  0  0  0  0  0
   58.5708   28.2294   46.0342 H   0  0  0  0  0  0  0  0  0  0  0  0
   58.8703   29.3538   44.6324 H   0  0  0  0  0  0  0  0  0  0  0  0
   56.7220   30.2350   46.3790 H   0  0  0  0  0  0  0  0  0  0  0  0
   57.2628   32.0895   44.7960 H   0  0  0  0  0  0  0  0  0  0  0  0
   57.3627   34.3902   43.9020 H   0  0  0  0  0  0  0  0  0  0  0  0
   58.9712   35.9946   44.9557 H   0  0  0  0  0  0  0  0  0  0  0  0
   60.3873   35.2541   46.8307 H   0  0  0  0  0  0  0  0  0  0  0  0
   61.2824   33.8433   49.5451 H   0  0  0  0  0  0  0  0  0  0  0  0
   62.3375   33.6845   48.1001 H   0  0  0  0  0  0  0  0  0  0  0  0
   60.9867   34.8686   48.1001 H   0  0  0  0  0  0  0  0  0  0  0  0
   61.8064   31.8861   49.8393 H   0  0  0  0  0  0  0  0  0  0  0  0
   61.3838   29.6763   51.9291 H   0  0  0  0  0  0  0  0  0  0  0  0
   61.9976   28.3265   50.9151 H   0  0  0  0  0  0  0  0  0  0  0  0
   62.8482   29.9087   50.9151 H   0  0  0  0  0  0  0  0  0  0  0  0
   60.0711   27.9311   49.6657 H   0  0  0  0  0  0  0  0  0  0  0  0
   58.6374   28.7011   47.7696 H   0  0  0  0  0  0  0  0  0  0  0  0
  1  2  1  0
  2  3  1  0
  3  4  1  0
  4  5  1  0
  5  6  1  0
  6  7  1  0
  7  8  2  0
  8  9  1  0
  9 10  2  0
 10 11  1  0
 11 12  2  0
 12 13  1  0
 13 14  2  0
 14 15  1  0
 14 16  1  0
 16 17  2  0
 17 18  1  0
 18 19  1  0
 18 20  2  0
 20 21  1  0
 21 22  2  0
 22  7  1  0
 13  8  1  0
 22 16  1  0
  1 23  1  0
  1 24  1  0
  1 25  1  0
  2 26  1  0
  2 27  1  0
  4 28  1  0
  4 29  1  0
  5 30  1  0
  5 31  1  0
  6 32  1  0
  9 33  1  0
 10 34  1  0
 11 35  1  0
 12 36  1  0
 15 37  1  0
 15 38  1  0
 15 39  1  0
 17 40  1  0
 19 41  1  0
 19 42  1  0
 19 43  1  0
 20 44  1  0
 21 45  1  0
M  CHG  1  14   1
M  END
>  <smiles>  (13) 
CCOCCNc1c2ccccc2[n+](C)c2cc(C)ccc12

>  <score_type>  (13) 
oracle

>  <origin>  (13) 
adg

>  <m_score__min__energy>  (13) 
-5.4500000000000002

>  <m_primary>  (13) 
energy

$$$$
14:0
     RDKit          3D

 48 50  0  0  0  0  0  0  0  0999 V2000
   60.4600   27.9880   47.2810 C   0  0  0  0  0  0  0  0  0  0  0  0
   59.1770   28.2210   46.6510 N   0  0  0  0  0  0  0  0  0  0  0  0
   58.8920   29.4340   46.1040 C   0  0  0  0  0  0  0  0  0  0  0  0
   59.7930   30.2960   46.1850 O   0  0  0  0  0  0  0  0  0  0  0  0
   57.6590   29.6760   45.4940 C   0  0  0  0  0  0  0  0  0  0  0  0
   57.4420   30.9860   44.9410 C   0  0  0  0  0  0  0  0  0  0  0  0
   56.2590   31.2470   44.5390 O   0  0  0  0  0  0  0  0  0  0  0  0
   58.3840   32.0180   44.7910 N   0  0  0  0  0  0  0  0  0  0  0  0
   57.9990   33.2850   44.2140 C   0  0  0  0  0  0  0  0  0  0  0  0
   57.9870   34.4230   45.1970 C   0  0  0  0  0  0  0  0  0  0  0  0
   59.4010   34.7430   45.5730 C   0  0  0  0  0  0  0  0  0  0  0  0
   59.9440   33.5960   46.3080 N   0  0  0  0  0  0  0  0  0  0  0  0
   59.1800   33.5630   47.5560 C   0  0  0  0  0  0  0  0  0  0  0  0
   59.9210   34.4650   48.5270 C   0  0  0  0  0  0  0  0  0  0  0  0
   61.0370   33.7530   48.9560 O   0  0  0  0  0  0  0  0  0  0  0  0
   61.7900   33.2620   47.8980 C   0  0  0  0  0  0  0  0  0  0  0  0
   61.3510   33.8120   46.5660 C   0  0  0  0  0  0  0  0  0  0  0  0
   56.7800   28.6270   45.4870 C   0  0  0  0  0  0  0  0  0  0  0  0
   55.5390   28.7560   44.9130 O   0  0  0  0  0  0  0  0  0  0  0  0
   57.0780   27.3850   46.0500 C   0  0  0  0  0  0  0  0  0  0  0  0
   56.1510   26.3540   46.0170 C   0  0  0  0  0  0  0  0  0  0  0  0
   56.4790   25.1390   46.5840 C   0  0  0  0  0  0  0  0  0  0  0  0
   57.7200   24.9600   47.1750 C   0  0  0  0  0  0  0  0  0  0  0  0
   58.6400   25.9820   47.2090 C   0  0  0  0  0  0  0  0  0  0  0  0
   58.3060   27.1990   46.6400 C   0  0  0  0  0  0  0  0  0  0  0  0
   60.3409   28.0096   48.3743 H   0  0  0  0  0  0  0  0  0  0  0  0
   60.8463   27.0050   46.9736 H   0  0  0  0  0  0  0  0  0  0  0  0
   61.1673   28.7724   46.9736 H   0  0  0  0  0  0  0  0  0  0  0  0
   59.3600   31.8690   45.0980 H   0  0  0  0  0  0  0  0  0  0  0  0
   58.7086   33.5293   43.4098 H   0  0  0  0  0  0  0  0  0  0  0  0
   56.9686   33.1690   43.8468 H   0  0  0  0  0  0  0  0  0  0  0  0
   57.5169   35.3049   44.7375 H   0  0  0  0  0  0  0  0  0  0  0  0
   57.4142   34.1406   46.0926 H   0  0  0  0  0  0  0  0  0  0  0  0
   59.9973   34.9217   44.6661 H   0  0  0  0  0  0  0  0  0  0  0  0
   59.4355   35.6483   46.1969 H   0  0  0  0  0  0  0  0  0  0  0  0
   58.1596   33.9383   47.3890 H   0  0  0  0  0  0  0  0  0  0  0  0
   59.0919   32.5384   47.9464 H   0  0  0  0  0  0  0  0  0  0  0  0
   60.2324   35.3916   48.0226 H   0  0  0  0  0  0  0  0  0  0  0  0
   59.2799   34.7478   49.3750 H   0  0  0  0  0  0  0  0  0  0  0  0
   62.8436   33.5332   48.0605 H   0  0  0  0  0  0  0  0  0  0  0  0
   61.6499   32.1713   47.8691 H   0  0  0  0  0  0  0  0  0  0  0  0
   61.5496   34.8938   46.5495 H   0  0  0  0  0  0  0  0  0  0  0  0
   61.9166   33.2820   45.7855 H   0  0  0  0  0  0  0  0  0  0  0  0
   54.7580   28.9520   45.5350 H   0  0  0  0  0  0  0  0  0  0  0  0
   55.1683   26.5024   45.5456 H   0  0  0  0  0  0  0  0  0  0  0  0
   55.7544   24.3115   46.5668 H   0  0  0  0  0  0  0  0  0  0  0  0
   57.9725   23.9875   47.6228 H   0  0  0  0  0  0  0  0  0  0  0  0
   59.6232   25.8349   47.6798 H   0  0  0  0  0  0  0  0  0  0  0  0
  1  2  1  0
  2  3  1  0
  3  4  2  0
  3  5  1  0
  5  6  1  0
  6  7  2  0
  6  8  1  0
  8  9  1  0
  9 10  1  0
 10 11  1  0
 11 12  1  0
 12 13  1  0
 13 14  1  0
 14 15  1  0
 15 16  1  0
 16 17  1  0
  5 18  2  0
 18 19  1  0
 18 20  1  0
 20 21  2  0
 21 22  1  0
 22 23  2  0
 23 24  1  0
 24 25  2  0
 25  2  1  0
 17 12  1  0
 25 20  1  0
  1 26  1  0
  1 27  1  0
  1 28  1  0
  8 29  1  0
  9 30  1  0
  9 31  1  0
 10 32  1  0
 10 33  1  0
 11 34  1  0
 11 35  1  0
 13 36  1  0
 13 37  1  0
 14 38  1  0
 14 39  1  0
 16 40  1  0
 16 41  1  0
 17 42  1  0
 17 43  1  0
 19 44  1  0
 21 45  1  0
 22 46  1  0
 23 47  1  0
 24 48  1  0
M  END
>  <smiles>  (14) 
Cn1c(=O)c(C(=O)NCCCN2CCOCC2)c(O)c2ccccc21

>  <score_type>  (14) 
oracle

>  <origin>  (14) 
adg

>  <m_score__min__energy>  (14) 
-8.3100000000000005

>  <m_primary>  (14) 
energy

$$$$
15:0
     RDKit          3D

 57 59  0  0  0  0  0  0  0  0999 V2000
   63.0190   33.8450   46.3220 C   0  0  0  0  0  0  0  0  0  0  0  0
   63.6700   32.8820   47.2580 C   0  0  0  0  0  0  0  0  0  0  0  0
   62.8400   32.3150   48.1950 O   0  0  0  0  0  0  0  0  0  0  0  0
   63.5090   31.6240   49.2090 C   0  0  0  0  0  0  0  0  0  0  0  0
   62.5890   31.0470   50.2330 C   0  0  0  0  0  0  0  0  0  0  0  0
   61.2150   31.4960   50.1390 N   0  0  0  0  0  0  0  0  0  0  0  0
   60.3300   30.3690   50.2110 C   0  0  0  0  0  0  0  0  0  0  0  0
   59.9370   29.7880   48.8750 C   0  0  0  0  0  0  0  0  0  0  0  0
   60.2040   30.5650   47.7210 N   0  0  0  0  0  0  0  0  0  0  0  0
   59.4500   30.6160   46.5210 C   0  0  0  0  0  0  0  0  0  0  0  0
   59.0960   29.4600   45.8140 C   0  0  0  0  0  0  0  0  0  0  0  0
   59.5410   28.2270   46.2350 C   0  0  0  0  0  0  0  0  0  0  0  0
   59.2660   27.0440   45.5890 C   0  0  0  0  0  0  0  0  0  0  0  0
   58.4980   27.0910   44.4500 C   0  0  0  0  0  0  0  0  0  0  0  0
   58.0350   28.3360   44.0040 C   0  0  0  0  0  0  0  0  0  0  0  0
   58.3260   29.5070   44.6690 C   0  0  0  0  0  0  0  0  0  0  0  0
   57.8710   30.6650   44.1640 N   0  0  0  0  0  0  0  0  0  0  0  0
   57.0660   30.8140   43.0010 C   0  0  0  0  0  0  0  0  0  0  0  0
   58.2000   31.8220   44.8260 C   0  0  0  0  0  0  0  0  0  0  0  0
   57.7590   33.0440   44.3040 C   0  0  0  0  0  0  0  0  0  0  0  0
   58.0680   34.2500   44.8950 C   0  0  0  0  0  0  0  0  0  0  0  0
   58.8360   34.2240   46.0350 C   0  0  0  0  0  0  0  0  0  0  0  0
   59.2850   33.0110   46.5710 C   0  0  0  0  0  0  0  0  0  0  0  0
   60.0470   33.0970   47.7030 O   0  0  0  0  0  0  0  0  0  0  0  0
   60.3370   34.2500   48.4320 C   0  0  0  0  0  0  0  0  0  0  0  0
   59.6870   34.1320   49.8080 C   0  0  0  0  0  0  0  0  0  0  0  0
   58.9700   31.7990   45.9740 C   0  0  0  0  0  0  0  0  0  0  0  0
   62.4948   34.6205   46.8998 H   0  0  0  0  0  0  0  0  0  0  0  0
   63.7853   34.3152   45.6881 H   0  0  0  0  0  0  0  0  0  0  0  0
   62.2971   33.3092   45.6881 H   0  0  0  0  0  0  0  0  0  0  0  0
   64.1087   32.0707   46.6586 H   0  0  0  0  0  0  0  0  0  0  0  0
   64.4110   33.4653   47.8243 H   0  0  0  0  0  0  0  0  0  0  0  0
   64.0832   30.8039   48.7532 H   0  0  0  0  0  0  0  0  0  0  0  0
   64.1588   32.3471   49.7237 H   0  0  0  0  0  0  0  0  0  0  0  0
   62.5993   29.9525   50.1239 H   0  0  0  0  0  0  0  0  0  0  0  0
   62.9600   31.3901   51.2101 H   0  0  0  0  0  0  0  0  0  0  0  0
   61.0430   32.1270   49.3540 H   0  0  0  0  0  0  0  0  0  0  0  0
   60.8270   29.5801   50.7946 H   0  0  0  0  0  0  0  0  0  0  0  0
   59.4019   30.7327   50.6761 H   0  0  0  0  0  0  0  0  0  0  0  0
   60.4714   28.8334   48.7606 H   0  0  0  0  0  0  0  0  0  0  0  0
   58.8404   29.7110   48.9140 H   0  0  0  0  0  0  0  0  0  0  0  0
   61.0580   31.1900   47.7280 H   0  0  0  0  0  0  0  0  0  0  0  0
   60.1558   28.1852   47.1462 H   0  0  0  0  0  0  0  0  0  0  0  0
   59.6499   26.0874   45.9731 H   0  0  0  0  0  0  0  0  0  0  0  0
   58.2520   26.1706   43.9002 H   0  0  0  0  0  0  0  0  0  0  0  0
   57.4193   28.3799   43.0935 H   0  0  0  0  0  0  0  0  0  0  0  0
   56.0246   31.0068   43.2981 H   0  0  0  0  0  0  0  0  0  0  0  0
   57.4389   31.6584   42.4027 H   0  0  0  0  0  0  0  0  0  0  0  0
   57.1119   29.8921   42.4027 H   0  0  0  0  0  0  0  0  0  0  0  0
   57.1451   33.0414   43.3913 H   0  0  0  0  0  0  0  0  0  0  0  0
   57.7126   35.2001   44.4695 H   0  0  0  0  0  0  0  0  0  0  0  0
   59.1012   35.1685   46.5325 H   0  0  0  0  0  0  0  0  0  0  0  0
   61.4264   34.3533   48.5443 H   0  0  0  0  0  0  0  0  0  0  0  0
   59.9477   35.1347   47.9069 H   0  0  0  0  0  0  0  0  0  0  0  0
   60.4507   34.2706   50.5874 H   0  0  0  0  0  0  0  0  0  0  0  0
   58.9105   34.9039   49.9141 H   0  0  0  0  0  0  0  0  0  0  0  0
   59.2313   33.1365   49.9141 H   0  0  0  0  0  0  0  0  0  0  0  0
  1  2  1  0
  2  3  1  0
  3  4  1  0
  4  5  1  0
  5  6  1  0
  6  7  1  0
  7  8  1  0
  8  9  1  0
  9 10  1  0
 10 11  2  0
 11 12  1  0
 12 13  2  0
 13 14  1  0
 14 15  2  0
 15 16  1  0
 16 17  2  0
 17 18  1  0
 17 19  1  0
 19 20  2  0
 20 21  1  0
 21 22  2  0
 22 23  1  0
 23 24  1  0
 24 25  1  0
 25 26  1  0
 23 27  2  0
 27 10  1  0
 16 11  1  0
 27 19  1  0
  1 28  1  0
  1 29  1  0
  1 30  1  0
  2 31  1  0
  2 32  1  0
  4 33  1  0
  4 34  1  0
  5 35  1  0
  5 36  1  0
  6 37  1  0
  7 38  1  0
  7 39  1  0
  8 40  1  0
  8 41  1  0
  9 42  1  0
 12 43  1  0
 13 44  1  0
 14 45  1  0
 15 46  1  0
 18 47  1  0
 18 48  1  0
 18 49  1  0
 20 50  1  0
 21 51  1  0
 22 52  1  0
 25 53  1  0
 25 54  1  0
 26 55  1  0
 26 56  1  0
 26 57  1  0
M  CHG  1  17   1
M  END
>  <smiles>  (15) 
CCOCCNCCNc1c2ccccc2[n+](C)c2cccc(OCC)c12

>  <score_type>  (15) 
oracle

>  <origin>  (15) 
adg

>  <m_score__min__energy>  (15) 
-4.2800000000000002

>  <m_primary>  (15) 
energy

$$$$
16:0
     RDKit          3D

 57 60  0  0  1  0  0  0  0  0999 V2000
   61.3740   30.3450   50.2760 C   0  0  0  0  0  0  0  0  0  0  0  0
   61.4230   30.8080   48.9240 N   0  0  0  0  0  0  0  0  0  0  0  0
   60.6370   30.4120   47.9160 C   0  0  0  0  0  0  0  0  0  0  0  0
   59.3270   29.2110   47.8710 S   0  0  0  0  0  0  0  0  0  0  0  0
   59.7230   27.8270   46.7370 C   0  0  0  0  0  0  0  0  0  0  0  0
   60.3100   28.3820   45.4970 C   0  0  0  0  0  0  0  0  0  0  0  0
   59.2950   28.7610   44.4760 C   0  0  0  0  0  0  0  0  0  0  0  0
   58.1330   29.3450   44.9670 N   0  0  0  0  0  0  0  0  0  0  0  0
   56.8540   28.9350   44.5470 C   0  0  0  0  0  0  0  0  0  0  0  0
   56.0280   30.1450   44.0250 C   0  0  0  0  0  0  0  0  0  0  0  0
   57.0150   30.9490   43.1920 C   0  0  0  0  0  0  0  0  0  0  0  0
   58.0360   31.6220   44.0520 C   0  0  1  0  0  0  0  0  0  0  0  0
   57.6630   32.9910   44.5060 C   0  0  0  0  0  0  0  0  0  0  0  0
   58.4690   33.4800   45.6470 C   0  0  0  0  0  0  0  0  0  0  0  0
   58.0950   33.2770   46.9670 C   0  0  0  0  0  0  0  0  0  0  0  0
   58.8890   33.7640   47.9900 C   0  0  0  0  0  0  0  0  0  0  0  0
   60.0500   34.4510   47.6900 C   0  0  0  0  0  0  0  0  0  0  0  0
   60.8680   34.9540   48.6500 F   0  0  0  0  0  0  0  0  0  0  0  0
   60.3990   34.6390   46.3700 C   0  0  0  0  0  0  0  0  0  0  0  0
   59.6400   34.1720   45.3180 C   0  0  0  0  0  0  0  0  0  0  0  0
   58.2340   30.7530   45.2910 C   0  0  0  0  0  0  0  0  0  0  0  0
   61.0180   31.1140   46.8100 N   0  0  0  0  0  0  0  0  0  0  0  0
   62.0280   31.9200   47.1710 N   0  0  0  0  0  0  0  0  0  0  0  0
   62.2920   31.7440   48.4800 C   0  0  0  0  0  0  0  0  0  0  0  0
   63.3110   32.4280   49.2670 C   0  0  0  0  0  0  0  0  0  0  0  0
   62.8670   33.4960   50.0430 C   0  0  0  0  0  0  0  0  0  0  0  0
   63.7560   34.2100   50.8250 C   0  0  0  0  0  0  0  0  0  0  0  0
   65.0450   33.8360   50.8030 N   0  0  0  0  0  0  0  0  0  0  0  0
   65.4600   32.8040   50.0510 C   0  0  0  0  0  0  0  0  0  0  0  0
   64.6040   32.0910   49.2760 N   0  0  0  0  0  0  0  0  0  0  0  0
   61.4646   31.2014   50.9604 H   0  0  0  0  0  0  0  0  0  0  0  0
   60.4167   29.8332   50.4538 H   0  0  0  0  0  0  0  0  0  0  0  0
   62.2030   29.6442   50.4538 H   0  0  0  0  0  0  0  0  0  0  0  0
   60.4448   27.1500   47.2173 H   0  0  0  0  0  0  0  0  0  0  0  0
   58.8083   27.2642   46.4991 H   0  0  0  0  0  0  0  0  0  0  0  0
   60.8921   29.2781   45.7583 H   0  0  0  0  0  0  0  0  0  0  0  0
   60.9347   27.5925   45.0539 H   0  0  0  0  0  0  0  0  0  0  0  0
   59.7641   29.4740   43.7820 H   0  0  0  0  0  0  0  0  0  0  0  0
   58.9798   27.8190   44.0035 H   0  0  0  0  0  0  0  0  0  0  0  0
   56.9597   28.1957   43.7394 H   0  0  0  0  0  0  0  0  0  0  0  0
   56.3267   28.4930   45.4053 H   0  0  0  0  0  0  0  0  0  0  0  0
   55.1854   29.8026   43.4063 H   0  0  0  0  0  0  0  0  0  0  0  0
   55.5910   30.7371   44.8426 H   0  0  0  0  0  0  0  0  0  0  0  0
   57.5270   30.2721   42.4923 H   0  0  0  0  0  0  0  0  0  0  0  0
   56.4563   31.7247   42.6478 H   0  0  0  0  0  0  0  0  0  0  0  0
   58.9435   31.7356   43.4408 H   0  0  0  0  0  0  0  0  0  0  0  0
   57.7975   33.6850   43.6632 H   0  0  0  0  0  0  0  0  0  0  0  0
   56.6185   32.9428   44.8477 H   0  0  0  0  0  0  0  0  0  0  0  0
   57.1694   32.7302   47.2000 H   0  0  0  0  0  0  0  0  0  0  0  0
   58.5972   33.6049   49.0386 H   0  0  0  0  0  0  0  0  0  0  0  0
   61.3260   35.1870   46.1454 H   0  0  0  0  0  0  0  0  0  0  0  0
   59.9399   34.3352   44.2723 H   0  0  0  0  0  0  0  0  0  0  0  0
   59.2296   30.9530   45.7137 H   0  0  0  0  0  0  0  0  0  0  0  0
   57.4462   30.9997   46.0180 H   0  0  0  0  0  0  0  0  0  0  0  0
   61.8025   33.7731   50.0337 H   0  0  0  0  0  0  0  0  0  0  0  0
   63.4188   35.0549   51.4435 H   0  0  0  0  0  0  0  0  0  0  0  0
   66.5248   32.5284   50.0634 H   0  0  0  0  0  0  0  0  0  0  0  0
  1  2  1  0
  2  3  1  0
  3  4  1  0
  4  5  1  0
  5  6  1  0
  6  7  1  0
  7  8  1  0
  8  9  1  0
  9 10  1  0
 10 11  1  0
 11 12  1  0
 12 13  1  0
 13 14  1  0
 14 15  2  0
 15 16  1  0
 16 17  2  0
 17 18  1  0
 17 19  1  0
 19 20  2  0
 12 21  1  0
  3 22  2  0
 22 23  1  0
 23 24  2  0
 24 25  1  0
 25 26  2  0
 26 27  1  0
 27 28  2  0
 28 29  1  0
 29 30  2  0
 24  2  1  0
 30 25  1  0
 21  8  1  0
 20 14  1  0
  1 31  1  0
  1 32  1  0
  1 33  1  0
  5 34  1  0
  5 35  1  0
  6 36  1  0
  6 37  1  0
  7 38  1  0
  7 39  1  0
  9 40  1  0
  9 41  1  0
 10 42  1  0
 10 43  1  0
 11 44  1  0
 11 45  1  0
 12 46  1  6
 13 47  1  0
 13 48  1  0
 15 49  1  0
 16 50  1  0
 19 51  1  0
 20 52  1  0
 21 53  1  0
 21 54  1  0
 26 55  1  0
 27 56  1  0
 29 57  1  0
M  END
>  <smiles>  (16) 
Cn1c(SCCCN2CCCC(Cc3ccc(F)cc3)C2)nnc1-c1ccncn1

>  <score_type>  (16) 
oracle

>  <origin>  (16) 
adg

>  <m_score__min__energy>  (16) 
-9.9499999999999993

>  <m_primary>  (16) 
energy

$$$$
17:0
     RDKit          3D

 45 46  0  0  0  0  0  0  0  0999 V2000
   61.1380   30.4910   49.0790 C   0  0  0  0  0  0  0  0  0  0  0  0
   60.1240   29.4210   49.3240 C   0  0  0  0  0  0  0  0  0  0  0  0
   60.2870   28.3360   48.4550 O   0  0  0  0  0  0  0  0  0  0  0  0
   59.6430   28.1800   47.2460 C   0  0  0  0  0  0  0  0  0  0  0  0
   60.3820   28.3970   46.0910 C   0  0  0  0  0  0  0  0  0  0  0  0
   59.8060   28.2610   44.8220 C   0  0  0  0  0  0  0  0  0  0  0  0
   58.4860   27.9040   44.7200 C   0  0  0  0  0  0  0  0  0  0  0  0
   57.7890   27.7420   43.3970 C   0  0  0  0  0  0  0  0  0  0  0  0
   57.0190   29.0140   43.1740 C   0  0  0  0  0  0  0  0  0  0  0  0
   57.7560   30.2060   43.5530 N   0  0  0  0  0  0  0  0  0  0  0  0
   57.1370   31.0800   44.4730 C   0  0  0  0  0  0  0  0  0  0  0  0
   55.9740   30.7020   44.8700 O   0  0  0  0  0  0  0  0  0  0  0  0
   57.7010   32.3130   44.9720 C   0  0  0  0  0  0  0  0  0  0  0  0
   57.7100   33.4860   44.2070 C   0  0  0  0  0  0  0  0  0  0  0  0
   58.2990   34.4500   44.9390 N   0  0  0  0  0  0  0  0  0  0  0  0
   58.6610   33.9630   46.1130 N   0  0  0  0  0  0  0  0  0  0  0  0
   59.3220   34.7460   47.1380 C   0  0  0  0  0  0  0  0  0  0  0  0
   60.7180   34.2140   47.3210 C   0  0  0  0  0  0  0  0  0  0  0  0
   58.3020   32.6460   46.1570 C   0  0  0  0  0  0  0  0  0  0  0  0
   58.5270   31.7430   47.2880 C   0  0  0  0  0  0  0  0  0  0  0  0
   57.7340   27.6820   45.8750 C   0  0  0  0  0  0  0  0  0  0  0  0
   58.3220   27.8230   47.1090 C   0  0  0  0  0  0  0  0  0  0  0  0
   61.5038   30.8770   50.0419 H   0  0  0  0  0  0  0  0  0  0  0  0
   61.9802   30.0740   48.5074 H   0  0  0  0  0  0  0  0  0  0  0  0
   60.6764   31.3096   48.5074 H   0  0  0  0  0  0  0  0  0  0  0  0
   60.2263   29.0651   50.3598 H   0  0  0  0  0  0  0  0  0  0  0  0
   59.1269   29.8508   49.1480 H   0  0  0  0  0  0  0  0  0  0  0  0
   61.4413   28.6815   46.1744 H   0  0  0  0  0  0  0  0  0  0  0  0
   60.4057   28.4386   43.9171 H   0  0  0  0  0  0  0  0  0  0  0  0
   58.5251   27.5952   42.5929 H   0  0  0  0  0  0  0  0  0  0  0  0
   57.1254   26.8647   43.3967 H   0  0  0  0  0  0  0  0  0  0  0  0
   56.7649   29.0855   42.1061 H   0  0  0  0  0  0  0  0  0  0  0  0
   56.1236   28.9685   43.8113 H   0  0  0  0  0  0  0  0  0  0  0  0
   58.6760   30.4040   43.1770 H   0  0  0  0  0  0  0  0  0  0  0  0
   57.3076   33.5994   43.1895 H   0  0  0  0  0  0  0  0  0  0  0  0
   59.3647   35.8009   46.8291 H   0  0  0  0  0  0  0  0  0  0  0  0
   58.7650   34.6748   48.0839 H   0  0  0  0  0  0  0  0  0  0  0  0
   60.9403   34.1293   48.3950 H   0  0  0  0  0  0  0  0  0  0  0  0
   60.7972   33.2227   46.8509 H   0  0  0  0  0  0  0  0  0  0  0  0
   61.4368   34.9012   46.8509 H   0  0  0  0  0  0  0  0  0  0  0  0
   58.3897   32.2940   48.2301 H   0  0  0  0  0  0  0  0  0  0  0  0
   57.8086   30.9112   47.2417 H   0  0  0  0  0  0  0  0  0  0  0  0
   59.5516   31.3456   47.2417 H   0  0  0  0  0  0  0  0  0  0  0  0
   56.6748   27.3953   45.7976 H   0  0  0  0  0  0  0  0  0  0  0  0
   57.7195   27.6454   48.0120 H   0  0  0  0  0  0  0  0  0  0  0  0
  1  2  1  0
  2  3  1  0
  3  4  1  0
  4  5  2  0
  5  6  1  0
  6  7  2  0
  7  8  1  0
  8  9  1  0
  9 10  1  0
 10 11  1  0
 11 12  2  0
 11 13  1  0
 13 14  1  0
 14 15  2  0
 15 16  1  0
 16 17  1  0
 17 18  1  0
 16 19  1  0
 19 20  1  0
  7 21  1  0
 21 22  2  0
 22  4  1  0
 19 13  2  0
  1 23  1  0
  1 24  1  0
  1 25  1  0
  2 26  1  0
  2 27  1  0
  5 28  1  0
  6 29  1  0
  8 30  1  0
  8 31  1  0
  9 32  1  0
  9 33  1  0
 10 34  1  0
 14 35  1  0
 17 36  1  0
 17 37  1  0
 18 38  1  0
 18 39  1  0
 18 40  1  0
 20 41  1  0
 20 42  1  0
 20 43  1  0
 21 44  1  0
 22 45  1  0
M  END
>  <smiles>  (17) 
CCOc1ccc(CCNC(=O)c2cnn(CC)c2C)cc1

>  <score_type>  (17) 
oracle

>  <origin>  (17) 
adg

>  <m_score__min__energy>  (17) 
-6.9100000000000001

>  <m_primary>  (17) 
energy

$$$$
