0:0
     RDKit          3D

 29 30  0  0  0  0  0  0  0  0999 V2000
   58.2660   27.5060   43.8230 C   0  0  0  0  0  0  0  0  0  0  0  0
   57.9830   28.9420   44.1500 C   0  0  0  0  0  0  0  0  0  0  0  0
   58.8870   29.6820   44.9290 C   0  0  0  0  0  0  0  0  0  0  0  0
   58.6020   31.0080   45.2710 C   0  0  0  0  0  0  0  0  0  0  0  0
   57.4040   31.5970   44.8530 C   0  0  0  0  0  0  0  0  0  0  0  0
   57.0190   33.2890   45.3190 S   0  0  0  0  0  0  0  0  0  0  0  0
   58.6670   33.9570   44.8920 C   0  0  0  0  0  0  0  0  0  0  0  0
   59.5450   34.0550   46.1110 C   0  0  0  0  0  0  0  0  0  0  0  0
   58.9820   34.3470   47.3610 C   0  0  0  0  0  0  0  0  0  0  0  0
   59.7860   34.3900   48.5030 C   0  0  0  0  0  0  0  0  0  0  0  0
   61.1600   34.1350   48.4090 C   0  0  0  0  0  0  0  0  0  0  0  0
   62.1380   34.1870   49.8690 Cl  0  0  0  0  0  0  0  0  0  0  0  0
   61.7290   33.8380   47.1600 C   0  0  0  0  0  0  0  0  0  0  0  0
   63.4460   33.4910   46.9990 Cl  0  0  0  0  0  0  0  0  0  0  0  0
   60.9220   33.8030   46.0160 C   0  0  0  0  0  0  0  0  0  0  0  0
   56.4990   30.8640   44.0770 C   0  0  0  0  0  0  0  0  0  0  0  0
   56.7800   29.5380   43.7360 C   0  0  0  0  0  0  0  0  0  0  0  0
   58.3789   26.9330   44.7552 H   0  0  0  0  0  0  0  0  0  0  0  0
   57.4321   27.0922   43.2370 H   0  0  0  0  0  0  0  0  0  0  0  0
   59.1945   27.4395   43.2370 H   0  0  0  0  0  0  0  0  0  0  0  0
   59.8231   29.2170   45.2717 H   0  0  0  0  0  0  0  0  0  0  0  0
   59.3203   31.5880   45.8690 H   0  0  0  0  0  0  0  0  0  0  0  0
   59.1449   33.2919   44.1577 H   0  0  0  0  0  0  0  0  0  0  0  0
   58.5371   34.9658   44.4732 H   0  0  0  0  0  0  0  0  0  0  0  0
   57.9028   34.5431   47.4433 H   0  0  0  0  0  0  0  0  0  0  0  0
   59.3380   34.6251   49.4798 H   0  0  0  0  0  0  0  0  0  0  0  0
   61.3703   33.5766   45.0373 H   0  0  0  0  0  0  0  0  0  0  0  0
   55.5645   31.3325   43.7347 H   0  0  0  0  0  0  0  0  0  0  0  0
   56.0573   28.9595   43.1419 H   0  0  0  0  0  0  0  0  0  0  0  0
  1  2  1  0
  2  3  2  0
  3  4  1  0
  4  5  2  0
  5  6  1  0
  6  7  1  0
  7  8  1  0
  8  9  2  0
  9 10  1  0
 10 11  2  0
 11 12  1  0
 11 13  1  0
 13 14  1  0
 13 15  2  0
  5 16  1  0
 16 17  2  0
 17  2  1  0
 15  8  1  0
  1 18  1  0
  1 19  1  0
  1 20  1  0
  3 21  1  0
  4 22  1  0
  7 23  1  0
  7 24  1  0
  9 25  1  0
 10 26  1  0
 15 27  1  0
 16 28  1  0
 17 29  1  0
M  END
>  <UniqueID>  (1) 
1

>  <SMILES>  (1) 
Cc1ccc(SCc2ccc(Cl)c(Cl)c2)cc1

>  <Energy>  (1) 
23.786750945594306

>  <Genealogy>  (1) 
Cc1ccc(SCc2ccc(Cl)c(Cl)c2)cc1 (3D coordinates assigned)
Cc1ccc(SCc2ccc(Cl)c(Cl)c2)cc1 (optimized conformer: 23.786750945594306 kcal/mol)

>  <smiles>  (1) 
Cc1ccc(SCc2ccc(Cl)c(Cl)c2)cc1

>  <score_type>  (1) 
oracle

>  <origin>  (1) 
adg

>  <m_score__min__energy>  (1) 
-7.3799999999999999

>  <m_primary>  (1) 
energy

$$$$
1:0
     RDKit          3D

 27 29  0  0  0  0  0  0  0  0999 V2000
   58.9830   26.7370   44.8120 O   0  0  0  0  0  0  0  0  0  0  0  0
   58.4290   27.8390   45.0720 C   0  0  0  0  0  0  0  0  0  0  0  0
   57.3710   28.2860   44.3270 N   0  0  0  0  0  0  0  0  0  0  0  0
   56.7680   29.4930   44.6030 C   0  0  0  0  0  0  0  0  0  0  0  0
   55.5110   30.0120   43.6960 S   0  0  0  0  0  0  0  0  0  0  0  0
   57.2160   30.2720   45.6340 N   0  0  0  0  0  0  0  0  0  0  0  0
   58.2590   29.8200   46.3700 C   0  0  0  0  0  0  0  0  0  0  0  0
   58.8700   28.6380   46.1150 C   0  0  0  0  0  0  0  0  0  0  0  0
   59.8890   28.5430   47.0420 C   0  0  0  0  0  0  0  0  0  0  0  0
   59.8640   29.6590   47.8150 N   0  0  0  0  0  0  0  0  0  0  0  0
   58.8590   30.4280   47.4040 N   0  0  0  0  0  0  0  0  0  0  0  0
   58.5590   31.7490   47.9460 C   0  0  0  0  0  0  0  0  0  0  0  0
   58.6780   32.7840   46.8630 C   0  0  0  0  0  0  0  0  0  0  0  0
   57.5390   33.1920   46.1490 C   0  0  0  0  0  0  0  0  0  0  0  0
   57.6410   34.1850   45.1690 C   0  0  0  0  0  0  0  0  0  0  0  0
   58.8760   34.7830   44.9030 C   0  0  0  0  0  0  0  0  0  0  0  0
   60.0110   34.3920   45.6180 C   0  0  0  0  0  0  0  0  0  0  0  0
   59.9130   33.3990   46.5990 C   0  0  0  0  0  0  0  0  0  0  0  0
   57.0210   27.6990   43.5360 H   0  0  0  0  0  0  0  0  0  0  0  0
   60.5983   27.7077   47.1377 H   0  0  0  0  0  0  0  0  0  0  0  0
   57.5343   31.7553   48.3458 H   0  0  0  0  0  0  0  0  0  0  0  0
   59.2727   31.9817   48.7500 H   0  0  0  0  0  0  0  0  0  0  0  0
   56.5639   32.7292   46.3612 H   0  0  0  0  0  0  0  0  0  0  0  0
   56.7480   34.4957   44.6069 H   0  0  0  0  0  0  0  0  0  0  0  0
   58.9545   35.5619   44.1303 H   0  0  0  0  0  0  0  0  0  0  0  0
   60.9820   34.8650   45.4096 H   0  0  0  0  0  0  0  0  0  0  0  0
   60.8067   33.0988   47.1657 H   0  0  0  0  0  0  0  0  0  0  0  0
  1  2  2  0
  2  3  1  0
  3  4  1  0
  4  5  2  0
  4  6  1  0
  6  7  1  0
  7  8  2  0
  8  9  1  0
  9 10  2  0
 10 11  1  0
 11 12  1  0
 12 13  1  0
 13 14  2  0
 14 15  1  0
 15 16  2  0
 16 17  1  0
 17 18  2  0
  8  2  1  0
 18 13  1  0
 11  7  1  0
  3 19  1  0
  9 20  1  0
 12 21  1  0
 12 22  1  0
 14 23  1  0
 15 24  1  0
 16 25  1  0
 17 26  1  0
 18 27  1  0
M  CHG  1   6  -1
M  END
>  <UniqueID>  (2) 
2

>  <SMILES>  (2) 
O=c1[nH]c(=S)[n-]c2c1cnn2Cc1ccccc1

>  <Energy>  (2) 
70.34932362867393

>  <Genealogy>  (2) 
O=c1[nH]c(=S)[n-]c2c1cnn2Cc1ccccc1 (protonated)
O=c1[nH]c(=S)[n-]c2c1cnn2Cc1ccccc1 (3D coordinates assigned)
O=c1[nH]c(=S)[n-]c2c1cnn2Cc1ccccc1 (optimized conformer: 70.34932362867393 kcal/mol)

>  <smiles>  (2) 
O=c1[nH]c(=S)[nH]c2c1cnn2Cc1ccccc1

>  <score_type>  (2) 
oracle

>  <origin>  (2) 
adg

>  <m_score__min__energy>  (2) 
-7.7800000000000002

>  <m_primary>  (2) 
energy

$$$$
2:0
     RDKit          3D

 54 56  0  0  0  0  0  0  0  0999 V2000
   56.0470   29.7350   43.1990 C   0  0  0  0  0  0  0  0  0  0  0  0
   55.9120   29.4730   44.5920 O   0  0  0  0  0  0  0  0  0  0  0  0
   56.9880   29.2710   45.4720 C   0  0  0  0  0  0  0  0  0  0  0  0
   57.3110   27.9960   45.9760 C   0  0  0  0  0  0  0  0  0  0  0  0
   58.3970   27.8320   46.8380 C   0  0  0  0  0  0  0  0  0  0  0  0
   59.1760   28.9330   47.2170 C   0  0  0  0  0  0  0  0  0  0  0  0
   60.3210   28.7290   48.0620 N   0  0  0  0  0  0  0  0  0  0  0  0
   60.5460   27.4830   48.7380 C   0  0  0  0  0  0  0  0  0  0  0  0
   60.5740   26.4010   48.0930 O   0  0  0  0  0  0  0  0  0  0  0  0
   60.7600   27.4610   50.2220 C   0  0  0  0  0  0  0  0  0  0  0  0
   60.8680   28.7890   50.7380 O   0  0  0  0  0  0  0  0  0  0  0  0
   59.7890   29.6670   50.9430 C   0  0  0  0  0  0  0  0  0  0  0  0
   58.7360   29.3650   51.8280 C   0  0  0  0  0  0  0  0  0  0  0  0
   57.6580   30.2420   51.9670 C   0  0  0  0  0  0  0  0  0  0  0  0
   57.6250   31.4310   51.2390 C   0  0  0  0  0  0  0  0  0  0  0  0
   58.6720   31.7500   50.3710 C   0  0  0  0  0  0  0  0  0  0  0  0
   59.7620   30.8700   50.2190 C   0  0  0  0  0  0  0  0  0  0  0  0
   60.8270   31.1480   49.3470 O   0  0  0  0  0  0  0  0  0  0  0  0
   62.1990   31.1570   49.7270 C   0  0  0  0  0  0  0  0  0  0  0  0
   58.8340   30.2080   46.7450 C   0  0  0  0  0  0  0  0  0  0  0  0
   57.7650   30.3770   45.8470 C   0  0  0  0  0  0  0  0  0  0  0  0
   57.4270   31.6750   45.3330 N   0  0  0  0  0  0  0  0  0  0  0  0
   57.6120   32.9240   46.0150 C   0  0  0  0  0  0  0  0  0  0  0  0
   56.6650   33.7530   46.0290 O   0  0  0  0  0  0  0  0  0  0  0  0
   58.8940   33.2760   46.6680 C   0  0  0  0  0  0  0  0  0  0  0  0
   60.1180   33.0540   46.0150 C   0  0  0  0  0  0  0  0  0  0  0  0
   61.3240   33.3620   46.6500 C   0  0  0  0  0  0  0  0  0  0  0  0
   61.3280   33.8790   47.9520 C   0  0  0  0  0  0  0  0  0  0  0  0
   62.6250   34.2150   48.6250 C   0  0  0  0  0  0  0  0  0  0  0  0
   60.1060   34.1380   48.5920 C   0  0  0  0  0  0  0  0  0  0  0  0
   58.8980   33.8400   47.9550 C   0  0  0  0  0  0  0  0  0  0  0  0
   56.5465   30.7044   43.0550 H   0  0  0  0  0  0  0  0  0  0  0  0
   56.6478   28.9401   42.7329 H   0  0  0  0  0  0  0  0  0  0  0  0
   55.0510   29.7629   42.7329 H   0  0  0  0  0  0  0  0  0  0  0  0
   56.7042   27.1246   45.6889 H   0  0  0  0  0  0  0  0  0  0  0  0
   58.6427   26.8311   47.2223 H   0  0  0  0  0  0  0  0  0  0  0  0
   60.7450   29.5790   48.4990 H   0  0  0  0  0  0  0  0  0  0  0  0
   59.9089   26.9556   50.7018 H   0  0  0  0  0  0  0  0  0  0  0  0
   61.6948   26.9222   50.4358 H   0  0  0  0  0  0  0  0  0  0  0  0
   58.7627   28.4337   52.4127 H   0  0  0  0  0  0  0  0  0  0  0  0
   56.8336   29.9945   52.6519 H   0  0  0  0  0  0  0  0  0  0  0  0
   56.7734   32.1186   51.3484 H   0  0  0  0  0  0  0  0  0  0  0  0
   58.6455   32.6921   49.8038 H   0  0  0  0  0  0  0  0  0  0  0  0
   62.2755   31.1575   50.8243 H   0  0  0  0  0  0  0  0  0  0  0  0
   62.6967   30.2621   49.3251 H   0  0  0  0  0  0  0  0  0  0  0  0
   62.6849   32.0584   49.3251 H   0  0  0  0  0  0  0  0  0  0  0  0
   59.4074   31.0848   47.0803 H   0  0  0  0  0  0  0  0  0  0  0  0
   60.1270   32.6353   44.9979 H   0  0  0  0  0  0  0  0  0  0  0  0
   62.2761   33.1975   46.1243 H   0  0  0  0  0  0  0  0  0  0  0  0
   62.4915   34.1804   49.7163 H   0  0  0  0  0  0  0  0  0  0  0  0
   63.3927   33.4861   48.3262 H   0  0  0  0  0  0  0  0  0  0  0  0
   62.9423   35.2250   48.3262 H   0  0  0  0  0  0  0  0  0  0  0  0
   60.0989   34.5778   49.6002 H   0  0  0  0  0  0  0  0  0  0  0  0
   57.9453   34.0481   48.4640 H   0  0  0  0  0  0  0  0  0  0  0  0
  1  2  1  0
  2  3  1  0
  3  4  2  0
  4  5  1  0
  5  6  2  0
  6  7  1  0
  7  8  1  0
  8  9  2  0
  8 10  1  0
 10 11  1  0
 11 12  1  0
 12 13  2  0
 13 14  1  0
 14 15  2  0
 15 16  1  0
 16 17  2  0
 17 18  1  0
 18 19  1  0
  6 20  1  0
 20 21  2  0
 21 22  1  0
 22 23  1  0
 23 24  2  0
 23 25  1  0
 25 26  2  0
 26 27  1  0
 27 28  2  0
 28 29  1  0
 28 30  1  0
 30 31  2  0
 21  3  1  0
 31 25  1  0
 17 12  1  0
  1 32  1  0
  1 33  1  0
  1 34  1  0
  4 35  1  0
  5 36  1  0
  7 37  1  0
 10 38  1  0
 10 39  1  0
 13 40  1  0
 14 41  1  0
 15 42  1  0
 16 43  1  0
 19 44  1  0
 19 45  1  0
 19 46  1  0
 20 47  1  0
 26 48  1  0
 27 49  1  0
 29 50  1  0
 29 51  1  0
 29 52  1  0
 30 53  1  0
 31 54  1  0
M  CHG  1  22  -1
M  END
>  <UniqueID>  (3) 
3

>  <SMILES>  (3) 
COc1ccc(NC(=O)COc2ccccc2OC)cc1[N-]C(=O)c1ccc(C)cc1

>  <Energy>  (3) 
62.6786275619128

>  <Genealogy>  (3) 
COc1ccc(NC(=O)COc2ccccc2OC)cc1[N-]C(=O)c1ccc(C)cc1 (protonated)
COc1ccc(NC(=O)COc2ccccc2OC)cc1[N-]C(=O)c1ccc(C)cc1 (3D coordinates assigned)
COc1ccc(NC(=O)COc2ccccc2OC)cc1[N-]C(=O)c1ccc(C)cc1 (optimized conformer: 62.6786275619128 kcal/mol)

>  <smiles>  (3) 
COc1ccc(NC(=O)COc2ccccc2OC)cc1NC(=O)c1ccc(C)cc1

>  <score_type>  (3) 
oracle

>  <origin>  (3) 
adg

>  <m_score__min__energy>  (3) 
-10.02

>  <m_primary>  (3) 
energy

$$$$
3:0
     RDKit          3D

 32 33  0  0  0  0  0  0  0  0999 V2000
   60.7670   26.1220   46.4700 C   0  0  0  0  0  0  0  0  0  0  0  0
   59.7060   27.0350   45.9330 C   0  0  0  0  0  0  0  0  0  0  0  0
   58.3640   26.8530   46.3000 C   0  0  0  0  0  0  0  0  0  0  0  0
   57.3740   27.6950   45.7870 C   0  0  0  0  0  0  0  0  0  0  0  0
   57.7120   28.7250   44.9000 C   0  0  0  0  0  0  0  0  0  0  0  0
   56.4630   29.8300   44.3330 S   0  0  0  0  0  0  0  0  0  0  0  0
   56.4130   29.8400   42.8300 O   0  0  0  0  0  0  0  0  0  0  0  0
   55.1350   29.3600   44.8540 O   0  0  0  0  0  0  0  0  0  0  0  0
   56.7690   31.4390   44.9270 N   0  0  0  0  0  0  0  0  0  0  0  0
   57.9980   31.9990   44.3570 C   0  0  0  0  0  0  0  0  0  0  0  0
   58.6230   33.0060   45.2950 C   0  0  0  0  0  0  0  0  0  0  0  0
   58.7880   34.3300   44.8460 C   0  0  0  0  0  0  0  0  0  0  0  0
   59.3140   35.3070   45.6930 C   0  0  0  0  0  0  0  0  0  0  0  0
   59.6940   34.9760   46.9940 C   0  0  0  0  0  0  0  0  0  0  0  0
   59.5580   33.6620   47.4470 C   0  0  0  0  0  0  0  0  0  0  0  0
   59.0330   32.6710   46.6080 C   0  0  0  0  0  0  0  0  0  0  0  0
   58.8970   30.8940   47.3220 Br  0  0  0  0  0  0  0  0  0  0  0  0
   59.0460   28.8820   44.4990 C   0  0  0  0  0  0  0  0  0  0  0  0
   60.0380   28.0400   45.0110 C   0  0  0  0  0  0  0  0  0  0  0  0
   60.7449   26.1410   47.5696 H   0  0  0  0  0  0  0  0  0  0  0  0
   60.5815   25.0968   46.1172 H   0  0  0  0  0  0  0  0  0  0  0  0
   61.7531   26.4583   46.1172 H   0  0  0  0  0  0  0  0  0  0  0  0
   58.0904   26.0446   46.9940 H   0  0  0  0  0  0  0  0  0  0  0  0
   56.3242   27.5483   46.0811 H   0  0  0  0  0  0  0  0  0  0  0  0
   58.7141   31.1838   44.1761 H   0  0  0  0  0  0  0  0  0  0  0  0
   57.7460   32.5083   43.4151 H   0  0  0  0  0  0  0  0  0  0  0  0
   58.4999   34.5971   43.8185 H   0  0  0  0  0  0  0  0  0  0  0  0
   59.4292   36.3403   45.3338 H   0  0  0  0  0  0  0  0  0  0  0  0
   60.1004   35.7494   47.6624 H   0  0  0  0  0  0  0  0  0  0  0  0
   59.8657   33.4033   48.4709 H   0  0  0  0  0  0  0  0  0  0  0  0
   59.3132   29.6699   43.7794 H   0  0  0  0  0  0  0  0  0  0  0  0
   61.0826   28.1657   44.6900 H   0  0  0  0  0  0  0  0  0  0  0  0
  1  2  1  0
  2  3  2  0
  3  4  1  0
  4  5  2  0
  5  6  1  0
  6  7  2  0
  6  8  2  0
  6  9  1  0
  9 10  1  0
 10 11  1  0
 11 12  2  0
 12 13  1  0
 13 14  2  0
 14 15  1  0
 15 16  2  0
 16 17  1  0
  5 18  1  0
 18 19  2  0
 19  2  1  0
 16 11  1  0
  1 20  1  0
  1 21  1  0
  1 22  1  0
  3 23  1  0
  4 24  1  0
 10 25  1  0
 10 26  1  0
 12 27  1  0
 13 28  1  0
 14 29  1  0
 15 30  1  0
 18 31  1  0
 19 32  1  0
M  CHG  1   9  -1
M  END
>  <UniqueID>  (4) 
4

>  <SMILES>  (4) 
Cc1ccc(S(=O)(=O)[N-]Cc2ccccc2Br)cc1

>  <Energy>  (4) 
28.961778976114193

>  <Genealogy>  (4) 
Cc1ccc(S(=O)(=O)[N-]Cc2ccccc2Br)cc1 (protonated)
Cc1ccc(S(=O)(=O)[N-]Cc2ccccc2Br)cc1 (3D coordinates assigned)
Cc1ccc(S(=O)(=O)[N-]Cc2ccccc2Br)cc1 (optimized conformer: 28.961778976114193 kcal/mol)

>  <smiles>  (4) 
Cc1ccc(S(=O)(=O)NCc2ccccc2Br)cc1

>  <score_type>  (4) 
oracle

>  <origin>  (4) 
adg

>  <m_score__min__energy>  (4) 
-9.5500000000000007

>  <m_primary>  (4) 
energy

$$$$
4:0
     RDKit          3D

 62 65  0  0  0  0  0  0  0  0999 V2000
   58.2060   30.5750   51.2020 C   0  0  0  0  0  0  0  0  0  0  0  0
   57.4870   31.9220   51.1340 C   0  0  0  0  0  0  0  0  0  0  0  0
   58.3320   33.0770   51.6900 C   0  0  0  0  0  0  0  0  0  0  0  0
   59.6330   32.5920   52.3460 C   0  0  0  0  0  0  0  0  0  0  0  0
   60.8360   33.4270   51.8740 C   0  0  0  0  0  0  0  0  0  0  0  0
   62.1790   32.8560   52.3660 C   0  0  0  0  0  0  0  0  0  0  0  0
   62.3980   31.3820   51.9830 C   0  0  0  0  0  0  0  0  0  0  0  0
   62.1460   31.1490   50.5600 N   0  0  0  0  0  0  0  0  0  0  0  0
   61.2420   30.2730   50.0600 C   0  0  0  0  0  0  0  0  0  0  0  0
   61.1970   30.3590   48.6740 C   0  0  0  0  0  0  0  0  0  0  0  0
   60.3120   29.5720   47.7930 C   0  0  0  0  0  0  0  0  0  0  0  0
   60.4770   28.3230   47.7340 O   0  0  0  0  0  0  0  0  0  0  0  0
   59.3020   30.1950   46.9740 N   0  0  0  0  0  0  0  0  0  0  0  0
   58.5390   31.3290   47.5210 C   0  0  0  0  0  0  0  0  0  0  0  0
   58.7300   32.5600   46.6820 C   0  0  0  0  0  0  0  0  0  0  0  0
   59.4130   33.6740   47.2010 C   0  0  0  0  0  0  0  0  0  0  0  0
   59.5240   34.8450   46.4480 C   0  0  0  0  0  0  0  0  0  0  0  0
   58.9510   34.9170   45.1780 C   0  0  0  0  0  0  0  0  0  0  0  0
   58.2810   33.8110   44.6490 C   0  0  0  0  0  0  0  0  0  0  0  0
   58.1880   32.6220   45.3820 C   0  0  0  0  0  0  0  0  0  0  0  0
   57.5310   31.5260   44.8020 O   0  0  0  0  0  0  0  0  0  0  0  0
   58.0000   30.1700   44.7860 C   0  0  2  0  0  0  0  0  0  0  0  0
   56.8910   29.2190   45.2450 C   0  0  0  0  0  0  0  0  0  0  0  0
   59.3400   29.9370   45.5230 C   0  0  0  0  0  0  0  0  0  0  0  0
   62.0980   31.3510   48.3290 C   0  0  0  0  0  0  0  0  0  0  0  0
   62.3870   31.9410   47.0970 C   0  0  0  0  0  0  0  0  0  0  0  0
   63.3180   32.9930   47.0710 C   0  0  0  0  0  0  0  0  0  0  0  0
   63.9220   33.4430   48.2630 C   0  0  0  0  0  0  0  0  0  0  0  0
   63.5940   32.8520   49.4950 C   0  0  0  0  0  0  0  0  0  0  0  0
   62.6680   31.8030   49.4970 C   0  0  0  0  0  0  0  0  0  0  0  0
   58.3568   30.2926   52.2544 H   0  0  0  0  0  0  0  0  0  0  0  0
   57.5970   29.8086   50.7003 H   0  0  0  0  0  0  0  0  0  0  0  0
   59.1817   30.6544   50.7003 H   0  0  0  0  0  0  0  0  0  0  0  0
   57.2447   32.1382   50.0830 H   0  0  0  0  0  0  0  0  0  0  0  0
   56.5819   31.8456   51.7545 H   0  0  0  0  0  0  0  0  0  0  0  0
   58.5860   33.7576   50.8640 H   0  0  0  0  0  0  0  0  0  0  0  0
   57.7367   33.5840   52.4637 H   0  0  0  0  0  0  0  0  0  0  0  0
   59.5398   32.6818   53.4384 H   0  0  0  0  0  0  0  0  0  0  0  0
   59.8003   31.5439   52.0572 H   0  0  0  0  0  0  0  0  0  0  0  0
   60.8424   33.4462   50.7742 H   0  0  0  0  0  0  0  0  0  0  0  0
   60.7277   34.4374   52.2953 H   0  0  0  0  0  0  0  0  0  0  0  0
   62.9923   33.4537   51.9286 H   0  0  0  0  0  0  0  0  0  0  0  0
   62.1680   32.9060   53.4648 H   0  0  0  0  0  0  0  0  0  0  0  0
   63.4380   31.1052   52.2108 H   0  0  0  0  0  0  0  0  0  0  0  0
   61.6911   30.7689   52.5612 H   0  0  0  0  0  0  0  0  0  0  0  0
   60.6294   29.5894   50.6662 H   0  0  0  0  0  0  0  0  0  0  0  0
   57.4705   31.0683   47.5395 H   0  0  0  0  0  0  0  0  0  0  0  0
   58.9020   31.5380   48.5382 H   0  0  0  0  0  0  0  0  0  0  0  0
   59.8617   33.6231   48.2040 H   0  0  0  0  0  0  0  0  0  0  0  0
   60.0640   35.7118   46.8568 H   0  0  0  0  0  0  0  0  0  0  0  0
   59.0268   35.8453   44.5927 H   0  0  0  0  0  0  0  0  0  0  0  0
   57.8238   33.8749   43.6505 H   0  0  0  0  0  0  0  0  0  0  0  0
   58.2458   29.9394   43.7389 H   0  0  0  0  0  0  0  0  0  0  0  0
   56.8614   29.1936   46.3443 H   0  0  0  0  0  0  0  0  0  0  0  0
   55.9228   29.5719   44.8602 H   0  0  0  0  0  0  0  0  0  0  0  0
   57.0921   28.2083   44.8602 H   0  0  0  0  0  0  0  0  0  0  0  0
   59.6368   28.8890   45.3697 H   0  0  0  0  0  0  0  0  0  0  0  0
   60.0550   30.6577   45.0996 H   0  0  0  0  0  0  0  0  0  0  0  0
   61.9003   31.5926   46.1741 H   0  0  0  0  0  0  0  0  0  0  0  0
   63.5775   33.4690   46.1139 H   0  0  0  0  0  0  0  0  0  0  0  0
   64.6551   34.2624   48.2283 H   0  0  0  0  0  0  0  0  0  0  0  0
   64.0521   33.2040   50.4311 H   0  0  0  0  0  0  0  0  0  0  0  0
  1  2  1  0
  2  3  1  0
  3  4  1  0
  4  5  1  0
  5  6  1  0
  6  7  1  0
  7  8  1  0
  8  9  1  0
  9 10  2  0
 10 11  1  0
 11 12  2  0
 11 13  1  0
 13 14  1  0
 14 15  1  0
 15 16  2  0
 16 17  1  0
 17 18  2  0
 18 19  1  0
 19 20  2  0
 20 21  1  0
 21 22  1  0
 22 23  1  0
 22 24  1  0
 10 25  1  0
 25 26  2  0
 26 27  1  0
 27 28  2  0
 28 29  1  0
 29 30  2  0
 30  8  1  0
 24 13  1  0
 30 25  1  0
 20 15  1  0
  1 31  1  0
  1 32  1  0
  1 33  1  0
  2 34  1  0
  2 35  1  0
  3 36  1  0
  3 37  1  0
  4 38  1  0
  4 39  1  0
  5 40  1  0
  5 41  1  0
  6 42  1  0
  6 43  1  0
  7 44  1  0
  7 45  1  0
  9 46  1  0
 14 47  1  0
 14 48  1  0
 16 49  1  0
 17 50  1  0
 18 51  1  0
 19 52  1  0
 22 53  1  6
 23 54  1  0
 23 55  1  0
 23 56  1  0
 24 57  1  0
 24 58  1  0
 26 59  1  0
 27 60  1  0
 28 61  1  0
 29 62  1  0
M  END
>  <UniqueID>  (5) 
5

>  <SMILES>  (5) 
CCCCCCCn1cc(C(=O)N2Cc3ccccc3O[C@H](C)C2)c2ccccc21

>  <Energy>  (5) 
102.25162350293719

>  <Genealogy>  (5) 
CCCCCCCn1cc(C(=O)N2Cc3ccccc3O[C@H](C)C2)c2ccccc21 (chirality)
CCCCCCCn1cc(C(=O)N2Cc3ccccc3O[C@H](C)C2)c2ccccc21 (3D coordinates assigned)
CCCCCCCn1cc(C(=O)N2Cc3ccccc3O[C@H](C)C2)c2ccccc21 (nonaromatic ring conformer: 102.25162350293719 kcal/mol)

>  <smiles>  (5) 
CCCCCCCn1cc(C(=O)N2Cc3ccccc3OC(C)C2)c2ccccc21

>  <score_type>  (5) 
oracle

>  <origin>  (5) 
adg

>  <m_score__min__energy>  (5) 
-7.3200000000000003

>  <m_primary>  (5) 
energy

$$$$
5:0
     RDKit          3D

 38 39  0  0  0  0  0  0  0  0999 V2000
   63.3860   33.8290   46.7190 C   0  0  0  0  0  0  0  0  0  0  0  0
   62.1910   33.3790   47.5060 C   0  0  0  0  0  0  0  0  0  0  0  0
   62.0490   33.7620   48.8460 C   0  0  0  0  0  0  0  0  0  0  0  0
   60.9490   33.3220   49.5970 C   0  0  0  0  0  0  0  0  0  0  0  0
   60.8060   33.7260   51.0340 C   0  0  0  0  0  0  0  0  0  0  0  0
   60.0190   32.4480   49.0150 C   0  0  0  0  0  0  0  0  0  0  0  0
   60.1710   32.0300   47.6820 C   0  0  0  0  0  0  0  0  0  0  0  0
   59.2280   31.1430   47.0650 N   0  0  0  0  0  0  0  0  0  0  0  0
   59.6070   30.0670   46.1910 C   0  0  0  0  0  0  0  0  0  0  0  0
   60.8220   29.7940   45.9960 O   0  0  0  0  0  0  0  0  0  0  0  0
   58.5630   29.3440   45.3970 C   0  0  0  0  0  0  0  0  0  0  0  0
   57.3140   30.0100   45.5470 O   0  0  0  0  0  0  0  0  0  0  0  0
   56.6730   30.6720   44.4950 C   0  0  0  0  0  0  0  0  0  0  0  0
   55.4540   30.4590   44.2450 O   0  0  0  0  0  0  0  0  0  0  0  0
   57.4210   31.7010   43.7170 C   0  0  0  0  0  0  0  0  0  0  0  0
   57.7860   32.8340   44.6250 C   0  0  0  0  0  0  0  0  0  0  0  0
   57.1770   33.1320   45.8360 C   0  0  0  0  0  0  0  0  0  0  0  0
   57.8020   34.1790   46.5240 C   0  0  0  0  0  0  0  0  0  0  0  0
   58.9150   34.6930   45.8700 C   0  0  0  0  0  0  0  0  0  0  0  0
   59.1190   33.8420   44.4330 S   0  0  0  0  0  0  0  0  0  0  0  0
   61.2490   32.5170   46.9290 C   0  0  0  0  0  0  0  0  0  0  0  0
   64.1873   34.1308   47.4095 H   0  0  0  0  0  0  0  0  0  0  0  0
   63.7400   33.0026   46.0852 H   0  0  0  0  0  0  0  0  0  0  0  0
   63.1070   34.6836   46.0852 H   0  0  0  0  0  0  0  0  0  0  0  0
   62.8045   34.4116   49.3120 H   0  0  0  0  0  0  0  0  0  0  0  0
   61.1027   32.8879   51.6818 H   0  0  0  0  0  0  0  0  0  0  0  0
   61.4519   34.5929   51.2372 H   0  0  0  0  0  0  0  0  0  0  0  0
   59.7586   33.9935   51.2372 H   0  0  0  0  0  0  0  0  0  0  0  0
   59.1645   32.0872   49.6063 H   0  0  0  0  0  0  0  0  0  0  0  0
   58.2180   31.4070   47.1020 H   0  0  0  0  0  0  0  0  0  0  0  0
   58.8496   29.3350   44.3350 H   0  0  0  0  0  0  0  0  0  0  0  0
   58.4750   28.3091   45.7593 H   0  0  0  0  0  0  0  0  0  0  0  0
   58.3356   31.2543   43.2999 H   0  0  0  0  0  0  0  0  0  0  0  0
   56.7917   32.0734   42.8952 H   0  0  0  0  0  0  0  0  0  0  0  0
   56.2929   32.5996   46.2167 H   0  0  0  0  0  0  0  0  0  0  0  0
   57.4450   34.5594   47.4924 H   0  0  0  0  0  0  0  0  0  0  0  0
   59.5525   35.5142   46.2295 H   0  0  0  0  0  0  0  0  0  0  0  0
   61.3561   32.2195   45.8754 H   0  0  0  0  0  0  0  0  0  0  0  0
  1  2  1  0
  2  3  2  0
  3  4  1  0
  4  5  1  0
  4  6  2  0
  6  7  1  0
  7  8  1  0
  8  9  1  0
  9 10  2  0
  9 11  1  0
 11 12  1  0
 12 13  1  0
 13 14  2  0
 13 15  1  0
 15 16  1  0
 16 17  2  0
 17 18  1  0
 18 19  2  0
 19 20  1  0
  7 21  2  0
 21  2  1  0
 20 16  1  0
  1 22  1  0
  1 23  1  0
  1 24  1  0
  3 25  1  0
  5 26  1  0
  5 27  1  0
  5 28  1  0
  6 29  1  0
  8 30  1  0
 11 31  1  0
 11 32  1  0
 15 33  1  0
 15 34  1  0
 17 35  1  0
 18 36  1  0
 19 37  1  0
 21 38  1  0
M  END
>  <UniqueID>  (6) 
6

>  <SMILES>  (6) 
Cc1cc(C)cc(NC(=O)COC(=O)Cc2cccs2)c1

>  <Energy>  (6) 
58.0815463787504

>  <Genealogy>  (6) 
Cc1cc(C)cc(NC(=O)COC(=O)Cc2cccs2)c1 (3D coordinates assigned)
Cc1cc(C)cc(NC(=O)COC(=O)Cc2cccs2)c1 (optimized conformer: 58.0815463787504 kcal/mol)

>  <smiles>  (6) 
Cc1cc(C)cc(NC(=O)COC(=O)Cc2cccs2)c1

>  <score_type>  (6) 
oracle

>  <origin>  (6) 
adg

>  <m_score__min__energy>  (6) 
-6.8899999999999997

>  <m_primary>  (6) 
energy

$$$$
6:0
     RDKit          3D

 51 54  0  0  0  0  0  0  0  0999 V2000
   56.6440   29.8000   42.6350 C   0  0  0  0  0  0  0  0  0  0  0  0
   56.8350   30.3780   43.9970 C   0  0  0  0  0  0  0  0  0  0  0  0
   55.8280   30.6270   44.7120 O   0  0  0  0  0  0  0  0  0  0  0  0
   58.1630   30.5910   44.5070 N   0  0  0  0  0  0  0  0  0  0  0  0
   58.4040   31.1210   45.8190 C   0  0  0  0  0  0  0  0  0  0  0  0
   59.2160   30.3930   46.7100 C   0  0  0  0  0  0  0  0  0  0  0  0
   59.4670   30.8710   47.9990 C   0  0  0  0  0  0  0  0  0  0  0  0
   58.9280   32.0980   48.4070 C   0  0  0  0  0  0  0  0  0  0  0  0
   59.3200   32.6510   49.6760 N   0  0  0  0  0  0  0  0  0  0  0  0
   58.5060   32.4080   50.8350 C   0  0  0  0  0  0  0  0  0  0  0  0
   57.3220   31.9950   50.7030 O   0  0  0  0  0  0  0  0  0  0  0  0
   59.0750   32.6510   52.1780 C   0  0  0  0  0  0  0  0  0  0  0  0
   58.3340   32.3990   53.3480 C   0  0  0  0  0  0  0  0  0  0  0  0
   58.9280   32.5640   54.6110 C   0  0  0  0  0  0  0  0  0  0  0  0
   58.1530   32.2720   55.8640 C   0  0  0  0  0  0  0  0  0  0  0  0
   60.2690   32.9560   54.6960 C   0  0  0  0  0  0  0  0  0  0  0  0
   61.0020   33.2200   53.5350 C   0  0  0  0  0  0  0  0  0  0  0  0
   60.4050   33.0890   52.2750 C   0  0  0  0  0  0  0  0  0  0  0  0
   61.1430   33.3710   51.0800 N   0  0  0  0  0  0  0  0  0  0  0  0
   60.4630   33.5760   49.7950 C   0  0  1  0  0  0  0  0  0  0  0  0
   61.4420   33.4110   48.6480 C   0  0  0  0  0  0  0  0  0  0  0  0
   61.1750   33.9910   47.3910 C   0  0  0  0  0  0  0  0  0  0  0  0
   62.1270   33.9290   46.3720 C   0  0  0  0  0  0  0  0  0  0  0  0
   63.3580   33.3030   46.6000 C   0  0  0  0  0  0  0  0  0  0  0  0
   63.6280   32.7110   47.8410 C   0  0  0  0  0  0  0  0  0  0  0  0
   62.6750   32.7690   48.8600 C   0  0  0  0  0  0  0  0  0  0  0  0
   58.1140   32.8350   47.5310 C   0  0  0  0  0  0  0  0  0  0  0  0
   57.8540   32.3600   46.2300 C   0  0  0  0  0  0  0  0  0  0  0  0
   57.0900   33.1750   45.3270 N   0  0  0  0  0  0  0  0  0  0  0  0
   56.3000   28.7589   42.7234 H   0  0  0  0  0  0  0  0  0  0  0  0
   55.8928   30.3892   42.0887 H   0  0  0  0  0  0  0  0  0  0  0  0
   57.5984   29.8256   42.0887 H   0  0  0  0  0  0  0  0  0  0  0  0
   58.9630   30.1380   44.0070 H   0  0  0  0  0  0  0  0  0  0  0  0
   59.6573   29.4382   46.3880 H   0  0  0  0  0  0  0  0  0  0  0  0
   60.0872   30.2843   48.6926 H   0  0  0  0  0  0  0  0  0  0  0  0
   57.2864   32.0718   53.2735 H   0  0  0  0  0  0  0  0  0  0  0  0
   58.7734   32.5058   56.7417 H   0  0  0  0  0  0  0  0  0  0  0  0
   57.2423   32.8887   55.8840 H   0  0  0  0  0  0  0  0  0  0  0  0
   57.8757   31.2077   55.8840 H   0  0  0  0  0  0  0  0  0  0  0  0
   60.7485   33.0568   55.6809 H   0  0  0  0  0  0  0  0  0  0  0  0
   62.0539   33.5325   53.6118 H   0  0  0  0  0  0  0  0  0  0  0  0
   62.1720   33.5860   51.1610 H   0  0  0  0  0  0  0  0  0  0  0  0
   60.0715   34.6030   49.7499 H   0  0  0  0  0  0  0  0  0  0  0  0
   60.2132   34.4941   47.2127 H   0  0  0  0  0  0  0  0  0  0  0  0
   61.9096   34.3724   45.3891 H   0  0  0  0  0  0  0  0  0  0  0  0
   64.1155   33.2757   45.8028 H   0  0  0  0  0  0  0  0  0  0  0  0
   64.5880   32.2020   48.0120 H   0  0  0  0  0  0  0  0  0  0  0  0
   62.8904   32.3091   49.8358 H   0  0  0  0  0  0  0  0  0  0  0  0
   57.6770   33.7885   47.8625 H   0  0  0  0  0  0  0  0  0  0  0  0
   56.3510   32.7420   44.7300 H   0  0  0  0  0  0  0  0  0  0  0  0
   57.1990   34.2170   45.2870 H   0  0  0  0  0  0  0  0  0  0  0  0
  1  2  1  0
  2  3  2  0
  2  4  1  0
  4  5  1  0
  5  6  2  0
  6  7  1  0
  7  8  2  0
  8  9  1  0
  9 10  1  0
 10 11  2  0
 10 12  1  0
 12 13  2  0
 13 14  1  0
 14 15  1  0
 14 16  2  0
 16 17  1  0
 17 18  2  0
 18 19  1  0
 19 20  1  0
 20 21  1  0
 21 22  2  0
 22 23  1  0
 23 24  2  0
 24 25  1  0
 25 26  2  0
  8 27  1  0
 27 28  2  0
 28 29  1  0
 28  5  1  0
 20  9  1  0
 26 21  1  0
 18 12  1  0
  1 30  1  0
  1 31  1  0
  1 32  1  0
  4 33  1  0
  6 34  1  0
  7 35  1  0
 13 36  1  0
 15 37  1  0
 15 38  1  0
 15 39  1  0
 16 40  1  0
 17 41  1  0
 19 42  1  0
 20 43  1  1
 22 44  1  0
 23 45  1  0
 24 46  1  0
 25 47  1  0
 26 48  1  0
 27 49  1  0
 29 50  1  0
 29 51  1  0
M  END
>  <UniqueID>  (7) 
7

>  <SMILES>  (7) 
CC(=O)Nc1ccc(N2C(=O)c3cc(C)ccc3N[C@H]2c2ccccc2)cc1N

>  <Energy>  (7) 
68.88878356063793

>  <Genealogy>  (7) 
CC(=O)Nc1ccc(N2C(=O)c3cc(C)ccc3N[C@H]2c2ccccc2)cc1N (chirality)
CC(=O)Nc1ccc(N2C(=O)c3cc(C)ccc3N[C@H]2c2ccccc2)cc1N (3D coordinates assigned)
CC(=O)Nc1ccc(N2C(=O)c3cc(C)ccc3N[C@H]2c2ccccc2)cc1N (nonaromatic ring conformer: 68.88878356063793 kcal/mol)

>  <smiles>  (7) 
CC(=O)Nc1ccc(N2C(=O)c3cc(C)ccc3NC2c2ccccc2)cc1N

>  <score_type>  (7) 
oracle

>  <origin>  (7) 
adg

>  <m_score__min__energy>  (7) 
-8.3300000000000001

>  <m_primary>  (7) 
energy

$$$$
7:0
     RDKit          3D

 30 31  0  0  0  0  0  0  0  0999 V2000
   54.7930   25.2750   45.6520 C   0  0  0  0  0  0  0  0  0  0  0  0
   55.2140   26.6320   45.9660 N   0  0  0  0  0  0  0  0  0  0  0  0
   56.5620   27.0800   45.8010 C   0  0  0  0  0  0  0  0  0  0  0  0
   57.5230   26.2870   45.9940 O   0  0  0  0  0  0  0  0  0  0  0  0
   56.8310   28.4700   45.4060 C   0  0  0  0  0  0  0  0  0  0  0  0
   55.9320   29.3380   44.7930 C   0  0  0  0  0  0  0  0  0  0  0  0
   56.4250   30.5770   44.5320 N   0  0  0  0  0  0  0  0  0  0  0  0
   57.7140   30.6960   44.9260 C   0  0  0  0  0  0  0  0  0  0  0  0
   58.4700   31.8670   44.8130 O   0  0  0  0  0  0  0  0  0  0  0  0
   58.7360   32.7600   45.8610 C   0  0  0  0  0  0  0  0  0  0  0  0
   59.0100   34.1220   45.6380 C   0  0  0  0  0  0  0  0  0  0  0  0
   59.2860   34.9700   46.7130 C   0  0  0  0  0  0  0  0  0  0  0  0
   59.2990   34.4690   48.0170 C   0  0  0  0  0  0  0  0  0  0  0  0
   59.0320   33.1130   48.2550 C   0  0  0  0  0  0  0  0  0  0  0  0
   59.0900   32.5620   49.6570 C   0  0  0  0  0  0  0  0  0  0  0  0
   57.7530   32.2530   50.1560 N   0  0  0  0  0  0  0  0  0  0  0  0
   58.7710   32.2610   47.1700 C   0  0  0  0  0  0  0  0  0  0  0  0
   58.2900   29.2820   45.6280 S   0  0  0  0  0  0  0  0  0  0  0  0
   54.6206   24.7193   46.5855 H   0  0  0  0  0  0  0  0  0  0  0  0
   53.8623   25.3061   45.0665 H   0  0  0  0  0  0  0  0  0  0  0  0
   55.5779   24.7738   45.0665 H   0  0  0  0  0  0  0  0  0  0  0  0
   54.9028   29.0439   44.5396 H   0  0  0  0  0  0  0  0  0  0  0  0
   59.0068   34.5206   44.6128 H   0  0  0  0  0  0  0  0  0  0  0  0
   59.4936   36.0350   46.5324 H   0  0  0  0  0  0  0  0  0  0  0  0
   59.5194   35.1404   48.8600 H   0  0  0  0  0  0  0  0  0  0  0  0
   59.6948   31.6432   49.6572 H   0  0  0  0  0  0  0  0  0  0  0  0
   59.5407   33.3216   50.3126 H   0  0  0  0  0  0  0  0  0  0  0  0
   57.0460   32.6780   49.5110 H   0  0  0  0  0  0  0  0  0  0  0  0
   57.6310   32.6980   51.0950 H   0  0  0  0  0  0  0  0  0  0  0  0
   58.5921   31.1906   47.3493 H   0  0  0  0  0  0  0  0  0  0  0  0
  1  2  1  0
  2  3  1  0
  3  4  2  0
  3  5  1  0
  5  6  2  0
  6  7  1  0
  7  8  2  0
  8  9  1  0
  9 10  1  0
 10 11  2  0
 11 12  1  0
 12 13  2  0
 13 14  1  0
 14 15  1  0
 15 16  1  0
 14 17  2  0
  8 18  1  0
 18  5  1  0
 17 10  1  0
  1 19  1  0
  1 20  1  0
  1 21  1  0
  6 22  1  0
 11 23  1  0
 12 24  1  0
 13 25  1  0
 15 26  1  0
 15 27  1  0
 16 28  1  0
 16 29  1  0
 17 30  1  0
M  CHG  1   2  -1
M  END
>  <UniqueID>  (8) 
8

>  <SMILES>  (8) 
C[N-]C(=O)c1cnc(Oc2cccc(CN)c2)s1

>  <Energy>  (8) 
59.961966203742314

>  <Genealogy>  (8) 
C[N-]C(=O)c1cnc(Oc2cccc(CN)c2)s1 (protonated)
C[N-]C(=O)c1cnc(Oc2cccc(CN)c2)s1 (3D coordinates assigned)
C[N-]C(=O)c1cnc(Oc2cccc(CN)c2)s1 (optimized conformer: 59.961966203742314 kcal/mol)

>  <smiles>  (8) 
CNC(=O)c1cnc(Oc2cccc(CN)c2)s1

>  <score_type>  (8) 
oracle

>  <origin>  (8) 
adg

>  <m_score__min__energy>  (8) 
-8.5

>  <m_primary>  (8) 
energy

$$$$
8:0
     RDKit          3D

 26 27  0  0  0  0  0  0  0  0999 V2000
   56.0740   26.9880   45.8200 O   0  0  0  0  0  0  0  0  0  0  0  0
   56.4660   28.0850   45.3380 C   0  0  0  0  0  0  0  0  0  0  0  0
   55.5060   29.0320   44.8530 N   0  0  0  0  0  0  0  0  0  0  0  0
   55.6210   29.7130   43.5690 C   0  0  0  0  0  0  0  0  0  0  0  0
   56.5880   30.8560   43.6700 C   0  0  0  0  0  0  0  0  0  0  0  0
   57.2750   31.3110   42.5360 C   0  0  0  0  0  0  0  0  0  0  0  0
   58.1510   32.3920   42.6540 C   0  0  0  0  0  0  0  0  0  0  0  0
   58.3300   33.0090   43.8940 C   0  0  0  0  0  0  0  0  0  0  0  0
   57.6250   32.5330   45.0010 C   0  0  0  0  0  0  0  0  0  0  0  0
   56.7750   31.4790   44.8670 N   0  0  0  0  0  0  0  0  0  0  0  0
   57.9130   28.3930   45.2750 C   0  0  0  0  0  0  0  0  0  0  0  0
   58.5370   29.1270   46.2980 C   0  0  0  0  0  0  0  0  0  0  0  0
   59.9030   29.4100   46.2270 C   0  0  0  0  0  0  0  0  0  0  0  0
   60.6390   28.9580   45.1320 C   0  0  0  0  0  0  0  0  0  0  0  0
   60.0270   28.2480   44.1480 N   0  0  0  0  0  0  0  0  0  0  0  0
   58.6980   27.9590   44.1920 C   0  0  0  0  0  0  0  0  0  0  0  0
   55.9792   29.0006   42.8113 H   0  0  0  0  0  0  0  0  0  0  0  0
   54.6338   30.1041   43.2819 H   0  0  0  0  0  0  0  0  0  0  0  0
   57.1255   30.8212   41.5625 H   0  0  0  0  0  0  0  0  0  0  0  0
   58.6987   32.7567   41.7725 H   0  0  0  0  0  0  0  0  0  0  0  0
   59.0187   33.8605   43.9973 H   0  0  0  0  0  0  0  0  0  0  0  0
   57.7569   33.0108   45.9830 H   0  0  0  0  0  0  0  0  0  0  0  0
   57.9479   29.4798   47.1574 H   0  0  0  0  0  0  0  0  0  0  0  0
   60.3935   29.9839   47.0271 H   0  0  0  0  0  0  0  0  0  0  0  0
   61.7150   29.1762   45.0648 H   0  0  0  0  0  0  0  0  0  0  0  0
   58.2356   27.3833   43.3767 H   0  0  0  0  0  0  0  0  0  0  0  0
  1  2  2  0
  2  3  1  0
  3  4  1  0
  4  5  1  0
  5  6  2  0
  6  7  1  0
  7  8  2  0
  8  9  1  0
  9 10  2  0
  2 11  1  0
 11 12  2  0
 12 13  1  0
 13 14  2  0
 14 15  1  0
 15 16  2  0
 10  5  1  0
 16 11  1  0
  4 17  1  0
  4 18  1  0
  6 19  1  0
  7 20  1  0
  8 21  1  0
  9 22  1  0
 12 23  1  0
 13 24  1  0
 14 25  1  0
 16 26  1  0
M  CHG  1   3  -1
M  END
>  <UniqueID>  (9) 
9

>  <SMILES>  (9) 
O=C([N-]Cc1ccccn1)c1cccnc1

>  <Energy>  (9) 
26.307171181726268

>  <Genealogy>  (9) 
O=C([N-]Cc1ccccn1)c1cccnc1 (protonated)
O=C([N-]Cc1ccccn1)c1cccnc1 (3D coordinates assigned)
O=C([N-]Cc1ccccn1)c1cccnc1 (optimized conformer: 26.307171181726268 kcal/mol)

>  <smiles>  (9) 
O=C(NCc1ccccn1)c1cccnc1

>  <score_type>  (9) 
oracle

>  <origin>  (9) 
adg

>  <m_score__min__energy>  (9) 
-8.3699999999999992

>  <m_primary>  (9) 
energy

$$$$
9:0
     RDKit          3D

 35 37  0  0  0  0  0  0  0  0999 V2000
   57.4110   23.2920   47.8260 F   0  0  0  0  0  0  0  0  0  0  0  0
   57.1690   24.4630   47.1860 C   0  0  0  0  0  0  0  0  0  0  0  0
   55.8900   24.7740   46.7280 C   0  0  0  0  0  0  0  0  0  0  0  0
   55.6690   25.9520   46.0880 N   0  0  0  0  0  0  0  0  0  0  0  0
   56.6750   26.8460   45.8910 C   0  0  0  0  0  0  0  0  0  0  0  0
   56.4230   27.9510   45.2520 N   0  0  0  0  0  0  0  0  0  0  0  0
   57.0400   29.2330   45.4660 C   0  0  0  0  0  0  0  0  0  0  0  0
   57.9270   29.4660   46.5310 C   0  0  0  0  0  0  0  0  0  0  0  0
   58.4790   30.7350   46.7260 C   0  0  0  0  0  0  0  0  0  0  0  0
   58.1420   31.8010   45.8730 C   0  0  0  0  0  0  0  0  0  0  0  0
   58.7120   33.1140   46.0750 N   0  0  0  0  0  0  0  0  0  0  0  0
   58.1700   34.2840   45.3710 C   0  0  0  0  0  0  0  0  0  0  0  0
   59.2780   35.3220   45.1470 C   0  0  0  0  0  0  0  0  0  0  0  0
   59.9770   35.7160   46.3880 N   0  0  0  0  0  0  0  0  0  0  0  0
   59.8460   34.7670   47.5070 C   0  0  0  0  0  0  0  0  0  0  0  0
   59.8090   33.3100   47.0310 C   0  0  0  0  0  0  0  0  0  0  0  0
   57.2270   31.5690   44.8300 C   0  0  0  0  0  0  0  0  0  0  0  0
   56.6750   30.3000   44.6370 C   0  0  0  0  0  0  0  0  0  0  0  0
   57.9320   26.5480   46.3240 N   0  0  0  0  0  0  0  0  0  0  0  0
   58.1950   25.3810   46.9690 C   0  0  0  0  0  0  0  0  0  0  0  0
   55.0615   24.0675   46.8843 H   0  0  0  0  0  0  0  0  0  0  0  0
   58.1882   28.6450   47.2149 H   0  0  0  0  0  0  0  0  0  0  0  0
   59.1835   30.9015   47.5542 H   0  0  0  0  0  0  0  0  0  0  0  0
   57.7647   33.9683   44.3984 H   0  0  0  0  0  0  0  0  0  0  0  0
   57.3718   34.7338   45.9798 H   0  0  0  0  0  0  0  0  0  0  0  0
   60.0168   34.8979   44.4511 H   0  0  0  0  0  0  0  0  0  0  0  0
   58.7974   36.2264   44.7456 H   0  0  0  0  0  0  0  0  0  0  0  0
   59.6000   36.6410   46.7050 H   0  0  0  0  0  0  0  0  0  0  0  0
   60.7036   34.8968   48.1835 H   0  0  0  0  0  0  0  0  0  0  0  0
   58.8958   34.9786   48.0191 H   0  0  0  0  0  0  0  0  0  0  0  0
   60.7637   33.0632   46.5435 H   0  0  0  0  0  0  0  0  0  0  0  0
   59.6486   32.6539   47.8992 H   0  0  0  0  0  0  0  0  0  0  0  0
   56.9435   32.3942   44.1602 H   0  0  0  0  0  0  0  0  0  0  0  0
   55.9481   30.1383   43.8274 H   0  0  0  0  0  0  0  0  0  0  0  0
   59.2146   25.1616   47.3187 H   0  0  0  0  0  0  0  0  0  0  0  0
  1  2  1  0
  2  3  1  0
  3  4  2  0
  4  5  1  0
  5  6  2  3
  6  7  1  0
  7  8  2  0
  8  9  1  0
  9 10  2  0
 10 11  1  0
 11 12  1  0
 12 13  1  0
 13 14  1  0
 14 15  1  0
 15 16  1  0
 10 17  1  0
 17 18  2  0
  5 19  1  0
 19 20  1  0
 20  2  2  0
 18  7  1  0
 16 11  1  0
  3 21  1  0
  8 22  1  0
  9 23  1  0
 12 24  1  0
 12 25  1  0
 13 26  1  0
 13 27  1  0
 14 28  1  0
 15 29  1  0
 15 30  1  0
 16 31  1  0
 16 32  1  0
 17 33  1  0
 18 34  1  0
 20 35  1  0
M  CHG  1  19  -1
M  END
>  <UniqueID>  (10) 
10

>  <SMILES>  (10) 
Fc1cnc(=Nc2ccc(N3CCNCC3)cc2)[n-]c1

>  <Energy>  (10) 
51.77363307622963

>  <Genealogy>  (10) 
Fc1cnc(=Nc2ccc(N3CCNCC3)cc2)[n-]c1 (protonated)
Fc1cnc(=Nc2ccc(N3CCNCC3)cc2)[n-]c1 (3D coordinates assigned)
Fc1cnc(=Nc2ccc(N3CCNCC3)cc2)[n-]c1 (nonaromatic ring conformer: 51.77363307622963 kcal/mol)

>  <smiles>  (10) 
Fc1cnc(=Nc2ccc(N3CCNCC3)cc2)[nH]c1

>  <score_type>  (10) 
oracle

>  <origin>  (10) 
adg

>  <m_score__min__energy>  (10) 
-7.9299999999999997

>  <m_primary>  (10) 
energy

$$$$
10:0
     RDKit          3D

 19 20  0  0  0  0  0  0  0  0999 V2000
   60.4420   29.3220   45.1280 F   0  0  0  0  0  0  0  0  0  0  0  0
   59.3580   28.5570   45.4120 C   0  0  0  0  0  0  0  0  0  0  0  0
   59.5540   27.2690   45.9180 C   0  0  0  0  0  0  0  0  0  0  0  0
   58.4610   26.4380   46.1710 C   0  0  0  0  0  0  0  0  0  0  0  0
   57.1660   26.8910   45.9120 C   0  0  0  0  0  0  0  0  0  0  0  0
   56.9600   28.1770   45.4030 C   0  0  0  0  0  0  0  0  0  0  0  0
   55.6890   28.5990   45.1780 F   0  0  0  0  0  0  0  0  0  0  0  0
   58.0540   29.0280   45.1560 C   0  0  0  0  0  0  0  0  0  0  0  0
   57.8380   30.3520   44.6320 N   0  0  0  0  0  0  0  0  0  0  0  0
   57.4040   31.3700   45.3600 N   0  0  0  0  0  0  0  0  0  0  0  0
   57.3470   32.4320   44.5320 C   0  0  0  0  0  0  0  0  0  0  0  0
   57.7690   32.0220   43.2830 C   0  0  0  0  0  0  0  0  0  0  0  0
   58.0690   30.7170   43.3800 N   0  0  0  0  0  0  0  0  0  0  0  0
   60.5739   26.9085   46.1178 H   0  0  0  0  0  0  0  0  0  0  0  0
   58.6200   25.4270   46.5742 H   0  0  0  0  0  0  0  0  0  0  0  0
   56.3056   26.2346   46.1089 H   0  0  0  0  0  0  0  0  0  0  0  0
   57.0215   33.4470   44.8036 H   0  0  0  0  0  0  0  0  0  0  0  0
   57.8450   32.6459   42.3802 H   0  0  0  0  0  0  0  0  0  0  0  0
   58.4560   30.1110   42.6230 H   0  0  0  0  0  0  0  0  0  0  0  0
  1  2  1  0
  2  3  2  0
  3  4  1  0
  4  5  2  0
  5  6  1  0
  6  7  1  0
  6  8  2  0
  8  9  1  0
  9 10  1  0
 10 11  2  0
 11 12  1  0
 12 13  2  0
  8  2  1  0
 13  9  1  0
  3 14  1  0
  4 15  1  0
  5 16  1  0
 11 17  1  0
 12 18  1  0
 13 19  1  0
M  CHG  1  13   1
M  END
>  <UniqueID>  (11) 
11

>  <SMILES>  (11) 
Fc1cccc(F)c1-n1ncc[nH+]1

>  <Energy>  (11) 
58.74165472451283

>  <Genealogy>  (11) 
Fc1cccc(F)c1-n1ncc[nH+]1 (protonated)
Fc1cccc(F)c1-n1ncc[nH+]1 (3D coordinates assigned)
Fc1cccc(F)c1-n1ncc[nH+]1 (optimized conformer: 58.74165472451283 kcal/mol)

>  <smiles>  (11) 
Fc1cccc(F)c1-n1nccn1

>  <score_type>  (11) 
oracle

>  <origin>  (11) 
adg

>  <m_score__min__energy>  (11) 
-3.6699999999999999

>  <m_primary>  (11) 
energy

$$$$
11:0
     RDKit          3D

 66 70  0  0  0  0  0  0  0  0999 V2000
   56.0280   30.3770   43.0340 O   0  0  0  0  0  0  0  0  0  0  0  0
   56.1840   30.0980   44.2540 C   0  0  0  0  0  0  0  0  0  0  0  0
   55.2110   29.3600   44.9180 O   0  0  0  0  0  0  0  0  0  0  0  0
   57.3630   30.6030   44.9910 C   0  0  0  0  0  0  0  0  0  0  0  0
   58.4190   29.7570   45.4540 C   0  0  0  0  0  0  0  0  0  0  0  0
   58.1800   28.2230   45.4160 C   0  0  2  0  0  0  0  0  0  0  0  0
   58.6550   27.5230   46.7080 C   0  0  0  0  0  0  0  0  0  0  0  0
   58.8880   26.0150   46.4970 C   0  0  0  0  0  0  0  0  0  0  0  0
   57.9050   25.4370   45.4620 C   0  0  0  0  0  0  0  0  0  0  0  0
   57.9930   26.0940   44.1370 N   0  0  0  0  0  0  0  0  0  0  0  0
   58.6080   27.4360   44.1600 C   0  0  0  0  0  0  0  0  0  0  0  0
   59.5070   30.3620   46.0850 N   0  0  0  0  0  0  0  0  0  0  0  0
   60.7220   29.6450   46.5250 C   0  0  0  0  0  0  0  0  0  0  0  0
   61.5620   30.4580   47.4790 C   0  0  0  0  0  0  0  0  0  0  0  0
   62.5210   31.3560   46.9860 C   0  0  0  0  0  0  0  0  0  0  0  0
   63.2950   32.1220   47.8610 C   0  0  0  0  0  0  0  0  0  0  0  0
   63.0980   32.0340   49.2510 C   0  0  0  0  0  0  0  0  0  0  0  0
   63.9320   32.8330   50.1850 C   0  0  0  0  0  0  0  0  0  0  0  0
   63.3360   33.7410   51.0800 C   0  0  0  0  0  0  0  0  0  0  0  0
   64.1260   34.4950   51.9540 C   0  0  0  0  0  0  0  0  0  0  0  0
   65.5150   34.3510   51.9450 C   0  0  0  0  0  0  0  0  0  0  0  0
   66.1180   33.4530   51.0620 C   0  0  0  0  0  0  0  0  0  0  0  0
   65.3340   32.6960   50.1880 C   0  0  0  0  0  0  0  0  0  0  0  0
   62.0920   31.1830   49.7410 C   0  0  0  0  0  0  0  0  0  0  0  0
   61.3210   30.4170   48.8640 C   0  0  0  0  0  0  0  0  0  0  0  0
   59.5040   31.6850   46.3180 N   0  0  0  0  0  0  0  0  0  0  0  0
   58.4820   32.4950   45.9590 C   0  0  0  0  0  0  0  0  0  0  0  0
   58.5120   34.2320   46.4340 S   0  0  0  0  0  0  0  0  0  0  0  0
   59.9710   34.0690   47.5260 C   0  0  0  0  0  0  0  0  0  0  0  0
   59.5840   33.5450   48.8830 C   0  0  0  0  0  0  0  0  0  0  0  0
   60.1140   34.1350   50.0430 C   0  0  0  0  0  0  0  0  0  0  0  0
   59.7120   33.6890   51.3050 C   0  0  0  0  0  0  0  0  0  0  0  0
   58.7750   32.6560   51.4190 C   0  0  0  0  0  0  0  0  0  0  0  0
   58.2420   32.0660   50.2700 C   0  0  0  0  0  0  0  0  0  0  0  0
   58.6450   32.5050   49.0060 C   0  0  0  0  0  0  0  0  0  0  0  0
   57.4090   31.9740   45.2580 C   0  0  0  0  0  0  0  0  0  0  0  0
   56.4800   32.7380   44.8730 O   0  0  0  0  0  0  0  0  0  0  0  0
   57.0828   28.1868   45.3463 H   0  0  0  0  0  0  0  0  0  0  0  0
   59.5977   27.9852   47.0360 H   0  0  0  0  0  0  0  0  0  0  0  0
   57.8676   27.6415   47.4670 H   0  0  0  0  0  0  0  0  0  0  0  0
   59.9169   25.8576   46.1410 H   0  0  0  0  0  0  0  0  0  0  0  0
   58.7253   25.5008   47.4557 H   0  0  0  0  0  0  0  0  0  0  0  0
   58.1216   24.3660   45.3354 H   0  0  0  0  0  0  0  0  0  0  0  0
   56.8890   25.6129   45.8451 H   0  0  0  0  0  0  0  0  0  0  0  0
   57.0260   26.1750   43.7420 H   0  0  0  0  0  0  0  0  0  0  0  0
   59.7028   27.3293   44.1589 H   0  0  0  0  0  0  0  0  0  0  0  0
   58.2720   27.9890   43.2705 H   0  0  0  0  0  0  0  0  0  0  0  0
   60.4194   28.7144   47.0273 H   0  0  0  0  0  0  0  0  0  0  0  0
   61.3321   29.4442   45.6320 H   0  0  0  0  0  0  0  0  0  0  0  0
   62.6646   31.4577   45.9002 H   0  0  0  0  0  0  0  0  0  0  0  0
   64.0640   32.7988   47.4602 H   0  0  0  0  0  0  0  0  0  0  0  0
   62.2424   33.8584   51.0923 H   0  0  0  0  0  0  0  0  0  0  0  0
   63.6521   35.2029   52.6499 H   0  0  0  0  0  0  0  0  0  0  0  0
   66.1340   34.9450   52.6335 H   0  0  0  0  0  0  0  0  0  0  0  0
   67.2123   33.3414   51.0546 H   0  0  0  0  0  0  0  0  0  0  0  0
   65.8149   31.9879   49.4972 H   0  0  0  0  0  0  0  0  0  0  0  0
   61.9106   31.1200   50.8241 H   0  0  0  0  0  0  0  0  0  0  0  0
   60.5189   29.7766   49.2596 H   0  0  0  0  0  0  0  0  0  0  0  0
   60.3000   32.1330   46.8270 H   0  0  0  0  0  0  0  0  0  0  0  0
   60.6877   33.3737   47.0647 H   0  0  0  0  0  0  0  0  0  0  0  0
   60.4211   35.0645   47.6542 H   0  0  0  0  0  0  0  0  0  0  0  0
   60.8475   34.9503   49.9575 H   0  0  0  0  0  0  0  0  0  0  0  0
   60.1329   34.1508   52.2103 H   0  0  0  0  0  0  0  0  0  0  0  0
   58.4580   32.3084   52.4133 H   0  0  0  0  0  0  0  0  0  0  0  0
   57.5043   31.2550   50.3605 H   0  0  0  0  0  0  0  0  0  0  0  0
   58.2263   32.0354   48.1037 H   0  0  0  0  0  0  0  0  0  0  0  0
  1  2  2  0
  2  3  1  0
  2  4  1  0
  4  5  2  0
  5  6  1  0
  6  7  1  0
  7  8  1  0
  8  9  1  0
  9 10  1  0
 10 11  1  0
  5 12  1  0
 12 13  1  0
 13 14  1  0
 14 15  2  0
 15 16  1  0
 16 17  2  0
 17 18  1  0
 18 19  2  0
 19 20  1  0
 20 21  2  0
 21 22  1  0
 22 23  2  0
 17 24  1  0
 24 25  2  0
 12 26  1  0
 26 27  2  0
 27 28  1  0
 28 29  1  0
 29 30  1  0
 30 31  2  0
 31 32  1  0
 32 33  2  0
 33 34  1  0
 34 35  2  0
 27 36  1  0
 36 37  2  0
 36  4  1  0
 11  6  1  0
 25 14  1  0
 35 30  1  0
 23 18  1  0
  6 38  1  1
  7 39  1  0
  7 40  1  0
  8 41  1  0
  8 42  1  0
  9 43  1  0
  9 44  1  0
 10 45  1  0
 11 46  1  0
 11 47  1  0
 13 48  1  0
 13 49  1  0
 15 50  1  0
 16 51  1  0
 19 52  1  0
 20 53  1  0
 21 54  1  0
 22 55  1  0
 23 56  1  0
 24 57  1  0
 25 58  1  0
 26 59  1  0
 29 60  1  0
 29 61  1  0
 31 62  1  0
 32 63  1  0
 33 64  1  0
 34 65  1  0
 35 66  1  0
M  CHG  2   3  -1  26   1
M  END
>  <UniqueID>  (12) 
12

>  <SMILES>  (12) 
O=C([O-])c1c([C@@H]2CCCNC2)n(Cc2ccc(-c3ccccc3)cc2)[nH+]c(SCc2ccccc2)c1=O

>  <Energy>  (12) 
101.9672495544974

>  <Genealogy>  (12) 
O=C([O-])c1c(C2CCCNC2)n(Cc2ccc(-c3ccccc3)cc2)[nH+]c(SCc2ccccc2)c1=O (protonated)
O=C([O-])c1c([C@@H]2CCCNC2)n(Cc2ccc(-c3ccccc3)cc2)[nH+]c(SCc2ccccc2)c1=O (chirality)
O=C([O-])c1c([C@@H]2CCCNC2)n(Cc2ccc(-c3ccccc3)cc2)[nH+]c(SCc2ccccc2)c1=O (3D coordinates assigned)
O=C([O-])c1c([C@@H]2CCCNC2)n(Cc2ccc(-c3ccccc3)cc2)[nH+]c(SCc2ccccc2)c1=O (nonaromatic ring conformer: 101.9672495544974 kcal/mol)

>  <smiles>  (12) 
O=C(O)c1c(C2CCCNC2)n(Cc2ccc(-c3ccccc3)cc2)nc(SCc2ccccc2)c1=O

>  <score_type>  (12) 
oracle

>  <origin>  (12) 
adg

>  <m_score__min__energy>  (12) 
-11.06

>  <m_primary>  (12) 
energy

$$$$
12:0
     RDKit          3D

 41 43  0  0  0  0  0  0  0  0999 V2000
   63.3820   31.8270   47.4820 C   0  0  0  0  0  0  0  0  0  0  0  0
   62.1620   33.1200   47.3090 S   0  0  0  0  0  0  0  0  0  0  0  0
   62.4410   33.8280   46.0130 O   0  0  0  0  0  0  0  0  0  0  0  0
   62.3640   34.1160   48.4140 O   0  0  0  0  0  0  0  0  0  0  0  0
   60.4960   32.5260   47.2670 N   0  0  0  0  0  0  0  0  0  0  0  0
   60.3670   31.4430   48.2630 C   0  0  0  0  0  0  0  0  0  0  0  0
   59.6650   32.0050   49.4990 C   0  0  0  0  0  0  0  0  0  0  0  0
   59.2820   33.4290   49.1390 C   0  0  0  0  0  0  0  0  0  0  0  0
   59.4120   33.4900   47.6120 C   0  0  1  0  0  0  0  0  0  0  0  0
   59.6290   34.9580   47.1260 C   0  0  0  0  0  0  0  0  0  0  0  0
   59.5450   35.1120   45.5940 C   0  0  0  0  0  0  0  0  0  0  0  0
   58.2380   34.5500   45.0450 C   0  0  0  0  0  0  0  0  0  0  0  0
   58.0570   33.1840   45.5390 N   0  0  0  0  0  0  0  0  0  0  0  0
   57.6460   32.1210   44.6590 C   0  0  0  0  0  0  0  0  0  0  0  0
   57.7810   32.2470   43.2670 C   0  0  0  0  0  0  0  0  0  0  0  0
   57.3770   31.2310   42.4590 N   0  0  0  0  0  0  0  0  0  0  0  0
   56.8470   30.0920   42.9730 C   0  0  0  0  0  0  0  0  0  0  0  0
   56.7100   29.9600   44.3560 C   0  0  0  0  0  0  0  0  0  0  0  0
   57.1110   30.9740   45.1690 N   0  0  0  0  0  0  0  0  0  0  0  0
   58.0710   32.9860   46.9900 C   0  0  0  0  0  0  0  0  0  0  0  0
   63.5635   31.6346   48.5497 H   0  0  0  0  0  0  0  0  0  0  0  0
   63.0137   30.9087   47.0014 H   0  0  0  0  0  0  0  0  0  0  0  0
   64.3202   32.1414   47.0014 H   0  0  0  0  0  0  0  0  0  0  0  0
   59.7730   30.6190   47.8409 H   0  0  0  0  0  0  0  0  0  0  0  0
   61.3614   31.0594   48.5350 H   0  0  0  0  0  0  0  0  0  0  0  0
   58.7676   31.4135   49.7330 H   0  0  0  0  0  0  0  0  0  0  0  0
   60.3138   31.9701   50.3866 H   0  0  0  0  0  0  0  0  0  0  0  0
   58.2489   33.6437   49.4497 H   0  0  0  0  0  0  0  0  0  0  0  0
   59.9183   34.1721   49.6420 H   0  0  0  0  0  0  0  0  0  0  0  0
   58.8578   35.5949   47.5837 H   0  0  0  0  0  0  0  0  0  0  0  0
   60.6443   35.2545   47.4281 H   0  0  0  0  0  0  0  0  0  0  0  0
   59.6099   36.1799   45.3383 H   0  0  0  0  0  0  0  0  0  0  0  0
   60.3771   34.5498   45.1452 H   0  0  0  0  0  0  0  0  0  0  0  0
   57.3984   35.1768   45.3800 H   0  0  0  0  0  0  0  0  0  0  0  0
   58.2708   34.5443   43.9455 H   0  0  0  0  0  0  0  0  0  0  0  0
   58.2109   33.1619   42.8331 H   0  0  0  0  0  0  0  0  0  0  0  0
   56.5277   29.2788   42.3046 H   0  0  0  0  0  0  0  0  0  0  0  0
   56.2808   29.0426   44.7851 H   0  0  0  0  0  0  0  0  0  0  0  0
   57.0220   30.8540   46.2020 H   0  0  0  0  0  0  0  0  0  0  0  0
   57.2352   33.5441   47.4371 H   0  0  0  0  0  0  0  0  0  0  0  0
   57.9716   31.9103   47.1974 H   0  0  0  0  0  0  0  0  0  0  0  0
  1  2  1  0
  2  3  2  0
  2  4  2  0
  2  5  1  0
  5  6  1  0
  6  7  1  0
  7  8  1  0
  8  9  1  0
  9 10  1  0
 10 11  1  0
 11 12  1  0
 12 13  1  0
 13 14  1  0
 14 15  2  0
 15 16  1  0
 16 17  2  0
 17 18  1  0
 18 19  2  0
 13 20  1  0
  9  5  1  6
 19 14  1  0
 20  9  1  0
  1 21  1  0
  1 22  1  0
  1 23  1  0
  6 24  1  0
  6 25  1  0
  7 26  1  0
  7 27  1  0
  8 28  1  0
  8 29  1  0
 10 30  1  0
 10 31  1  0
 11 32  1  0
 11 33  1  0
 12 34  1  0
 12 35  1  0
 15 36  1  0
 17 37  1  0
 18 38  1  0
 19 39  1  0
 20 40  1  0
 20 41  1  0
M  CHG  1  19   1
M  END
>  <UniqueID>  (13) 
13

>  <SMILES>  (13) 
CS(=O)(=O)N1CCC[C@@]12CCCN(c1cncc[nH+]1)C2

>  <Energy>  (13) 
53.32859955859069

>  <Genealogy>  (13) 
CS(=O)(=O)N1CCCC12CCCN(c1cncc[nH+]1)C2 (protonated)
CS(=O)(=O)N1CCC[C@@]12CCCN(c1cncc[nH+]1)C2 (chirality)
CS(=O)(=O)N1CCC[C@@]12CCCN(c1cncc[nH+]1)C2 (3D coordinates assigned)
CS(=O)(=O)N1CCC[C@@]12CCCN(c1cncc[nH+]1)C2 (nonaromatic ring conformer: 53.32859955859069 kcal/mol)

>  <smiles>  (13) 
CS(=O)(=O)N1CCCC12CCCN(c1cnccn1)C2

>  <score_type>  (13) 
oracle

>  <origin>  (13) 
adg

>  <m_score__min__energy>  (13) 
-5.9299999999999997

>  <m_primary>  (13) 
energy

$$$$
13:0
     RDKit          3D

 39 41  0  0  0  0  0  0  0  0999 V2000
   63.1960   33.8040   46.7510 C   0  0  0  0  0  0  0  0  0  0  0  0
   63.2930   33.4690   48.2150 C   0  0  0  0  0  0  0  0  0  0  0  0
   64.3910   32.7280   48.6850 C   0  0  0  0  0  0  0  0  0  0  0  0
   64.4970   32.4000   50.0370 C   0  0  0  0  0  0  0  0  0  0  0  0
   63.5060   32.7980   50.9340 C   0  0  0  0  0  0  0  0  0  0  0  0
   62.4030   33.5240   50.4800 C   0  0  0  0  0  0  0  0  0  0  0  0
   62.2880   33.8750   49.1230 C   0  0  0  0  0  0  0  0  0  0  0  0
   61.1260   34.5870   48.6580 N   0  0  0  0  0  0  0  0  0  0  0  0
   60.1440   34.0300   47.7660 C   0  0  0  0  0  0  0  0  0  0  0  0
   59.2790   33.0010   48.1810 C   0  0  0  0  0  0  0  0  0  0  0  0
   58.3170   32.4910   47.3040 C   0  0  0  0  0  0  0  0  0  0  0  0
   58.1810   33.0180   46.0130 C   0  0  0  0  0  0  0  0  0  0  0  0
   57.2030   32.4580   45.1200 N   0  0  0  0  0  0  0  0  0  0  0  0
   57.2650   31.1270   44.5780 C   0  0  0  0  0  0  0  0  0  0  0  0
   58.1740   30.1750   45.0770 C   0  0  0  0  0  0  0  0  0  0  0  0
   58.2350   28.8970   44.5150 C   0  0  0  0  0  0  0  0  0  0  0  0
   57.4040   28.5620   43.4440 C   0  0  0  0  0  0  0  0  0  0  0  0
   56.5150   29.5080   42.9270 C   0  0  0  0  0  0  0  0  0  0  0  0
   56.4500   30.7880   43.4870 C   0  0  0  0  0  0  0  0  0  0  0  0
   59.0480   34.0440   45.5970 C   0  0  0  0  0  0  0  0  0  0  0  0
   60.0100   34.5540   46.4740 C   0  0  0  0  0  0  0  0  0  0  0  0
   62.8918   34.8547   46.6347 H   0  0  0  0  0  0  0  0  0  0  0  0
   64.1754   33.6509   46.2741 H   0  0  0  0  0  0  0  0  0  0  0  0
   62.4500   33.1513   46.2741 H   0  0  0  0  0  0  0  0  0  0  0  0
   65.1725   32.4043   47.9818 H   0  0  0  0  0  0  0  0  0  0  0  0
   65.3641   31.8263   50.3962 H   0  0  0  0  0  0  0  0  0  0  0  0
   63.5933   32.5399   51.9997 H   0  0  0  0  0  0  0  0  0  0  0  0
   61.6177   33.8238   51.1895 H   0  0  0  0  0  0  0  0  0  0  0  0
   61.0000   35.5780   48.9660 H   0  0  0  0  0  0  0  0  0  0  0  0
   59.3600   32.5957   49.2004 H   0  0  0  0  0  0  0  0  0  0  0  0
   57.6619   31.6697   47.6301 H   0  0  0  0  0  0  0  0  0  0  0  0
   56.3940   33.0590   44.8440 H   0  0  0  0  0  0  0  0  0  0  0  0
   58.8390   30.4381   45.9128 H   0  0  0  0  0  0  0  0  0  0  0  0
   58.9390   28.1535   44.9171 H   0  0  0  0  0  0  0  0  0  0  0  0
   57.4492   27.5534   43.0073 H   0  0  0  0  0  0  0  0  0  0  0  0
   55.8656   29.2458   42.0787 H   0  0  0  0  0  0  0  0  0  0  0  0
   55.7563   31.5330   43.0700 H   0  0  0  0  0  0  0  0  0  0  0  0
   58.9689   34.4473   44.5766 H   0  0  0  0  0  0  0  0  0  0  0  0
   60.6669   35.3734   46.1467 H   0  0  0  0  0  0  0  0  0  0  0  0
  1  2  1  0
  2  3  2  0
  3  4  1  0
  4  5  2  0
  5  6  1  0
  6  7  2  0
  7  8  1  0
  8  9  1  0
  9 10  2  0
 10 11  1  0
 11 12  2  0
 12 13  1  0
 13 14  1  0
 14 15  2  0
 15 16  1  0
 16 17  2  0
 17 18  1  0
 18 19  2  0
 12 20  1  0
 20 21  2  0
  7  2  1  0
 21  9  1  0
 19 14  1  0
  1 22  1  0
  1 23  1  0
  1 24  1  0
  3 25  1  0
  4 26  1  0
  5 27  1  0
  6 28  1  0
  8 29  1  0
 10 30  1  0
 11 31  1  0
 13 32  1  0
 15 33  1  0
 16 34  1  0
 17 35  1  0
 18 36  1  0
 19 37  1  0
 20 38  1  0
 21 39  1  0
M  END
>  <UniqueID>  (14) 
14

>  <SMILES>  (14) 
Cc1ccccc1Nc1ccc(Nc2ccccc2)cc1

>  <Energy>  (14) 
52.827976299457205

>  <Genealogy>  (14) 
Cc1ccccc1Nc1ccc(Nc2ccccc2)cc1 (3D coordinates assigned)
Cc1ccccc1Nc1ccc(Nc2ccccc2)cc1 (optimized conformer: 52.827976299457205 kcal/mol)

>  <smiles>  (14) 
Cc1ccccc1Nc1ccc(Nc2ccccc2)cc1

>  <score_type>  (14) 
oracle

>  <origin>  (14) 
adg

>  <m_score__min__energy>  (14) 
-7.1100000000000003

>  <m_primary>  (14) 
energy

$$$$
14:0
     RDKit          3D

 32 33  0  0  0  0  0  0  0  0999 V2000
   55.5070   29.4810   42.3020 H   0  0  0  0  0  0  0  0  0  0  0  0
   56.2680   30.1250   42.6100 N   0  0  0  0  0  0  0  0  0  0  0  0
   56.9980   29.8590   43.6470 C   0  0  0  0  0  0  0  0  0  0  0  0
   56.9490   28.6740   44.3010 N   0  0  0  0  0  0  0  0  0  0  0  0
   56.3510   27.8470   44.0830 H   0  0  0  0  0  0  0  0  0  0  0  0
   57.8240   28.8370   45.3130 C   0  0  0  0  0  0  0  0  0  0  0  0
   58.3720   30.0800   45.2620 C   0  0  0  0  0  0  0  0  0  0  0  0
   59.2650   30.4880   46.2470 C   0  0  0  0  0  0  0  0  0  0  0  0
   59.7550   31.6500   46.2280 O   0  0  0  0  0  0  0  0  0  0  0  0
   59.5900   29.5960   47.2440 N   0  0  0  0  0  0  0  0  0  0  0  0
   60.5090   30.0060   48.3190 C   0  0  0  0  0  0  0  0  0  0  0  0
   60.0464   29.7996   49.2954 H   0  0  0  0  0  0  0  0  0  0  0  0
   61.4495   29.4421   48.2323 H   0  0  0  0  0  0  0  0  0  0  0  0
   60.7176   31.0826   48.2323 H   0  0  0  0  0  0  0  0  0  0  0  0
   58.9970   28.3450   47.2860 C   0  0  0  0  0  0  0  0  0  0  0  0
   59.2570   27.5630   48.2430 O   0  0  0  0  0  0  0  0  0  0  0  0
   58.1180   27.9460   46.3000 N   0  0  0  0  0  0  0  0  0  0  0  0
   57.4650   26.6310   46.3220 C   0  0  0  0  0  0  0  0  0  0  0  0
   57.3089   26.3166   47.3645 H   0  0  0  0  0  0  0  0  0  0  0  0
   56.4941   26.6951   45.8090 H   0  0  0  0  0  0  0  0  0  0  0  0
   58.1029   25.8962   45.8090 H   0  0  0  0  0  0  0  0  0  0  0  0
   57.8680   30.7460   44.1970 N   0  0  0  0  0  0  0  0  0  0  0  0
   58.0990   32.1330   43.7840 C   0  0  0  0  0  0  0  0  0  0  0  0
   59.1798   32.3374   43.7855 H   0  0  0  0  0  0  0  0  0  0  0  0
   57.6906   32.2794   42.7732 H   0  0  0  0  0  0  0  0  0  0  0  0
   57.4010   33.0950   44.7490 C   0  0  0  0  0  0  0  0  0  0  0  0
   56.5287   33.5378   44.2460 H   0  0  0  0  0  0  0  0  0  0  0  0
   57.0894   32.5298   45.6398 H   0  0  0  0  0  0  0  0  0  0  0  0
   58.3410   34.2120   45.1900 C   0  0  0  0  0  0  0  0  0  0  0  0
   58.3739   34.2511   46.2888 H   0  0  0  0  0  0  0  0  0  0  0  0
   59.3507   34.0170   44.7996 H   0  0  0  0  0  0  0  0  0  0  0  0
   57.9764   35.1736   44.7996 H   0  0  0  0  0  0  0  0  0  0  0  0
  1  2  1  0
  2  3  2  0
  3  4  1  0
  4  5  1  0
  4  6  1  0
  6  7  2  0
  7  8  1  0
  8  9  2  0
  8 10  1  0
 10 11  1  0
 11 12  1  0
 11 13  1  0
 11 14  1  0
 10 15  1  0
 15 16  2  0
 15 17  1  0
 17 18  1  0
 18 19  1  0
 18 20  1  0
 18 21  1  0
  7 22  1  0
 22 23  1  0
 23 24  1  0
 23 25  1  0
 23 26  1  0
 26 27  1  0
 26 28  1  0
 26 29  1  0
 29 30  1  0
 29 31  1  0
 29 32  1  0
 22  3  1  0
 17  6  1  0
M  END
>  <UniqueID>  (15) 
15

>  <SMILES>  (15) 
[H]/N=c1\[nH]c2c(c(=O)n(C)c(=O)n2C)n1CCC

>  <Energy>  (15) 
75.12519765545242

>  <Genealogy>  (15) 
[H]/N=c1\[nH]c2c(c(=O)n(C)c(=O)n2C)n1CCC (cis-trans isomerization)
[H]/N=c1\[nH]c2c(c(=O)n(C)c(=O)n2C)n1CCC (3D coordinates assigned)
[H]/N=c1\[nH]c2c(c(=O)n(C)c(=O)n2C)n1CCC (optimized conformer: 75.12519765545242 kcal/mol)

>  <smiles>  (15) 
CCCn1c(=N)[nH]c2c1c(=O)n(C)c(=O)n2C

>  <score_type>  (15) 
oracle

>  <origin>  (15) 
adg

>  <m_score__min__energy>  (15) 
-5.4199999999999999

>  <m_primary>  (15) 
energy

$$$$
15:0
     RDKit          3D

 43 45  0  0  0  0  0  0  0  0999 V2000
   55.5180   26.0800   46.0050 O   0  0  0  0  0  0  0  0  0  0  0  0
   56.7080   26.4700   46.1170 C   0  0  0  0  0  0  0  0  0  0  0  0
   57.0570   27.9070   45.8040 C   0  0  0  0  0  0  0  0  0  0  0  0
   58.5250   28.1520   45.8440 N   0  0  0  0  0  0  0  0  0  0  0  0
   58.9750   28.8140   47.0930 C   0  0  0  0  0  0  0  0  0  0  0  0
   58.5670   30.2950   47.1810 C   0  0  0  0  0  0  0  0  0  0  0  0
   58.8730   30.9960   45.9300 N   0  0  0  0  0  0  0  0  0  0  0  0
   59.2040   32.3950   45.9680 C   0  0  0  0  0  0  0  0  0  0  0  0
   58.4640   33.3060   45.1970 C   0  0  0  0  0  0  0  0  0  0  0  0
   58.7810   34.6680   45.2120 C   0  0  0  0  0  0  0  0  0  0  0  0
   59.8370   35.1290   46.0020 C   0  0  0  0  0  0  0  0  0  0  0  0
   60.5770   34.2310   46.7780 C   0  0  0  0  0  0  0  0  0  0  0  0
   60.2670   32.8690   46.7610 C   0  0  0  0  0  0  0  0  0  0  0  0
   61.0350   32.0120   47.4750 F   0  0  0  0  0  0  0  0  0  0  0  0
   58.5040   30.3550   44.6670 C   0  0  0  0  0  0  0  0  0  0  0  0
   58.9980   28.9070   44.6610 C   0  0  0  0  0  0  0  0  0  0  0  0
   57.6940   25.5410   46.5860 N   0  0  0  0  0  0  0  0  0  0  0  0
   58.1960   24.4050   45.8700 C   0  0  0  0  0  0  0  0  0  0  0  0
   59.5360   23.9920   45.9850 C   0  0  0  0  0  0  0  0  0  0  0  0
   60.0040   22.9120   45.2360 C   0  0  0  0  0  0  0  0  0  0  0  0
   59.1510   22.2490   44.3530 C   0  0  0  0  0  0  0  0  0  0  0  0
   57.8260   22.6700   44.2140 C   0  0  0  0  0  0  0  0  0  0  0  0
   56.6710   21.7860   42.9840 Br  0  0  0  0  0  0  0  0  0  0  0  0
   57.3520   23.7490   44.9660 C   0  0  0  0  0  0  0  0  0  0  0  0
   56.6847   28.1507   44.7980 H   0  0  0  0  0  0  0  0  0  0  0  0
   56.5881   28.5423   46.5699 H   0  0  0  0  0  0  0  0  0  0  0  0
   59.0090   27.2230   45.7990 H   0  0  0  0  0  0  0  0  0  0  0  0
   58.5357   28.2799   47.9484 H   0  0  0  0  0  0  0  0  0  0  0  0
   60.0744   28.7791   47.1010 H   0  0  0  0  0  0  0  0  0  0  0  0
   57.4863   30.3601   47.3756 H   0  0  0  0  0  0  0  0  0  0  0  0
   59.1329   30.7681   47.9971 H   0  0  0  0  0  0  0  0  0  0  0  0
   57.6296   32.9460   44.5772 H   0  0  0  0  0  0  0  0  0  0  0  0
   58.1996   35.3755   44.6025 H   0  0  0  0  0  0  0  0  0  0  0  0
   60.0869   36.2002   46.0137 H   0  0  0  0  0  0  0  0  0  0  0  0
   61.4046   34.5979   47.4028 H   0  0  0  0  0  0  0  0  0  0  0  0
   57.4097   30.3686   44.5559 H   0  0  0  0  0  0  0  0  0  0  0  0
   58.9665   30.9015   43.8319 H   0  0  0  0  0  0  0  0  0  0  0  0
   58.6284   28.4099   43.7520 H   0  0  0  0  0  0  0  0  0  0  0  0
   60.0975   28.9242   44.6876 H   0  0  0  0  0  0  0  0  0  0  0  0
   60.2166   24.5221   46.6674 H   0  0  0  0  0  0  0  0  0  0  0  0
   61.0481   22.5823   45.3418 H   0  0  0  0  0  0  0  0  0  0  0  0
   59.5215   21.3953   43.7666 H   0  0  0  0  0  0  0  0  0  0  0  0
   56.3111   24.0841   44.8468 H   0  0  0  0  0  0  0  0  0  0  0  0
  1  2  2  0
  2  3  1  0
  3  4  1  0
  4  5  1  0
  5  6  1  0
  6  7  1  0
  7  8  1  0
  8  9  2  0
  9 10  1  0
 10 11  2  0
 11 12  1  0
 12 13  2  0
 13 14  1  0
  7 15  1  0
 15 16  1  0
  2 17  1  0
 17 18  1  0
 18 19  2  0
 19 20  1  0
 20 21  2  0
 21 22  1  0
 22 23  1  0
 22 24  2  0
 16  4  1  0
 24 18  1  0
 13  8  1  0
  3 25  1  0
  3 26  1  0
  4 27  1  0
  5 28  1  0
  5 29  1  0
  6 30  1  0
  6 31  1  0
  9 32  1  0
 10 33  1  0
 11 34  1  0
 12 35  1  0
 15 36  1  0
 15 37  1  0
 16 38  1  0
 16 39  1  0
 19 40  1  0
 20 41  1  0
 21 42  1  0
 24 43  1  0
M  CHG  2   4   1  17  -1
M  END
>  <UniqueID>  (16) 
16

>  <SMILES>  (16) 
O=C(C[NH+]1CCN(c2ccccc2F)CC1)[N-]c1cccc(Br)c1

>  <Energy>  (16) 
60.24079755128805

>  <Genealogy>  (16) 
O=C(C[NH+]1CCN(c2ccccc2F)CC1)[N-]c1cccc(Br)c1 (protonated)
O=C(C[NH+]1CCN(c2ccccc2F)CC1)[N-]c1cccc(Br)c1 (3D coordinates assigned)
O=C(C[NH+]1CCN(c2ccccc2F)CC1)[N-]c1cccc(Br)c1 (nonaromatic ring conformer: 60.24079755128805 kcal/mol)

>  <smiles>  (16) 
O=C(CN1CCN(c2ccccc2F)CC1)Nc1cccc(Br)c1

>  <score_type>  (16) 
oracle

>  <origin>  (16) 
adg

>  <m_score__min__energy>  (16) 
-8

>  <m_primary>  (16) 
energy

$$$$
16:0
     RDKit          3D

 47 50  0  0  0  0  0  0  0  0999 V2000
   67.4490   33.4900   50.5020 C   0  0  0  0  0  0  0  0  0  0  0  0
   66.3100   32.9480   49.8430 O   0  0  0  0  0  0  0  0  0  0  0  0
   65.4630   31.9700   50.3910 C   0  0  0  0  0  0  0  0  0  0  0  0
   65.9340   30.9980   51.2960 C   0  0  0  0  0  0  0  0  0  0  0  0
   65.0560   30.0580   51.8420 C   0  0  0  0  0  0  0  0  0  0  0  0
   63.7050   30.0750   51.4960 C   0  0  0  0  0  0  0  0  0  0  0  0
   63.2270   31.0310   50.5980 C   0  0  0  0  0  0  0  0  0  0  0  0
   64.1000   31.9760   50.0370 C   0  0  0  0  0  0  0  0  0  0  0  0
   63.5900   32.9420   49.1050 N   0  0  0  0  0  0  0  0  0  0  0  0
   63.7880   32.7300   47.6640 C   0  0  0  0  0  0  0  0  0  0  0  0
   63.0200   33.7690   46.8420 C   0  0  0  0  0  0  0  0  0  0  0  0
   61.6590   33.9120   47.3750 N   0  0  0  0  0  0  0  0  0  0  0  0
   60.5070   33.8670   46.5100 C   0  0  0  0  0  0  0  0  0  0  0  0
   59.9810   32.7290   46.0000 N   0  0  0  0  0  0  0  0  0  0  0  0
   58.8660   32.9580   45.2460 C   0  0  0  0  0  0  0  0  0  0  0  0
   58.1140   31.8610   44.5840 C   0  0  0  0  0  0  0  0  0  0  0  0
   57.7780   30.6950   45.2980 C   0  0  0  0  0  0  0  0  0  0  0  0
   57.0710   29.6620   44.6750 C   0  0  0  0  0  0  0  0  0  0  0  0
   56.6930   29.7790   43.3360 C   0  0  0  0  0  0  0  0  0  0  0  0
   57.0220   30.9310   42.6160 C   0  0  0  0  0  0  0  0  0  0  0  0
   57.7290   31.9660   43.2330 C   0  0  0  0  0  0  0  0  0  0  0  0
   58.4930   34.3010   45.1660 C   0  0  0  0  0  0  0  0  0  0  0  0
   59.5920   35.2060   46.0630 S   0  0  0  0  0  0  0  0  0  0  0  0
   61.4640   34.1440   48.8150 C   0  0  0  0  0  0  0  0  0  0  0  0
   62.7870   34.0730   49.5860 C   0  0  0  0  0  0  0  0  0  0  0  0
   67.3088   33.4233   51.5910 H   0  0  0  0  0  0  0  0  0  0  0  0
   68.3452   32.9218   50.2122 H   0  0  0  0  0  0  0  0  0  0  0  0
   67.5734   34.5438   50.2122 H   0  0  0  0  0  0  0  0  0  0  0  0
   66.9981   30.9791   51.5740 H   0  0  0  0  0  0  0  0  0  0  0  0
   65.4317   29.3020   52.5472 H   0  0  0  0  0  0  0  0  0  0  0  0
   63.0164   29.3354   51.9305 H   0  0  0  0  0  0  0  0  0  0  0  0
   62.1606   31.0437   50.3287 H   0  0  0  0  0  0  0  0  0  0  0  0
   64.8605   32.8110   47.4332 H   0  0  0  0  0  0  0  0  0  0  0  0
   63.4102   31.7303   47.4033 H   0  0  0  0  0  0  0  0  0  0  0  0
   63.5390   34.7372   46.8992 H   0  0  0  0  0  0  0  0  0  0  0  0
   62.9687   33.4396   45.7937 H   0  0  0  0  0  0  0  0  0  0  0  0
   60.3450   31.7750   46.2130 H   0  0  0  0  0  0  0  0  0  0  0  0
   58.0736   30.5960   46.3529 H   0  0  0  0  0  0  0  0  0  0  0  0
   56.8120   28.7551   45.2411 H   0  0  0  0  0  0  0  0  0  0  0  0
   56.1367   28.9651   42.8480 H   0  0  0  0  0  0  0  0  0  0  0  0
   56.7236   31.0229   41.5612 H   0  0  0  0  0  0  0  0  0  0  0  0
   57.9868   32.8689   42.6601 H   0  0  0  0  0  0  0  0  0  0  0  0
   57.6298   34.6988   44.6122 H   0  0  0  0  0  0  0  0  0  0  0  0
   61.0210   35.1406   48.9586 H   0  0  0  0  0  0  0  0  0  0  0  0
   60.7996   33.3573   49.2018 H   0  0  0  0  0  0  0  0  0  0  0  0
   63.3471   35.0075   49.4347 H   0  0  0  0  0  0  0  0  0  0  0  0
   62.5736   33.9343   50.6561 H   0  0  0  0  0  0  0  0  0  0  0  0
  1  2  1  0
  2  3  1  0
  3  4  2  0
  4  5  1  0
  5  6  2  0
  6  7  1  0
  7  8  2  0
  8  9  1  0
  9 10  1  0
 10 11  1  0
 11 12  1  0
 12 13  1  0
 13 14  2  0
 14 15  1  0
 15 16  1  0
 16 17  2  0
 17 18  1  0
 18 19  2  0
 19 20  1  0
 20 21  2  0
 15 22  2  0
 22 23  1  0
 12 24  1  0
 24 25  1  0
  8  3  1  0
 25  9  1  0
 23 13  1  0
 21 16  1  0
  1 26  1  0
  1 27  1  0
  1 28  1  0
  4 29  1  0
  5 30  1  0
  6 31  1  0
  7 32  1  0
 10 33  1  0
 10 34  1  0
 11 35  1  0
 11 36  1  0
 14 37  1  0
 17 38  1  0
 18 39  1  0
 19 40  1  0
 20 41  1  0
 21 42  1  0
 22 43  1  0
 24 44  1  0
 24 45  1  0
 25 46  1  0
 25 47  1  0
M  CHG  1  14   1
M  END
>  <UniqueID>  (17) 
17

>  <SMILES>  (17) 
COc1ccccc1N1CCN(c2[nH+]c(-c3ccccc3)cs2)CC1

>  <Energy>  (17) 
90.34069063138229

>  <Genealogy>  (17) 
COc1ccccc1N1CCN(c2[nH+]c(-c3ccccc3)cs2)CC1 (protonated)
COc1ccccc1N1CCN(c2[nH+]c(-c3ccccc3)cs2)CC1 (3D coordinates assigned)
COc1ccccc1N1CCN(c2[nH+]c(-c3ccccc3)cs2)CC1 (nonaromatic ring conformer: 90.34069063138229 kcal/mol)

>  <smiles>  (17) 
COc1ccccc1N1CCN(c2nc(-c3ccccc3)cs2)CC1

>  <score_type>  (17) 
oracle

>  <origin>  (17) 
adg

>  <m_score__min__energy>  (17) 
-6.4800000000000004

>  <m_primary>  (17) 
energy

$$$$
17:0
     RDKit          3D

 51 53  0  0  0  0  0  0  0  0999 V2000
   53.7420   24.4700   45.4610 C   0  0  0  0  0  0  0  0  0  0  0  0
   54.5250   23.2120   45.8250 C   0  0  0  0  0  0  0  0  0  0  0  0
   55.9250   23.3430   45.4010 N   0  0  0  0  0  0  0  0  0  0  0  0
   56.3820   23.2960   44.1280 C   0  0  0  0  0  0  0  0  0  0  0  0
   55.5400   23.0070   42.9230 C   0  0  0  0  0  0  0  0  0  0  0  0
   57.7350   23.5730   44.0910 C   0  0  0  0  0  0  0  0  0  0  0  0
   58.1150   23.8330   45.3930 C   0  0  0  0  0  0  0  0  0  0  0  0
   59.4640   24.2700   45.8020 C   0  0  0  0  0  0  0  0  0  0  0  0
   60.3860   23.4160   45.8850 O   0  0  0  0  0  0  0  0  0  0  0  0
   59.7590   25.6390   46.1150 N   0  0  0  0  0  0  0  0  0  0  0  0
   59.0130   26.7800   45.6650 C   0  0  0  0  0  0  0  0  0  0  0  0
   57.6460   26.9290   45.9570 C   0  0  0  0  0  0  0  0  0  0  0  0
   56.9580   28.0720   45.5390 C   0  0  0  0  0  0  0  0  0  0  0  0
   57.6230   29.0700   44.8160 C   0  0  0  0  0  0  0  0  0  0  0  0
   56.7680   30.5360   44.3280 S   0  0  0  0  0  0  0  0  0  0  0  0
   55.2880   30.3220   44.4900 O   0  0  0  0  0  0  0  0  0  0  0  0
   57.0440   30.8060   42.8740 O   0  0  0  0  0  0  0  0  0  0  0  0
   57.2660   31.9190   45.2710 N   0  0  0  0  0  0  0  0  0  0  0  0
   58.2620   31.5250   46.2820 C   0  0  0  0  0  0  0  0  0  0  0  0
   58.8990   32.7690   46.9350 C   0  0  0  0  0  0  0  0  0  0  0  0
   58.1560   33.9350   46.6360 O   0  0  0  0  0  0  0  0  0  0  0  0
   58.2120   34.1960   45.2430 C   0  0  0  0  0  0  0  0  0  0  0  0
   57.8150   32.9660   44.3990 C   0  0  0  0  0  0  0  0  0  0  0  0
   58.9760   28.9030   44.4920 C   0  0  0  0  0  0  0  0  0  0  0  0
   59.6640   27.7590   44.9060 C   0  0  0  0  0  0  0  0  0  0  0  0
   56.9830   23.6610   46.1850 C   0  0  0  0  0  0  0  0  0  0  0  0
   56.9180   23.7990   47.6810 C   0  0  0  0  0  0  0  0  0  0  0  0
   53.4231   24.9823   46.3807 H   0  0  0  0  0  0  0  0  0  0  0  0
   54.3817   25.1419   44.8700 H   0  0  0  0  0  0  0  0  0  0  0  0
   52.8567   24.1927   44.8700 H   0  0  0  0  0  0  0  0  0  0  0  0
   54.4880   23.0640   46.9144 H   0  0  0  0  0  0  0  0  0  0  0  0
   54.0749   22.3492   45.3122 H   0  0  0  0  0  0  0  0  0  0  0  0
   54.5450   22.6655   43.2443 H   0  0  0  0  0  0  0  0  0  0  0  0
   55.4368   23.9212   42.3200 H   0  0  0  0  0  0  0  0  0  0  0  0
   56.0200   22.2222   42.3200 H   0  0  0  0  0  0  0  0  0  0  0  0
   58.3814   23.5842   43.2010 H   0  0  0  0  0  0  0  0  0  0  0  0
   57.1160   26.1438   46.5161 H   0  0  0  0  0  0  0  0  0  0  0  0
   55.8907   28.1878   45.7788 H   0  0  0  0  0  0  0  0  0  0  0  0
   57.7688   30.9222   47.0588 H   0  0  0  0  0  0  0  0  0  0  0  0
   59.0530   30.9404   45.7895 H   0  0  0  0  0  0  0  0  0  0  0  0
   58.9253   32.6291   48.0257 H   0  0  0  0  0  0  0  0  0  0  0  0
   59.9174   32.8908   46.5374 H   0  0  0  0  0  0  0  0  0  0  0  0
   57.5236   35.0217   45.0101 H   0  0  0  0  0  0  0  0  0  0  0  0
   59.2509   34.4552   44.9912 H   0  0  0  0  0  0  0  0  0  0  0  0
   57.0557   33.2604   43.6596 H   0  0  0  0  0  0  0  0  0  0  0  0
   58.7052   32.5779   43.8824 H   0  0  0  0  0  0  0  0  0  0  0  0
   59.4989   29.6756   43.9093 H   0  0  0  0  0  0  0  0  0  0  0  0
   60.7217   27.6276   44.6340 H   0  0  0  0  0  0  0  0  0  0  0  0
   57.3418   22.8993   48.1510 H   0  0  0  0  0  0  0  0  0  0  0  0
   57.4948   24.6821   47.9932 H   0  0  0  0  0  0  0  0  0  0  0  0
   55.8698   23.9166   47.9932 H   0  0  0  0  0  0  0  0  0  0  0  0
  1  2  1  0
  2  3  1  0
  3  4  1  0
  4  5  1  0
  4  6  2  0
  6  7  1  0
  7  8  1  0
  8  9  2  0
  8 10  1  0
 10 11  1  0
 11 12  2  0
 12 13  1  0
 13 14  2  0
 14 15  1  0
 15 16  2  0
 15 17  2  0
 15 18  1  0
 18 19  1  0
 19 20  1  0
 20 21  1  0
 21 22  1  0
 22 23  1  0
 14 24  1  0
 24 25  2  0
  7 26  2  0
 26 27  1  0
 26  3  1  0
 25 11  1  0
 23 18  1  0
  1 28  1  0
  1 29  1  0
  1 30  1  0
  2 31  1  0
  2 32  1  0
  5 33  1  0
  5 34  1  0
  5 35  1  0
  6 36  1  0
 12 37  1  0
 13 38  1  0
 19 39  1  0
 19 40  1  0
 20 41  1  0
 20 42  1  0
 22 43  1  0
 22 44  1  0
 23 45  1  0
 23 46  1  0
 24 47  1  0
 25 48  1  0
 27 49  1  0
 27 50  1  0
 27 51  1  0
M  CHG  1  10  -1
M  END
>  <UniqueID>  (18) 
18

>  <SMILES>  (18) 
CCn1c(C)cc(C(=O)[N-]c2ccc(S(=O)(=O)N3CCOCC3)cc2)c1C

>  <Energy>  (18) 
84.89072199389588

>  <Genealogy>  (18) 
CCn1c(C)cc(C(=O)[N-]c2ccc(S(=O)(=O)N3CCOCC3)cc2)c1C (protonated)
CCn1c(C)cc(C(=O)[N-]c2ccc(S(=O)(=O)N3CCOCC3)cc2)c1C (3D coordinates assigned)
CCn1c(C)cc(C(=O)[N-]c2ccc(S(=O)(=O)N3CCOCC3)cc2)c1C (nonaromatic ring conformer: 84.89072199389588 kcal/mol)

>  <smiles>  (18) 
CCn1c(C)cc(C(=O)Nc2ccc(S(=O)(=O)N3CCOCC3)cc2)c1C

>  <score_type>  (18) 
oracle

>  <origin>  (18) 
adg

>  <m_score__min__energy>  (18) 
-10.18

>  <m_primary>  (18) 
energy

$$$$
18:0
     RDKit          3D

 32 33  0  0  1  0  0  0  0  0999 V2000
   56.2550   24.4280   46.9370 C   0  0  0  0  0  0  0  0  0  0  0  0
   55.8310   25.6400   46.3630 O   0  0  0  0  0  0  0  0  0  0  0  0
   56.7350   26.6390   46.0320 C   0  0  0  0  0  0  0  0  0  0  0  0
   58.0900   26.5160   46.1140 C   0  0  0  0  0  0  0  0  0  0  0  0
   58.8690   27.6130   45.7450 C   0  0  0  0  0  0  0  0  0  0  0  0
   60.3610   27.5070   45.8250 C   0  0  0  0  0  0  0  0  0  0  0  0
   58.3220   28.7660   45.3150 N   0  0  0  0  0  0  0  0  0  0  0  0
   56.9930   28.8330   45.2540 C   0  0  0  0  0  0  0  0  0  0  0  0
   56.4290   29.9100   44.8520 N   0  0  0  0  0  0  0  0  0  0  0  0
   57.1270   31.1060   44.5250 C   0  0  0  0  0  0  0  0  0  0  0  0
   57.4790   31.4500   43.2370 C   0  0  0  0  0  0  0  0  0  0  0  0
   58.1520   32.6340   43.0440 C   0  0  0  0  0  0  0  0  0  0  0  0
   58.4870   33.4890   44.0880 C   0  0  0  0  0  0  0  0  0  0  0  0
   58.1290   33.1360   45.3790 C   0  0  0  0  0  0  0  0  0  0  0  0
   58.4560   34.0060   46.5560 C   0  0  0  0  0  0  0  0  0  0  0  0
   57.4650   31.9640   45.5530 C   0  0  0  0  0  0  0  0  0  0  0  0
   56.2000   27.8070   45.5980 N   0  0  0  0  0  0  0  0  0  0  0  0
   56.2258   24.5115   48.0334 H   0  0  0  0  0  0  0  0  0  0  0  0
   55.5877   23.6157   46.6132 H   0  0  0  0  0  0  0  0  0  0  0  0
   57.2832   24.2089   46.6132 H   0  0  0  0  0  0  0  0  0  0  0  0
   58.5548   25.5811   46.4603 H   0  0  0  0  0  0  0  0  0  0  0  0
   60.6710   27.4850   46.8802 H   0  0  0  0  0  0  0  0  0  0  0  0
   60.6902   26.5832   45.3268 H   0  0  0  0  0  0  0  0  0  0  0  0
   60.8175   28.3750   45.3268 H   0  0  0  0  0  0  0  0  0  0  0  0
   57.2288   30.7964   42.3883 H   0  0  0  0  0  0  0  0  0  0  0  0
   58.4374   32.9165   42.0199 H   0  0  0  0  0  0  0  0  0  0  0  0
   59.0260   34.4278   43.8927 H   0  0  0  0  0  0  0  0  0  0  0  0
   58.2496   33.4568   47.4865 H   0  0  0  0  0  0  0  0  0  0  0  0
   59.5199   34.2837   46.5224 H   0  0  0  0  0  0  0  0  0  0  0  0
   57.8384   34.9156   46.5224 H   0  0  0  0  0  0  0  0  0  0  0  0
   57.1786   31.6806   46.5765 H   0  0  0  0  0  0  0  0  0  0  0  0
   55.1480   27.9190   45.5280 H   0  0  0  0  0  0  0  0  0  0  0  0
  1  2  1  0
  2  3  1  0
  3  4  2  0
  4  5  1  0
  5  6  1  0
  5  7  2  0
  7  8  1  0
  8  9  2  0
  9 10  1  0
 10 11  2  0
 11 12  1  0
 12 13  2  0
 13 14  1  0
 14 15  1  0
 14 16  2  0
  8 17  1  0
 17  3  1  0
 16 10  1  0
  1 18  1  0
  1 19  1  0
  1 20  1  0
  4 21  1  0
  6 22  1  0
  6 23  1  0
  6 24  1  0
 11 25  1  0
 12 26  1  0
 13 27  1  0
 15 28  1  0
 15 29  1  0
 15 30  1  0
 16 31  1  0
 17 32  1  0
M  END
>  <smiles>  (19) 
COc1cc(C)nc(=Nc2cccc(C)c2)[nH]1

>  <score_type>  (19) 
oracle

>  <origin>  (19) 
adg

>  <m_score__min__energy>  (19) 
-7.29

>  <m_primary>  (19) 
energy

$$$$
19:0
     RDKit          3D

 30 33  0  0  0  0  0  0  0  0999 V2000
   60.0050   24.7160   46.0630 O   0  0  0  0  0  0  0  0  0  0  0  0
   59.1210   25.5980   45.8930 C   0  0  0  0  0  0  0  0  0  0  0  0
   57.6700   25.2660   45.9260 C   0  0  0  0  0  0  0  0  0  0  0  0
   57.2280   23.9510   46.1260 C   0  0  0  0  0  0  0  0  0  0  0  0
   55.8610   23.6700   46.1590 C   0  0  0  0  0  0  0  0  0  0  0  0
   54.9420   24.7080   45.9940 C   0  0  0  0  0  0  0  0  0  0  0  0
   55.3760   25.9810   45.8000 N   0  0  0  0  0  0  0  0  0  0  0  0
   56.7010   26.2920   45.7600 C   0  0  0  0  0  0  0  0  0  0  0  0
   57.1220   27.6990   45.5510 C   0  0  0  0  0  0  0  0  0  0  0  0
   56.2700   28.6230   45.4850 O   0  0  0  0  0  0  0  0  0  0  0  0
   58.5680   27.9750   45.4650 C   0  0  0  0  0  0  0  0  0  0  0  0
   59.4970   26.9950   45.6590 C   0  0  0  0  0  0  0  0  0  0  0  0
   60.7400   27.5100   45.6400 N   0  0  0  0  0  0  0  0  0  0  0  0
   60.5260   28.8320   45.4260 C   0  0  0  0  0  0  0  0  0  0  0  0
   59.2150   29.1460   45.3110 N   0  0  0  0  0  0  0  0  0  0  0  0
   58.6780   30.4520   45.0470 C   0  0  0  0  0  0  0  0  0  0  0  0
   57.9000   30.6850   43.9020 C   0  0  0  0  0  0  0  0  0  0  0  0
   57.4020   31.9640   43.6360 C   0  0  0  0  0  0  0  0  0  0  0  0
   57.6890   33.0210   44.5050 C   0  0  0  0  0  0  0  0  0  0  0  0
   58.4780   32.8020   45.6370 C   0  0  0  0  0  0  0  0  0  0  0  0
   58.8790   34.2490   46.8180 Br  0  0  0  0  0  0  0  0  0  0  0  0
   58.9780   31.5220   45.9050 C   0  0  0  0  0  0  0  0  0  0  0  0
   57.9590   23.1396   46.2571 H   0  0  0  0  0  0  0  0  0  0  0  0
   55.5106   22.6388   46.3138 H   0  0  0  0  0  0  0  0  0  0  0  0
   53.8632   24.4947   46.0211 H   0  0  0  0  0  0  0  0  0  0  0  0
   61.3355   29.5732   45.3533 H   0  0  0  0  0  0  0  0  0  0  0  0
   57.6812   29.8576   43.2110 H   0  0  0  0  0  0  0  0  0  0  0  0
   56.7842   32.1388   42.7428 H   0  0  0  0  0  0  0  0  0  0  0  0
   57.2932   34.0261   44.2972 H   0  0  0  0  0  0  0  0  0  0  0  0
   59.6081   31.3541   46.7909 H   0  0  0  0  0  0  0  0  0  0  0  0
  1  2  2  0
  2  3  1  0
  3  4  2  0
  4  5  1  0
  5  6  2  0
  6  7  1  0
  7  8  2  0
  8  9  1  0
  9 10  2  0
  9 11  1  0
 11 12  2  0
 12 13  1  0
 13 14  2  0
 14 15  1  0
 15 16  1  0
 16 17  2  0
 17 18  1  0
 18 19  2  0
 19 20  1  0
 20 21  1  0
 20 22  2  0
 12  2  1  0
 22 16  1  0
  8  3  1  0
 15 11  1  0
  4 23  1  0
  5 24  1  0
  6 25  1  0
 14 26  1  0
 17 27  1  0
 18 28  1  0
 19 29  1  0
 22 30  1  0
M  END
>  <UniqueID>  (20) 
19

>  <SMILES>  (20) 
O=C1c2cccnc2C(=O)c2c1ncn2-c1cccc(Br)c1

>  <Energy>  (20) 
77.47028192868567

>  <Genealogy>  (20) 
O=C1c2cccnc2C(=O)c2c1ncn2-c1cccc(Br)c1 (3D coordinates assigned)
O=C1c2cccnc2C(=O)c2c1ncn2-c1cccc(Br)c1 (nonaromatic ring conformer: 77.47028192868567 kcal/mol)

>  <smiles>  (20) 
O=C1c2cccnc2C(=O)c2c1ncn2-c1cccc(Br)c1

>  <score_type>  (20) 
oracle

>  <origin>  (20) 
adg

>  <m_score__min__energy>  (20) 
-7.7800000000000002

>  <m_primary>  (20) 
energy

$$$$
20:0
     RDKit          3D

 25 26  0  0  0  0  0  0  0  0999 V2000
   55.4220   26.3510   46.0220 O   0  0  0  0  0  0  0  0  0  0  0  0
   56.2890   27.1740   45.6220 C   0  0  0  0  0  0  0  0  0  0  0  0
   55.9080   28.4980   45.2430 N   0  0  0  0  0  0  0  0  0  0  0  0
   56.6390   29.3280   43.9120 S   0  0  0  0  0  0  0  0  0  0  0  0
   57.6470   28.4250   43.2550 O   0  0  0  0  0  0  0  0  0  0  0  0
   55.5820   29.6820   42.9050 O   0  0  0  0  0  0  0  0  0  0  0  0
   57.4040   30.8060   44.4860 C   0  0  0  0  0  0  0  0  0  0  0  0
   57.9600   30.8450   45.7730 C   0  0  0  0  0  0  0  0  0  0  0  0
   58.5820   32.0080   46.2350 C   0  0  0  0  0  0  0  0  0  0  0  0
   58.6540   33.1390   45.4140 C   0  0  0  0  0  0  0  0  0  0  0  0
   59.4350   34.5980   45.9950 Cl  0  0  0  0  0  0  0  0  0  0  0  0
   58.1040   33.1030   44.1280 C   0  0  0  0  0  0  0  0  0  0  0  0
   57.4820   31.9400   43.6630 C   0  0  0  0  0  0  0  0  0  0  0  0
   57.7150   26.7430   45.4880 C   0  0  1  0  0  0  0  0  0  0  0  0
   58.6790   27.4260   46.4580 C   0  0  0  0  0  0  0  0  0  0  0  0
   58.2800   25.9800   46.6770 C   0  0  0  0  0  0  0  0  0  0  0  0
   57.4480   25.7640   47.7620 F   0  0  0  0  0  0  0  0  0  0  0  0
   59.2660   25.0530   46.3920 F   0  0  0  0  0  0  0  0  0  0  0  0
   57.9063   29.9575   46.4207 H   0  0  0  0  0  0  0  0  0  0  0  0
   59.0157   32.0345   47.2456 H   0  0  0  0  0  0  0  0  0  0  0  0
   58.1610   33.9911   43.4815 H   0  0  0  0  0  0  0  0  0  0  0  0
   57.0531   31.9140   42.6504 H   0  0  0  0  0  0  0  0  0  0  0  0
   57.6799   26.5745   44.4015 H   0  0  0  0  0  0  0  0  0  0  0  0
   59.7016   27.6717   46.1356 H   0  0  0  0  0  0  0  0  0  0  0  0
   58.6512   28.3416   47.0671 H   0  0  0  0  0  0  0  0  0  0  0  0
  1  2  2  0
  2  3  1  0
  3  4  1  0
  4  5  2  0
  4  6  2  0
  4  7  1  0
  7  8  2  0
  8  9  1  0
  9 10  2  0
 10 11  1  0
 10 12  1  0
 12 13  2  0
  2 14  1  0
 14 15  1  0
 15 16  1  0
 16 17  1  0
 16 18  1  0
 13  7  1  0
 16 14  1  0
  8 19  1  0
  9 20  1  0
 12 21  1  0
 13 22  1  0
 14 23  1  6
 15 24  1  0
 15 25  1  0
M  CHG  1   3  -1
M  END
>  <UniqueID>  (21) 
20

>  <SMILES>  (21) 
O=C([N-]S(=O)(=O)c1ccc(Cl)cc1)[C@H]1CC1(F)F

>  <Energy>  (21) 
294.6406630092055

>  <Genealogy>  (21) 
O=C([N-]S(=O)(=O)c1ccc(Cl)cc1)C1CC1(F)F (protonated)
O=C([N-]S(=O)(=O)c1ccc(Cl)cc1)[C@H]1CC1(F)F (chirality)
O=C([N-]S(=O)(=O)c1ccc(Cl)cc1)[C@H]1CC1(F)F (3D coordinates assigned)
O=C([N-]S(=O)(=O)c1ccc(Cl)cc1)[C@H]1CC1(F)F (nonaromatic ring conformer: 294.6406630092055 kcal/mol)

>  <smiles>  (21) 
O=C(NS(=O)(=O)c1ccc(Cl)cc1)C1CC1(F)F

>  <score_type>  (21) 
oracle

>  <origin>  (21) 
adg

>  <m_score__min__energy>  (21) 
-8.8100000000000005

>  <m_primary>  (21) 
energy

$$$$
21:0
     RDKit          3D

 51 54  0  0  0  0  0  0  0  0999 V2000
   62.9810   33.2670   47.1550 C   0  0  0  0  0  0  0  0  0  0  0  0
   61.5270   33.4210   47.3460 N   0  0  0  0  0  0  0  0  0  0  0  0
   61.2740   34.1910   48.5750 C   0  0  0  0  0  0  0  0  0  0  0  0
   60.8980   34.0900   46.1840 C   0  0  0  0  0  0  0  0  0  0  0  0
   59.6390   34.8770   46.5910 C   0  0  0  0  0  0  0  0  0  0  0  0
   58.3280   34.1540   46.2330 C   0  0  0  0  0  0  0  0  0  0  0  0
   58.5080   32.6970   46.1500 N   0  0  0  0  0  0  0  0  0  0  0  0
   58.4800   32.0330   44.8380 C   0  0  0  0  0  0  0  0  0  0  0  0
   57.6620   30.7820   44.9080 C   0  0  0  0  0  0  0  0  0  0  0  0
   58.1260   29.5040   45.1170 C   0  0  0  0  0  0  0  0  0  0  0  0
   57.0440   28.7000   45.0870 N   0  0  0  0  0  0  0  0  0  0  0  0
   56.9960   27.2680   45.2560 C   0  0  0  0  0  0  0  0  0  0  0  0
   57.8450   26.4100   44.5310 C   0  0  0  0  0  0  0  0  0  0  0  0
   57.7730   25.0280   44.7200 C   0  0  0  0  0  0  0  0  0  0  0  0
   56.8550   24.5080   45.6310 C   0  0  0  0  0  0  0  0  0  0  0  0
   56.0410   25.3430   46.3280 N   0  0  0  0  0  0  0  0  0  0  0  0
   56.0910   26.6920   46.1650 C   0  0  0  0  0  0  0  0  0  0  0  0
   55.9800   29.4590   44.8620 N   0  0  0  0  0  0  0  0  0  0  0  0
   56.3260   30.7330   44.7470 N   0  0  0  0  0  0  0  0  0  0  0  0
   58.7820   31.9150   47.3310 C   0  0  0  0  0  0  0  0  0  0  0  0
   59.4770   30.7500   47.2970 N   0  0  0  0  0  0  0  0  0  0  0  0
   59.6080   30.2240   48.5410 C   0  0  0  0  0  0  0  0  0  0  0  0
   60.2710   29.0290   48.8250 C   0  0  0  0  0  0  0  0  0  0  0  0
   60.3370   28.5920   50.1610 C   0  0  0  0  0  0  0  0  0  0  0  0
   61.1610   27.0950   50.5500 Cl  0  0  0  0  0  0  0  0  0  0  0  0
   59.7430   29.3550   51.1890 C   0  0  0  0  0  0  0  0  0  0  0  0
   59.0800   30.5560   50.8900 C   0  0  0  0  0  0  0  0  0  0  0  0
   59.0300   30.9630   49.5590 C   0  0  0  0  0  0  0  0  0  0  0  0
   58.3170   32.3350   48.9100 S   0  0  0  0  0  0  0  0  0  0  0  0
   63.4761   33.2146   48.1359 H   0  0  0  0  0  0  0  0  0  0  0  0
   63.1812   32.3426   46.5933 H   0  0  0  0  0  0  0  0  0  0  0  0
   63.3704   34.1289   46.5933 H   0  0  0  0  0  0  0  0  0  0  0  0
   61.4812   33.5603   49.4521 H   0  0  0  0  0  0  0  0  0  0  0  0
   61.9291   35.0744   48.5956 H   0  0  0  0  0  0  0  0  0  0  0  0
   60.2226   34.5137   48.5956 H   0  0  0  0  0  0  0  0  0  0  0  0
   61.6239   34.7854   45.7374 H   0  0  0  0  0  0  0  0  0  0  0  0
   60.5989   33.3147   45.4633 H   0  0  0  0  0  0  0  0  0  0  0  0
   59.6637   35.0372   47.6790 H   0  0  0  0  0  0  0  0  0  0  0  0
   59.6519   35.8246   46.0326 H   0  0  0  0  0  0  0  0  0  0  0  0
   57.5775   34.3758   47.0060 H   0  0  0  0  0  0  0  0  0  0  0  0
   58.0004   34.5129   45.2462 H   0  0  0  0  0  0  0  0  0  0  0  0
   58.0388   32.7143   44.0956 H   0  0  0  0  0  0  0  0  0  0  0  0
   59.5081   31.7731   44.5458 H   0  0  0  0  0  0  0  0  0  0  0  0
   59.1707   29.1990   45.2767 H   0  0  0  0  0  0  0  0  0  0  0  0
   58.5665   26.8290   43.8142 H   0  0  0  0  0  0  0  0  0  0  0  0
   58.4351   24.3556   44.1547 H   0  0  0  0  0  0  0  0  0  0  0  0
   56.7896   23.4209   45.7856 H   0  0  0  0  0  0  0  0  0  0  0  0
   55.4183   27.3376   46.7487 H   0  0  0  0  0  0  0  0  0  0  0  0
   60.7333   28.4397   48.0194 H   0  0  0  0  0  0  0  0  0  0  0  0
   59.7998   29.0067   52.2308 H   0  0  0  0  0  0  0  0  0  0  0  0
   58.6137   31.1579   51.6839 H   0  0  0  0  0  0  0  0  0  0  0  0
  1  2  1  0
  2  3  1  0
  2  4  1  0
  4  5  1  0
  5  6  1  0
  6  7  1  0
  7  8  1  0
  8  9  1  0
  9 10  2  0
 10 11  1  0
 11 12  1  0
 12 13  2  0
 13 14  1  0
 14 15  2  0
 15 16  1  0
 16 17  2  0
 11 18  1  0
 18 19  2  0
  7 20  1  0
 20 21  2  0
 21 22  1  0
 22 23  2  0
 23 24  1  0
 24 25  1  0
 24 26  2  0
 26 27  1  0
 27 28  2  0
 28 29  1  0
 19  9  1  0
 29 20  1  0
 17 12  1  0
 28 22  1  0
  1 30  1  0
  1 31  1  0
  1 32  1  0
  3 33  1  0
  3 34  1  0
  3 35  1  0
  4 36  1  0
  4 37  1  0
  5 38  1  0
  5 39  1  0
  6 40  1  0
  6 41  1  0
  8 42  1  0
  8 43  1  0
 10 44  1  0
 13 45  1  0
 14 46  1  0
 15 47  1  0
 17 48  1  0
 23 49  1  0
 26 50  1  0
 27 51  1  0
M  END
>  <UniqueID>  (22) 
21

>  <SMILES>  (22) 
CN(C)CCCN(Cc1cn(-c2cccnc2)nn1)c1nc2cc(Cl)ccc2s1

>  <Energy>  (22) 
120.05923101275408

>  <Genealogy>  (22) 
CN(C)CCCN(Cc1cn(-c2cccnc2)nn1)c1nc2cc(Cl)ccc2s1 (3D coordinates assigned)
CN(C)CCCN(Cc1cn(-c2cccnc2)nn1)c1nc2cc(Cl)ccc2s1 (optimized conformer: 120.05923101275408 kcal/mol)

>  <smiles>  (22) 
CN(C)CCCN(Cc1cn(-c2cccnc2)nn1)c1nc2cc(Cl)ccc2s1

>  <score_type>  (22) 
oracle

>  <origin>  (22) 
adg

>  <m_score__min__energy>  (22) 
-8.2400000000000002

>  <m_primary>  (22) 
energy

$$$$
22:0
     RDKit          3D

 42 46  0  0  1  0  0  0  0  0999 V2000
   57.2000   30.6300   45.2800 N   0  0  0  0  0  0  0  0  0  0  0  0
   57.7600   31.7720   45.4760 C   0  0  0  0  0  0  0  0  0  0  0  0
   57.1070   32.8790   45.0800 N   0  0  0  0  0  0  0  0  0  0  0  0
   57.6610   34.0950   45.2860 C   0  0  0  0  0  0  0  0  0  0  0  0
   58.8750   34.2330   45.8860 N   0  0  0  0  0  0  0  0  0  0  0  0
   59.5120   33.1230   46.2730 C   0  0  0  0  0  0  0  0  0  0  0  0
   58.9800   31.8690   46.0820 C   0  0  0  0  0  0  0  0  0  0  0  0
   59.8370   30.9180   46.5760 C   0  0  0  0  0  0  0  0  0  0  0  0
   59.7460   29.4750   46.6330 C   0  0  0  0  0  0  0  0  0  0  0  0
   59.7100   28.8450   47.8820 C   0  0  0  0  0  0  0  0  0  0  0  0
   59.6450   27.4730   48.0050 C   0  0  0  0  0  0  0  0  0  0  0  0
   59.6120   26.6600   46.8940 C   0  0  0  0  0  0  0  0  0  0  0  0
   59.6470   27.2550   45.6530 C   0  0  0  0  0  0  0  0  0  0  0  0
   59.7130   28.6420   45.5420 C   0  0  0  0  0  0  0  0  0  0  0  0
   60.8890   31.6160   47.0680 N   0  0  0  0  0  0  0  0  0  0  0  0
   60.6970   32.9100   46.8900 N   0  0  0  0  0  0  0  0  0  0  0  0
   61.6560   33.9250   47.3140 C   0  0  2  0  0  0  0  0  0  0  0  0
   62.9000   33.8280   46.4260 C   0  0  0  0  0  0  0  0  0  0  0  0
   63.5550   32.5890   47.0010 C   0  0  0  0  0  0  0  0  0  0  0  0
   63.3510   32.8150   48.4750 C   0  0  0  0  0  0  0  0  0  0  0  0
   64.0380   32.4020   49.5990 C   0  0  0  0  0  0  0  0  0  0  0  0
   65.1580   31.6180   49.4710 F   0  0  0  0  0  0  0  0  0  0  0  0
   63.6580   32.7390   50.8810 C   0  0  0  0  0  0  0  0  0  0  0  0
   62.5270   33.5320   51.0110 C   0  0  0  0  0  0  0  0  0  0  0  0
   62.1360   33.8770   52.2780 F   0  0  0  0  0  0  0  0  0  0  0  0
   61.8050   33.9710   49.9150 C   0  0  0  0  0  0  0  0  0  0  0  0
   62.2140   33.6140   48.6400 C   0  0  0  0  0  0  0  0  0  0  0  0
   56.6320   30.1640   46.0100 H   0  0  0  0  0  0  0  0  0  0  0  0
   56.1740   32.7670   44.6190 H   0  0  0  0  0  0  0  0  0  0  0  0
   57.1176   34.9945   44.9609 H   0  0  0  0  0  0  0  0  0  0  0  0
   59.7343   29.4622   48.7922 H   0  0  0  0  0  0  0  0  0  0  0  0
   59.6191   27.0205   49.0073 H   0  0  0  0  0  0  0  0  0  0  0  0
   59.5592   25.5659   46.9953 H   0  0  0  0  0  0  0  0  0  0  0  0
   59.6228   26.6330   44.7460 H   0  0  0  0  0  0  0  0  0  0  0  0
   59.7398   29.0891   44.5373 H   0  0  0  0  0  0  0  0  0  0  0  0
   61.1256   34.8882   47.2837 H   0  0  0  0  0  0  0  0  0  0  0  0
   62.6335   33.6922   45.3674 H   0  0  0  0  0  0  0  0  0  0  0  0
   63.5359   34.7255   46.4290 H   0  0  0  0  0  0  0  0  0  0  0  0
   63.0535   31.6714   46.6597 H   0  0  0  0  0  0  0  0  0  0  0  0
   64.6052   32.4517   46.7041 H   0  0  0  0  0  0  0  0  0  0  0  0
   64.2247   32.3954   51.7590 H   0  0  0  0  0  0  0  0  0  0  0  0
   60.9127   34.5989   50.0549 H   0  0  0  0  0  0  0  0  0  0  0  0
  1  2  2  3
  2  3  1  0
  3  4  1  0
  4  5  2  0
  5  6  1  0
  6  7  2  0
  7  8  1  0
  8  9  1  0
  9 10  2  0
 10 11  1  0
 11 12  2  0
 12 13  1  0
 13 14  2  0
  8 15  2  0
 15 16  1  0
 16 17  1  0
 17 18  1  0
 18 19  1  0
 19 20  1  0
 20 21  2  0
 21 22  1  0
 21 23  1  0
 23 24  2  0
 24 25  1  0
 24 26  1  0
 26 27  2  0
  7  2  1  0
 14  9  1  0
 27 17  1  0
 16  6  1  0
 27 20  1  0
  1 28  1  0
  3 29  1  0
  4 30  1  0
 10 31  1  0
 11 32  1  0
 12 33  1  0
 13 34  1  0
 14 35  1  0
 17 36  1  1
 18 37  1  0
 18 38  1  0
 19 39  1  0
 19 40  1  0
 23 41  1  0
 26 42  1  0
M  END
>  <smiles>  (23) 
N=c1[nH]cnc2c1c(-c1ccccc1)nn2C1CCc2c(F)cc(F)cc21

>  <score_type>  (23) 
oracle

>  <origin>  (23) 
adg

>  <m_score__min__energy>  (23) 
-8.0399999999999991

>  <m_primary>  (23) 
energy

$$$$
23:0
     RDKit          3D

 53 55  0  0  0  0  0  0  0  0999 V2000
   55.5880   25.7120   45.9810 C   0  0  0  0  0  0  0  0  0  0  0  0
   56.1560   27.0180   45.9020 O   0  0  0  0  0  0  0  0  0  0  0  0
   57.5340   27.2850   45.8250 C   0  0  0  0  0  0  0  0  0  0  0  0
   58.4410   26.7950   46.7870 C   0  0  0  0  0  0  0  0  0  0  0  0
   59.8060   27.0810   46.6820 C   0  0  0  0  0  0  0  0  0  0  0  0
   60.2810   27.8440   45.6140 C   0  0  0  0  0  0  0  0  0  0  0  0
   59.3940   28.3310   44.6510 C   0  0  0  0  0  0  0  0  0  0  0  0
   58.0170   28.0690   44.7540 C   0  0  0  0  0  0  0  0  0  0  0  0
   57.0710   28.6060   43.7110 C   0  0  0  0  0  0  0  0  0  0  0  0
   57.4580   29.9610   43.3250 N   0  0  0  0  0  0  0  0  0  0  0  0
   57.4870   31.0460   44.2620 C   0  0  0  0  0  0  0  0  0  0  0  0
   57.0570   30.8780   45.4360 O   0  0  0  0  0  0  0  0  0  0  0  0
   58.0230   32.3830   43.8290 C   0  0  0  0  0  0  0  0  0  0  0  0
   58.5240   33.1690   44.9780 N   0  0  0  0  0  0  0  0  0  0  0  0
   59.3300   34.3150   44.5100 C   0  0  0  0  0  0  0  0  0  0  0  0
   59.6520   35.3120   45.6490 C   0  0  0  0  0  0  0  0  0  0  0  0
   59.3270   34.7940   46.9950 N   0  0  0  0  0  0  0  0  0  0  0  0
   60.4200   34.0690   47.6810 C   0  0  0  0  0  0  0  0  0  0  0  0
   60.0540   32.6600   48.0930 C   0  0  0  0  0  0  0  0  0  0  0  0
   59.4390   32.4190   49.3350 C   0  0  0  0  0  0  0  0  0  0  0  0
   59.1180   31.1140   49.7200 C   0  0  0  0  0  0  0  0  0  0  0  0
   59.3960   30.0410   48.8690 C   0  0  0  0  0  0  0  0  0  0  0  0
   60.0230   30.2680   47.6400 C   0  0  0  0  0  0  0  0  0  0  0  0
   60.3610   31.5710   47.2570 C   0  0  0  0  0  0  0  0  0  0  0  0
   57.9770   34.2020   47.1380 C   0  0  0  0  0  0  0  0  0  0  0  0
   57.4170   33.6610   45.8140 C   0  0  0  0  0  0  0  0  0  0  0  0
   55.4649   25.4289   47.0368 H   0  0  0  0  0  0  0  0  0  0  0  0
   54.6069   25.7081   45.4836 H   0  0  0  0  0  0  0  0  0  0  0  0
   56.2542   24.9917   45.4836 H   0  0  0  0  0  0  0  0  0  0  0  0
   58.0730   26.1844   47.6247 H   0  0  0  0  0  0  0  0  0  0  0  0
   60.5062   26.7042   47.4421 H   0  0  0  0  0  0  0  0  0  0  0  0
   61.3559   28.0622   45.5305 H   0  0  0  0  0  0  0  0  0  0  0  0
   59.7758   28.9235   43.8065 H   0  0  0  0  0  0  0  0  0  0  0  0
   57.0995   27.9543   42.8253 H   0  0  0  0  0  0  0  0  0  0  0  0
   56.0537   28.6297   44.1288 H   0  0  0  0  0  0  0  0  0  0  0  0
   57.7480   30.1360   42.3370 H   0  0  0  0  0  0  0  0  0  0  0  0
   58.8480   32.2236   43.1191 H   0  0  0  0  0  0  0  0  0  0  0  0
   57.2028   32.9459   43.3595 H   0  0  0  0  0  0  0  0  0  0  0  0
   60.2752   33.9361   44.0941 H   0  0  0  0  0  0  0  0  0  0  0  0
   58.7425   34.8511   43.7502 H   0  0  0  0  0  0  0  0  0  0  0  0
   60.7267   35.5440   45.6153 H   0  0  0  0  0  0  0  0  0  0  0  0
   59.0278   36.2029   45.4855 H   0  0  0  0  0  0  0  0  0  0  0  0
   61.2829   34.0183   47.0007 H   0  0  0  0  0  0  0  0  0  0  0  0
   60.6432   34.6247   48.6037 H   0  0  0  0  0  0  0  0  0  0  0  0
   59.2099   33.2603   50.0056 H   0  0  0  0  0  0  0  0  0  0  0  0
   58.6450   30.9311   50.6961 H   0  0  0  0  0  0  0  0  0  0  0  0
   59.1216   29.0180   49.1659 H   0  0  0  0  0  0  0  0  0  0  0  0
   60.2506   29.4225   46.9742 H   0  0  0  0  0  0  0  0  0  0  0  0
   60.8694   31.7445   46.2971 H   0  0  0  0  0  0  0  0  0  0  0  0
   58.0318   33.3740   47.8601 H   0  0  0  0  0  0  0  0  0  0  0  0
   57.3016   35.0001   47.4799 H   0  0  0  0  0  0  0  0  0  0  0  0
   56.7190   32.8363   46.0207 H   0  0  0  0  0  0  0  0  0  0  0  0
   56.8867   34.4658   45.2839 H   0  0  0  0  0  0  0  0  0  0  0  0
  1  2  1  0
  2  3  1  0
  3  4  2  0
  4  5  1  0
  5  6  2  0
  6  7  1  0
  7  8  2  0
  8  9  1  0
  9 10  1  0
 10 11  1  0
 11 12  2  0
 11 13  1  0
 13 14  1  0
 14 15  1  0
 15 16  1  0
 16 17  1  0
 17 18  1  0
 18 19  1  0
 19 20  2  0
 20 21  1  0
 21 22  2  0
 22 23  1  0
 23 24  2  0
 17 25  1  0
 25 26  1  0
  8  3  1  0
 26 14  1  0
 24 19  1  0
  1 27  1  0
  1 28  1  0
  1 29  1  0
  4 30  1  0
  5 31  1  0
  6 32  1  0
  7 33  1  0
  9 34  1  0
  9 35  1  0
 10 36  1  0
 13 37  1  0
 13 38  1  0
 15 39  1  0
 15 40  1  0
 16 41  1  0
 16 42  1  0
 18 43  1  0
 18 44  1  0
 20 45  1  0
 21 46  1  0
 22 47  1  0
 23 48  1  0
 24 49  1  0
 25 50  1  0
 25 51  1  0
 26 52  1  0
 26 53  1  0
M  END
>  <UniqueID>  (24) 
22

>  <SMILES>  (24) 
COc1ccccc1CNC(=O)CN1CCN(Cc2ccccc2)CC1

>  <Energy>  (24) 
62.52034842265303

>  <Genealogy>  (24) 
COc1ccccc1CNC(=O)CN1CCN(Cc2ccccc2)CC1 (3D coordinates assigned)
COc1ccccc1CNC(=O)CN1CCN(Cc2ccccc2)CC1 (nonaromatic ring conformer: 62.52034842265303 kcal/mol)

>  <smiles>  (24) 
COc1ccccc1CNC(=O)CN1CCN(Cc2ccccc2)CC1

>  <score_type>  (24) 
oracle

>  <origin>  (24) 
adg

>  <m_score__min__energy>  (24) 
-8.9199999999999999

>  <m_primary>  (24) 
energy

$$$$
24:0
     RDKit          3D

 33 34  0  0  0  0  0  0  0  0999 V2000
   54.5570   25.1160   45.6170 C   0  0  0  0  0  0  0  0  0  0  0  0
   55.1100   26.3900   45.9330 O   0  0  0  0  0  0  0  0  0  0  0  0
   56.4840   26.6700   45.9800 C   0  0  0  0  0  0  0  0  0  0  0  0
   57.4290   25.7090   46.3920 C   0  0  0  0  0  0  0  0  0  0  0  0
   58.7880   26.0290   46.4320 C   0  0  0  0  0  0  0  0  0  0  0  0
   59.2180   27.3010   46.0560 C   0  0  0  0  0  0  0  0  0  0  0  0
   58.2920   28.2600   45.6420 C   0  0  0  0  0  0  0  0  0  0  0  0
   56.9150   27.9570   45.6140 C   0  0  0  0  0  0  0  0  0  0  0  0
   55.9400   28.8950   45.2300 O   0  0  0  0  0  0  0  0  0  0  0  0
   55.9480   29.6830   44.0370 C   0  0  0  0  0  0  0  0  0  0  0  0
   57.3480   30.2400   43.7460 C   0  0  0  0  0  0  0  0  0  0  0  0
   57.6270   31.5080   44.5070 C   0  0  0  0  0  0  0  0  0  0  0  0
   57.7570   32.7290   43.8240 C   0  0  0  0  0  0  0  0  0  0  0  0
   58.0700   33.8980   44.5240 C   0  0  0  0  0  0  0  0  0  0  0  0
   58.2550   33.8580   45.9080 C   0  0  0  0  0  0  0  0  0  0  0  0
   58.1250   32.6480   46.5960 C   0  0  0  0  0  0  0  0  0  0  0  0
   57.8100   31.4770   45.9000 C   0  0  0  0  0  0  0  0  0  0  0  0
   54.3230   24.5770   46.5469 H   0  0  0  0  0  0  0  0  0  0  0  0
   53.6366   25.2512   45.0300 H   0  0  0  0  0  0  0  0  0  0  0  0
   55.2843   24.5359   45.0300 H   0  0  0  0  0  0  0  0  0  0  0  0
   57.0948   24.7023   46.6834 H   0  0  0  0  0  0  0  0  0  0  0  0
   59.5200   25.2765   46.7606 H   0  0  0  0  0  0  0  0  0  0  0  0
   60.2892   27.5493   46.0857 H   0  0  0  0  0  0  0  0  0  0  0  0
   58.6385   29.2581   45.3357 H   0  0  0  0  0  0  0  0  0  0  0  0
   55.6289   29.0561   43.1913 H   0  0  0  0  0  0  0  0  0  0  0  0
   55.2594   30.5296   44.1755 H   0  0  0  0  0  0  0  0  0  0  0  0
   58.0955   29.4848   44.0305 H   0  0  0  0  0  0  0  0  0  0  0  0
   57.4013   30.4729   42.6723 H   0  0  0  0  0  0  0  0  0  0  0  0
   57.6119   32.7653   42.7342 H   0  0  0  0  0  0  0  0  0  0  0  0
   58.1708   34.8510   43.9839 H   0  0  0  0  0  0  0  0  0  0  0  0
   58.5030   34.7787   46.4565 H   0  0  0  0  0  0  0  0  0  0  0  0
   58.2707   32.6172   47.6859 H   0  0  0  0  0  0  0  0  0  0  0  0
   57.7050   30.5274   46.4451 H   0  0  0  0  0  0  0  0  0  0  0  0
  1  2  1  0
  2  3  1  0
  3  4  2  0
  4  5  1  0
  5  6  2  0
  6  7  1  0
  7  8  2  0
  8  9  1  0
  9 10  1  0
 10 11  1  0
 11 12  1  0
 12 13  2  0
 13 14  1  0
 14 15  2  0
 15 16  1  0
 16 17  2  0
  8  3  1  0
 17 12  1  0
  1 18  1  0
  1 19  1  0
  1 20  1  0
  4 21  1  0
  5 22  1  0
  6 23  1  0
  7 24  1  0
 10 25  1  0
 10 26  1  0
 11 27  1  0
 11 28  1  0
 13 29  1  0
 14 30  1  0
 15 31  1  0
 16 32  1  0
 17 33  1  0
M  END
>  <UniqueID>  (25) 
23

>  <SMILES>  (25) 
COc1ccccc1OCCc1ccccc1

>  <Energy>  (25) 
30.50784234482649

>  <Genealogy>  (25) 
COc1ccccc1OCCc1ccccc1 (3D coordinates assigned)
COc1ccccc1OCCc1ccccc1 (optimized conformer: 30.50784234482649 kcal/mol)

>  <smiles>  (25) 
COc1ccccc1OCCc1ccccc1

>  <score_type>  (25) 
oracle

>  <origin>  (25) 
adg

>  <m_score__min__energy>  (25) 
-7.0800000000000001

>  <m_primary>  (25) 
energy

$$$$
25:0
     RDKit          3D

 33 34  0  0  0  0  0  0  0  0999 V2000
   57.0100   22.5820   43.9440 C   0  0  0  0  0  0  0  0  0  0  0  0
   57.2170   23.7690   43.9670 C   0  0  0  0  0  0  0  0  0  0  0  0
   57.4640   25.1870   43.9950 C   0  0  0  0  0  0  0  0  0  0  0  0
   57.7620   25.8720   42.8100 C   0  0  0  0  0  0  0  0  0  0  0  0
   58.0030   27.2490   42.8370 C   0  0  0  0  0  0  0  0  0  0  0  0
   57.9370   27.9600   44.0460 C   0  0  0  0  0  0  0  0  0  0  0  0
   58.2110   29.3720   44.0510 N   0  0  0  0  0  0  0  0  0  0  0  0
   57.4660   30.3280   44.8250 C   0  0  0  0  0  0  0  0  0  0  0  0
   56.2960   30.0460   45.2070 O   0  0  0  0  0  0  0  0  0  0  0  0
   58.0340   31.6620   45.1360 C   0  0  0  0  0  0  0  0  0  0  0  0
   57.4560   32.8180   44.5930 C   0  0  0  0  0  0  0  0  0  0  0  0
   57.9850   34.0770   44.8780 C   0  0  0  0  0  0  0  0  0  0  0  0
   59.1030   34.2140   45.7150 C   0  0  0  0  0  0  0  0  0  0  0  0
   59.6620   35.5890   45.9570 C   0  0  0  0  0  0  0  0  0  0  0  0
   59.6710   33.0580   46.3080 C   0  0  0  0  0  0  0  0  0  0  0  0
   60.7820   33.1460   47.2210 N   0  0  0  0  0  0  0  0  0  0  0  0
   60.5780   33.1850   48.4520 O   0  0  0  0  0  0  0  0  0  0  0  0
   62.0590   33.3600   46.7550 O   0  0  0  0  0  0  0  0  0  0  0  0
   59.1360   31.7940   45.9970 C   0  0  0  0  0  0  0  0  0  0  0  0
   57.6570   27.2630   45.2360 C   0  0  0  0  0  0  0  0  0  0  0  0
   57.4160   25.8850   45.2080 C   0  0  0  0  0  0  0  0  0  0  0  0
   56.8211   21.4986   43.9230 H   0  0  0  0  0  0  0  0  0  0  0  0
   57.8065   25.3255   41.8564 H   0  0  0  0  0  0  0  0  0  0  0  0
   58.2461   27.7792   41.9043 H   0  0  0  0  0  0  0  0  0  0  0  0
   58.9160   29.7350   43.3700 H   0  0  0  0  0  0  0  0  0  0  0  0
   56.5777   32.7316   43.9365 H   0  0  0  0  0  0  0  0  0  0  0  0
   57.5201   34.9732   44.4413 H   0  0  0  0  0  0  0  0  0  0  0  0
   59.7354   35.7696   47.0396 H   0  0  0  0  0  0  0  0  0  0  0  0
   60.6617   35.6633   45.5042 H   0  0  0  0  0  0  0  0  0  0  0  0
   58.9977   36.3398   45.5042 H   0  0  0  0  0  0  0  0  0  0  0  0
   59.5891   30.8930   46.4362 H   0  0  0  0  0  0  0  0  0  0  0  0
   57.6274   27.8043   46.1931 H   0  0  0  0  0  0  0  0  0  0  0  0
   57.1883   25.3487   46.1410 H   0  0  0  0  0  0  0  0  0  0  0  0
  1  2  3  0
  2  3  1  0
  3  4  2  0
  4  5  1  0
  5  6  2  0
  6  7  1  0
  7  8  1  0
  8  9  2  0
  8 10  1  0
 10 11  2  0
 11 12  1  0
 12 13  2  0
 13 14  1  0
 13 15  1  0
 15 16  1  0
 16 17  2  0
 16 18  1  0
 15 19  2  0
  6 20  1  0
 20 21  2  0
 21  3  1  0
 19 10  1  0
  1 22  1  0
  4 23  1  0
  5 24  1  0
  7 25  1  0
 11 26  1  0
 12 27  1  0
 14 28  1  0
 14 29  1  0
 14 30  1  0
 19 31  1  0
 20 32  1  0
 21 33  1  0
M  CHG  2  16   1  18  -1
M  END
>  <UniqueID>  (26) 
24

>  <SMILES>  (26) 
C#Cc1ccc(NC(=O)c2ccc(C)c([N+](=O)[O-])c2)cc1

>  <Energy>  (26) 
42.08724516530259

>  <Genealogy>  (26) 
C#Cc1ccc(NC(=O)c2ccc(C)c([N+](=O)[O-])c2)cc1 (3D coordinates assigned)
C#Cc1ccc(NC(=O)c2ccc(C)c([N+](=O)[O-])c2)cc1 (optimized conformer: 42.08724516530259 kcal/mol)

>  <smiles>  (26) 
C#Cc1ccc(NC(=O)c2ccc(C)c([N+](=O)[O-])c2)cc1

>  <score_type>  (26) 
oracle

>  <origin>  (26) 
adg

>  <m_score__min__energy>  (26) 
-7.5300000000000002

>  <m_primary>  (26) 
energy

$$$$
26:0
     RDKit          3D

 32 34  0  0  0  0  0  0  0  0999 V2000
   54.7690   28.5790   44.5000 H   0  0  0  0  0  0  0  0  0  0  0  0
   55.0930   29.4320   43.9910 N   0  0  0  0  0  0  0  0  0  0  0  0
   56.1970   30.0260   44.3160 C   0  0  0  0  0  0  0  0  0  0  0  0
   56.2530   31.2790   44.8020 N   0  0  0  0  0  0  0  0  0  0  0  0
   57.5840   31.4350   45.0020 C   0  0  0  0  0  0  0  0  0  0  0  0
   58.1930   32.6670   45.5490 C   0  0  0  0  0  0  0  0  0  0  0  0
   58.3280   32.8390   46.9390 C   0  0  0  0  0  0  0  0  0  0  0  0
   57.9791   32.0524   47.6243 H   0  0  0  0  0  0  0  0  0  0  0  0
   58.9030   34.0040   47.4530 C   0  0  0  0  0  0  0  0  0  0  0  0
   59.0047   34.1315   48.5409 H   0  0  0  0  0  0  0  0  0  0  0  0
   59.3490   35.0070   46.5900 C   0  0  0  0  0  0  0  0  0  0  0  0
   59.8015   35.9230   46.9976 H   0  0  0  0  0  0  0  0  0  0  0  0
   59.2200   34.8460   45.2090 C   0  0  0  0  0  0  0  0  0  0  0  0
   59.5711   35.6367   44.5297 H   0  0  0  0  0  0  0  0  0  0  0  0
   58.6460   33.6830   44.6870 C   0  0  0  0  0  0  0  0  0  0  0  0
   58.5481   33.5616   43.5981 H   0  0  0  0  0  0  0  0  0  0  0  0
   58.2940   30.3380   44.6590 N   0  0  0  0  0  0  0  0  0  0  0  0
   57.4120   29.4610   44.2160 N   0  0  0  0  0  0  0  0  0  0  0  0
   57.7400   28.0990   43.8080 C   0  0  0  0  0  0  0  0  0  0  0  0
   56.9114   27.6871   43.2132 H   0  0  0  0  0  0  0  0  0  0  0  0
   58.6599   28.1137   43.2050 H   0  0  0  0  0  0  0  0  0  0  0  0
   57.9580   27.2390   45.0210 C   0  0  0  0  0  0  0  0  0  0  0  0
   59.2290   27.1660   45.6150 C   0  0  0  0  0  0  0  0  0  0  0  0
   60.0729   27.7153   45.1721 H   0  0  0  0  0  0  0  0  0  0  0  0
   59.4260   26.3980   46.7670 C   0  0  0  0  0  0  0  0  0  0  0  0
   60.4252   26.3372   47.2229 H   0  0  0  0  0  0  0  0  0  0  0  0
   58.3530   25.7070   47.3400 C   0  0  0  0  0  0  0  0  0  0  0  0
   58.5088   25.1024   48.2456 H   0  0  0  0  0  0  0  0  0  0  0  0
   57.0840   25.7850   46.7620 C   0  0  0  0  0  0  0  0  0  0  0  0
   56.2409   25.2415   47.2134 H   0  0  0  0  0  0  0  0  0  0  0  0
   56.8830   26.5530   45.6100 C   0  0  0  0  0  0  0  0  0  0  0  0
   55.8797   26.6199   45.1640 H   0  0  0  0  0  0  0  0  0  0  0  0
  1  2  1  0
  2  3  2  0
  3  4  1  0
  4  5  1  0
  5  6  1  0
  6  7  2  0
  7  8  1  0
  7  9  1  0
  9 10  1  0
  9 11  2  0
 11 12  1  0
 11 13  1  0
 13 14  1  0
 13 15  2  0
 15 16  1  0
  5 17  2  0
 17 18  1  0
 18 19  1  0
 19 20  1  0
 19 21  1  0
 19 22  1  0
 22 23  2  0
 23 24  1  0
 23 25  1  0
 25 26  1  0
 25 27  2  0
 27 28  1  0
 27 29  1  0
 29 30  1  0
 29 31  2  0
 31 32  1  0
 18  3  1  0
 31 22  1  0
 15  6  1  0
M  CHG  1   4  -1
M  END
>  <UniqueID>  (27) 
25

>  <SMILES>  (27) 
[H]/N=c1\[n-]c(-c2ccccc2)nn1Cc1ccccc1

>  <Energy>  (27) 
67.54529405918277

>  <Genealogy>  (27) 
N=c1[n-]c(-c2ccccc2)nn1Cc1ccccc1 (protonated)
[H]/N=c1\[n-]c(-c2ccccc2)nn1Cc1ccccc1 (cis-trans isomerization)
[H]/N=c1\[n-]c(-c2ccccc2)nn1Cc1ccccc1 (3D coordinates assigned)
[H]/N=c1\[n-]c(-c2ccccc2)nn1Cc1ccccc1 (optimized conformer: 67.54529405918277 kcal/mol)

>  <smiles>  (27) 
N=c1[nH]c(-c2ccccc2)nn1Cc1ccccc1

>  <score_type>  (27) 
oracle

>  <origin>  (27) 
adg

>  <m_score__min__energy>  (27) 
-8.9199999999999999

>  <m_primary>  (27) 
energy

$$$$
27:0
     RDKit          3D

 42 43  0  0  0  0  0  0  0  0999 V2000
   58.5320   31.6540   50.3580 C   0  0  0  0  0  0  0  0  0  0  0  0
   58.8870   30.6790   49.2410 C   0  0  0  0  0  0  0  0  0  0  0  0
   58.8680   31.3330   47.9730 O   0  0  0  0  0  0  0  0  0  0  0  0
   59.8810   32.1610   47.4540 C   0  0  0  0  0  0  0  0  0  0  0  0
   61.2440   31.9410   47.7380 C   0  0  0  0  0  0  0  0  0  0  0  0
   62.2310   32.7870   47.2130 C   0  0  0  0  0  0  0  0  0  0  0  0
   63.6810   32.5200   47.4930 C   0  0  0  0  0  0  0  0  0  0  0  0
   61.8600   33.8400   46.3700 C   0  0  0  0  0  0  0  0  0  0  0  0
   60.5140   34.0650   46.0770 C   0  0  0  0  0  0  0  0  0  0  0  0
   59.5170   33.2380   46.6170 C   0  0  0  0  0  0  0  0  0  0  0  0
   58.0770   33.5070   46.2560 C   0  0  0  0  0  0  0  0  0  0  0  0
   57.3810   32.2530   45.9770 N   0  0  0  0  0  0  0  0  0  0  0  0
   57.0720   31.8180   44.6490 C   0  0  0  0  0  0  0  0  0  0  0  0
   57.4340   32.5020   43.6520 O   0  0  0  0  0  0  0  0  0  0  0  0
   56.3640   30.6260   44.4700 O   0  0  0  0  0  0  0  0  0  0  0  0
   56.9910   29.4150   44.0620 C   0  0  0  0  0  0  0  0  0  0  0  0
   58.0920   29.0810   45.0250 C   0  0  0  0  0  0  0  0  0  0  0  0
   59.4310   29.3300   44.6930 C   0  0  0  0  0  0  0  0  0  0  0  0
   60.4480   28.9800   45.5830 C   0  0  0  0  0  0  0  0  0  0  0  0
   60.1160   28.3710   46.7950 C   0  0  0  0  0  0  0  0  0  0  0  0
   58.8140   28.1200   47.0970 N   0  0  0  0  0  0  0  0  0  0  0  0
   57.8060   28.4520   46.2470 C   0  0  0  0  0  0  0  0  0  0  0  0
   58.7066   31.1745   51.3325 H   0  0  0  0  0  0  0  0  0  0  0  0
   59.1606   32.5528   50.2737 H   0  0  0  0  0  0  0  0  0  0  0  0
   57.4727   31.9382   50.2737 H   0  0  0  0  0  0  0  0  0  0  0  0
   59.8932   30.2733   49.4226 H   0  0  0  0  0  0  0  0  0  0  0  0
   58.1436   29.8683   49.2309 H   0  0  0  0  0  0  0  0  0  0  0  0
   61.5365   31.0961   48.3787 H   0  0  0  0  0  0  0  0  0  0  0  0
   63.8450   32.4898   48.5803 H   0  0  0  0  0  0  0  0  0  0  0  0
   63.9678   31.5540   47.0520 H   0  0  0  0  0  0  0  0  0  0  0  0
   64.2931   33.3205   47.0520 H   0  0  0  0  0  0  0  0  0  0  0  0
   62.6318   34.4930   45.9365 H   0  0  0  0  0  0  0  0  0  0  0  0
   60.2320   34.8983   45.4166 H   0  0  0  0  0  0  0  0  0  0  0  0
   57.5820   34.0178   47.0951 H   0  0  0  0  0  0  0  0  0  0  0  0
   58.0459   34.1408   45.3575 H   0  0  0  0  0  0  0  0  0  0  0  0
   57.1000   31.6460   46.7800 H   0  0  0  0  0  0  0  0  0  0  0  0
   56.2503   28.6018   44.0536 H   0  0  0  0  0  0  0  0  0  0  0  0
   57.4081   29.5369   43.0515 H   0  0  0  0  0  0  0  0  0  0  0  0
   59.6804   29.8013   43.7309 H   0  0  0  0  0  0  0  0  0  0  0  0
   61.4998   29.1818   45.3322 H   0  0  0  0  0  0  0  0  0  0  0  0
   60.9083   28.0941   47.5060 H   0  0  0  0  0  0  0  0  0  0  0  0
   56.7638   28.2271   46.5176 H   0  0  0  0  0  0  0  0  0  0  0  0
  1  2  1  0
  2  3  1  0
  3  4  1  0
  4  5  2  0
  5  6  1  0
  6  7  1  0
  6  8  2  0
  8  9  1  0
  9 10  2  0
 10 11  1  0
 11 12  1  0
 12 13  1  0
 13 14  2  0
 13 15  1  0
 15 16  1  0
 16 17  1  0
 17 18  2  0
 18 19  1  0
 19 20  2  0
 20 21  1  0
 21 22  2  0
 10  4  1  0
 22 17  1  0
  1 23  1  0
  1 24  1  0
  1 25  1  0
  2 26  1  0
  2 27  1  0
  5 28  1  0
  7 29  1  0
  7 30  1  0
  7 31  1  0
  8 32  1  0
  9 33  1  0
 11 34  1  0
 11 35  1  0
 12 36  1  0
 16 37  1  0
 16 38  1  0
 18 39  1  0
 19 40  1  0
 20 41  1  0
 22 42  1  0
M  END
>  <UniqueID>  (28) 
26

>  <SMILES>  (28) 
CCOc1cc(C)ccc1CNC(=O)OCc1cccnc1

>  <Energy>  (28) 
35.42138278206685

>  <Genealogy>  (28) 
CCOc1cc(C)ccc1CNC(=O)OCc1cccnc1 (3D coordinates assigned)
CCOc1cc(C)ccc1CNC(=O)OCc1cccnc1 (optimized conformer: 35.42138278206685 kcal/mol)

>  <smiles>  (28) 
CCOc1cc(C)ccc1CNC(=O)OCc1cccnc1

>  <score_type>  (28) 
oracle

>  <origin>  (28) 
adg

>  <m_score__min__energy>  (28) 
-7.29

>  <m_primary>  (28) 
energy

$$$$
28:0
     RDKit          3D

 32 34  0  0  0  0  0  0  0  0999 V2000
   55.1440   29.7150   44.8200 O   0  0  0  0  0  0  0  0  0  0  0  0
   56.4030   29.7260   44.7390 C   0  0  0  0  0  0  0  0  0  0  0  0
   57.0750   30.9750   44.3180 C   0  0  0  0  0  0  0  0  0  0  0  0
   57.5100   31.3300   43.0480 C   0  0  0  0  0  0  0  0  0  0  0  0
   58.0780   32.5820   43.1670 C   0  0  0  0  0  0  0  0  0  0  0  0
   58.0200   32.9910   44.4490 N   0  0  0  0  0  0  0  0  0  0  0  0
   58.4550   34.2880   44.9600 C   0  0  0  0  0  0  0  0  0  0  0  0
   59.3350   34.0940   46.1640 C   0  0  0  0  0  0  0  0  0  0  0  0
   58.8120   34.2590   47.4560 C   0  0  0  0  0  0  0  0  0  0  0  0
   59.6410   34.1190   48.5740 C   0  0  0  0  0  0  0  0  0  0  0  0
   60.9970   33.8260   48.4080 C   0  0  0  0  0  0  0  0  0  0  0  0
   61.5280   33.6750   47.1250 C   0  0  0  0  0  0  0  0  0  0  0  0
   60.7020   33.8150   46.0040 C   0  0  0  0  0  0  0  0  0  0  0  0
   57.4050   32.0250   45.1570 C   0  0  0  0  0  0  0  0  0  0  0  0
   57.1440   28.4900   45.0560 C   0  0  0  0  0  0  0  0  0  0  0  0
   58.4700   28.2510   44.7480 C   0  0  0  0  0  0  0  0  0  0  0  0
   58.7470   26.9910   45.2350 C   0  0  0  0  0  0  0  0  0  0  0  0
   57.5780   26.5410   45.8120 C   0  0  0  0  0  0  0  0  0  0  0  0
   56.6440   27.4550   45.6910 O   0  0  0  0  0  0  0  0  0  0  0  0
   57.4197   30.7318   42.1293 H   0  0  0  0  0  0  0  0  0  0  0  0
   58.5133   33.1599   42.3384 H   0  0  0  0  0  0  0  0  0  0  0  0
   59.0184   34.8180   44.1779 H   0  0  0  0  0  0  0  0  0  0  0  0
   57.5727   34.8788   45.2473 H   0  0  0  0  0  0  0  0  0  0  0  0
   57.7469   34.4991   47.5898 H   0  0  0  0  0  0  0  0  0  0  0  0
   59.2248   34.2397   49.5851 H   0  0  0  0  0  0  0  0  0  0  0  0
   61.6469   33.7142   49.2884 H   0  0  0  0  0  0  0  0  0  0  0  0
   62.5961   33.4459   46.9956 H   0  0  0  0  0  0  0  0  0  0  0  0
   61.1248   33.7062   44.9944 H   0  0  0  0  0  0  0  0  0  0  0  0
   57.1968   32.0643   46.2364 H   0  0  0  0  0  0  0  0  0  0  0  0
   59.1615   28.9264   44.2229 H   0  0  0  0  0  0  0  0  0  0  0  0
   59.7052   26.4541   45.1754 H   0  0  0  0  0  0  0  0  0  0  0  0
   57.4481   25.5637   46.2999 H   0  0  0  0  0  0  0  0  0  0  0  0
  1  2  2  0
  2  3  1  0
  3  4  1  0
  4  5  2  0
  5  6  1  0
  6  7  1  0
  7  8  1  0
  8  9  2  0
  9 10  1  0
 10 11  2  0
 11 12  1  0
 12 13  2  0
  6 14  1  0
  2 15  1  0
 15 16  2  0
 16 17  1  0
 17 18  2  0
 18 19  1  0
 14  3  2  0
 19 15  1  0
 13  8  1  0
  4 20  1  0
  5 21  1  0
  7 22  1  0
  7 23  1  0
  9 24  1  0
 10 25  1  0
 11 26  1  0
 12 27  1  0
 13 28  1  0
 14 29  1  0
 16 30  1  0
 17 31  1  0
 18 32  1  0
M  END
>  <UniqueID>  (29) 
27

>  <SMILES>  (29) 
O=C(c1ccn(Cc2ccccc2)c1)c1ccco1

>  <Energy>  (29) 
84.86148845551803

>  <Genealogy>  (29) 
O=C(c1ccn(Cc2ccccc2)c1)c1ccco1 (3D coordinates assigned)
O=C(c1ccn(Cc2ccccc2)c1)c1ccco1 (optimized conformer: 84.86148845551803 kcal/mol)

>  <smiles>  (29) 
O=C(c1ccn(Cc2ccccc2)c1)c1ccco1

>  <score_type>  (29) 
oracle

>  <origin>  (29) 
adg

>  <m_score__min__energy>  (29) 
-7.3099999999999996

>  <m_primary>  (29) 
energy

$$$$
29:0
     RDKit          3D

 57 61  0  0  0  0  0  0  0  0999 V2000
   58.8810   27.8010   43.9100 C   0  0  0  0  0  0  0  0  0  0  0  0
   58.8140   27.6030   45.3550 N   0  0  0  0  0  0  0  0  0  0  0  0
   59.8880   27.5870   46.1290 N   0  0  0  0  0  0  0  0  0  0  0  0
   59.4710   27.3940   47.3960 C   0  0  0  0  0  0  0  0  0  0  0  0
   60.3820   27.3890   48.5820 C   0  0  0  0  0  0  0  0  0  0  0  0
   60.1750   28.6380   49.3940 C   0  0  0  0  0  0  0  0  0  0  0  0
   61.1450   29.0490   50.3230 C   0  0  0  0  0  0  0  0  0  0  0  0
   60.9690   30.2310   51.0490 C   0  0  0  0  0  0  0  0  0  0  0  0
   59.8300   31.0150   50.8450 C   0  0  0  0  0  0  0  0  0  0  0  0
   58.8680   30.6210   49.9120 C   0  0  0  0  0  0  0  0  0  0  0  0
   59.0390   29.4400   49.1840 C   0  0  0  0  0  0  0  0  0  0  0  0
   58.0920   27.3050   47.4340 C   0  0  0  0  0  0  0  0  0  0  0  0
   57.7060   27.4350   46.1150 C   0  0  0  0  0  0  0  0  0  0  0  0
   56.3100   27.4170   45.6350 C   0  0  0  0  0  0  0  0  0  0  0  0
   55.6480   26.3450   45.6470 O   0  0  0  0  0  0  0  0  0  0  0  0
   55.6950   28.6400   45.2040 N   0  0  0  0  0  0  0  0  0  0  0  0
   56.3600   29.7130   44.5240 C   0  0  0  0  0  0  0  0  0  0  0  0
   56.3210   29.7600   43.1260 C   0  0  0  0  0  0  0  0  0  0  0  0
   56.9840   30.7770   42.4340 C   0  0  0  0  0  0  0  0  0  0  0  0
   57.6840   31.7630   43.1360 C   0  0  0  0  0  0  0  0  0  0  0  0
   57.7000   31.7530   44.5400 C   0  0  0  0  0  0  0  0  0  0  0  0
   58.4650   32.7970   45.3080 C   0  0  0  0  0  0  0  0  0  0  0  0
   59.6170   32.1610   46.0190 C   0  0  0  0  0  0  0  0  0  0  0  0
   60.4000   32.8240   46.8970 N   0  0  0  0  0  0  0  0  0  0  0  0
   61.2850   31.9980   47.5190 C   0  0  0  0  0  0  0  0  0  0  0  0
   62.2510   32.5180   48.5100 C   0  0  0  0  0  0  0  0  0  0  0  0
   63.5810   32.0650   48.4540 C   0  0  0  0  0  0  0  0  0  0  0  0
   64.5280   32.5320   49.3680 C   0  0  0  0  0  0  0  0  0  0  0  0
   64.1630   33.4640   50.3400 C   0  0  0  0  0  0  0  0  0  0  0  0
   62.8520   33.9400   50.3940 C   0  0  0  0  0  0  0  0  0  0  0  0
   61.8920   33.4800   49.4830 C   0  0  0  0  0  0  0  0  0  0  0  0
   60.2880   34.2060   49.5400 Cl  0  0  0  0  0  0  0  0  0  0  0  0
   61.2140   30.6600   47.1260 C   0  0  0  0  0  0  0  0  0  0  0  0
   59.9800   30.5200   45.9910 S   0  0  0  0  0  0  0  0  0  0  0  0
   57.0200   30.7350   45.2280 C   0  0  0  0  0  0  0  0  0  0  0  0
   59.2268   28.8230   43.6956 H   0  0  0  0  0  0  0  0  0  0  0  0
   59.5841   27.0767   43.4729 H   0  0  0  0  0  0  0  0  0  0  0  0
   57.8826   27.6525   43.4729 H   0  0  0  0  0  0  0  0  0  0  0  0
   60.1642   26.5090   49.2051 H   0  0  0  0  0  0  0  0  0  0  0  0
   61.4255   27.3517   48.2360 H   0  0  0  0  0  0  0  0  0  0  0  0
   62.0466   28.4387   50.4800 H   0  0  0  0  0  0  0  0  0  0  0  0
   61.7277   30.5442   51.7814 H   0  0  0  0  0  0  0  0  0  0  0  0
   59.6911   31.9427   51.4195 H   0  0  0  0  0  0  0  0  0  0  0  0
   57.9742   31.2413   49.7498 H   0  0  0  0  0  0  0  0  0  0  0  0
   58.2829   29.1371   48.4447 H   0  0  0  0  0  0  0  0  0  0  0  0
   57.4486   27.1629   48.3149 H   0  0  0  0  0  0  0  0  0  0  0  0
   55.7651   28.9918   42.5684 H   0  0  0  0  0  0  0  0  0  0  0  0
   56.9551   30.8019   41.3347 H   0  0  0  0  0  0  0  0  0  0  0  0
   58.2236   32.5487   42.5869 H   0  0  0  0  0  0  0  0  0  0  0  0
   58.8423   33.5596   44.6109 H   0  0  0  0  0  0  0  0  0  0  0  0
   57.7977   33.2665   46.0457 H   0  0  0  0  0  0  0  0  0  0  0  0
   63.8778   31.3372   47.6844 H   0  0  0  0  0  0  0  0  0  0  0  0
   65.5637   32.1643   49.3215 H   0  0  0  0  0  0  0  0  0  0  0  0
   64.9088   33.8238   51.0641 H   0  0  0  0  0  0  0  0  0  0  0  0
   62.5707   34.6811   51.1567 H   0  0  0  0  0  0  0  0  0  0  0  0
   61.8518   29.8425   47.4933 H   0  0  0  0  0  0  0  0  0  0  0  0
   57.0037   30.7374   46.3279 H   0  0  0  0  0  0  0  0  0  0  0  0
  1  2  1  0
  2  3  1  0
  3  4  2  0
  4  5  1  0
  5  6  1  0
  6  7  2  0
  7  8  1  0
  8  9  2  0
  9 10  1  0
 10 11  2  0
  4 12  1  0
 12 13  2  0
 13 14  1  0
 14 15  2  0
 14 16  1  0
 16 17  1  0
 17 18  2  0
 18 19  1  0
 19 20  2  0
 20 21  1  0
 21 22  1  0
 22 23  1  0
 23 24  2  0
 24 25  1  0
 25 26  1  0
 26 27  2  0
 27 28  1  0
 28 29  2  0
 29 30  1  0
 30 31  2  0
 31 32  1  0
 25 33  2  0
 33 34  1  0
 21 35  2  0
 13  2  1  0
 35 17  1  0
 11  6  1  0
 34 23  1  0
 31 26  1  0
  1 36  1  0
  1 37  1  0
  1 38  1  0
  5 39  1  0
  5 40  1  0
  7 41  1  0
  8 42  1  0
  9 43  1  0
 10 44  1  0
 11 45  1  0
 12 46  1  0
 18 47  1  0
 19 48  1  0
 20 49  1  0
 22 50  1  0
 22 51  1  0
 27 52  1  0
 28 53  1  0
 29 54  1  0
 30 55  1  0
 33 56  1  0
 35 57  1  0
M  CHG  1  16  -1
M  END
>  <UniqueID>  (30) 
28

>  <SMILES>  (30) 
Cn1nc(Cc2ccccc2)cc1C(=O)[N-]c1cccc(Cc2nc(-c3ccccc3Cl)cs2)c1

>  <Energy>  (30) 
127.60141179566006

>  <Genealogy>  (30) 
Cn1nc(Cc2ccccc2)cc1C(=O)[N-]c1cccc(Cc2nc(-c3ccccc3Cl)cs2)c1 (protonated)
Cn1nc(Cc2ccccc2)cc1C(=O)[N-]c1cccc(Cc2nc(-c3ccccc3Cl)cs2)c1 (3D coordinates assigned)
Cn1nc(Cc2ccccc2)cc1C(=O)[N-]c1cccc(Cc2nc(-c3ccccc3Cl)cs2)c1 (optimized conformer: 127.60141179566006 kcal/mol)

>  <smiles>  (30) 
Cn1nc(Cc2ccccc2)cc1C(=O)Nc1cccc(Cc2nc(-c3ccccc3Cl)cs2)c1

>  <score_type>  (30) 
oracle

>  <origin>  (30) 
adg

>  <m_score__min__energy>  (30) 
-12.359999999999999

>  <m_primary>  (30) 
energy

$$$$
30:0
     RDKit          3D

 53 57  0  0  0  0  0  0  0  0999 V2000
   59.4050   35.0690   45.7740 C   0  0  0  0  0  0  0  0  0  0  0  0
   58.9800   33.6930   45.3740 C   0  0  0  0  0  0  0  0  0  0  0  0
   58.3820   33.4730   44.1140 C   0  0  0  0  0  0  0  0  0  0  0  0
   57.9930   32.1690   43.7610 C   0  0  0  0  0  0  0  0  0  0  0  0
   57.4030   31.8730   42.4140 C   0  0  0  0  0  0  0  0  0  0  0  0
   58.2340   31.1760   44.6580 N   0  0  0  0  0  0  0  0  0  0  0  0
   57.9960   29.8840   44.5070 N   0  0  0  0  0  0  0  0  0  0  0  0
   58.4120   29.2690   45.6420 C   0  0  0  0  0  0  0  0  0  0  0  0
   58.2520   27.8160   45.8640 C   0  0  0  0  0  0  0  0  0  0  0  0
   59.3820   26.9840   45.8700 C   0  0  0  0  0  0  0  0  0  0  0  0
   59.2420   25.6080   46.0630 C   0  0  0  0  0  0  0  0  0  0  0  0
   57.9750   25.0470   46.2370 C   0  0  0  0  0  0  0  0  0  0  0  0
   56.8290   25.8640   46.2060 C   0  0  0  0  0  0  0  0  0  0  0  0
   55.5290   25.3530   46.3580 O   0  0  0  0  0  0  0  0  0  0  0  0
   54.7830   24.6800   45.3430 C   0  0  0  0  0  0  0  0  0  0  0  0
   55.5910   23.5650   44.7360 C   0  0  0  0  0  0  0  0  0  0  0  0
   55.8990   23.5830   43.3640 C   0  0  0  0  0  0  0  0  0  0  0  0
   56.6420   22.5440   42.7950 C   0  0  0  0  0  0  0  0  0  0  0  0
   57.0760   21.4780   43.5860 C   0  0  0  0  0  0  0  0  0  0  0  0
   56.7650   21.4450   44.9490 C   0  0  0  0  0  0  0  0  0  0  0  0
   56.0210   22.4820   45.5220 C   0  0  0  0  0  0  0  0  0  0  0  0
   56.9780   27.2430   46.0170 C   0  0  0  0  0  0  0  0  0  0  0  0
   58.9390   30.2170   46.5330 C   0  0  0  0  0  0  0  0  0  0  0  0
   59.6220   30.0130   47.8290 C   0  0  0  0  0  0  0  0  0  0  0  0
   60.9220   30.4860   48.0470 C   0  0  0  0  0  0  0  0  0  0  0  0
   61.5230   30.2970   49.2490 N   0  0  0  0  0  0  0  0  0  0  0  0
   60.8810   29.6550   50.2590 C   0  0  0  0  0  0  0  0  0  0  0  0
   59.6150   29.1950   50.0770 N   0  0  0  0  0  0  0  0  0  0  0  0
   58.9750   29.3660   48.8890 C   0  0  0  0  0  0  0  0  0  0  0  0
   58.7910   31.4050   45.8510 C   0  0  0  0  0  0  0  0  0  0  0  0
   59.1830   32.6460   46.2290 N   0  0  0  0  0  0  0  0  0  0  0  0
   59.4274   35.1414   46.8714 H   0  0  0  0  0  0  0  0  0  0  0  0
   60.4084   35.2741   45.3725 H   0  0  0  0  0  0  0  0  0  0  0  0
   58.6921   35.8042   45.3725 H   0  0  0  0  0  0  0  0  0  0  0  0
   58.2227   34.3101   43.4184 H   0  0  0  0  0  0  0  0  0  0  0  0
   56.4264   31.3830   42.5411 H   0  0  0  0  0  0  0  0  0  0  0  0
   57.2722   32.8122   41.8566 H   0  0  0  0  0  0  0  0  0  0  0  0
   58.0777   31.2067   41.8566 H   0  0  0  0  0  0  0  0  0  0  0  0
   60.3821   27.4174   45.7221 H   0  0  0  0  0  0  0  0  0  0  0  0
   60.1333   24.9635   46.0780 H   0  0  0  0  0  0  0  0  0  0  0  0
   57.8722   23.9638   46.3987 H   0  0  0  0  0  0  0  0  0  0  0  0
   53.8672   24.2617   45.7861 H   0  0  0  0  0  0  0  0  0  0  0  0
   54.5308   25.4029   44.5532 H   0  0  0  0  0  0  0  0  0  0  0  0
   55.5541   24.4176   42.7360 H   0  0  0  0  0  0  0  0  0  0  0  0
   56.8851   22.5663   41.7224 H   0  0  0  0  0  0  0  0  0  0  0  0
   57.6630   20.6636   43.1365 H   0  0  0  0  0  0  0  0  0  0  0  0
   57.1053   20.6037   45.5706 H   0  0  0  0  0  0  0  0  0  0  0  0
   55.7713   22.4496   46.5928 H   0  0  0  0  0  0  0  0  0  0  0  0
   56.0863   27.8864   45.9879 H   0  0  0  0  0  0  0  0  0  0  0  0
   61.4570   31.0117   47.2424 H   0  0  0  0  0  0  0  0  0  0  0  0
   61.3859   29.5072   51.2250 H   0  0  0  0  0  0  0  0  0  0  0  0
   59.1270   28.7050   50.8600 H   0  0  0  0  0  0  0  0  0  0  0  0
   57.9473   28.9954   48.7607 H   0  0  0  0  0  0  0  0  0  0  0  0
  1  2  1  0
  2  3  1  0
  3  4  2  0
  4  5  1  0
  4  6  1  0
  6  7  1  0
  7  8  2  0
  8  9  1  0
  9 10  2  0
 10 11  1  0
 11 12  2  0
 12 13  1  0
 13 14  1  0
 14 15  1  0
 15 16  1  0
 16 17  2  0
 17 18  1  0
 18 19  2  0
 19 20  1  0
 20 21  2  0
 13 22  2  0
  8 23  1  0
 23 24  1  0
 24 25  2  0
 25 26  1  0
 26 27  2  0
 27 28  1  0
 28 29  2  0
 23 30  2  0
 30 31  1  0
 31  2  2  0
 30  6  1  0
 22  9  1  0
 29 24  1  0
 21 16  1  0
  1 32  1  0
  1 33  1  0
  1 34  1  0
  3 35  1  0
  5 36  1  0
  5 37  1  0
  5 38  1  0
 10 39  1  0
 11 40  1  0
 12 41  1  0
 15 42  1  0
 15 43  1  0
 17 44  1  0
 18 45  1  0
 19 46  1  0
 20 47  1  0
 21 48  1  0
 22 49  1  0
 25 50  1  0
 27 51  1  0
 28 52  1  0
 29 53  1  0
M  CHG  1  28   1
M  END
>  <UniqueID>  (31) 
29

>  <SMILES>  (31) 
Cc1cc(C)n2nc(-c3cccc(OCc4ccccc4)c3)c(-c3cnc[nH+]c3)c2n1

>  <Energy>  (31) 
102.90531364267706

>  <Genealogy>  (31) 
Cc1cc(C)n2nc(-c3cccc(OCc4ccccc4)c3)c(-c3cnc[nH+]c3)c2n1 (protonated)
Cc1cc(C)n2nc(-c3cccc(OCc4ccccc4)c3)c(-c3cnc[nH+]c3)c2n1 (3D coordinates assigned)
Cc1cc(C)n2nc(-c3cccc(OCc4ccccc4)c3)c(-c3cnc[nH+]c3)c2n1 (optimized conformer: 102.90531364267706 kcal/mol)

>  <smiles>  (31) 
Cc1cc(C)n2nc(-c3cccc(OCc4ccccc4)c3)c(-c3cncnc3)c2n1

>  <score_type>  (31) 
oracle

>  <origin>  (31) 
adg

>  <m_score__min__energy>  (31) 
-7.9400000000000004

>  <m_primary>  (31) 
energy

$$$$
31:0
     RDKit          3D

 43 46  0  0  0  0  0  0  0  0999 V2000
   54.4480   29.3390   43.6280 O   0  0  0  0  0  0  0  0  0  0  0  0
   55.5460   29.5360   44.2130 C   0  0  0  0  0  0  0  0  0  0  0  0
   56.4100   30.6980   43.7920 C   0  0  0  0  0  0  0  0  0  0  0  0
   57.0990   31.2880   44.9390 N   0  0  0  0  0  0  0  0  0  0  0  0
   57.9280   32.4560   44.8120 C   0  0  0  0  0  0  0  0  0  0  0  0
   58.1740   32.9210   43.6650 O   0  0  0  0  0  0  0  0  0  0  0  0
   58.5150   33.1150   46.0030 C   0  0  0  0  0  0  0  0  0  0  0  0
   59.1510   34.3670   45.9040 C   0  0  0  0  0  0  0  0  0  0  0  0
   59.7060   34.9720   47.0370 C   0  0  0  0  0  0  0  0  0  0  0  0
   59.6370   34.3340   48.2780 C   0  0  0  0  0  0  0  0  0  0  0  0
   60.1750   34.9220   49.3750 F   0  0  0  0  0  0  0  0  0  0  0  0
   59.0180   33.0850   48.3870 C   0  0  0  0  0  0  0  0  0  0  0  0
   58.4640   32.4770   47.2570 C   0  0  0  0  0  0  0  0  0  0  0  0
   55.9490   28.6030   45.2290 N   0  0  0  0  0  0  0  0  0  0  0  0
   57.0650   27.6530   45.2200 C   0  0  0  0  0  0  0  0  0  0  0  0
   56.7300   26.3600   45.9100 C   0  0  0  0  0  0  0  0  0  0  0  0
   55.6950   25.4710   45.6150 C   0  0  0  0  0  0  0  0  0  0  0  0
   55.5650   24.3080   46.3930 C   0  0  0  0  0  0  0  0  0  0  0  0
   56.4670   24.0500   47.4460 C   0  0  0  0  0  0  0  0  0  0  0  0
   57.5070   24.9510   47.7270 C   0  0  0  0  0  0  0  0  0  0  0  0
   57.6190   26.0960   46.9370 C   0  0  0  0  0  0  0  0  0  0  0  0
   58.5560   27.1990   47.0230 C   0  0  0  0  0  0  0  0  0  0  0  0
   59.6100   27.4130   47.9120 C   0  0  0  0  0  0  0  0  0  0  0  0
   60.3560   28.5960   47.7840 C   0  0  0  0  0  0  0  0  0  0  0  0
   60.0390   29.5340   46.7810 C   0  0  0  0  0  0  0  0  0  0  0  0
   58.9720   29.2970   45.8980 C   0  0  0  0  0  0  0  0  0  0  0  0
   58.2350   28.1210   46.0420 C   0  0  0  0  0  0  0  0  0  0  0  0
   57.1581   30.3447   43.0670 H   0  0  0  0  0  0  0  0  0  0  0  0
   55.7647   31.4661   43.3406 H   0  0  0  0  0  0  0  0  0  0  0  0
   57.0150   30.8020   45.8600 H   0  0  0  0  0  0  0  0  0  0  0  0
   59.2121   34.8731   44.9293 H   0  0  0  0  0  0  0  0  0  0  0  0
   60.1978   35.9521   46.9504 H   0  0  0  0  0  0  0  0  0  0  0  0
   58.9670   32.5804   49.3631 H   0  0  0  0  0  0  0  0  0  0  0  0
   57.9840   31.4915   47.3482 H   0  0  0  0  0  0  0  0  0  0  0  0
   57.2842   27.5478   44.1472 H   0  0  0  0  0  0  0  0  0  0  0  0
   54.9959   25.6765   44.7909 H   0  0  0  0  0  0  0  0  0  0  0  0
   54.7552   23.5949   46.1795 H   0  0  0  0  0  0  0  0  0  0  0  0
   56.3553   23.1379   48.0506 H   0  0  0  0  0  0  0  0  0  0  0  0
   58.2141   24.7594   48.5475 H   0  0  0  0  0  0  0  0  0  0  0  0
   59.8501   26.6752   48.6918 H   0  0  0  0  0  0  0  0  0  0  0  0
   61.1927   28.7917   48.4707 H   0  0  0  0  0  0  0  0  0  0  0  0
   60.6303   30.4570   46.6889 H   0  0  0  0  0  0  0  0  0  0  0  0
   58.7230   30.0231   45.1101 H   0  0  0  0  0  0  0  0  0  0  0  0
  1  2  2  0
  2  3  1  0
  3  4  1  0
  4  5  1  0
  5  6  2  0
  5  7  1  0
  7  8  2  0
  8  9  1  0
  9 10  2  0
 10 11  1  0
 10 12  1  0
 12 13  2  0
  2 14  1  0
 14 15  1  0
 15 16  1  0
 16 17  2  0
 17 18  1  0
 18 19  2  0
 19 20  1  0
 20 21  2  0
 21 22  1  0
 22 23  2  0
 23 24  1  0
 24 25  2  0
 25 26  1  0
 26 27  2  0
 13  7  1  0
 27 15  1  0
 21 16  1  0
 27 22  1  0
  3 28  1  0
  3 29  1  0
  4 30  1  0
  8 31  1  0
  9 32  1  0
 12 33  1  0
 13 34  1  0
 15 35  1  0
 17 36  1  0
 18 37  1  0
 19 38  1  0
 20 39  1  0
 23 40  1  0
 24 41  1  0
 25 42  1  0
 26 43  1  0
M  CHG  1  14  -1
M  END
>  <UniqueID>  (32) 
30

>  <SMILES>  (32) 
O=C(CNC(=O)c1ccc(F)cc1)[N-]C1c2ccccc2-c2ccccc21

>  <Energy>  (32) 
70.64798235842274

>  <Genealogy>  (32) 
O=C(CNC(=O)c1ccc(F)cc1)[N-]C1c2ccccc2-c2ccccc21 (protonated)
O=C(CNC(=O)c1ccc(F)cc1)[N-]C1c2ccccc2-c2ccccc21 (3D coordinates assigned)
O=C(CNC(=O)c1ccc(F)cc1)[N-]C1c2ccccc2-c2ccccc21 (nonaromatic ring conformer: 70.64798235842274 kcal/mol)

>  <smiles>  (32) 
O=C(CNC(=O)c1ccc(F)cc1)NC1c2ccccc2-c2ccccc21

>  <score_type>  (32) 
oracle

>  <origin>  (32) 
adg

>  <m_score__min__energy>  (32) 
-10.77

>  <m_primary>  (32) 
energy

$$$$
32:0
     RDKit          3D

 36 38  0  0  0  0  0  0  0  0999 V2000
   60.0920   28.6970   46.8160 C   0  0  0  0  0  0  0  0  0  0  0  0
   58.6910   28.3840   46.3550 C   0  0  0  0  0  0  0  0  0  0  0  0
   58.0900   27.1880   46.7700 C   0  0  0  0  0  0  0  0  0  0  0  0
   56.7960   26.8740   46.3580 C   0  0  0  0  0  0  0  0  0  0  0  0
   56.2620   25.7970   46.7360 O   0  0  0  0  0  0  0  0  0  0  0  0
   56.1080   27.7250   45.5500 N   0  0  0  0  0  0  0  0  0  0  0  0
   56.6520   28.9000   45.1220 C   0  0  0  0  0  0  0  0  0  0  0  0
   55.9140   29.7520   44.2890 C   0  0  0  0  0  0  0  0  0  0  0  0
   56.4590   30.9560   43.8440 C   0  0  0  0  0  0  0  0  0  0  0  0
   57.7570   31.3370   44.2280 C   0  0  0  0  0  0  0  0  0  0  0  0
   58.3440   32.5780   43.7880 N   0  0  0  0  0  0  0  0  0  0  0  0
   58.2250   33.8500   44.5020 C   0  0  0  0  0  0  0  0  0  0  0  0
   58.7860   33.7340   45.8960 C   0  0  0  0  0  0  0  0  0  0  0  0
   60.0650   34.2390   46.1850 C   0  0  0  0  0  0  0  0  0  0  0  0
   60.5880   34.1370   47.4780 C   0  0  0  0  0  0  0  0  0  0  0  0
   59.8360   33.5380   48.4920 C   0  0  0  0  0  0  0  0  0  0  0  0
   60.3440   33.4400   49.7450 F   0  0  0  0  0  0  0  0  0  0  0  0
   58.5580   33.0440   48.2150 C   0  0  0  0  0  0  0  0  0  0  0  0
   58.0320   33.1440   46.9230 C   0  0  0  0  0  0  0  0  0  0  0  0
   58.5020   30.4830   45.0560 C   0  0  0  0  0  0  0  0  0  0  0  0
   57.9650   29.2620   45.5140 C   0  0  0  0  0  0  0  0  0  0  0  0
   60.1232   28.7040   47.9155 H   0  0  0  0  0  0  0  0  0  0  0  0
   60.7833   27.9312   46.4344 H   0  0  0  0  0  0  0  0  0  0  0  0
   60.3916   29.6842   46.4344 H   0  0  0  0  0  0  0  0  0  0  0  0
   58.6410   26.4950   47.4228 H   0  0  0  0  0  0  0  0  0  0  0  0
   55.1380   27.4630   45.2570 H   0  0  0  0  0  0  0  0  0  0  0  0
   54.8960   29.4685   43.9836 H   0  0  0  0  0  0  0  0  0  0  0  0
   55.8691   31.6126   43.1876 H   0  0  0  0  0  0  0  0  0  0  0  0
   58.9380   32.5710   42.9280 H   0  0  0  0  0  0  0  0  0  0  0  0
   58.7797   34.6253   43.9531 H   0  0  0  0  0  0  0  0  0  0  0  0
   57.1604   34.1182   44.5708 H   0  0  0  0  0  0  0  0  0  0  0  0
   60.6575   34.7166   45.3908 H   0  0  0  0  0  0  0  0  0  0  0  0
   61.5923   34.5287   47.6970 H   0  0  0  0  0  0  0  0  0  0  0  0
   57.9651   32.5758   49.0145 H   0  0  0  0  0  0  0  0  0  0  0  0
   57.0237   32.7590   46.7106 H   0  0  0  0  0  0  0  0  0  0  0  0
   59.5214   30.7708   45.3526 H   0  0  0  0  0  0  0  0  0  0  0  0
  1  2  1  0
  2  3  2  0
  3  4  1  0
  4  5  2  0
  4  6  1  0
  6  7  1  0
  7  8  2  0
  8  9  1  0
  9 10  2  0
 10 11  1  0
 11 12  1  0
 12 13  1  0
 13 14  2  0
 14 15  1  0
 15 16  2  0
 16 17  1  0
 16 18  1  0
 18 19  2  0
 10 20  1  0
 20 21  2  0
 21  2  1  0
 21  7  1  0
 19 13  1  0
  1 22  1  0
  1 23  1  0
  1 24  1  0
  3 25  1  0
  6 26  1  0
  8 27  1  0
  9 28  1  0
 11 29  1  0
 12 30  1  0
 12 31  1  0
 14 32  1  0
 15 33  1  0
 18 34  1  0
 19 35  1  0
 20 36  1  0
M  END
>  <UniqueID>  (33) 
31

>  <SMILES>  (33) 
Cc1cc(=O)[nH]c2ccc(NCc3ccc(F)cc3)cc12

>  <Energy>  (33) 
42.911754243101775

>  <Genealogy>  (33) 
Cc1cc(=O)[nH]c2ccc(NCc3ccc(F)cc3)cc12 (3D coordinates assigned)
Cc1cc(=O)[nH]c2ccc(NCc3ccc(F)cc3)cc12 (optimized conformer: 42.911754243101775 kcal/mol)

>  <smiles>  (33) 
Cc1cc(=O)[nH]c2ccc(NCc3ccc(F)cc3)cc12

>  <score_type>  (33) 
oracle

>  <origin>  (33) 
adg

>  <m_score__min__energy>  (33) 
-7.8799999999999999

>  <m_primary>  (33) 
energy

$$$$
33:0
     RDKit          3D

 35 37  0  0  0  0  0  0  0  0999 V2000
   64.0520   33.4060   48.6170 C   0  0  0  0  0  0  0  0  0  0  0  0
   62.5890   33.6550   48.4820 C   0  0  0  0  0  0  0  0  0  0  0  0
   61.8800   33.3570   47.3720 N   0  0  0  0  0  0  0  0  0  0  0  0
   60.5500   33.6150   47.5200 C   0  0  0  0  0  0  0  0  0  0  0  0
   59.5860   33.3600   46.4170 C   0  0  0  0  0  0  0  0  0  0  0  0
   58.8040   34.4160   45.9170 C   0  0  0  0  0  0  0  0  0  0  0  0
   57.9040   34.2010   44.8720 C   0  0  0  0  0  0  0  0  0  0  0  0
   57.7590   32.9280   44.3200 C   0  0  0  0  0  0  0  0  0  0  0  0
   58.5030   31.8510   44.8200 C   0  0  0  0  0  0  0  0  0  0  0  0
   58.3450   30.5500   44.2260 N   0  0  0  0  0  0  0  0  0  0  0  0
   57.3370   29.6070   44.6290 C   0  0  0  0  0  0  0  0  0  0  0  0
   56.3010   30.0150   45.2210 O   0  0  0  0  0  0  0  0  0  0  0  0
   57.4780   28.1640   44.3150 C   0  0  0  0  0  0  0  0  0  0  0  0
   57.2920   27.1850   45.3100 C   0  0  0  0  0  0  0  0  0  0  0  0
   57.4210   25.8270   45.0000 C   0  0  0  0  0  0  0  0  0  0  0  0
   57.7300   25.4310   43.6960 C   0  0  0  0  0  0  0  0  0  0  0  0
   57.9060   26.3920   42.6990 C   0  0  0  0  0  0  0  0  0  0  0  0
   57.7780   27.7510   43.0030 C   0  0  0  0  0  0  0  0  0  0  0  0
   59.4280   32.0750   45.8570 C   0  0  0  0  0  0  0  0  0  0  0  0
   60.1970   34.1090   48.7810 C   0  0  0  0  0  0  0  0  0  0  0  0
   61.5940   34.2170   49.7110 S   0  0  0  0  0  0  0  0  0  0  0  0
   64.3194   33.3605   49.6830 H   0  0  0  0  0  0  0  0  0  0  0  0
   64.3076   32.4514   48.1338 H   0  0  0  0  0  0  0  0  0  0  0  0
   64.6090   34.2223   48.1338 H   0  0  0  0  0  0  0  0  0  0  0  0
   58.9024   35.4209   46.3534 H   0  0  0  0  0  0  0  0  0  0  0  0
   57.3068   35.0385   44.4822 H   0  0  0  0  0  0  0  0  0  0  0  0
   57.0571   32.7689   43.4881 H   0  0  0  0  0  0  0  0  0  0  0  0
   58.9150   30.3270   43.3790 H   0  0  0  0  0  0  0  0  0  0  0  0
   57.0437   27.4900   46.3373 H   0  0  0  0  0  0  0  0  0  0  0  0
   57.2789   25.0691   45.7845 H   0  0  0  0  0  0  0  0  0  0  0  0
   57.8345   24.3627   43.4554 H   0  0  0  0  0  0  0  0  0  0  0  0
   58.1459   26.0796   41.6719 H   0  0  0  0  0  0  0  0  0  0  0  0
   57.9127   28.5027   42.2113 H   0  0  0  0  0  0  0  0  0  0  0  0
   60.0344   31.2387   46.2349 H   0  0  0  0  0  0  0  0  0  0  0  0
   59.1819   34.3797   49.1072 H   0  0  0  0  0  0  0  0  0  0  0  0
  1  2  1  0
  2  3  2  0
  3  4  1  0
  4  5  1  0
  5  6  2  0
  6  7  1  0
  7  8  2  0
  8  9  1  0
  9 10  1  0
 10 11  1  0
 11 12  2  0
 11 13  1  0
 13 14  2  0
 14 15  1  0
 15 16  2  0
 16 17  1  0
 17 18  2  0
  9 19  2  0
  4 20  2  0
 20 21  1  0
 21  2  1  0
 19  5  1  0
 18 13  1  0
  1 22  1  0
  1 23  1  0
  1 24  1  0
  6 25  1  0
  7 26  1  0
  8 27  1  0
 10 28  1  0
 14 29  1  0
 15 30  1  0
 16 31  1  0
 17 32  1  0
 18 33  1  0
 19 34  1  0
 20 35  1  0
M  END
>  <UniqueID>  (34) 
32

>  <SMILES>  (34) 
Cc1nc(-c2cccc(NC(=O)c3ccccc3)c2)cs1

>  <Energy>  (34) 
73.46487809198675

>  <Genealogy>  (34) 
Cc1nc(-c2cccc(NC(=O)c3ccccc3)c2)cs1 (3D coordinates assigned)
Cc1nc(-c2cccc(NC(=O)c3ccccc3)c2)cs1 (optimized conformer: 73.46487809198675 kcal/mol)

>  <smiles>  (34) 
Cc1nc(-c2cccc(NC(=O)c3ccccc3)c2)cs1

>  <score_type>  (34) 
oracle

>  <origin>  (34) 
adg

>  <m_score__min__energy>  (34) 
-7.75

>  <m_primary>  (34) 
energy

$$$$
34:0
     RDKit          3D

 33 35  0  0  0  0  0  0  0  0999 V2000
   56.3308   25.0777   46.7964 H   0  0  0  0  0  0  0  0  0  0  0  0
   56.8630   25.9790   46.4580 C   0  0  0  0  0  0  0  0  0  0  0  0
   56.7310   26.5470   45.2440 N   0  0  0  0  0  0  0  0  0  0  0  0
   57.5690   27.6060   45.2890 C   0  0  0  0  0  0  0  0  0  0  0  0
   57.7090   28.4480   44.3100 N   0  0  0  0  0  0  0  0  0  0  0  0
   56.6670   29.8150   44.0750 S   0  0  0  0  0  0  0  0  0  0  0  0
   56.3080   29.9110   42.6180 O   0  0  0  0  0  0  0  0  0  0  0  0
   55.4130   29.6230   44.8790 O   0  0  0  0  0  0  0  0  0  0  0  0
   57.4750   31.2830   44.6120 C   0  0  0  0  0  0  0  0  0  0  0  0
   57.7820   31.4710   45.9660 C   0  0  0  0  0  0  0  0  0  0  0  0
   57.5204   30.6952   46.7006 H   0  0  0  0  0  0  0  0  0  0  0  0
   58.4200   32.6420   46.3860 C   0  0  0  0  0  0  0  0  0  0  0  0
   58.6550   32.7874   47.4507 H   0  0  0  0  0  0  0  0  0  0  0  0
   58.7600   33.6290   45.4550 C   0  0  0  0  0  0  0  0  0  0  0  0
   59.5600   35.0970   45.9830 Cl  0  0  0  0  0  0  0  0  0  0  0  0
   58.4610   33.4420   44.1000 C   0  0  0  0  0  0  0  0  0  0  0  0
   58.7291   34.2163   43.3661 H   0  0  0  0  0  0  0  0  0  0  0  0
   57.8220   32.2720   43.6790 C   0  0  0  0  0  0  0  0  0  0  0  0
   57.5906   32.1263   42.6135 H   0  0  0  0  0  0  0  0  0  0  0  0
   58.2180   27.7220   46.4690 N   0  0  0  0  0  0  0  0  0  0  0  0
   59.1840   28.7130   46.8720 C   0  0  0  0  0  0  0  0  0  0  0  0
   60.1860   29.1450   45.9830 C   0  0  0  0  0  0  0  0  0  0  0  0
   60.2314   28.7294   44.9656 H   0  0  0  0  0  0  0  0  0  0  0  0
   61.1240   30.1000   46.3870 C   0  0  0  0  0  0  0  0  0  0  0  0
   61.9011   30.4367   45.6851 H   0  0  0  0  0  0  0  0  0  0  0  0
   61.0770   30.6270   47.6780 C   0  0  0  0  0  0  0  0  0  0  0  0
   61.8142   31.3808   47.9916 H   0  0  0  0  0  0  0  0  0  0  0  0
   60.0930   30.1970   48.5730 C   0  0  0  0  0  0  0  0  0  0  0  0
   60.0584   30.6106   49.5917 H   0  0  0  0  0  0  0  0  0  0  0  0
   59.1530   29.2420   48.1750 C   0  0  0  0  0  0  0  0  0  0  0  0
   58.3845   28.9022   48.8849 H   0  0  0  0  0  0  0  0  0  0  0  0
   57.7650   26.6970   47.2120 C   0  0  0  0  0  0  0  0  0  0  0  0
   58.0638   26.4703   48.2461 H   0  0  0  0  0  0  0  0  0  0  0  0
  1  2  1  0
  2  3  1  0
  3  4  1  0
  4  5  2  0
  5  6  1  0
  6  7  2  0
  6  8  2  0
  6  9  1  0
  9 10  2  0
 10 11  1  0
 10 12  1  0
 12 13  1  0
 12 14  2  0
 14 15  1  0
 14 16  1  0
 16 17  1  0
 16 18  2  0
 18 19  1  0
  4 20  1  0
 20 21  1  0
 21 22  2  0
 22 23  1  0
 22 24  1  0
 24 25  1  0
 24 26  2  0
 26 27  1  0
 26 28  1  0
 28 29  1  0
 28 30  2  0
 30 31  1  0
 20 32  1  0
 32 33  1  0
 32  2  2  0
 18  9  1  0
 30 21  1  0
M  CHG  1   3  -1
M  END
>  <UniqueID>  (35) 
33

>  <SMILES>  (35) 
O=S(=O)(/N=c1\[n-]ccn1-c1ccccc1)c1ccc(Cl)cc1

>  <Energy>  (35) 
73.05006062807189

>  <Genealogy>  (35) 
O=S(=O)(N=c1[n-]ccn1-c1ccccc1)c1ccc(Cl)cc1 (protonated)
O=S(=O)(/N=c1\[n-]ccn1-c1ccccc1)c1ccc(Cl)cc1 (cis-trans isomerization)
O=S(=O)(/N=c1\[n-]ccn1-c1ccccc1)c1ccc(Cl)cc1 (3D coordinates assigned)
O=S(=O)(/N=c1\[n-]ccn1-c1ccccc1)c1ccc(Cl)cc1 (optimized conformer: 73.05006062807189 kcal/mol)

>  <smiles>  (35) 
O=S(=O)(N=c1[nH]ccn1-c1ccccc1)c1ccc(Cl)cc1

>  <score_type>  (35) 
oracle

>  <origin>  (35) 
adg

>  <m_score__min__energy>  (35) 
-9.3399999999999999

>  <m_primary>  (35) 
energy

$$$$
35:0
     RDKit          3D

 32 34  0  0  0  0  0  0  0  0999 V2000
   57.9410   27.0070   42.8120 N   0  0  0  0  0  0  0  0  0  0  0  0
   58.0620   27.8850   43.7440 C   0  0  0  0  0  0  0  0  0  0  0  0
   59.0750   27.8980   44.5990 N   0  0  0  0  0  0  0  0  0  0  0  0
   59.1790   28.8390   45.5820 C   0  0  0  0  0  0  0  0  0  0  0  0
   58.2340   29.8330   45.7420 C   0  0  0  0  0  0  0  0  0  0  0  0
   58.2830   30.8840   46.7810 C   0  0  0  0  0  0  0  0  0  0  0  0
   59.0180   32.0970   46.4040 C   0  0  0  0  0  0  0  0  0  0  0  0
   58.4190   33.1570   45.6960 C   0  0  0  0  0  0  0  0  0  0  0  0
   59.1180   34.3060   45.4080 C   0  0  0  0  0  0  0  0  0  0  0  0
   58.6130   35.2800   44.7760 O   0  0  0  0  0  0  0  0  0  0  0  0
   60.3850   34.4660   45.7810 O   0  0  0  0  0  0  0  0  0  0  0  0
   60.9850   33.5280   46.4300 C   0  0  0  0  0  0  0  0  0  0  0  0
   62.3170   33.7250   46.8020 C   0  0  0  0  0  0  0  0  0  0  0  0
   63.0210   32.7430   47.4990 C   0  0  0  0  0  0  0  0  0  0  0  0
   62.3880   31.5700   47.8170 C   0  0  0  0  0  0  0  0  0  0  0  0
   61.0710   31.4080   47.4340 C   0  0  0  0  0  0  0  0  0  0  0  0
   60.3460   32.3460   46.7550 C   0  0  0  0  0  0  0  0  0  0  0  0
   57.1780   29.7910   44.8210 C   0  0  0  0  0  0  0  0  0  0  0  0
   56.2240   30.6550   44.8280 N   0  0  0  0  0  0  0  0  0  0  0  0
   57.1200   28.8350   43.8620 N   0  0  0  0  0  0  0  0  0  0  0  0
   57.0200   26.6290   42.4840 H   0  0  0  0  0  0  0  0  0  0  0  0
   59.8260   27.1480   44.5120 H   0  0  0  0  0  0  0  0  0  0  0  0
   60.0398   28.8046   46.2660 H   0  0  0  0  0  0  0  0  0  0  0  0
   57.2495   31.1729   47.0228 H   0  0  0  0  0  0  0  0  0  0  0  0
   58.8262   30.4484   47.6326 H   0  0  0  0  0  0  0  0  0  0  0  0
   57.3733   33.0643   45.3675 H   0  0  0  0  0  0  0  0  0  0  0  0
   62.8183   34.6688   46.5413 H   0  0  0  0  0  0  0  0  0  0  0  0
   64.0692   32.9078   47.7892 H   0  0  0  0  0  0  0  0  0  0  0  0
   62.9166   30.7758   48.3646 H   0  0  0  0  0  0  0  0  0  0  0  0
   60.5732   30.4618   47.6926 H   0  0  0  0  0  0  0  0  0  0  0  0
   55.2820   30.4700   45.2430 H   0  0  0  0  0  0  0  0  0  0  0  0
   56.3130   28.8170   43.1680 H   0  0  0  0  0  0  0  0  0  0  0  0
  1  2  2  3
  2  3  1  0
  3  4  1  0
  4  5  2  0
  5  6  1  0
  6  7  1  0
  7  8  2  0
  8  9  1  0
  9 10  2  0
  9 11  1  0
 11 12  1  0
 12 13  2  0
 13 14  1  0
 14 15  2  0
 15 16  1  0
 16 17  2  0
  5 18  1  0
 18 19  2  3
 18 20  1  0
 20  2  1  0
 17  7  1  0
 17 12  1  0
  1 21  1  0
  3 22  1  0
  4 23  1  0
  6 24  1  0
  6 25  1  0
  8 26  1  0
 13 27  1  0
 14 28  1  0
 15 29  1  0
 16 30  1  0
 19 31  1  0
 20 32  1  0
M  END
>  <smiles>  (36) 
N=c1[nH]cc(Cc2cc(=O)oc3ccccc23)c(=N)[nH]1

>  <score_type>  (36) 
oracle

>  <origin>  (36) 
adg

>  <m_score__min__energy>  (36) 
-7.2699999999999996

>  <m_primary>  (36) 
energy

$$$$
36:0
     RDKit          3D

 39 41  0  0  0  0  0  0  0  0999 V2000
   58.5160   29.7010   49.7650 N   0  0  0  0  0  0  0  0  0  0  0  0
   59.4720   29.9890   48.9530 C   0  0  0  0  0  0  0  0  0  0  0  0
   59.5220   29.4290   47.6820 C   0  0  0  0  0  0  0  0  0  0  0  0
   60.5590   29.7480   46.8180 C   0  0  0  0  0  0  0  0  0  0  0  0
   60.5420   29.0040   45.2350 Cl  0  0  0  0  0  0  0  0  0  0  0  0
   61.5530   30.6070   47.1710 N   0  0  0  0  0  0  0  0  0  0  0  0
   61.4760   31.1270   48.3990 C   0  0  0  0  0  0  0  0  0  0  0  0
   62.6960   32.2980   49.0390 S   0  0  0  0  0  0  0  0  0  0  0  0
   61.9030   33.9370   48.9740 C   0  0  0  0  0  0  0  0  0  0  0  0
   60.9010   33.9160   47.8950 C   0  0  0  0  0  0  0  0  0  0  0  0
   59.5640   33.8710   48.2830 C   0  0  0  0  0  0  0  0  0  0  0  0
   58.5200   33.8420   47.3890 C   0  0  0  0  0  0  0  0  0  0  0  0
   58.8480   33.8580   46.0500 C   0  0  0  0  0  0  0  0  0  0  0  0
   57.7280   33.7960   45.0850 C   0  0  0  0  0  0  0  0  0  0  0  0
   56.6540   34.3850   45.2440 O   0  0  0  0  0  0  0  0  0  0  0  0
   58.0120   32.9760   43.9290 N   0  0  0  0  0  0  0  0  0  0  0  0
   57.5640   31.7690   43.8930 C   0  0  0  0  0  0  0  0  0  0  0  0
   56.9940   31.1920   42.7840 C   0  0  0  0  0  0  0  0  0  0  0  0
   56.5180   29.8910   42.8640 C   0  0  0  0  0  0  0  0  0  0  0  0
   56.6360   29.2470   44.0280 N   0  0  0  0  0  0  0  0  0  0  0  0
   57.1770   29.7460   45.1400 C   0  0  0  0  0  0  0  0  0  0  0  0
   57.6690   31.0580   45.0960 C   0  0  0  0  0  0  0  0  0  0  0  0
   60.1620   33.9050   45.6340 C   0  0  0  0  0  0  0  0  0  0  0  0
   61.2240   33.9350   46.5470 C   0  0  0  0  0  0  0  0  0  0  0  0
   60.4690   30.8310   49.2690 N   0  0  0  0  0  0  0  0  0  0  0  0
   58.7540   29.0620   50.5680 H   0  0  0  0  0  0  0  0  0  0  0  0
   58.7360   28.7300   47.3600 H   0  0  0  0  0  0  0  0  0  0  0  0
   62.3270   30.8520   46.5370 H   0  0  0  0  0  0  0  0  0  0  0  0
   61.4124   34.1526   49.9347 H   0  0  0  0  0  0  0  0  0  0  0  0
   62.6542   34.7173   48.7823 H   0  0  0  0  0  0  0  0  0  0  0  0
   59.3319   33.8580   49.3582 H   0  0  0  0  0  0  0  0  0  0  0  0
   57.4734   33.8077   47.7258 H   0  0  0  0  0  0  0  0  0  0  0  0
   56.9158   31.7555   41.8425 H   0  0  0  0  0  0  0  0  0  0  0  0
   56.0562   29.4036   41.9927 H   0  0  0  0  0  0  0  0  0  0  0  0
   56.2580   28.2550   44.0520 H   0  0  0  0  0  0  0  0  0  0  0  0
   57.2353   29.1479   46.0614 H   0  0  0  0  0  0  0  0  0  0  0  0
   58.1264   31.5182   45.9843 H   0  0  0  0  0  0  0  0  0  0  0  0
   60.3821   33.9193   44.5563 H   0  0  0  0  0  0  0  0  0  0  0  0
   62.2700   33.9721   46.2086 H   0  0  0  0  0  0  0  0  0  0  0  0
  1  2  2  3
  2  3  1  0
  3  4  2  0
  4  5  1  0
  4  6  1  0
  6  7  1  0
  7  8  1  0
  8  9  1  0
  9 10  1  0
 10 11  2  0
 11 12  1  0
 12 13  2  0
 13 14  1  0
 14 15  2  0
 14 16  1  0
 16 17  2  3
 17 18  1  0
 18 19  2  0
 19 20  1  0
 20 21  1  0
 21 22  2  0
 13 23  1  0
 23 24  2  0
  7 25  2  0
 25  2  1  0
 24 10  1  0
 22 17  1  0
  1 26  1  0
  3 27  1  0
  6 28  1  0
  9 29  1  0
  9 30  1  0
 11 31  1  0
 12 32  1  0
 18 33  1  0
 19 34  1  0
 20 35  1  0
 21 36  1  0
 22 37  1  0
 23 38  1  0
 24 39  1  0
M  END
>  <smiles>  (37) 
N=c1cc(Cl)[nH]c(SCc2ccc(C(=O)N=c3cc[nH]cc3)cc2)n1

>  <score_type>  (37) 
oracle

>  <origin>  (37) 
adg

>  <m_score__min__energy>  (37) 
-8.7400000000000002

>  <m_primary>  (37) 
energy

$$$$
37:0
     RDKit          3D

 44 47  0  0  0  0  0  0  0  0999 V2000
   64.4220   32.5980   49.5020 C   0  0  0  0  0  0  0  0  0  0  0  0
   63.6320   33.5440   48.5970 C   0  0  1  0  0  0  0  0  0  0  0  0
   63.3050   32.8940   47.3060 C   0  0  0  0  0  0  0  0  0  0  0  0
   64.1310   32.7730   46.4170 O   0  0  0  0  0  0  0  0  0  0  0  0
   61.6190   32.3640   47.0860 S   0  0  0  0  0  0  0  0  0  0  0  0
   61.0530   33.3850   48.5090 C   0  0  1  0  0  0  0  0  0  0  0  0
   60.2870   34.5790   47.9490 C   0  0  0  0  0  0  0  0  0  0  0  0
   59.0470   34.5780   47.4260 C   0  0  0  0  0  0  0  0  0  0  0  0
   58.5690   33.6690   46.3700 C   0  0  0  0  0  0  0  0  0  0  0  0
   58.2180   34.1830   45.1140 C   0  0  0  0  0  0  0  0  0  0  0  0
   57.7680   33.3330   44.1020 C   0  0  0  0  0  0  0  0  0  0  0  0
   57.6260   31.9590   44.3480 C   0  0  0  0  0  0  0  0  0  0  0  0
   57.1850   31.0920   43.3370 C   0  0  0  0  0  0  0  0  0  0  0  0
   57.0400   29.7280   43.5980 C   0  0  0  0  0  0  0  0  0  0  0  0
   57.3270   29.2200   44.8680 C   0  0  0  0  0  0  0  0  0  0  0  0
   57.7650   30.0730   45.8850 C   0  0  0  0  0  0  0  0  0  0  0  0
   57.9210   31.4450   45.6340 C   0  0  0  0  0  0  0  0  0  0  0  0
   58.3700   32.3100   46.6430 C   0  0  0  0  0  0  0  0  0  0  0  0
   60.1770   32.4730   49.3740 C   0  0  0  0  0  0  0  0  0  0  0  0
   60.1450   31.0670   49.2220 C   0  0  0  0  0  0  0  0  0  0  0  0
   59.3320   30.2810   50.0430 C   0  0  0  0  0  0  0  0  0  0  0  0
   58.5210   30.8770   51.0090 C   0  0  0  0  0  0  0  0  0  0  0  0
   58.5150   32.2650   51.1520 C   0  0  0  0  0  0  0  0  0  0  0  0
   59.3310   33.0560   50.3420 C   0  0  0  0  0  0  0  0  0  0  0  0
   62.3090   33.8880   49.1990 C   0  0  0  0  0  0  0  0  0  0  0  0
   62.2580   34.5950   50.1940 O   0  0  0  0  0  0  0  0  0  0  0  0
   64.2180   32.8423   50.5549 H   0  0  0  0  0  0  0  0  0  0  0  0
   64.1188   31.5599   49.3011 H   0  0  0  0  0  0  0  0  0  0  0  0
   65.4975   32.7113   49.3011 H   0  0  0  0  0  0  0  0  0  0  0  0
   64.2660   34.4330   48.4640 H   0  0  0  0  0  0  0  0  0  0  0  0
   60.8057   35.5487   47.9755 H   0  0  0  0  0  0  0  0  0  0  0  0
   58.3323   35.3160   47.8191 H   0  0  0  0  0  0  0  0  0  0  0  0
   58.2977   35.2636   44.9244 H   0  0  0  0  0  0  0  0  0  0  0  0
   57.5244   33.7412   43.1100 H   0  0  0  0  0  0  0  0  0  0  0  0
   56.9531   31.4874   42.3371 H   0  0  0  0  0  0  0  0  0  0  0  0
   56.6987   29.0508   42.8012 H   0  0  0  0  0  0  0  0  0  0  0  0
   57.2077   28.1449   45.0679 H   0  0  0  0  0  0  0  0  0  0  0  0
   57.9877   29.6684   46.8834 H   0  0  0  0  0  0  0  0  0  0  0  0
   58.5665   31.9193   47.6523 H   0  0  0  0  0  0  0  0  0  0  0  0
   60.7657   30.5880   48.4505 H   0  0  0  0  0  0  0  0  0  0  0  0
   59.3315   29.1871   49.9270 H   0  0  0  0  0  0  0  0  0  0  0  0
   57.8872   30.2537   51.6570 H   0  0  0  0  0  0  0  0  0  0  0  0
   57.8659   32.7366   51.9045 H   0  0  0  0  0  0  0  0  0  0  0  0
   59.3147   34.1496   50.4596 H   0  0  0  0  0  0  0  0  0  0  0  0
  1  2  1  0
  2  3  1  0
  3  4  2  0
  3  5  1  0
  5  6  1  0
  6  7  1  0
  7  8  2  3
  8  9  1  0
  9 10  2  0
 10 11  1  0
 11 12  2  0
 12 13  1  0
 13 14  2  0
 14 15  1  0
 15 16  2  0
 16 17  1  0
 17 18  2  0
  6 19  1  1
 19 20  2  0
 20 21  1  0
 21 22  2  0
 22 23  1  0
 23 24  2  0
  6 25  1  0
 25 26  2  0
 25  2  1  0
 18  9  1  0
 24 19  1  0
 17 12  1  0
  1 27  1  0
  1 28  1  0
  1 29  1  0
  2 30  1  6
  7 31  1  0
  8 32  1  0
 10 33  1  0
 11 34  1  0
 13 35  1  0
 14 36  1  0
 15 37  1  0
 16 38  1  0
 18 39  1  0
 20 40  1  0
 21 41  1  0
 22 42  1  0
 23 43  1  0
 24 44  1  0
M  END
>  <UniqueID>  (38) 
34

>  <SMILES>  (38) 
C[C@H]1C(=O)S[C@@](C=Cc2ccc3ccccc3c2)(c2ccccc2)C1=O

>  <Energy>  (38) 
65.17488304983246

>  <Genealogy>  (38) 
C[C@H]1C(=O)S[C@@](C=Cc2ccc3ccccc3c2)(c2ccccc2)C1=O (chirality)
C[C@H]1C(=O)S[C@@](C=Cc2ccc3ccccc3c2)(c2ccccc2)C1=O (3D coordinates assigned)
C[C@H]1C(=O)S[C@@](C=Cc2ccc3ccccc3c2)(c2ccccc2)C1=O (nonaromatic ring conformer: 65.17488304983246 kcal/mol)

>  <smiles>  (38) 
CC1C(=O)SC(C=Cc2ccc3ccccc3c2)(c2ccccc2)C1=O

>  <score_type>  (38) 
oracle

>  <origin>  (38) 
adg

>  <m_score__min__energy>  (38) 
-9.4100000000000001

>  <m_primary>  (38) 
energy

$$$$
38:0
     RDKit          3D

 42 44  0  0  0  0  0  0  0  0999 V2000
   59.2760   34.9620   45.2270 C   0  0  0  0  0  0  0  0  0  0  0  0
   59.1380   33.6190   45.9750 C   0  0  2  0  0  0  0  0  0  0  0  0
   58.3380   32.6560   45.0890 C   0  0  0  0  0  0  0  0  0  0  0  0
   58.1840   32.9060   43.7080 C   0  0  0  0  0  0  0  0  0  0  0  0
   57.5110   31.9940   42.8880 C   0  0  0  0  0  0  0  0  0  0  0  0
   57.0130   30.8060   43.4220 C   0  0  0  0  0  0  0  0  0  0  0  0
   57.2010   30.5170   44.7740 C   0  0  0  0  0  0  0  0  0  0  0  0
   57.8730   31.4240   45.5980 C   0  0  0  0  0  0  0  0  0  0  0  0
   58.4720   33.8620   47.3590 C   0  0  0  0  0  0  0  0  0  0  0  0
   59.6280   33.9960   48.2680 C   0  0  0  0  0  0  0  0  0  0  0  0
   59.5490   34.4700   49.4320 O   0  0  0  0  0  0  0  0  0  0  0  0
   60.8390   33.5520   47.6830 N   0  0  0  0  0  0  0  0  0  0  0  0
   62.0750   33.3140   48.3800 C   0  0  0  0  0  0  0  0  0  0  0  0
   62.4670   34.1590   49.4310 C   0  0  0  0  0  0  0  0  0  0  0  0
   63.6710   33.9390   50.1060 C   0  0  0  0  0  0  0  0  0  0  0  0
   64.5020   32.8720   49.7390 C   0  0  0  0  0  0  0  0  0  0  0  0
   66.0270   32.6090   50.5770 S   0  0  0  0  0  0  0  0  0  0  0  0
   65.9970   33.4590   52.1380 C   0  0  0  0  0  0  0  0  0  0  0  0
   67.1630   33.1280   49.7430 O   0  0  0  0  0  0  0  0  0  0  0  0
   66.2320   31.1380   50.8100 O   0  0  0  0  0  0  0  0  0  0  0  0
   64.1250   32.0360   48.6820 C   0  0  0  0  0  0  0  0  0  0  0  0
   62.9210   32.2540   48.0070 C   0  0  0  0  0  0  0  0  0  0  0  0
   60.5570   33.0780   46.3360 C   0  0  0  0  0  0  0  0  0  0  0  0
   59.3602   35.7810   45.9565 H   0  0  0  0  0  0  0  0  0  0  0  0
   60.1765   34.9393   44.5957 H   0  0  0  0  0  0  0  0  0  0  0  0
   58.3897   35.1229   44.5957 H   0  0  0  0  0  0  0  0  0  0  0  0
   58.5975   33.8275   43.2723 H   0  0  0  0  0  0  0  0  0  0  0  0
   57.3743   32.2146   41.8191 H   0  0  0  0  0  0  0  0  0  0  0  0
   56.4723   30.0971   42.7777 H   0  0  0  0  0  0  0  0  0  0  0  0
   56.8197   29.5737   45.1920 H   0  0  0  0  0  0  0  0  0  0  0  0
   58.0417   31.1749   46.6561 H   0  0  0  0  0  0  0  0  0  0  0  0
   57.8677   34.7811   47.3505 H   0  0  0  0  0  0  0  0  0  0  0  0
   57.7812   33.0582   47.6535 H   0  0  0  0  0  0  0  0  0  0  0  0
   61.8219   35.0000   49.7251 H   0  0  0  0  0  0  0  0  0  0  0  0
   63.9675   34.6062   50.9288 H   0  0  0  0  0  0  0  0  0  0  0  0
   66.0229   32.7242   52.9562 H   0  0  0  0  0  0  0  0  0  0  0  0
   66.8723   34.1211   52.2119 H   0  0  0  0  0  0  0  0  0  0  0  0
   65.0772   34.0577   52.2119 H   0  0  0  0  0  0  0  0  0  0  0  0
   64.7789   31.2041   48.3813 H   0  0  0  0  0  0  0  0  0  0  0  0
   62.6326   31.5915   47.1776 H   0  0  0  0  0  0  0  0  0  0  0  0
   61.3051   33.4674   45.6298 H   0  0  0  0  0  0  0  0  0  0  0  0
   60.5947   31.9801   46.2802 H   0  0  0  0  0  0  0  0  0  0  0  0
  2  1  1  6
  2  3  1  0
  3  4  2  0
  4  5  1  0
  5  6  2  0
  6  7  1  0
  7  8  2  0
  2  9  1  0
  9 10  1  0
 10 11  2  0
 10 12  1  0
 12 13  1  0
 13 14  2  0
 14 15  1  0
 15 16  2  0
 16 17  1  0
 17 18  1  0
 17 19  2  0
 17 20  2  0
 16 21  1  0
 21 22  2  0
 12 23  1  0
 23  2  1  0
  8  3  1  0
 22 13  1  0
  1 24  1  0
  1 25  1  0
  1 26  1  0
  4 27  1  0
  5 28  1  0
  6 29  1  0
  7 30  1  0
  8 31  1  0
  9 32  1  0
  9 33  1  0
 14 34  1  0
 15 35  1  0
 18 36  1  0
 18 37  1  0
 18 38  1  0
 21 39  1  0
 22 40  1  0
 23 41  1  0
 23 42  1  0
M  END
>  <UniqueID>  (39) 
35

>  <SMILES>  (39) 
C[C@]1(c2ccccc2)CC(=O)N(c2ccc(S(C)(=O)=O)cc2)C1

>  <Energy>  (39) 
57.21698957121573

>  <Genealogy>  (39) 
C[C@]1(c2ccccc2)CC(=O)N(c2ccc(S(C)(=O)=O)cc2)C1 (chirality)
C[C@]1(c2ccccc2)CC(=O)N(c2ccc(S(C)(=O)=O)cc2)C1 (3D coordinates assigned)
C[C@]1(c2ccccc2)CC(=O)N(c2ccc(S(C)(=O)=O)cc2)C1 (nonaromatic ring conformer: 57.21698957121573 kcal/mol)

>  <smiles>  (39) 
CC1(c2ccccc2)CC(=O)N(c2ccc(S(C)(=O)=O)cc2)C1

>  <score_type>  (39) 
oracle

>  <origin>  (39) 
adg

>  <m_score__min__energy>  (39) 
-8.1600000000000001

>  <m_primary>  (39) 
energy

$$$$
39:0
     RDKit          3D

 20 21  0  0  0  0  0  0  0  0999 V2000
   55.8920   29.7130   43.3720 C   0  0  0  0  0  0  0  0  0  0  0  0
   56.7410   30.9090   43.6660 C   0  0  0  0  0  0  0  0  0  0  0  0
   57.3870   31.5900   42.6250 C   0  0  0  0  0  0  0  0  0  0  0  0
   58.1760   32.7050   42.9160 C   0  0  0  0  0  0  0  0  0  0  0  0
   58.3160   33.1320   44.2420 C   0  0  0  0  0  0  0  0  0  0  0  0
   59.1010   34.2470   44.5700 C   0  0  0  0  0  0  0  0  0  0  0  0
   59.2210   34.6490   45.9040 C   0  0  0  0  0  0  0  0  0  0  0  0
   58.5600   33.9410   46.9150 C   0  0  0  0  0  0  0  0  0  0  0  0
   57.7750   32.8280   46.5960 C   0  0  0  0  0  0  0  0  0  0  0  0
   57.6490   32.4190   45.2640 C   0  0  0  0  0  0  0  0  0  0  0  0
   56.8870   31.3370   44.9500 N   0  0  0  0  0  0  0  0  0  0  0  0
   55.5659   29.2536   44.3168 H   0  0  0  0  0  0  0  0  0  0  0  0
   55.0105   30.0228   42.7915 H   0  0  0  0  0  0  0  0  0  0  0  0
   56.4753   28.9830   42.7915 H   0  0  0  0  0  0  0  0  0  0  0  0
   57.2732   31.2484   41.5856 H   0  0  0  0  0  0  0  0  0  0  0  0
   58.6861   33.2463   42.1056 H   0  0  0  0  0  0  0  0  0  0  0  0
   59.6221   34.8051   43.7782 H   0  0  0  0  0  0  0  0  0  0  0  0
   59.8365   35.5240   46.1598 H   0  0  0  0  0  0  0  0  0  0  0  0
   58.6582   34.2608   47.9629 H   0  0  0  0  0  0  0  0  0  0  0  0
   57.2566   32.2742   47.3926 H   0  0  0  0  0  0  0  0  0  0  0  0
  1  2  1  0
  2  3  2  0
  3  4  1  0
  4  5  2  0
  5  6  1  0
  6  7  2  0
  7  8  1  0
  8  9  2  0
  9 10  1  0
 10 11  2  0
 11  2  1  0
 10  5  1  0
  1 12  1  0
  1 13  1  0
  1 14  1  0
  3 15  1  0
  4 16  1  0
  6 17  1  0
  7 18  1  0
  8 19  1  0
  9 20  1  0
M  END
>  <UniqueID>  (40) 
36

>  <SMILES>  (40) 
Cc1ccc2ccccc2n1

>  <Energy>  (40) 
22.39645573297265

>  <Genealogy>  (40) 
Cc1ccc2ccccc2n1 (3D coordinates assigned)
Cc1ccc2ccccc2n1 (optimized conformer: 22.39645573297265 kcal/mol)

>  <smiles>  (40) 
Cc1ccc2ccccc2n1

>  <score_type>  (40) 
oracle

>  <origin>  (40) 
adg

>  <m_score__min__energy>  (40) 
-5.9400000000000004

>  <m_primary>  (40) 
energy

$$$$
40:0
     RDKit          3D

 29 30  0  0  1  0  0  0  0  0999 V2000
   59.6830   34.8510   49.2570 N   0  0  0  0  0  0  0  0  0  0  0  0
   58.4180   33.6930   46.1780 C   0  0  0  0  0  0  0  0  0  0  0  0
   59.7520   32.7570   48.3380 C   0  0  0  0  0  0  0  0  0  0  0  0
   59.4300   31.9290   47.2840 C   0  0  0  0  0  0  0  0  0  0  0  0
   58.7690   32.3970   46.2160 N   0  0  0  0  0  0  0  0  0  0  0  0
   58.4230   31.5530   45.1080 C   0  0  2  0  0  0  0  0  0  0  0  0
   57.0220   31.3660   45.0520 O   0  0  0  0  0  0  0  0  0  0  0  0
   56.9120   30.4660   44.0120 C   0  0  2  0  0  0  0  0  0  0  0  0
   55.5470   29.8430   43.9970 C   0  0  0  0  0  0  0  0  0  0  0  0
   55.1480   29.3470   45.2270 O   0  0  0  0  0  0  0  0  0  0  0  0
   58.0310   29.4910   44.1300 C   0  0  2  0  0  0  0  0  0  0  0  0
   57.6830   28.2240   44.5000 O   0  0  0  0  0  0  0  0  0  0  0  0
   58.8720   30.1230   45.2500 C   0  0  2  0  0  0  0  0  0  0  0  0
   58.4390   29.6440   46.4700 F   0  0  0  0  0  0  0  0  0  0  0  0
   59.3800   34.0820   48.2730 C   0  0  0  0  0  0  0  0  0  0  0  0
   57.7960   34.1610   45.1850 O   0  0  0  0  0  0  0  0  0  0  0  0
   58.7250   34.5270   47.2040 N   0  0  0  0  0  0  0  0  0  0  0  0
   59.1550   35.7330   49.4240 H   0  0  0  0  0  0  0  0  0  0  0  0
   60.2944   32.3681   49.2124 H   0  0  0  0  0  0  0  0  0  0  0  0
   59.7198   30.8685   47.3199 H   0  0  0  0  0  0  0  0  0  0  0  0
   58.8896   32.0639   44.2529 H   0  0  0  0  0  0  0  0  0  0  0  0
   57.0051   30.9621   43.0346 H   0  0  0  0  0  0  0  0  0  0  0  0
   54.8209   30.6051   43.6777 H   0  0  0  0  0  0  0  0  0  0  0  0
   55.5909   28.9892   43.3049 H   0  0  0  0  0  0  0  0  0  0  0  0
   55.6060   29.7310   45.9950 H   0  0  0  0  0  0  0  0  0  0  0  0
   58.5176   29.3448   43.1544 H   0  0  0  0  0  0  0  0  0  0  0  0
   56.7160   28.1030   44.3240 H   0  0  0  0  0  0  0  0  0  0  0  0
   59.9558   29.9439   45.1933 H   0  0  0  0  0  0  0  0  0  0  0  0
   58.4580   35.5400   47.1870 H   0  0  0  0  0  0  0  0  0  0  0  0
  1  2  2  3
  2  3  1  0
  3  4  2  0
  4  5  1  0
  5  6  1  0
  6  7  1  0
  7  8  1  0
  8  9  1  0
  9 10  1  0
  8 11  1  0
 11 12  1  0
 11 13  1  0
 13 14  1  0
  5 15  1  0
 15 16  2  0
 15 17  1  0
 17  2  1  0
 13  6  1  0
  1 18  1  0
  3 19  1  0
  4 20  1  0
  6 21  1  6
  8 22  1  6
  9 23  1  0
  9 24  1  0
 10 25  1  0
 11 26  1  6
 12 27  1  0
 13 28  1  6
 17 29  1  0
M  END
>  <smiles>  (41) 
N=c1ccn(C2OC(CO)C(O)C2F)c(=O)[nH]1

>  <score_type>  (41) 
oracle

>  <origin>  (41) 
adg

>  <m_score__min__energy>  (41) 
-6.2999999999999998

>  <m_primary>  (41) 
energy

$$$$
41:0
     RDKit          3D

 39 40  0  0  0  0  0  0  0  0999 V2000
   57.7930   33.0230   44.3110 C   0  0  0  0  0  0  0  0  0  0  0  0
   57.3940   32.2530   45.5670 C   0  0  0  0  0  0  0  0  0  0  0  0
   57.1580   30.8250   45.2510 N   0  0  0  0  0  0  0  0  0  0  0  0
   56.6770   30.6830   43.8570 C   0  0  0  0  0  0  0  0  0  0  0  0
   55.4870   29.7290   43.7580 C   0  0  0  0  0  0  0  0  0  0  0  0
   58.3800   30.0160   45.5010 C   0  0  0  0  0  0  0  0  0  0  0  0
   58.1270   28.5650   45.1800 C   0  0  0  0  0  0  0  0  0  0  0  0
   58.3680   28.0680   43.8900 C   0  0  0  0  0  0  0  0  0  0  0  0
   58.1500   26.7190   43.5990 C   0  0  0  0  0  0  0  0  0  0  0  0
   57.7000   25.8370   44.5970 C   0  0  0  0  0  0  0  0  0  0  0  0
   57.4660   24.4030   44.2880 C   0  0  0  0  0  0  0  0  0  0  0  0
   58.2180   23.4000   44.9300 C   0  0  0  0  0  0  0  0  0  0  0  0
   57.9960   22.0510   44.6370 C   0  0  0  0  0  0  0  0  0  0  0  0
   57.0230   21.6880   43.7040 C   0  0  0  0  0  0  0  0  0  0  0  0
   56.2690   22.6730   43.0610 C   0  0  0  0  0  0  0  0  0  0  0  0
   56.4870   24.0220   43.3490 C   0  0  0  0  0  0  0  0  0  0  0  0
   57.4790   26.3330   45.8940 C   0  0  0  0  0  0  0  0  0  0  0  0
   57.6950   27.6830   46.1840 C   0  0  0  0  0  0  0  0  0  0  0  0
   58.2815   33.9657   44.5985 H   0  0  0  0  0  0  0  0  0  0  0  0
   58.4900   32.4159   43.7146 H   0  0  0  0  0  0  0  0  0  0  0  0
   56.8951   33.2423   43.7146 H   0  0  0  0  0  0  0  0  0  0  0  0
   58.2015   32.3301   46.3099 H   0  0  0  0  0  0  0  0  0  0  0  0
   56.4653   32.6854   45.9677 H   0  0  0  0  0  0  0  0  0  0  0  0
   56.3719   31.6718   43.4838 H   0  0  0  0  0  0  0  0  0  0  0  0
   57.4978   30.2671   43.2543 H   0  0  0  0  0  0  0  0  0  0  0  0
   55.1491   29.4581   44.7692 H   0  0  0  0  0  0  0  0  0  0  0  0
   54.6659   30.2219   43.2168 H   0  0  0  0  0  0  0  0  0  0  0  0
   55.7895   28.8204   43.2168 H   0  0  0  0  0  0  0  0  0  0  0  0
   59.1976   30.3898   44.8671 H   0  0  0  0  0  0  0  0  0  0  0  0
   58.6534   30.1031   46.5629 H   0  0  0  0  0  0  0  0  0  0  0  0
   58.7310   28.7450   43.1027 H   0  0  0  0  0  0  0  0  0  0  0  0
   58.3319   26.3441   42.5810 H   0  0  0  0  0  0  0  0  0  0  0  0
   58.9852   23.6799   45.6669 H   0  0  0  0  0  0  0  0  0  0  0  0
   58.5889   21.2745   45.1424 H   0  0  0  0  0  0  0  0  0  0  0  0
   56.8499   20.6261   43.4750 H   0  0  0  0  0  0  0  0  0  0  0  0
   55.5023   22.3854   42.3266 H   0  0  0  0  0  0  0  0  0  0  0  0
   55.8902   24.7926   42.8392 H   0  0  0  0  0  0  0  0  0  0  0  0
   57.1334   25.6531   46.6867 H   0  0  0  0  0  0  0  0  0  0  0  0
   57.5257   28.0569   47.2045 H   0  0  0  0  0  0  0  0  0  0  0  0
  1  2  1  0
  2  3  1  0
  3  4  1  0
  4  5  1  0
  3  6  1  0
  6  7  1  0
  7  8  2  0
  8  9  1  0
  9 10  2  0
 10 11  1  0
 11 12  2  0
 12 13  1  0
 13 14  2  0
 14 15  1  0
 15 16  2  0
 10 17  1  0
 17 18  2  0
 18  7  1  0
 16 11  1  0
  1 19  1  0
  1 20  1  0
  1 21  1  0
  2 22  1  0
  2 23  1  0
  4 24  1  0
  4 25  1  0
  5 26  1  0
  5 27  1  0
  5 28  1  0
  6 29  1  0
  6 30  1  0
  8 31  1  0
  9 32  1  0
 12 33  1  0
 13 34  1  0
 14 35  1  0
 15 36  1  0
 16 37  1  0
 17 38  1  0
 18 39  1  0
M  END
>  <UniqueID>  (42) 
37

>  <SMILES>  (42) 
CCN(CC)Cc1ccc(-c2ccccc2)cc1

>  <Energy>  (42) 
43.595195148263336

>  <Genealogy>  (42) 
CCN(CC)Cc1ccc(-c2ccccc2)cc1 (3D coordinates assigned)
CCN(CC)Cc1ccc(-c2ccccc2)cc1 (optimized conformer: 43.595195148263336 kcal/mol)

>  <smiles>  (42) 
CCN(CC)Cc1ccc(-c2ccccc2)cc1

>  <score_type>  (42) 
oracle

>  <origin>  (42) 
adg

>  <m_score__min__energy>  (42) 
-6.6299999999999999

>  <m_primary>  (42) 
energy

$$$$
42:0
     RDKit          3D

 38 41  0  0  0  0  0  0  0  0999 V2000
   65.0100   33.4570   49.7130 F   0  0  0  0  0  0  0  0  0  0  0  0
   63.9890   32.8130   49.0840 C   0  0  0  0  0  0  0  0  0  0  0  0
   63.1700   31.9450   49.8030 C   0  0  0  0  0  0  0  0  0  0  0  0
   62.1430   31.3010   49.1400 C   0  0  0  0  0  0  0  0  0  0  0  0
   61.9050   31.4950   47.7790 C   0  0  0  0  0  0  0  0  0  0  0  0
   60.8180   30.7600   47.1590 C   0  0  0  0  0  0  0  0  0  0  0  0
   60.7380   29.4010   47.2440 N   0  0  0  0  0  0  0  0  0  0  0  0
   59.6510   28.9670   46.5830 C   0  0  0  0  0  0  0  0  0  0  0  0
   59.1830   27.5990   46.4230 C   0  0  0  0  0  0  0  0  0  0  0  0
   60.0780   26.5720   46.2180 C   0  0  0  0  0  0  0  0  0  0  0  0
   59.5960   25.2980   46.0630 C   0  0  0  0  0  0  0  0  0  0  0  0
   58.2300   25.0890   46.1180 C   0  0  0  0  0  0  0  0  0  0  0  0
   57.6440   23.4520   45.9170 Cl  0  0  0  0  0  0  0  0  0  0  0  0
   57.3260   26.1100   46.3220 C   0  0  0  0  0  0  0  0  0  0  0  0
   57.8030   27.3860   46.4770 C   0  0  0  0  0  0  0  0  0  0  0  0
   59.0490   30.0610   46.0840 N   0  0  0  0  0  0  0  0  0  0  0  0
   59.7470   31.1820   46.4230 C   0  0  0  0  0  0  0  0  0  0  0  0
   59.3210   32.5050   46.0210 C   0  0  0  0  0  0  0  0  0  0  0  0
   58.2190   32.5740   45.1570 C   0  0  0  0  0  0  0  0  0  0  0  0
   57.7850   33.8190   44.7380 C   0  0  0  0  0  0  0  0  0  0  0  0
   58.3680   34.9680   45.1200 N   0  0  0  0  0  0  0  0  0  0  0  0
   59.4410   34.9210   45.9620 C   0  0  0  0  0  0  0  0  0  0  0  0
   59.9120   33.6800   46.4090 C   0  0  0  0  0  0  0  0  0  0  0  0
   62.7280   32.3570   47.0960 C   0  0  0  0  0  0  0  0  0  0  0  0
   63.7820   33.0330   47.7220 C   0  0  0  0  0  0  0  0  0  0  0  0
   63.3376   31.7758   50.8769 H   0  0  0  0  0  0  0  0  0  0  0  0
   61.4932   30.6144   49.7024 H   0  0  0  0  0  0  0  0  0  0  0  0
   61.3940   28.7530   47.7310 H   0  0  0  0  0  0  0  0  0  0  0  0
   61.1593   26.7705   46.1794 H   0  0  0  0  0  0  0  0  0  0  0  0
   60.2843   24.4560   45.8976 H   0  0  0  0  0  0  0  0  0  0  0  0
   56.2459   25.9053   46.3596 H   0  0  0  0  0  0  0  0  0  0  0  0
   57.1123   28.2263   46.6408 H   0  0  0  0  0  0  0  0  0  0  0  0
   57.7108   31.6586   44.8198 H   0  0  0  0  0  0  0  0  0  0  0  0
   56.9209   33.8709   44.0593 H   0  0  0  0  0  0  0  0  0  0  0  0
   59.9319   35.8502   46.2870 H   0  0  0  0  0  0  0  0  0  0  0  0
   60.7770   33.6471   47.0878 H   0  0  0  0  0  0  0  0  0  0  0  0
   62.5532   32.5214   46.0225 H   0  0  0  0  0  0  0  0  0  0  0  0
   64.4292   33.7188   47.1556 H   0  0  0  0  0  0  0  0  0  0  0  0
  1  2  1  0
  2  3  2  0
  3  4  1  0
  4  5  2  0
  5  6  1  0
  6  7  1  0
  7  8  1  0
  8  9  1  0
  9 10  2  0
 10 11  1  0
 11 12  2  0
 12 13  1  0
 12 14  1  0
 14 15  2  0
  8 16  2  0
 16 17  1  0
 17 18  1  0
 18 19  2  0
 19 20  1  0
 20 21  2  0
 21 22  1  0
 22 23  2  0
  5 24  1  0
 24 25  2  0
 25  2  1  0
 17  6  2  0
 23 18  1  0
 15  9  1  0
  3 26  1  0
  4 27  1  0
  7 28  1  0
 10 29  1  0
 11 30  1  0
 14 31  1  0
 15 32  1  0
 19 33  1  0
 20 34  1  0
 22 35  1  0
 23 36  1  0
 24 37  1  0
 25 38  1  0
M  END
>  <smiles>  (43) 
Fc1ccc(-c2[nH]c(-c3ccc(Cl)cc3)nc2-c2ccncc2)cc1

>  <score_type>  (43) 
oracle

>  <origin>  (43) 
adg

>  <m_score__min__energy>  (43) 
-7.0999999999999996

>  <m_primary>  (43) 
energy

$$$$
43:0
     RDKit          3D

 62 65  0  0  0  0  0  0  0  0999 V2000
   56.3290   29.4140   42.6180 C   0  0  0  0  0  0  0  0  0  0  0  0
   55.5350   29.9800   43.7850 C   0  0  0  0  0  0  0  0  0  0  0  0
   56.3960   30.6160   44.7260 O   0  0  0  0  0  0  0  0  0  0  0  0
   57.3930   31.5370   44.3780 C   0  0  0  0  0  0  0  0  0  0  0  0
   57.5610   31.8360   43.1640 O   0  0  0  0  0  0  0  0  0  0  0  0
   58.2990   32.0960   45.4300 C   0  0  0  0  0  0  0  0  0  0  0  0
   58.1840   33.3830   45.8530 C   0  0  0  0  0  0  0  0  0  0  0  0
   56.9980   34.2470   45.5260 C   0  0  0  0  0  0  0  0  0  0  0  0
   59.2640   34.0150   46.5520 N   0  0  0  0  0  0  0  0  0  0  0  0
   60.2720   33.3820   47.0630 C   0  0  0  0  0  0  0  0  0  0  0  0
   61.3840   34.2060   47.6830 C   0  0  0  0  0  0  0  0  0  0  0  0
   62.6530   33.4010   48.0680 C   0  0  1  0  0  0  0  0  0  0  0  0
   62.7050   32.9490   49.5250 C   0  0  0  0  0  0  0  0  0  0  0  0
   63.7540   32.1040   49.9300 C   0  0  0  0  0  0  0  0  0  0  0  0
   63.7860   31.5710   51.2210 C   0  0  0  0  0  0  0  0  0  0  0  0
   62.7680   31.8630   52.1340 C   0  0  0  0  0  0  0  0  0  0  0  0
   62.8330   31.2860   53.4130 O   0  0  0  0  0  0  0  0  0  0  0  0
   63.1690   31.9970   54.6000 C   0  0  0  0  0  0  0  0  0  0  0  0
   61.7160   32.7130   51.7420 C   0  0  0  0  0  0  0  0  0  0  0  0
   61.6820   33.2460   50.4500 C   0  0  0  0  0  0  0  0  0  0  0  0
   62.8580   32.2100   47.1220 C   0  0  0  0  0  0  0  0  0  0  0  0
   61.6680   31.3030   47.2000 C   0  0  0  0  0  0  0  0  0  0  0  0
   61.8320   30.1080   47.4000 O   0  0  0  0  0  0  0  0  0  0  0  0
   60.2650   31.8670   47.0970 C   0  0  2  0  0  0  0  0  0  0  0  0
   59.5060   31.2630   45.8770 C   0  0  1  0  0  0  0  0  0  0  0  0
   59.0960   29.8360   46.2190 C   0  0  0  0  0  0  0  0  0  0  0  0
   58.9100   29.4480   47.5570 C   0  0  0  0  0  0  0  0  0  0  0  0
   58.5250   28.1400   47.8650 C   0  0  0  0  0  0  0  0  0  0  0  0
   58.3160   27.2080   46.8430 C   0  0  0  0  0  0  0  0  0  0  0  0
   58.4950   27.5720   45.5030 C   0  0  0  0  0  0  0  0  0  0  0  0
   58.2700   26.6050   44.5110 O   0  0  0  0  0  0  0  0  0  0  0  0
   58.1470   26.8950   43.1220 C   0  0  0  0  0  0  0  0  0  0  0  0
   58.8880   28.8900   45.1950 C   0  0  0  0  0  0  0  0  0  0  0  0
   57.1685   28.8156   43.0016 H   0  0  0  0  0  0  0  0  0  0  0  0
   55.6751   28.7772   42.0041 H   0  0  0  0  0  0  0  0  0  0  0  0
   56.7178   30.2399   42.0041 H   0  0  0  0  0  0  0  0  0  0  0  0
   54.8111   30.7158   43.4048 H   0  0  0  0  0  0  0  0  0  0  0  0
   55.0138   29.1528   44.2891 H   0  0  0  0  0  0  0  0  0  0  0  0
   56.5264   34.5906   46.4585 H   0  0  0  0  0  0  0  0  0  0  0  0
   57.3287   35.1173   44.9401 H   0  0  0  0  0  0  0  0  0  0  0  0
   56.2711   33.6654   44.9401 H   0  0  0  0  0  0  0  0  0  0  0  0
   61.6773   34.9828   46.9615 H   0  0  0  0  0  0  0  0  0  0  0  0
   60.9803   34.6150   48.6210 H   0  0  0  0  0  0  0  0  0  0  0  0
   63.4862   34.1098   47.9527 H   0  0  0  0  0  0  0  0  0  0  0  0
   64.5592   31.8598   49.2214 H   0  0  0  0  0  0  0  0  0  0  0  0
   64.6179   30.9170   51.5214 H   0  0  0  0  0  0  0  0  0  0  0  0
   62.8861   31.3984   55.4784 H   0  0  0  0  0  0  0  0  0  0  0  0
   64.2523   32.1872   54.6193 H   0  0  0  0  0  0  0  0  0  0  0  0
   62.6282   32.9547   54.6193 H   0  0  0  0  0  0  0  0  0  0  0  0
   60.9165   32.9590   52.4563 H   0  0  0  0  0  0  0  0  0  0  0  0
   60.8509   33.9022   50.1523 H   0  0  0  0  0  0  0  0  0  0  0  0
   62.9739   32.5757   46.0911 H   0  0  0  0  0  0  0  0  0  0  0  0
   63.7619   31.6570   47.4174 H   0  0  0  0  0  0  0  0  0  0  0  0
   59.7190   31.5713   48.0050 H   0  0  0  0  0  0  0  0  0  0  0  0
   60.1909   31.2699   45.0162 H   0  0  0  0  0  0  0  0  0  0  0  0
   59.0681   30.1769   48.3655 H   0  0  0  0  0  0  0  0  0  0  0  0
   58.3859   27.8425   48.9148 H   0  0  0  0  0  0  0  0  0  0  0  0
   58.0089   26.1820   47.0939 H   0  0  0  0  0  0  0  0  0  0  0  0
   57.7204   27.9008   42.9938 H   0  0  0  0  0  0  0  0  0  0  0  0
   59.1396   26.8548   42.6497 H   0  0  0  0  0  0  0  0  0  0  0  0
   57.4859   26.1534   42.6497 H   0  0  0  0  0  0  0  0  0  0  0  0
   59.0339   29.1833   44.1449 H   0  0  0  0  0  0  0  0  0  0  0  0
  1  2  1  0
  2  3  1  0
  3  4  1  0
  4  5  2  0
  4  6  1  0
  6  7  2  0
  7  8  1  0
  7  9  1  0
  9 10  2  0
 10 11  1  0
 11 12  1  0
 12 13  1  0
 13 14  2  0
 14 15  1  0
 15 16  2  0
 16 17  1  0
 17 18  1  0
 16 19  1  0
 19 20  2  0
 12 21  1  0
 21 22  1  0
 22 23  2  0
 22 24  1  0
 24 25  1  0
 25 26  1  0
 26 27  2  0
 27 28  1  0
 28 29  2  0
 29 30  1  0
 30 31  1  0
 31 32  1  0
 30 33  2  0
 25  6  1  0
 33 26  1  0
 24 10  1  0
 20 13  1  0
  1 34  1  0
  1 35  1  0
  1 36  1  0
  2 37  1  0
  2 38  1  0
  8 39  1  0
  8 40  1  0
  8 41  1  0
 11 42  1  0
 11 43  1  0
 12 44  1  1
 14 45  1  0
 15 46  1  0
 18 47  1  0
 18 48  1  0
 18 49  1  0
 19 50  1  0
 20 51  1  0
 21 52  1  0
 21 53  1  0
 24 54  1  1
 25 55  1  6
 27 56  1  0
 28 57  1  0
 29 58  1  0
 32 59  1  0
 32 60  1  0
 32 61  1  0
 33 62  1  0
M  END
>  <UniqueID>  (44) 
38

>  <SMILES>  (44) 
CCOC(=O)C1=C(C)N=C2C[C@@H](c3ccc(OC)cc3)CC(=O)[C@@H]2C1c1cccc(OC)c1

>  <Energy>  (44) 
74.25608540919023

>  <Genealogy>  (44) 
CCOC(=O)C1=C(C)N=C2C[C@@H](c3ccc(OC)cc3)CC(=O)[C@@H]2C1c1cccc(OC)c1 (chirality)
CCOC(=O)C1=C(C)N=C2C[C@@H](c3ccc(OC)cc3)CC(=O)[C@@H]2C1c1cccc(OC)c1 (3D coordinates assigned)
CCOC(=O)C1=C(C)N=C2C[C@@H](c3ccc(OC)cc3)CC(=O)[C@@H]2C1c1cccc(OC)c1 (nonaromatic ring conformer: 74.25608540919023 kcal/mol)

>  <smiles>  (44) 
CCOC(=O)C1=C(C)N=C2CC(c3ccc(OC)cc3)CC(=O)C2C1c1cccc(OC)c1

>  <score_type>  (44) 
oracle

>  <origin>  (44) 
adg

>  <m_score__min__energy>  (44) 
-8.7100000000000009

>  <m_primary>  (44) 
energy

$$$$
44:0
     RDKit          3D

 36 37  0  0  0  0  0  0  0  0999 V2000
   59.2700   34.8110   45.8480 C   0  0  0  0  0  0  0  0  0  0  0  0
   58.3060   33.8030   45.3200 C   0  0  0  0  0  0  0  0  0  0  0  0
   57.1330   33.3770   45.9130 C   0  0  0  0  0  0  0  0  0  0  0  0
   56.6130   32.3680   45.1860 N   0  0  0  0  0  0  0  0  0  0  0  0
   57.4220   32.1560   44.1580 N   0  0  0  0  0  0  0  0  0  0  0  0
   57.2500   31.0640   43.2030 C   0  0  0  0  0  0  0  0  0  0  0  0
   56.1830   30.0920   43.7020 C   0  0  0  0  0  0  0  0  0  0  0  0
   56.4540   29.7340   45.1030 N   0  0  0  0  0  0  0  0  0  0  0  0
   57.6350   28.8720   45.2260 C   0  0  0  0  0  0  0  0  0  0  0  0
   58.7360   29.6070   45.9340 C   0  0  0  0  0  0  0  0  0  0  0  0
   58.5900   30.5110   46.9660 C   0  0  0  0  0  0  0  0  0  0  0  0
   59.8190   30.9010   47.3550 N   0  0  0  0  0  0  0  0  0  0  0  0
   60.1170   31.7890   48.4690 C   0  0  0  0  0  0  0  0  0  0  0  0
   60.7440   30.2770   46.6420 N   0  0  0  0  0  0  0  0  0  0  0  0
   60.1060   29.4880   45.7560 C   0  0  0  0  0  0  0  0  0  0  0  0
   60.8060   28.6000   44.7810 C   0  0  0  0  0  0  0  0  0  0  0  0
   58.4730   32.9960   44.2170 C   0  0  0  0  0  0  0  0  0  0  0  0
   59.2532   34.7935   46.9477 H   0  0  0  0  0  0  0  0  0  0  0  0
   60.2830   34.5707   45.4929 H   0  0  0  0  0  0  0  0  0  0  0  0
   58.9848   35.8123   45.4929 H   0  0  0  0  0  0  0  0  0  0  0  0
   56.6939   33.7943   46.8312 H   0  0  0  0  0  0  0  0  0  0  0  0
   56.9405   31.4762   42.2312 H   0  0  0  0  0  0  0  0  0  0  0  0
   58.2038   30.5267   43.0956 H   0  0  0  0  0  0  0  0  0  0  0  0
   55.1935   30.5673   43.6310 H   0  0  0  0  0  0  0  0  0  0  0  0
   56.2013   29.1824   43.0837 H   0  0  0  0  0  0  0  0  0  0  0  0
   56.6380   30.6170   45.6340 H   0  0  0  0  0  0  0  0  0  0  0  0
   57.3705   27.9716   45.7998 H   0  0  0  0  0  0  0  0  0  0  0  0
   57.9796   28.5864   44.2212 H   0  0  0  0  0  0  0  0  0  0  0  0
   57.6370   30.8532   47.3957 H   0  0  0  0  0  0  0  0  0  0  0  0
   59.9395   31.2602   49.4171 H   0  0  0  0  0  0  0  0  0  0  0  0
   61.1698   32.1032   48.4159 H   0  0  0  0  0  0  0  0  0  0  0  0
   59.4669   32.6747   48.4159 H   0  0  0  0  0  0  0  0  0  0  0  0
   61.3972   27.8501   45.3270 H   0  0  0  0  0  0  0  0  0  0  0  0
   60.0629   28.0918   44.1488 H   0  0  0  0  0  0  0  0  0  0  0  0
   61.4736   29.2039   44.1488 H   0  0  0  0  0  0  0  0  0  0  0  0
   59.3149   33.0311   43.5099 H   0  0  0  0  0  0  0  0  0  0  0  0
  1  2  1  0
  2  3  1  0
  3  4  2  0
  4  5  1  0
  5  6  1  0
  6  7  1  0
  7  8  1  0
  8  9  1  0
  9 10  1  0
 10 11  2  0
 11 12  1  0
 12 13  1  0
 12 14  1  0
 14 15  2  0
 15 16  1  0
  5 17  1  0
 17  2  2  0
 15 10  1  0
  1 18  1  0
  1 19  1  0
  1 20  1  0
  3 21  1  0
  6 22  1  0
  6 23  1  0
  7 24  1  0
  7 25  1  0
  8 26  1  0
  9 27  1  0
  9 28  1  0
 11 29  1  0
 13 30  1  0
 13 31  1  0
 13 32  1  0
 16 33  1  0
 16 34  1  0
 16 35  1  0
 17 36  1  0
M  END
>  <UniqueID>  (45) 
39

>  <SMILES>  (45) 
Cc1cnn(CCNCc2cn(C)nc2C)c1

>  <Energy>  (45) 
83.90813243845305

>  <Genealogy>  (45) 
Cc1cnn(CCNCc2cn(C)nc2C)c1 (3D coordinates assigned)
Cc1cnn(CCNCc2cn(C)nc2C)c1 (optimized conformer: 83.90813243845305 kcal/mol)

>  <smiles>  (45) 
Cc1cnn(CCNCc2cn(C)nc2C)c1

>  <score_type>  (45) 
oracle

>  <origin>  (45) 
adg

>  <m_score__min__energy>  (45) 
-6.3200000000000003

>  <m_primary>  (45) 
energy

$$$$
45:0
     RDKit          3D

 38 40  0  0  0  0  0  0  0  0999 V2000
   56.3030   20.7430   43.3890 N   0  0  0  0  0  0  0  0  0  0  0  0
   56.6180   21.9270   43.8530 C   0  0  0  0  0  0  0  0  0  0  0  0
   56.8280   22.9050   42.9520 N   0  0  0  0  0  0  0  0  0  0  0  0
   57.1550   24.1410   43.4040 C   0  0  0  0  0  0  0  0  0  0  0  0
   57.3740   25.1360   42.6150 N   0  0  0  0  0  0  0  0  0  0  0  0
   57.2640   24.3600   44.7820 C   0  0  0  0  0  0  0  0  0  0  0  0
   57.5900   25.5860   45.2530 N   0  0  0  0  0  0  0  0  0  0  0  0
   57.6970   25.8060   46.5840 C   0  0  0  0  0  0  0  0  0  0  0  0
   58.0600   27.1810   47.0750 C   0  0  0  0  0  0  0  0  0  0  0  0
   58.5530   27.9250   45.9360 N   0  0  0  0  0  0  0  0  0  0  0  0
   58.5470   29.3470   45.9810 C   0  0  0  0  0  0  0  0  0  0  0  0
   59.1300   30.0360   47.0230 C   0  0  0  0  0  0  0  0  0  0  0  0
   59.1040   31.4290   47.0340 C   0  0  0  0  0  0  0  0  0  0  0  0
   58.5130   32.1680   46.0360 C   0  0  0  0  0  0  0  0  0  0  0  0
   58.4650   33.9080   46.0250 S   0  0  0  0  0  0  0  0  0  0  0  0
   59.8800   34.8480   47.4600 F   0  0  0  0  0  0  0  0  0  0  0  0
   57.6080   34.8350   44.6010 F   0  0  0  0  0  0  0  0  0  0  0  0
   56.6630   34.6190   45.1570 F   0  0  0  0  0  0  0  0  0  0  0  0
   58.8820   35.0730   47.2710 F   0  0  0  0  0  0  0  0  0  0  0  0
   58.5600   35.0860   44.9750 F   0  0  0  0  0  0  0  0  0  0  0  0
   57.9270   31.4760   44.9910 C   0  0  0  0  0  0  0  0  0  0  0  0
   57.9580   30.0970   44.9880 C   0  0  0  0  0  0  0  0  0  0  0  0
   57.4760   24.7820   47.4940 C   0  0  0  0  0  0  0  0  0  0  0  0
   57.1500   23.5590   47.0090 N   0  0  0  0  0  0  0  0  0  0  0  0
   57.0420   23.3350   45.6810 C   0  0  0  0  0  0  0  0  0  0  0  0
   56.7170   22.1140   45.1820 N   0  0  0  0  0  0  0  0  0  0  0  0
   56.9880   19.9670   43.5150 H   0  0  0  0  0  0  0  0  0  0  0  0
   56.7450   22.7360   41.9190 H   0  0  0  0  0  0  0  0  0  0  0  0
   57.1370   26.0840   42.9990 H   0  0  0  0  0  0  0  0  0  0  0  0
   57.1728   27.6779   47.4945 H   0  0  0  0  0  0  0  0  0  0  0  0
   58.8232   27.1249   47.8652 H   0  0  0  0  0  0  0  0  0  0  0  0
   58.9180   27.4600   45.0750 H   0  0  0  0  0  0  0  0  0  0  0  0
   59.6147   29.4872   47.8439 H   0  0  0  0  0  0  0  0  0  0  0  0
   59.5752   31.9591   47.8748 H   0  0  0  0  0  0  0  0  0  0  0  0
   57.4402   32.0213   44.1690 H   0  0  0  0  0  0  0  0  0  0  0  0
   57.4866   29.5679   44.1467 H   0  0  0  0  0  0  0  0  0  0  0  0
   57.5628   24.9575   48.5764 H   0  0  0  0  0  0  0  0  0  0  0  0
   56.5460   21.3280   45.8530 H   0  0  0  0  0  0  0  0  0  0  0  0
  1  2  2  3
  2  3  1  0
  3  4  1  0
  4  5  2  3
  4  6  1  0
  6  7  2  0
  7  8  1  0
  8  9  1  0
  9 10  1  0
 10 11  1  0
 11 12  2  0
 12 13  1  0
 13 14  2  0
 14 15  1  0
 15 16  1  0
 15 17  1  0
 15 18  1  0
 15 19  1  0
 15 20  1  0
 14 21  1  0
 21 22  2  0
  8 23  2  0
 23 24  1  0
 24 25  2  0
 25 26  1  0
 26  2  1  0
 25  6  1  0
 22 11  1  0
  1 27  1  0
  3 28  1  0
  5 29  1  0
  9 30  1  0
  9 31  1  0
 10 32  1  0
 12 33  1  0
 13 34  1  0
 21 35  1  0
 22 36  1  0
 23 37  1  0
 26 38  1  0
M  END
>  <smiles>  (46) 
N=c1[nH]c(=N)c2nc(CNc3ccc(S(F)(F)(F)(F)F)cc3)cnc2[nH]1

>  <score_type>  (46) 
oracle

>  <origin>  (46) 
adg

>  <m_score__min__energy>  (46) 
-7.25

>  <m_primary>  (46) 
energy

$$$$
46:0
     RDKit          3D

 33 34  0  0  0  0  0  0  0  0999 V2000
   59.9360   34.5520   48.8560 C   0  0  0  0  0  0  0  0  0  0  0  0
   59.3050   34.2250   47.5360 C   0  0  0  0  0  0  0  0  0  0  0  0
   59.9340   34.5990   46.3400 C   0  0  0  0  0  0  0  0  0  0  0  0
   59.3640   34.2610   45.1090 C   0  0  0  0  0  0  0  0  0  0  0  0
   58.1680   33.5370   45.0520 C   0  0  0  0  0  0  0  0  0  0  0  0
   57.6380   33.2280   43.7890 O   0  0  0  0  0  0  0  0  0  0  0  0
   57.7150   31.9530   43.1520 C   0  0  0  0  0  0  0  0  0  0  0  0
   57.4240   30.8610   44.1310 C   0  0  0  0  0  0  0  0  0  0  0  0
   58.3480   30.1620   44.8770 C   0  0  0  0  0  0  0  0  0  0  0  0
   57.5700   29.2790   45.6000 C   0  0  0  0  0  0  0  0  0  0  0  0
   58.0560   28.2900   46.5690 C   0  0  0  0  0  0  0  0  0  0  0  0
   58.4590   28.6710   47.7010 O   0  0  0  0  0  0  0  0  0  0  0  0
   58.0740   26.9000   46.2250 N   0  0  0  0  0  0  0  0  0  0  0  0
   57.0750   26.2680   45.3720 C   0  0  0  0  0  0  0  0  0  0  0  0
   55.9000   25.8350   46.1870 C   0  0  0  0  0  0  0  0  0  0  0  0
   54.7660   26.3420   45.9860 O   0  0  0  0  0  0  0  0  0  0  0  0
   56.0510   24.8450   47.1510 O   0  0  0  0  0  0  0  0  0  0  0  0
   56.2710   29.4530   45.2870 N   0  0  0  0  0  0  0  0  0  0  0  0
   56.2220   30.4080   44.4030 O   0  0  0  0  0  0  0  0  0  0  0  0
   57.5480   33.1430   46.2540 C   0  0  0  0  0  0  0  0  0  0  0  0
   58.1170   33.4810   47.4850 C   0  0  0  0  0  0  0  0  0  0  0  0
   59.2796   34.2118   49.6705 H   0  0  0  0  0  0  0  0  0  0  0  0
   60.9090   34.0446   48.9330 H   0  0  0  0  0  0  0  0  0  0  0  0
   60.0825   35.6395   48.9330 H   0  0  0  0  0  0  0  0  0  0  0  0
   60.8794   35.1604   46.3704 H   0  0  0  0  0  0  0  0  0  0  0  0
   59.8605   34.5671   44.1764 H   0  0  0  0  0  0  0  0  0  0  0  0
   56.9802   31.9117   42.3344 H   0  0  0  0  0  0  0  0  0  0  0  0
   58.7315   31.8140   42.7552 H   0  0  0  0  0  0  0  0  0  0  0  0
   59.4416   30.2790   44.8929 H   0  0  0  0  0  0  0  0  0  0  0  0
   56.7425   26.9864   44.6082 H   0  0  0  0  0  0  0  0  0  0  0  0
   57.5214   25.3862   44.8892 H   0  0  0  0  0  0  0  0  0  0  0  0
   56.6116   32.5666   46.2236 H   0  0  0  0  0  0  0  0  0  0  0  0
   57.6307   33.1619   48.4186 H   0  0  0  0  0  0  0  0  0  0  0  0
  1  2  1  0
  2  3  2  0
  3  4  1  0
  4  5  2  0
  5  6  1  0
  6  7  1  0
  7  8  1  0
  8  9  2  0
  9 10  1  0
 10 11  1  0
 11 12  2  0
 11 13  1  0
 13 14  1  0
 14 15  1  0
 15 16  2  0
 15 17  1  0
 10 18  2  0
 18 19  1  0
  5 20  1  0
 20 21  2  0
 21  2  1  0
 19  8  1  0
  1 22  1  0
  1 23  1  0
  1 24  1  0
  3 25  1  0
  4 26  1  0
  7 27  1  0
  7 28  1  0
  9 29  1  0
 14 30  1  0
 14 31  1  0
 20 32  1  0
 21 33  1  0
M  CHG  2  13  -1  17  -1
M  END
>  <UniqueID>  (47) 
40

>  <SMILES>  (47) 
Cc1ccc(OCc2cc(C(=O)[N-]CC(=O)[O-])no2)cc1

>  <Energy>  (47) 
57.80022714503225

>  <Genealogy>  (47) 
Cc1ccc(OCc2cc(C(=O)[N-]CC(=O)[O-])no2)cc1 (protonated)
Cc1ccc(OCc2cc(C(=O)[N-]CC(=O)[O-])no2)cc1 (3D coordinates assigned)
Cc1ccc(OCc2cc(C(=O)[N-]CC(=O)[O-])no2)cc1 (optimized conformer: 57.80022714503225 kcal/mol)

>  <smiles>  (47) 
Cc1ccc(OCc2cc(C(=O)NCC(=O)O)no2)cc1

>  <score_type>  (47) 
oracle

>  <origin>  (47) 
adg

>  <m_score__min__energy>  (47) 
-12.23

>  <m_primary>  (47) 
energy

$$$$
47:0
     RDKit          3D

 25 26  0  0  0  0  0  0  0  0999 V2000
   57.6940   32.9500   44.6170 C   0  0  0  0  0  0  0  0  0  0  0  0
   57.3690   31.8380   43.6260 C   0  0  0  0  0  0  0  0  0  0  0  0
   57.6760   30.5250   44.2140 N   0  0  0  0  0  0  0  0  0  0  0  0
   58.9660   30.1440   44.3180 N   0  0  0  0  0  0  0  0  0  0  0  0
   59.3270   28.9280   44.8360 C   0  0  0  0  0  0  0  0  0  0  0  0
   60.7690   28.5210   44.9300 C   0  0  0  0  0  0  0  0  0  0  0  0
   58.3080   28.0700   45.2390 C   0  0  0  0  0  0  0  0  0  0  0  0
   58.3320   26.7970   45.7730 C   0  0  0  0  0  0  0  0  0  0  0  0
   56.9960   26.4580   45.9580 C   0  0  0  0  0  0  0  0  0  0  0  0
   56.1870   27.4660   45.5600 N   0  0  0  0  0  0  0  0  0  0  0  0
   57.0050   28.4400   45.1250 C   0  0  0  0  0  0  0  0  0  0  0  0
   56.6610   29.6800   44.6030 C   0  0  0  0  0  0  0  0  0  0  0  0
   55.4480   30.0100   44.4880 O   0  0  0  0  0  0  0  0  0  0  0  0
   57.5830   32.5704   45.6434 H   0  0  0  0  0  0  0  0  0  0  0  0
   58.7288   33.2890   44.4613 H   0  0  0  0  0  0  0  0  0  0  0  0
   57.0046   33.7929   44.4613 H   0  0  0  0  0  0  0  0  0  0  0  0
   56.2999   31.8804   43.3707 H   0  0  0  0  0  0  0  0  0  0  0  0
   57.9781   31.9761   42.7205 H   0  0  0  0  0  0  0  0  0  0  0  0
   59.7200   30.7890   43.9910 H   0  0  0  0  0  0  0  0  0  0  0  0
   61.0587   28.4392   45.9880 H   0  0  0  0  0  0  0  0  0  0  0  0
   60.9085   27.5484   44.4354 H   0  0  0  0  0  0  0  0  0  0  0  0
   61.3964   29.2772   44.4354 H   0  0  0  0  0  0  0  0  0  0  0  0
   59.2161   26.1839   46.0024 H   0  0  0  0  0  0  0  0  0  0  0  0
   56.6453   25.5009   46.3715 H   0  0  0  0  0  0  0  0  0  0  0  0
   55.1430   27.4770   45.5840 H   0  0  0  0  0  0  0  0  0  0  0  0
  1  2  1  0
  2  3  1  0
  3  4  1  0
  4  5  2  0
  5  6  1  0
  5  7  1  0
  7  8  1  0
  8  9  2  0
  9 10  1  0
 10 11  1  0
 11 12  1  0
 12 13  2  0
 12  3  1  0
 11  7  2  0
  1 14  1  0
  1 15  1  0
  1 16  1  0
  2 17  1  0
  2 18  1  0
  4 19  1  0
  6 20  1  0
  6 21  1  0
  6 22  1  0
  8 23  1  0
  9 24  1  0
 10 25  1  0
M  CHG  1   4   1
M  END
>  <UniqueID>  (48) 
41

>  <SMILES>  (48) 
CCn1[nH+]c(C)c2cc[nH]c2c1=O

>  <Energy>  (48) 
56.96724697436384

>  <Genealogy>  (48) 
CCn1[nH+]c(C)c2cc[nH]c2c1=O (protonated)
CCn1[nH+]c(C)c2cc[nH]c2c1=O (3D coordinates assigned)
CCn1[nH+]c(C)c2cc[nH]c2c1=O (optimized conformer: 56.96724697436384 kcal/mol)

>  <smiles>  (48) 
CCn1nc(C)c2cc[nH]c2c1=O

>  <score_type>  (48) 
oracle

>  <origin>  (48) 
adg

>  <m_score__min__energy>  (48) 
-4.3899999999999997

>  <m_primary>  (48) 
energy

$$$$
48:0
     RDKit          3D

 27 28  0  0  1  0  0  0  0  0999 V2000
   59.7030   33.4970   50.1710 C   0  0  0  0  0  0  0  0  0  0  0  0
   58.8710   32.9800   49.1640 O   0  0  0  0  0  0  0  0  0  0  0  0
   58.9290   33.5470   47.9010 C   0  0  0  0  0  0  0  0  0  0  0  0
   59.8640   34.5700   47.7310 C   0  0  0  0  0  0  0  0  0  0  0  0
   60.0050   35.2100   46.5000 C   0  0  0  0  0  0  0  0  0  0  0  0
   59.1860   34.7850   45.4730 C   0  0  0  0  0  0  0  0  0  0  0  0
   58.2550   33.7760   45.6180 C   0  0  0  0  0  0  0  0  0  0  0  0
   57.4110   33.3800   44.4570 C   0  0  0  0  0  0  0  0  0  0  0  0
   57.9280   32.1900   43.8100 N   0  0  0  0  0  0  0  0  0  0  0  0
   57.2540   31.1020   43.9240 C   0  0  0  0  0  0  0  0  0  0  0  0
   56.0470   30.9940   44.4960 N   0  0  0  0  0  0  0  0  0  0  0  0
   55.6770   29.7120   44.4220 C   0  0  0  0  0  0  0  0  0  0  0  0
   56.6400   29.0080   43.8070 N   0  0  0  0  0  0  0  0  0  0  0  0
   57.6180   29.8660   43.4980 N   0  0  0  0  0  0  0  0  0  0  0  0
   58.1240   33.1440   46.8560 C   0  0  0  0  0  0  0  0  0  0  0  0
   59.2887   33.2396   51.1570 H   0  0  0  0  0  0  0  0  0  0  0  0
   60.7099   33.0653   50.0723 H   0  0  0  0  0  0  0  0  0  0  0  0
   59.7618   34.5910   50.0723 H   0  0  0  0  0  0  0  0  0  0  0  0
   60.4966   34.8746   48.5778 H   0  0  0  0  0  0  0  0  0  0  0  0
   60.7368   36.0181   46.3537 H   0  0  0  0  0  0  0  0  0  0  0  0
   59.2798   35.2738   44.4921 H   0  0  0  0  0  0  0  0  0  0  0  0
   56.3882   33.1804   44.8093 H   0  0  0  0  0  0  0  0  0  0  0  0
   57.4181   34.2025   43.7267 H   0  0  0  0  0  0  0  0  0  0  0  0
   54.7321   29.2989   44.8048 H   0  0  0  0  0  0  0  0  0  0  0  0
   56.6630   27.9770   43.5900 H   0  0  0  0  0  0  0  0  0  0  0  0
   58.5040   29.5900   43.0070 H   0  0  0  0  0  0  0  0  0  0  0  0
   57.3899   32.3368   46.9959 H   0  0  0  0  0  0  0  0  0  0  0  0
  1  2  1  0
  2  3  1  0
  3  4  2  0
  4  5  1  0
  5  6  2  0
  6  7  1  0
  7  8  1  0
  8  9  1  0
  9 10  2  0
 10 11  1  0
 11 12  2  0
 12 13  1  0
 13 14  1  0
  7 15  2  0
 15  3  1  0
 14 10  1  0
  1 16  1  0
  1 17  1  0
  1 18  1  0
  4 19  1  0
  5 20  1  0
  6 21  1  0
  8 22  1  0
  8 23  1  0
 12 24  1  0
 13 25  1  0
 14 26  1  0
 15 27  1  0
M  END
>  <smiles>  (49) 
COc1cccc(CN=c2nc[nH][nH]2)c1

>  <score_type>  (49) 
oracle

>  <origin>  (49) 
adg

>  <m_score__min__energy>  (49) 
-5.71

>  <m_primary>  (49) 
energy

$$$$
